RPPNBJKXHXGJEE-FEAKQIBJNA-N
     RDKit          3D

 46 49  0  0  0  0  0  0  0  0999 V2000
  141.8335   72.3164  221.6083 H   0  0  0  0  0  0  0  0  0  0  0  0
  140.8090   72.6480  221.8330 C   0  0  0  0  0  0  0  0  0  0  0  0
  139.8910   71.7200  222.1390 C   0  0  0  0  0  0  0  0  0  0  0  0
  139.1450   71.4368  221.3819 H   0  0  0  0  0  0  0  0  0  0  0  0
  139.8520   71.0620  223.4730 C   0  0  0  0  0  0  0  0  0  0  0  0
  140.4230   71.7230  224.5160 N   0  0  0  0  0  0  0  0  0  0  0  0
  140.4700   71.2040  225.7630 C   0  0  0  0  0  0  0  0  0  0  0  0
  141.0720   71.9260  226.8010 C   0  0  0  0  0  0  0  0  0  0  0  0
  141.5056   72.9171  226.6019 H   0  0  0  0  0  0  0  0  0  0  0  0
  141.1220   71.3880  228.0890 C   0  0  0  0  0  0  0  0  0  0  0  0
  141.5930   71.9565  228.9044 H   0  0  0  0  0  0  0  0  0  0  0  0
  140.5740   70.1280  228.3420 C   0  0  0  0  0  0  0  0  0  0  0  0
  140.6164   69.7057  229.3568 H   0  0  0  0  0  0  0  0  0  0  0  0
  139.9720   69.4020  227.3100 C   0  0  0  0  0  0  0  0  0  0  0  0
  139.5402   68.4111  227.5143 H   0  0  0  0  0  0  0  0  0  0  0  0
  139.9180   69.9390  226.0080 C   0  0  0  0  0  0  0  0  0  0  0  0
  139.3210   69.2550  224.9360 C   0  0  0  0  0  0  0  0  0  0  0  0
  138.7960   68.1240  225.1430 O   0  0  0  0  0  0  0  0  0  0  0  0
  139.2940   69.8120  223.6760 N   0  0  0  0  0  0  0  0  0  0  0  0
  138.6110   69.0660  222.5910 C   0  0  0  0  0  0  0  0  0  0  0  0
  139.0950   69.3119  221.6343 H   0  0  0  0  0  0  0  0  0  0  0  0
  138.6916   67.9930  222.8195 H   0  0  0  0  0  0  0  0  0  0  0  0
  137.1040   69.4160  222.4910 C   0  0  2  0  0  0  0  0  0  0  0  0
  136.9640   69.9889  221.5625 H   0  0  0  0  0  0  0  0  0  0  0  0
  136.6110   70.3480  223.6320 C   0  0  0  0  0  0  0  0  0  0  0  0
  135.8376   71.0211  223.2336 H   0  0  0  0  0  0  0  0  0  0  0  0
  137.4739   70.9180  224.0068 H   0  0  0  0  0  0  0  0  0  0  0  0
  136.0460   69.5830  224.7510 N   0  0  0  0  0  0  0  0  0  0  0  0
  136.7550   68.8860  225.0790 H   0  0  0  0  0  0  0  0  0  0  0  0
  134.8140   68.8680  224.3610 C   0  0  0  0  0  0  0  0  0  0  0  0
  133.9623   69.5549  224.4743 H   0  0  0  0  0  0  0  0  0  0  0  0
  134.7304   67.9876  225.0152 H   0  0  0  0  0  0  0  0  0  0  0  0
  134.8350   68.3510  222.9040 C   0  0  0  0  0  0  0  0  0  0  0  0
  134.3548   69.0954  222.2519 H   0  0  0  0  0  0  0  0  0  0  0  0
  134.2925   67.3949  222.8651 H   0  0  0  0  0  0  0  0  0  0  0  0
  136.2670   68.1160  222.4230 C   0  0  0  0  0  0  0  0  0  0  0  0
  136.2415   67.7603  221.3824 H   0  0  0  0  0  0  0  0  0  0  0  0
  136.7350   67.3673  223.0791 H   0  0  0  0  0  0  0  0  0  0  0  0
  140.5120   74.0920  221.7830 C   0  0  0  0  0  0  0  0  0  0  0  0
  138.9690   74.7340  221.9660 S   0  0  0  0  0  0  0  0  0  0  0  0
  139.4080   76.3470  221.8010 C   0  0  0  0  0  0  0  0  0  0  0  0
  138.7262   77.2090  221.8460 H   0  0  0  0  0  0  0  0  0  0  0  0
  140.7800   76.4040  221.5980 C   0  0  0  0  0  0  0  0  0  0  0  0
  141.3284   77.3473  221.4587 H   0  0  0  0  0  0  0  0  0  0  0  0
  141.4010   75.1490  221.5870 C   0  0  0  0  0  0  0  0  0  0  0  0
  142.4821   75.0104  221.4386 H   0  0  0  0  0  0  0  0  0  0  0  0
  1  2  1  0
  2  3  2  0
  3  4  1  0
  3  5  1  0
  5  6  2  0
  6  7  1  0
  7  8  2  0
  8  9  1  0
  8 10  1  0
 10 11  1  0
 10 12  2  0
 12 13  1  0
 12 14  1  0
 14 15  1  0
 14 16  2  0
 16 17  1  0
 17 18  2  0
 17 19  1  0
 19 20  1  0
 20 21  1  0
 20 22  1  0
 20 23  1  0
 23 24  1  6
 23 25  1  0
 25 26  1  0
 25 27  1  0
 25 28  1  0
 28 29  1  0
 28 30  1  0
 30 31  1  0
 30 32  1  0
 30 33  1  0
 33 34  1  0
 33 35  1  0
 33 36  1  0
 36 37  1  0
 36 38  1  0
  2 39  1  0
 39 40  1  0
 40 41  1  0
 41 42  1  0
 41 43  2  0
 43 44  1  0
 43 45  1  0
 45 46  1  0
 19  5  1  0
 36 23  1  0
 45 39  2  0
 16  7  1  0
M  END
>  <UniqueID>  (1) 
396

>  <SMILES>  (1) 
O=c1c2ccccc2nc(/C=C/c2cccs2)n1C[C@H]1CCCNC1

>  <Energy>  (1) 
83.30483570291405

>  <Genealogy>  (1) 
O=c1c2ccccc2nc(/C=C/c2cccs2)n1C[C@H]1CCCNC1 (chirality)
O=c1c2ccccc2nc(/C=C/c2cccs2)n1C[C@H]1CCCNC1 (cis-trans isomerization)
O=c1c2ccccc2nc(/C=C/c2cccs2)n1C[C@H]1CCCNC1 (3D coordinates assigned)
O=c1c2ccccc2nc(/C=C/c2cccs2)n1C[C@H]1CCCNC1 (nonaromatic ring conformer: 83.30483570291405 kcal/mol)

>  <smiles>  (1) 
O=c1c2ccccc2nc(/C=C/c2cccs2)n1CC1CCCNC1

>  <score_type>  (1) 
oracle

>  <origin>  (1) 
autodockgpu

>  <m_score__min__energy>  (1) 
-6.8300000000000001

>  <m_primary>  (1) 
energy

>  <meeko>  (1) 
{"free_energy": -6.74, "intermolecular_energy": -8.23, "internal_energy": -1.82, "cluster_size": 15, "cluster_id": 1, "rank_in_cluster": 13}

>  <energy>  (1) 
-6.83

>  <cluster_rmsd>  (1) 
0.0

>  <rmsd>  (1) 
271.33

>  <cluster>  (1) 
1

$$$$
RPPNBJKXHXGJEE-FEAKQIBJNA-N
     RDKit          3D

 46 49  0  0  0  0  0  0  0  0999 V2000
  139.7412   73.7021  222.3150 H   0  0  0  0  0  0  0  0  0  0  0  0
  140.4050   72.9220  221.9140 C   0  0  0  0  0  0  0  0  0  0  0  0
  140.0530   71.6390  222.0790 C   0  0  0  0  0  0  0  0  0  0  0  0
  139.8226   71.0300  221.1924 H   0  0  0  0  0  0  0  0  0  0  0  0
  139.9650   71.0150  223.4270 C   0  0  0  0  0  0  0  0  0  0  0  0
  140.5090   71.6960  224.4710 N   0  0  0  0  0  0  0  0  0  0  0  0
  140.5120   71.2070  225.7310 C   0  0  0  0  0  0  0  0  0  0  0  0
  141.0870   71.9490  226.7700 C   0  0  0  0  0  0  0  0  0  0  0  0
  141.5350   72.9317  226.5612 H   0  0  0  0  0  0  0  0  0  0  0  0
  141.0920   71.4420  228.0710 C   0  0  0  0  0  0  0  0  0  0  0  0
  141.5442   72.0255  228.8864 H   0  0  0  0  0  0  0  0  0  0  0  0
  140.5230   70.1940  228.3380 C   0  0  0  0  0  0  0  0  0  0  0  0
  140.5279   69.7970  229.3639 H   0  0  0  0  0  0  0  0  0  0  0  0
  139.9470   69.4480  227.3040 C   0  0  0  0  0  0  0  0  0  0  0  0
  139.5001   68.4659  227.5178 H   0  0  0  0  0  0  0  0  0  0  0  0
  139.9390   69.9540  225.9890 C   0  0  0  0  0  0  0  0  0  0  0  0
  139.3700   69.2490  224.9160 C   0  0  0  0  0  0  0  0  0  0  0  0
  138.8270   68.1280  225.1340 O   0  0  0  0  0  0  0  0  0  0  0  0
  139.3880   69.7750  223.6420 N   0  0  0  0  0  0  0  0  0  0  0  0
  138.7320   69.0090  222.5540 C   0  0  0  0  0  0  0  0  0  0  0  0
  139.2453   69.2309  221.6067 H   0  0  0  0  0  0  0  0  0  0  0  0
  138.7991   67.9410  222.8085 H   0  0  0  0  0  0  0  0  0  0  0  0
  137.2310   69.3650  222.4020 C   0  0  2  0  0  0  0  0  0  0  0  0
  137.1192   69.9074  221.4516 H   0  0  0  0  0  0  0  0  0  0  0  0
  136.7150   70.3370  223.4990 C   0  0  0  0  0  0  0  0  0  0  0  0
  135.9575   71.0019  223.0584 H   0  0  0  0  0  0  0  0  0  0  0  0
  137.5725   70.9125  223.8779 H   0  0  0  0  0  0  0  0  0  0  0  0
  136.1150   69.6140  224.6270 N   0  0  0  0  0  0  0  0  0  0  0  0
  136.8110   68.9240  224.9970 H   0  0  0  0  0  0  0  0  0  0  0  0
  134.8900   68.8940  224.2280 C   0  0  0  0  0  0  0  0  0  0  0  0
  134.0404   69.5894  224.2955 H   0  0  0  0  0  0  0  0  0  0  0  0
  134.7839   68.0363  224.9085 H   0  0  0  0  0  0  0  0  0  0  0  0
  134.9450   68.3280  222.7910 C   0  0  0  0  0  0  0  0  0  0  0  0
  134.4871   69.0528  222.1018 H   0  0  0  0  0  0  0  0  0  0  0  0
  134.3968   67.3745  222.7702 H   0  0  0  0  0  0  0  0  0  0  0  0
  136.3870   68.0680  222.3560 C   0  0  0  0  0  0  0  0  0  0  0  0
  136.3861   67.6773  221.3277 H   0  0  0  0  0  0  0  0  0  0  0  0
  136.8326   67.3391  223.0489 H   0  0  0  0  0  0  0  0  0  0  0  0
  141.6390   73.3390  221.2210 C   0  0  0  0  0  0  0  0  0  0  0  0
  141.9530   74.9210  220.7470 S   0  0  0  0  0  0  0  0  0  0  0  0
  143.4600   74.6240  220.0660 C   0  0  0  0  0  0  0  0  0  0  0  0
  144.1132   75.3723  219.5934 H   0  0  0  0  0  0  0  0  0  0  0  0
  143.7380   73.2710  220.2030 C   0  0  0  0  0  0  0  0  0  0  0  0
  144.6678   72.8089  219.8398 H   0  0  0  0  0  0  0  0  0  0  0  0
  142.7260   72.5490  220.8460 C   0  0  0  0  0  0  0  0  0  0  0  0
  142.7821   71.4671  221.0366 H   0  0  0  0  0  0  0  0  0  0  0  0
  1  2  1  0
  2  3  2  0
  3  4  1  0
  3  5  1  0
  5  6  2  0
  6  7  1  0
  7  8  2  0
  8  9  1  0
  8 10  1  0
 10 11  1  0
 10 12  2  0
 12 13  1  0
 12 14  1  0
 14 15  1  0
 14 16  2  0
 16 17  1  0
 17 18  2  0
 17 19  1  0
 19 20  1  0
 20 21  1  0
 20 22  1  0
 20 23  1  0
 23 24  1  6
 23 25  1  0
 25 26  1  0
 25 27  1  0
 25 28  1  0
 28 29  1  0
 28 30  1  0
 30 31  1  0
 30 32  1  0
 30 33  1  0
 33 34  1  0
 33 35  1  0
 33 36  1  0
 36 37  1  0
 36 38  1  0
  2 39  1  0
 39 40  1  0
 40 41  1  0
 41 42  1  0
 41 43  2  0
 43 44  1  0
 43 45  1  0
 45 46  1  0
 19  5  1  0
 36 23  1  0
 45 39  2  0
 16  7  1  0
M  END
>  <UniqueID>  (2) 
396

>  <SMILES>  (2) 
O=c1c2ccccc2nc(/C=C/c2cccs2)n1C[C@H]1CCCNC1

>  <Energy>  (2) 
83.30483570291405

>  <Genealogy>  (2) 
O=c1c2ccccc2nc(/C=C/c2cccs2)n1C[C@H]1CCCNC1 (chirality)
O=c1c2ccccc2nc(/C=C/c2cccs2)n1C[C@H]1CCCNC1 (cis-trans isomerization)
O=c1c2ccccc2nc(/C=C/c2cccs2)n1C[C@H]1CCCNC1 (3D coordinates assigned)
O=c1c2ccccc2nc(/C=C/c2cccs2)n1C[C@H]1CCCNC1 (nonaromatic ring conformer: 83.30483570291405 kcal/mol)

>  <smiles>  (2) 
O=c1c2ccccc2nc(/C=C/c2cccs2)n1CC1CCCNC1

>  <score_type>  (2) 
oracle

>  <origin>  (2) 
autodockgpu

>  <m_score__min__energy>  (2) 
-6.8300000000000001

>  <m_primary>  (2) 
energy

>  <meeko>  (2) 
{"free_energy": -6.83, "intermolecular_energy": -8.32, "internal_energy": -1.76, "cluster_size": 15, "cluster_id": 1, "rank_in_cluster": 2}

>  <energy>  (2) 
-6.83

>  <cluster_rmsd>  (2) 
0.62

>  <rmsd>  (2) 
271.32

>  <cluster>  (2) 
1

$$$$
RPPNBJKXHXGJEE-FEAKQIBJNA-N
     RDKit          3D

 46 49  0  0  0  0  0  0  0  0999 V2000
  141.0587   70.6468  220.7913 H   0  0  0  0  0  0  0  0  0  0  0  0
  141.0870   71.6170  221.3090 C   0  0  0  0  0  0  0  0  0  0  0  0
  140.1250   71.8920  222.2000 C   0  0  0  0  0  0  0  0  0  0  0  0
  139.3871   72.6733  221.9653 H   0  0  0  0  0  0  0  0  0  0  0  0
  140.0260   71.1710  223.4980 C   0  0  0  0  0  0  0  0  0  0  0  0
  140.5500   71.7800  224.5960 N   0  0  0  0  0  0  0  0  0  0  0  0
  140.5420   71.2010  225.8170 C   0  0  0  0  0  0  0  0  0  0  0  0
  141.0970   71.8710  226.9140 C   0  0  0  0  0  0  0  0  0  0  0  0
  141.5379   72.8701  226.7824 H   0  0  0  0  0  0  0  0  0  0  0  0
  141.0910   71.2710  228.1760 C   0  0  0  0  0  0  0  0  0  0  0  0
  141.5279   71.7975  229.0373 H   0  0  0  0  0  0  0  0  0  0  0  0
  140.5300   70.0020  228.3440 C   0  0  0  0  0  0  0  0  0  0  0  0
  140.5258   69.5318  229.3384 H   0  0  0  0  0  0  0  0  0  0  0  0
  139.9740   69.3280  227.2520 C   0  0  0  0  0  0  0  0  0  0  0  0
  139.5333   68.3295  227.3888 H   0  0  0  0  0  0  0  0  0  0  0  0
  139.9780   69.9270  225.9770 C   0  0  0  0  0  0  0  0  0  0  0  0
  139.4290   69.2970  224.8480 C   0  0  0  0  0  0  0  0  0  0  0  0
  138.8940   68.1590  224.9770 O   0  0  0  0  0  0  0  0  0  0  0  0
  139.4580   69.9140  223.6160 N   0  0  0  0  0  0  0  0  0  0  0  0
  138.8230   69.2240  222.4670 C   0  0  0  0  0  0  0  0  0  0  0  0
  139.3095   69.5612  221.5398 H   0  0  0  0  0  0  0  0  0  0  0  0
  138.9463   68.1412  222.6165 H   0  0  0  0  0  0  0  0  0  0  0  0
  137.3040   69.5170  222.3670 C   0  0  2  0  0  0  0  0  0  0  0  0
  137.1289   70.0019  221.3953 H   0  0  0  0  0  0  0  0  0  0  0  0
  136.8010   70.5290  223.4320 C   0  0  0  0  0  0  0  0  0  0  0  0
  135.9997   71.1409  222.9921 H   0  0  0  0  0  0  0  0  0  0  0  0
  137.6515   71.1554  223.7389 H   0  0  0  0  0  0  0  0  0  0  0  0
  136.2800   69.8480  224.6240 N   0  0  0  0  0  0  0  0  0  0  0  0
  137.0170   69.2040  224.9970 H   0  0  0  0  0  0  0  0  0  0  0  0
  135.0660   69.0640  224.3220 C   0  0  0  0  0  0  0  0  0  0  0  0
  134.1945   69.7315  224.3917 H   0  0  0  0  0  0  0  0  0  0  0  0
  135.0223   68.2422  225.0519 H   0  0  0  0  0  0  0  0  0  0  0  0
  135.0790   68.4220  222.9160 C   0  0  0  0  0  0  0  0  0  0  0  0
  134.5637   69.0910  222.2111 H   0  0  0  0  0  0  0  0  0  0  0  0
  134.5673   67.4498  222.9716 H   0  0  0  0  0  0  0  0  0  0  0  0
  136.5090   68.1900  222.4290 C   0  0  0  0  0  0  0  0  0  0  0  0
  136.4774   67.7439  221.4240 H   0  0  0  0  0  0  0  0  0  0  0  0
  137.0124   67.5163  223.1380 H   0  0  0  0  0  0  0  0  0  0  0  0
  142.1830   72.5520  220.9880 C   0  0  0  0  0  0  0  0  0  0  0  0
  143.7830   72.0790  220.7860 S   0  0  0  0  0  0  0  0  0  0  0  0
  144.3980   73.6070  220.4570 C   0  0  0  0  0  0  0  0  0  0  0  0
  145.4501   73.8470  220.2437 H   0  0  0  0  0  0  0  0  0  0  0  0
  143.3480   74.5150  220.5010 C   0  0  0  0  0  0  0  0  0  0  0  0
  143.4772   75.5924  220.3208 H   0  0  0  0  0  0  0  0  0  0  0  0
  142.1100   73.9320  220.7960 C   0  0  0  0  0  0  0  0  0  0  0  0
  141.1736   74.5045  220.8691 H   0  0  0  0  0  0  0  0  0  0  0  0
  1  2  1  0
  2  3  2  0
  3  4  1  0
  3  5  1  0
  5  6  2  0
  6  7  1  0
  7  8  2  0
  8  9  1  0
  8 10  1  0
 10 11  1  0
 10 12  2  0
 12 13  1  0
 12 14  1  0
 14 15  1  0
 14 16  2  0
 16 17  1  0
 17 18  2  0
 17 19  1  0
 19 20  1  0
 20 21  1  0
 20 22  1  0
 20 23  1  0
 23 24  1  6
 23 25  1  0
 25 26  1  0
 25 27  1  0
 25 28  1  0
 28 29  1  0
 28 30  1  0
 30 31  1  0
 30 32  1  0
 30 33  1  0
 33 34  1  0
 33 35  1  0
 33 36  1  0
 36 37  1  0
 36 38  1  0
  2 39  1  0
 39 40  1  0
 40 41  1  0
 41 42  1  0
 41 43  2  0
 43 44  1  0
 43 45  1  0
 45 46  1  0
 19  5  1  0
 36 23  1  0
 45 39  2  0
 16  7  1  0
M  END
>  <UniqueID>  (3) 
396

>  <SMILES>  (3) 
O=c1c2ccccc2nc(/C=C/c2cccs2)n1C[C@H]1CCCNC1

>  <Energy>  (3) 
83.30483570291405

>  <Genealogy>  (3) 
O=c1c2ccccc2nc(/C=C/c2cccs2)n1C[C@H]1CCCNC1 (chirality)
O=c1c2ccccc2nc(/C=C/c2cccs2)n1C[C@H]1CCCNC1 (cis-trans isomerization)
O=c1c2ccccc2nc(/C=C/c2cccs2)n1C[C@H]1CCCNC1 (3D coordinates assigned)
O=c1c2ccccc2nc(/C=C/c2cccs2)n1C[C@H]1CCCNC1 (nonaromatic ring conformer: 83.30483570291405 kcal/mol)

>  <smiles>  (3) 
O=c1c2ccccc2nc(/C=C/c2cccs2)n1CC1CCCNC1

>  <score_type>  (3) 
oracle

>  <origin>  (3) 
autodockgpu

>  <m_score__min__energy>  (3) 
-6.8300000000000001

>  <m_primary>  (3) 
energy

>  <meeko>  (3) 
{"free_energy": -6.79, "intermolecular_energy": -8.28, "internal_energy": -1.8, "cluster_size": 15, "cluster_id": 1, "rank_in_cluster": 7}

>  <energy>  (3) 
-6.83

>  <cluster_rmsd>  (3) 
1.5

>  <rmsd>  (3) 
271.3

>  <cluster>  (3) 
1

$$$$
RPPNBJKXHXGJEE-FEAKQIBJNA-N
     RDKit          3D

 46 49  0  0  0  0  0  0  0  0999 V2000
  137.9202   72.7020  221.7353 H   0  0  0  0  0  0  0  0  0  0  0  0
  138.9960   72.8200  221.9320 C   0  0  0  0  0  0  0  0  0  0  0  0
  139.7250   71.7210  222.1710 C   0  0  0  0  0  0  0  0  0  0  0  0
  140.3293   71.2932  221.3575 H   0  0  0  0  0  0  0  0  0  0  0  0
  139.7400   71.0630  223.5060 C   0  0  0  0  0  0  0  0  0  0  0  0
  140.3390   71.7300  224.5290 N   0  0  0  0  0  0  0  0  0  0  0  0
  140.4360   71.2110  225.7730 C   0  0  0  0  0  0  0  0  0  0  0  0
  141.0650   71.9400  226.7890 C   0  0  0  0  0  0  0  0  0  0  0  0
  141.4788   72.9367  226.5759 H   0  0  0  0  0  0  0  0  0  0  0  0
  141.1670   71.4010  228.0740 C   0  0  0  0  0  0  0  0  0  0  0  0
  141.6623   71.9737  228.8720 H   0  0  0  0  0  0  0  0  0  0  0  0
  140.6410   70.1360  228.3470 C   0  0  0  0  0  0  0  0  0  0  0  0
  140.7222   69.7150  229.3600 H   0  0  0  0  0  0  0  0  0  0  0  0
  140.0110   69.4030  227.3350 C   0  0  0  0  0  0  0  0  0  0  0  0
  139.5982   68.4071  227.5534 H   0  0  0  0  0  0  0  0  0  0  0  0
  139.9050   69.9400  226.0360 C   0  0  0  0  0  0  0  0  0  0  0  0
  139.2790   69.2490  224.9860 C   0  0  0  0  0  0  0  0  0  0  0  0
  138.7740   68.1130  225.2110 O   0  0  0  0  0  0  0  0  0  0  0  0
  139.2020   69.8060  223.7280 N   0  0  0  0  0  0  0  0  0  0  0  0
  138.4900   69.0530  222.6670 C   0  0  0  0  0  0  0  0  0  0  0  0
  138.9418   69.2997  221.6949 H   0  0  0  0  0  0  0  0  0  0  0  0
  138.5849   67.9811  222.8952 H   0  0  0  0  0  0  0  0  0  0  0  0
  136.9780   69.3930  222.6140 C   0  0  2  0  0  0  0  0  0  0  0  0
  136.8293   70.0885  221.7748 H   0  0  0  0  0  0  0  0  0  0  0  0
  136.4730   70.1490  223.8740 C   0  0  0  0  0  0  0  0  0  0  0  0
  135.6909   70.8615  223.5730 H   0  0  0  0  0  0  0  0  0  0  0  0
  137.3282   70.6720  224.3268 H   0  0  0  0  0  0  0  0  0  0  0  0
  135.9180   69.2260  224.8730 N   0  0  0  0  0  0  0  0  0  0  0  0
  136.6370   68.5000  225.1010 H   0  0  0  0  0  0  0  0  0  0  0  0
  134.6960   68.5570  224.3840 C   0  0  0  0  0  0  0  0  0  0  0  0
  133.8353   69.2100  224.5909 H   0  0  0  0  0  0  0  0  0  0  0  0
  134.6240   67.5924  224.9079 H   0  0  0  0  0  0  0  0  0  0  0  0
  134.7240   68.2500  222.8690 C   0  0  0  0  0  0  0  0  0  0  0  0
  134.2336   69.0721  222.3270 H   0  0  0  0  0  0  0  0  0  0  0  0
  134.1946   67.3015  222.6955 H   0  0  0  0  0  0  0  0  0  0  0  0
  136.1590   68.1040  222.3620 C   0  0  0  0  0  0  0  0  0  0  0  0
  136.1382   67.8981  221.2816 H   0  0  0  0  0  0  0  0  0  0  0  0
  136.6373   67.2765  222.9066 H   0  0  0  0  0  0  0  0  0  0  0  0
  139.5670   74.1810  221.9200 C   0  0  0  0  0  0  0  0  0  0  0  0
  138.7000   75.5590  222.3370 S   0  0  0  0  0  0  0  0  0  0  0  0
  139.9500   76.6550  222.0960 C   0  0  0  0  0  0  0  0  0  0  0  0
  139.8897   77.7438  222.2406 H   0  0  0  0  0  0  0  0  0  0  0  0
  141.0720   75.9500  221.6830 C   0  0  0  0  0  0  0  0  0  0  0  0
  142.0346   76.4313  221.4555 H   0  0  0  0  0  0  0  0  0  0  0  0
  140.8640   74.5680  221.5830 C   0  0  0  0  0  0  0  0  0  0  0  0
  141.6451   73.8594  221.2701 H   0  0  0  0  0  0  0  0  0  0  0  0
  1  2  1  0
  2  3  2  0
  3  4  1  0
  3  5  1  0
  5  6  2  0
  6  7  1  0
  7  8  2  0
  8  9  1  0
  8 10  1  0
 10 11  1  0
 10 12  2  0
 12 13  1  0
 12 14  1  0
 14 15  1  0
 14 16  2  0
 16 17  1  0
 17 18  2  0
 17 19  1  0
 19 20  1  0
 20 21  1  0
 20 22  1  0
 20 23  1  0
 23 24  1  6
 23 25  1  0
 25 26  1  0
 25 27  1  0
 25 28  1  0
 28 29  1  0
 28 30  1  0
 30 31  1  0
 30 32  1  0
 30 33  1  0
 33 34  1  0
 33 35  1  0
 33 36  1  0
 36 37  1  0
 36 38  1  0
  2 39  1  0
 39 40  1  0
 40 41  1  0
 41 42  1  0
 41 43  2  0
 43 44  1  0
 43 45  1  0
 45 46  1  0
 19  5  1  0
 36 23  1  0
 45 39  2  0
 16  7  1  0
M  END
>  <UniqueID>  (4) 
396

>  <SMILES>  (4) 
O=c1c2ccccc2nc(/C=C/c2cccs2)n1C[C@H]1CCCNC1

>  <Energy>  (4) 
83.30483570291405

>  <Genealogy>  (4) 
O=c1c2ccccc2nc(/C=C/c2cccs2)n1C[C@H]1CCCNC1 (chirality)
O=c1c2ccccc2nc(/C=C/c2cccs2)n1C[C@H]1CCCNC1 (cis-trans isomerization)
O=c1c2ccccc2nc(/C=C/c2cccs2)n1C[C@H]1CCCNC1 (3D coordinates assigned)
O=c1c2ccccc2nc(/C=C/c2cccs2)n1C[C@H]1CCCNC1 (nonaromatic ring conformer: 83.30483570291405 kcal/mol)

>  <smiles>  (4) 
O=c1c2ccccc2nc(/C=C/c2cccs2)n1CC1CCCNC1

>  <score_type>  (4) 
oracle

>  <origin>  (4) 
autodockgpu

>  <m_score__min__energy>  (4) 
-6.8300000000000001

>  <m_primary>  (4) 
energy

>  <meeko>  (4) 
{"free_energy": -6.83, "intermolecular_energy": -8.32, "internal_energy": -1.82, "cluster_size": 15, "cluster_id": 1, "rank_in_cluster": 3}

>  <energy>  (4) 
-6.83

>  <cluster_rmsd>  (4) 
1.5

>  <rmsd>  (4) 
271.35

>  <cluster>  (4) 
1

$$$$
RPPNBJKXHXGJEE-FEAKQIBJNA-N
     RDKit          3D

 46 49  0  0  0  0  0  0  0  0999 V2000
  138.2045   72.6924  221.6478 H   0  0  0  0  0  0  0  0  0  0  0  0
  139.2530   72.9020  221.9060 C   0  0  0  0  0  0  0  0  0  0  0  0
  140.0560   71.8700  222.2010 C   0  0  0  0  0  0  0  0  0  0  0  0
  140.8011   71.5439  221.4604 H   0  0  0  0  0  0  0  0  0  0  0  0
  139.9680   71.1530  223.5020 C   0  0  0  0  0  0  0  0  0  0  0  0
  140.5050   71.7620  224.5930 N   0  0  0  0  0  0  0  0  0  0  0  0
  140.5080   71.1860  225.8150 C   0  0  0  0  0  0  0  0  0  0  0  0
  141.0760   71.8570  226.9050 C   0  0  0  0  0  0  0  0  0  0  0  0
  141.5191   72.8543  226.7667 H   0  0  0  0  0  0  0  0  0  0  0  0
  141.0800   71.2600  228.1680 C   0  0  0  0  0  0  0  0  0  0  0  0
  141.5260   71.7878  229.0239 H   0  0  0  0  0  0  0  0  0  0  0  0
  140.5180   69.9930  228.3450 C   0  0  0  0  0  0  0  0  0  0  0  0
  140.5241   69.5245  229.3402 H   0  0  0  0  0  0  0  0  0  0  0  0
  139.9480   69.3190  227.2610 C   0  0  0  0  0  0  0  0  0  0  0  0
  139.5046   68.3227  227.4049 H   0  0  0  0  0  0  0  0  0  0  0  0
  139.9410   69.9150  225.9840 C   0  0  0  0  0  0  0  0  0  0  0  0
  139.3790   69.2840  224.8620 C   0  0  0  0  0  0  0  0  0  0  0  0
  138.8420   68.1480  225.0000 O   0  0  0  0  0  0  0  0  0  0  0  0
  139.3970   69.8970  223.6290 N   0  0  0  0  0  0  0  0  0  0  0  0
  138.7480   69.2060  222.4880 C   0  0  0  0  0  0  0  0  0  0  0  0
  139.2216   69.5444  221.5546 H   0  0  0  0  0  0  0  0  0  0  0  0
  138.8753   68.1234  222.6356 H   0  0  0  0  0  0  0  0  0  0  0  0
  137.2270   69.4960  222.4080 C   0  0  2  0  0  0  0  0  0  0  0  0
  137.0318   69.9444  221.4227 H   0  0  0  0  0  0  0  0  0  0  0  0
  136.7460   70.5470  223.4450 C   0  0  0  0  0  0  0  0  0  0  0  0
  135.9356   71.1426  222.9994 H   0  0  0  0  0  0  0  0  0  0  0  0
  137.6027   71.1838  223.7108 H   0  0  0  0  0  0  0  0  0  0  0  0
  136.2500   69.9110  224.6720 N   0  0  0  0  0  0  0  0  0  0  0  0
  136.9950   69.2820  225.0540 H   0  0  0  0  0  0  0  0  0  0  0  0
  135.0300   69.1180  224.4250 C   0  0  0  0  0  0  0  0  0  0  0  0
  134.1603   69.7887  224.4876 H   0  0  0  0  0  0  0  0  0  0  0  0
  135.0008   68.3243  225.1860 H   0  0  0  0  0  0  0  0  0  0  0  0
  135.0140   68.4240  223.0440 C   0  0  0  0  0  0  0  0  0  0  0  0
  134.4840   69.0665  222.3255 H   0  0  0  0  0  0  0  0  0  0  0  0
  134.5039   67.4548  223.1466 H   0  0  0  0  0  0  0  0  0  0  0  0
  136.4340   68.1730  222.5360 C   0  0  0  0  0  0  0  0  0  0  0  0
  136.3815   67.6897  221.5492 H   0  0  0  0  0  0  0  0  0  0  0  0
  136.9523   67.5258  223.2589 H   0  0  0  0  0  0  0  0  0  0  0  0
  139.7080   74.3060  221.9110 C   0  0  0  0  0  0  0  0  0  0  0  0
  138.7180   75.6050  222.3070 S   0  0  0  0  0  0  0  0  0  0  0  0
  139.8770   76.8030  222.1010 C   0  0  0  0  0  0  0  0  0  0  0  0
  139.7221   77.8822  222.2468 H   0  0  0  0  0  0  0  0  0  0  0  0
  141.0640   76.1960  221.7150 C   0  0  0  0  0  0  0  0  0  0  0  0
  141.9879   76.7574  221.5120 H   0  0  0  0  0  0  0  0  0  0  0  0
  140.9760   74.8020  221.6080 C   0  0  0  0  0  0  0  0  0  0  0  0
  141.8218   74.1628  221.3146 H   0  0  0  0  0  0  0  0  0  0  0  0
  1  2  1  0
  2  3  2  0
  3  4  1  0
  3  5  1  0
  5  6  2  0
  6  7  1  0
  7  8  2  0
  8  9  1  0
  8 10  1  0
 10 11  1  0
 10 12  2  0
 12 13  1  0
 12 14  1  0
 14 15  1  0
 14 16  2  0
 16 17  1  0
 17 18  2  0
 17 19  1  0
 19 20  1  0
 20 21  1  0
 20 22  1  0
 20 23  1  0
 23 24  1  6
 23 25  1  0
 25 26  1  0
 25 27  1  0
 25 28  1  0
 28 29  1  0
 28 30  1  0
 30 31  1  0
 30 32  1  0
 30 33  1  0
 33 34  1  0
 33 35  1  0
 33 36  1  0
 36 37  1  0
 36 38  1  0
  2 39  1  0
 39 40  1  0
 40 41  1  0
 41 42  1  0
 41 43  2  0
 43 44  1  0
 43 45  1  0
 45 46  1  0
 19  5  1  0
 36 23  1  0
 45 39  2  0
 16  7  1  0
M  END
>  <UniqueID>  (5) 
396

>  <SMILES>  (5) 
O=c1c2ccccc2nc(/C=C/c2cccs2)n1C[C@H]1CCCNC1

>  <Energy>  (5) 
83.30483570291405

>  <Genealogy>  (5) 
O=c1c2ccccc2nc(/C=C/c2cccs2)n1C[C@H]1CCCNC1 (chirality)
O=c1c2ccccc2nc(/C=C/c2cccs2)n1C[C@H]1CCCNC1 (cis-trans isomerization)
O=c1c2ccccc2nc(/C=C/c2cccs2)n1C[C@H]1CCCNC1 (3D coordinates assigned)
O=c1c2ccccc2nc(/C=C/c2cccs2)n1C[C@H]1CCCNC1 (nonaromatic ring conformer: 83.30483570291405 kcal/mol)

>  <smiles>  (5) 
O=c1c2ccccc2nc(/C=C/c2cccs2)n1CC1CCCNC1

>  <score_type>  (5) 
oracle

>  <origin>  (5) 
autodockgpu

>  <m_score__min__energy>  (5) 
-6.8300000000000001

>  <m_primary>  (5) 
energy

>  <meeko>  (5) 
{"free_energy": -6.79, "intermolecular_energy": -8.28, "internal_energy": -1.9, "cluster_size": 15, "cluster_id": 1, "rank_in_cluster": 9}

>  <energy>  (5) 
-6.82

>  <cluster_rmsd>  (5) 
0.07

>  <rmsd>  (5) 
271.32

>  <cluster>  (5) 
1

$$$$
RPPNBJKXHXGJEE-FEAKQIBJNA-N
     RDKit          3D

 46 49  0  0  0  0  0  0  0  0999 V2000
  138.3017   72.5889  221.5226 H   0  0  0  0  0  0  0  0  0  0  0  0
  139.3670   72.7150  221.7660 C   0  0  0  0  0  0  0  0  0  0  0  0
  140.0800   71.6270  222.0920 C   0  0  0  0  0  0  0  0  0  0  0  0
  140.7553   71.1869  221.3435 H   0  0  0  0  0  0  0  0  0  0  0  0
  139.9840   70.9980  223.4370 C   0  0  0  0  0  0  0  0  0  0  0  0
  140.5270   71.6730  224.4860 N   0  0  0  0  0  0  0  0  0  0  0  0
  140.5230   71.1790  225.7440 C   0  0  0  0  0  0  0  0  0  0  0  0
  141.0980   71.9140  226.7870 C   0  0  0  0  0  0  0  0  0  0  0  0
  141.5523   72.8949  226.5833 H   0  0  0  0  0  0  0  0  0  0  0  0
  141.0950   71.4020  228.0870 C   0  0  0  0  0  0  0  0  0  0  0  0
  141.5465   71.9804  228.9065 H   0  0  0  0  0  0  0  0  0  0  0  0
  140.5190   70.1560  228.3470 C   0  0  0  0  0  0  0  0  0  0  0  0
  140.5192   69.7549  229.3713 H   0  0  0  0  0  0  0  0  0  0  0  0
  139.9420   69.4170  227.3090 C   0  0  0  0  0  0  0  0  0  0  0  0
  139.4882   68.4370  227.5179 H   0  0  0  0  0  0  0  0  0  0  0  0
  139.9420   69.9280  225.9950 C   0  0  0  0  0  0  0  0  0  0  0  0
  139.3730   69.2300  224.9170 C   0  0  0  0  0  0  0  0  0  0  0  0
  138.8240   68.1120  225.1290 O   0  0  0  0  0  0  0  0  0  0  0  0
  139.3990   69.7610  223.6460 N   0  0  0  0  0  0  0  0  0  0  0  0
  138.7430   69.0030  222.5520 C   0  0  0  0  0  0  0  0  0  0  0  0
  139.2532   69.2359  221.6057 H   0  0  0  0  0  0  0  0  0  0  0  0
  138.8146   67.9328  222.7960 H   0  0  0  0  0  0  0  0  0  0  0  0
  137.2400   69.3550  222.4070 C   0  0  2  0  0  0  0  0  0  0  0  0
  137.1209   69.8881  221.4522 H   0  0  0  0  0  0  0  0  0  0  0  0
  136.7310   70.3370  223.4970 C   0  0  0  0  0  0  0  0  0  0  0  0
  135.9705   70.9975  223.0550 H   0  0  0  0  0  0  0  0  0  0  0  0
  137.5902   70.9170  223.8649 H   0  0  0  0  0  0  0  0  0  0  0  0
  136.1380   69.6230  224.6360 N   0  0  0  0  0  0  0  0  0  0  0  0
  136.8370   68.9370  225.0070 H   0  0  0  0  0  0  0  0  0  0  0  0
  134.9110   68.8990  224.2510 C   0  0  0  0  0  0  0  0  0  0  0  0
  134.0614   69.5946  224.3174 H   0  0  0  0  0  0  0  0  0  0  0  0
  134.8092   68.0475  224.9399 H   0  0  0  0  0  0  0  0  0  0  0  0
  134.9580   68.3200  222.8180 C   0  0  0  0  0  0  0  0  0  0  0  0
  134.4948   69.0380  222.1253 H   0  0  0  0  0  0  0  0  0  0  0  0
  134.4112   67.3656  222.8093 H   0  0  0  0  0  0  0  0  0  0  0  0
  136.3970   68.0580  222.3760 C   0  0  0  0  0  0  0  0  0  0  0  0
  136.3900   67.6597  221.3507 H   0  0  0  0  0  0  0  0  0  0  0  0
  136.8474   67.3346  223.0716 H   0  0  0  0  0  0  0  0  0  0  0  0
  139.9420   74.0730  221.7180 C   0  0  0  0  0  0  0  0  0  0  0  0
  139.1610   75.4370  222.3130 S   0  0  0  0  0  0  0  0  0  0  0  0
  140.3700   76.5380  221.9270 C   0  0  0  0  0  0  0  0  0  0  0  0
  140.3429   77.6205  222.1205 H   0  0  0  0  0  0  0  0  0  0  0  0
  141.4100   75.8440  221.3210 C   0  0  0  0  0  0  0  0  0  0  0  0
  142.3313   76.3298  220.9670 H   0  0  0  0  0  0  0  0  0  0  0  0
  141.1760   74.4690  221.2030 C   0  0  0  0  0  0  0  0  0  0  0  0
  141.8941   73.7702  220.7491 H   0  0  0  0  0  0  0  0  0  0  0  0
  1  2  1  0
  2  3  2  0
  3  4  1  0
  3  5  1  0
  5  6  2  0
  6  7  1  0
  7  8  2  0
  8  9  1  0
  8 10  1  0
 10 11  1  0
 10 12  2  0
 12 13  1  0
 12 14  1  0
 14 15  1  0
 14 16  2  0
 16 17  1  0
 17 18  2  0
 17 19  1  0
 19 20  1  0
 20 21  1  0
 20 22  1  0
 20 23  1  0
 23 24  1  6
 23 25  1  0
 25 26  1  0
 25 27  1  0
 25 28  1  0
 28 29  1  0
 28 30  1  0
 30 31  1  0
 30 32  1  0
 30 33  1  0
 33 34  1  0
 33 35  1  0
 33 36  1  0
 36 37  1  0
 36 38  1  0
  2 39  1  0
 39 40  1  0
 40 41  1  0
 41 42  1  0
 41 43  2  0
 43 44  1  0
 43 45  1  0
 45 46  1  0
 19  5  1  0
 36 23  1  0
 45 39  2  0
 16  7  1  0
M  END
>  <UniqueID>  (6) 
396

>  <SMILES>  (6) 
O=c1c2ccccc2nc(/C=C/c2cccs2)n1C[C@H]1CCCNC1

>  <Energy>  (6) 
83.30483570291405

>  <Genealogy>  (6) 
O=c1c2ccccc2nc(/C=C/c2cccs2)n1C[C@H]1CCCNC1 (chirality)
O=c1c2ccccc2nc(/C=C/c2cccs2)n1C[C@H]1CCCNC1 (cis-trans isomerization)
O=c1c2ccccc2nc(/C=C/c2cccs2)n1C[C@H]1CCCNC1 (3D coordinates assigned)
O=c1c2ccccc2nc(/C=C/c2cccs2)n1C[C@H]1CCCNC1 (nonaromatic ring conformer: 83.30483570291405 kcal/mol)

>  <smiles>  (6) 
O=c1c2ccccc2nc(/C=C/c2cccs2)n1CC1CCCNC1

>  <score_type>  (6) 
oracle

>  <origin>  (6) 
autodockgpu

>  <m_score__min__energy>  (6) 
-6.8300000000000001

>  <m_primary>  (6) 
energy

>  <meeko>  (6) 
{"free_energy": -6.74, "intermolecular_energy": -8.23, "internal_energy": -1.87, "cluster_size": 15, "cluster_id": 1, "rank_in_cluster": 14}

>  <energy>  (6) 
-6.81

>  <cluster_rmsd>  (6) 
1.5

>  <rmsd>  (6) 
271.37

>  <cluster>  (6) 
1

$$$$
RPPNBJKXHXGJEE-FEAKQIBJNA-N
     RDKit          3D

 46 49  0  0  0  0  0  0  0  0999 V2000
  138.2175   72.5859  221.5577 H   0  0  0  0  0  0  0  0  0  0  0  0
  139.2350   72.8470  221.8840 C   0  0  0  0  0  0  0  0  0  0  0  0
  140.0790   71.8540  222.1970 C   0  0  0  0  0  0  0  0  0  0  0  0
  140.8590   71.5684  221.4758 H   0  0  0  0  0  0  0  0  0  0  0  0
  139.9910   71.1270  223.4920 C   0  0  0  0  0  0  0  0  0  0  0  0
  140.5170   71.7320  224.5900 N   0  0  0  0  0  0  0  0  0  0  0  0
  140.5180   71.1470  225.8090 C   0  0  0  0  0  0  0  0  0  0  0  0
  141.0750   71.8150  226.9060 C   0  0  0  0  0  0  0  0  0  0  0  0
  141.5109   72.8166  226.7768 H   0  0  0  0  0  0  0  0  0  0  0  0
  141.0770   71.2090  228.1650 C   0  0  0  0  0  0  0  0  0  0  0  0
  141.5135   71.7346  229.0271 H   0  0  0  0  0  0  0  0  0  0  0  0
  140.5250   69.9360  228.3300 C   0  0  0  0  0  0  0  0  0  0  0  0
  140.5300   69.4602  229.3218 H   0  0  0  0  0  0  0  0  0  0  0  0
  139.9660   69.2650  227.2370 C   0  0  0  0  0  0  0  0  0  0  0  0
  139.5299   68.2641  227.3713 H   0  0  0  0  0  0  0  0  0  0  0  0
  139.9610   69.8700  225.9640 C   0  0  0  0  0  0  0  0  0  0  0  0
  139.4100   69.2430  224.8350 C   0  0  0  0  0  0  0  0  0  0  0  0
  138.8820   68.1010  224.9610 O   0  0  0  0  0  0  0  0  0  0  0  0
  139.4300   69.8660  223.6060 N   0  0  0  0  0  0  0  0  0  0  0  0
  138.7930   69.1770  222.4570 C   0  0  0  0  0  0  0  0  0  0  0  0
  139.2820   69.5106  221.5299 H   0  0  0  0  0  0  0  0  0  0  0  0
  138.9113   68.0939  222.6081 H   0  0  0  0  0  0  0  0  0  0  0  0
  137.2750   69.4770  222.3550 C   0  0  2  0  0  0  0  0  0  0  0  0
  137.1067   69.9856  221.3943 H   0  0  0  0  0  0  0  0  0  0  0  0
  136.7690   70.4650  223.4420 C   0  0  0  0  0  0  0  0  0  0  0  0
  135.9721   71.0902  223.0129 H   0  0  0  0  0  0  0  0  0  0  0  0
  137.6192   71.0816  223.7689 H   0  0  0  0  0  0  0  0  0  0  0  0
  136.2390   69.7550  224.6140 N   0  0  0  0  0  0  0  0  0  0  0  0
  136.9720   69.1010  224.9760 H   0  0  0  0  0  0  0  0  0  0  0  0
  135.0240   68.9830  224.2860 C   0  0  0  0  0  0  0  0  0  0  0  0
  134.1543   69.6516  224.3670 H   0  0  0  0  0  0  0  0  0  0  0  0
  134.9726   68.1438  224.9953 H   0  0  0  0  0  0  0  0  0  0  0  0
  135.0440   68.3760  222.8640 C   0  0  0  0  0  0  0  0  0  0  0  0
  134.5349   69.0639  222.1728 H   0  0  0  0  0  0  0  0  0  0  0  0
  134.5294   67.4042  222.8923 H   0  0  0  0  0  0  0  0  0  0  0  0
  136.4760   68.1520  222.3800 C   0  0  0  0  0  0  0  0  0  0  0  0
  136.4491   67.7306  221.3643 H   0  0  0  0  0  0  0  0  0  0  0  0
  136.9732   67.4599  223.0755 H   0  0  0  0  0  0  0  0  0  0  0  0
  139.6050   74.2740  221.9560 C   0  0  0  0  0  0  0  0  0  0  0  0
  141.1260   74.8640  221.5530 S   0  0  0  0  0  0  0  0  0  0  0  0
  140.7970   76.4820  221.8670 C   0  0  0  0  0  0  0  0  0  0  0  0
  141.5025   77.3182  221.7525 H   0  0  0  0  0  0  0  0  0  0  0  0
  139.4800   76.5800  222.2960 C   0  0  0  0  0  0  0  0  0  0  0  0
  139.0070   77.5343  222.5711 H   0  0  0  0  0  0  0  0  0  0  0  0
  138.8100   75.3520  222.3460 C   0  0  0  0  0  0  0  0  0  0  0  0
  137.7614   75.2474  222.6613 H   0  0  0  0  0  0  0  0  0  0  0  0
  1  2  1  0
  2  3  2  0
  3  4  1  0
  3  5  1  0
  5  6  2  0
  6  7  1  0
  7  8  2  0
  8  9  1  0
  8 10  1  0
 10 11  1  0
 10 12  2  0
 12 13  1  0
 12 14  1  0
 14 15  1  0
 14 16  2  0
 16 17  1  0
 17 18  2  0
 17 19  1  0
 19 20  1  0
 20 21  1  0
 20 22  1  0
 20 23  1  0
 23 24  1  6
 23 25  1  0
 25 26  1  0
 25 27  1  0
 25 28  1  0
 28 29  1  0
 28 30  1  0
 30 31  1  0
 30 32  1  0
 30 33  1  0
 33 34  1  0
 33 35  1  0
 33 36  1  0
 36 37  1  0
 36 38  1  0
  2 39  1  0
 39 40  1  0
 40 41  1  0
 41 42  1  0
 41 43  2  0
 43 44  1  0
 43 45  1  0
 45 46  1  0
 19  5  1  0
 36 23  1  0
 45 39  2  0
 16  7  1  0
M  END
>  <UniqueID>  (7) 
396

>  <SMILES>  (7) 
O=c1c2ccccc2nc(/C=C/c2cccs2)n1C[C@H]1CCCNC1

>  <Energy>  (7) 
83.30483570291405

>  <Genealogy>  (7) 
O=c1c2ccccc2nc(/C=C/c2cccs2)n1C[C@H]1CCCNC1 (chirality)
O=c1c2ccccc2nc(/C=C/c2cccs2)n1C[C@H]1CCCNC1 (cis-trans isomerization)
O=c1c2ccccc2nc(/C=C/c2cccs2)n1C[C@H]1CCCNC1 (3D coordinates assigned)
O=c1c2ccccc2nc(/C=C/c2cccs2)n1C[C@H]1CCCNC1 (nonaromatic ring conformer: 83.30483570291405 kcal/mol)

>  <smiles>  (7) 
O=c1c2ccccc2nc(/C=C/c2cccs2)n1CC1CCCNC1

>  <score_type>  (7) 
oracle

>  <origin>  (7) 
autodockgpu

>  <m_score__min__energy>  (7) 
-6.8300000000000001

>  <m_primary>  (7) 
energy

>  <meeko>  (7) 
{"free_energy": -6.77, "intermolecular_energy": -8.26, "internal_energy": -1.91, "cluster_size": 15, "cluster_id": 1, "rank_in_cluster": 12}

>  <energy>  (7) 
-6.79

>  <cluster_rmsd>  (7) 
0.41

>  <rmsd>  (7) 
271.39

>  <cluster>  (7) 
1

$$$$
RPPNBJKXHXGJEE-FEAKQIBJNA-N
     RDKit          3D

 46 49  0  0  0  0  0  0  0  0999 V2000
  138.1595   72.7233  221.7033 H   0  0  0  0  0  0  0  0  0  0  0  0
  139.2160   72.9290  221.9300 C   0  0  0  0  0  0  0  0  0  0  0  0
  140.0210   71.8950  222.2100 C   0  0  0  0  0  0  0  0  0  0  0  0
  140.7560   71.5713  221.4584 H   0  0  0  0  0  0  0  0  0  0  0  0
  139.9490   71.1720  223.5090 C   0  0  0  0  0  0  0  0  0  0  0  0
  140.4830   71.7840  224.6000 N   0  0  0  0  0  0  0  0  0  0  0  0
  140.4980   71.2040  225.8200 C   0  0  0  0  0  0  0  0  0  0  0  0
  141.0630   71.8790  226.9100 C   0  0  0  0  0  0  0  0  0  0  0  0
  141.4930   72.8822  226.7733 H   0  0  0  0  0  0  0  0  0  0  0  0
  141.0800   71.2770  228.1710 C   0  0  0  0  0  0  0  0  0  0  0  0
  141.5226   71.8075  229.0270 H   0  0  0  0  0  0  0  0  0  0  0  0
  140.5360   70.0030  228.3460 C   0  0  0  0  0  0  0  0  0  0  0  0
  140.5523   69.5316  229.3397 H   0  0  0  0  0  0  0  0  0  0  0  0
  139.9700   69.3240  227.2610 C   0  0  0  0  0  0  0  0  0  0  0  0
  139.5407   68.3212  227.4031 H   0  0  0  0  0  0  0  0  0  0  0  0
  139.9500   69.9250  225.9860 C   0  0  0  0  0  0  0  0  0  0  0  0
  139.3910   69.2900  224.8650 C   0  0  0  0  0  0  0  0  0  0  0  0
  138.8700   68.1470  225.0010 O   0  0  0  0  0  0  0  0  0  0  0  0
  139.3960   69.9090  223.6340 N   0  0  0  0  0  0  0  0  0  0  0  0
  138.7510   69.2130  222.4930 C   0  0  0  0  0  0  0  0  0  0  0  0
  139.2331   69.5419  221.5606 H   0  0  0  0  0  0  0  0  0  0  0  0
  138.8712   68.1308  222.6494 H   0  0  0  0  0  0  0  0  0  0  0  0
  137.2320   69.5110  222.4000 C   0  0  2  0  0  0  0  0  0  0  0  0
  137.0581   70.0244  221.4428 H   0  0  0  0  0  0  0  0  0  0  0  0
  136.7300   70.4920  223.4950 C   0  0  0  0  0  0  0  0  0  0  0  0
  135.9302   71.1185  223.0732 H   0  0  0  0  0  0  0  0  0  0  0  0
  137.5813   71.1076  223.8212 H   0  0  0  0  0  0  0  0  0  0  0  0
  136.2070   69.7760  224.6650 N   0  0  0  0  0  0  0  0  0  0  0  0
  136.9420   69.1210  225.0200 H   0  0  0  0  0  0  0  0  0  0  0  0
  134.9920   69.0040  224.3390 C   0  0  0  0  0  0  0  0  0  0  0  0
  134.1218   69.6710  224.4276 H   0  0  0  0  0  0  0  0  0  0  0  0
  134.9460   68.1611  225.0443 H   0  0  0  0  0  0  0  0  0  0  0  0
  135.0050   68.4040  222.9150 C   0  0  0  0  0  0  0  0  0  0  0  0
  134.4913   69.0944  222.2298 H   0  0  0  0  0  0  0  0  0  0  0  0
  134.4918   67.4314  222.9416 H   0  0  0  0  0  0  0  0  0  0  0  0
  136.4350   68.1840  222.4220 C   0  0  0  0  0  0  0  0  0  0  0  0
  136.4033   67.7680  221.4042 H   0  0  0  0  0  0  0  0  0  0  0  0
  136.9369   67.4885  223.1108 H   0  0  0  0  0  0  0  0  0  0  0  0
  139.6780   74.3300  221.9110 C   0  0  0  0  0  0  0  0  0  0  0  0
  138.7020   75.6390  222.3110 S   0  0  0  0  0  0  0  0  0  0  0  0
  139.8640   76.8290  222.0700 C   0  0  0  0  0  0  0  0  0  0  0  0
  139.7175   77.9108  222.2050 H   0  0  0  0  0  0  0  0  0  0  0  0
  141.0410   76.2100  221.6710 C   0  0  0  0  0  0  0  0  0  0  0  0
  141.9648   76.7633  221.4464 H   0  0  0  0  0  0  0  0  0  0  0  0
  140.9430   74.8160  221.5810 C   0  0  0  0  0  0  0  0  0  0  0  0
  141.7801   74.1689  221.2801 H   0  0  0  0  0  0  0  0  0  0  0  0
  1  2  1  0
  2  3  2  0
  3  4  1  0
  3  5  1  0
  5  6  2  0
  6  7  1  0
  7  8  2  0
  8  9  1  0
  8 10  1  0
 10 11  1  0
 10 12  2  0
 12 13  1  0
 12 14  1  0
 14 15  1  0
 14 16  2  0
 16 17  1  0
 17 18  2  0
 17 19  1  0
 19 20  1  0
 20 21  1  0
 20 22  1  0
 20 23  1  0
 23 24  1  6
 23 25  1  0
 25 26  1  0
 25 27  1  0
 25 28  1  0
 28 29  1  0
 28 30  1  0
 30 31  1  0
 30 32  1  0
 30 33  1  0
 33 34  1  0
 33 35  1  0
 33 36  1  0
 36 37  1  0
 36 38  1  0
  2 39  1  0
 39 40  1  0
 40 41  1  0
 41 42  1  0
 41 43  2  0
 43 44  1  0
 43 45  1  0
 45 46  1  0
 19  5  1  0
 36 23  1  0
 45 39  2  0
 16  7  1  0
M  END
>  <UniqueID>  (8) 
396

>  <SMILES>  (8) 
O=c1c2ccccc2nc(/C=C/c2cccs2)n1C[C@H]1CCCNC1

>  <Energy>  (8) 
83.30483570291405

>  <Genealogy>  (8) 
O=c1c2ccccc2nc(/C=C/c2cccs2)n1C[C@H]1CCCNC1 (chirality)
O=c1c2ccccc2nc(/C=C/c2cccs2)n1C[C@H]1CCCNC1 (cis-trans isomerization)
O=c1c2ccccc2nc(/C=C/c2cccs2)n1C[C@H]1CCCNC1 (3D coordinates assigned)
O=c1c2ccccc2nc(/C=C/c2cccs2)n1C[C@H]1CCCNC1 (nonaromatic ring conformer: 83.30483570291405 kcal/mol)

>  <smiles>  (8) 
O=c1c2ccccc2nc(/C=C/c2cccs2)n1CC1CCCNC1

>  <score_type>  (8) 
oracle

>  <origin>  (8) 
autodockgpu

>  <m_score__min__energy>  (8) 
-6.8300000000000001

>  <m_primary>  (8) 
energy

>  <meeko>  (8) 
{"free_energy": -6.81, "intermolecular_energy": -8.3, "internal_energy": -1.88, "cluster_size": 15, "cluster_id": 1, "rank_in_cluster": 6}

>  <energy>  (8) 
-6.79

>  <cluster_rmsd>  (8) 
0.41

>  <rmsd>  (8) 
271.39

>  <cluster>  (8) 
1

$$$$
RPPNBJKXHXGJEE-FEAKQIBJNA-N
     RDKit          3D

 46 49  0  0  0  0  0  0  0  0999 V2000
  139.8720   73.7103  222.3485 H   0  0  0  0  0  0  0  0  0  0  0  0
  140.5220   72.9240  221.9370 C   0  0  0  0  0  0  0  0  0  0  0  0
  140.1480   71.6450  222.0850 C   0  0  0  0  0  0  0  0  0  0  0  0
  139.9250   71.0465  221.1894 H   0  0  0  0  0  0  0  0  0  0  0  0
  140.0260   71.0120  223.4260 C   0  0  0  0  0  0  0  0  0  0  0  0
  140.5530   71.6820  224.4870 N   0  0  0  0  0  0  0  0  0  0  0  0
  140.5240   71.1840  225.7430 C   0  0  0  0  0  0  0  0  0  0  0  0
  141.0830   71.9140  226.8000 C   0  0  0  0  0  0  0  0  0  0  0  0
  141.5435   72.8943  226.6079 H   0  0  0  0  0  0  0  0  0  0  0  0
  141.0560   71.3980  228.0970 C   0  0  0  0  0  0  0  0  0  0  0  0
  141.4947   71.9725  228.9261 H   0  0  0  0  0  0  0  0  0  0  0  0
  140.4720   70.1520  228.3430 C   0  0  0  0  0  0  0  0  0  0  0  0
  140.4527   69.7476  229.3658 H   0  0  0  0  0  0  0  0  0  0  0  0
  139.9120   69.4180  227.2920 C   0  0  0  0  0  0  0  0  0  0  0  0
  139.4519   68.4385  227.4895 H   0  0  0  0  0  0  0  0  0  0  0  0
  139.9370   69.9330  225.9800 C   0  0  0  0  0  0  0  0  0  0  0  0
  139.3860   69.2400  224.8900 C   0  0  0  0  0  0  0  0  0  0  0  0
  138.8300   68.1220  225.0870 O   0  0  0  0  0  0  0  0  0  0  0  0
  139.4360   69.7750  223.6210 N   0  0  0  0  0  0  0  0  0  0  0  0
  138.7980   69.0220  222.5130 C   0  0  0  0  0  0  0  0  0  0  0  0
  139.3223   69.2607  221.5759 H   0  0  0  0  0  0  0  0  0  0  0  0
  138.8673   67.9506  222.7522 H   0  0  0  0  0  0  0  0  0  0  0  0
  137.2970   69.3730  222.3470 C   0  0  2  0  0  0  0  0  0  0  0  0
  137.1877   69.8857  221.3800 H   0  0  0  0  0  0  0  0  0  0  0  0
  136.7790   70.3790  223.4110 C   0  0  0  0  0  0  0  0  0  0  0  0
  136.0233   71.0305  222.9479 H   0  0  0  0  0  0  0  0  0  0  0  0
  137.6353   70.9662  223.7743 H   0  0  0  0  0  0  0  0  0  0  0  0
  136.1750   69.6900  224.5590 N   0  0  0  0  0  0  0  0  0  0  0  0
  136.8690   69.0120  224.9520 H   0  0  0  0  0  0  0  0  0  0  0  0
  134.9500   68.9590  224.1800 C   0  0  0  0  0  0  0  0  0  0  0  0
  134.1005   69.6565  224.2242 H   0  0  0  0  0  0  0  0  0  0  0  0
  134.8403   68.1230  224.8864 H   0  0  0  0  0  0  0  0  0  0  0  0
  135.0100   68.3500  222.7600 C   0  0  0  0  0  0  0  0  0  0  0  0
  134.5549   69.0542  222.0480 H   0  0  0  0  0  0  0  0  0  0  0  0
  134.4617   67.3964  222.7665 H   0  0  0  0  0  0  0  0  0  0  0  0
  136.4520   68.0760  222.3370 C   0  0  0  0  0  0  0  0  0  0  0  0
  136.4535   67.6551  221.3207 H   0  0  0  0  0  0  0  0  0  0  0  0
  136.8950   67.3674  223.0522 H   0  0  0  0  0  0  0  0  0  0  0  0
  141.7630   73.3280  221.2490 C   0  0  0  0  0  0  0  0  0  0  0  0
  142.9930   72.2570  220.8390 S   0  0  0  0  0  0  0  0  0  0  0  0
  144.0070   73.3890  220.1240 C   0  0  0  0  0  0  0  0  0  0  0  0
  144.9897   73.1824  219.6749 H   0  0  0  0  0  0  0  0  0  0  0  0
  143.3900   74.6310  220.1980 C   0  0  0  0  0  0  0  0  0  0  0  0
  143.8428   75.5518  219.8017 H   0  0  0  0  0  0  0  0  0  0  0  0
  142.1380   74.6020  220.8240 C   0  0  0  0  0  0  0  0  0  0  0  0
  141.5123   75.4955  220.9664 H   0  0  0  0  0  0  0  0  0  0  0  0
  1  2  1  0
  2  3  2  0
  3  4  1  0
  3  5  1  0
  5  6  2  0
  6  7  1  0
  7  8  2  0
  8  9  1  0
  8 10  1  0
 10 11  1  0
 10 12  2  0
 12 13  1  0
 12 14  1  0
 14 15  1  0
 14 16  2  0
 16 17  1  0
 17 18  2  0
 17 19  1  0
 19 20  1  0
 20 21  1  0
 20 22  1  0
 20 23  1  0
 23 24  1  6
 23 25  1  0
 25 26  1  0
 25 27  1  0
 25 28  1  0
 28 29  1  0
 28 30  1  0
 30 31  1  0
 30 32  1  0
 30 33  1  0
 33 34  1  0
 33 35  1  0
 33 36  1  0
 36 37  1  0
 36 38  1  0
  2 39  1  0
 39 40  1  0
 40 41  1  0
 41 42  1  0
 41 43  2  0
 43 44  1  0
 43 45  1  0
 45 46  1  0
 19  5  1  0
 36 23  1  0
 45 39  2  0
 16  7  1  0
M  END
>  <UniqueID>  (9) 
396

>  <SMILES>  (9) 
O=c1c2ccccc2nc(/C=C/c2cccs2)n1C[C@H]1CCCNC1

>  <Energy>  (9) 
83.30483570291405

>  <Genealogy>  (9) 
O=c1c2ccccc2nc(/C=C/c2cccs2)n1C[C@H]1CCCNC1 (chirality)
O=c1c2ccccc2nc(/C=C/c2cccs2)n1C[C@H]1CCCNC1 (cis-trans isomerization)
O=c1c2ccccc2nc(/C=C/c2cccs2)n1C[C@H]1CCCNC1 (3D coordinates assigned)
O=c1c2ccccc2nc(/C=C/c2cccs2)n1C[C@H]1CCCNC1 (nonaromatic ring conformer: 83.30483570291405 kcal/mol)

>  <smiles>  (9) 
O=c1c2ccccc2nc(/C=C/c2cccs2)n1CC1CCCNC1

>  <score_type>  (9) 
oracle

>  <origin>  (9) 
autodockgpu

>  <m_score__min__energy>  (9) 
-6.8300000000000001

>  <m_primary>  (9) 
energy

>  <meeko>  (9) 
{"free_energy": -6.83, "intermolecular_energy": -8.32, "internal_energy": -1.78, "cluster_size": 15, "cluster_id": 1, "rank_in_cluster": 1}

>  <energy>  (9) 
-6.79

>  <cluster_rmsd>  (9) 
1.49

>  <rmsd>  (9) 
271.39

>  <cluster>  (9) 
1

$$$$
RPPNBJKXHXGJEE-FEAKQIBJNA-N
     RDKit          3D

 46 49  0  0  0  0  0  0  0  0999 V2000
  138.0713   72.7772  221.7926 H   0  0  0  0  0  0  0  0  0  0  0  0
  139.1430   72.9450  221.9750 C   0  0  0  0  0  0  0  0  0  0  0  0
  139.9220   71.8820  222.2210 C   0  0  0  0  0  0  0  0  0  0  0  0
  140.6185   71.5382  221.4421 H   0  0  0  0  0  0  0  0  0  0  0  0
  139.8710   71.1540  223.5180 C   0  0  0  0  0  0  0  0  0  0  0  0
  140.4210   71.7630  224.6030 N   0  0  0  0  0  0  0  0  0  0  0  0
  140.4560   71.1770  225.8200 C   0  0  0  0  0  0  0  0  0  0  0  0
  141.0360   71.8490  226.9040 C   0  0  0  0  0  0  0  0  0  0  0  0
  141.4612   72.8539  226.7648 H   0  0  0  0  0  0  0  0  0  0  0  0
  141.0740   71.2420  228.1620 C   0  0  0  0  0  0  0  0  0  0  0  0
  141.5296   71.7694  229.0130 H   0  0  0  0  0  0  0  0  0  0  0  0
  140.5340   69.9660  228.3400 C   0  0  0  0  0  0  0  0  0  0  0  0
  140.5663   69.4903  229.3313 H   0  0  0  0  0  0  0  0  0  0  0  0
  139.9520   69.2910  227.2610 C   0  0  0  0  0  0  0  0  0  0  0  0
  139.5265   68.2870  227.4054 H   0  0  0  0  0  0  0  0  0  0  0  0
  139.9110   69.8970  225.9900 C   0  0  0  0  0  0  0  0  0  0  0  0
  139.3360   69.2660  224.8750 C   0  0  0  0  0  0  0  0  0  0  0  0
  138.8180   68.1210  225.0140 O   0  0  0  0  0  0  0  0  0  0  0  0
  139.3210   69.8900  223.6460 N   0  0  0  0  0  0  0  0  0  0  0  0
  138.6600   69.1970  222.5130 C   0  0  0  0  0  0  0  0  0  0  0  0
  139.1350   69.5210  221.5752 H   0  0  0  0  0  0  0  0  0  0  0  0
  138.7741   68.1142  222.6697 H   0  0  0  0  0  0  0  0  0  0  0  0
  137.1420   69.5060  222.4350 C   0  0  2  0  0  0  0  0  0  0  0  0
  136.9692   70.0596  221.5003 H   0  0  0  0  0  0  0  0  0  0  0  0
  136.6460   70.4430  223.5710 C   0  0  0  0  0  0  0  0  0  0  0  0
  135.8481   71.0896  223.1770 H   0  0  0  0  0  0  0  0  0  0  0  0
  137.5008   71.0406  223.9206 H   0  0  0  0  0  0  0  0  0  0  0  0
  136.1220   69.6820  224.7120 N   0  0  0  0  0  0  0  0  0  0  0  0
  136.8560   69.0100  225.0380 H   0  0  0  0  0  0  0  0  0  0  0  0
  134.9030   68.9290  224.3570 C   0  0  0  0  0  0  0  0  0  0  0  0
  134.0356   69.5951  224.4753 H   0  0  0  0  0  0  0  0  0  0  0  0
  134.8547   68.0577  225.0267 H   0  0  0  0  0  0  0  0  0  0  0  0
  134.9110   68.3890  222.9090 C   0  0  0  0  0  0  0  0  0  0  0  0
  134.3993   69.1099  222.2543 H   0  0  0  0  0  0  0  0  0  0  0  0
  134.3935   67.4184  222.8962 H   0  0  0  0  0  0  0  0  0  0  0  0
  136.3390   68.1830  222.4040 C   0  0  0  0  0  0  0  0  0  0  0  0
  136.3032   67.8096  221.3700 H   0  0  0  0  0  0  0  0  0  0  0  0
  136.8391   67.4574  223.0623 H   0  0  0  0  0  0  0  0  0  0  0  0
  139.6530   74.3290  221.9370 C   0  0  0  0  0  0  0  0  0  0  0  0
  138.7250   75.6750  222.3290 S   0  0  0  0  0  0  0  0  0  0  0  0
  139.9250   76.8210  222.0680 C   0  0  0  0  0  0  0  0  0  0  0  0
  139.8168   77.9085  222.1931 H   0  0  0  0  0  0  0  0  0  0  0  0
  141.0770   76.1580  221.6670 C   0  0  0  0  0  0  0  0  0  0  0  0
  142.0173   76.6770  221.4295 H   0  0  0  0  0  0  0  0  0  0  0  0
  140.9310   74.7680  221.5930 C   0  0  0  0  0  0  0  0  0  0  0  0
  141.7434   74.0896  221.2934 H   0  0  0  0  0  0  0  0  0  0  0  0
  1  2  1  0
  2  3  2  0
  3  4  1  0
  3  5  1  0
  5  6  2  0
  6  7  1  0
  7  8  2  0
  8  9  1  0
  8 10  1  0
 10 11  1  0
 10 12  2  0
 12 13  1  0
 12 14  1  0
 14 15  1  0
 14 16  2  0
 16 17  1  0
 17 18  2  0
 17 19  1  0
 19 20  1  0
 20 21  1  0
 20 22  1  0
 20 23  1  0
 23 24  1  6
 23 25  1  0
 25 26  1  0
 25 27  1  0
 25 28  1  0
 28 29  1  0
 28 30  1  0
 30 31  1  0
 30 32  1  0
 30 33  1  0
 33 34  1  0
 33 35  1  0
 33 36  1  0
 36 37  1  0
 36 38  1  0
  2 39  1  0
 39 40  1  0
 40 41  1  0
 41 42  1  0
 41 43  2  0
 43 44  1  0
 43 45  1  0
 45 46  1  0
 19  5  1  0
 36 23  1  0
 45 39  2  0
 16  7  1  0
M  END
>  <UniqueID>  (10) 
396

>  <SMILES>  (10) 
O=c1c2ccccc2nc(/C=C/c2cccs2)n1C[C@H]1CCCNC1

>  <Energy>  (10) 
83.30483570291405

>  <Genealogy>  (10) 
O=c1c2ccccc2nc(/C=C/c2cccs2)n1C[C@H]1CCCNC1 (chirality)
O=c1c2ccccc2nc(/C=C/c2cccs2)n1C[C@H]1CCCNC1 (cis-trans isomerization)
O=c1c2ccccc2nc(/C=C/c2cccs2)n1C[C@H]1CCCNC1 (3D coordinates assigned)
O=c1c2ccccc2nc(/C=C/c2cccs2)n1C[C@H]1CCCNC1 (nonaromatic ring conformer: 83.30483570291405 kcal/mol)

>  <smiles>  (10) 
O=c1c2ccccc2nc(/C=C/c2cccs2)n1CC1CCCNC1

>  <score_type>  (10) 
oracle

>  <origin>  (10) 
autodockgpu

>  <m_score__min__energy>  (10) 
-6.8300000000000001

>  <m_primary>  (10) 
energy

>  <meeko>  (10) 
{"free_energy": -6.83, "intermolecular_energy": -8.32, "internal_energy": -1.87, "cluster_size": 15, "cluster_id": 1, "rank_in_cluster": 4}

>  <energy>  (10) 
-6.77

>  <cluster_rmsd>  (10) 
0.67

>  <rmsd>  (10) 
271.39

>  <cluster>  (10) 
1

$$$$
RPPNBJKXHXGJEE-FEAKQIBJNA-N
     RDKit          3D

 46 49  0  0  0  0  0  0  0  0999 V2000
  140.7622   70.7921  220.7817 H   0  0  0  0  0  0  0  0  0  0  0  0
  140.9080   71.7250  221.3460 C   0  0  0  0  0  0  0  0  0  0  0  0
  140.0350   72.0260  222.3170 C   0  0  0  0  0  0  0  0  0  0  0  0
  139.3569   72.8811  222.1791 H   0  0  0  0  0  0  0  0  0  0  0  0
  139.9560   71.2370  223.5770 C   0  0  0  0  0  0  0  0  0  0  0  0
  140.4910   71.7900  224.6980 N   0  0  0  0  0  0  0  0  0  0  0  0
  140.5020   71.1480  225.8870 C   0  0  0  0  0  0  0  0  0  0  0  0
  141.0680   71.7630  227.0110 C   0  0  0  0  0  0  0  0  0  0  0  0
  141.5028   72.7699  226.9268 H   0  0  0  0  0  0  0  0  0  0  0  0
  141.0800   71.0970  228.2390 C   0  0  0  0  0  0  0  0  0  0  0  0
  141.5238   71.5807  229.1216 H   0  0  0  0  0  0  0  0  0  0  0  0
  140.5290   69.8170  228.3480 C   0  0  0  0  0  0  0  0  0  0  0  0
  140.5414   69.2947  229.3160 H   0  0  0  0  0  0  0  0  0  0  0  0
  139.9620   69.1990  227.2290 C   0  0  0  0  0  0  0  0  0  0  0  0
  139.5271   68.1926  227.3188 H   0  0  0  0  0  0  0  0  0  0  0  0
  139.9470   69.8640  225.9860 C   0  0  0  0  0  0  0  0  0  0  0  0
  139.3870   69.2910  224.8330 C   0  0  0  0  0  0  0  0  0  0  0  0
  138.8600   68.1450  224.9090 O   0  0  0  0  0  0  0  0  0  0  0  0
  139.3970   69.9720  223.6350 N   0  0  0  0  0  0  0  0  0  0  0  0
  138.7510   69.3390  222.4600 C   0  0  0  0  0  0  0  0  0  0  0  0
  139.2168   69.7345  221.5453 H   0  0  0  0  0  0  0  0  0  0  0  0
  138.8909   68.2513  222.5463 H   0  0  0  0  0  0  0  0  0  0  0  0
  137.2260   69.6160  222.4020 C   0  0  2  0  0  0  0  0  0  0  0  0
  137.0224   70.1206  221.4460 H   0  0  0  0  0  0  0  0  0  0  0  0
  136.7370   70.5980  223.5020 C   0  0  0  0  0  0  0  0  0  0  0  0
  135.9189   71.2106  223.0952 H   0  0  0  0  0  0  0  0  0  0  0  0
  137.5875   71.2271  223.8034 H   0  0  0  0  0  0  0  0  0  0  0  0
  136.2520   69.8840  224.6890 N   0  0  0  0  0  0  0  0  0  0  0  0
  137.0050   69.2410  225.0300 H   0  0  0  0  0  0  0  0  0  0  0  0
  135.0410   69.0930  224.3980 C   0  0  0  0  0  0  0  0  0  0  0  0
  134.1637   69.7480  224.5044 H   0  0  0  0  0  0  0  0  0  0  0  0
  135.0248   68.2539  225.1091 H   0  0  0  0  0  0  0  0  0  0  0  0
  135.0270   68.4840  222.9770 C   0  0  0  0  0  0  0  0  0  0  0  0
  134.4876   69.1632  222.3004 H   0  0  0  0  0  0  0  0  0  0  0  0
  134.5273   67.5051  223.0216 H   0  0  0  0  0  0  0  0  0  0  0  0
  136.4480   68.2800  222.4510 C   0  0  0  0  0  0  0  0  0  0  0  0
  136.3975   67.8573  221.4367 H   0  0  0  0  0  0  0  0  0  0  0  0
  136.9755   67.5957  223.1318 H   0  0  0  0  0  0  0  0  0  0  0  0
  142.0560   72.5850  220.9970 C   0  0  0  0  0  0  0  0  0  0  0  0
  143.6170   72.0060  220.7630 S   0  0  0  0  0  0  0  0  0  0  0  0
  144.3240   73.4900  220.4140 C   0  0  0  0  0  0  0  0  0  0  0  0
  145.3848   73.6597  220.1774 H   0  0  0  0  0  0  0  0  0  0  0  0
  143.3370   74.4650  220.4760 C   0  0  0  0  0  0  0  0  0  0  0  0
  143.5323   75.5309  220.2873 H   0  0  0  0  0  0  0  0  0  0  0  0
  142.0700   73.9650  220.8010 C   0  0  0  0  0  0  0  0  0  0  0  0
  141.1751   74.5981  220.8925 H   0  0  0  0  0  0  0  0  0  0  0  0
  1  2  1  0
  2  3  2  0
  3  4  1  0
  3  5  1  0
  5  6  2  0
  6  7  1  0
  7  8  2  0
  8  9  1  0
  8 10  1  0
 10 11  1  0
 10 12  2  0
 12 13  1  0
 12 14  1  0
 14 15  1  0
 14 16  2  0
 16 17  1  0
 17 18  2  0
 17 19  1  0
 19 20  1  0
 20 21  1  0
 20 22  1  0
 20 23  1  0
 23 24  1  6
 23 25  1  0
 25 26  1  0
 25 27  1  0
 25 28  1  0
 28 29  1  0
 28 30  1  0
 30 31  1  0
 30 32  1  0
 30 33  1  0
 33 34  1  0
 33 35  1  0
 33 36  1  0
 36 37  1  0
 36 38  1  0
  2 39  1  0
 39 40  1  0
 40 41  1  0
 41 42  1  0
 41 43  2  0
 43 44  1  0
 43 45  1  0
 45 46  1  0
 19  5  1  0
 36 23  1  0
 45 39  2  0
 16  7  1  0
M  END
>  <UniqueID>  (11) 
396

>  <SMILES>  (11) 
O=c1c2ccccc2nc(/C=C/c2cccs2)n1C[C@H]1CCCNC1

>  <Energy>  (11) 
83.30483570291405

>  <Genealogy>  (11) 
O=c1c2ccccc2nc(/C=C/c2cccs2)n1C[C@H]1CCCNC1 (chirality)
O=c1c2ccccc2nc(/C=C/c2cccs2)n1C[C@H]1CCCNC1 (cis-trans isomerization)
O=c1c2ccccc2nc(/C=C/c2cccs2)n1C[C@H]1CCCNC1 (3D coordinates assigned)
O=c1c2ccccc2nc(/C=C/c2cccs2)n1C[C@H]1CCCNC1 (nonaromatic ring conformer: 83.30483570291405 kcal/mol)

>  <smiles>  (11) 
O=c1c2ccccc2nc(/C=C/c2cccs2)n1CC1CCCNC1

>  <score_type>  (11) 
oracle

>  <origin>  (11) 
autodockgpu

>  <m_score__min__energy>  (11) 
-6.8300000000000001

>  <m_primary>  (11) 
energy

>  <meeko>  (11) 
{"free_energy": -6.79, "intermolecular_energy": -8.28, "internal_energy": -1.8, "cluster_size": 15, "cluster_id": 1, "rank_in_cluster": 8}

>  <energy>  (11) 
-6.77

>  <cluster_rmsd>  (11) 
1.31

>  <rmsd>  (11) 
271.35

>  <cluster>  (11) 
1

$$$$
RPPNBJKXHXGJEE-FEAKQIBJNA-N
     RDKit          3D

 46 49  0  0  0  0  0  0  0  0999 V2000
  136.7311   75.9021  221.3327 H   0  0  0  0  0  0  0  0  0  0  0  0
  137.0390   75.8640  222.3880 C   0  0  0  0  0  0  0  0  0  0  0  0
  138.1910   76.4530  222.7380 C   0  0  0  0  0  0  0  0  0  0  0  0
  138.2010   77.1390  223.5979 H   0  0  0  0  0  0  0  0  0  0  0  0
  139.4570   76.2050  221.9960 C   0  0  0  0  0  0  0  0  0  0  0  0
  139.9410   74.9340  221.9860 N   0  0  0  0  0  0  0  0  0  0  0  0
  141.0980   74.6050  221.3690 C   0  0  0  0  0  0  0  0  0  0  0  0
  141.5510   73.2810  221.3910 C   0  0  0  0  0  0  0  0  0  0  0  0
  140.9649   72.5075  221.9088 H   0  0  0  0  0  0  0  0  0  0  0  0
  142.7480   72.9420  220.7550 C   0  0  0  0  0  0  0  0  0  0  0  0
  143.1034   71.9011  220.7715 H   0  0  0  0  0  0  0  0  0  0  0  0
  143.4940   73.9240  220.0980 C   0  0  0  0  0  0  0  0  0  0  0  0
  144.4367   73.6547  219.5992 H   0  0  0  0  0  0  0  0  0  0  0  0
  143.0450   75.2490  220.0730 C   0  0  0  0  0  0  0  0  0  0  0  0
  143.6342   76.0193  219.5540 H   0  0  0  0  0  0  0  0  0  0  0  0
  141.8390   75.5970  220.7120 C   0  0  0  0  0  0  0  0  0  0  0  0
  141.3410   76.9100  220.7140 C   0  0  0  0  0  0  0  0  0  0  0  0
  141.9830   77.8130  220.1060 O   0  0  0  0  0  0  0  0  0  0  0  0
  140.1600   77.2120  221.3570 N   0  0  0  0  0  0  0  0  0  0  0  0
  139.6560   78.6060  221.2880 C   0  0  0  0  0  0  0  0  0  0  0  0
  139.9083   79.0245  220.3025 H   0  0  0  0  0  0  0  0  0  0  0  0
  138.5680   78.5775  221.4473 H   0  0  0  0  0  0  0  0  0  0  0  0
  140.2710   79.5120  222.3860 C   0  0  2  0  0  0  0  0  0  0  0  0
  139.4359   79.9804  222.9275 H   0  0  0  0  0  0  0  0  0  0  0  0
  141.1080   80.6890  221.8140 C   0  0  0  0  0  0  0  0  0  0  0  0
  140.9892   81.5635  222.4707 H   0  0  0  0  0  0  0  0  0  0  0  0
  140.7451   80.9072  220.7988 H   0  0  0  0  0  0  0  0  0  0  0  0
  142.5340   80.3480  221.7280 N   0  0  0  0  0  0  0  0  0  0  0  0
  142.6400   79.4700  221.1680 H   0  0  0  0  0  0  0  0  0  0  0  0
  143.1310   80.1430  223.0620 C   0  0  0  0  0  0  0  0  0  0  0  0
  143.4450   81.1206  223.4567 H   0  0  0  0  0  0  0  0  0  0  0  0
  143.9778   79.4526  222.9345 H   0  0  0  0  0  0  0  0  0  0  0  0
  142.1640   79.4930  224.0780 C   0  0  0  0  0  0  0  0  0  0  0  0
  141.6678   80.2848  224.6584 H   0  0  0  0  0  0  0  0  0  0  0  0
  142.7451   78.8338  224.7397 H   0  0  0  0  0  0  0  0  0  0  0  0
  141.1020   78.6540  223.3700 C   0  0  0  0  0  0  0  0  0  0  0  0
  140.4284   78.2190  224.1230 H   0  0  0  0  0  0  0  0  0  0  0  0
  141.6091   77.8631  222.7979 H   0  0  0  0  0  0  0  0  0  0  0  0
  136.1640   75.1670  223.3500 C   0  0  0  0  0  0  0  0  0  0  0  0
  135.8230   73.5220  223.2790 S   0  0  0  0  0  0  0  0  0  0  0  0
  134.8220   73.4720  224.6270 C   0  0  0  0  0  0  0  0  0  0  0  0
  134.3172   72.5784  225.0228 H   0  0  0  0  0  0  0  0  0  0  0  0
  134.7420   74.7530  225.1550 C   0  0  0  0  0  0  0  0  0  0  0  0
  134.1475   74.9992  226.0472 H   0  0  0  0  0  0  0  0  0  0  0  0
  135.4880   75.7030  224.4470 C   0  0  0  0  0  0  0  0  0  0  0  0
  135.5364   76.7656  224.7274 H   0  0  0  0  0  0  0  0  0  0  0  0
  1  2  1  0
  2  3  2  0
  3  4  1  0
  3  5  1  0
  5  6  2  0
  6  7  1  0
  7  8  2  0
  8  9  1  0
  8 10  1  0
 10 11  1  0
 10 12  2  0
 12 13  1  0
 12 14  1  0
 14 15  1  0
 14 16  2  0
 16 17  1  0
 17 18  2  0
 17 19  1  0
 19 20  1  0
 20 21  1  0
 20 22  1  0
 20 23  1  0
 23 24  1  1
 23 25  1  0
 25 26  1  0
 25 27  1  0
 25 28  1  0
 28 29  1  0
 28 30  1  0
 30 31  1  0
 30 32  1  0
 30 33  1  0
 33 34  1  0
 33 35  1  0
 33 36  1  0
 36 37  1  0
 36 38  1  0
  2 39  1  0
 39 40  1  0
 40 41  1  0
 41 42  1  0
 41 43  2  0
 43 44  1  0
 43 45  1  0
 45 46  1  0
 19  5  1  0
 36 23  1  0
 45 39  2  0
 16  7  1  0
M  END
>  <UniqueID>  (12) 
396

>  <SMILES>  (12) 
O=c1c2ccccc2nc(/C=C/c2cccs2)n1C[C@H]1CCCNC1

>  <Energy>  (12) 
83.30483570291405

>  <Genealogy>  (12) 
O=c1c2ccccc2nc(/C=C/c2cccs2)n1C[C@H]1CCCNC1 (chirality)
O=c1c2ccccc2nc(/C=C/c2cccs2)n1C[C@H]1CCCNC1 (cis-trans isomerization)
O=c1c2ccccc2nc(/C=C/c2cccs2)n1C[C@H]1CCCNC1 (3D coordinates assigned)
O=c1c2ccccc2nc(/C=C/c2cccs2)n1C[C@H]1CCCNC1 (nonaromatic ring conformer: 83.30483570291405 kcal/mol)

>  <smiles>  (12) 
O=c1c2ccccc2nc(/C=C/c2cccs2)n1CC1CCCNC1

>  <score_type>  (12) 
oracle

>  <origin>  (12) 
autodockgpu

>  <m_score__min__energy>  (12) 
-6.8300000000000001

>  <m_primary>  (12) 
energy

>  <meeko>  (12) 
{"free_energy": -6.5, "intermolecular_energy": -7.99, "internal_energy": -1.77, "cluster_size": 1, "cluster_id": 3, "rank_in_cluster": 1}

>  <energy>  (12) 
-6.77

>  <cluster_rmsd>  (12) 
1.42

>  <rmsd>  (12) 
271.35

>  <cluster>  (12) 
1

$$$$
RPPNBJKXHXGJEE-FEAKQIBJNA-N
     RDKit          3D

 46 49  0  0  0  0  0  0  0  0999 V2000
  142.2760   80.1002  219.8844 H   0  0  0  0  0  0  0  0  0  0  0  0
  141.7500   79.7030  220.7650 C   0  0  0  0  0  0  0  0  0  0  0  0
  140.8340   78.7420  220.5810 C   0  0  0  0  0  0  0  0  0  0  0  0
  139.8070   79.0275  220.3092 H   0  0  0  0  0  0  0  0  0  0  0  0
  141.1670   77.3000  220.7340 C   0  0  0  0  0  0  0  0  0  0  0  0
  142.2350   76.8240  220.0400 N   0  0  0  0  0  0  0  0  0  0  0  0
  142.6060   75.5250  220.0830 C   0  0  0  0  0  0  0  0  0  0  0  0
  143.7140   75.0880  219.3460 C   0  0  0  0  0  0  0  0  0  0  0  0
  144.2839   75.8023  218.7336 H   0  0  0  0  0  0  0  0  0  0  0  0
  144.0950   73.7450  219.3890 C   0  0  0  0  0  0  0  0  0  0  0  0
  144.9657   73.4022  218.8108 H   0  0  0  0  0  0  0  0  0  0  0  0
  143.3710   72.8360  220.1660 C   0  0  0  0  0  0  0  0  0  0  0  0
  143.6729   71.7787  220.1970 H   0  0  0  0  0  0  0  0  0  0  0  0
  142.2640   73.2670  220.9040 C   0  0  0  0  0  0  0  0  0  0  0  0
  141.6974   72.5491  221.5152 H   0  0  0  0  0  0  0  0  0  0  0  0
  141.8740   74.6210  220.8650 C   0  0  0  0  0  0  0  0  0  0  0  0
  140.7740   75.1080  221.5890 C   0  0  0  0  0  0  0  0  0  0  0  0
  140.1160   74.3120  222.3190 O   0  0  0  0  0  0  0  0  0  0  0  0
  140.4200   76.4380  221.5190 N   0  0  0  0  0  0  0  0  0  0  0  0
  139.2780   76.9070  222.3410 C   0  0  0  0  0  0  0  0  0  0  0  0
  139.3354   76.4298  223.3304 H   0  0  0  0  0  0  0  0  0  0  0  0
  139.3470   78.0022  222.4170 H   0  0  0  0  0  0  0  0  0  0  0  0
  137.9080   76.5630  221.7010 C   0  0  2  0  0  0  0  0  0  0  0  0
  137.4270   77.5145  221.4303 H   0  0  0  0  0  0  0  0  0  0  0  0
  136.9280   75.8660  222.6840 C   0  0  0  0  0  0  0  0  0  0  0  0
  135.9021   76.1896  222.4541 H   0  0  0  0  0  0  0  0  0  0  0  0
  137.2102   76.1496  223.7087 H   0  0  0  0  0  0  0  0  0  0  0  0
  137.0010   74.4030  222.5770 N   0  0  0  0  0  0  0  0  0  0  0  0
  137.9930   74.1010  222.7170 H   0  0  0  0  0  0  0  0  0  0  0  0
  136.5340   73.9250  221.2600 C   0  0  0  0  0  0  0  0  0  0  0  0
  135.4405   73.8122  221.2982 H   0  0  0  0  0  0  0  0  0  0  0  0
  137.0450   72.9712  221.0620 H   0  0  0  0  0  0  0  0  0  0  0  0
  136.8870   74.8800  220.0970 C   0  0  0  0  0  0  0  0  0  0  0  0
  136.0364   75.5533  219.9149 H   0  0  0  0  0  0  0  0  0  0  0  0
  137.1018   74.2757  219.2033 H   0  0  0  0  0  0  0  0  0  0  0  0
  138.1230   75.7160  220.4240 C   0  0  0  0  0  0  0  0  0  0  0  0
  138.3343   76.3885  219.5795 H   0  0  0  0  0  0  0  0  0  0  0  0
  138.9674   75.0331  220.5988 H   0  0  0  0  0  0  0  0  0  0  0  0
  142.0870   80.2540  222.0920 C   0  0  0  0  0  0  0  0  0  0  0  0
  141.3810   81.6400  222.7320 S   0  0  0  0  0  0  0  0  0  0  0  0
  142.2210   81.6310  224.1870 C   0  0  0  0  0  0  0  0  0  0  0  0
  142.1151   82.3669  224.9977 H   0  0  0  0  0  0  0  0  0  0  0  0
  143.0720   80.5340  224.1890 C   0  0  0  0  0  0  0  0  0  0  0  0
  143.7403   80.2936  225.0290 H   0  0  0  0  0  0  0  0  0  0  0  0
  143.0010   79.7620  223.0230 C   0  0  0  0  0  0  0  0  0  0  0  0
  143.6057   78.8580  222.8580 H   0  0  0  0  0  0  0  0  0  0  0  0
  1  2  1  0
  2  3  2  0
  3  4  1  0
  3  5  1  0
  5  6  2  0
  6  7  1  0
  7  8  2  0
  8  9  1  0
  8 10  1  0
 10 11  1  0
 10 12  2  0
 12 13  1  0
 12 14  1  0
 14 15  1  0
 14 16  2  0
 16 17  1  0
 17 18  2  0
 17 19  1  0
 19 20  1  0
 20 21  1  0
 20 22  1  0
 20 23  1  0
 23 24  1  6
 23 25  1  0
 25 26  1  0
 25 27  1  0
 25 28  1  0
 28 29  1  0
 28 30  1  0
 30 31  1  0
 30 32  1  0
 30 33  1  0
 33 34  1  0
 33 35  1  0
 33 36  1  0
 36 37  1  0
 36 38  1  0
  2 39  1  0
 39 40  1  0
 40 41  1  0
 41 42  1  0
 41 43  2  0
 43 44  1  0
 43 45  1  0
 45 46  1  0
 19  5  1  0
 36 23  1  0
 45 39  2  0
 16  7  1  0
M  END
>  <UniqueID>  (13) 
396

>  <SMILES>  (13) 
O=c1c2ccccc2nc(/C=C/c2cccs2)n1C[C@H]1CCCNC1

>  <Energy>  (13) 
83.30483570291405

>  <Genealogy>  (13) 
O=c1c2ccccc2nc(/C=C/c2cccs2)n1C[C@H]1CCCNC1 (chirality)
O=c1c2ccccc2nc(/C=C/c2cccs2)n1C[C@H]1CCCNC1 (cis-trans isomerization)
O=c1c2ccccc2nc(/C=C/c2cccs2)n1C[C@H]1CCCNC1 (3D coordinates assigned)
O=c1c2ccccc2nc(/C=C/c2cccs2)n1C[C@H]1CCCNC1 (nonaromatic ring conformer: 83.30483570291405 kcal/mol)

>  <smiles>  (13) 
O=c1c2ccccc2nc(/C=C/c2cccs2)n1CC1CCCNC1

>  <score_type>  (13) 
oracle

>  <origin>  (13) 
autodockgpu

>  <m_score__min__energy>  (13) 
-6.8300000000000001

>  <m_primary>  (13) 
energy

>  <meeko>  (13) 
{"free_energy": -6.62, "intermolecular_energy": -8.11, "internal_energy": -1.78, "cluster_size": 4, "cluster_id": 2, "rank_in_cluster": 1}

>  <energy>  (13) 
-6.74

>  <cluster_rmsd>  (13) 
1.32

>  <rmsd>  (13) 
271.34

>  <cluster>  (13) 
1

$$$$
RPPNBJKXHXGJEE-FEAKQIBJNA-N
     RDKit          3D

 46 49  0  0  0  0  0  0  0  0999 V2000
  138.2883   72.5868  221.5293 H   0  0  0  0  0  0  0  0  0  0  0  0
  139.3230   72.8070  221.8310 C   0  0  0  0  0  0  0  0  0  0  0  0
  140.1230   71.7830  222.1620 C   0  0  0  0  0  0  0  0  0  0  0  0
  140.8844   71.4457  221.4433 H   0  0  0  0  0  0  0  0  0  0  0  0
  140.0100   71.0900  223.4740 C   0  0  0  0  0  0  0  0  0  0  0  0
  140.5380   71.7130  224.5610 N   0  0  0  0  0  0  0  0  0  0  0  0
  140.5180   71.1590  225.7940 C   0  0  0  0  0  0  0  0  0  0  0  0
  141.0770   71.8440  226.8800 C   0  0  0  0  0  0  0  0  0  0  0  0
  141.5310   72.8348  226.7307 H   0  0  0  0  0  0  0  0  0  0  0  0
  141.0580   71.2690  228.1530 C   0  0  0  0  0  0  0  0  0  0  0  0
  141.4977   71.8071  229.0057 H   0  0  0  0  0  0  0  0  0  0  0  0
  140.4810   70.0110  228.3440 C   0  0  0  0  0  0  0  0  0  0  0  0
  140.4678   69.5603  229.3473 H   0  0  0  0  0  0  0  0  0  0  0  0
  139.9200   69.3230  227.2630 C   0  0  0  0  0  0  0  0  0  0  0  0
  139.4651   68.3335  227.4179 H   0  0  0  0  0  0  0  0  0  0  0  0
  139.9370   69.8960  225.9760 C   0  0  0  0  0  0  0  0  0  0  0  0
  139.3840   69.2510  224.8580 C   0  0  0  0  0  0  0  0  0  0  0  0
  138.8350   68.1220  225.0080 O   0  0  0  0  0  0  0  0  0  0  0  0
  139.4260   69.8420  223.6140 N   0  0  0  0  0  0  0  0  0  0  0  0
  138.7870   69.1370  222.4770 C   0  0  0  0  0  0  0  0  0  0  0  0
  139.2848   69.4452  221.5458 H   0  0  0  0  0  0  0  0  0  0  0  0
  138.8914   68.0560  222.6519 H   0  0  0  0  0  0  0  0  0  0  0  0
  137.2740   69.4520  222.3600 C   0  0  2  0  0  0  0  0  0  0  0  0
  137.1151   69.9264  221.3804 H   0  0  0  0  0  0  0  0  0  0  0  0
  136.7780   70.4860  223.4080 C   0  0  0  0  0  0  0  0  0  0  0  0
  135.9898   71.1044  222.9537 H   0  0  0  0  0  0  0  0  0  0  0  0
  137.6354   71.1036  223.7138 H   0  0  0  0  0  0  0  0  0  0  0  0
  136.2370   69.8280  224.6040 N   0  0  0  0  0  0  0  0  0  0  0  0
  136.9600   69.1790  224.9920 H   0  0  0  0  0  0  0  0  0  0  0  0
  135.0130   69.0600  224.3020 C   0  0  0  0  0  0  0  0  0  0  0  0
  134.1519   69.7424  224.3558 H   0  0  0  0  0  0  0  0  0  0  0  0
  134.9500   68.2486  225.0420 H   0  0  0  0  0  0  0  0  0  0  0  0
  135.0270   68.4000  222.9050 C   0  0  0  0  0  0  0  0  0  0  0  0
  134.5279   69.0679  222.1875 H   0  0  0  0  0  0  0  0  0  0  0  0
  134.4997   67.4367  222.9692 H   0  0  0  0  0  0  0  0  0  0  0  0
  136.4570   68.1390  222.4320 C   0  0  0  0  0  0  0  0  0  0  0  0
  136.4258   67.6811  221.4323 H   0  0  0  0  0  0  0  0  0  0  0  0
  136.9439   67.4661  223.1532 H   0  0  0  0  0  0  0  0  0  0  0  0
  139.7640   74.2150  221.8520 C   0  0  0  0  0  0  0  0  0  0  0  0
  141.2540   74.7350  221.2730 S   0  0  0  0  0  0  0  0  0  0  0  0
  141.0370   76.3650  221.6150 C   0  0  0  0  0  0  0  0  0  0  0  0
  141.7622   77.1679  221.4163 H   0  0  0  0  0  0  0  0  0  0  0  0
  139.7840   76.5240  222.1920 C   0  0  0  0  0  0  0  0  0  0  0  0
  139.3897   77.4994  222.5133 H   0  0  0  0  0  0  0  0  0  0  0  0
  139.0690   75.3280  222.3270 C   0  0  0  0  0  0  0  0  0  0  0  0
  138.0609   75.2713  222.7635 H   0  0  0  0  0  0  0  0  0  0  0  0
  1  2  1  0
  2  3  2  0
  3  4  1  0
  3  5  1  0
  5  6  2  0
  6  7  1  0
  7  8  2  0
  8  9  1  0
  8 10  1  0
 10 11  1  0
 10 12  2  0
 12 13  1  0
 12 14  1  0
 14 15  1  0
 14 16  2  0
 16 17  1  0
 17 18  2  0
 17 19  1  0
 19 20  1  0
 20 21  1  0
 20 22  1  0
 20 23  1  0
 23 24  1  6
 23 25  1  0
 25 26  1  0
 25 27  1  0
 25 28  1  0
 28 29  1  0
 28 30  1  0
 30 31  1  0
 30 32  1  0
 30 33  1  0
 33 34  1  0
 33 35  1  0
 33 36  1  0
 36 37  1  0
 36 38  1  0
  2 39  1  0
 39 40  1  0
 40 41  1  0
 41 42  1  0
 41 43  2  0
 43 44  1  0
 43 45  1  0
 45 46  1  0
 19  5  1  0
 36 23  1  0
 45 39  2  0
 16  7  1  0
M  END
>  <UniqueID>  (14) 
396

>  <SMILES>  (14) 
O=c1c2ccccc2nc(/C=C/c2cccs2)n1C[C@H]1CCCNC1

>  <Energy>  (14) 
83.30483570291405

>  <Genealogy>  (14) 
O=c1c2ccccc2nc(/C=C/c2cccs2)n1C[C@H]1CCCNC1 (chirality)
O=c1c2ccccc2nc(/C=C/c2cccs2)n1C[C@H]1CCCNC1 (cis-trans isomerization)
O=c1c2ccccc2nc(/C=C/c2cccs2)n1C[C@H]1CCCNC1 (3D coordinates assigned)
O=c1c2ccccc2nc(/C=C/c2cccs2)n1C[C@H]1CCCNC1 (nonaromatic ring conformer: 83.30483570291405 kcal/mol)

>  <smiles>  (14) 
O=c1c2ccccc2nc(/C=C/c2cccs2)n1CC1CCCNC1

>  <score_type>  (14) 
oracle

>  <origin>  (14) 
autodockgpu

>  <m_score__min__energy>  (14) 
-6.8300000000000001

>  <m_primary>  (14) 
energy

>  <meeko>  (14) 
{"free_energy": -6.77, "intermolecular_energy": -8.26, "internal_energy": -1.9, "cluster_size": 15, "cluster_id": 1, "rank_in_cluster": 11}

>  <energy>  (14) 
-6.74

>  <cluster_rmsd>  (14) 
1.3

>  <rmsd>  (14) 
271.31

>  <cluster>  (14) 
1

$$$$
RPPNBJKXHXGJEE-FEAKQIBJNA-N
     RDKit          3D

 46 49  0  0  0  0  0  0  0  0999 V2000
  141.7564   80.1547  219.7957 H   0  0  0  0  0  0  0  0  0  0  0  0
  141.3940   79.7010  220.7300 C   0  0  0  0  0  0  0  0  0  0  0  0
  140.5230   78.6850  220.6500 C   0  0  0  0  0  0  0  0  0  0  0  0
  139.4593   78.9058  220.4773 H   0  0  0  0  0  0  0  0  0  0  0  0
  140.9530   77.2680  220.7880 C   0  0  0  0  0  0  0  0  0  0  0  0
  142.0630   76.8790  220.1030 N   0  0  0  0  0  0  0  0  0  0  0  0
  142.5230   75.6080  220.1330 C   0  0  0  0  0  0  0  0  0  0  0  0
  143.6690   75.2610  219.4070 C   0  0  0  0  0  0  0  0  0  0  0  0
  144.1960   76.0229  218.8139 H   0  0  0  0  0  0  0  0  0  0  0  0
  144.1430   73.9470  219.4360 C   0  0  0  0  0  0  0  0  0  0  0  0
  145.0434   73.6749  218.8658 H   0  0  0  0  0  0  0  0  0  0  0  0
  143.4740   72.9780  220.1890 C   0  0  0  0  0  0  0  0  0  0  0  0
  143.8488   71.9440  220.2099 H   0  0  0  0  0  0  0  0  0  0  0  0
  142.3290   73.3200  220.9160 C   0  0  0  0  0  0  0  0  0  0  0  0
  141.8058   72.5552  221.5087 H   0  0  0  0  0  0  0  0  0  0  0  0
  141.8450   74.6430  220.8900 C   0  0  0  0  0  0  0  0  0  0  0  0
  140.7030   75.0410  221.6050 C   0  0  0  0  0  0  0  0  0  0  0  0
  140.0930   74.1900  222.3130 O   0  0  0  0  0  0  0  0  0  0  0  0
  140.2580   76.3430  221.5490 N   0  0  0  0  0  0  0  0  0  0  0  0
  139.0740   76.7190  222.3590 C   0  0  0  0  0  0  0  0  0  0  0  0
  139.1549   76.2399  223.3459 H   0  0  0  0  0  0  0  0  0  0  0  0
  139.0601   77.8157  222.4424 H   0  0  0  0  0  0  0  0  0  0  0  0
  137.7410   76.2790  221.7000 C   0  0  2  0  0  0  0  0  0  0  0  0
  137.1974   77.1936  221.4206 H   0  0  0  0  0  0  0  0  0  0  0  0
  136.7980   75.5160  222.6700 C   0  0  0  0  0  0  0  0  0  0  0  0
  135.7554   75.7669  222.4249 H   0  0  0  0  0  0  0  0  0  0  0  0
  137.0445   75.8193  223.6982 H   0  0  0  0  0  0  0  0  0  0  0  0
  136.9750   74.0620  222.5660 N   0  0  0  0  0  0  0  0  0  0  0  0
  137.9840   73.8300  222.7220 H   0  0  0  0  0  0  0  0  0  0  0  0
  136.5630   73.5510  221.2430 C   0  0  0  0  0  0  0  0  0  0  0  0
  135.4797   73.3612  221.2651 H   0  0  0  0  0  0  0  0  0  0  0  0
  137.1435   72.6358  221.0548 H   0  0  0  0  0  0  0  0  0  0  0  0
  136.8650   74.5270  220.0830 C   0  0  0  0  0  0  0  0  0  0  0  0
  135.9721   75.1389  219.8871 H   0  0  0  0  0  0  0  0  0  0  0  0
  137.1344   73.9386  219.1935 H   0  0  0  0  0  0  0  0  0  0  0  0
  138.0350   75.4480  220.4270 C   0  0  0  0  0  0  0  0  0  0  0  0
  138.2115   76.1331  219.5847 H   0  0  0  0  0  0  0  0  0  0  0  0
  138.9227   74.8263  220.6154 H   0  0  0  0  0  0  0  0  0  0  0  0
  141.8900   80.2400  222.0110 C   0  0  0  0  0  0  0  0  0  0  0  0
  141.2330   81.5880  222.7720 S   0  0  0  0  0  0  0  0  0  0  0  0
  142.2630   81.5840  224.0980 C   0  0  0  0  0  0  0  0  0  0  0  0
  142.2446   82.3019  224.9313 H   0  0  0  0  0  0  0  0  0  0  0  0
  143.1420   80.5180  223.9610 C   0  0  0  0  0  0  0  0  0  0  0  0
  143.9257   80.2865  224.6974 H   0  0  0  0  0  0  0  0  0  0  0  0
  142.9380   79.7650  222.7980 C   0  0  0  0  0  0  0  0  0  0  0  0
  143.5442   78.8865  222.5321 H   0  0  0  0  0  0  0  0  0  0  0  0
  1  2  1  0
  2  3  2  0
  3  4  1  0
  3  5  1  0
  5  6  2  0
  6  7  1  0
  7  8  2  0
  8  9  1  0
  8 10  1  0
 10 11  1  0
 10 12  2  0
 12 13  1  0
 12 14  1  0
 14 15  1  0
 14 16  2  0
 16 17  1  0
 17 18  2  0
 17 19  1  0
 19 20  1  0
 20 21  1  0
 20 22  1  0
 20 23  1  0
 23 24  1  6
 23 25  1  0
 25 26  1  0
 25 27  1  0
 25 28  1  0
 28 29  1  0
 28 30  1  0
 30 31  1  0
 30 32  1  0
 30 33  1  0
 33 34  1  0
 33 35  1  0
 33 36  1  0
 36 37  1  0
 36 38  1  0
  2 39  1  0
 39 40  1  0
 40 41  1  0
 41 42  1  0
 41 43  2  0
 43 44  1  0
 43 45  1  0
 45 46  1  0
 19  5  1  0
 36 23  1  0
 45 39  2  0
 16  7  1  0
M  END
>  <UniqueID>  (15) 
396

>  <SMILES>  (15) 
O=c1c2ccccc2nc(/C=C/c2cccs2)n1C[C@H]1CCCNC1

>  <Energy>  (15) 
83.30483570291405

>  <Genealogy>  (15) 
O=c1c2ccccc2nc(/C=C/c2cccs2)n1C[C@H]1CCCNC1 (chirality)
O=c1c2ccccc2nc(/C=C/c2cccs2)n1C[C@H]1CCCNC1 (cis-trans isomerization)
O=c1c2ccccc2nc(/C=C/c2cccs2)n1C[C@H]1CCCNC1 (3D coordinates assigned)
O=c1c2ccccc2nc(/C=C/c2cccs2)n1C[C@H]1CCCNC1 (nonaromatic ring conformer: 83.30483570291405 kcal/mol)

>  <smiles>  (15) 
O=c1c2ccccc2nc(/C=C/c2cccs2)n1CC1CCCNC1

>  <score_type>  (15) 
oracle

>  <origin>  (15) 
autodockgpu

>  <m_score__min__energy>  (15) 
-6.8300000000000001

>  <m_primary>  (15) 
energy

>  <meeko>  (15) 
{"free_energy": -6.57, "intermolecular_energy": -8.06, "internal_energy": -1.75, "cluster_size": 4, "cluster_id": 2, "rank_in_cluster": 3}

>  <energy>  (15) 
-6.72

>  <cluster_rmsd>  (15) 
1.48

>  <rmsd>  (15) 
271.37

>  <cluster>  (15) 
1

$$$$
RPPNBJKXHXGJEE-FEAKQIBJNA-N
     RDKit          3D

 46 49  0  0  0  0  0  0  0  0999 V2000
  138.3392   72.5634  221.3998 H   0  0  0  0  0  0  0  0  0  0  0  0
  139.3440   72.8060  221.7760 C   0  0  0  0  0  0  0  0  0  0  0  0
  140.1510   71.7980  222.1350 C   0  0  0  0  0  0  0  0  0  0  0  0
  140.9289   71.4609  221.4341 H   0  0  0  0  0  0  0  0  0  0  0  0
  140.0250   71.1220  223.4540 C   0  0  0  0  0  0  0  0  0  0  0  0
  140.5610   71.7500  224.5360 N   0  0  0  0  0  0  0  0  0  0  0  0
  140.5290   71.2110  225.7750 C   0  0  0  0  0  0  0  0  0  0  0  0
  141.0980   71.9000  226.8530 C   0  0  0  0  0  0  0  0  0  0  0  0
  141.5689   72.8811  226.6925 H   0  0  0  0  0  0  0  0  0  0  0  0
  141.0670   71.3400  228.1330 C   0  0  0  0  0  0  0  0  0  0  0  0
  141.5134   71.8812  228.9802 H   0  0  0  0  0  0  0  0  0  0  0  0
  140.4700   70.0940  228.3380 C   0  0  0  0  0  0  0  0  0  0  0  0
  140.4474   69.6564  229.3470 H   0  0  0  0  0  0  0  0  0  0  0  0
  139.9010   69.4010  227.2650 C   0  0  0  0  0  0  0  0  0  0  0  0
  139.4315   68.4202  227.4308 H   0  0  0  0  0  0  0  0  0  0  0  0
  139.9290   69.9590  225.9710 C   0  0  0  0  0  0  0  0  0  0  0  0
  139.3690   69.3090  224.8590 C   0  0  0  0  0  0  0  0  0  0  0  0
  138.8010   68.1910  225.0210 O   0  0  0  0  0  0  0  0  0  0  0  0
  139.4220   69.8850  223.6090 N   0  0  0  0  0  0  0  0  0  0  0  0
  138.7740   69.1760  222.4780 C   0  0  0  0  0  0  0  0  0  0  0  0
  139.2687   69.4767  221.5427 H   0  0  0  0  0  0  0  0  0  0  0  0
  138.8745   68.0955  222.6579 H   0  0  0  0  0  0  0  0  0  0  0  0
  137.2610   69.4980  222.3670 C   0  0  2  0  0  0  0  0  0  0  0  0
  137.0890   69.9143  221.3635 H   0  0  0  0  0  0  0  0  0  0  0  0
  136.7920   70.5980  223.3590 C   0  0  0  0  0  0  0  0  0  0  0  0
  136.0021   71.1961  222.8812 H   0  0  0  0  0  0  0  0  0  0  0  0
  137.6599   71.2242  223.6133 H   0  0  0  0  0  0  0  0  0  0  0  0
  136.2650   70.0180  224.6010 N   0  0  0  0  0  0  0  0  0  0  0  0
  136.9900   69.3860  225.0150 H   0  0  0  0  0  0  0  0  0  0  0  0
  135.0300   69.2450  224.3650 C   0  0  0  0  0  0  0  0  0  0  0  0
  134.1758   69.9376  224.3914 H   0  0  0  0  0  0  0  0  0  0  0  0
  134.9726   68.4799  225.1533 H   0  0  0  0  0  0  0  0  0  0  0  0
  135.0150   68.5020  223.0100 C   0  0  0  0  0  0  0  0  0  0  0  0
  134.5096   69.1301  222.2616 H   0  0  0  0  0  0  0  0  0  0  0  0
  134.4807   67.5494  223.1403 H   0  0  0  0  0  0  0  0  0  0  0  0
  136.4350   68.2000  222.5310 C   0  0  0  0  0  0  0  0  0  0  0  0
  136.3837   67.6830  221.5614 H   0  0  0  0  0  0  0  0  0  0  0  0
  136.9282   67.5674  223.2838 H   0  0  0  0  0  0  0  0  0  0  0  0
  139.7380   74.2250  221.8610 C   0  0  0  0  0  0  0  0  0  0  0  0
  138.6900   75.4590  222.3150 S   0  0  0  0  0  0  0  0  0  0  0  0
  139.7990   76.7140  222.1850 C   0  0  0  0  0  0  0  0  0  0  0  0
  139.5969   77.7765  222.3855 H   0  0  0  0  0  0  0  0  0  0  0  0
  141.0140   76.1790  221.7810 C   0  0  0  0  0  0  0  0  0  0  0  0
  141.9152   76.7886  221.6188 H   0  0  0  0  0  0  0  0  0  0  0  0
  140.9860   74.7900  221.5990 C   0  0  0  0  0  0  0  0  0  0  0  0
  141.8608   74.2037  221.2812 H   0  0  0  0  0  0  0  0  0  0  0  0
  1  2  1  0
  2  3  2  0
  3  4  1  0
  3  5  1  0
  5  6  2  0
  6  7  1  0
  7  8  2  0
  8  9  1  0
  8 10  1  0
 10 11  1  0
 10 12  2  0
 12 13  1  0
 12 14  1  0
 14 15  1  0
 14 16  2  0
 16 17  1  0
 17 18  2  0
 17 19  1  0
 19 20  1  0
 20 21  1  0
 20 22  1  0
 20 23  1  0
 23 24  1  6
 23 25  1  0
 25 26  1  0
 25 27  1  0
 25 28  1  0
 28 29  1  0
 28 30  1  0
 30 31  1  0
 30 32  1  0
 30 33  1  0
 33 34  1  0
 33 35  1  0
 33 36  1  0
 36 37  1  0
 36 38  1  0
  2 39  1  0
 39 40  1  0
 40 41  1  0
 41 42  1  0
 41 43  2  0
 43 44  1  0
 43 45  1  0
 45 46  1  0
 19  5  1  0
 36 23  1  0
 45 39  2  0
 16  7  1  0
M  END
>  <UniqueID>  (16) 
396

>  <SMILES>  (16) 
O=c1c2ccccc2nc(/C=C/c2cccs2)n1C[C@H]1CCCNC1

>  <Energy>  (16) 
83.30483570291405

>  <Genealogy>  (16) 
O=c1c2ccccc2nc(/C=C/c2cccs2)n1C[C@H]1CCCNC1 (chirality)
O=c1c2ccccc2nc(/C=C/c2cccs2)n1C[C@H]1CCCNC1 (cis-trans isomerization)
O=c1c2ccccc2nc(/C=C/c2cccs2)n1C[C@H]1CCCNC1 (3D coordinates assigned)
O=c1c2ccccc2nc(/C=C/c2cccs2)n1C[C@H]1CCCNC1 (nonaromatic ring conformer: 83.30483570291405 kcal/mol)

>  <smiles>  (16) 
O=c1c2ccccc2nc(/C=C/c2cccs2)n1CC1CCCNC1

>  <score_type>  (16) 
oracle

>  <origin>  (16) 
autodockgpu

>  <m_score__min__energy>  (16) 
-6.8300000000000001

>  <m_primary>  (16) 
energy

>  <meeko>  (16) 
{"free_energy": -6.72, "intermolecular_energy": -8.21, "internal_energy": -1.93, "cluster_size": 15, "cluster_id": 1, "rank_in_cluster": 15}

>  <energy>  (16) 
-6.62

>  <cluster_rmsd>  (16) 
0.0

>  <rmsd>  (16) 
271.62

>  <cluster>  (16) 
2

$$$$
RPPNBJKXHXGJEE-FEAKQIBJNA-N
     RDKit          3D

 46 49  0  0  0  0  0  0  0  0999 V2000
  139.8385   73.7100  222.2773 H   0  0  0  0  0  0  0  0  0  0  0  0
  140.4800   72.9010  221.8980 C   0  0  0  0  0  0  0  0  0  0  0  0
  140.0720   71.6340  222.0590 C   0  0  0  0  0  0  0  0  0  0  0  0
  139.7982   71.0441  221.1718 H   0  0  0  0  0  0  0  0  0  0  0  0
  139.9790   71.0030  223.4030 C   0  0  0  0  0  0  0  0  0  0  0  0
  140.5180   71.6800  224.4530 N   0  0  0  0  0  0  0  0  0  0  0  0
  140.5160   71.1850  225.7110 C   0  0  0  0  0  0  0  0  0  0  0  0
  141.0860   71.9230  226.7560 C   0  0  0  0  0  0  0  0  0  0  0  0
  141.5345   72.9068  226.5536 H   0  0  0  0  0  0  0  0  0  0  0  0
  141.0850   71.4100  228.0550 C   0  0  0  0  0  0  0  0  0  0  0  0
  141.5318   71.9906  228.8755 H   0  0  0  0  0  0  0  0  0  0  0  0
  140.5170   70.1600  228.3130 C   0  0  0  0  0  0  0  0  0  0  0  0
  140.5197   69.7573  229.3367 H   0  0  0  0  0  0  0  0  0  0  0  0
  139.9450   69.4190  227.2740 C   0  0  0  0  0  0  0  0  0  0  0  0
  139.4963   68.4364  227.4820 H   0  0  0  0  0  0  0  0  0  0  0  0
  139.9430   69.9300  225.9610 C   0  0  0  0  0  0  0  0  0  0  0  0
  139.3790   69.2300  224.8820 C   0  0  0  0  0  0  0  0  0  0  0  0
  138.8370   68.1080  225.0920 O   0  0  0  0  0  0  0  0  0  0  0  0
  139.4030   69.7620  223.6110 N   0  0  0  0  0  0  0  0  0  0  0  0
  138.7520   69.0000  222.5170 C   0  0  0  0  0  0  0  0  0  0  0  0
  139.2605   69.2366  221.5707 H   0  0  0  0  0  0  0  0  0  0  0  0
  138.8307   67.9303  222.7609 H   0  0  0  0  0  0  0  0  0  0  0  0
  137.2460   69.3420  222.3720 C   0  0  2  0  0  0  0  0  0  0  0  0
  137.1209   69.8663  221.4131 H   0  0  0  0  0  0  0  0  0  0  0  0
  136.7330   70.3300  223.4550 C   0  0  0  0  0  0  0  0  0  0  0  0
  135.9662   70.9809  223.0095 H   0  0  0  0  0  0  0  0  0  0  0  0
  137.5890   70.9196  223.8150 H   0  0  0  0  0  0  0  0  0  0  0  0
  136.1490   69.6220  224.6020 N   0  0  0  0  0  0  0  0  0  0  0  0
  136.8530   68.9440  224.9770 H   0  0  0  0  0  0  0  0  0  0  0  0
  134.9250   68.8870  224.2270 C   0  0  0  0  0  0  0  0  0  0  0  0
  134.0715   69.5782  224.2889 H   0  0  0  0  0  0  0  0  0  0  0  0
  134.8298   68.0415  224.9242 H   0  0  0  0  0  0  0  0  0  0  0  0
  134.9720   68.2950  222.8000 C   0  0  0  0  0  0  0  0  0  0  0  0
  134.5022   69.0034  222.1019 H   0  0  0  0  0  0  0  0  0  0  0  0
  134.4316   67.3369  222.8021 H   0  0  0  0  0  0  0  0  0  0  0  0
  136.4120   68.0380  222.3560 C   0  0  0  0  0  0  0  0  0  0  0  0
  136.4047   67.6297  221.3346 H   0  0  0  0  0  0  0  0  0  0  0  0
  136.8696   67.3243  223.0568 H   0  0  0  0  0  0  0  0  0  0  0  0
  141.7490   73.2620  221.2360 C   0  0  0  0  0  0  0  0  0  0  0  0
  142.9340   72.1460  220.8190 S   0  0  0  0  0  0  0  0  0  0  0  0
  144.0100   73.2470  220.1450 C   0  0  0  0  0  0  0  0  0  0  0  0
  144.9892   73.0060  219.7055 H   0  0  0  0  0  0  0  0  0  0  0  0
  143.4490   74.5130  220.2390 C   0  0  0  0  0  0  0  0  0  0  0  0
  143.9489   75.4207  219.8699 H   0  0  0  0  0  0  0  0  0  0  0  0
  142.1880   74.5280  220.8470 C   0  0  0  0  0  0  0  0  0  0  0  0
  141.6021   75.4459  221.0025 H   0  0  0  0  0  0  0  0  0  0  0  0
  1  2  1  0
  2  3  2  0
  3  4  1  0
  3  5  1  0
  5  6  2  0
  6  7  1  0
  7  8  2  0
  8  9  1  0
  8 10  1  0
 10 11  1  0
 10 12  2  0
 12 13  1  0
 12 14  1  0
 14 15  1  0
 14 16  2  0
 16 17  1  0
 17 18  2  0
 17 19  1  0
 19 20  1  0
 20 21  1  0
 20 22  1  0
 20 23  1  0
 23 24  1  6
 23 25  1  0
 25 26  1  0
 25 27  1  0
 25 28  1  0
 28 29  1  0
 28 30  1  0
 30 31  1  0
 30 32  1  0
 30 33  1  0
 33 34  1  0
 33 35  1  0
 33 36  1  0
 36 37  1  0
 36 38  1  0
  2 39  1  0
 39 40  1  0
 40 41  1  0
 41 42  1  0
 41 43  2  0
 43 44  1  0
 43 45  1  0
 45 46  1  0
 19  5  1  0
 36 23  1  0
 45 39  2  0
 16  7  1  0
M  END
>  <UniqueID>  (17) 
396

>  <SMILES>  (17) 
O=c1c2ccccc2nc(/C=C/c2cccs2)n1C[C@H]1CCCNC1

>  <Energy>  (17) 
83.30483570291405

>  <Genealogy>  (17) 
O=c1c2ccccc2nc(/C=C/c2cccs2)n1C[C@H]1CCCNC1 (chirality)
O=c1c2ccccc2nc(/C=C/c2cccs2)n1C[C@H]1CCCNC1 (cis-trans isomerization)
O=c1c2ccccc2nc(/C=C/c2cccs2)n1C[C@H]1CCCNC1 (3D coordinates assigned)
O=c1c2ccccc2nc(/C=C/c2cccs2)n1C[C@H]1CCCNC1 (nonaromatic ring conformer: 83.30483570291405 kcal/mol)

>  <smiles>  (17) 
O=c1c2ccccc2nc(/C=C/c2cccs2)n1CC1CCCNC1

>  <score_type>  (17) 
oracle

>  <origin>  (17) 
autodockgpu

>  <m_score__min__energy>  (17) 
-6.8300000000000001

>  <m_primary>  (17) 
energy

>  <meeko>  (17) 
{"free_energy": -6.82, "intermolecular_energy": -8.32, "internal_energy": -1.78, "cluster_size": 15, "cluster_id": 1, "rank_in_cluster": 5}

>  <energy>  (17) 
-6.57

>  <cluster_rmsd>  (17) 
0.16

>  <rmsd>  (17) 
271.62

>  <cluster>  (17) 
2

$$$$
RPPNBJKXHXGJEE-FEAKQIBJNA-N
     RDKit          3D

 46 49  0  0  0  0  0  0  0  0999 V2000
  142.2950   80.2738  219.8242 H   0  0  0  0  0  0  0  0  0  0  0  0
  141.7660   79.8310  220.6810 C   0  0  0  0  0  0  0  0  0  0  0  0
  140.8630   78.8690  220.4450 C   0  0  0  0  0  0  0  0  0  0  0  0
  139.8591   79.1523  220.0958 H   0  0  0  0  0  0  0  0  0  0  0  0
  141.1800   77.4290  220.6420 C   0  0  0  0  0  0  0  0  0  0  0  0
  142.2380   76.9190  219.9560 N   0  0  0  0  0  0  0  0  0  0  0  0
  142.5940   75.6180  220.0380 C   0  0  0  0  0  0  0  0  0  0  0  0
  143.6920   75.1440  219.3080 C   0  0  0  0  0  0  0  0  0  0  0  0
  144.2659   75.8316  218.6693 H   0  0  0  0  0  0  0  0  0  0  0  0
  144.0580   73.7990  219.3910 C   0  0  0  0  0  0  0  0  0  0  0  0
  144.9205   73.4280  218.8179 H   0  0  0  0  0  0  0  0  0  0  0  0
  143.3300   72.9240  220.2010 C   0  0  0  0  0  0  0  0  0  0  0  0
  143.6202   71.8648  220.2634 H   0  0  0  0  0  0  0  0  0  0  0  0
  142.2330   73.3910  220.9330 C   0  0  0  0  0  0  0  0  0  0  0  0
  141.6629   72.6993  221.5706 H   0  0  0  0  0  0  0  0  0  0  0  0
  141.8580   74.7470  220.8540 C   0  0  0  0  0  0  0  0  0  0  0  0
  140.7680   75.2700  221.5700 C   0  0  0  0  0  0  0  0  0  0  0  0
  140.1070   74.5050  222.3290 O   0  0  0  0  0  0  0  0  0  0  0  0
  140.4300   76.6010  221.4600 N   0  0  0  0  0  0  0  0  0  0  0  0
  139.2990   77.1090  222.2740 C   0  0  0  0  0  0  0  0  0  0  0  0
  139.3578   76.6624  223.2775 H   0  0  0  0  0  0  0  0  0  0  0  0
  139.3815   78.2052  222.3142 H   0  0  0  0  0  0  0  0  0  0  0  0
  137.9200   76.7620  221.6550 C   0  0  2  0  0  0  0  0  0  0  0  0
  137.4424   77.7113  221.3710 H   0  0  0  0  0  0  0  0  0  0  0  0
  136.9450   76.0910  222.6610 C   0  0  0  0  0  0  0  0  0  0  0  0
  135.9190   76.4166  222.4345 H   0  0  0  0  0  0  0  0  0  0  0  0
  137.2386   76.3930  223.6772 H   0  0  0  0  0  0  0  0  0  0  0  0
  137.0080   74.6260  222.5820 N   0  0  0  0  0  0  0  0  0  0  0  0
  137.9990   74.3200  222.7190 H   0  0  0  0  0  0  0  0  0  0  0  0
  136.5250   74.1260  221.2800 C   0  0  0  0  0  0  0  0  0  0  0  0
  135.4312   74.0217  221.3315 H   0  0  0  0  0  0  0  0  0  0  0  0
  137.0285   73.1654  221.0962 H   0  0  0  0  0  0  0  0  0  0  0  0
  136.8720   75.0540  220.0940 C   0  0  0  0  0  0  0  0  0  0  0  0
  136.0241   75.7292  219.9065 H   0  0  0  0  0  0  0  0  0  0  0  0
  137.0733   74.4303  219.2106 H   0  0  0  0  0  0  0  0  0  0  0  0
  138.1170   75.8880  220.3920 C   0  0  0  0  0  0  0  0  0  0  0  0
  138.3242   76.5422  219.5323 H   0  0  0  0  0  0  0  0  0  0  0  0
  138.9588   75.2031  220.5717 H   0  0  0  0  0  0  0  0  0  0  0  0
  142.0850   80.3250  222.0350 C   0  0  0  0  0  0  0  0  0  0  0  0
  141.3320   81.6500  222.7450 S   0  0  0  0  0  0  0  0  0  0  0  0
  142.1740   81.5960  224.1980 C   0  0  0  0  0  0  0  0  0  0  0  0
  142.0435   82.2852  225.0454 H   0  0  0  0  0  0  0  0  0  0  0  0
  143.0630   80.5310  224.1440 C   0  0  0  0  0  0  0  0  0  0  0  0
  143.7407   80.2714  224.9706 H   0  0  0  0  0  0  0  0  0  0  0  0
  143.0170   79.8180  222.9400 C   0  0  0  0  0  0  0  0  0  0  0  0
  143.6524   78.9452  222.7290 H   0  0  0  0  0  0  0  0  0  0  0  0
  1  2  1  0
  2  3  2  0
  3  4  1  0
  3  5  1  0
  5  6  2  0
  6  7  1  0
  7  8  2  0
  8  9  1  0
  8 10  1  0
 10 11  1  0
 10 12  2  0
 12 13  1  0
 12 14  1  0
 14 15  1  0
 14 16  2  0
 16 17  1  0
 17 18  2  0
 17 19  1  0
 19 20  1  0
 20 21  1  0
 20 22  1  0
 20 23  1  0
 23 24  1  6
 23 25  1  0
 25 26  1  0
 25 27  1  0
 25 28  1  0
 28 29  1  0
 28 30  1  0
 30 31  1  0
 30 32  1  0
 30 33  1  0
 33 34  1  0
 33 35  1  0
 33 36  1  0
 36 37  1  0
 36 38  1  0
  2 39  1  0
 39 40  1  0
 40 41  1  0
 41 42  1  0
 41 43  2  0
 43 44  1  0
 43 45  1  0
 45 46  1  0
 19  5  1  0
 36 23  1  0
 45 39  2  0
 16  7  1  0
M  END
>  <UniqueID>  (18) 
396

>  <SMILES>  (18) 
O=c1c2ccccc2nc(/C=C/c2cccs2)n1C[C@H]1CCCNC1

>  <Energy>  (18) 
83.30483570291405

>  <Genealogy>  (18) 
O=c1c2ccccc2nc(/C=C/c2cccs2)n1C[C@H]1CCCNC1 (chirality)
O=c1c2ccccc2nc(/C=C/c2cccs2)n1C[C@H]1CCCNC1 (cis-trans isomerization)
O=c1c2ccccc2nc(/C=C/c2cccs2)n1C[C@H]1CCCNC1 (3D coordinates assigned)
O=c1c2ccccc2nc(/C=C/c2cccs2)n1C[C@H]1CCCNC1 (nonaromatic ring conformer: 83.30483570291405 kcal/mol)

>  <smiles>  (18) 
O=c1c2ccccc2nc(/C=C/c2cccs2)n1CC1CCCNC1

>  <score_type>  (18) 
oracle

>  <origin>  (18) 
autodockgpu

>  <m_score__min__energy>  (18) 
-6.8300000000000001

>  <m_primary>  (18) 
energy

>  <meeko>  (18) 
{"free_energy": -6.57, "intermolecular_energy": -8.07, "internal_energy": -1.83, "cluster_size": 4, "cluster_id": 2, "rank_in_cluster": 2}

>  <energy>  (18) 
-6.57

>  <cluster_rmsd>  (18) 
0.25

>  <rmsd>  (18) 
271.54

>  <cluster>  (18) 
2

$$$$
RPPNBJKXHXGJEE-FEAKQIBJNA-N
     RDKit          3D

 46 49  0  0  0  0  0  0  0  0999 V2000
  142.2861   80.4912  219.7031 H   0  0  0  0  0  0  0  0  0  0  0  0
  141.7970   79.9760  220.5430 C   0  0  0  0  0  0  0  0  0  0  0  0
  140.9270   78.9930  220.2690 C   0  0  0  0  0  0  0  0  0  0  0  0
  139.9378   79.2528  219.8640 H   0  0  0  0  0  0  0  0  0  0  0  0
  141.2610   77.5610  220.4970 C   0  0  0  0  0  0  0  0  0  0  0  0
  142.2810   77.0310  219.7690 N   0  0  0  0  0  0  0  0  0  0  0  0
  142.6470   75.7340  219.8750 C   0  0  0  0  0  0  0  0  0  0  0  0
  143.7030   75.2390  219.1000 C   0  0  0  0  0  0  0  0  0  0  0  0
  144.2355   75.9056  218.4057 H   0  0  0  0  0  0  0  0  0  0  0  0
  144.0800   73.8980  219.2090 C   0  0  0  0  0  0  0  0  0  0  0  0
  144.9106   73.5096  218.6014 H   0  0  0  0  0  0  0  0  0  0  0  0
  143.4030   73.0500  220.0890 C   0  0  0  0  0  0  0  0  0  0  0  0
  143.7011   71.9944  220.1713 H   0  0  0  0  0  0  0  0  0  0  0  0
  142.3470   73.5390  220.8660 C   0  0  0  0  0  0  0  0  0  0  0  0
  141.8173   72.8685  221.5587 H   0  0  0  0  0  0  0  0  0  0  0  0
  141.9620   74.8910  220.7610 C   0  0  0  0  0  0  0  0  0  0  0  0
  140.9130   75.4350  221.5200 C   0  0  0  0  0  0  0  0  0  0  0  0
  140.3000   74.6950  222.3420 O   0  0  0  0  0  0  0  0  0  0  0  0
  140.5630   76.7600  221.3840 N   0  0  0  0  0  0  0  0  0  0  0  0
  139.4780   77.2940  222.2440 C   0  0  0  0  0  0  0  0  0  0  0  0
  139.5744   76.8548  223.2479 H   0  0  0  0  0  0  0  0  0  0  0  0
  139.5800   78.3889  222.2717 H   0  0  0  0  0  0  0  0  0  0  0  0
  138.0670   76.9640  221.6890 C   0  0  2  0  0  0  0  0  0  0  0  0
  137.5835   77.9192  221.4366 H   0  0  0  0  0  0  0  0  0  0  0  0
  137.1370   76.2920  222.7360 C   0  0  0  0  0  0  0  0  0  0  0  0
  136.1042   76.6294  222.5645 H   0  0  0  0  0  0  0  0  0  0  0  0
  137.4836   76.5809  223.7392 H   0  0  0  0  0  0  0  0  0  0  0  0
  137.1820   74.8270  222.6390 N   0  0  0  0  0  0  0  0  0  0  0  0
  138.1770   74.5110  222.7240 H   0  0  0  0  0  0  0  0  0  0  0  0
  136.6320   74.3440  221.3580 C   0  0  0  0  0  0  0  0  0  0  0  0
  135.5411   74.2479  221.4619 H   0  0  0  0  0  0  0  0  0  0  0  0
  137.1175   73.3812  221.1406 H   0  0  0  0  0  0  0  0  0  0  0  0
  136.9290   75.2820  220.1650 C   0  0  0  0  0  0  0  0  0  0  0  0
  136.0792   75.9665  220.0263 H   0  0  0  0  0  0  0  0  0  0  0  0
  137.0809   74.6660  219.2664 H   0  0  0  0  0  0  0  0  0  0  0  0
  138.1950   76.1020  220.4100 C   0  0  0  0  0  0  0  0  0  0  0  0
  138.3663   76.7632  219.5478 H   0  0  0  0  0  0  0  0  0  0  0  0
  139.0384   75.4082  220.5415 H   0  0  0  0  0  0  0  0  0  0  0  0
  142.1300   80.4000  221.9160 C   0  0  0  0  0  0  0  0  0  0  0  0
  141.3130   81.6160  222.7410 S   0  0  0  0  0  0  0  0  0  0  0  0
  142.2100   81.5260  224.1590 C   0  0  0  0  0  0  0  0  0  0  0  0
  142.0627   82.1452  225.0562 H   0  0  0  0  0  0  0  0  0  0  0  0
  143.1690   80.5350  224.0020 C   0  0  0  0  0  0  0  0  0  0  0  0
  143.8936   80.2705  224.7862 H   0  0  0  0  0  0  0  0  0  0  0  0
  143.1290   79.9030  222.7530 C   0  0  0  0  0  0  0  0  0  0  0  0
  143.8166   79.0955  222.4612 H   0  0  0  0  0  0  0  0  0  0  0  0
  1  2  1  0
  2  3  2  0
  3  4  1  0
  3  5  1  0
  5  6  2  0
  6  7  1  0
  7  8  2  0
  8  9  1  0
  8 10  1  0
 10 11  1  0
 10 12  2  0
 12 13  1  0
 12 14  1  0
 14 15  1  0
 14 16  2  0
 16 17  1  0
 17 18  2  0
 17 19  1  0
 19 20  1  0
 20 21  1  0
 20 22  1  0
 20 23  1  0
 23 24  1  6
 23 25  1  0
 25 26  1  0
 25 27  1  0
 25 28  1  0
 28 29  1  0
 28 30  1  0
 30 31  1  0
 30 32  1  0
 30 33  1  0
 33 34  1  0
 33 35  1  0
 33 36  1  0
 36 37  1  0
 36 38  1  0
  2 39  1  0
 39 40  1  0
 40 41  1  0
 41 42  1  0
 41 43  2  0
 43 44  1  0
 43 45  1  0
 45 46  1  0
 19  5  1  0
 36 23  1  0
 45 39  2  0
 16  7  1  0
M  END
>  <UniqueID>  (19) 
396

>  <SMILES>  (19) 
O=c1c2ccccc2nc(/C=C/c2cccs2)n1C[C@H]1CCCNC1

>  <Energy>  (19) 
83.30483570291405

>  <Genealogy>  (19) 
O=c1c2ccccc2nc(/C=C/c2cccs2)n1C[C@H]1CCCNC1 (chirality)
O=c1c2ccccc2nc(/C=C/c2cccs2)n1C[C@H]1CCCNC1 (cis-trans isomerization)
O=c1c2ccccc2nc(/C=C/c2cccs2)n1C[C@H]1CCCNC1 (3D coordinates assigned)
O=c1c2ccccc2nc(/C=C/c2cccs2)n1C[C@H]1CCCNC1 (nonaromatic ring conformer: 83.30483570291405 kcal/mol)

>  <smiles>  (19) 
O=c1c2ccccc2nc(/C=C/c2cccs2)n1CC1CCCNC1

>  <score_type>  (19) 
oracle

>  <origin>  (19) 
autodockgpu

>  <m_score__min__energy>  (19) 
-6.8300000000000001

>  <m_primary>  (19) 
energy

>  <meeko>  (19) 
{"free_energy": -6.5, "intermolecular_energy": -7.99, "internal_energy": -1.9, "cluster_size": 4, "cluster_id": 2, "rank_in_cluster": 4}

>  <energy>  (19) 
-6.5

>  <cluster_rmsd>  (19) 
0.35

>  <rmsd>  (19) 
271.65

>  <cluster>  (19) 
2

$$$$
RPPNBJKXHXGJEE-FEAKQIBJNA-N
     RDKit          3D

 46 49  0  0  0  0  0  0  0  0999 V2000
  140.8225   70.6852  220.6986 H   0  0  0  0  0  0  0  0  0  0  0  0
  141.0290   71.5920  221.2860 C   0  0  0  0  0  0  0  0  0  0  0  0
  140.1570   71.9460  222.2410 C   0  0  0  0  0  0  0  0  0  0  0  0
  139.5120   72.8220  222.0778 H   0  0  0  0  0  0  0  0  0  0  0  0
  140.0370   71.1870  223.5160 C   0  0  0  0  0  0  0  0  0  0  0  0
  140.5580   71.7550  224.6360 N   0  0  0  0  0  0  0  0  0  0  0  0
  140.5310   71.1390  225.8390 C   0  0  0  0  0  0  0  0  0  0  0  0
  141.0840   71.7680  226.9610 C   0  0  0  0  0  0  0  0  0  0  0  0
  141.5397   72.7644  226.8641 H   0  0  0  0  0  0  0  0  0  0  0  0
  141.0570   71.1300  228.2040 C   0  0  0  0  0  0  0  0  0  0  0  0
  141.4905   71.6251  229.0854 H   0  0  0  0  0  0  0  0  0  0  0  0
  140.4800   69.8640  228.3280 C   0  0  0  0  0  0  0  0  0  0  0  0
  140.4618   69.3631  229.3072 H   0  0  0  0  0  0  0  0  0  0  0  0
  139.9250   69.2310  227.2100 C   0  0  0  0  0  0  0  0  0  0  0  0
  139.4698   68.2348  227.3119 H   0  0  0  0  0  0  0  0  0  0  0  0
  139.9490   69.8690  225.9540 C   0  0  0  0  0  0  0  0  0  0  0  0
  139.4030   69.2810  224.8010 C   0  0  0  0  0  0  0  0  0  0  0  0
  138.8530   68.1460  224.8910 O   0  0  0  0  0  0  0  0  0  0  0  0
  139.4520   69.9340  223.5890 N   0  0  0  0  0  0  0  0  0  0  0  0
  138.8200   69.2870  222.4140 C   0  0  0  0  0  0  0  0  0  0  0  0
  139.2946   69.6738  221.5001 H   0  0  0  0  0  0  0  0  0  0  0  0
  138.9614   68.2006  222.5132 H   0  0  0  0  0  0  0  0  0  0  0  0
  137.2950   69.5600  222.3370 C   0  0  2  0  0  0  0  0  0  0  0  0
  137.0907   69.9960  221.3480 H   0  0  0  0  0  0  0  0  0  0  0  0
  136.8070   70.6170  223.3660 C   0  0  0  0  0  0  0  0  0  0  0  0
  135.9885   71.1996  222.9180 H   0  0  0  0  0  0  0  0  0  0  0  0
  137.6578   71.2656  223.6217 H   0  0  0  0  0  0  0  0  0  0  0  0
  136.3230   69.9880  224.6010 N   0  0  0  0  0  0  0  0  0  0  0  0
  137.0760   69.3710  224.9860 H   0  0  0  0  0  0  0  0  0  0  0  0
  135.1110   69.1790  224.3670 C   0  0  0  0  0  0  0  0  0  0  0  0
  134.2342   69.8405  224.4266 H   0  0  0  0  0  0  0  0  0  0  0  0
  135.0939   68.3926  225.1360 H   0  0  0  0  0  0  0  0  0  0  0  0
  135.0970   68.4710  222.9930 C   0  0  0  0  0  0  0  0  0  0  0  0
  134.5574   69.1006  222.2702 H   0  0  0  0  0  0  0  0  0  0  0  0
  134.5977   67.4976  223.1074 H   0  0  0  0  0  0  0  0  0  0  0  0
  136.5170   68.2300  222.4820 C   0  0  0  0  0  0  0  0  0  0  0  0
  136.4657   67.7359  221.5006 H   0  0  0  0  0  0  0  0  0  0  0  0
  137.0451   67.5960  223.2094 H   0  0  0  0  0  0  0  0  0  0  0  0
  142.2520   72.3600  220.9850 C   0  0  0  0  0  0  0  0  0  0  0  0
  142.2750   74.0250  220.7560 S   0  0  0  0  0  0  0  0  0  0  0  0
  143.9260   74.1600  220.4740 C   0  0  0  0  0  0  0  0  0  0  0  0
  144.4698   75.0920  220.2605 H   0  0  0  0  0  0  0  0  0  0  0  0
  144.4850   72.8920  220.5570 C   0  0  0  0  0  0  0  0  0  0  0  0
  145.5579   72.6973  220.4123 H   0  0  0  0  0  0  0  0  0  0  0  0
  143.5560   71.8840  220.8420 C   0  0  0  0  0  0  0  0  0  0  0  0
  143.8270   70.8227  220.9431 H   0  0  0  0  0  0  0  0  0  0  0  0
  1  2  1  0
  2  3  2  0
  3  4  1  0
  3  5  1  0
  5  6  2  0
  6  7  1  0
  7  8  2  0
  8  9  1  0
  8 10  1  0
 10 11  1  0
 10 12  2  0
 12 13  1  0
 12 14  1  0
 14 15  1  0
 14 16  2  0
 16 17  1  0
 17 18  2  0
 17 19  1  0
 19 20  1  0
 20 21  1  0
 20 22  1  0
 20 23  1  0
 23 24  1  6
 23 25  1  0
 25 26  1  0
 25 27  1  0
 25 28  1  0
 28 29  1  0
 28 30  1  0
 30 31  1  0
 30 32  1  0
 30 33  1  0
 33 34  1  0
 33 35  1  0
 33 36  1  0
 36 37  1  0
 36 38  1  0
  2 39  1  0
 39 40  1  0
 40 41  1  0
 41 42  1  0
 41 43  2  0
 43 44  1  0
 43 45  1  0
 45 46  1  0
 19  5  1  0
 36 23  1  0
 45 39  2  0
 16  7  1  0
M  END
>  <UniqueID>  (20) 
396

>  <SMILES>  (20) 
O=c1c2ccccc2nc(/C=C/c2cccs2)n1C[C@H]1CCCNC1

>  <Energy>  (20) 
83.30483570291405

>  <Genealogy>  (20) 
O=c1c2ccccc2nc(/C=C/c2cccs2)n1C[C@H]1CCCNC1 (chirality)
O=c1c2ccccc2nc(/C=C/c2cccs2)n1C[C@H]1CCCNC1 (cis-trans isomerization)
O=c1c2ccccc2nc(/C=C/c2cccs2)n1C[C@H]1CCCNC1 (3D coordinates assigned)
O=c1c2ccccc2nc(/C=C/c2cccs2)n1C[C@H]1CCCNC1 (nonaromatic ring conformer: 83.30483570291405 kcal/mol)

>  <smiles>  (20) 
O=c1c2ccccc2nc(/C=C/c2cccs2)n1CC1CCCNC1

>  <score_type>  (20) 
oracle

>  <origin>  (20) 
autodockgpu

>  <m_score__min__energy>  (20) 
-6.8300000000000001

>  <m_primary>  (20) 
energy

>  <meeko>  (20) 
{"free_energy": -6.77, "intermolecular_energy": -8.27, "internal_energy": -1.82, "cluster_size": 15, "cluster_id": 1, "rank_in_cluster": 10}

>  <energy>  (20) 
-6.5

>  <cluster_rmsd>  (20) 
0.0

>  <rmsd>  (20) 
271.81

>  <cluster>  (20) 
3

$$$$
RPPNBJKXHXGJEE-BOLDSZDNNA-N
     RDKit          3D

 46 49  0  0  0  0  0  0  0  0999 V2000
  138.6664   72.2901  222.6771 H   0  0  0  0  0  0  0  0  0  0  0  0
  139.6750   71.8920  222.8620 C   0  0  0  0  0  0  0  0  0  0  0  0
  140.5890   71.9950  221.8880 C   0  0  0  0  0  0  0  0  0  0  0  0
  141.0084   71.0770  221.4505 H   0  0  0  0  0  0  0  0  0  0  0  0
  141.0540   73.3150  221.3800 C   0  0  0  0  0  0  0  0  0  0  0  0
  140.6660   74.4230  222.0670 N   0  0  0  0  0  0  0  0  0  0  0  0
  141.0060   75.6720  221.6760 C   0  0  0  0  0  0  0  0  0  0  0  0
  140.5780   76.7790  222.4190 C   0  0  0  0  0  0  0  0  0  0  0  0
  139.9663   76.6325  223.3214 H   0  0  0  0  0  0  0  0  0  0  0  0
  140.9280   78.0700  222.0140 C   0  0  0  0  0  0  0  0  0  0  0  0
  140.5910   78.9395  222.5975 H   0  0  0  0  0  0  0  0  0  0  0  0
  141.7060   78.2570  220.8680 C   0  0  0  0  0  0  0  0  0  0  0  0
  141.9801   79.2740  220.5510 H   0  0  0  0  0  0  0  0  0  0  0  0
  142.1370   77.1540  220.1230 C   0  0  0  0  0  0  0  0  0  0  0  0
  142.7499   77.3052  219.2222 H   0  0  0  0  0  0  0  0  0  0  0  0
  141.7870   75.8500  220.5250 C   0  0  0  0  0  0  0  0  0  0  0  0
  142.1970   74.7090  219.8170 C   0  0  0  0  0  0  0  0  0  0  0  0
  142.9200   74.8490  218.7900 O   0  0  0  0  0  0  0  0  0  0  0  0
  141.8270   73.4500  220.2390 N   0  0  0  0  0  0  0  0  0  0  0  0
  142.3240   72.2780  219.4780 C   0  0  0  0  0  0  0  0  0  0  0  0
  141.6159   71.4464  219.6085 H   0  0  0  0  0  0  0  0  0  0  0  0
  142.4076   72.5756  218.4223 H   0  0  0  0  0  0  0  0  0  0  0  0
  143.7260   71.8160  219.9500 C   0  0  1  0  0  0  0  0  0  0  0  0
  143.6397   70.7593  220.2432 H   0  0  0  0  0  0  0  0  0  0  0  0
  144.7430   71.9430  218.7850 C   0  0  0  0  0  0  0  0  0  0  0  0
  144.4931   72.8330  218.1888 H   0  0  0  0  0  0  0  0  0  0  0  0
  144.6815   71.0302  218.1743 H   0  0  0  0  0  0  0  0  0  0  0  0
  146.1190   72.0720  219.2790 N   0  0  0  0  0  0  0  0  0  0  0  0
  146.3290   71.2630  219.9110 H   0  0  0  0  0  0  0  0  0  0  0  0
  146.3200   73.3330  220.0200 C   0  0  0  0  0  0  0  0  0  0  0  0
  146.5488   74.1291  219.2963 H   0  0  0  0  0  0  0  0  0  0  0  0
  147.1438   73.1632  220.7289 H   0  0  0  0  0  0  0  0  0  0  0  0
  145.0900   73.7650  220.8490 C   0  0  0  0  0  0  0  0  0  0  0  0
  144.4907   74.4744  220.2594 H   0  0  0  0  0  0  0  0  0  0  0  0
  145.4434   74.2357  221.7783 H   0  0  0  0  0  0  0  0  0  0  0  0
  144.2210   72.5610  221.2150 C   0  0  0  0  0  0  0  0  0  0  0  0
  143.3498   72.9096  221.7889 H   0  0  0  0  0  0  0  0  0  0  0  0
  144.8281   71.8644  221.8118 H   0  0  0  0  0  0  0  0  0  0  0  0
  139.9550   71.2710  224.1700 C   0  0  0  0  0  0  0  0  0  0  0  0
  139.0010   70.0690  224.8570 S   0  0  0  0  0  0  0  0  0  0  0  0
  139.9060   69.8790  226.2600 C   0  0  0  0  0  0  0  0  0  0  0  0
  139.6891   69.1764  227.0781 H   0  0  0  0  0  0  0  0  0  0  0  0
  140.9750   70.7630  226.2070 C   0  0  0  0  0  0  0  0  0  0  0  0
  141.7267   70.8446  227.0060 H   0  0  0  0  0  0  0  0  0  0  0  0
  141.0090   71.5410  225.0440 C   0  0  0  0  0  0  0  0  0  0  0  0
  141.7882   72.2900  224.8394 H   0  0  0  0  0  0  0  0  0  0  0  0
  1  2  1  0
  2  3  2  0
  3  4  1  0
  3  5  1  0
  5  6  2  0
  6  7  1  0
  7  8  2  0
  8  9  1  0
  8 10  1  0
 10 11  1  0
 10 12  2  0
 12 13  1  0
 12 14  1  0
 14 15  1  0
 14 16  2  0
 16 17  1  0
 17 18  2  0
 17 19  1  0
 19 20  1  0
 20 21  1  0
 20 22  1  0
 20 23  1  0
 23 24  1  1
 23 25  1  0
 25 26  1  0
 25 27  1  0
 25 28  1  0
 28 29  1  0
 28 30  1  0
 30 31  1  0
 30 32  1  0
 30 33  1  0
 33 34  1  0
 33 35  1  0
 33 36  1  0
 36 37  1  0
 36 38  1  0
  2 39  1  0
 39 40  1  0
 40 41  1  0
 41 42  1  0
 41 43  2  0
 43 44  1  0
 43 45  1  0
 45 46  1  0
 19  5  1  0
 36 23  1  0
 45 39  2  0
 16  7  1  0
M  END
>  <UniqueID>  (21) 
397

>  <SMILES>  (21) 
O=c1c2ccccc2nc(/C=C/c2cccs2)n1C[C@@H]1CCCNC1

>  <Energy>  (21) 
90.42166068335658

>  <Genealogy>  (21) 
O=c1c2ccccc2nc(/C=C/c2cccs2)n1C[C@@H]1CCCNC1 (chirality)
O=c1c2ccccc2nc(/C=C/c2cccs2)n1C[C@@H]1CCCNC1 (cis-trans isomerization)
O=c1c2ccccc2nc(/C=C/c2cccs2)n1C[C@@H]1CCCNC1 (3D coordinates assigned)
O=c1c2ccccc2nc(/C=C/c2cccs2)n1C[C@@H]1CCCNC1 (nonaromatic ring conformer: 90.42166068335658 kcal/mol)

>  <smiles>  (21) 
O=c1c2ccccc2nc(/C=C/c2cccs2)n1CC1CCCNC1

>  <score_type>  (21) 
oracle

>  <origin>  (21) 
autodockgpu

>  <m_score__min__energy>  (21) 
-7.4100000000000001

>  <m_primary>  (21) 
energy

>  <meeko>  (21) 
{"free_energy": -7.24, "intermolecular_energy": -8.73, "internal_energy": -1.25, "cluster_size": 6, "cluster_id": 1, "rank_in_cluster": 3}

>  <energy>  (21) 
-7.41

>  <cluster_rmsd>  (21) 
0.0

>  <rmsd>  (21) 
270.27

>  <cluster>  (21) 
1

$$$$
RPPNBJKXHXGJEE-BOLDSZDNNA-N
     RDKit          3D

 46 49  0  0  0  0  0  0  0  0999 V2000
  138.6567   72.2623  223.0298 H   0  0  0  0  0  0  0  0  0  0  0  0
  139.6680   71.8360  223.1040 C   0  0  0  0  0  0  0  0  0  0  0  0
  140.5050   71.9980  222.0700 C   0  0  0  0  0  0  0  0  0  0  0  0
  140.9052   71.1078  221.5626 H   0  0  0  0  0  0  0  0  0  0  0  0
  140.9090   73.3470  221.5880 C   0  0  0  0  0  0  0  0  0  0  0  0
  140.4530   74.4250  222.2830 N   0  0  0  0  0  0  0  0  0  0  0  0
  140.7350   75.6940  221.9130 C   0  0  0  0  0  0  0  0  0  0  0  0
  140.2380   76.7670  222.6630 C   0  0  0  0  0  0  0  0  0  0  0  0
  139.6199   76.5770  223.5528 H   0  0  0  0  0  0  0  0  0  0  0  0
  140.5280   78.0800  222.2800 C   0  0  0  0  0  0  0  0  0  0  0  0
  140.1362   78.9229  222.8681 H   0  0  0  0  0  0  0  0  0  0  0  0
  141.3150   78.3230  221.1510 C   0  0  0  0  0  0  0  0  0  0  0  0
  141.5418   79.3571  220.8523 H   0  0  0  0  0  0  0  0  0  0  0  0
  141.8150   77.2540  220.4000 C   0  0  0  0  0  0  0  0  0  0  0  0
  142.4352   77.4486  219.5126 H   0  0  0  0  0  0  0  0  0  0  0  0
  141.5250   75.9280  220.7790 C   0  0  0  0  0  0  0  0  0  0  0  0
  142.0050   74.8190  220.0630 C   0  0  0  0  0  0  0  0  0  0  0  0
  142.7380   75.0100  219.0510 O   0  0  0  0  0  0  0  0  0  0  0  0
  141.6940   73.5370  220.4630 N   0  0  0  0  0  0  0  0  0  0  0  0
  142.2630   72.4020  219.6950 C   0  0  0  0  0  0  0  0  0  0  0  0
  141.5908   71.5368  219.7930 H   0  0  0  0  0  0  0  0  0  0  0  0
  142.3591   72.7208  218.6466 H   0  0  0  0  0  0  0  0  0  0  0  0
  143.6720   71.9970  220.1970 C   0  0  1  0  0  0  0  0  0  0  0  0
  143.5625   71.0499  220.7457 H   0  0  0  0  0  0  0  0  0  0  0  0
  144.6210   71.7830  218.9870 C   0  0  0  0  0  0  0  0  0  0  0  0
  144.3702   72.5130  218.2033 H   0  0  0  0  0  0  0  0  0  0  0  0
  144.4871   70.7536  218.6231 H   0  0  0  0  0  0  0  0  0  0  0  0
  146.0290   71.9560  219.3660 N   0  0  0  0  0  0  0  0  0  0  0  0
  146.2450   71.3150  220.1660 H   0  0  0  0  0  0  0  0  0  0  0  0
  146.3230   73.3470  219.7650 C   0  0  0  0  0  0  0  0  0  0  0  0
  146.5389   73.9307  218.8580 H   0  0  0  0  0  0  0  0  0  0  0  0
  147.1803   73.3107  220.4533 H   0  0  0  0  0  0  0  0  0  0  0  0
  145.1630   74.0320  220.5220 C   0  0  0  0  0  0  0  0  0  0  0  0
  144.5570   74.6070  219.8064 H   0  0  0  0  0  0  0  0  0  0  0  0
  145.5898   74.6957  221.2884 H   0  0  0  0  0  0  0  0  0  0  0  0
  144.2720   73.0000  221.2150 C   0  0  0  0  0  0  0  0  0  0  0  0
  143.4516   73.5227  221.7286 H   0  0  0  0  0  0  0  0  0  0  0  0
  144.8870   72.4382  221.9335 H   0  0  0  0  0  0  0  0  0  0  0  0
  140.0360   71.1140  224.3370 C   0  0  0  0  0  0  0  0  0  0  0  0
  139.4630   69.5830  224.7290 S   0  0  0  0  0  0  0  0  0  0  0  0
  140.2810   69.4360  226.1890 C   0  0  0  0  0  0  0  0  0  0  0  0
  140.2392   68.5719  226.8683 H   0  0  0  0  0  0  0  0  0  0  0  0
  141.0190   70.5950  226.3890 C   0  0  0  0  0  0  0  0  0  0  0  0
  141.6489   70.7602  227.2756 H   0  0  0  0  0  0  0  0  0  0  0  0
  140.8880   71.5340  225.3590 C   0  0  0  0  0  0  0  0  0  0  0  0
  141.4047   72.5051  225.3557 H   0  0  0  0  0  0  0  0  0  0  0  0
  1  2  1  0
  2  3  2  0
  3  4  1  0
  3  5  1  0
  5  6  2  0
  6  7  1  0
  7  8  2  0
  8  9  1  0
  8 10  1  0
 10 11  1  0
 10 12  2  0
 12 13  1  0
 12 14  1  0
 14 15  1  0
 14 16  2  0
 16 17  1  0
 17 18  2  0
 17 19  1  0
 19 20  1  0
 20 21  1  0
 20 22  1  0
 20 23  1  0
 23 24  1  1
 23 25  1  0
 25 26  1  0
 25 27  1  0
 25 28  1  0
 28 29  1  0
 28 30  1  0
 30 31  1  0
 30 32  1  0
 30 33  1  0
 33 34  1  0
 33 35  1  0
 33 36  1  0
 36 37  1  0
 36 38  1  0
  2 39  1  0
 39 40  1  0
 40 41  1  0
 41 42  1  0
 41 43  2  0
 43 44  1  0
 43 45  1  0
 45 46  1  0
 19  5  1  0
 36 23  1  0
 45 39  2  0
 16  7  1  0
M  END
>  <UniqueID>  (22) 
397

>  <SMILES>  (22) 
O=c1c2ccccc2nc(/C=C/c2cccs2)n1C[C@@H]1CCCNC1

>  <Energy>  (22) 
90.42166068335658

>  <Genealogy>  (22) 
O=c1c2ccccc2nc(/C=C/c2cccs2)n1C[C@@H]1CCCNC1 (chirality)
O=c1c2ccccc2nc(/C=C/c2cccs2)n1C[C@@H]1CCCNC1 (cis-trans isomerization)
O=c1c2ccccc2nc(/C=C/c2cccs2)n1C[C@@H]1CCCNC1 (3D coordinates assigned)
O=c1c2ccccc2nc(/C=C/c2cccs2)n1C[C@@H]1CCCNC1 (nonaromatic ring conformer: 90.42166068335658 kcal/mol)

>  <smiles>  (22) 
O=c1c2ccccc2nc(/C=C/c2cccs2)n1CC1CCCNC1

>  <score_type>  (22) 
oracle

>  <origin>  (22) 
autodockgpu

>  <m_score__min__energy>  (22) 
-7.4100000000000001

>  <m_primary>  (22) 
energy

>  <meeko>  (22) 
{"free_energy": -7.41, "intermolecular_energy": -8.9, "internal_energy": -1.14, "cluster_size": 6, "cluster_id": 1, "rank_in_cluster": 1}

>  <energy>  (22) 
-7.37

>  <cluster_rmsd>  (22) 
0.2

>  <rmsd>  (22) 
270.3

>  <cluster>  (22) 
1

$$$$
RPPNBJKXHXGJEE-BOLDSZDNNA-N
     RDKit          3D

 46 49  0  0  0  0  0  0  0  0999 V2000
  138.0566   72.6519  221.6471 H   0  0  0  0  0  0  0  0  0  0  0  0
  139.0970   72.8800  221.9220 C   0  0  0  0  0  0  0  0  0  0  0  0
  139.9220   71.8600  222.1940 C   0  0  0  0  0  0  0  0  0  0  0  0
  140.6493   71.5443  221.4316 H   0  0  0  0  0  0  0  0  0  0  0  0
  139.8840   71.1410  223.4970 C   0  0  0  0  0  0  0  0  0  0  0  0
  140.4220   71.7720  224.5770 N   0  0  0  0  0  0  0  0  0  0  0  0
  140.4670   71.1970  225.8000 C   0  0  0  0  0  0  0  0  0  0  0  0
  141.0340   71.8890  226.8770 C   0  0  0  0  0  0  0  0  0  0  0  0
  141.4408   72.9001  226.7282 H   0  0  0  0  0  0  0  0  0  0  0  0
  141.0830   71.2950  228.1410 C   0  0  0  0  0  0  0  0  0  0  0  0
  141.5303   71.8382  228.9865 H   0  0  0  0  0  0  0  0  0  0  0  0
  140.5640   70.0110  228.3320 C   0  0  0  0  0  0  0  0  0  0  0  0
  140.6023   69.5462  229.3282 H   0  0  0  0  0  0  0  0  0  0  0  0
  139.9960   69.3160  227.2590 C   0  0  0  0  0  0  0  0  0  0  0  0
  139.5889   68.3057  227.4124 H   0  0  0  0  0  0  0  0  0  0  0  0
  139.9450   69.9090  225.9820 C   0  0  0  0  0  0  0  0  0  0  0  0
  139.3810   69.2580  224.8720 C   0  0  0  0  0  0  0  0  0  0  0  0
  138.8840   68.1050  225.0220 O   0  0  0  0  0  0  0  0  0  0  0  0
  139.3570   69.8690  223.6370 N   0  0  0  0  0  0  0  0  0  0  0  0
  138.7100   69.1530  222.5100 C   0  0  0  0  0  0  0  0  0  0  0  0
  139.1621   69.4960  221.5677 H   0  0  0  0  0  0  0  0  0  0  0  0
  138.8666   68.0751  222.6638 H   0  0  0  0  0  0  0  0  0  0  0  0
  137.1820   69.4040  222.4490 C   0  0  1  0  0  0  0  0  0  0  0  0
  136.9490   69.7519  221.4318 H   0  0  0  0  0  0  0  0  0  0  0  0
  136.4200   68.0810  222.7260 C   0  0  0  0  0  0  0  0  0  0  0  0
  136.9766   67.4986  223.4750 H   0  0  0  0  0  0  0  0  0  0  0  0
  136.3375   67.5270  221.7793 H   0  0  0  0  0  0  0  0  0  0  0  0
  135.0640   68.3330  223.2300 N   0  0  0  0  0  0  0  0  0  0  0  0
  134.5610   68.9530  222.5530 H   0  0  0  0  0  0  0  0  0  0  0  0
  135.0840   68.9780  224.5580 C   0  0  0  0  0  0  0  0  0  0  0  0
  135.1790   68.1941  225.3238 H   0  0  0  0  0  0  0  0  0  0  0  0
  134.1471   69.5462  224.6544 H   0  0  0  0  0  0  0  0  0  0  0  0
  136.2430   69.9820  224.7410 C   0  0  0  0  0  0  0  0  0  0  0  0
  137.0860   69.4723  225.2305 H   0  0  0  0  0  0  0  0  0  0  0  0
  135.8859   70.8191  225.3589 H   0  0  0  0  0  0  0  0  0  0  0  0
  136.7090   70.5370  223.3930 C   0  0  0  0  0  0  0  0  0  0  0  0
  137.5432   71.2339  223.5619 H   0  0  0  0  0  0  0  0  0  0  0  0
  135.8606   71.0518  222.9184 H   0  0  0  0  0  0  0  0  0  0  0  0
  139.5150   74.2940  221.9730 C   0  0  0  0  0  0  0  0  0  0  0  0
  141.0570   74.8270  221.5670 S   0  0  0  0  0  0  0  0  0  0  0  0
  140.7810   76.4600  221.8550 C   0  0  0  0  0  0  0  0  0  0  0  0
  141.5145   77.2704  221.7314 H   0  0  0  0  0  0  0  0  0  0  0  0
  139.4660   76.6080  222.2760 C   0  0  0  0  0  0  0  0  0  0  0  0
  139.0237   77.5818  222.5332 H   0  0  0  0  0  0  0  0  0  0  0  0
  138.7550   75.4040  222.3430 C   0  0  0  0  0  0  0  0  0  0  0  0
  137.7025   75.3395  222.6560 H   0  0  0  0  0  0  0  0  0  0  0  0
  1  2  1  0
  2  3  2  0
  3  4  1  0
  3  5  1  0
  5  6  2  0
  6  7  1  0
  7  8  2  0
  8  9  1  0
  8 10  1  0
 10 11  1  0
 10 12  2  0
 12 13  1  0
 12 14  1  0
 14 15  1  0
 14 16  2  0
 16 17  1  0
 17 18  2  0
 17 19  1  0
 19 20  1  0
 20 21  1  0
 20 22  1  0
 20 23  1  0
 23 24  1  6
 23 25  1  0
 25 26  1  0
 25 27  1  0
 25 28  1  0
 28 29  1  0
 28 30  1  0
 30 31  1  0
 30 32  1  0
 30 33  1  0
 33 34  1  0
 33 35  1  0
 33 36  1  0
 36 37  1  0
 36 38  1  0
  2 39  1  0
 39 40  1  0
 40 41  1  0
 41 42  1  0
 41 43  2  0
 43 44  1  0
 43 45  1  0
 45 46  1  0
 19  5  1  0
 36 23  1  0
 45 39  2  0
 16  7  1  0
M  END
>  <UniqueID>  (23) 
397

>  <SMILES>  (23) 
O=c1c2ccccc2nc(/C=C/c2cccs2)n1C[C@@H]1CCCNC1

>  <Energy>  (23) 
90.42166068335658

>  <Genealogy>  (23) 
O=c1c2ccccc2nc(/C=C/c2cccs2)n1C[C@@H]1CCCNC1 (chirality)
O=c1c2ccccc2nc(/C=C/c2cccs2)n1C[C@@H]1CCCNC1 (cis-trans isomerization)
O=c1c2ccccc2nc(/C=C/c2cccs2)n1C[C@@H]1CCCNC1 (3D coordinates assigned)
O=c1c2ccccc2nc(/C=C/c2cccs2)n1C[C@@H]1CCCNC1 (nonaromatic ring conformer: 90.42166068335658 kcal/mol)

>  <smiles>  (23) 
O=c1c2ccccc2nc(/C=C/c2cccs2)n1CC1CCCNC1

>  <score_type>  (23) 
oracle

>  <origin>  (23) 
autodockgpu

>  <m_score__min__energy>  (23) 
-7.4100000000000001

>  <m_primary>  (23) 
energy

>  <meeko>  (23) 
{"free_energy": -7.12, "intermolecular_energy": -8.61, "internal_energy": -1.35, "cluster_size": 14, "cluster_id": 2, "rank_in_cluster": 5}

>  <energy>  (23) 
-7.24

>  <cluster_rmsd>  (23) 
0.37

>  <rmsd>  (23) 
270.19

>  <cluster>  (23) 
1

$$$$
RPPNBJKXHXGJEE-BOLDSZDNNA-N
     RDKit          3D

 46 49  0  0  0  0  0  0  0  0999 V2000
  140.9050   70.8350  220.7712 H   0  0  0  0  0  0  0  0  0  0  0  0
  141.0580   71.7610  221.3450 C   0  0  0  0  0  0  0  0  0  0  0  0
  140.1830   72.0610  222.3140 C   0  0  0  0  0  0  0  0  0  0  0  0
  139.5139   72.9238  222.1802 H   0  0  0  0  0  0  0  0  0  0  0  0
  140.0890   71.2620  223.5660 C   0  0  0  0  0  0  0  0  0  0  0  0
  140.5680   71.8270  224.7080 N   0  0  0  0  0  0  0  0  0  0  0  0
  140.5590   71.1780  225.8940 C   0  0  0  0  0  0  0  0  0  0  0  0
  141.0660   71.8050  227.0380 C   0  0  0  0  0  0  0  0  0  0  0  0
  141.4691   72.8264  226.9725 H   0  0  0  0  0  0  0  0  0  0  0  0
  141.0600   71.1330  228.2640 C   0  0  0  0  0  0  0  0  0  0  0  0
  141.4602   71.6255  229.1625 H   0  0  0  0  0  0  0  0  0  0  0  0
  140.5460   69.8360  228.3490 C   0  0  0  0  0  0  0  0  0  0  0  0
  140.5416   69.3095  229.3148 H   0  0  0  0  0  0  0  0  0  0  0  0
  140.0370   69.2060  227.2080 C   0  0  0  0  0  0  0  0  0  0  0  0
  139.6324   68.1855  227.2784 H   0  0  0  0  0  0  0  0  0  0  0  0
  140.0420   69.8770  225.9690 C   0  0  0  0  0  0  0  0  0  0  0  0
  139.5390   69.2920  224.7950 C   0  0  0  0  0  0  0  0  0  0  0  0
  139.0470   68.1290  224.8480 O   0  0  0  0  0  0  0  0  0  0  0  0
  139.5690   69.9800  223.6010 N   0  0  0  0  0  0  0  0  0  0  0  0
  138.9850   69.3310  222.4010 C   0  0  0  0  0  0  0  0  0  0  0  0
  139.4302   69.7838  221.5028 H   0  0  0  0  0  0  0  0  0  0  0  0
  139.2049   68.2549  222.4616 H   0  0  0  0  0  0  0  0  0  0  0  0
  137.4460   69.4950  222.3300 C   0  0  1  0  0  0  0  0  0  0  0  0
  137.1874   69.6890  221.2786 H   0  0  0  0  0  0  0  0  0  0  0  0
  136.7550   68.1860  222.7960 C   0  0  0  0  0  0  0  0  0  0  0  0
  137.3475   67.7393  223.6081 H   0  0  0  0  0  0  0  0  0  0  0  0
  136.6922   67.5049  221.9345 H   0  0  0  0  0  0  0  0  0  0  0  0
  135.3920   68.4370  223.2830 N   0  0  0  0  0  0  0  0  0  0  0  0
  134.8520   68.9330  222.5350 H   0  0  0  0  0  0  0  0  0  0  0  0
  135.3900   69.2570  224.5100 C   0  0  0  0  0  0  0  0  0  0  0  0
  135.5317   68.5908  225.3738 H   0  0  0  0  0  0  0  0  0  0  0  0
  134.4259   69.7856  224.5433 H   0  0  0  0  0  0  0  0  0  0  0  0
  136.4980   70.3330  224.5360 C   0  0  0  0  0  0  0  0  0  0  0  0
  137.3703   69.9373  225.0769 H   0  0  0  0  0  0  0  0  0  0  0  0
  136.1037   71.2280  225.0396 H   0  0  0  0  0  0  0  0  0  0  0  0
  136.9230   70.7210  223.1190 C   0  0  0  0  0  0  0  0  0  0  0  0
  137.7215   71.4753  223.1788 H   0  0  0  0  0  0  0  0  0  0  0  0
  136.0450   71.1228  222.5921 H   0  0  0  0  0  0  0  0  0  0  0  0
  142.2160   72.6100  221.0090 C   0  0  0  0  0  0  0  0  0  0  0  0
  142.1180   74.2710  220.7670 S   0  0  0  0  0  0  0  0  0  0  0  0
  143.7490   74.5180  220.4460 C   0  0  0  0  0  0  0  0  0  0  0  0
  144.2221   75.4835  220.2136 H   0  0  0  0  0  0  0  0  0  0  0  0
  144.3950   73.2930  220.5250 C   0  0  0  0  0  0  0  0  0  0  0  0
  145.4753   73.1721  220.3565 H   0  0  0  0  0  0  0  0  0  0  0  0
  143.5460   72.2240  220.8390 C   0  0  0  0  0  0  0  0  0  0  0  0
  143.8928   71.1851  220.9412 H   0  0  0  0  0  0  0  0  0  0  0  0
  1  2  1  0
  2  3  2  0
  3  4  1  0
  3  5  1  0
  5  6  2  0
  6  7  1  0
  7  8  2  0
  8  9  1  0
  8 10  1  0
 10 11  1  0
 10 12  2  0
 12 13  1  0
 12 14  1  0
 14 15  1  0
 14 16  2  0
 16 17  1  0
 17 18  2  0
 17 19  1  0
 19 20  1  0
 20 21  1  0
 20 22  1  0
 20 23  1  0
 23 24  1  6
 23 25  1  0
 25 26  1  0
 25 27  1  0
 25 28  1  0
 28 29  1  0
 28 30  1  0
 30 31  1  0
 30 32  1  0
 30 33  1  0
 33 34  1  0
 33 35  1  0
 33 36  1  0
 36 37  1  0
 36 38  1  0
  2 39  1  0
 39 40  1  0
 40 41  1  0
 41 42  1  0
 41 43  2  0
 43 44  1  0
 43 45  1  0
 45 46  1  0
 19  5  1  0
 36 23  1  0
 45 39  2  0
 16  7  1  0
M  END
>  <UniqueID>  (24) 
397

>  <SMILES>  (24) 
O=c1c2ccccc2nc(/C=C/c2cccs2)n1C[C@@H]1CCCNC1

>  <Energy>  (24) 
90.42166068335658

>  <Genealogy>  (24) 
O=c1c2ccccc2nc(/C=C/c2cccs2)n1C[C@@H]1CCCNC1 (chirality)
O=c1c2ccccc2nc(/C=C/c2cccs2)n1C[C@@H]1CCCNC1 (cis-trans isomerization)
O=c1c2ccccc2nc(/C=C/c2cccs2)n1C[C@@H]1CCCNC1 (3D coordinates assigned)
O=c1c2ccccc2nc(/C=C/c2cccs2)n1C[C@@H]1CCCNC1 (nonaromatic ring conformer: 90.42166068335658 kcal/mol)

>  <smiles>  (24) 
O=c1c2ccccc2nc(/C=C/c2cccs2)n1CC1CCCNC1

>  <score_type>  (24) 
oracle

>  <origin>  (24) 
autodockgpu

>  <m_score__min__energy>  (24) 
-7.4100000000000001

>  <m_primary>  (24) 
energy

>  <meeko>  (24) 
{"free_energy": -7.09, "intermolecular_energy": -8.58, "internal_energy": -1.27, "cluster_size": 14, "cluster_id": 2, "rank_in_cluster": 8}

>  <energy>  (24) 
-7.22

>  <cluster_rmsd>  (24) 
0.41

>  <rmsd>  (24) 
270.14

>  <cluster>  (24) 
1

$$$$
RPPNBJKXHXGJEE-BOLDSZDNNA-N
     RDKit          3D

 46 49  0  0  0  0  0  0  0  0999 V2000
  141.6507   73.2457  221.8825 H   0  0  0  0  0  0  0  0  0  0  0  0
  140.5780   73.0190  221.9720 C   0  0  0  0  0  0  0  0  0  0  0  0
  140.2060   71.7370  222.0910 C   0  0  0  0  0  0  0  0  0  0  0  0
  139.9988   71.1547  221.1811 H   0  0  0  0  0  0  0  0  0  0  0  0
  140.0650   71.0780  223.4180 C   0  0  0  0  0  0  0  0  0  0  0  0
  140.5850   71.7230  224.4980 N   0  0  0  0  0  0  0  0  0  0  0  0
  140.5390   71.2000  225.7430 C   0  0  0  0  0  0  0  0  0  0  0  0
  141.0920   71.9060  226.8190 C   0  0  0  0  0  0  0  0  0  0  0  0
  141.5621   72.8861  226.6508 H   0  0  0  0  0  0  0  0  0  0  0  0
  141.0460   71.3640  228.1070 C   0  0  0  0  0  0  0  0  0  0  0  0
  141.4803   71.9183  228.9521 H   0  0  0  0  0  0  0  0  0  0  0  0
  140.4490   70.1190  228.3220 C   0  0  0  0  0  0  0  0  0  0  0  0
  140.4154   69.6946  229.3363 H   0  0  0  0  0  0  0  0  0  0  0  0
  139.8940   69.4110  227.2510 C   0  0  0  0  0  0  0  0  0  0  0  0
  139.4229   68.4322  227.4243 H   0  0  0  0  0  0  0  0  0  0  0  0
  139.9380   69.9510  225.9500 C   0  0  0  0  0  0  0  0  0  0  0  0
  139.3920   69.2840  224.8400 C   0  0  0  0  0  0  0  0  0  0  0  0
  138.8250   68.1680  225.0100 O   0  0  0  0  0  0  0  0  0  0  0  0
  139.4610   69.8430  223.5820 N   0  0  0  0  0  0  0  0  0  0  0  0
  138.8310   69.1150  222.4530 C   0  0  0  0  0  0  0  0  0  0  0  0
  139.3143   69.4295  221.5163 H   0  0  0  0  0  0  0  0  0  0  0  0
  138.9632   68.0379  222.6330 H   0  0  0  0  0  0  0  0  0  0  0  0
  137.3100   69.3930  222.3460 C   0  0  1  0  0  0  0  0  0  0  0  0
  137.0907   69.6049  221.2891 H   0  0  0  0  0  0  0  0  0  0  0  0
  136.5130   68.1390  222.7950 C   0  0  0  0  0  0  0  0  0  0  0  0
  137.0516   67.6505  223.6204 H   0  0  0  0  0  0  0  0  0  0  0  0
  136.4200   67.4634  221.9319 H   0  0  0  0  0  0  0  0  0  0  0  0
  135.1620   68.4910  223.2500 N   0  0  0  0  0  0  0  0  0  0  0  0
  134.6770   69.0260  222.4910 H   0  0  0  0  0  0  0  0  0  0  0  0
  135.1920   69.3100  224.4780 C   0  0  0  0  0  0  0  0  0  0  0  0
  135.2628   68.6356  225.3441 H   0  0  0  0  0  0  0  0  0  0  0  0
  134.2696   69.9093  224.4887 H   0  0  0  0  0  0  0  0  0  0  0  0
  136.3760   70.3000  224.5320 C   0  0  0  0  0  0  0  0  0  0  0  0
  137.2034   69.8403  225.0925 H   0  0  0  0  0  0  0  0  0  0  0  0
  136.0382   71.2219  225.0279 H   0  0  0  0  0  0  0  0  0  0  0  0
  136.8620   70.6550  223.1250 C   0  0  0  0  0  0  0  0  0  0  0  0
  137.7131   71.3473  223.2045 H   0  0  0  0  0  0  0  0  0  0  0  0
  136.0289   71.1213  222.5786 H   0  0  0  0  0  0  0  0  0  0  0  0
  139.6210   74.1410  221.9550 C   0  0  0  0  0  0  0  0  0  0  0  0
  140.0780   75.7580  221.9510 S   0  0  0  0  0  0  0  0  0  0  0  0
  138.5250   76.4000  221.9260 C   0  0  0  0  0  0  0  0  0  0  0  0
  138.2687   77.4697  221.9168 H   0  0  0  0  0  0  0  0  0  0  0  0
  137.6220   75.3460  221.9190 C   0  0  0  0  0  0  0  0  0  0  0  0
  136.5315   75.4894  221.9024 H   0  0  0  0  0  0  0  0  0  0  0  0
  138.2270   74.0830  221.9350 C   0  0  0  0  0  0  0  0  0  0  0  0
  137.6603   73.1402  221.9321 H   0  0  0  0  0  0  0  0  0  0  0  0
  1  2  1  0
  2  3  2  0
  3  4  1  0
  3  5  1  0
  5  6  2  0
  6  7  1  0
  7  8  2  0
  8  9  1  0
  8 10  1  0
 10 11  1  0
 10 12  2  0
 12 13  1  0
 12 14  1  0
 14 15  1  0
 14 16  2  0
 16 17  1  0
 17 18  2  0
 17 19  1  0
 19 20  1  0
 20 21  1  0
 20 22  1  0
 20 23  1  0
 23 24  1  6
 23 25  1  0
 25 26  1  0
 25 27  1  0
 25 28  1  0
 28 29  1  0
 28 30  1  0
 30 31  1  0
 30 32  1  0
 30 33  1  0
 33 34  1  0
 33 35  1  0
 33 36  1  0
 36 37  1  0
 36 38  1  0
  2 39  1  0
 39 40  1  0
 40 41  1  0
 41 42  1  0
 41 43  2  0
 43 44  1  0
 43 45  1  0
 45 46  1  0
 19  5  1  0
 36 23  1  0
 45 39  2  0
 16  7  1  0
M  END
>  <UniqueID>  (25) 
397

>  <SMILES>  (25) 
O=c1c2ccccc2nc(/C=C/c2cccs2)n1C[C@@H]1CCCNC1

>  <Energy>  (25) 
90.42166068335658

>  <Genealogy>  (25) 
O=c1c2ccccc2nc(/C=C/c2cccs2)n1C[C@@H]1CCCNC1 (chirality)
O=c1c2ccccc2nc(/C=C/c2cccs2)n1C[C@@H]1CCCNC1 (cis-trans isomerization)
O=c1c2ccccc2nc(/C=C/c2cccs2)n1C[C@@H]1CCCNC1 (3D coordinates assigned)
O=c1c2ccccc2nc(/C=C/c2cccs2)n1C[C@@H]1CCCNC1 (nonaromatic ring conformer: 90.42166068335658 kcal/mol)

>  <smiles>  (25) 
O=c1c2ccccc2nc(/C=C/c2cccs2)n1CC1CCCNC1

>  <score_type>  (25) 
oracle

>  <origin>  (25) 
autodockgpu

>  <m_score__min__energy>  (25) 
-7.4100000000000001

>  <m_primary>  (25) 
energy

>  <meeko>  (25) 
{"free_energy": -6.79, "intermolecular_energy": -8.28, "internal_energy": -1.48, "cluster_size": 14, "cluster_id": 2, "rank_in_cluster": 14}

>  <energy>  (25) 
-7.2

>  <cluster_rmsd>  (25) 
0.39

>  <rmsd>  (25) 
270.15

>  <cluster>  (25) 
1

$$$$
RPPNBJKXHXGJEE-BOLDSZDNNA-N
     RDKit          3D

 46 49  0  0  0  0  0  0  0  0999 V2000
  140.7961   70.8958  220.7623 H   0  0  0  0  0  0  0  0  0  0  0  0
  140.9820   71.7990  221.3620 C   0  0  0  0  0  0  0  0  0  0  0  0
  140.1410   72.0810  222.3660 C   0  0  0  0  0  0  0  0  0  0  0  0
  139.4781   72.9544  222.2776 H   0  0  0  0  0  0  0  0  0  0  0  0
  140.0770   71.2480  223.5970 C   0  0  0  0  0  0  0  0  0  0  0  0
  140.5470   71.7970  224.7510 N   0  0  0  0  0  0  0  0  0  0  0  0
  140.5640   71.1180  225.9200 C   0  0  0  0  0  0  0  0  0  0  0  0
  141.0620   71.7290  227.0770 C   0  0  0  0  0  0  0  0  0  0  0  0
  141.4382   72.7618  227.0354 H   0  0  0  0  0  0  0  0  0  0  0  0
  141.0810   71.0260  228.2850 C   0  0  0  0  0  0  0  0  0  0  0  0
  141.4726   71.5060  229.1940 H   0  0  0  0  0  0  0  0  0  0  0  0
  140.6030   69.7140  228.3390 C   0  0  0  0  0  0  0  0  0  0  0  0
  140.6192   69.1632  229.2910 H   0  0  0  0  0  0  0  0  0  0  0  0
  140.1040   69.0990  227.1860 C   0  0  0  0  0  0  0  0  0  0  0  0
  139.7279   68.0663  227.2325 H   0  0  0  0  0  0  0  0  0  0  0  0
  140.0830   69.8020  225.9650 C   0  0  0  0  0  0  0  0  0  0  0  0
  139.5880   69.2340  224.7790 C   0  0  0  0  0  0  0  0  0  0  0  0
  139.1290   68.0570  224.8050 O   0  0  0  0  0  0  0  0  0  0  0  0
  139.5910   69.9520  223.6020 N   0  0  0  0  0  0  0  0  0  0  0  0
  139.0180   69.3180  222.3900 C   0  0  0  0  0  0  0  0  0  0  0  0
  139.4697   69.7828  221.5012 H   0  0  0  0  0  0  0  0  0  0  0  0
  139.2390   68.2415  222.4385 H   0  0  0  0  0  0  0  0  0  0  0  0
  137.4790   69.4810  222.3090 C   0  0  1  0  0  0  0  0  0  0  0  0
  137.2263   69.6692  221.2551 H   0  0  0  0  0  0  0  0  0  0  0  0
  136.7850   68.1740  222.7780 C   0  0  0  0  0  0  0  0  0  0  0  0
  137.3727   67.7319  223.5960 H   0  0  0  0  0  0  0  0  0  0  0  0
  136.7275   67.4888  221.9194 H   0  0  0  0  0  0  0  0  0  0  0  0
  135.4200   68.4260  223.2550 N   0  0  0  0  0  0  0  0  0  0  0  0
  134.8840   68.9180  222.5030 H   0  0  0  0  0  0  0  0  0  0  0  0
  135.4110   69.2520  224.4790 C   0  0  0  0  0  0  0  0  0  0  0  0
  135.5479   68.5896  225.3465 H   0  0  0  0  0  0  0  0  0  0  0  0
  134.4467   69.7807  224.5042 H   0  0  0  0  0  0  0  0  0  0  0  0
  136.5190   70.3290  224.5070 C   0  0  0  0  0  0  0  0  0  0  0  0
  137.3883   69.9359  225.0546 H   0  0  0  0  0  0  0  0  0  0  0  0
  136.1218   71.2260  225.0047 H   0  0  0  0  0  0  0  0  0  0  0  0
  136.9520   70.7110  223.0900 C   0  0  0  0  0  0  0  0  0  0  0  0
  137.7504   71.4653  223.1508 H   0  0  0  0  0  0  0  0  0  0  0  0
  136.0770   71.1109  222.5566 H   0  0  0  0  0  0  0  0  0  0  0  0
  142.1450   72.6400  221.0210 C   0  0  0  0  0  0  0  0  0  0  0  0
  143.7070   72.0460  220.8430 S   0  0  0  0  0  0  0  0  0  0  0  0
  144.4340   73.5150  220.4720 C   0  0  0  0  0  0  0  0  0  0  0  0
  145.5016   73.6712  220.2577 H   0  0  0  0  0  0  0  0  0  0  0  0
  143.4530   74.4970  220.4830 C   0  0  0  0  0  0  0  0  0  0  0  0
  143.6612   75.5564  220.2723 H   0  0  0  0  0  0  0  0  0  0  0  0
  142.1740   74.0150  220.7870 C   0  0  0  0  0  0  0  0  0  0  0  0
  141.2816   74.6562  220.8364 H   0  0  0  0  0  0  0  0  0  0  0  0
  1  2  1  0
  2  3  2  0
  3  4  1  0
  3  5  1  0
  5  6  2  0
  6  7  1  0
  7  8  2  0
  8  9  1  0
  8 10  1  0
 10 11  1  0
 10 12  2  0
 12 13  1  0
 12 14  1  0
 14 15  1  0
 14 16  2  0
 16 17  1  0
 17 18  2  0
 17 19  1  0
 19 20  1  0
 20 21  1  0
 20 22  1  0
 20 23  1  0
 23 24  1  6
 23 25  1  0
 25 26  1  0
 25 27  1  0
 25 28  1  0
 28 29  1  0
 28 30  1  0
 30 31  1  0
 30 32  1  0
 30 33  1  0
 33 34  1  0
 33 35  1  0
 33 36  1  0
 36 37  1  0
 36 38  1  0
  2 39  1  0
 39 40  1  0
 40 41  1  0
 41 42  1  0
 41 43  2  0
 43 44  1  0
 43 45  1  0
 45 46  1  0
 19  5  1  0
 36 23  1  0
 45 39  2  0
 16  7  1  0
M  END
>  <UniqueID>  (26) 
397

>  <SMILES>  (26) 
O=c1c2ccccc2nc(/C=C/c2cccs2)n1C[C@@H]1CCCNC1

>  <Energy>  (26) 
90.42166068335658

>  <Genealogy>  (26) 
O=c1c2ccccc2nc(/C=C/c2cccs2)n1C[C@@H]1CCCNC1 (chirality)
O=c1c2ccccc2nc(/C=C/c2cccs2)n1C[C@@H]1CCCNC1 (cis-trans isomerization)
O=c1c2ccccc2nc(/C=C/c2cccs2)n1C[C@@H]1CCCNC1 (3D coordinates assigned)
O=c1c2ccccc2nc(/C=C/c2cccs2)n1C[C@@H]1CCCNC1 (nonaromatic ring conformer: 90.42166068335658 kcal/mol)

>  <smiles>  (26) 
O=c1c2ccccc2nc(/C=C/c2cccs2)n1CC1CCCNC1

>  <score_type>  (26) 
oracle

>  <origin>  (26) 
autodockgpu

>  <m_score__min__energy>  (26) 
-7.4100000000000001

>  <m_primary>  (26) 
energy

>  <meeko>  (26) 
{"free_energy": -7.09, "intermolecular_energy": -8.58, "internal_energy": -1.28, "cluster_size": 14, "cluster_id": 2, "rank_in_cluster": 10}

>  <energy>  (26) 
-7.19

>  <cluster_rmsd>  (26) 
0.42

>  <rmsd>  (26) 
270.13

>  <cluster>  (26) 
1

$$$$
RPPNBJKXHXGJEE-BOLDSZDNNA-N
     RDKit          3D

 46 49  0  0  0  0  0  0  0  0999 V2000
  138.8045   72.3885  223.0457 H   0  0  0  0  0  0  0  0  0  0  0  0
  139.7660   71.8560  223.0910 C   0  0  0  0  0  0  0  0  0  0  0  0
  140.5730   71.9070  222.0230 C   0  0  0  0  0  0  0  0  0  0  0  0
  140.9080   70.9660  221.5623 H   0  0  0  0  0  0  0  0  0  0  0  0
  141.0300   73.1980  221.4410 C   0  0  0  0  0  0  0  0  0  0  0  0
  140.7000   74.3380  222.1080 N   0  0  0  0  0  0  0  0  0  0  0  0
  141.0390   75.5650  221.6520 C   0  0  0  0  0  0  0  0  0  0  0  0
  140.6720   76.7060  222.3760 C   0  0  0  0  0  0  0  0  0  0  0  0
  140.1099   76.6040  223.3160 H   0  0  0  0  0  0  0  0  0  0  0  0
  141.0200   77.9740  221.9040 C   0  0  0  0  0  0  0  0  0  0  0  0
  140.7306   78.8700  222.4727 H   0  0  0  0  0  0  0  0  0  0  0  0
  141.7350   78.1060  220.7110 C   0  0  0  0  0  0  0  0  0  0  0  0
  142.0077   79.1059  220.3424 H   0  0  0  0  0  0  0  0  0  0  0  0
  142.1050   76.9690  219.9840 C   0  0  0  0  0  0  0  0  0  0  0  0
  142.6688   77.0762  219.0456 H   0  0  0  0  0  0  0  0  0  0  0  0
  141.7560   75.6870  220.4530 C   0  0  0  0  0  0  0  0  0  0  0  0
  142.1060   74.5130  219.7660 C   0  0  0  0  0  0  0  0  0  0  0  0
  142.7730   74.6020  218.6960 O   0  0  0  0  0  0  0  0  0  0  0  0
  141.7400   73.2780  220.2550 N   0  0  0  0  0  0  0  0  0  0  0  0
  142.1730   72.0690  219.5110 C   0  0  0  0  0  0  0  0  0  0  0  0
  141.5081   71.2339  219.7763 H   0  0  0  0  0  0  0  0  0  0  0  0
  142.1212   72.2996  218.4367 H   0  0  0  0  0  0  0  0  0  0  0  0
  143.6330   71.6660  219.8380 C   0  0  1  0  0  0  0  0  0  0  0  0
  143.6365   70.5823  220.0265 H   0  0  0  0  0  0  0  0  0  0  0  0
  144.5510   71.9790  218.6260 C   0  0  0  0  0  0  0  0  0  0  0  0
  144.2005   72.9026  218.1420 H   0  0  0  0  0  0  0  0  0  0  0  0
  144.5039   71.1282  217.9303 H   0  0  0  0  0  0  0  0  0  0  0  0
  145.9490   72.1580  219.0380 N   0  0  0  0  0  0  0  0  0  0  0  0
  146.2570   71.3080  219.5660 H   0  0  0  0  0  0  0  0  0  0  0  0
  146.1220   73.3500  219.8900 C   0  0  0  0  0  0  0  0  0  0  0  0
  146.2446   74.2280  219.2389 H   0  0  0  0  0  0  0  0  0  0  0  0
  147.0051   73.1703  220.5207 H   0  0  0  0  0  0  0  0  0  0  0  0
  144.9320   73.6090  220.8400 C   0  0  0  0  0  0  0  0  0  0  0  0
  144.2461   74.3283  220.3687 H   0  0  0  0  0  0  0  0  0  0  0  0
  145.3222   74.0100  221.7871 H   0  0  0  0  0  0  0  0  0  0  0  0
  144.1720   72.3150  221.1370 C   0  0  0  0  0  0  0  0  0  0  0  0
  143.3255   72.5416  221.8019 H   0  0  0  0  0  0  0  0  0  0  0  0
  144.8655   71.6079  221.6156 H   0  0  0  0  0  0  0  0  0  0  0  0
  140.1030   71.1210  224.3250 C   0  0  0  0  0  0  0  0  0  0  0  0
  139.5000   69.5970  224.6980 S   0  0  0  0  0  0  0  0  0  0  0  0
  140.2920   69.4290  226.1710 C   0  0  0  0  0  0  0  0  0  0  0  0
  140.2255   68.5620  226.8448 H   0  0  0  0  0  0  0  0  0  0  0  0
  141.0440   70.5740  226.3890 C   0  0  0  0  0  0  0  0  0  0  0  0
  141.6626   70.7238  227.2861 H   0  0  0  0  0  0  0  0  0  0  0  0
  140.9440   71.5220  225.3630 C   0  0  0  0  0  0  0  0  0  0  0  0
  141.4749   72.4853  225.3746 H   0  0  0  0  0  0  0  0  0  0  0  0
  1  2  1  0
  2  3  2  0
  3  4  1  0
  3  5  1  0
  5  6  2  0
  6  7  1  0
  7  8  2  0
  8  9  1  0
  8 10  1  0
 10 11  1  0
 10 12  2  0
 12 13  1  0
 12 14  1  0
 14 15  1  0
 14 16  2  0
 16 17  1  0
 17 18  2  0
 17 19  1  0
 19 20  1  0
 20 21  1  0
 20 22  1  0
 20 23  1  0
 23 24  1  1
 23 25  1  0
 25 26  1  0
 25 27  1  0
 25 28  1  0
 28 29  1  0
 28 30  1  0
 30 31  1  0
 30 32  1  0
 30 33  1  0
 33 34  1  0
 33 35  1  0
 33 36  1  0
 36 37  1  0
 36 38  1  0
  2 39  1  0
 39 40  1  0
 40 41  1  0
 41 42  1  0
 41 43  2  0
 43 44  1  0
 43 45  1  0
 45 46  1  0
 19  5  1  0
 36 23  1  0
 45 39  2  0
 16  7  1  0
M  END
>  <UniqueID>  (27) 
397

>  <SMILES>  (27) 
O=c1c2ccccc2nc(/C=C/c2cccs2)n1C[C@@H]1CCCNC1

>  <Energy>  (27) 
90.42166068335658

>  <Genealogy>  (27) 
O=c1c2ccccc2nc(/C=C/c2cccs2)n1C[C@@H]1CCCNC1 (chirality)
O=c1c2ccccc2nc(/C=C/c2cccs2)n1C[C@@H]1CCCNC1 (cis-trans isomerization)
O=c1c2ccccc2nc(/C=C/c2cccs2)n1C[C@@H]1CCCNC1 (3D coordinates assigned)
O=c1c2ccccc2nc(/C=C/c2cccs2)n1C[C@@H]1CCCNC1 (nonaromatic ring conformer: 90.42166068335658 kcal/mol)

>  <smiles>  (27) 
O=c1c2ccccc2nc(/C=C/c2cccs2)n1CC1CCCNC1

>  <score_type>  (27) 
oracle

>  <origin>  (27) 
autodockgpu

>  <m_score__min__energy>  (27) 
-7.4100000000000001

>  <m_primary>  (27) 
energy

>  <meeko>  (27) 
{"free_energy": -7.19, "intermolecular_energy": -8.68, "internal_energy": -1.26, "cluster_size": 6, "cluster_id": 1, "rank_in_cluster": 6}

>  <energy>  (27) 
-7.16

>  <cluster_rmsd>  (27) 
0.0

>  <rmsd>  (27) 
269.86

>  <cluster>  (27) 
2

$$$$
RPPNBJKXHXGJEE-BOLDSZDNNA-N
     RDKit          3D

 46 49  0  0  0  0  0  0  0  0999 V2000
  138.4373   72.6179  221.5040 H   0  0  0  0  0  0  0  0  0  0  0  0
  139.4480   72.8840  221.8470 C   0  0  0  0  0  0  0  0  0  0  0  0
  140.2800   71.8960  222.2020 C   0  0  0  0  0  0  0  0  0  0  0  0
  141.0969   71.6157  221.5208 H   0  0  0  0  0  0  0  0  0  0  0  0
  140.1320   71.1660  223.4910 C   0  0  0  0  0  0  0  0  0  0  0  0
  140.6310   71.7600  224.6090 N   0  0  0  0  0  0  0  0  0  0  0  0
  140.5770   71.1710  225.8250 C   0  0  0  0  0  0  0  0  0  0  0  0
  141.1080   71.8260  226.9430 C   0  0  0  0  0  0  0  0  0  0  0  0
  141.5672   72.8194  226.8324 H   0  0  0  0  0  0  0  0  0  0  0  0
  141.0540   71.2160  228.2000 C   0  0  0  0  0  0  0  0  0  0  0  0
  141.4726   71.7294  229.0782 H   0  0  0  0  0  0  0  0  0  0  0  0
  140.4690   69.9550  228.3420 C   0  0  0  0  0  0  0  0  0  0  0  0
  140.4268   69.4780  229.3323 H   0  0  0  0  0  0  0  0  0  0  0  0
  139.9370   69.2980  227.2280 C   0  0  0  0  0  0  0  0  0  0  0  0
  139.4774   68.3053  227.3434 H   0  0  0  0  0  0  0  0  0  0  0  0
  139.9890   69.9060  225.9580 C   0  0  0  0  0  0  0  0  0  0  0  0
  139.4650   69.2920  224.8080 C   0  0  0  0  0  0  0  0  0  0  0  0
  138.9100   68.1610  224.9120 O   0  0  0  0  0  0  0  0  0  0  0  0
  139.5420   69.9170  223.5820 N   0  0  0  0  0  0  0  0  0  0  0  0
  138.9340   69.2420  222.4080 C   0  0  0  0  0  0  0  0  0  0  0  0
  139.3911   69.6455  221.4925 H   0  0  0  0  0  0  0  0  0  0  0  0
  139.1191   68.1623  222.5085 H   0  0  0  0  0  0  0  0  0  0  0  0
  137.4010   69.4540  222.3340 C   0  0  1  0  0  0  0  0  0  0  0  0
  137.1533   69.6700  221.2842 H   0  0  0  0  0  0  0  0  0  0  0  0
  136.6680   68.1610  222.7790 C   0  0  0  0  0  0  0  0  0  0  0  0
  137.2428   67.6852  223.5872 H   0  0  0  0  0  0  0  0  0  0  0  0
  136.5881   67.4942  221.9078 H   0  0  0  0  0  0  0  0  0  0  0  0
  135.3110   68.4470  223.2640 N   0  0  0  0  0  0  0  0  0  0  0  0
  134.7900   68.9690  222.5210 H   0  0  0  0  0  0  0  0  0  0  0  0
  135.3290   69.2500  224.5030 C   0  0  0  0  0  0  0  0  0  0  0  0
  135.4464   68.5679  225.3580 H   0  0  0  0  0  0  0  0  0  0  0  0
  134.3815   69.8076  224.5402 H   0  0  0  0  0  0  0  0  0  0  0  0
  136.4700   70.2910  224.5480 C   0  0  0  0  0  0  0  0  0  0  0  0
  137.3276   69.8611  225.0862 H   0  0  0  0  0  0  0  0  0  0  0  0
  136.1021   71.1907  225.0629 H   0  0  0  0  0  0  0  0  0  0  0  0
  136.9120   70.6850  223.1370 C   0  0  0  0  0  0  0  0  0  0  0  0
  137.7325   71.4141  223.2094 H   0  0  0  0  0  0  0  0  0  0  0  0
  136.0486   71.1201  222.6124 H   0  0  0  0  0  0  0  0  0  0  0  0
  139.8190   74.3100  221.8930 C   0  0  0  0  0  0  0  0  0  0  0  0
  138.7580   75.5380  222.3310 S   0  0  0  0  0  0  0  0  0  0  0  0
  139.8450   76.8080  222.1580 C   0  0  0  0  0  0  0  0  0  0  0  0
  139.6289   77.8717  222.3363 H   0  0  0  0  0  0  0  0  0  0  0  0
  141.0630   76.2810  221.7510 C   0  0  0  0  0  0  0  0  0  0  0  0
  141.9525   76.9001  221.5628 H   0  0  0  0  0  0  0  0  0  0  0  0
  141.0550   74.8880  221.6020 C   0  0  0  0  0  0  0  0  0  0  0  0
  141.9351   74.3081  221.2871 H   0  0  0  0  0  0  0  0  0  0  0  0
  1  2  1  0
  2  3  2  0
  3  4  1  0
  3  5  1  0
  5  6  2  0
  6  7  1  0
  7  8  2  0
  8  9  1  0
  8 10  1  0
 10 11  1  0
 10 12  2  0
 12 13  1  0
 12 14  1  0
 14 15  1  0
 14 16  2  0
 16 17  1  0
 17 18  2  0
 17 19  1  0
 19 20  1  0
 20 21  1  0
 20 22  1  0
 20 23  1  0
 23 24  1  6
 23 25  1  0
 25 26  1  0
 25 27  1  0
 25 28  1  0
 28 29  1  0
 28 30  1  0
 30 31  1  0
 30 32  1  0
 30 33  1  0
 33 34  1  0
 33 35  1  0
 33 36  1  0
 36 37  1  0
 36 38  1  0
  2 39  1  0
 39 40  1  0
 40 41  1  0
 41 42  1  0
 41 43  2  0
 43 44  1  0
 43 45  1  0
 45 46  1  0
 19  5  1  0
 36 23  1  0
 45 39  2  0
 16  7  1  0
M  END
>  <UniqueID>  (28) 
397

>  <SMILES>  (28) 
O=c1c2ccccc2nc(/C=C/c2cccs2)n1C[C@@H]1CCCNC1

>  <Energy>  (28) 
90.42166068335658

>  <Genealogy>  (28) 
O=c1c2ccccc2nc(/C=C/c2cccs2)n1C[C@@H]1CCCNC1 (chirality)
O=c1c2ccccc2nc(/C=C/c2cccs2)n1C[C@@H]1CCCNC1 (cis-trans isomerization)
O=c1c2ccccc2nc(/C=C/c2cccs2)n1C[C@@H]1CCCNC1 (3D coordinates assigned)
O=c1c2ccccc2nc(/C=C/c2cccs2)n1C[C@@H]1CCCNC1 (nonaromatic ring conformer: 90.42166068335658 kcal/mol)

>  <smiles>  (28) 
O=c1c2ccccc2nc(/C=C/c2cccs2)n1CC1CCCNC1

>  <score_type>  (28) 
oracle

>  <origin>  (28) 
autodockgpu

>  <m_score__min__energy>  (28) 
-7.4100000000000001

>  <m_primary>  (28) 
energy

>  <meeko>  (28) 
{"free_energy": -7.05, "intermolecular_energy": -8.54, "internal_energy": -1.38, "cluster_size": 14, "cluster_id": 2, "rank_in_cluster": 13}

>  <energy>  (28) 
-7.15

>  <cluster_rmsd>  (28) 
0.03

>  <rmsd>  (28) 
269.84

>  <cluster>  (28) 
2

$$$$
RPPNBJKXHXGJEE-BOLDSZDNNA-N
     RDKit          3D

 46 49  0  0  0  0  0  0  0  0999 V2000
  137.9390   72.7289  221.7222 H   0  0  0  0  0  0  0  0  0  0  0  0
  139.0130   72.8480  221.9280 C   0  0  0  0  0  0  0  0  0  0  0  0
  139.7430   71.7480  222.1590 C   0  0  0  0  0  0  0  0  0  0  0  0
  140.3386   71.3210  221.3387 H   0  0  0  0  0  0  0  0  0  0  0  0
  139.7720   71.0870  223.4920 C   0  0  0  0  0  0  0  0  0  0  0  0
  140.3670   71.7600  224.5140 N   0  0  0  0  0  0  0  0  0  0  0  0
  140.4760   71.2390  225.7560 C   0  0  0  0  0  0  0  0  0  0  0  0
  141.1000   71.9740  226.7710 C   0  0  0  0  0  0  0  0  0  0  0  0
  141.5006   72.9760  226.5576 H   0  0  0  0  0  0  0  0  0  0  0  0
  141.2140   71.4350  228.0550 C   0  0  0  0  0  0  0  0  0  0  0  0
  141.7057   72.0125  228.8517 H   0  0  0  0  0  0  0  0  0  0  0  0
  140.7040   70.1630  228.3280 C   0  0  0  0  0  0  0  0  0  0  0  0
  140.7950   69.7410  229.3397 H   0  0  0  0  0  0  0  0  0  0  0  0
  140.0780   69.4250  227.3180 C   0  0  0  0  0  0  0  0  0  0  0  0
  139.6766   68.4245  227.5369 H   0  0  0  0  0  0  0  0  0  0  0  0
  139.9610   69.9620  226.0200 C   0  0  0  0  0  0  0  0  0  0  0  0
  139.3380   69.2660  224.9720 C   0  0  0  0  0  0  0  0  0  0  0  0
  138.8470   68.1230  225.1970 O   0  0  0  0  0  0  0  0  0  0  0  0
  139.2500   69.8240  223.7140 N   0  0  0  0  0  0  0  0  0  0  0  0
  138.5440   69.0630  222.6540 C   0  0  0  0  0  0  0  0  0  0  0  0
  138.9992   69.3053  221.6824 H   0  0  0  0  0  0  0  0  0  0  0  0
  138.6406   67.9927  222.8886 H   0  0  0  0  0  0  0  0  0  0  0  0
  137.0320   69.3990  222.5930 C   0  0  1  0  0  0  0  0  0  0  0  0
  136.8410   69.8638  221.6145 H   0  0  0  0  0  0  0  0  0  0  0  0
  136.1970   68.0960  222.7140 C   0  0  0  0  0  0  0  0  0  0  0  0
  136.7062   67.4088  223.4057 H   0  0  0  0  0  0  0  0  0  0  0  0
  136.1076   67.6506  221.7122 H   0  0  0  0  0  0  0  0  0  0  0  0
  134.8450   68.3650  223.2190 N   0  0  0  0  0  0  0  0  0  0  0  0
  134.3890   69.0780  222.6020 H   0  0  0  0  0  0  0  0  0  0  0  0
  134.8660   68.8640  224.6080 C   0  0  0  0  0  0  0  0  0  0  0  0
  134.9035   68.0000  225.2877 H   0  0  0  0  0  0  0  0  0  0  0  0
  133.9567   69.4668  224.7487 H   0  0  0  0  0  0  0  0  0  0  0  0
  136.0710   69.7810  224.9160 C   0  0  0  0  0  0  0  0  0  0  0  0
  136.8757   69.1786  225.3629 H   0  0  0  0  0  0  0  0  0  0  0  0
  135.7428   70.5663  225.6128 H   0  0  0  0  0  0  0  0  0  0  0  0
  136.5950   70.4490  223.6440 C   0  0  0  0  0  0  0  0  0  0  0  0
  137.4591   71.0794  223.9008 H   0  0  0  0  0  0  0  0  0  0  0  0
  135.7846   71.0545  223.2120 H   0  0  0  0  0  0  0  0  0  0  0  0
  139.5780   74.2100  221.9360 C   0  0  0  0  0  0  0  0  0  0  0  0
  138.7020   75.5820  222.3570 S   0  0  0  0  0  0  0  0  0  0  0  0
  139.9520   76.6850  222.1410 C   0  0  0  0  0  0  0  0  0  0  0  0
  139.8877   77.7721  222.2962 H   0  0  0  0  0  0  0  0  0  0  0  0
  141.0790   75.9860  221.7330 C   0  0  0  0  0  0  0  0  0  0  0  0
  142.0423   76.4722  221.5194 H   0  0  0  0  0  0  0  0  0  0  0  0
  140.8780   74.6050  221.6180 C   0  0  0  0  0  0  0  0  0  0  0  0
  141.6656   73.9023  221.3082 H   0  0  0  0  0  0  0  0  0  0  0  0
  1  2  1  0
  2  3  2  0
  3  4  1  0
  3  5  1  0
  5  6  2  0
  6  7  1  0
  7  8  2  0
  8  9  1  0
  8 10  1  0
 10 11  1  0
 10 12  2  0
 12 13  1  0
 12 14  1  0
 14 15  1  0
 14 16  2  0
 16 17  1  0
 17 18  2  0
 17 19  1  0
 19 20  1  0
 20 21  1  0
 20 22  1  0
 20 23  1  0
 23 24  1  6
 23 25  1  0
 25 26  1  0
 25 27  1  0
 25 28  1  0
 28 29  1  0
 28 30  1  0
 30 31  1  0
 30 32  1  0
 30 33  1  0
 33 34  1  0
 33 35  1  0
 33 36  1  0
 36 37  1  0
 36 38  1  0
  2 39  1  0
 39 40  1  0
 40 41  1  0
 41 42  1  0
 41 43  2  0
 43 44  1  0
 43 45  1  0
 45 46  1  0
 19  5  1  0
 36 23  1  0
 45 39  2  0
 16  7  1  0
M  END
>  <UniqueID>  (29) 
397

>  <SMILES>  (29) 
O=c1c2ccccc2nc(/C=C/c2cccs2)n1C[C@@H]1CCCNC1

>  <Energy>  (29) 
90.42166068335658

>  <Genealogy>  (29) 
O=c1c2ccccc2nc(/C=C/c2cccs2)n1C[C@@H]1CCCNC1 (chirality)
O=c1c2ccccc2nc(/C=C/c2cccs2)n1C[C@@H]1CCCNC1 (cis-trans isomerization)
O=c1c2ccccc2nc(/C=C/c2cccs2)n1C[C@@H]1CCCNC1 (3D coordinates assigned)
O=c1c2ccccc2nc(/C=C/c2cccs2)n1C[C@@H]1CCCNC1 (nonaromatic ring conformer: 90.42166068335658 kcal/mol)

>  <smiles>  (29) 
O=c1c2ccccc2nc(/C=C/c2cccs2)n1CC1CCCNC1

>  <score_type>  (29) 
oracle

>  <origin>  (29) 
autodockgpu

>  <m_score__min__energy>  (29) 
-7.4100000000000001

>  <m_primary>  (29) 
energy

>  <meeko>  (29) 
{"free_energy": -7.06, "intermolecular_energy": -8.55, "internal_energy": -1.32, "cluster_size": 14, "cluster_id": 2, "rank_in_cluster": 12}

>  <energy>  (29) 
-7.15

>  <cluster_rmsd>  (29) 
0.04

>  <rmsd>  (29) 
269.84

>  <cluster>  (29) 
2

$$$$
RPPNBJKXHXGJEE-BOLDSZDNNA-N
     RDKit          3D

 46 49  0  0  0  0  0  0  0  0999 V2000
  138.0642   72.7797  221.7925 H   0  0  0  0  0  0  0  0  0  0  0  0
  139.1340   72.9580  221.9760 C   0  0  0  0  0  0  0  0  0  0  0  0
  139.9220   71.9030  222.2210 C   0  0  0  0  0  0  0  0  0  0  0  0
  140.6231   71.5683  221.4423 H   0  0  0  0  0  0  0  0  0  0  0  0
  139.8770   71.1700  223.5160 C   0  0  0  0  0  0  0  0  0  0  0  0
  140.4090   71.7890  224.6050 N   0  0  0  0  0  0  0  0  0  0  0  0
  140.4480   71.2010  225.8220 C   0  0  0  0  0  0  0  0  0  0  0  0
  141.0080   71.8810  226.9100 C   0  0  0  0  0  0  0  0  0  0  0  0
  141.4144   72.8942  226.7749 H   0  0  0  0  0  0  0  0  0  0  0  0
  141.0510   71.2730  228.1680 C   0  0  0  0  0  0  0  0  0  0  0  0
  141.4934   71.8069  229.0219 H   0  0  0  0  0  0  0  0  0  0  0  0
  140.5320   69.9870  228.3410 C   0  0  0  0  0  0  0  0  0  0  0  0
  140.5664   69.5105  229.3318 H   0  0  0  0  0  0  0  0  0  0  0  0
  139.9690   69.3040  227.2580 C   0  0  0  0  0  0  0  0  0  0  0  0
  139.5603   68.2924  227.3985 H   0  0  0  0  0  0  0  0  0  0  0  0
  139.9250   69.9110  225.9870 C   0  0  0  0  0  0  0  0  0  0  0  0
  139.3670   69.2710  224.8670 C   0  0  0  0  0  0  0  0  0  0  0  0
  138.8700   68.1170  225.0020 O   0  0  0  0  0  0  0  0  0  0  0  0
  139.3490   69.8960  223.6390 N   0  0  0  0  0  0  0  0  0  0  0  0
  138.7090   69.1920  222.5000 C   0  0  0  0  0  0  0  0  0  0  0  0
  139.1591   69.5531  221.5635 H   0  0  0  0  0  0  0  0  0  0  0  0
  138.8744   68.1131  222.6367 H   0  0  0  0  0  0  0  0  0  0  0  0
  137.1800   69.4320  222.4420 C   0  0  1  0  0  0  0  0  0  0  0  0
  136.9427   69.7725  221.4233 H   0  0  0  0  0  0  0  0  0  0  0  0
  136.4270   68.1050  222.7290 C   0  0  0  0  0  0  0  0  0  0  0  0
  136.9894   67.5308  223.4800 H   0  0  0  0  0  0  0  0  0  0  0  0
  136.3457   67.5449  221.7858 H   0  0  0  0  0  0  0  0  0  0  0  0
  135.0710   68.3510  223.2350 N   0  0  0  0  0  0  0  0  0  0  0  0
  134.5610   68.9630  222.5550 H   0  0  0  0  0  0  0  0  0  0  0  0
  135.0890   69.0030  224.5590 C   0  0  0  0  0  0  0  0  0  0  0  0
  135.1912   68.2241  225.3290 H   0  0  0  0  0  0  0  0  0  0  0  0
  134.1482   69.5648  224.6551 H   0  0  0  0  0  0  0  0  0  0  0  0
  136.2430   70.0170  224.7330 C   0  0  0  0  0  0  0  0  0  0  0  0
  137.0908   69.5159  225.2229 H   0  0  0  0  0  0  0  0  0  0  0  0
  135.8821   70.8552  225.3472 H   0  0  0  0  0  0  0  0  0  0  0  0
  136.7010   70.5670  223.3810 C   0  0  0  0  0  0  0  0  0  0  0  0
  137.5304   71.2711  223.5434 H   0  0  0  0  0  0  0  0  0  0  0  0
  135.8474   71.0724  222.9057 H   0  0  0  0  0  0  0  0  0  0  0  0
  139.6290   74.3470  221.9400 C   0  0  0  0  0  0  0  0  0  0  0  0
  138.6910   75.6840  222.3360 S   0  0  0  0  0  0  0  0  0  0  0  0
  139.8800   76.8420  222.0750 C   0  0  0  0  0  0  0  0  0  0  0  0
  139.7621   77.9282  222.2022 H   0  0  0  0  0  0  0  0  0  0  0  0
  141.0370   76.1900  221.6710 C   0  0  0  0  0  0  0  0  0  0  0  0
  141.9722   76.7181  221.4332 H   0  0  0  0  0  0  0  0  0  0  0  0
  140.9040   74.7980  221.5940 C   0  0  0  0  0  0  0  0  0  0  0  0
  141.7219   74.1275  221.2913 H   0  0  0  0  0  0  0  0  0  0  0  0
  1  2  1  0
  2  3  2  0
  3  4  1  0
  3  5  1  0
  5  6  2  0
  6  7  1  0
  7  8  2  0
  8  9  1  0
  8 10  1  0
 10 11  1  0
 10 12  2  0
 12 13  1  0
 12 14  1  0
 14 15  1  0
 14 16  2  0
 16 17  1  0
 17 18  2  0
 17 19  1  0
 19 20  1  0
 20 21  1  0
 20 22  1  0
 20 23  1  0
 23 24  1  6
 23 25  1  0
 25 26  1  0
 25 27  1  0
 25 28  1  0
 28 29  1  0
 28 30  1  0
 30 31  1  0
 30 32  1  0
 30 33  1  0
 33 34  1  0
 33 35  1  0
 33 36  1  0
 36 37  1  0
 36 38  1  0
  2 39  1  0
 39 40  1  0
 40 41  1  0
 41 42  1  0
 41 43  2  0
 43 44  1  0
 43 45  1  0
 45 46  1  0
 19  5  1  0
 36 23  1  0
 45 39  2  0
 16  7  1  0
M  END
>  <UniqueID>  (30) 
397

>  <SMILES>  (30) 
O=c1c2ccccc2nc(/C=C/c2cccs2)n1C[C@@H]1CCCNC1

>  <Energy>  (30) 
90.42166068335658

>  <Genealogy>  (30) 
O=c1c2ccccc2nc(/C=C/c2cccs2)n1C[C@@H]1CCCNC1 (chirality)
O=c1c2ccccc2nc(/C=C/c2cccs2)n1C[C@@H]1CCCNC1 (cis-trans isomerization)
O=c1c2ccccc2nc(/C=C/c2cccs2)n1C[C@@H]1CCCNC1 (3D coordinates assigned)
O=c1c2ccccc2nc(/C=C/c2cccs2)n1C[C@@H]1CCCNC1 (nonaromatic ring conformer: 90.42166068335658 kcal/mol)

>  <smiles>  (30) 
O=c1c2ccccc2nc(/C=C/c2cccs2)n1CC1CCCNC1

>  <score_type>  (30) 
oracle

>  <origin>  (30) 
autodockgpu

>  <m_score__min__energy>  (30) 
-7.4100000000000001

>  <m_primary>  (30) 
energy

>  <meeko>  (30) 
{"free_energy": -7.15, "intermolecular_energy": -8.64, "internal_energy": -1.33, "cluster_size": 14, "cluster_id": 2, "rank_in_cluster": 2}

>  <energy>  (30) 
-7.12

>  <cluster_rmsd>  (30) 
0.6

>  <rmsd>  (30) 
269.85

>  <cluster>  (30) 
2

$$$$
RPPNBJKXHXGJEE-BOLDSZDNNA-N
     RDKit          3D

 46 49  0  0  0  0  0  0  0  0999 V2000
  138.0617   72.7831  221.8390 H   0  0  0  0  0  0  0  0  0  0  0  0
  139.1370   72.9500  222.0000 C   0  0  0  0  0  0  0  0  0  0  0  0
  139.9190   71.8870  222.2300 C   0  0  0  0  0  0  0  0  0  0  0  0
  140.6087   71.5517  221.4414 H   0  0  0  0  0  0  0  0  0  0  0  0
  139.8830   71.1460  223.5200 C   0  0  0  0  0  0  0  0  0  0  0  0
  140.4140   71.7620  224.6120 N   0  0  0  0  0  0  0  0  0  0  0  0
  140.4600   71.1670  225.8250 C   0  0  0  0  0  0  0  0  0  0  0  0
  141.0200   71.8450  226.9150 C   0  0  0  0  0  0  0  0  0  0  0  0
  141.4203   72.8612  226.7842 H   0  0  0  0  0  0  0  0  0  0  0  0
  141.0700   71.2300  228.1690 C   0  0  0  0  0  0  0  0  0  0  0  0
  141.5113   71.7621  229.0247 H   0  0  0  0  0  0  0  0  0  0  0  0
  140.5600   69.9400  228.3370 C   0  0  0  0  0  0  0  0  0  0  0  0
  140.6003   69.4585  229.3252 H   0  0  0  0  0  0  0  0  0  0  0  0
  139.9980   69.2590  227.2510 C   0  0  0  0  0  0  0  0  0  0  0  0
  139.5967   68.2439  227.3868 H   0  0  0  0  0  0  0  0  0  0  0  0
  139.9460   69.8730  225.9840 C   0  0  0  0  0  0  0  0  0  0  0  0
  139.3890   69.2370  224.8630 C   0  0  0  0  0  0  0  0  0  0  0  0
  138.8990   68.0780  224.9920 O   0  0  0  0  0  0  0  0  0  0  0  0
  139.3630   69.8680  223.6380 N   0  0  0  0  0  0  0  0  0  0  0  0
  138.7240   69.1670  222.4970 C   0  0  0  0  0  0  0  0  0  0  0  0
  139.1767   69.5285  221.5619 H   0  0  0  0  0  0  0  0  0  0  0  0
  138.8869   68.0876  222.6327 H   0  0  0  0  0  0  0  0  0  0  0  0
  137.1950   69.4100  222.4360 C   0  0  1  0  0  0  0  0  0  0  0  0
  136.9601   69.7537  221.4178 H   0  0  0  0  0  0  0  0  0  0  0  0
  136.4390   68.0840  222.7170 C   0  0  0  0  0  0  0  0  0  0  0  0
  136.9987   67.5062  223.4673 H   0  0  0  0  0  0  0  0  0  0  0  0
  136.3586   67.5272  221.7717 H   0  0  0  0  0  0  0  0  0  0  0  0
  135.0820   68.3310  223.2210 N   0  0  0  0  0  0  0  0  0  0  0  0
  134.5760   68.9460  222.5420 H   0  0  0  0  0  0  0  0  0  0  0  0
  135.0990   68.9800  224.5470 C   0  0  0  0  0  0  0  0  0  0  0  0
  135.1977   68.1990  225.3153 H   0  0  0  0  0  0  0  0  0  0  0  0
  134.1594   69.5440  224.6423 H   0  0  0  0  0  0  0  0  0  0  0  0
  136.2540   69.9900  224.7260 C   0  0  0  0  0  0  0  0  0  0  0  0
  137.0994   69.4855  225.2166 H   0  0  0  0  0  0  0  0  0  0  0  0
  135.8932   70.8274  225.3413 H   0  0  0  0  0  0  0  0  0  0  0  0
  136.7170   70.5430  223.3770 C   0  0  0  0  0  0  0  0  0  0  0  0
  137.5480   71.2442  223.5438 H   0  0  0  0  0  0  0  0  0  0  0  0
  135.8660   71.0523  222.9011 H   0  0  0  0  0  0  0  0  0  0  0  0
  139.6470   74.3340  221.9520 C   0  0  0  0  0  0  0  0  0  0  0  0
  138.7230   75.6830  222.3410 S   0  0  0  0  0  0  0  0  0  0  0  0
  139.9230   76.8270  222.0660 C   0  0  0  0  0  0  0  0  0  0  0  0
  139.8168   77.9154  222.1848 H   0  0  0  0  0  0  0  0  0  0  0  0
  141.0710   76.1600  221.6630 C   0  0  0  0  0  0  0  0  0  0  0  0
  142.0105   76.6766  221.4171 H   0  0  0  0  0  0  0  0  0  0  0  0
  140.9240   74.7690  221.5980 C   0  0  0  0  0  0  0  0  0  0  0  0
  141.7340   74.0880  221.2980 H   0  0  0  0  0  0  0  0  0  0  0  0
  1  2  1  0
  2  3  2  0
  3  4  1  0
  3  5  1  0
  5  6  2  0
  6  7  1  0
  7  8  2  0
  8  9  1  0
  8 10  1  0
 10 11  1  0
 10 12  2  0
 12 13  1  0
 12 14  1  0
 14 15  1  0
 14 16  2  0
 16 17  1  0
 17 18  2  0
 17 19  1  0
 19 20  1  0
 20 21  1  0
 20 22  1  0
 20 23  1  0
 23 24  1  6
 23 25  1  0
 25 26  1  0
 25 27  1  0
 25 28  1  0
 28 29  1  0
 28 30  1  0
 30 31  1  0
 30 32  1  0
 30 33  1  0
 33 34  1  0
 33 35  1  0
 33 36  1  0
 36 37  1  0
 36 38  1  0
  2 39  1  0
 39 40  1  0
 40 41  1  0
 41 42  1  0
 41 43  2  0
 43 44  1  0
 43 45  1  0
 45 46  1  0
 19  5  1  0
 36 23  1  0
 45 39  2  0
 16  7  1  0
M  END
>  <UniqueID>  (31) 
397

>  <SMILES>  (31) 
O=c1c2ccccc2nc(/C=C/c2cccs2)n1C[C@@H]1CCCNC1

>  <Energy>  (31) 
90.42166068335658

>  <Genealogy>  (31) 
O=c1c2ccccc2nc(/C=C/c2cccs2)n1C[C@@H]1CCCNC1 (chirality)
O=c1c2ccccc2nc(/C=C/c2cccs2)n1C[C@@H]1CCCNC1 (cis-trans isomerization)
O=c1c2ccccc2nc(/C=C/c2cccs2)n1C[C@@H]1CCCNC1 (3D coordinates assigned)
O=c1c2ccccc2nc(/C=C/c2cccs2)n1C[C@@H]1CCCNC1 (nonaromatic ring conformer: 90.42166068335658 kcal/mol)

>  <smiles>  (31) 
O=c1c2ccccc2nc(/C=C/c2cccs2)n1CC1CCCNC1

>  <score_type>  (31) 
oracle

>  <origin>  (31) 
autodockgpu

>  <m_score__min__energy>  (31) 
-7.4100000000000001

>  <m_primary>  (31) 
energy

>  <meeko>  (31) 
{"free_energy": -7.15, "intermolecular_energy": -8.64, "internal_energy": -1.33, "cluster_size": 14, "cluster_id": 2, "rank_in_cluster": 3}

>  <energy>  (31) 
-7.12

>  <cluster_rmsd>  (31) 
0.6

>  <rmsd>  (31) 
269.83

>  <cluster>  (31) 
2

$$$$
RPPNBJKXHXGJEE-BOLDSZDNNA-N
     RDKit          3D

 46 49  0  0  0  0  0  0  0  0999 V2000
  140.9514   70.7908  220.7455 H   0  0  0  0  0  0  0  0  0  0  0  0
  141.0900   71.7210  221.3160 C   0  0  0  0  0  0  0  0  0  0  0  0
  140.1990   72.0220  222.2700 C   0  0  0  0  0  0  0  0  0  0  0  0
  139.5157   72.8697  222.1135 H   0  0  0  0  0  0  0  0  0  0  0  0
  140.1060   71.2440  223.5350 C   0  0  0  0  0  0  0  0  0  0  0  0
  140.5830   71.8300  224.6680 N   0  0  0  0  0  0  0  0  0  0  0  0
  140.5750   71.2010  225.8650 C   0  0  0  0  0  0  0  0  0  0  0  0
  141.0800   71.8490  226.9980 C   0  0  0  0  0  0  0  0  0  0  0  0
  141.4809   72.8700  226.9148 H   0  0  0  0  0  0  0  0  0  0  0  0
  141.0750   71.1990  228.2350 C   0  0  0  0  0  0  0  0  0  0  0  0
  141.4733   71.7080  229.1251 H   0  0  0  0  0  0  0  0  0  0  0  0
  140.5640   69.9020  228.3420 C   0  0  0  0  0  0  0  0  0  0  0  0
  140.5608   69.3923  229.3168 H   0  0  0  0  0  0  0  0  0  0  0  0
  140.0570   69.2510  227.2130 C   0  0  0  0  0  0  0  0  0  0  0  0
  139.6548   68.2310  227.3011 H   0  0  0  0  0  0  0  0  0  0  0  0
  140.0610   69.9010  225.9620 C   0  0  0  0  0  0  0  0  0  0  0  0
  139.5600   69.2950  224.7980 C   0  0  0  0  0  0  0  0  0  0  0  0
  139.0700   68.1320  224.8710 O   0  0  0  0  0  0  0  0  0  0  0  0
  139.5880   69.9620  223.5920 N   0  0  0  0  0  0  0  0  0  0  0  0
  139.0060   69.2910  222.4030 C   0  0  0  0  0  0  0  0  0  0  0  0
  139.4603   69.7199  221.4977 H   0  0  0  0  0  0  0  0  0  0  0  0
  139.2167   68.2148  222.4888 H   0  0  0  0  0  0  0  0  0  0  0  0
  137.4690   69.4660  222.3190 C   0  0  1  0  0  0  0  0  0  0  0  0
  137.2211   69.6700  221.2669 H   0  0  0  0  0  0  0  0  0  0  0  0
  136.7640   68.1580  222.7670 C   0  0  0  0  0  0  0  0  0  0  0  0
  137.3454   67.6999  223.5807 H   0  0  0  0  0  0  0  0  0  0  0  0
  136.7045   67.4848  221.8991 H   0  0  0  0  0  0  0  0  0  0  0  0
  135.3990   68.4150  223.2430 N   0  0  0  0  0  0  0  0  0  0  0  0
  134.8690   68.9210  222.4940 H   0  0  0  0  0  0  0  0  0  0  0  0
  135.3900   69.2240  224.4770 C   0  0  0  0  0  0  0  0  0  0  0  0
  135.5182   68.5494  225.3364 H   0  0  0  0  0  0  0  0  0  0  0  0
  134.4293   69.7590  224.5058 H   0  0  0  0  0  0  0  0  0  0  0  0
  136.5060   70.2920  224.5230 C   0  0  0  0  0  0  0  0  0  0  0  0
  137.3700   69.8850  225.0687 H   0  0  0  0  0  0  0  0  0  0  0  0
  136.1130   71.1853  225.0305 H   0  0  0  0  0  0  0  0  0  0  0  0
  136.9480   70.6900  223.1140 C   0  0  0  0  0  0  0  0  0  0  0  0
  137.7519   71.4371  223.1886 H   0  0  0  0  0  0  0  0  0  0  0  0
  136.0788   71.1043  222.5821 H   0  0  0  0  0  0  0  0  0  0  0  0
  142.2480   72.5760  220.9930 C   0  0  0  0  0  0  0  0  0  0  0  0
  142.1440   74.2360  220.7480 S   0  0  0  0  0  0  0  0  0  0  0  0
  143.7770   74.4920  220.4460 C   0  0  0  0  0  0  0  0  0  0  0  0
  144.2476   75.4598  220.2182 H   0  0  0  0  0  0  0  0  0  0  0  0
  144.4290   73.2690  220.5340 C   0  0  0  0  0  0  0  0  0  0  0  0
  145.5116   73.1531  220.3776 H   0  0  0  0  0  0  0  0  0  0  0  0
  143.5820   72.1970  220.8400 C   0  0  0  0  0  0  0  0  0  0  0  0
  143.9330   71.1602  220.9488 H   0  0  0  0  0  0  0  0  0  0  0  0
  1  2  1  0
  2  3  2  0
  3  4  1  0
  3  5  1  0
  5  6  2  0
  6  7  1  0
  7  8  2  0
  8  9  1  0
  8 10  1  0
 10 11  1  0
 10 12  2  0
 12 13  1  0
 12 14  1  0
 14 15  1  0
 14 16  2  0
 16 17  1  0
 17 18  2  0
 17 19  1  0
 19 20  1  0
 20 21  1  0
 20 22  1  0
 20 23  1  0
 23 24  1  6
 23 25  1  0
 25 26  1  0
 25 27  1  0
 25 28  1  0
 28 29  1  0
 28 30  1  0
 30 31  1  0
 30 32  1  0
 30 33  1  0
 33 34  1  0
 33 35  1  0
 33 36  1  0
 36 37  1  0
 36 38  1  0
  2 39  1  0
 39 40  1  0
 40 41  1  0
 41 42  1  0
 41 43  2  0
 43 44  1  0
 43 45  1  0
 45 46  1  0
 19  5  1  0
 36 23  1  0
 45 39  2  0
 16  7  1  0
M  END
>  <UniqueID>  (32) 
397

>  <SMILES>  (32) 
O=c1c2ccccc2nc(/C=C/c2cccs2)n1C[C@@H]1CCCNC1

>  <Energy>  (32) 
90.42166068335658

>  <Genealogy>  (32) 
O=c1c2ccccc2nc(/C=C/c2cccs2)n1C[C@@H]1CCCNC1 (chirality)
O=c1c2ccccc2nc(/C=C/c2cccs2)n1C[C@@H]1CCCNC1 (cis-trans isomerization)
O=c1c2ccccc2nc(/C=C/c2cccs2)n1C[C@@H]1CCCNC1 (3D coordinates assigned)
O=c1c2ccccc2nc(/C=C/c2cccs2)n1C[C@@H]1CCCNC1 (nonaromatic ring conformer: 90.42166068335658 kcal/mol)

>  <smiles>  (32) 
O=c1c2ccccc2nc(/C=C/c2cccs2)n1CC1CCCNC1

>  <score_type>  (32) 
oracle

>  <origin>  (32) 
autodockgpu

>  <m_score__min__energy>  (32) 
-7.4100000000000001

>  <m_primary>  (32) 
energy

>  <meeko>  (32) 
{"free_energy": -7.1, "intermolecular_energy": -8.59, "internal_energy": -1.27, "cluster_size": 14, "cluster_id": 2, "rank_in_cluster": 7}

>  <energy>  (32) 
-7.1

>  <cluster_rmsd>  (32) 
1.71

>  <rmsd>  (32) 
269.9

>  <cluster>  (32) 
2

$$$$
RPPNBJKXHXGJEE-BOLDSZDNNA-N
     RDKit          3D

 46 49  0  0  0  0  0  0  0  0999 V2000
  139.8815   73.8914  222.3474 H   0  0  0  0  0  0  0  0  0  0  0  0
  140.4670   73.0630  221.9220 C   0  0  0  0  0  0  0  0  0  0  0  0
  139.9900   71.8170  222.0440 C   0  0  0  0  0  0  0  0  0  0  0  0
  139.6404   71.2890  221.1445 H   0  0  0  0  0  0  0  0  0  0  0  0
  139.9190   71.1260  223.3600 C   0  0  0  0  0  0  0  0  0  0  0  0
  140.4540   71.7670  224.4350 N   0  0  0  0  0  0  0  0  0  0  0  0
  140.4700   71.2170  225.6700 C   0  0  0  0  0  0  0  0  0  0  0  0
  141.0350   71.9190  226.7410 C   0  0  0  0  0  0  0  0  0  0  0  0
  141.4641   72.9187  226.5781 H   0  0  0  0  0  0  0  0  0  0  0  0
  141.0540   71.3500  228.0170 C   0  0  0  0  0  0  0  0  0  0  0  0
  141.4993   71.9018  228.8580 H   0  0  0  0  0  0  0  0  0  0  0  0
  140.5080   70.0810  228.2260 C   0  0  0  0  0  0  0  0  0  0  0  0
  140.5239   69.6358  229.2317 H   0  0  0  0  0  0  0  0  0  0  0  0
  139.9410   69.3750  227.1590 C   0  0  0  0  0  0  0  0  0  0  0  0
  139.5116   68.3763  227.3268 H   0  0  0  0  0  0  0  0  0  0  0  0
  139.9200   69.9430  225.8700 C   0  0  0  0  0  0  0  0  0  0  0  0
  139.3590   69.2800  224.7650 C   0  0  0  0  0  0  0  0  0  0  0  0
  138.8370   68.1410  224.9310 O   0  0  0  0  0  0  0  0  0  0  0  0
  139.3640   69.8670  223.5180 N   0  0  0  0  0  0  0  0  0  0  0  0
  138.7200   69.1410  222.3960 C   0  0  0  0  0  0  0  0  0  0  0  0
  139.1670   69.4833  221.4510 H   0  0  0  0  0  0  0  0  0  0  0  0
  138.8855   68.0651  222.5540 H   0  0  0  0  0  0  0  0  0  0  0  0
  137.1900   69.3800  222.3380 C   0  0  1  0  0  0  0  0  0  0  0  0
  136.9418   69.6499  221.3009 H   0  0  0  0  0  0  0  0  0  0  0  0
  136.4380   68.0780  222.7240 C   0  0  0  0  0  0  0  0  0  0  0  0
  137.0079   67.5554  223.5064 H   0  0  0  0  0  0  0  0  0  0  0  0
  136.3450   67.4549  221.8223 H   0  0  0  0  0  0  0  0  0  0  0  0
  135.0880   68.3610  223.2270 N   0  0  0  0  0  0  0  0  0  0  0  0
  134.5730   68.9270  222.5130 H   0  0  0  0  0  0  0  0  0  0  0  0
  135.1230   69.1030  224.5030 C   0  0  0  0  0  0  0  0  0  0  0  0
  135.2322   68.3787  225.3236 H   0  0  0  0  0  0  0  0  0  0  0  0
  134.1848   69.6733  224.5705 H   0  0  0  0  0  0  0  0  0  0  0  0
  136.2800   70.1220  224.5940 C   0  0  0  0  0  0  0  0  0  0  0  0
  137.1323   69.6527  225.1071 H   0  0  0  0  0  0  0  0  0  0  0  0
  135.9277   71.0011  225.1535 H   0  0  0  0  0  0  0  0  0  0  0  0
  136.7240   70.5780  223.2030 C   0  0  0  0  0  0  0  0  0  0  0  0
  137.5567   71.2890  223.3082 H   0  0  0  0  0  0  0  0  0  0  0  0
  135.8664   71.0528  222.7039 H   0  0  0  0  0  0  0  0  0  0  0  0
  141.7390   73.3780  221.2450 C   0  0  0  0  0  0  0  0  0  0  0  0
  142.8880   72.2230  220.8310 S   0  0  0  0  0  0  0  0  0  0  0  0
  143.9890   73.2840  220.1330 C   0  0  0  0  0  0  0  0  0  0  0  0
  144.9564   73.0096  219.6872 H   0  0  0  0  0  0  0  0  0  0  0  0
  143.4650   74.5670  220.2170 C   0  0  0  0  0  0  0  0  0  0  0  0
  143.9875   75.4555  219.8327 H   0  0  0  0  0  0  0  0  0  0  0  0
  142.2100   74.6260  220.8360 C   0  0  0  0  0  0  0  0  0  0  0  0
  141.6518   75.5621  220.9847 H   0  0  0  0  0  0  0  0  0  0  0  0
  1  2  1  0
  2  3  2  0
  3  4  1  0
  3  5  1  0
  5  6  2  0
  6  7  1  0
  7  8  2  0
  8  9  1  0
  8 10  1  0
 10 11  1  0
 10 12  2  0
 12 13  1  0
 12 14  1  0
 14 15  1  0
 14 16  2  0
 16 17  1  0
 17 18  2  0
 17 19  1  0
 19 20  1  0
 20 21  1  0
 20 22  1  0
 20 23  1  0
 23 24  1  6
 23 25  1  0
 25 26  1  0
 25 27  1  0
 25 28  1  0
 28 29  1  0
 28 30  1  0
 30 31  1  0
 30 32  1  0
 30 33  1  0
 33 34  1  0
 33 35  1  0
 33 36  1  0
 36 37  1  0
 36 38  1  0
  2 39  1  0
 39 40  1  0
 40 41  1  0
 41 42  1  0
 41 43  2  0
 43 44  1  0
 43 45  1  0
 45 46  1  0
 19  5  1  0
 36 23  1  0
 45 39  2  0
 16  7  1  0
M  END
>  <UniqueID>  (33) 
397

>  <SMILES>  (33) 
O=c1c2ccccc2nc(/C=C/c2cccs2)n1C[C@@H]1CCCNC1

>  <Energy>  (33) 
90.42166068335658

>  <Genealogy>  (33) 
O=c1c2ccccc2nc(/C=C/c2cccs2)n1C[C@@H]1CCCNC1 (chirality)
O=c1c2ccccc2nc(/C=C/c2cccs2)n1C[C@@H]1CCCNC1 (cis-trans isomerization)
O=c1c2ccccc2nc(/C=C/c2cccs2)n1C[C@@H]1CCCNC1 (3D coordinates assigned)
O=c1c2ccccc2nc(/C=C/c2cccs2)n1C[C@@H]1CCCNC1 (nonaromatic ring conformer: 90.42166068335658 kcal/mol)

>  <smiles>  (33) 
O=c1c2ccccc2nc(/C=C/c2cccs2)n1CC1CCCNC1

>  <score_type>  (33) 
oracle

>  <origin>  (33) 
autodockgpu

>  <m_score__min__energy>  (33) 
-7.4100000000000001

>  <m_primary>  (33) 
energy

>  <meeko>  (33) 
{"free_energy": -7.08, "intermolecular_energy": -8.57, "internal_energy": -1.26, "cluster_size": 14, "cluster_id": 2, "rank_in_cluster": 11}

>  <energy>  (33) 
-7.1

>  <cluster_rmsd>  (33) 
1.6

>  <rmsd>  (33) 
269.92

>  <cluster>  (33) 
2

$$$$
RPPNBJKXHXGJEE-BOLDSZDNNA-N
     RDKit          3D

 46 49  0  0  0  0  0  0  0  0999 V2000
  138.1970   72.7453  221.7425 H   0  0  0  0  0  0  0  0  0  0  0  0
  139.2520   72.9650  221.9630 C   0  0  0  0  0  0  0  0  0  0  0  0
  140.0710   71.9420  222.2420 C   0  0  0  0  0  0  0  0  0  0  0  0
  140.8334   71.6522  221.5039 H   0  0  0  0  0  0  0  0  0  0  0  0
  139.9800   71.1860  223.5210 C   0  0  0  0  0  0  0  0  0  0  0  0
  140.4910   71.7770  224.6360 N   0  0  0  0  0  0  0  0  0  0  0  0
  140.4880   71.1670  225.8420 C   0  0  0  0  0  0  0  0  0  0  0  0
  141.0280   71.8190  226.9570 C   0  0  0  0  0  0  0  0  0  0  0  0
  141.4531   72.8280  226.8516 H   0  0  0  0  0  0  0  0  0  0  0  0
  141.0270   71.1880  228.2040 C   0  0  0  0  0  0  0  0  0  0  0  0
  141.4515   71.7007  229.0798 H   0  0  0  0  0  0  0  0  0  0  0  0
  140.4870   69.9060  228.3390 C   0  0  0  0  0  0  0  0  0  0  0  0
  140.4884   69.4109  229.3213 H   0  0  0  0  0  0  0  0  0  0  0  0
  139.9450   69.2510  227.2290 C   0  0  0  0  0  0  0  0  0  0  0  0
  139.5189   68.2430  227.3399 H   0  0  0  0  0  0  0  0  0  0  0  0
  139.9440   69.8810  225.9680 C   0  0  0  0  0  0  0  0  0  0  0  0
  139.4080   69.2700  224.8220 C   0  0  0  0  0  0  0  0  0  0  0  0
  138.8920   68.1210  224.9220 O   0  0  0  0  0  0  0  0  0  0  0  0
  139.4330   69.9180  223.6060 N   0  0  0  0  0  0  0  0  0  0  0  0
  138.8150   69.2440  222.4370 C   0  0  0  0  0  0  0  0  0  0  0  0
  139.2688   69.6437  221.5181 H   0  0  0  0  0  0  0  0  0  0  0  0
  138.9954   68.1637  222.5387 H   0  0  0  0  0  0  0  0  0  0  0  0
  137.2820   69.4630  222.3710 C   0  0  1  0  0  0  0  0  0  0  0  0
  137.0315   69.6978  221.3260 H   0  0  0  0  0  0  0  0  0  0  0  0
  136.5450   68.1650  222.7960 C   0  0  0  0  0  0  0  0  0  0  0  0
  137.1206   67.6730  223.5938 H   0  0  0  0  0  0  0  0  0  0  0  0
  136.4595   67.5141  221.9134 H   0  0  0  0  0  0  0  0  0  0  0  0
  135.1920   68.4470  223.2900 N   0  0  0  0  0  0  0  0  0  0  0  0
  134.6700   68.9840  222.5580 H   0  0  0  0  0  0  0  0  0  0  0  0
  135.2160   69.2290  224.5420 C   0  0  0  0  0  0  0  0  0  0  0  0
  135.3324   68.5322  225.3852 H   0  0  0  0  0  0  0  0  0  0  0  0
  134.2710   69.7898  224.5905 H   0  0  0  0  0  0  0  0  0  0  0  0
  136.3610   70.2640  224.6020 C   0  0  0  0  0  0  0  0  0  0  0  0
  137.2183   69.8209  225.1299 H   0  0  0  0  0  0  0  0  0  0  0  0
  135.9977   71.1558  225.1338 H   0  0  0  0  0  0  0  0  0  0  0  0
  136.8010   70.6820  223.1980 C   0  0  0  0  0  0  0  0  0  0  0  0
  137.6252   71.4057  223.2816 H   0  0  0  0  0  0  0  0  0  0  0  0
  135.9385   71.1312  222.6838 H   0  0  0  0  0  0  0  0  0  0  0  0
  139.6960   74.3720  221.9370 C   0  0  0  0  0  0  0  0  0  0  0  0
  138.7090   75.6700  222.3460 S   0  0  0  0  0  0  0  0  0  0  0  0
  139.8540   76.8740  222.0910 C   0  0  0  0  0  0  0  0  0  0  0  0
  139.6963   77.9542  222.2263 H   0  0  0  0  0  0  0  0  0  0  0  0
  141.0330   76.2680  221.6800 C   0  0  0  0  0  0  0  0  0  0  0  0
  141.9474   76.8321  221.4442 H   0  0  0  0  0  0  0  0  0  0  0  0
  140.9520   74.8730  221.5930 C   0  0  0  0  0  0  0  0  0  0  0  0
  141.7940   74.2359  221.2845 H   0  0  0  0  0  0  0  0  0  0  0  0
  1  2  1  0
  2  3  2  0
  3  4  1  0
  3  5  1  0
  5  6  2  0
  6  7  1  0
  7  8  2  0
  8  9  1  0
  8 10  1  0
 10 11  1  0
 10 12  2  0
 12 13  1  0
 12 14  1  0
 14 15  1  0
 14 16  2  0
 16 17  1  0
 17 18  2  0
 17 19  1  0
 19 20  1  0
 20 21  1  0
 20 22  1  0
 20 23  1  0
 23 24  1  6
 23 25  1  0
 25 26  1  0
 25 27  1  0
 25 28  1  0
 28 29  1  0
 28 30  1  0
 30 31  1  0
 30 32  1  0
 30 33  1  0
 33 34  1  0
 33 35  1  0
 33 36  1  0
 36 37  1  0
 36 38  1  0
  2 39  1  0
 39 40  1  0
 40 41  1  0
 41 42  1  0
 41 43  2  0
 43 44  1  0
 43 45  1  0
 45 46  1  0
 19  5  1  0
 36 23  1  0
 45 39  2  0
 16  7  1  0
M  END
>  <UniqueID>  (34) 
397

>  <SMILES>  (34) 
O=c1c2ccccc2nc(/C=C/c2cccs2)n1C[C@@H]1CCCNC1

>  <Energy>  (34) 
90.42166068335658

>  <Genealogy>  (34) 
O=c1c2ccccc2nc(/C=C/c2cccs2)n1C[C@@H]1CCCNC1 (chirality)
O=c1c2ccccc2nc(/C=C/c2cccs2)n1C[C@@H]1CCCNC1 (cis-trans isomerization)
O=c1c2ccccc2nc(/C=C/c2cccs2)n1C[C@@H]1CCCNC1 (3D coordinates assigned)
O=c1c2ccccc2nc(/C=C/c2cccs2)n1C[C@@H]1CCCNC1 (nonaromatic ring conformer: 90.42166068335658 kcal/mol)

>  <smiles>  (34) 
O=c1c2ccccc2nc(/C=C/c2cccs2)n1CC1CCCNC1

>  <score_type>  (34) 
oracle

>  <origin>  (34) 
autodockgpu

>  <m_score__min__energy>  (34) 
-7.4100000000000001

>  <m_primary>  (34) 
energy

>  <meeko>  (34) 
{"free_energy": -7.09, "intermolecular_energy": -8.58, "internal_energy": -1.37, "cluster_size": 14, "cluster_id": 2, "rank_in_cluster": 9}

>  <energy>  (34) 
-7.09

>  <cluster_rmsd>  (34) 
1.58

>  <rmsd>  (34) 
269.93

>  <cluster>  (34) 
2

$$$$
RPPNBJKXHXGJEE-BOLDSZDNNA-N
     RDKit          3D

 46 49  0  0  0  0  0  0  0  0999 V2000
  138.0775   72.7868  221.7996 H   0  0  0  0  0  0  0  0  0  0  0  0
  139.1490   72.9590  221.9790 C   0  0  0  0  0  0  0  0  0  0  0  0
  139.9320   71.8990  222.2220 C   0  0  0  0  0  0  0  0  0  0  0  0
  140.6271   71.5585  221.4404 H   0  0  0  0  0  0  0  0  0  0  0  0
  139.8890   71.1690  223.5180 C   0  0  0  0  0  0  0  0  0  0  0  0
  140.4300   71.7860  224.6040 N   0  0  0  0  0  0  0  0  0  0  0  0
  140.4720   71.2010  225.8220 C   0  0  0  0  0  0  0  0  0  0  0  0
  141.0420   71.8800  226.9050 C   0  0  0  0  0  0  0  0  0  0  0  0
  141.4545   72.8902  226.7656 H   0  0  0  0  0  0  0  0  0  0  0  0
  141.0870   71.2740  228.1640 C   0  0  0  0  0  0  0  0  0  0  0  0
  141.5352   71.8076  229.0151 H   0  0  0  0  0  0  0  0  0  0  0  0
  140.5630   69.9910  228.3420 C   0  0  0  0  0  0  0  0  0  0  0  0
  140.6004   69.5160  229.3334 H   0  0  0  0  0  0  0  0  0  0  0  0
  139.9910   69.3090  227.2630 C   0  0  0  0  0  0  0  0  0  0  0  0
  139.5774   68.3000  227.4077 H   0  0  0  0  0  0  0  0  0  0  0  0
  139.9440   69.9130  225.9910 C   0  0  0  0  0  0  0  0  0  0  0  0
  139.3770   69.2750  224.8760 C   0  0  0  0  0  0  0  0  0  0  0  0
  138.8750   68.1240  225.0150 O   0  0  0  0  0  0  0  0  0  0  0  0
  139.3560   69.8980  223.6460 N   0  0  0  0  0  0  0  0  0  0  0  0
  138.7070   69.1950  222.5120 C   0  0  0  0  0  0  0  0  0  0  0  0
  139.1541   69.5522  221.5725 H   0  0  0  0  0  0  0  0  0  0  0  0
  138.8679   68.1156  222.6502 H   0  0  0  0  0  0  0  0  0  0  0  0
  137.1780   69.4420  222.4610 C   0  0  1  0  0  0  0  0  0  0  0  0
  136.9381   69.7897  221.4453 H   0  0  0  0  0  0  0  0  0  0  0  0
  136.4200   68.1170  222.7420 C   0  0  0  0  0  0  0  0  0  0  0  0
  136.9830   67.5348  223.4864 H   0  0  0  0  0  0  0  0  0  0  0  0
  136.3317   67.5640  221.7952 H   0  0  0  0  0  0  0  0  0  0  0  0
  135.0670   68.3660  223.2560 N   0  0  0  0  0  0  0  0  0  0  0  0
  134.5580   68.9850  222.5820 H   0  0  0  0  0  0  0  0  0  0  0  0
  135.0940   69.0100  224.5840 C   0  0  0  0  0  0  0  0  0  0  0  0
  135.1954   68.2258  225.3487 H   0  0  0  0  0  0  0  0  0  0  0  0
  134.1565   69.5762  224.6869 H   0  0  0  0  0  0  0  0  0  0  0  0
  136.2520   70.0160  224.7600 C   0  0  0  0  0  0  0  0  0  0  0  0
  137.0993   69.5073  225.2430 H   0  0  0  0  0  0  0  0  0  0  0  0
  135.8971   70.8516  225.3812 H   0  0  0  0  0  0  0  0  0  0  0  0
  136.7080   70.5740  223.4100 C   0  0  0  0  0  0  0  0  0  0  0  0
  137.5416   71.2726  223.5744 H   0  0  0  0  0  0  0  0  0  0  0  0
  135.8556   71.0876  222.9414 H   0  0  0  0  0  0  0  0  0  0  0  0
  139.6520   74.3450  221.9400 C   0  0  0  0  0  0  0  0  0  0  0  0
  138.7250   75.6870  222.3440 S   0  0  0  0  0  0  0  0  0  0  0  0
  139.9190   76.8380  222.0740 C   0  0  0  0  0  0  0  0  0  0  0  0
  139.8086   77.9249  222.2022 H   0  0  0  0  0  0  0  0  0  0  0  0
  141.0690   76.1790  221.6610 C   0  0  0  0  0  0  0  0  0  0  0  0
  142.0055   76.7014  221.4160 H   0  0  0  0  0  0  0  0  0  0  0  0
  140.9270   74.7880  221.5850 C   0  0  0  0  0  0  0  0  0  0  0  0
  141.7386   74.1125  221.2766 H   0  0  0  0  0  0  0  0  0  0  0  0
  1  2  1  0
  2  3  2  0
  3  4  1  0
  3  5  1  0
  5  6  2  0
  6  7  1  0
  7  8  2  0
  8  9  1  0
  8 10  1  0
 10 11  1  0
 10 12  2  0
 12 13  1  0
 12 14  1  0
 14 15  1  0
 14 16  2  0
 16 17  1  0
 17 18  2  0
 17 19  1  0
 19 20  1  0
 20 21  1  0
 20 22  1  0
 20 23  1  0
 23 24  1  6
 23 25  1  0
 25 26  1  0
 25 27  1  0
 25 28  1  0
 28 29  1  0
 28 30  1  0
 30 31  1  0
 30 32  1  0
 30 33  1  0
 33 34  1  0
 33 35  1  0
 33 36  1  0
 36 37  1  0
 36 38  1  0
  2 39  1  0
 39 40  1  0
 40 41  1  0
 41 42  1  0
 41 43  2  0
 43 44  1  0
 43 45  1  0
 45 46  1  0
 19  5  1  0
 36 23  1  0
 45 39  2  0
 16  7  1  0
M  END
>  <UniqueID>  (35) 
397

>  <SMILES>  (35) 
O=c1c2ccccc2nc(/C=C/c2cccs2)n1C[C@@H]1CCCNC1

>  <Energy>  (35) 
90.42166068335658

>  <Genealogy>  (35) 
O=c1c2ccccc2nc(/C=C/c2cccs2)n1C[C@@H]1CCCNC1 (chirality)
O=c1c2ccccc2nc(/C=C/c2cccs2)n1C[C@@H]1CCCNC1 (cis-trans isomerization)
O=c1c2ccccc2nc(/C=C/c2cccs2)n1C[C@@H]1CCCNC1 (3D coordinates assigned)
O=c1c2ccccc2nc(/C=C/c2cccs2)n1C[C@@H]1CCCNC1 (nonaromatic ring conformer: 90.42166068335658 kcal/mol)

>  <smiles>  (35) 
O=c1c2ccccc2nc(/C=C/c2cccs2)n1CC1CCCNC1

>  <score_type>  (35) 
oracle

>  <origin>  (35) 
autodockgpu

>  <m_score__min__energy>  (35) 
-7.4100000000000001

>  <m_primary>  (35) 
energy

>  <meeko>  (35) 
{"free_energy": -7.16, "intermolecular_energy": -8.65, "internal_energy": -1.33, "cluster_size": 14, "cluster_id": 2, "rank_in_cluster": 1}

>  <energy>  (35) 
-7.09

>  <cluster_rmsd>  (35) 
0.13

>  <rmsd>  (35) 
269.87

>  <cluster>  (35) 
2

$$$$
RPPNBJKXHXGJEE-BOLDSZDNNA-N
     RDKit          3D

 46 49  0  0  0  0  0  0  0  0999 V2000
  138.5604   72.2038  222.7971 H   0  0  0  0  0  0  0  0  0  0  0  0
  139.5880   71.8300  222.9170 C   0  0  0  0  0  0  0  0  0  0  0  0
  140.4190   71.9060  221.8700 C   0  0  0  0  0  0  0  0  0  0  0  0
  140.7337   70.9780  221.3701 H   0  0  0  0  0  0  0  0  0  0  0  0
  140.9300   73.2090  221.3620 C   0  0  0  0  0  0  0  0  0  0  0  0
  140.5590   74.3330  222.0350 N   0  0  0  0  0  0  0  0  0  0  0  0
  140.9400   75.5690  221.6420 C   0  0  0  0  0  0  0  0  0  0  0  0
  140.5290   76.6920  222.3690 C   0  0  0  0  0  0  0  0  0  0  0  0
  139.8967   76.5688  223.2607 H   0  0  0  0  0  0  0  0  0  0  0  0
  140.9220   77.9700  221.9620 C   0  0  0  0  0  0  0  0  0  0  0  0
  140.5981   78.8524  222.5333 H   0  0  0  0  0  0  0  0  0  0  0  0
  141.7260   78.1280  220.8300 C   0  0  0  0  0  0  0  0  0  0  0  0
  142.0341   79.1350  220.5122 H   0  0  0  0  0  0  0  0  0  0  0  0
  142.1400   77.0090  220.1000 C   0  0  0  0  0  0  0  0  0  0  0  0
  142.7727   77.1371  219.2093 H   0  0  0  0  0  0  0  0  0  0  0  0
  141.7470   75.7170  220.5050 C   0  0  0  0  0  0  0  0  0  0  0  0
  142.1390   74.5600  219.8120 C   0  0  0  0  0  0  0  0  0  0  0  0
  142.8850   74.6730  218.7980 O   0  0  0  0  0  0  0  0  0  0  0  0
  141.7270   73.3150  220.2360 N   0  0  0  0  0  0  0  0  0  0  0  0
  142.2060   72.1240  219.4910 C   0  0  0  0  0  0  0  0  0  0  0  0
  141.5041   71.2945  219.6621 H   0  0  0  0  0  0  0  0  0  0  0  0
  142.2593   72.3937  218.4259 H   0  0  0  0  0  0  0  0  0  0  0  0
  143.6220   71.6780  219.9370 C   0  0  1  0  0  0  0  0  0  0  0  0
  143.5592   70.6132  220.2058 H   0  0  0  0  0  0  0  0  0  0  0  0
  144.6230   71.8530  218.7640 C   0  0  0  0  0  0  0  0  0  0  0  0
  144.3496   72.7524  218.1928 H   0  0  0  0  0  0  0  0  0  0  0  0
  144.5715   70.9546  218.1314 H   0  0  0  0  0  0  0  0  0  0  0  0
  146.0020   71.9960  219.2460 N   0  0  0  0  0  0  0  0  0  0  0  0
  146.2350   71.1770  219.8550 H   0  0  0  0  0  0  0  0  0  0  0  0
  146.1880   73.2420  220.0160 C   0  0  0  0  0  0  0  0  0  0  0  0
  146.3940   74.0598  219.3098 H   0  0  0  0  0  0  0  0  0  0  0  0
  147.0225   73.0698  220.7116 H   0  0  0  0  0  0  0  0  0  0  0  0
  144.9600   73.6310  220.8690 C   0  0  0  0  0  0  0  0  0  0  0  0
  144.3413   74.3437  220.3040 H   0  0  0  0  0  0  0  0  0  0  0  0
  145.3150   74.0853  221.8058 H   0  0  0  0  0  0  0  0  0  0  0  0
  144.1170   72.4010  221.2140 C   0  0  0  0  0  0  0  0  0  0  0  0
  143.2458   72.7189  221.8056 H   0  0  0  0  0  0  0  0  0  0  0  0
  144.7439   71.7015  221.7865 H   0  0  0  0  0  0  0  0  0  0  0  0
  139.9820   71.2700  224.2230 C   0  0  0  0  0  0  0  0  0  0  0  0
  139.5630   69.7270  224.7440 S   0  0  0  0  0  0  0  0  0  0  0  0
  140.3320   69.8080  226.2360 C   0  0  0  0  0  0  0  0  0  0  0  0
  140.3558   69.0115  226.9943 H   0  0  0  0  0  0  0  0  0  0  0  0
  140.9320   71.0550  226.3450 C   0  0  0  0  0  0  0  0  0  0  0  0
  141.5051   71.3702  227.2294 H   0  0  0  0  0  0  0  0  0  0  0  0
  140.7410   71.8750  225.2260 C   0  0  0  0  0  0  0  0  0  0  0  0
  141.1483   72.8937  225.1456 H   0  0  0  0  0  0  0  0  0  0  0  0
  1  2  1  0
  2  3  2  0
  3  4  1  0
  3  5  1  0
  5  6  2  0
  6  7  1  0
  7  8  2  0
  8  9  1  0
  8 10  1  0
 10 11  1  0
 10 12  2  0
 12 13  1  0
 12 14  1  0
 14 15  1  0
 14 16  2  0
 16 17  1  0
 17 18  2  0
 17 19  1  0
 19 20  1  0
 20 21  1  0
 20 22  1  0
 20 23  1  0
 23 24  1  1
 23 25  1  0
 25 26  1  0
 25 27  1  0
 25 28  1  0
 28 29  1  0
 28 30  1  0
 30 31  1  0
 30 32  1  0
 30 33  1  0
 33 34  1  0
 33 35  1  0
 33 36  1  0
 36 37  1  0
 36 38  1  0
  2 39  1  0
 39 40  1  0
 40 41  1  0
 41 42  1  0
 41 43  2  0
 43 44  1  0
 43 45  1  0
 45 46  1  0
 19  5  1  0
 36 23  1  0
 45 39  2  0
 16  7  1  0
M  END
>  <UniqueID>  (36) 
397

>  <SMILES>  (36) 
O=c1c2ccccc2nc(/C=C/c2cccs2)n1C[C@@H]1CCCNC1

>  <Energy>  (36) 
90.42166068335658

>  <Genealogy>  (36) 
O=c1c2ccccc2nc(/C=C/c2cccs2)n1C[C@@H]1CCCNC1 (chirality)
O=c1c2ccccc2nc(/C=C/c2cccs2)n1C[C@@H]1CCCNC1 (cis-trans isomerization)
O=c1c2ccccc2nc(/C=C/c2cccs2)n1C[C@@H]1CCCNC1 (3D coordinates assigned)
O=c1c2ccccc2nc(/C=C/c2cccs2)n1C[C@@H]1CCCNC1 (nonaromatic ring conformer: 90.42166068335658 kcal/mol)

>  <smiles>  (36) 
O=c1c2ccccc2nc(/C=C/c2cccs2)n1CC1CCCNC1

>  <score_type>  (36) 
oracle

>  <origin>  (36) 
autodockgpu

>  <m_score__min__energy>  (36) 
-7.4100000000000001

>  <m_primary>  (36) 
energy

>  <meeko>  (36) 
{"free_energy": -7.2, "intermolecular_energy": -8.69, "internal_energy": -1.26, "cluster_size": 6, "cluster_id": 1, "rank_in_cluster": 5}

>  <energy>  (36) 
-7.09

>  <cluster_rmsd>  (36) 
1.71

>  <rmsd>  (36) 
269.92

>  <cluster>  (36) 
2

$$$$
RPPNBJKXHXGJEE-BOLDSZDNNA-N
     RDKit          3D

 46 49  0  0  0  0  0  0  0  0999 V2000
  138.5296   71.9484  222.8304 H   0  0  0  0  0  0  0  0  0  0  0  0
  139.5920   71.7320  223.0160 C   0  0  0  0  0  0  0  0  0  0  0  0
  140.4650   71.9220  222.0170 C   0  0  0  0  0  0  0  0  0  0  0  0
  140.8965   71.0454  221.5116 H   0  0  0  0  0  0  0  0  0  0  0  0
  140.8680   73.2830  221.5710 C   0  0  0  0  0  0  0  0  0  0  0  0
  140.3870   74.3420  222.2780 N   0  0  0  0  0  0  0  0  0  0  0  0
  140.6650   75.6220  221.9410 C   0  0  0  0  0  0  0  0  0  0  0  0
  140.1420   76.6750  222.7010 C   0  0  0  0  0  0  0  0  0  0  0  0
  139.5064   76.4616  223.5731 H   0  0  0  0  0  0  0  0  0  0  0  0
  140.4280   77.9980  222.3510 C   0  0  0  0  0  0  0  0  0  0  0  0
  140.0156   78.8255  222.9470 H   0  0  0  0  0  0  0  0  0  0  0  0
  141.2370   78.2700  221.2450 C   0  0  0  0  0  0  0  0  0  0  0  0
  141.4616   79.3119  220.9729 H   0  0  0  0  0  0  0  0  0  0  0  0
  141.7620   77.2220  220.4830 C   0  0  0  0  0  0  0  0  0  0  0  0
  142.3984   77.4408  219.6129 H   0  0  0  0  0  0  0  0  0  0  0  0
  141.4770   75.8860  220.8280 C   0  0  0  0  0  0  0  0  0  0  0  0
  141.9830   74.7960  220.1010 C   0  0  0  0  0  0  0  0  0  0  0  0
  142.7350   75.0140  219.1090 O   0  0  0  0  0  0  0  0  0  0  0  0
  141.6740   73.5030  220.4680 N   0  0  0  0  0  0  0  0  0  0  0  0
  142.2700   72.3900  219.6900 C   0  0  0  0  0  0  0  0  0  0  0  0
  141.6079   71.5145  219.7621 H   0  0  0  0  0  0  0  0  0  0  0  0
  142.3785   72.7290  218.6492 H   0  0  0  0  0  0  0  0  0  0  0  0
  143.6770   71.9940  220.2070 C   0  0  1  0  0  0  0  0  0  0  0  0
  143.5671   71.0512  220.7629 H   0  0  0  0  0  0  0  0  0  0  0  0
  144.6360   71.7720  219.0070 C   0  0  0  0  0  0  0  0  0  0  0  0
  144.3891   72.4936  218.2143 H   0  0  0  0  0  0  0  0  0  0  0  0
  144.5087   70.7390  218.6510 H   0  0  0  0  0  0  0  0  0  0  0  0
  146.0400   71.9540  219.3970 N   0  0  0  0  0  0  0  0  0  0  0  0
  146.2520   71.3210  220.2030 H   0  0  0  0  0  0  0  0  0  0  0  0
  146.3260   73.3490  219.7850 C   0  0  0  0  0  0  0  0  0  0  0  0
  146.5470   73.9250  218.8743 H   0  0  0  0  0  0  0  0  0  0  0  0
  147.1782   73.3225  220.4800 H   0  0  0  0  0  0  0  0  0  0  0  0
  145.1580   74.0360  220.5260 C   0  0  0  0  0  0  0  0  0  0  0  0
  144.5561   74.6027  219.8003 H   0  0  0  0  0  0  0  0  0  0  0  0
  145.5764   74.7075  221.2902 H   0  0  0  0  0  0  0  0  0  0  0  0
  144.2640   73.0070  221.2210 C   0  0  0  0  0  0  0  0  0  0  0  0
  143.4374   73.5314  221.7227 H   0  0  0  0  0  0  0  0  0  0  0  0
  144.8741   72.4538  221.9502 H   0  0  0  0  0  0  0  0  0  0  0  0
  139.9860   71.2470  224.3520 C   0  0  0  0  0  0  0  0  0  0  0  0
  139.4570   69.7940  225.0130 S   0  0  0  0  0  0  0  0  0  0  0  0
  140.2850   69.9280  226.4690 C   0  0  0  0  0  0  0  0  0  0  0  0
  140.2696   69.1964  227.2903 H   0  0  0  0  0  0  0  0  0  0  0  0
  140.9920   71.1230  226.4550 C   0  0  0  0  0  0  0  0  0  0  0  0
  141.6215   71.4582  227.2925 H   0  0  0  0  0  0  0  0  0  0  0  0
  140.8300   71.8620  225.2770 C   0  0  0  0  0  0  0  0  0  0  0  0
  141.3194   72.8309  225.0986 H   0  0  0  0  0  0  0  0  0  0  0  0
  1  2  1  0
  2  3  2  0
  3  4  1  0
  3  5  1  0
  5  6  2  0
  6  7  1  0
  7  8  2  0
  8  9  1  0
  8 10  1  0
 10 11  1  0
 10 12  2  0
 12 13  1  0
 12 14  1  0
 14 15  1  0
 14 16  2  0
 16 17  1  0
 17 18  2  0
 17 19  1  0
 19 20  1  0
 20 21  1  0
 20 22  1  0
 20 23  1  0
 23 24  1  1
 23 25  1  0
 25 26  1  0
 25 27  1  0
 25 28  1  0
 28 29  1  0
 28 30  1  0
 30 31  1  0
 30 32  1  0
 30 33  1  0
 33 34  1  0
 33 35  1  0
 33 36  1  0
 36 37  1  0
 36 38  1  0
  2 39  1  0
 39 40  1  0
 40 41  1  0
 41 42  1  0
 41 43  2  0
 43 44  1  0
 43 45  1  0
 45 46  1  0
 19  5  1  0
 36 23  1  0
 45 39  2  0
 16  7  1  0
M  END
>  <UniqueID>  (37) 
397

>  <SMILES>  (37) 
O=c1c2ccccc2nc(/C=C/c2cccs2)n1C[C@@H]1CCCNC1

>  <Energy>  (37) 
90.42166068335658

>  <Genealogy>  (37) 
O=c1c2ccccc2nc(/C=C/c2cccs2)n1C[C@@H]1CCCNC1 (chirality)
O=c1c2ccccc2nc(/C=C/c2cccs2)n1C[C@@H]1CCCNC1 (cis-trans isomerization)
O=c1c2ccccc2nc(/C=C/c2cccs2)n1C[C@@H]1CCCNC1 (3D coordinates assigned)
O=c1c2ccccc2nc(/C=C/c2cccs2)n1C[C@@H]1CCCNC1 (nonaromatic ring conformer: 90.42166068335658 kcal/mol)

>  <smiles>  (37) 
O=c1c2ccccc2nc(/C=C/c2cccs2)n1CC1CCCNC1

>  <score_type>  (37) 
oracle

>  <origin>  (37) 
autodockgpu

>  <m_score__min__energy>  (37) 
-7.4100000000000001

>  <m_primary>  (37) 
energy

>  <meeko>  (37) 
{"free_energy": -7.37, "intermolecular_energy": -8.87, "internal_energy": -1.16, "cluster_size": 6, "cluster_id": 1, "rank_in_cluster": 2}

>  <energy>  (37) 
-7.08

>  <cluster_rmsd>  (37) 
1.53

>  <rmsd>  (37) 
269.78

>  <cluster>  (37) 
2

$$$$
RPPNBJKXHXGJEE-BOLDSZDNNA-N
     RDKit          3D

 46 49  0  0  0  0  0  0  0  0999 V2000
  138.7487   72.4282  223.0849 H   0  0  0  0  0  0  0  0  0  0  0  0
  139.7040   71.8830  223.0970 C   0  0  0  0  0  0  0  0  0  0  0  0
  140.4740   71.9230  222.0010 C   0  0  0  0  0  0  0  0  0  0  0  0
  140.7432   70.9797  221.5033 H   0  0  0  0  0  0  0  0  0  0  0  0
  140.9760   73.2060  221.4370 C   0  0  0  0  0  0  0  0  0  0  0  0
  140.6390   74.3520  222.0890 N   0  0  0  0  0  0  0  0  0  0  0  0
  141.0150   75.5720  221.6460 C   0  0  0  0  0  0  0  0  0  0  0  0
  140.6390   76.7200  222.3540 C   0  0  0  0  0  0  0  0  0  0  0  0
  140.0385   76.6288  223.2711 H   0  0  0  0  0  0  0  0  0  0  0  0
  141.0270   77.9820  221.8950 C   0  0  0  0  0  0  0  0  0  0  0  0
  140.7299   78.8837  222.4506 H   0  0  0  0  0  0  0  0  0  0  0  0
  141.7920   78.1000  220.7310 C   0  0  0  0  0  0  0  0  0  0  0  0
  142.0966   79.0943  220.3725 H   0  0  0  0  0  0  0  0  0  0  0  0
  142.1710   76.9550  220.0210 C   0  0  0  0  0  0  0  0  0  0  0  0
  142.7735   77.0507  219.1056 H   0  0  0  0  0  0  0  0  0  0  0  0
  141.7820   75.6800  220.4770 C   0  0  0  0  0  0  0  0  0  0  0  0
  142.1400   74.5000  219.8060 C   0  0  0  0  0  0  0  0  0  0  0  0
  142.8500   74.5760  218.7630 O   0  0  0  0  0  0  0  0  0  0  0  0
  141.7330   73.2710  220.2810 N   0  0  0  0  0  0  0  0  0  0  0  0
  142.1760   72.0550  219.5560 C   0  0  0  0  0  0  0  0  0  0  0  0
  141.5124   71.2208  219.8275 H   0  0  0  0  0  0  0  0  0  0  0  0
  142.1311   72.2726  218.4787 H   0  0  0  0  0  0  0  0  0  0  0  0
  143.6350   71.6610  219.8970 C   0  0  1  0  0  0  0  0  0  0  0  0
  143.6389   70.5826  220.1141 H   0  0  0  0  0  0  0  0  0  0  0  0
  144.5560   71.9430  218.6790 C   0  0  0  0  0  0  0  0  0  0  0  0
  144.2064   72.8537  218.1706 H   0  0  0  0  0  0  0  0  0  0  0  0
  144.5106   71.0744  218.0055 H   0  0  0  0  0  0  0  0  0  0  0  0
  145.9530   72.1330  219.0890 N   0  0  0  0  0  0  0  0  0  0  0  0
  146.2600   71.2980  219.6410 H   0  0  0  0  0  0  0  0  0  0  0  0
  146.1230   73.3480  219.9100 C   0  0  0  0  0  0  0  0  0  0  0  0
  146.2471   74.2084  219.2360 H   0  0  0  0  0  0  0  0  0  0  0  0
  147.0043   73.1853  220.5478 H   0  0  0  0  0  0  0  0  0  0  0  0
  144.9300   73.6320  220.8500 C   0  0  0  0  0  0  0  0  0  0  0  0
  144.2451   74.3382  220.3579 H   0  0  0  0  0  0  0  0  0  0  0  0
  145.3173   74.0585  221.7871 H   0  0  0  0  0  0  0  0  0  0  0  0
  144.1700   72.3460  221.1790 C   0  0  0  0  0  0  0  0  0  0  0  0
  143.3214   72.5899  221.8350 H   0  0  0  0  0  0  0  0  0  0  0  0
  144.8631   71.6527  221.6780 H   0  0  0  0  0  0  0  0  0  0  0  0
  140.0740   71.1440  224.3190 C   0  0  0  0  0  0  0  0  0  0  0  0
  139.4920   69.6130  224.6970 S   0  0  0  0  0  0  0  0  0  0  0  0
  140.3170   69.4440  226.1510 C   0  0  0  0  0  0  0  0  0  0  0  0
  140.2719   68.5731  226.8214 H   0  0  0  0  0  0  0  0  0  0  0  0
  141.0650   70.5940  226.3590 C   0  0  0  0  0  0  0  0  0  0  0  0
  141.7025   70.7439  227.2428 H   0  0  0  0  0  0  0  0  0  0  0  0
  140.9340   71.5460  225.3410 C   0  0  0  0  0  0  0  0  0  0  0  0
  141.4568   72.5138  225.3465 H   0  0  0  0  0  0  0  0  0  0  0  0
  1  2  1  0
  2  3  2  0
  3  4  1  0
  3  5  1  0
  5  6  2  0
  6  7  1  0
  7  8  2  0
  8  9  1  0
  8 10  1  0
 10 11  1  0
 10 12  2  0
 12 13  1  0
 12 14  1  0
 14 15  1  0
 14 16  2  0
 16 17  1  0
 17 18  2  0
 17 19  1  0
 19 20  1  0
 20 21  1  0
 20 22  1  0
 20 23  1  0
 23 24  1  1
 23 25  1  0
 25 26  1  0
 25 27  1  0
 25 28  1  0
 28 29  1  0
 28 30  1  0
 30 31  1  0
 30 32  1  0
 30 33  1  0
 33 34  1  0
 33 35  1  0
 33 36  1  0
 36 37  1  0
 36 38  1  0
  2 39  1  0
 39 40  1  0
 40 41  1  0
 41 42  1  0
 41 43  2  0
 43 44  1  0
 43 45  1  0
 45 46  1  0
 19  5  1  0
 36 23  1  0
 45 39  2  0
 16  7  1  0
M  END
>  <UniqueID>  (38) 
397

>  <SMILES>  (38) 
O=c1c2ccccc2nc(/C=C/c2cccs2)n1C[C@@H]1CCCNC1

>  <Energy>  (38) 
90.42166068335658

>  <Genealogy>  (38) 
O=c1c2ccccc2nc(/C=C/c2cccs2)n1C[C@@H]1CCCNC1 (chirality)
O=c1c2ccccc2nc(/C=C/c2cccs2)n1C[C@@H]1CCCNC1 (cis-trans isomerization)
O=c1c2ccccc2nc(/C=C/c2cccs2)n1C[C@@H]1CCCNC1 (3D coordinates assigned)
O=c1c2ccccc2nc(/C=C/c2cccs2)n1C[C@@H]1CCCNC1 (nonaromatic ring conformer: 90.42166068335658 kcal/mol)

>  <smiles>  (38) 
O=c1c2ccccc2nc(/C=C/c2cccs2)n1CC1CCCNC1

>  <score_type>  (38) 
oracle

>  <origin>  (38) 
autodockgpu

>  <m_score__min__energy>  (38) 
-7.4100000000000001

>  <m_primary>  (38) 
energy

>  <meeko>  (38) 
{"free_energy": -7.22, "intermolecular_energy": -8.71, "internal_energy": -1.23, "cluster_size": 6, "cluster_id": 1, "rank_in_cluster": 4}

>  <energy>  (38) 
-7.06

>  <cluster_rmsd>  (38) 
0.2

>  <rmsd>  (38) 
269.83

>  <cluster>  (38) 
2

$$$$
RPPNBJKXHXGJEE-BOLDSZDNNA-N
     RDKit          3D

 46 49  0  0  0  0  0  0  0  0999 V2000
  140.9164   70.7747  220.7476 H   0  0  0  0  0  0  0  0  0  0  0  0
  141.0330   71.7110  221.3130 C   0  0  0  0  0  0  0  0  0  0  0  0
  140.1360   71.9950  222.2660 C   0  0  0  0  0  0  0  0  0  0  0  0
  139.4345   72.8274  222.1076 H   0  0  0  0  0  0  0  0  0  0  0  0
  140.0600   71.2180  223.5330 C   0  0  0  0  0  0  0  0  0  0  0  0
  140.5490   71.8060  224.6590 N   0  0  0  0  0  0  0  0  0  0  0  0
  140.5580   71.1780  225.8570 C   0  0  0  0  0  0  0  0  0  0  0  0
  141.0750   71.8280  226.9830 C   0  0  0  0  0  0  0  0  0  0  0  0
  141.4728   72.8497  226.8940 H   0  0  0  0  0  0  0  0  0  0  0  0
  141.0860   71.1790  228.2210 C   0  0  0  0  0  0  0  0  0  0  0  0
  141.4937   71.6897  229.1059 H   0  0  0  0  0  0  0  0  0  0  0  0
  140.5790   69.8810  228.3350 C   0  0  0  0  0  0  0  0  0  0  0  0
  140.5882   69.3720  229.3101 H   0  0  0  0  0  0  0  0  0  0  0  0
  140.0600   69.2280  227.2120 C   0  0  0  0  0  0  0  0  0  0  0  0
  139.6616   68.2069  227.3054 H   0  0  0  0  0  0  0  0  0  0  0  0
  140.0470   69.8770  225.9610 C   0  0  0  0  0  0  0  0  0  0  0  0
  139.5330   69.2690  224.8040 C   0  0  0  0  0  0  0  0  0  0  0  0
  139.0470   68.1050  224.8840 O   0  0  0  0  0  0  0  0  0  0  0  0
  139.5450   69.9350  223.5970 N   0  0  0  0  0  0  0  0  0  0  0  0
  138.9510   69.2620  222.4160 C   0  0  0  0  0  0  0  0  0  0  0  0
  139.4045   69.6808  221.5055 H   0  0  0  0  0  0  0  0  0  0  0  0
  139.1522   68.1844  222.5076 H   0  0  0  0  0  0  0  0  0  0  0  0
  137.4150   69.4510  222.3390 C   0  0  1  0  0  0  0  0  0  0  0  0
  137.1689   69.6915  221.2942 H   0  0  0  0  0  0  0  0  0  0  0  0
  136.7000   68.1350  222.7430 C   0  0  0  0  0  0  0  0  0  0  0  0
  137.2780   67.6453  223.5406 H   0  0  0  0  0  0  0  0  0  0  0  0
  136.6350   67.4921  221.8528 H   0  0  0  0  0  0  0  0  0  0  0  0
  135.3370   68.3860  223.2280 N   0  0  0  0  0  0  0  0  0  0  0  0
  134.8110   68.9210  222.4970 H   0  0  0  0  0  0  0  0  0  0  0  0
  135.3350   69.1540  224.4890 C   0  0  0  0  0  0  0  0  0  0  0  0
  135.4583   68.4501  225.3253 H   0  0  0  0  0  0  0  0  0  0  0  0
  134.3786   69.6953  224.5361 H   0  0  0  0  0  0  0  0  0  0  0  0
  136.4590   70.2110  224.5700 C   0  0  0  0  0  0  0  0  0  0  0  0
  137.3202   69.7794  225.1011 H   0  0  0  0  0  0  0  0  0  0  0  0
  136.0736   71.0899  225.1076 H   0  0  0  0  0  0  0  0  0  0  0  0
  136.9030   70.6520  223.1740 C   0  0  0  0  0  0  0  0  0  0  0  0
  137.7121   71.3907  223.2723 H   0  0  0  0  0  0  0  0  0  0  0  0
  136.0364   71.0896  222.6567 H   0  0  0  0  0  0  0  0  0  0  0  0
  142.1700   72.5920  220.9840 C   0  0  0  0  0  0  0  0  0  0  0  0
  143.7500   72.0480  220.8010 S   0  0  0  0  0  0  0  0  0  0  0  0
  144.4320   73.5440  220.4500 C   0  0  0  0  0  0  0  0  0  0  0  0
  145.4946   73.7362  220.2402 H   0  0  0  0  0  0  0  0  0  0  0  0
  143.4210   74.4940  220.4710 C   0  0  0  0  0  0  0  0  0  0  0  0
  143.5965   75.5616  220.2724 H   0  0  0  0  0  0  0  0  0  0  0  0
  142.1570   73.9700  220.7680 C   0  0  0  0  0  0  0  0  0  0  0  0
  141.2456   74.5832  220.8252 H   0  0  0  0  0  0  0  0  0  0  0  0
  1  2  1  0
  2  3  2  0
  3  4  1  0
  3  5  1  0
  5  6  2  0
  6  7  1  0
  7  8  2  0
  8  9  1  0
  8 10  1  0
 10 11  1  0
 10 12  2  0
 12 13  1  0
 12 14  1  0
 14 15  1  0
 14 16  2  0
 16 17  1  0
 17 18  2  0
 17 19  1  0
 19 20  1  0
 20 21  1  0
 20 22  1  0
 20 23  1  0
 23 24  1  6
 23 25  1  0
 25 26  1  0
 25 27  1  0
 25 28  1  0
 28 29  1  0
 28 30  1  0
 30 31  1  0
 30 32  1  0
 30 33  1  0
 33 34  1  0
 33 35  1  0
 33 36  1  0
 36 37  1  0
 36 38  1  0
  2 39  1  0
 39 40  1  0
 40 41  1  0
 41 42  1  0
 41 43  2  0
 43 44  1  0
 43 45  1  0
 45 46  1  0
 19  5  1  0
 36 23  1  0
 45 39  2  0
 16  7  1  0
M  END
>  <UniqueID>  (39) 
397

>  <SMILES>  (39) 
O=c1c2ccccc2nc(/C=C/c2cccs2)n1C[C@@H]1CCCNC1

>  <Energy>  (39) 
90.42166068335658

>  <Genealogy>  (39) 
O=c1c2ccccc2nc(/C=C/c2cccs2)n1C[C@@H]1CCCNC1 (chirality)
O=c1c2ccccc2nc(/C=C/c2cccs2)n1C[C@@H]1CCCNC1 (cis-trans isomerization)
O=c1c2ccccc2nc(/C=C/c2cccs2)n1C[C@@H]1CCCNC1 (3D coordinates assigned)
O=c1c2ccccc2nc(/C=C/c2cccs2)n1C[C@@H]1CCCNC1 (nonaromatic ring conformer: 90.42166068335658 kcal/mol)

>  <smiles>  (39) 
O=c1c2ccccc2nc(/C=C/c2cccs2)n1CC1CCCNC1

>  <score_type>  (39) 
oracle

>  <origin>  (39) 
autodockgpu

>  <m_score__min__energy>  (39) 
-7.4100000000000001

>  <m_primary>  (39) 
energy

>  <meeko>  (39) 
{"free_energy": -7.1, "intermolecular_energy": -8.59, "internal_energy": -1.27, "cluster_size": 14, "cluster_id": 2, "rank_in_cluster": 6}

>  <energy>  (39) 
-7.05

>  <cluster_rmsd>  (39) 
0.22

>  <rmsd>  (39) 
269.9

>  <cluster>  (39) 
2

$$$$
RPPNBJKXHXGJEE-BOLDSZDNNA-N
     RDKit          3D

 46 49  0  0  0  0  0  0  0  0999 V2000
  138.1004   72.6398  221.6610 H   0  0  0  0  0  0  0  0  0  0  0  0
  139.1290   72.9120  221.9400 C   0  0  0  0  0  0  0  0  0  0  0  0
  139.9880   71.9290  222.2420 C   0  0  0  0  0  0  0  0  0  0  0  0
  140.7683   71.6602  221.5148 H   0  0  0  0  0  0  0  0  0  0  0  0
  139.9180   71.1900  223.5320 C   0  0  0  0  0  0  0  0  0  0  0  0
  140.4530   71.7920  224.6300 N   0  0  0  0  0  0  0  0  0  0  0  0
  140.4710   71.1970  225.8440 C   0  0  0  0  0  0  0  0  0  0  0  0
  141.0360   71.8610  226.9390 C   0  0  0  0  0  0  0  0  0  0  0  0
  141.4638   72.8664  226.8123 H   0  0  0  0  0  0  0  0  0  0  0  0
  141.0560   71.2450  228.1940 C   0  0  0  0  0  0  0  0  0  0  0  0
  141.5010   71.7658  229.0547 H   0  0  0  0  0  0  0  0  0  0  0  0
  140.5110   69.9680  228.3560 C   0  0  0  0  0  0  0  0  0  0  0  0
  140.5275   69.4859  229.3446 H   0  0  0  0  0  0  0  0  0  0  0  0
  139.9450   69.3020  227.2650 C   0  0  0  0  0  0  0  0  0  0  0  0
  139.5170   68.2973  227.3966 H   0  0  0  0  0  0  0  0  0  0  0  0
  139.9220   69.9160  225.9970 C   0  0  0  0  0  0  0  0  0  0  0  0
  139.3610   69.2940  224.8690 C   0  0  0  0  0  0  0  0  0  0  0  0
  138.8410   68.1490  224.9930 O   0  0  0  0  0  0  0  0  0  0  0  0
  139.3650   69.9260  223.6440 N   0  0  0  0  0  0  0  0  0  0  0  0
  138.7210   69.2410  222.4970 C   0  0  0  0  0  0  0  0  0  0  0  0
  139.1613   69.6239  221.5645 H   0  0  0  0  0  0  0  0  0  0  0  0
  138.8947   68.1608  222.6113 H   0  0  0  0  0  0  0  0  0  0  0  0
  137.1890   69.4710  222.4550 C   0  0  1  0  0  0  0  0  0  0  0  0
  136.9396   69.8216  221.4427 H   0  0  0  0  0  0  0  0  0  0  0  0
  136.4480   68.1360  222.7330 C   0  0  0  0  0  0  0  0  0  0  0  0
  137.0218   67.5568  223.4714 H   0  0  0  0  0  0  0  0  0  0  0  0
  136.3612   67.5876  221.7834 H   0  0  0  0  0  0  0  0  0  0  0  0
  135.0950   68.3650  223.2550 N   0  0  0  0  0  0  0  0  0  0  0  0
  134.5750   68.9830  222.5880 H   0  0  0  0  0  0  0  0  0  0  0  0
  135.1220   69.0020  224.5870 C   0  0  0  0  0  0  0  0  0  0  0  0
  135.2369   68.2148  225.3467 H   0  0  0  0  0  0  0  0  0  0  0  0
  134.1786   69.5565  224.6986 H   0  0  0  0  0  0  0  0  0  0  0  0
  136.2700   70.0210  224.7620 C   0  0  0  0  0  0  0  0  0  0  0  0
  137.1258   69.5197  225.2377 H   0  0  0  0  0  0  0  0  0  0  0  0
  135.9089   70.8492  225.3894 H   0  0  0  0  0  0  0  0  0  0  0  0
  136.7120   70.5910  223.4130 C   0  0  0  0  0  0  0  0  0  0  0  0
  137.5387   71.2980  223.5768 H   0  0  0  0  0  0  0  0  0  0  0  0
  135.8509   71.0972  222.9522 H   0  0  0  0  0  0  0  0  0  0  0  0
  139.4940   74.3410  221.9630 C   0  0  0  0  0  0  0  0  0  0  0  0
  141.0140   74.9230  221.5440 S   0  0  0  0  0  0  0  0  0  0  0  0
  140.6780   76.5500  221.8000 C   0  0  0  0  0  0  0  0  0  0  0  0
  141.3807   77.3845  221.6591 H   0  0  0  0  0  0  0  0  0  0  0  0
  139.3600   76.6570  222.2200 C   0  0  0  0  0  0  0  0  0  0  0  0
  138.8825   77.6187  222.4590 H   0  0  0  0  0  0  0  0  0  0  0  0
  138.6930   75.4290  222.3120 C   0  0  0  0  0  0  0  0  0  0  0  0
  137.6437   75.3320  222.6275 H   0  0  0  0  0  0  0  0  0  0  0  0
  1  2  1  0
  2  3  2  0
  3  4  1  0
  3  5  1  0
  5  6  2  0
  6  7  1  0
  7  8  2  0
  8  9  1  0
  8 10  1  0
 10 11  1  0
 10 12  2  0
 12 13  1  0
 12 14  1  0
 14 15  1  0
 14 16  2  0
 16 17  1  0
 17 18  2  0
 17 19  1  0
 19 20  1  0
 20 21  1  0
 20 22  1  0
 20 23  1  0
 23 24  1  6
 23 25  1  0
 25 26  1  0
 25 27  1  0
 25 28  1  0
 28 29  1  0
 28 30  1  0
 30 31  1  0
 30 32  1  0
 30 33  1  0
 33 34  1  0
 33 35  1  0
 33 36  1  0
 36 37  1  0
 36 38  1  0
  2 39  1  0
 39 40  1  0
 40 41  1  0
 41 42  1  0
 41 43  2  0
 43 44  1  0
 43 45  1  0
 45 46  1  0
 19  5  1  0
 36 23  1  0
 45 39  2  0
 16  7  1  0
M  END
>  <UniqueID>  (40) 
397

>  <SMILES>  (40) 
O=c1c2ccccc2nc(/C=C/c2cccs2)n1C[C@@H]1CCCNC1

>  <Energy>  (40) 
90.42166068335658

>  <Genealogy>  (40) 
O=c1c2ccccc2nc(/C=C/c2cccs2)n1C[C@@H]1CCCNC1 (chirality)
O=c1c2ccccc2nc(/C=C/c2cccs2)n1C[C@@H]1CCCNC1 (cis-trans isomerization)
O=c1c2ccccc2nc(/C=C/c2cccs2)n1C[C@@H]1CCCNC1 (3D coordinates assigned)
O=c1c2ccccc2nc(/C=C/c2cccs2)n1C[C@@H]1CCCNC1 (nonaromatic ring conformer: 90.42166068335658 kcal/mol)

>  <smiles>  (40) 
O=c1c2ccccc2nc(/C=C/c2cccs2)n1CC1CCCNC1

>  <score_type>  (40) 
oracle

>  <origin>  (40) 
autodockgpu

>  <m_score__min__energy>  (40) 
-7.4100000000000001

>  <m_primary>  (40) 
energy

>  <meeko>  (40) 
{"free_energy": -7.12, "intermolecular_energy": -8.61, "internal_energy": -1.34, "cluster_size": 14, "cluster_id": 2, "rank_in_cluster": 4}

>  <energy>  (40) 
-6.79

>  <cluster_rmsd>  (40) 
0.73

>  <rmsd>  (40) 
269.73

>  <cluster>  (40) 
2

$$$$
RPPNBJKXHXGJEE-BOLDSZDNNA-N
     RDKit          3D

 46 49  0  0  0  0  0  0  0  0999 V2000
  138.6664   72.2901  222.6771 H   0  0  0  0  0  0  0  0  0  0  0  0
  139.6750   71.8920  222.8620 C   0  0  0  0  0  0  0  0  0  0  0  0
  140.5890   71.9950  221.8880 C   0  0  0  0  0  0  0  0  0  0  0  0
  141.0084   71.0770  221.4505 H   0  0  0  0  0  0  0  0  0  0  0  0
  141.0540   73.3150  221.3800 C   0  0  0  0  0  0  0  0  0  0  0  0
  140.6660   74.4230  222.0670 N   0  0  0  0  0  0  0  0  0  0  0  0
  141.0060   75.6720  221.6760 C   0  0  0  0  0  0  0  0  0  0  0  0
  140.5780   76.7790  222.4190 C   0  0  0  0  0  0  0  0  0  0  0  0
  139.9663   76.6325  223.3214 H   0  0  0  0  0  0  0  0  0  0  0  0
  140.9280   78.0700  222.0140 C   0  0  0  0  0  0  0  0  0  0  0  0
  140.5910   78.9395  222.5975 H   0  0  0  0  0  0  0  0  0  0  0  0
  141.7060   78.2570  220.8680 C   0  0  0  0  0  0  0  0  0  0  0  0
  141.9801   79.2740  220.5510 H   0  0  0  0  0  0  0  0  0  0  0  0
  142.1370   77.1540  220.1230 C   0  0  0  0  0  0  0  0  0  0  0  0
  142.7499   77.3052  219.2222 H   0  0  0  0  0  0  0  0  0  0  0  0
  141.7870   75.8500  220.5250 C   0  0  0  0  0  0  0  0  0  0  0  0
  142.1970   74.7090  219.8170 C   0  0  0  0  0  0  0  0  0  0  0  0
  142.9200   74.8490  218.7900 O   0  0  0  0  0  0  0  0  0  0  0  0
  141.8270   73.4500  220.2390 N   0  0  0  0  0  0  0  0  0  0  0  0
  142.3240   72.2780  219.4780 C   0  0  0  0  0  0  0  0  0  0  0  0
  141.6159   71.4464  219.6085 H   0  0  0  0  0  0  0  0  0  0  0  0
  142.4076   72.5756  218.4223 H   0  0  0  0  0  0  0  0  0  0  0  0
  143.7260   71.8160  219.9500 C   0  0  1  0  0  0  0  0  0  0  0  0
  143.6397   70.7593  220.2432 H   0  0  0  0  0  0  0  0  0  0  0  0
  144.7430   71.9430  218.7850 C   0  0  0  0  0  0  0  0  0  0  0  0
  144.4931   72.8330  218.1888 H   0  0  0  0  0  0  0  0  0  0  0  0
  144.6815   71.0302  218.1743 H   0  0  0  0  0  0  0  0  0  0  0  0
  146.1190   72.0720  219.2790 N   0  0  0  0  0  0  0  0  0  0  0  0
  146.3290   71.2630  219.9110 H   0  0  0  0  0  0  0  0  0  0  0  0
  146.3200   73.3330  220.0200 C   0  0  0  0  0  0  0  0  0  0  0  0
  146.5488   74.1291  219.2963 H   0  0  0  0  0  0  0  0  0  0  0  0
  147.1438   73.1632  220.7289 H   0  0  0  0  0  0  0  0  0  0  0  0
  145.0900   73.7650  220.8490 C   0  0  0  0  0  0  0  0  0  0  0  0
  144.4907   74.4744  220.2594 H   0  0  0  0  0  0  0  0  0  0  0  0
  145.4434   74.2357  221.7783 H   0  0  0  0  0  0  0  0  0  0  0  0
  144.2210   72.5610  221.2150 C   0  0  0  0  0  0  0  0  0  0  0  0
  143.3498   72.9096  221.7889 H   0  0  0  0  0  0  0  0  0  0  0  0
  144.8281   71.8644  221.8118 H   0  0  0  0  0  0  0  0  0  0  0  0
  139.9550   71.2710  224.1700 C   0  0  0  0  0  0  0  0  0  0  0  0
  139.0010   70.0690  224.8570 S   0  0  0  0  0  0  0  0  0  0  0  0
  139.9060   69.8790  226.2600 C   0  0  0  0  0  0  0  0  0  0  0  0
  139.6891   69.1764  227.0781 H   0  0  0  0  0  0  0  0  0  0  0  0
  140.9750   70.7630  226.2070 C   0  0  0  0  0  0  0  0  0  0  0  0
  141.7267   70.8446  227.0060 H   0  0  0  0  0  0  0  0  0  0  0  0
  141.0090   71.5410  225.0440 C   0  0  0  0  0  0  0  0  0  0  0  0
  141.7882   72.2900  224.8394 H   0  0  0  0  0  0  0  0  0  0  0  0
  1  2  1  0
  2  3  2  0
  3  4  1  0
  3  5  1  0
  5  6  2  0
  6  7  1  0
  7  8  2  0
  8  9  1  0
  8 10  1  0
 10 11  1  0
 10 12  2  0
 12 13  1  0
 12 14  1  0
 14 15  1  0
 14 16  2  0
 16 17  1  0
 17 18  2  0
 17 19  1  0
 19 20  1  0
 20 21  1  0
 20 22  1  0
 20 23  1  0
 23 24  1  1
 23 25  1  0
 25 26  1  0
 25 27  1  0
 25 28  1  0
 28 29  1  0
 28 30  1  0
 30 31  1  0
 30 32  1  0
 30 33  1  0
 33 34  1  0
 33 35  1  0
 33 36  1  0
 36 37  1  0
 36 38  1  0
  2 39  1  0
 39 40  1  0
 40 41  1  0
 41 42  1  0
 41 43  2  0
 43 44  1  0
 43 45  1  0
 45 46  1  0
 19  5  1  0
 36 23  1  0
 45 39  2  0
 16  7  1  0
M  END
>  <UniqueID>  (41) 
398

>  <SMILES>  (41) 
O=c1c2ccccc2nc(/C=C/c2cccs2)n1C[C@@H]1CCCNC1

>  <Energy>  (41) 
90.51648997437069

>  <Genealogy>  (41) 
O=c1c2ccccc2nc(/C=C/c2cccs2)n1C[C@@H]1CCCNC1 (chirality)
O=c1c2ccccc2nc(/C=C/c2cccs2)n1C[C@@H]1CCCNC1 (cis-trans isomerization)
O=c1c2ccccc2nc(/C=C/c2cccs2)n1C[C@@H]1CCCNC1 (3D coordinates assigned)
O=c1c2ccccc2nc(/C=C/c2cccs2)n1C[C@@H]1CCCNC1 (nonaromatic ring conformer: 90.51648997437069 kcal/mol)

>  <smiles>  (41) 
O=c1c2ccccc2nc(/C=C/c2cccs2)n1CC1CCCNC1

>  <score_type>  (41) 
oracle

>  <origin>  (41) 
autodockgpu

>  <m_score__min__energy>  (41) 
-7.4100000000000001

>  <m_primary>  (41) 
energy

>  <meeko>  (41) 
{"free_energy": -7.24, "intermolecular_energy": -8.73, "internal_energy": -1.25, "cluster_size": 6, "cluster_id": 1, "rank_in_cluster": 3}

>  <energy>  (41) 
-7.41

>  <cluster_rmsd>  (41) 
0.0

>  <rmsd>  (41) 
270.27

>  <cluster>  (41) 
1

$$$$
RPPNBJKXHXGJEE-BOLDSZDNNA-N
     RDKit          3D

 46 49  0  0  0  0  0  0  0  0999 V2000
  138.6567   72.2623  223.0298 H   0  0  0  0  0  0  0  0  0  0  0  0
  139.6680   71.8360  223.1040 C   0  0  0  0  0  0  0  0  0  0  0  0
  140.5050   71.9980  222.0700 C   0  0  0  0  0  0  0  0  0  0  0  0
  140.9052   71.1078  221.5626 H   0  0  0  0  0  0  0  0  0  0  0  0
  140.9090   73.3470  221.5880 C   0  0  0  0  0  0  0  0  0  0  0  0
  140.4530   74.4250  222.2830 N   0  0  0  0  0  0  0  0  0  0  0  0
  140.7350   75.6940  221.9130 C   0  0  0  0  0  0  0  0  0  0  0  0
  140.2380   76.7670  222.6630 C   0  0  0  0  0  0  0  0  0  0  0  0
  139.6199   76.5770  223.5528 H   0  0  0  0  0  0  0  0  0  0  0  0
  140.5280   78.0800  222.2800 C   0  0  0  0  0  0  0  0  0  0  0  0
  140.1362   78.9229  222.8681 H   0  0  0  0  0  0  0  0  0  0  0  0
  141.3150   78.3230  221.1510 C   0  0  0  0  0  0  0  0  0  0  0  0
  141.5418   79.3571  220.8523 H   0  0  0  0  0  0  0  0  0  0  0  0
  141.8150   77.2540  220.4000 C   0  0  0  0  0  0  0  0  0  0  0  0
  142.4352   77.4486  219.5126 H   0  0  0  0  0  0  0  0  0  0  0  0
  141.5250   75.9280  220.7790 C   0  0  0  0  0  0  0  0  0  0  0  0
  142.0050   74.8190  220.0630 C   0  0  0  0  0  0  0  0  0  0  0  0
  142.7380   75.0100  219.0510 O   0  0  0  0  0  0  0  0  0  0  0  0
  141.6940   73.5370  220.4630 N   0  0  0  0  0  0  0  0  0  0  0  0
  142.2630   72.4020  219.6950 C   0  0  0  0  0  0  0  0  0  0  0  0
  141.5908   71.5368  219.7930 H   0  0  0  0  0  0  0  0  0  0  0  0
  142.3591   72.7208  218.6466 H   0  0  0  0  0  0  0  0  0  0  0  0
  143.6720   71.9970  220.1970 C   0  0  1  0  0  0  0  0  0  0  0  0
  143.5625   71.0499  220.7457 H   0  0  0  0  0  0  0  0  0  0  0  0
  144.6210   71.7830  218.9870 C   0  0  0  0  0  0  0  0  0  0  0  0
  144.3702   72.5130  218.2033 H   0  0  0  0  0  0  0  0  0  0  0  0
  144.4871   70.7536  218.6231 H   0  0  0  0  0  0  0  0  0  0  0  0
  146.0290   71.9560  219.3660 N   0  0  0  0  0  0  0  0  0  0  0  0
  146.2450   71.3150  220.1660 H   0  0  0  0  0  0  0  0  0  0  0  0
  146.3230   73.3470  219.7650 C   0  0  0  0  0  0  0  0  0  0  0  0
  146.5389   73.9307  218.8580 H   0  0  0  0  0  0  0  0  0  0  0  0
  147.1803   73.3107  220.4533 H   0  0  0  0  0  0  0  0  0  0  0  0
  145.1630   74.0320  220.5220 C   0  0  0  0  0  0  0  0  0  0  0  0
  144.5570   74.6070  219.8064 H   0  0  0  0  0  0  0  0  0  0  0  0
  145.5898   74.6957  221.2884 H   0  0  0  0  0  0  0  0  0  0  0  0
  144.2720   73.0000  221.2150 C   0  0  0  0  0  0  0  0  0  0  0  0
  143.4516   73.5227  221.7286 H   0  0  0  0  0  0  0  0  0  0  0  0
  144.8870   72.4382  221.9335 H   0  0  0  0  0  0  0  0  0  0  0  0
  140.0360   71.1140  224.3370 C   0  0  0  0  0  0  0  0  0  0  0  0
  139.4630   69.5830  224.7290 S   0  0  0  0  0  0  0  0  0  0  0  0
  140.2810   69.4360  226.1890 C   0  0  0  0  0  0  0  0  0  0  0  0
  140.2392   68.5719  226.8683 H   0  0  0  0  0  0  0  0  0  0  0  0
  141.0190   70.5950  226.3890 C   0  0  0  0  0  0  0  0  0  0  0  0
  141.6489   70.7602  227.2756 H   0  0  0  0  0  0  0  0  0  0  0  0
  140.8880   71.5340  225.3590 C   0  0  0  0  0  0  0  0  0  0  0  0
  141.4047   72.5051  225.3557 H   0  0  0  0  0  0  0  0  0  0  0  0
  1  2  1  0
  2  3  2  0
  3  4  1  0
  3  5  1  0
  5  6  2  0
  6  7  1  0
  7  8  2  0
  8  9  1  0
  8 10  1  0
 10 11  1  0
 10 12  2  0
 12 13  1  0
 12 14  1  0
 14 15  1  0
 14 16  2  0
 16 17  1  0
 17 18  2  0
 17 19  1  0
 19 20  1  0
 20 21  1  0
 20 22  1  0
 20 23  1  0
 23 24  1  1
 23 25  1  0
 25 26  1  0
 25 27  1  0
 25 28  1  0
 28 29  1  0
 28 30  1  0
 30 31  1  0
 30 32  1  0
 30 33  1  0
 33 34  1  0
 33 35  1  0
 33 36  1  0
 36 37  1  0
 36 38  1  0
  2 39  1  0
 39 40  1  0
 40 41  1  0
 41 42  1  0
 41 43  2  0
 43 44  1  0
 43 45  1  0
 45 46  1  0
 19  5  1  0
 36 23  1  0
 45 39  2  0
 16  7  1  0
M  END
>  <UniqueID>  (42) 
398

>  <SMILES>  (42) 
O=c1c2ccccc2nc(/C=C/c2cccs2)n1C[C@@H]1CCCNC1

>  <Energy>  (42) 
90.51648997437069

>  <Genealogy>  (42) 
O=c1c2ccccc2nc(/C=C/c2cccs2)n1C[C@@H]1CCCNC1 (chirality)
O=c1c2ccccc2nc(/C=C/c2cccs2)n1C[C@@H]1CCCNC1 (cis-trans isomerization)
O=c1c2ccccc2nc(/C=C/c2cccs2)n1C[C@@H]1CCCNC1 (3D coordinates assigned)
O=c1c2ccccc2nc(/C=C/c2cccs2)n1C[C@@H]1CCCNC1 (nonaromatic ring conformer: 90.51648997437069 kcal/mol)

>  <smiles>  (42) 
O=c1c2ccccc2nc(/C=C/c2cccs2)n1CC1CCCNC1

>  <score_type>  (42) 
oracle

>  <origin>  (42) 
autodockgpu

>  <m_score__min__energy>  (42) 
-7.4100000000000001

>  <m_primary>  (42) 
energy

>  <meeko>  (42) 
{"free_energy": -7.41, "intermolecular_energy": -8.9, "internal_energy": -1.14, "cluster_size": 6, "cluster_id": 1, "rank_in_cluster": 1}

>  <energy>  (42) 
-7.37

>  <cluster_rmsd>  (42) 
0.2

>  <rmsd>  (42) 
270.3

>  <cluster>  (42) 
1

$$$$
RPPNBJKXHXGJEE-BOLDSZDNNA-N
     RDKit          3D

 46 49  0  0  0  0  0  0  0  0999 V2000
  138.0566   72.6519  221.6471 H   0  0  0  0  0  0  0  0  0  0  0  0
  139.0970   72.8800  221.9220 C   0  0  0  0  0  0  0  0  0  0  0  0
  139.9220   71.8600  222.1940 C   0  0  0  0  0  0  0  0  0  0  0  0
  140.6493   71.5443  221.4316 H   0  0  0  0  0  0  0  0  0  0  0  0
  139.8840   71.1410  223.4970 C   0  0  0  0  0  0  0  0  0  0  0  0
  140.4220   71.7720  224.5770 N   0  0  0  0  0  0  0  0  0  0  0  0
  140.4670   71.1970  225.8000 C   0  0  0  0  0  0  0  0  0  0  0  0
  141.0340   71.8890  226.8770 C   0  0  0  0  0  0  0  0  0  0  0  0
  141.4408   72.9001  226.7282 H   0  0  0  0  0  0  0  0  0  0  0  0
  141.0830   71.2950  228.1410 C   0  0  0  0  0  0  0  0  0  0  0  0
  141.5303   71.8382  228.9865 H   0  0  0  0  0  0  0  0  0  0  0  0
  140.5640   70.0110  228.3320 C   0  0  0  0  0  0  0  0  0  0  0  0
  140.6023   69.5462  229.3282 H   0  0  0  0  0  0  0  0  0  0  0  0
  139.9960   69.3160  227.2590 C   0  0  0  0  0  0  0  0  0  0  0  0
  139.5889   68.3057  227.4124 H   0  0  0  0  0  0  0  0  0  0  0  0
  139.9450   69.9090  225.9820 C   0  0  0  0  0  0  0  0  0  0  0  0
  139.3810   69.2580  224.8720 C   0  0  0  0  0  0  0  0  0  0  0  0
  138.8840   68.1050  225.0220 O   0  0  0  0  0  0  0  0  0  0  0  0
  139.3570   69.8690  223.6370 N   0  0  0  0  0  0  0  0  0  0  0  0
  138.7100   69.1530  222.5100 C   0  0  0  0  0  0  0  0  0  0  0  0
  139.1621   69.4960  221.5677 H   0  0  0  0  0  0  0  0  0  0  0  0
  138.8666   68.0751  222.6638 H   0  0  0  0  0  0  0  0  0  0  0  0
  137.1820   69.4040  222.4490 C   0  0  1  0  0  0  0  0  0  0  0  0
  136.9490   69.7519  221.4318 H   0  0  0  0  0  0  0  0  0  0  0  0
  136.4200   68.0810  222.7260 C   0  0  0  0  0  0  0  0  0  0  0  0
  136.9766   67.4986  223.4750 H   0  0  0  0  0  0  0  0  0  0  0  0
  136.3375   67.5270  221.7793 H   0  0  0  0  0  0  0  0  0  0  0  0
  135.0640   68.3330  223.2300 N   0  0  0  0  0  0  0  0  0  0  0  0
  134.5610   68.9530  222.5530 H   0  0  0  0  0  0  0  0  0  0  0  0
  135.0840   68.9780  224.5580 C   0  0  0  0  0  0  0  0  0  0  0  0
  135.1790   68.1941  225.3238 H   0  0  0  0  0  0  0  0  0  0  0  0
  134.1471   69.5462  224.6544 H   0  0  0  0  0  0  0  0  0  0  0  0
  136.2430   69.9820  224.7410 C   0  0  0  0  0  0  0  0  0  0  0  0
  137.0860   69.4723  225.2305 H   0  0  0  0  0  0  0  0  0  0  0  0
  135.8859   70.8191  225.3589 H   0  0  0  0  0  0  0  0  0  0  0  0
  136.7090   70.5370  223.3930 C   0  0  0  0  0  0  0  0  0  0  0  0
  137.5432   71.2339  223.5619 H   0  0  0  0  0  0  0  0  0  0  0  0
  135.8606   71.0518  222.9184 H   0  0  0  0  0  0  0  0  0  0  0  0
  139.5150   74.2940  221.9730 C   0  0  0  0  0  0  0  0  0  0  0  0
  141.0570   74.8270  221.5670 S   0  0  0  0  0  0  0  0  0  0  0  0
  140.7810   76.4600  221.8550 C   0  0  0  0  0  0  0  0  0  0  0  0
  141.5145   77.2704  221.7314 H   0  0  0  0  0  0  0  0  0  0  0  0
  139.4660   76.6080  222.2760 C   0  0  0  0  0  0  0  0  0  0  0  0
  139.0237   77.5818  222.5332 H   0  0  0  0  0  0  0  0  0  0  0  0
  138.7550   75.4040  222.3430 C   0  0  0  0  0  0  0  0  0  0  0  0
  137.7025   75.3395  222.6560 H   0  0  0  0  0  0  0  0  0  0  0  0
  1  2  1  0
  2  3  2  0
  3  4  1  0
  3  5  1  0
  5  6  2  0
  6  7  1  0
  7  8  2  0
  8  9  1  0
  8 10  1  0
 10 11  1  0
 10 12  2  0
 12 13  1  0
 12 14  1  0
 14 15  1  0
 14 16  2  0
 16 17  1  0
 17 18  2  0
 17 19  1  0
 19 20  1  0
 20 21  1  0
 20 22  1  0
 20 23  1  0
 23 24  1  6
 23 25  1  0
 25 26  1  0
 25 27  1  0
 25 28  1  0
 28 29  1  0
 28 30  1  0
 30 31  1  0
 30 32  1  0
 30 33  1  0
 33 34  1  0
 33 35  1  0
 33 36  1  0
 36 37  1  0
 36 38  1  0
  2 39  1  0
 39 40  1  0
 40 41  1  0
 41 42  1  0
 41 43  2  0
 43 44  1  0
 43 45  1  0
 45 46  1  0
 19  5  1  0
 36 23  1  0
 45 39  2  0
 16  7  1  0
M  END
>  <UniqueID>  (43) 
398

>  <SMILES>  (43) 
O=c1c2ccccc2nc(/C=C/c2cccs2)n1C[C@@H]1CCCNC1

>  <Energy>  (43) 
90.51648997437069

>  <Genealogy>  (43) 
O=c1c2ccccc2nc(/C=C/c2cccs2)n1C[C@@H]1CCCNC1 (chirality)
O=c1c2ccccc2nc(/C=C/c2cccs2)n1C[C@@H]1CCCNC1 (cis-trans isomerization)
O=c1c2ccccc2nc(/C=C/c2cccs2)n1C[C@@H]1CCCNC1 (3D coordinates assigned)
O=c1c2ccccc2nc(/C=C/c2cccs2)n1C[C@@H]1CCCNC1 (nonaromatic ring conformer: 90.51648997437069 kcal/mol)

>  <smiles>  (43) 
O=c1c2ccccc2nc(/C=C/c2cccs2)n1CC1CCCNC1

>  <score_type>  (43) 
oracle

>  <origin>  (43) 
autodockgpu

>  <m_score__min__energy>  (43) 
-7.4100000000000001

>  <m_primary>  (43) 
energy

>  <meeko>  (43) 
{"free_energy": -7.12, "intermolecular_energy": -8.61, "internal_energy": -1.35, "cluster_size": 14, "cluster_id": 2, "rank_in_cluster": 5}

>  <energy>  (43) 
-7.24

>  <cluster_rmsd>  (43) 
0.37

>  <rmsd>  (43) 
270.19

>  <cluster>  (43) 
1

$$$$
RPPNBJKXHXGJEE-BOLDSZDNNA-N
     RDKit          3D

 46 49  0  0  0  0  0  0  0  0999 V2000
  140.9050   70.8350  220.7712 H   0  0  0  0  0  0  0  0  0  0  0  0
  141.0580   71.7610  221.3450 C   0  0  0  0  0  0  0  0  0  0  0  0
  140.1830   72.0610  222.3140 C   0  0  0  0  0  0  0  0  0  0  0  0
  139.5139   72.9238  222.1802 H   0  0  0  0  0  0  0  0  0  0  0  0
  140.0890   71.2620  223.5660 C   0  0  0  0  0  0  0  0  0  0  0  0
  140.5680   71.8270  224.7080 N   0  0  0  0  0  0  0  0  0  0  0  0
  140.5590   71.1780  225.8940 C   0  0  0  0  0  0  0  0  0  0  0  0
  141.0660   71.8050  227.0380 C   0  0  0  0  0  0  0  0  0  0  0  0
  141.4691   72.8264  226.9725 H   0  0  0  0  0  0  0  0  0  0  0  0
  141.0600   71.1330  228.2640 C   0  0  0  0  0  0  0  0  0  0  0  0
  141.4602   71.6255  229.1625 H   0  0  0  0  0  0  0  0  0  0  0  0
  140.5460   69.8360  228.3490 C   0  0  0  0  0  0  0  0  0  0  0  0
  140.5416   69.3095  229.3148 H   0  0  0  0  0  0  0  0  0  0  0  0
  140.0370   69.2060  227.2080 C   0  0  0  0  0  0  0  0  0  0  0  0
  139.6324   68.1855  227.2784 H   0  0  0  0  0  0  0  0  0  0  0  0
  140.0420   69.8770  225.9690 C   0  0  0  0  0  0  0  0  0  0  0  0
  139.5390   69.2920  224.7950 C   0  0  0  0  0  0  0  0  0  0  0  0
  139.0470   68.1290  224.8480 O   0  0  0  0  0  0  0  0  0  0  0  0
  139.5690   69.9800  223.6010 N   0  0  0  0  0  0  0  0  0  0  0  0
  138.9850   69.3310  222.4010 C   0  0  0  0  0  0  0  0  0  0  0  0
  139.4302   69.7838  221.5028 H   0  0  0  0  0  0  0  0  0  0  0  0
  139.2049   68.2549  222.4616 H   0  0  0  0  0  0  0  0  0  0  0  0
  137.4460   69.4950  222.3300 C   0  0  1  0  0  0  0  0  0  0  0  0
  137.1874   69.6890  221.2786 H   0  0  0  0  0  0  0  0  0  0  0  0
  136.7550   68.1860  222.7960 C   0  0  0  0  0  0  0  0  0  0  0  0
  137.3475   67.7393  223.6081 H   0  0  0  0  0  0  0  0  0  0  0  0
  136.6922   67.5049  221.9345 H   0  0  0  0  0  0  0  0  0  0  0  0
  135.3920   68.4370  223.2830 N   0  0  0  0  0  0  0  0  0  0  0  0
  134.8520   68.9330  222.5350 H   0  0  0  0  0  0  0  0  0  0  0  0
  135.3900   69.2570  224.5100 C   0  0  0  0  0  0  0  0  0  0  0  0
  135.5317   68.5908  225.3738 H   0  0  0  0  0  0  0  0  0  0  0  0
  134.4259   69.7856  224.5433 H   0  0  0  0  0  0  0  0  0  0  0  0
  136.4980   70.3330  224.5360 C   0  0  0  0  0  0  0  0  0  0  0  0
  137.3703   69.9373  225.0769 H   0  0  0  0  0  0  0  0  0  0  0  0
  136.1037   71.2280  225.0396 H   0  0  0  0  0  0  0  0  0  0  0  0
  136.9230   70.7210  223.1190 C   0  0  0  0  0  0  0  0  0  0  0  0
  137.7215   71.4753  223.1788 H   0  0  0  0  0  0  0  0  0  0  0  0
  136.0450   71.1228  222.5921 H   0  0  0  0  0  0  0  0  0  0  0  0
  142.2160   72.6100  221.0090 C   0  0  0  0  0  0  0  0  0  0  0  0
  142.1180   74.2710  220.7670 S   0  0  0  0  0  0  0  0  0  0  0  0
  143.7490   74.5180  220.4460 C   0  0  0  0  0  0  0  0  0  0  0  0
  144.2221   75.4835  220.2136 H   0  0  0  0  0  0  0  0  0  0  0  0
  144.3950   73.2930  220.5250 C   0  0  0  0  0  0  0  0  0  0  0  0
  145.4753   73.1721  220.3565 H   0  0  0  0  0  0  0  0  0  0  0  0
  143.5460   72.2240  220.8390 C   0  0  0  0  0  0  0  0  0  0  0  0
  143.8928   71.1851  220.9412 H   0  0  0  0  0  0  0  0  0  0  0  0
  1  2  1  0
  2  3  2  0
  3  4  1  0
  3  5  1  0
  5  6  2  0
  6  7  1  0
  7  8  2  0
  8  9  1  0
  8 10  1  0
 10 11  1  0
 10 12  2  0
 12 13  1  0
 12 14  1  0
 14 15  1  0
 14 16  2  0
 16 17  1  0
 17 18  2  0
 17 19  1  0
 19 20  1  0
 20 21  1  0
 20 22  1  0
 20 23  1  0
 23 24  1  6
 23 25  1  0
 25 26  1  0
 25 27  1  0
 25 28  1  0
 28 29  1  0
 28 30  1  0
 30 31  1  0
 30 32  1  0
 30 33  1  0
 33 34  1  0
 33 35  1  0
 33 36  1  0
 36 37  1  0
 36 38  1  0
  2 39  1  0
 39 40  1  0
 40 41  1  0
 41 42  1  0
 41 43  2  0
 43 44  1  0
 43 45  1  0
 45 46  1  0
 19  5  1  0
 36 23  1  0
 45 39  2  0
 16  7  1  0
M  END
>  <UniqueID>  (44) 
398

>  <SMILES>  (44) 
O=c1c2ccccc2nc(/C=C/c2cccs2)n1C[C@@H]1CCCNC1

>  <Energy>  (44) 
90.51648997437069

>  <Genealogy>  (44) 
O=c1c2ccccc2nc(/C=C/c2cccs2)n1C[C@@H]1CCCNC1 (chirality)
O=c1c2ccccc2nc(/C=C/c2cccs2)n1C[C@@H]1CCCNC1 (cis-trans isomerization)
O=c1c2ccccc2nc(/C=C/c2cccs2)n1C[C@@H]1CCCNC1 (3D coordinates assigned)
O=c1c2ccccc2nc(/C=C/c2cccs2)n1C[C@@H]1CCCNC1 (nonaromatic ring conformer: 90.51648997437069 kcal/mol)

>  <smiles>  (44) 
O=c1c2ccccc2nc(/C=C/c2cccs2)n1CC1CCCNC1

>  <score_type>  (44) 
oracle

>  <origin>  (44) 
autodockgpu

>  <m_score__min__energy>  (44) 
-7.4100000000000001

>  <m_primary>  (44) 
energy

>  <meeko>  (44) 
{"free_energy": -7.09, "intermolecular_energy": -8.58, "internal_energy": -1.27, "cluster_size": 14, "cluster_id": 2, "rank_in_cluster": 8}

>  <energy>  (44) 
-7.22

>  <cluster_rmsd>  (44) 
0.41

>  <rmsd>  (44) 
270.14

>  <cluster>  (44) 
1

$$$$
RPPNBJKXHXGJEE-BOLDSZDNNA-N
     RDKit          3D

 46 49  0  0  0  0  0  0  0  0999 V2000
  141.6507   73.2457  221.8825 H   0  0  0  0  0  0  0  0  0  0  0  0
  140.5780   73.0190  221.9720 C   0  0  0  0  0  0  0  0  0  0  0  0
  140.2060   71.7370  222.0910 C   0  0  0  0  0  0  0  0  0  0  0  0
  139.9988   71.1547  221.1811 H   0  0  0  0  0  0  0  0  0  0  0  0
  140.0650   71.0780  223.4180 C   0  0  0  0  0  0  0  0  0  0  0  0
  140.5850   71.7230  224.4980 N   0  0  0  0  0  0  0  0  0  0  0  0
  140.5390   71.2000  225.7430 C   0  0  0  0  0  0  0  0  0  0  0  0
  141.0920   71.9060  226.8190 C   0  0  0  0  0  0  0  0  0  0  0  0
  141.5621   72.8861  226.6508 H   0  0  0  0  0  0  0  0  0  0  0  0
  141.0460   71.3640  228.1070 C   0  0  0  0  0  0  0  0  0  0  0  0
  141.4803   71.9183  228.9521 H   0  0  0  0  0  0  0  0  0  0  0  0
  140.4490   70.1190  228.3220 C   0  0  0  0  0  0  0  0  0  0  0  0
  140.4154   69.6946  229.3363 H   0  0  0  0  0  0  0  0  0  0  0  0
  139.8940   69.4110  227.2510 C   0  0  0  0  0  0  0  0  0  0  0  0
  139.4229   68.4322  227.4243 H   0  0  0  0  0  0  0  0  0  0  0  0
  139.9380   69.9510  225.9500 C   0  0  0  0  0  0  0  0  0  0  0  0
  139.3920   69.2840  224.8400 C   0  0  0  0  0  0  0  0  0  0  0  0
  138.8250   68.1680  225.0100 O   0  0  0  0  0  0  0  0  0  0  0  0
  139.4610   69.8430  223.5820 N   0  0  0  0  0  0  0  0  0  0  0  0
  138.8310   69.1150  222.4530 C   0  0  0  0  0  0  0  0  0  0  0  0
  139.3143   69.4295  221.5163 H   0  0  0  0  0  0  0  0  0  0  0  0
  138.9632   68.0379  222.6330 H   0  0  0  0  0  0  0  0  0  0  0  0
  137.3100   69.3930  222.3460 C   0  0  1  0  0  0  0  0  0  0  0  0
  137.0907   69.6049  221.2891 H   0  0  0  0  0  0  0  0  0  0  0  0
  136.5130   68.1390  222.7950 C   0  0  0  0  0  0  0  0  0  0  0  0
  137.0516   67.6505  223.6204 H   0  0  0  0  0  0  0  0  0  0  0  0
  136.4200   67.4634  221.9319 H   0  0  0  0  0  0  0  0  0  0  0  0
  135.1620   68.4910  223.2500 N   0  0  0  0  0  0  0  0  0  0  0  0
  134.6770   69.0260  222.4910 H   0  0  0  0  0  0  0  0  0  0  0  0
  135.1920   69.3100  224.4780 C   0  0  0  0  0  0  0  0  0  0  0  0
  135.2628   68.6356  225.3441 H   0  0  0  0  0  0  0  0  0  0  0  0
  134.2696   69.9093  224.4887 H   0  0  0  0  0  0  0  0  0  0  0  0
  136.3760   70.3000  224.5320 C   0  0  0  0  0  0  0  0  0  0  0  0
  137.2034   69.8403  225.0925 H   0  0  0  0  0  0  0  0  0  0  0  0
  136.0382   71.2219  225.0279 H   0  0  0  0  0  0  0  0  0  0  0  0
  136.8620   70.6550  223.1250 C   0  0  0  0  0  0  0  0  0  0  0  0
  137.7131   71.3473  223.2045 H   0  0  0  0  0  0  0  0  0  0  0  0
  136.0289   71.1213  222.5786 H   0  0  0  0  0  0  0  0  0  0  0  0
  139.6210   74.1410  221.9550 C   0  0  0  0  0  0  0  0  0  0  0  0
  140.0780   75.7580  221.9510 S   0  0  0  0  0  0  0  0  0  0  0  0
  138.5250   76.4000  221.9260 C   0  0  0  0  0  0  0  0  0  0  0  0
  138.2687   77.4697  221.9168 H   0  0  0  0  0  0  0  0  0  0  0  0
  137.6220   75.3460  221.9190 C   0  0  0  0  0  0  0  0  0  0  0  0
  136.5315   75.4894  221.9024 H   0  0  0  0  0  0  0  0  0  0  0  0
  138.2270   74.0830  221.9350 C   0  0  0  0  0  0  0  0  0  0  0  0
  137.6603   73.1402  221.9321 H   0  0  0  0  0  0  0  0  0  0  0  0
  1  2  1  0
  2  3  2  0
  3  4  1  0
  3  5  1  0
  5  6  2  0
  6  7  1  0
  7  8  2  0
  8  9  1  0
  8 10  1  0
 10 11  1  0
 10 12  2  0
 12 13  1  0
 12 14  1  0
 14 15  1  0
 14 16  2  0
 16 17  1  0
 17 18  2  0
 17 19  1  0
 19 20  1  0
 20 21  1  0
 20 22  1  0
 20 23  1  0
 23 24  1  6
 23 25  1  0
 25 26  1  0
 25 27  1  0
 25 28  1  0
 28 29  1  0
 28 30  1  0
 30 31  1  0
 30 32  1  0
 30 33  1  0
 33 34  1  0
 33 35  1  0
 33 36  1  0
 36 37  1  0
 36 38  1  0
  2 39  1  0
 39 40  1  0
 40 41  1  0
 41 42  1  0
 41 43  2  0
 43 44  1  0
 43 45  1  0
 45 46  1  0
 19  5  1  0
 36 23  1  0
 45 39  2  0
 16  7  1  0
M  END
>  <UniqueID>  (45) 
398

>  <SMILES>  (45) 
O=c1c2ccccc2nc(/C=C/c2cccs2)n1C[C@@H]1CCCNC1

>  <Energy>  (45) 
90.51648997437069

>  <Genealogy>  (45) 
O=c1c2ccccc2nc(/C=C/c2cccs2)n1C[C@@H]1CCCNC1 (chirality)
O=c1c2ccccc2nc(/C=C/c2cccs2)n1C[C@@H]1CCCNC1 (cis-trans isomerization)
O=c1c2ccccc2nc(/C=C/c2cccs2)n1C[C@@H]1CCCNC1 (3D coordinates assigned)
O=c1c2ccccc2nc(/C=C/c2cccs2)n1C[C@@H]1CCCNC1 (nonaromatic ring conformer: 90.51648997437069 kcal/mol)

>  <smiles>  (45) 
O=c1c2ccccc2nc(/C=C/c2cccs2)n1CC1CCCNC1

>  <score_type>  (45) 
oracle

>  <origin>  (45) 
autodockgpu

>  <m_score__min__energy>  (45) 
-7.4100000000000001

>  <m_primary>  (45) 
energy

>  <meeko>  (45) 
{"free_energy": -6.79, "intermolecular_energy": -8.28, "internal_energy": -1.48, "cluster_size": 14, "cluster_id": 2, "rank_in_cluster": 14}

>  <energy>  (45) 
-7.2

>  <cluster_rmsd>  (45) 
0.39

>  <rmsd>  (45) 
270.15

>  <cluster>  (45) 
1

$$$$
RPPNBJKXHXGJEE-BOLDSZDNNA-N
     RDKit          3D

 46 49  0  0  0  0  0  0  0  0999 V2000
  140.7961   70.8958  220.7623 H   0  0  0  0  0  0  0  0  0  0  0  0
  140.9820   71.7990  221.3620 C   0  0  0  0  0  0  0  0  0  0  0  0
  140.1410   72.0810  222.3660 C   0  0  0  0  0  0  0  0  0  0  0  0
  139.4781   72.9544  222.2776 H   0  0  0  0  0  0  0  0  0  0  0  0
  140.0770   71.2480  223.5970 C   0  0  0  0  0  0  0  0  0  0  0  0
  140.5470   71.7970  224.7510 N   0  0  0  0  0  0  0  0  0  0  0  0
  140.5640   71.1180  225.9200 C   0  0  0  0  0  0  0  0  0  0  0  0
  141.0620   71.7290  227.0770 C   0  0  0  0  0  0  0  0  0  0  0  0
  141.4382   72.7618  227.0354 H   0  0  0  0  0  0  0  0  0  0  0  0
  141.0810   71.0260  228.2850 C   0  0  0  0  0  0  0  0  0  0  0  0
  141.4726   71.5060  229.1940 H   0  0  0  0  0  0  0  0  0  0  0  0
  140.6030   69.7140  228.3390 C   0  0  0  0  0  0  0  0  0  0  0  0
  140.6192   69.1632  229.2910 H   0  0  0  0  0  0  0  0  0  0  0  0
  140.1040   69.0990  227.1860 C   0  0  0  0  0  0  0  0  0  0  0  0
  139.7279   68.0663  227.2325 H   0  0  0  0  0  0  0  0  0  0  0  0
  140.0830   69.8020  225.9650 C   0  0  0  0  0  0  0  0  0  0  0  0
  139.5880   69.2340  224.7790 C   0  0  0  0  0  0  0  0  0  0  0  0
  139.1290   68.0570  224.8050 O   0  0  0  0  0  0  0  0  0  0  0  0
  139.5910   69.9520  223.6020 N   0  0  0  0  0  0  0  0  0  0  0  0
  139.0180   69.3180  222.3900 C   0  0  0  0  0  0  0  0  0  0  0  0
  139.4697   69.7828  221.5012 H   0  0  0  0  0  0  0  0  0  0  0  0
  139.2390   68.2415  222.4385 H   0  0  0  0  0  0  0  0  0  0  0  0
  137.4790   69.4810  222.3090 C   0  0  1  0  0  0  0  0  0  0  0  0
  137.2263   69.6692  221.2551 H   0  0  0  0  0  0  0  0  0  0  0  0
  136.7850   68.1740  222.7780 C   0  0  0  0  0  0  0  0  0  0  0  0
  137.3727   67.7319  223.5960 H   0  0  0  0  0  0  0  0  0  0  0  0
  136.7275   67.4888  221.9194 H   0  0  0  0  0  0  0  0  0  0  0  0
  135.4200   68.4260  223.2550 N   0  0  0  0  0  0  0  0  0  0  0  0
  134.8840   68.9180  222.5030 H   0  0  0  0  0  0  0  0  0  0  0  0
  135.4110   69.2520  224.4790 C   0  0  0  0  0  0  0  0  0  0  0  0
  135.5479   68.5896  225.3465 H   0  0  0  0  0  0  0  0  0  0  0  0
  134.4467   69.7807  224.5042 H   0  0  0  0  0  0  0  0  0  0  0  0
  136.5190   70.3290  224.5070 C   0  0  0  0  0  0  0  0  0  0  0  0
  137.3883   69.9359  225.0546 H   0  0  0  0  0  0  0  0  0  0  0  0
  136.1218   71.2260  225.0047 H   0  0  0  0  0  0  0  0  0  0  0  0
  136.9520   70.7110  223.0900 C   0  0  0  0  0  0  0  0  0  0  0  0
  137.7504   71.4653  223.1508 H   0  0  0  0  0  0  0  0  0  0  0  0
  136.0770   71.1109  222.5566 H   0  0  0  0  0  0  0  0  0  0  0  0
  142.1450   72.6400  221.0210 C   0  0  0  0  0  0  0  0  0  0  0  0
  143.7070   72.0460  220.8430 S   0  0  0  0  0  0  0  0  0  0  0  0
  144.4340   73.5150  220.4720 C   0  0  0  0  0  0  0  0  0  0  0  0
  145.5016   73.6712  220.2577 H   0  0  0  0  0  0  0  0  0  0  0  0
  143.4530   74.4970  220.4830 C   0  0  0  0  0  0  0  0  0  0  0  0
  143.6612   75.5564  220.2723 H   0  0  0  0  0  0  0  0  0  0  0  0
  142.1740   74.0150  220.7870 C   0  0  0  0  0  0  0  0  0  0  0  0
  141.2816   74.6562  220.8364 H   0  0  0  0  0  0  0  0  0  0  0  0
  1  2  1  0
  2  3  2  0
  3  4  1  0
  3  5  1  0
  5  6  2  0
  6  7  1  0
  7  8  2  0
  8  9  1  0
  8 10  1  0
 10 11  1  0
 10 12  2  0
 12 13  1  0
 12 14  1  0
 14 15  1  0
 14 16  2  0
 16 17  1  0
 17 18  2  0
 17 19  1  0
 19 20  1  0
 20 21  1  0
 20 22  1  0
 20 23  1  0
 23 24  1  6
 23 25  1  0
 25 26  1  0
 25 27  1  0
 25 28  1  0
 28 29  1  0
 28 30  1  0
 30 31  1  0
 30 32  1  0
 30 33  1  0
 33 34  1  0
 33 35  1  0
 33 36  1  0
 36 37  1  0
 36 38  1  0
  2 39  1  0
 39 40  1  0
 40 41  1  0
 41 42  1  0
 41 43  2  0
 43 44  1  0
 43 45  1  0
 45 46  1  0
 19  5  1  0
 36 23  1  0
 45 39  2  0
 16  7  1  0
M  END
>  <UniqueID>  (46) 
398

>  <SMILES>  (46) 
O=c1c2ccccc2nc(/C=C/c2cccs2)n1C[C@@H]1CCCNC1

>  <Energy>  (46) 
90.51648997437069

>  <Genealogy>  (46) 
O=c1c2ccccc2nc(/C=C/c2cccs2)n1C[C@@H]1CCCNC1 (chirality)
O=c1c2ccccc2nc(/C=C/c2cccs2)n1C[C@@H]1CCCNC1 (cis-trans isomerization)
O=c1c2ccccc2nc(/C=C/c2cccs2)n1C[C@@H]1CCCNC1 (3D coordinates assigned)
O=c1c2ccccc2nc(/C=C/c2cccs2)n1C[C@@H]1CCCNC1 (nonaromatic ring conformer: 90.51648997437069 kcal/mol)

>  <smiles>  (46) 
O=c1c2ccccc2nc(/C=C/c2cccs2)n1CC1CCCNC1

>  <score_type>  (46) 
oracle

>  <origin>  (46) 
autodockgpu

>  <m_score__min__energy>  (46) 
-7.4100000000000001

>  <m_primary>  (46) 
energy

>  <meeko>  (46) 
{"free_energy": -7.09, "intermolecular_energy": -8.58, "internal_energy": -1.28, "cluster_size": 14, "cluster_id": 2, "rank_in_cluster": 10}

>  <energy>  (46) 
-7.19

>  <cluster_rmsd>  (46) 
0.42

>  <rmsd>  (46) 
270.13

>  <cluster>  (46) 
1

$$$$
RPPNBJKXHXGJEE-BOLDSZDNNA-N
     RDKit          3D

 46 49  0  0  0  0  0  0  0  0999 V2000
  138.8045   72.3885  223.0457 H   0  0  0  0  0  0  0  0  0  0  0  0
  139.7660   71.8560  223.0910 C   0  0  0  0  0  0  0  0  0  0  0  0
  140.5730   71.9070  222.0230 C   0  0  0  0  0  0  0  0  0  0  0  0
  140.9080   70.9660  221.5623 H   0  0  0  0  0  0  0  0  0  0  0  0
  141.0300   73.1980  221.4410 C   0  0  0  0  0  0  0  0  0  0  0  0
  140.7000   74.3380  222.1080 N   0  0  0  0  0  0  0  0  0  0  0  0
  141.0390   75.5650  221.6520 C   0  0  0  0  0  0  0  0  0  0  0  0
  140.6720   76.7060  222.3760 C   0  0  0  0  0  0  0  0  0  0  0  0
  140.1099   76.6040  223.3160 H   0  0  0  0  0  0  0  0  0  0  0  0
  141.0200   77.9740  221.9040 C   0  0  0  0  0  0  0  0  0  0  0  0
  140.7306   78.8700  222.4727 H   0  0  0  0  0  0  0  0  0  0  0  0
  141.7350   78.1060  220.7110 C   0  0  0  0  0  0  0  0  0  0  0  0
  142.0077   79.1059  220.3424 H   0  0  0  0  0  0  0  0  0  0  0  0
  142.1050   76.9690  219.9840 C   0  0  0  0  0  0  0  0  0  0  0  0
  142.6688   77.0762  219.0456 H   0  0  0  0  0  0  0  0  0  0  0  0
  141.7560   75.6870  220.4530 C   0  0  0  0  0  0  0  0  0  0  0  0
  142.1060   74.5130  219.7660 C   0  0  0  0  0  0  0  0  0  0  0  0
  142.7730   74.6020  218.6960 O   0  0  0  0  0  0  0  0  0  0  0  0
  141.7400   73.2780  220.2550 N   0  0  0  0  0  0  0  0  0  0  0  0
  142.1730   72.0690  219.5110 C   0  0  0  0  0  0  0  0  0  0  0  0
  141.5081   71.2339  219.7763 H   0  0  0  0  0  0  0  0  0  0  0  0
  142.1212   72.2996  218.4367 H   0  0  0  0  0  0  0  0  0  0  0  0
  143.6330   71.6660  219.8380 C   0  0  1  0  0  0  0  0  0  0  0  0
  143.6365   70.5823  220.0265 H   0  0  0  0  0  0  0  0  0  0  0  0
  144.5510   71.9790  218.6260 C   0  0  0  0  0  0  0  0  0  0  0  0
  144.2005   72.9026  218.1420 H   0  0  0  0  0  0  0  0  0  0  0  0
  144.5039   71.1282  217.9303 H   0  0  0  0  0  0  0  0  0  0  0  0
  145.9490   72.1580  219.0380 N   0  0  0  0  0  0  0  0  0  0  0  0
  146.2570   71.3080  219.5660 H   0  0  0  0  0  0  0  0  0  0  0  0
  146.1220   73.3500  219.8900 C   0  0  0  0  0  0  0  0  0  0  0  0
  146.2446   74.2280  219.2389 H   0  0  0  0  0  0  0  0  0  0  0  0
  147.0051   73.1703  220.5207 H   0  0  0  0  0  0  0  0  0  0  0  0
  144.9320   73.6090  220.8400 C   0  0  0  0  0  0  0  0  0  0  0  0
  144.2461   74.3283  220.3687 H   0  0  0  0  0  0  0  0  0  0  0  0
  145.3222   74.0100  221.7871 H   0  0  0  0  0  0  0  0  0  0  0  0
  144.1720   72.3150  221.1370 C   0  0  0  0  0  0  0  0  0  0  0  0
  143.3255   72.5416  221.8019 H   0  0  0  0  0  0  0  0  0  0  0  0
  144.8655   71.6079  221.6156 H   0  0  0  0  0  0  0  0  0  0  0  0
  140.1030   71.1210  224.3250 C   0  0  0  0  0  0  0  0  0  0  0  0
  139.5000   69.5970  224.6980 S   0  0  0  0  0  0  0  0  0  0  0  0
  140.2920   69.4290  226.1710 C   0  0  0  0  0  0  0  0  0  0  0  0
  140.2255   68.5620  226.8448 H   0  0  0  0  0  0  0  0  0  0  0  0
  141.0440   70.5740  226.3890 C   0  0  0  0  0  0  0  0  0  0  0  0
  141.6626   70.7238  227.2861 H   0  0  0  0  0  0  0  0  0  0  0  0
  140.9440   71.5220  225.3630 C   0  0  0  0  0  0  0  0  0  0  0  0
  141.4749   72.4853  225.3746 H   0  0  0  0  0  0  0  0  0  0  0  0
  1  2  1  0
  2  3  2  0
  3  4  1  0
  3  5  1  0
  5  6  2  0
  6  7  1  0
  7  8  2  0
  8  9  1  0
  8 10  1  0
 10 11  1  0
 10 12  2  0
 12 13  1  0
 12 14  1  0
 14 15  1  0
 14 16  2  0
 16 17  1  0
 17 18  2  0
 17 19  1  0
 19 20  1  0
 20 21  1  0
 20 22  1  0
 20 23  1  0
 23 24  1  1
 23 25  1  0
 25 26  1  0
 25 27  1  0
 25 28  1  0
 28 29  1  0
 28 30  1  0
 30 31  1  0
 30 32  1  0
 30 33  1  0
 33 34  1  0
 33 35  1  0
 33 36  1  0
 36 37  1  0
 36 38  1  0
  2 39  1  0
 39 40  1  0
 40 41  1  0
 41 42  1  0
 41 43  2  0
 43 44  1  0
 43 45  1  0
 45 46  1  0
 19  5  1  0
 36 23  1  0
 45 39  2  0
 16  7  1  0
M  END
>  <UniqueID>  (47) 
398

>  <SMILES>  (47) 
O=c1c2ccccc2nc(/C=C/c2cccs2)n1C[C@@H]1CCCNC1

>  <Energy>  (47) 
90.51648997437069

>  <Genealogy>  (47) 
O=c1c2ccccc2nc(/C=C/c2cccs2)n1C[C@@H]1CCCNC1 (chirality)
O=c1c2ccccc2nc(/C=C/c2cccs2)n1C[C@@H]1CCCNC1 (cis-trans isomerization)
O=c1c2ccccc2nc(/C=C/c2cccs2)n1C[C@@H]1CCCNC1 (3D coordinates assigned)
O=c1c2ccccc2nc(/C=C/c2cccs2)n1C[C@@H]1CCCNC1 (nonaromatic ring conformer: 90.51648997437069 kcal/mol)

>  <smiles>  (47) 
O=c1c2ccccc2nc(/C=C/c2cccs2)n1CC1CCCNC1

>  <score_type>  (47) 
oracle

>  <origin>  (47) 
autodockgpu

>  <m_score__min__energy>  (47) 
-7.4100000000000001

>  <m_primary>  (47) 
energy

>  <meeko>  (47) 
{"free_energy": -7.19, "intermolecular_energy": -8.68, "internal_energy": -1.26, "cluster_size": 6, "cluster_id": 1, "rank_in_cluster": 6}

>  <energy>  (47) 
-7.16

>  <cluster_rmsd>  (47) 
0.0

>  <rmsd>  (47) 
269.86

>  <cluster>  (47) 
2

$$$$
RPPNBJKXHXGJEE-BOLDSZDNNA-N
     RDKit          3D

 46 49  0  0  0  0  0  0  0  0999 V2000
  138.4373   72.6179  221.5040 H   0  0  0  0  0  0  0  0  0  0  0  0
  139.4480   72.8840  221.8470 C   0  0  0  0  0  0  0  0  0  0  0  0
  140.2800   71.8960  222.2020 C   0  0  0  0  0  0  0  0  0  0  0  0
  141.0969   71.6157  221.5208 H   0  0  0  0  0  0  0  0  0  0  0  0
  140.1320   71.1660  223.4910 C   0  0  0  0  0  0  0  0  0  0  0  0
  140.6310   71.7600  224.6090 N   0  0  0  0  0  0  0  0  0  0  0  0
  140.5770   71.1710  225.8250 C   0  0  0  0  0  0  0  0  0  0  0  0
  141.1080   71.8260  226.9430 C   0  0  0  0  0  0  0  0  0  0  0  0
  141.5672   72.8194  226.8324 H   0  0  0  0  0  0  0  0  0  0  0  0
  141.0540   71.2160  228.2000 C   0  0  0  0  0  0  0  0  0  0  0  0
  141.4726   71.7294  229.0782 H   0  0  0  0  0  0  0  0  0  0  0  0
  140.4690   69.9550  228.3420 C   0  0  0  0  0  0  0  0  0  0  0  0
  140.4268   69.4780  229.3323 H   0  0  0  0  0  0  0  0  0  0  0  0
  139.9370   69.2980  227.2280 C   0  0  0  0  0  0  0  0  0  0  0  0
  139.4774   68.3053  227.3434 H   0  0  0  0  0  0  0  0  0  0  0  0
  139.9890   69.9060  225.9580 C   0  0  0  0  0  0  0  0  0  0  0  0
  139.4650   69.2920  224.8080 C   0  0  0  0  0  0  0  0  0  0  0  0
  138.9100   68.1610  224.9120 O   0  0  0  0  0  0  0  0  0  0  0  0
  139.5420   69.9170  223.5820 N   0  0  0  0  0  0  0  0  0  0  0  0
  138.9340   69.2420  222.4080 C   0  0  0  0  0  0  0  0  0  0  0  0
  139.3911   69.6455  221.4925 H   0  0  0  0  0  0  0  0  0  0  0  0
  139.1191   68.1623  222.5085 H   0  0  0  0  0  0  0  0  0  0  0  0
  137.4010   69.4540  222.3340 C   0  0  1  0  0  0  0  0  0  0  0  0
  137.1533   69.6700  221.2842 H   0  0  0  0  0  0  0  0  0  0  0  0
  136.6680   68.1610  222.7790 C   0  0  0  0  0  0  0  0  0  0  0  0
  137.2428   67.6852  223.5872 H   0  0  0  0  0  0  0  0  0  0  0  0
  136.5881   67.4942  221.9078 H   0  0  0  0  0  0  0  0  0  0  0  0
  135.3110   68.4470  223.2640 N   0  0  0  0  0  0  0  0  0  0  0  0
  134.7900   68.9690  222.5210 H   0  0  0  0  0  0  0  0  0  0  0  0
  135.3290   69.2500  224.5030 C   0  0  0  0  0  0  0  0  0  0  0  0
  135.4464   68.5679  225.3580 H   0  0  0  0  0  0  0  0  0  0  0  0
  134.3815   69.8076  224.5402 H   0  0  0  0  0  0  0  0  0  0  0  0
  136.4700   70.2910  224.5480 C   0  0  0  0  0  0  0  0  0  0  0  0
  137.3276   69.8611  225.0862 H   0  0  0  0  0  0  0  0  0  0  0  0
  136.1021   71.1907  225.0629 H   0  0  0  0  0  0  0  0  0  0  0  0
  136.9120   70.6850  223.1370 C   0  0  0  0  0  0  0  0  0  0  0  0
  137.7325   71.4141  223.2094 H   0  0  0  0  0  0  0  0  0  0  0  0
  136.0486   71.1201  222.6124 H   0  0  0  0  0  0  0  0  0  0  0  0
  139.8190   74.3100  221.8930 C   0  0  0  0  0  0  0  0  0  0  0  0
  138.7580   75.5380  222.3310 S   0  0  0  0  0  0  0  0  0  0  0  0
  139.8450   76.8080  222.1580 C   0  0  0  0  0  0  0  0  0  0  0  0
  139.6289   77.8717  222.3363 H   0  0  0  0  0  0  0  0  0  0  0  0
  141.0630   76.2810  221.7510 C   0  0  0  0  0  0  0  0  0  0  0  0
  141.9525   76.9001  221.5628 H   0  0  0  0  0  0  0  0  0  0  0  0
  141.0550   74.8880  221.6020 C   0  0  0  0  0  0  0  0  0  0  0  0
  141.9351   74.3081  221.2871 H   0  0  0  0  0  0  0  0  0  0  0  0
  1  2  1  0
  2  3  2  0
  3  4  1  0
  3  5  1  0
  5  6  2  0
  6  7  1  0
  7  8  2  0
  8  9  1  0
  8 10  1  0
 10 11  1  0
 10 12  2  0
 12 13  1  0
 12 14  1  0
 14 15  1  0
 14 16  2  0
 16 17  1  0
 17 18  2  0
 17 19  1  0
 19 20  1  0
 20 21  1  0
 20 22  1  0
 20 23  1  0
 23 24  1  6
 23 25  1  0
 25 26  1  0
 25 27  1  0
 25 28  1  0
 28 29  1  0
 28 30  1  0
 30 31  1  0
 30 32  1  0
 30 33  1  0
 33 34  1  0
 33 35  1  0
 33 36  1  0
 36 37  1  0
 36 38  1  0
  2 39  1  0
 39 40  1  0
 40 41  1  0
 41 42  1  0
 41 43  2  0
 43 44  1  0
 43 45  1  0
 45 46  1  0
 19  5  1  0
 36 23  1  0
 45 39  2  0
 16  7  1  0
M  END
>  <UniqueID>  (48) 
398

>  <SMILES>  (48) 
O=c1c2ccccc2nc(/C=C/c2cccs2)n1C[C@@H]1CCCNC1

>  <Energy>  (48) 
90.51648997437069

>  <Genealogy>  (48) 
O=c1c2ccccc2nc(/C=C/c2cccs2)n1C[C@@H]1CCCNC1 (chirality)
O=c1c2ccccc2nc(/C=C/c2cccs2)n1C[C@@H]1CCCNC1 (cis-trans isomerization)
O=c1c2ccccc2nc(/C=C/c2cccs2)n1C[C@@H]1CCCNC1 (3D coordinates assigned)
O=c1c2ccccc2nc(/C=C/c2cccs2)n1C[C@@H]1CCCNC1 (nonaromatic ring conformer: 90.51648997437069 kcal/mol)

>  <smiles>  (48) 
O=c1c2ccccc2nc(/C=C/c2cccs2)n1CC1CCCNC1

>  <score_type>  (48) 
oracle

>  <origin>  (48) 
autodockgpu

>  <m_score__min__energy>  (48) 
-7.4100000000000001

>  <m_primary>  (48) 
energy

>  <meeko>  (48) 
{"free_energy": -7.05, "intermolecular_energy": -8.54, "internal_energy": -1.38, "cluster_size": 14, "cluster_id": 2, "rank_in_cluster": 13}

>  <energy>  (48) 
-7.15

>  <cluster_rmsd>  (48) 
0.03

>  <rmsd>  (48) 
269.84

>  <cluster>  (48) 
2

$$$$
RPPNBJKXHXGJEE-BOLDSZDNNA-N
     RDKit          3D

 46 49  0  0  0  0  0  0  0  0999 V2000
  137.9390   72.7289  221.7222 H   0  0  0  0  0  0  0  0  0  0  0  0
  139.0130   72.8480  221.9280 C   0  0  0  0  0  0  0  0  0  0  0  0
  139.7430   71.7480  222.1590 C   0  0  0  0  0  0  0  0  0  0  0  0
  140.3386   71.3210  221.3387 H   0  0  0  0  0  0  0  0  0  0  0  0
  139.7720   71.0870  223.4920 C   0  0  0  0  0  0  0  0  0  0  0  0
  140.3670   71.7600  224.5140 N   0  0  0  0  0  0  0  0  0  0  0  0
  140.4760   71.2390  225.7560 C   0  0  0  0  0  0  0  0  0  0  0  0
  141.1000   71.9740  226.7710 C   0  0  0  0  0  0  0  0  0  0  0  0
  141.5006   72.9760  226.5576 H   0  0  0  0  0  0  0  0  0  0  0  0
  141.2140   71.4350  228.0550 C   0  0  0  0  0  0  0  0  0  0  0  0
  141.7057   72.0125  228.8517 H   0  0  0  0  0  0  0  0  0  0  0  0
  140.7040   70.1630  228.3280 C   0  0  0  0  0  0  0  0  0  0  0  0
  140.7950   69.7410  229.3397 H   0  0  0  0  0  0  0  0  0  0  0  0
  140.0780   69.4250  227.3180 C   0  0  0  0  0  0  0  0  0  0  0  0
  139.6766   68.4245  227.5369 H   0  0  0  0  0  0  0  0  0  0  0  0
  139.9610   69.9620  226.0200 C   0  0  0  0  0  0  0  0  0  0  0  0
  139.3380   69.2660  224.9720 C   0  0  0  0  0  0  0  0  0  0  0  0
  138.8470   68.1230  225.1970 O   0  0  0  0  0  0  0  0  0  0  0  0
  139.2500   69.8240  223.7140 N   0  0  0  0  0  0  0  0  0  0  0  0
  138.5440   69.0630  222.6540 C   0  0  0  0  0  0  0  0  0  0  0  0
  138.9992   69.3053  221.6824 H   0  0  0  0  0  0  0  0  0  0  0  0
  138.6406   67.9927  222.8886 H   0  0  0  0  0  0  0  0  0  0  0  0
  137.0320   69.3990  222.5930 C   0  0  1  0  0  0  0  0  0  0  0  0
  136.8410   69.8638  221.6145 H   0  0  0  0  0  0  0  0  0  0  0  0
  136.1970   68.0960  222.7140 C   0  0  0  0  0  0  0  0  0  0  0  0
  136.7062   67.4088  223.4057 H   0  0  0  0  0  0  0  0  0  0  0  0
  136.1076   67.6506  221.7122 H   0  0  0  0  0  0  0  0  0  0  0  0
  134.8450   68.3650  223.2190 N   0  0  0  0  0  0  0  0  0  0  0  0
  134.3890   69.0780  222.6020 H   0  0  0  0  0  0  0  0  0  0  0  0
  134.8660   68.8640  224.6080 C   0  0  0  0  0  0  0  0  0  0  0  0
  134.9035   68.0000  225.2877 H   0  0  0  0  0  0  0  0  0  0  0  0
  133.9567   69.4668  224.7487 H   0  0  0  0  0  0  0  0  0  0  0  0
  136.0710   69.7810  224.9160 C   0  0  0  0  0  0  0  0  0  0  0  0
  136.8757   69.1786  225.3629 H   0  0  0  0  0  0  0  0  0  0  0  0
  135.7428   70.5663  225.6128 H   0  0  0  0  0  0  0  0  0  0  0  0
  136.5950   70.4490  223.6440 C   0  0  0  0  0  0  0  0  0  0  0  0
  137.4591   71.0794  223.9008 H   0  0  0  0  0  0  0  0  0  0  0  0
  135.7846   71.0545  223.2120 H   0  0  0  0  0  0  0  0  0  0  0  0
  139.5780   74.2100  221.9360 C   0  0  0  0  0  0  0  0  0  0  0  0
  138.7020   75.5820  222.3570 S   0  0  0  0  0  0  0  0  0  0  0  0
  139.9520   76.6850  222.1410 C   0  0  0  0  0  0  0  0  0  0  0  0
  139.8877   77.7721  222.2962 H   0  0  0  0  0  0  0  0  0  0  0  0
  141.0790   75.9860  221.7330 C   0  0  0  0  0  0  0  0  0  0  0  0
  142.0423   76.4722  221.5194 H   0  0  0  0  0  0  0  0  0  0  0  0
  140.8780   74.6050  221.6180 C   0  0  0  0  0  0  0  0  0  0  0  0
  141.6656   73.9023  221.3082 H   0  0  0  0  0  0  0  0  0  0  0  0
  1  2  1  0
  2  3  2  0
  3  4  1  0
  3  5  1  0
  5  6  2  0
  6  7  1  0
  7  8  2  0
  8  9  1  0
  8 10  1  0
 10 11  1  0
 10 12  2  0
 12 13  1  0
 12 14  1  0
 14 15  1  0
 14 16  2  0
 16 17  1  0
 17 18  2  0
 17 19  1  0
 19 20  1  0
 20 21  1  0
 20 22  1  0
 20 23  1  0
 23 24  1  6
 23 25  1  0
 25 26  1  0
 25 27  1  0
 25 28  1  0
 28 29  1  0
 28 30  1  0
 30 31  1  0
 30 32  1  0
 30 33  1  0
 33 34  1  0
 33 35  1  0
 33 36  1  0
 36 37  1  0
 36 38  1  0
  2 39  1  0
 39 40  1  0
 40 41  1  0
 41 42  1  0
 41 43  2  0
 43 44  1  0
 43 45  1  0
 45 46  1  0
 19  5  1  0
 36 23  1  0
 45 39  2  0
 16  7  1  0
M  END
>  <UniqueID>  (49) 
398

>  <SMILES>  (49) 
O=c1c2ccccc2nc(/C=C/c2cccs2)n1C[C@@H]1CCCNC1

>  <Energy>  (49) 
90.51648997437069

>  <Genealogy>  (49) 
O=c1c2ccccc2nc(/C=C/c2cccs2)n1C[C@@H]1CCCNC1 (chirality)
O=c1c2ccccc2nc(/C=C/c2cccs2)n1C[C@@H]1CCCNC1 (cis-trans isomerization)
O=c1c2ccccc2nc(/C=C/c2cccs2)n1C[C@@H]1CCCNC1 (3D coordinates assigned)
O=c1c2ccccc2nc(/C=C/c2cccs2)n1C[C@@H]1CCCNC1 (nonaromatic ring conformer: 90.51648997437069 kcal/mol)

>  <smiles>  (49) 
O=c1c2ccccc2nc(/C=C/c2cccs2)n1CC1CCCNC1

>  <score_type>  (49) 
oracle

>  <origin>  (49) 
autodockgpu

>  <m_score__min__energy>  (49) 
-7.4100000000000001

>  <m_primary>  (49) 
energy

>  <meeko>  (49) 
{"free_energy": -7.06, "intermolecular_energy": -8.55, "internal_energy": -1.32, "cluster_size": 14, "cluster_id": 2, "rank_in_cluster": 12}

>  <energy>  (49) 
-7.15

>  <cluster_rmsd>  (49) 
0.04

>  <rmsd>  (49) 
269.84

>  <cluster>  (49) 
2

$$$$
RPPNBJKXHXGJEE-BOLDSZDNNA-N
     RDKit          3D

 46 49  0  0  0  0  0  0  0  0999 V2000
  138.0642   72.7797  221.7925 H   0  0  0  0  0  0  0  0  0  0  0  0
  139.1340   72.9580  221.9760 C   0  0  0  0  0  0  0  0  0  0  0  0
  139.9220   71.9030  222.2210 C   0  0  0  0  0  0  0  0  0  0  0  0
  140.6231   71.5683  221.4423 H   0  0  0  0  0  0  0  0  0  0  0  0
  139.8770   71.1700  223.5160 C   0  0  0  0  0  0  0  0  0  0  0  0
  140.4090   71.7890  224.6050 N   0  0  0  0  0  0  0  0  0  0  0  0
  140.4480   71.2010  225.8220 C   0  0  0  0  0  0  0  0  0  0  0  0
  141.0080   71.8810  226.9100 C   0  0  0  0  0  0  0  0  0  0  0  0
  141.4144   72.8942  226.7749 H   0  0  0  0  0  0  0  0  0  0  0  0
  141.0510   71.2730  228.1680 C   0  0  0  0  0  0  0  0  0  0  0  0
  141.4934   71.8069  229.0219 H   0  0  0  0  0  0  0  0  0  0  0  0
  140.5320   69.9870  228.3410 C   0  0  0  0  0  0  0  0  0  0  0  0
  140.5664   69.5105  229.3318 H   0  0  0  0  0  0  0  0  0  0  0  0
  139.9690   69.3040  227.2580 C   0  0  0  0  0  0  0  0  0  0  0  0
  139.5603   68.2924  227.3985 H   0  0  0  0  0  0  0  0  0  0  0  0
  139.9250   69.9110  225.9870 C   0  0  0  0  0  0  0  0  0  0  0  0
  139.3670   69.2710  224.8670 C   0  0  0  0  0  0  0  0  0  0  0  0
  138.8700   68.1170  225.0020 O   0  0  0  0  0  0  0  0  0  0  0  0
  139.3490   69.8960  223.6390 N   0  0  0  0  0  0  0  0  0  0  0  0
  138.7090   69.1920  222.5000 C   0  0  0  0  0  0  0  0  0  0  0  0
  139.1591   69.5531  221.5635 H   0  0  0  0  0  0  0  0  0  0  0  0
  138.8744   68.1131  222.6367 H   0  0  0  0  0  0  0  0  0  0  0  0
  137.1800   69.4320  222.4420 C   0  0  1  0  0  0  0  0  0  0  0  0
  136.9427   69.7725  221.4233 H   0  0  0  0  0  0  0  0  0  0  0  0
  136.4270   68.1050  222.7290 C   0  0  0  0  0  0  0  0  0  0  0  0
  136.9894   67.5308  223.4800 H   0  0  0  0  0  0  0  0  0  0  0  0
  136.3457   67.5449  221.7858 H   0  0  0  0  0  0  0  0  0  0  0  0
  135.0710   68.3510  223.2350 N   0  0  0  0  0  0  0  0  0  0  0  0
  134.5610   68.9630  222.5550 H   0  0  0  0  0  0  0  0  0  0  0  0
  135.0890   69.0030  224.5590 C   0  0  0  0  0  0  0  0  0  0  0  0
  135.1912   68.2241  225.3290 H   0  0  0  0  0  0  0  0  0  0  0  0
  134.1482   69.5648  224.6551 H   0  0  0  0  0  0  0  0  0  0  0  0
  136.2430   70.0170  224.7330 C   0  0  0  0  0  0  0  0  0  0  0  0
  137.0908   69.5159  225.2229 H   0  0  0  0  0  0  0  0  0  0  0  0
  135.8821   70.8552  225.3472 H   0  0  0  0  0  0  0  0  0  0  0  0
  136.7010   70.5670  223.3810 C   0  0  0  0  0  0  0  0  0  0  0  0
  137.5304   71.2711  223.5434 H   0  0  0  0  0  0  0  0  0  0  0  0
  135.8474   71.0724  222.9057 H   0  0  0  0  0  0  0  0  0  0  0  0
  139.6290   74.3470  221.9400 C   0  0  0  0  0  0  0  0  0  0  0  0
  138.6910   75.6840  222.3360 S   0  0  0  0  0  0  0  0  0  0  0  0
  139.8800   76.8420  222.0750 C   0  0  0  0  0  0  0  0  0  0  0  0
  139.7621   77.9282  222.2022 H   0  0  0  0  0  0  0  0  0  0  0  0
  141.0370   76.1900  221.6710 C   0  0  0  0  0  0  0  0  0  0  0  0
  141.9722   76.7181  221.4332 H   0  0  0  0  0  0  0  0  0  0  0  0
  140.9040   74.7980  221.5940 C   0  0  0  0  0  0  0  0  0  0  0  0
  141.7219   74.1275  221.2913 H   0  0  0  0  0  0  0  0  0  0  0  0
  1  2  1  0
  2  3  2  0
  3  4  1  0
  3  5  1  0
  5  6  2  0
  6  7  1  0
  7  8  2  0
  8  9  1  0
  8 10  1  0
 10 11  1  0
 10 12  2  0
 12 13  1  0
 12 14  1  0
 14 15  1  0
 14 16  2  0
 16 17  1  0
 17 18  2  0
 17 19  1  0
 19 20  1  0
 20 21  1  0
 20 22  1  0
 20 23  1  0
 23 24  1  6
 23 25  1  0
 25 26  1  0
 25 27  1  0
 25 28  1  0
 28 29  1  0
 28 30  1  0
 30 31  1  0
 30 32  1  0
 30 33  1  0
 33 34  1  0
 33 35  1  0
 33 36  1  0
 36 37  1  0
 36 38  1  0
  2 39  1  0
 39 40  1  0
 40 41  1  0
 41 42  1  0
 41 43  2  0
 43 44  1  0
 43 45  1  0
 45 46  1  0
 19  5  1  0
 36 23  1  0
 45 39  2  0
 16  7  1  0
M  END
>  <UniqueID>  (50) 
398

>  <SMILES>  (50) 
O=c1c2ccccc2nc(/C=C/c2cccs2)n1C[C@@H]1CCCNC1

>  <Energy>  (50) 
90.51648997437069

>  <Genealogy>  (50) 
O=c1c2ccccc2nc(/C=C/c2cccs2)n1C[C@@H]1CCCNC1 (chirality)
O=c1c2ccccc2nc(/C=C/c2cccs2)n1C[C@@H]1CCCNC1 (cis-trans isomerization)
O=c1c2ccccc2nc(/C=C/c2cccs2)n1C[C@@H]1CCCNC1 (3D coordinates assigned)
O=c1c2ccccc2nc(/C=C/c2cccs2)n1C[C@@H]1CCCNC1 (nonaromatic ring conformer: 90.51648997437069 kcal/mol)

>  <smiles>  (50) 
O=c1c2ccccc2nc(/C=C/c2cccs2)n1CC1CCCNC1

>  <score_type>  (50) 
oracle

>  <origin>  (50) 
autodockgpu

>  <m_score__min__energy>  (50) 
-7.4100000000000001

>  <m_primary>  (50) 
energy

>  <meeko>  (50) 
{"free_energy": -7.15, "intermolecular_energy": -8.64, "internal_energy": -1.33, "cluster_size": 14, "cluster_id": 2, "rank_in_cluster": 2}

>  <energy>  (50) 
-7.12

>  <cluster_rmsd>  (50) 
0.6

>  <rmsd>  (50) 
269.85

>  <cluster>  (50) 
2

$$$$
RPPNBJKXHXGJEE-BOLDSZDNNA-N
     RDKit          3D

 46 49  0  0  0  0  0  0  0  0999 V2000
  138.0617   72.7831  221.8390 H   0  0  0  0  0  0  0  0  0  0  0  0
  139.1370   72.9500  222.0000 C   0  0  0  0  0  0  0  0  0  0  0  0
  139.9190   71.8870  222.2300 C   0  0  0  0  0  0  0  0  0  0  0  0
  140.6087   71.5517  221.4414 H   0  0  0  0  0  0  0  0  0  0  0  0
  139.8830   71.1460  223.5200 C   0  0  0  0  0  0  0  0  0  0  0  0
  140.4140   71.7620  224.6120 N   0  0  0  0  0  0  0  0  0  0  0  0
  140.4600   71.1670  225.8250 C   0  0  0  0  0  0  0  0  0  0  0  0
  141.0200   71.8450  226.9150 C   0  0  0  0  0  0  0  0  0  0  0  0
  141.4203   72.8612  226.7842 H   0  0  0  0  0  0  0  0  0  0  0  0
  141.0700   71.2300  228.1690 C   0  0  0  0  0  0  0  0  0  0  0  0
  141.5113   71.7621  229.0247 H   0  0  0  0  0  0  0  0  0  0  0  0
  140.5600   69.9400  228.3370 C   0  0  0  0  0  0  0  0  0  0  0  0
  140.6003   69.4585  229.3252 H   0  0  0  0  0  0  0  0  0  0  0  0
  139.9980   69.2590  227.2510 C   0  0  0  0  0  0  0  0  0  0  0  0
  139.5967   68.2439  227.3868 H   0  0  0  0  0  0  0  0  0  0  0  0
  139.9460   69.8730  225.9840 C   0  0  0  0  0  0  0  0  0  0  0  0
  139.3890   69.2370  224.8630 C   0  0  0  0  0  0  0  0  0  0  0  0
  138.8990   68.0780  224.9920 O   0  0  0  0  0  0  0  0  0  0  0  0
  139.3630   69.8680  223.6380 N   0  0  0  0  0  0  0  0  0  0  0  0
  138.7240   69.1670  222.4970 C   0  0  0  0  0  0  0  0  0  0  0  0
  139.1767   69.5285  221.5619 H   0  0  0  0  0  0  0  0  0  0  0  0
  138.8869   68.0876  222.6327 H   0  0  0  0  0  0  0  0  0  0  0  0
  137.1950   69.4100  222.4360 C   0  0  1  0  0  0  0  0  0  0  0  0
  136.9601   69.7537  221.4178 H   0  0  0  0  0  0  0  0  0  0  0  0
  136.4390   68.0840  222.7170 C   0  0  0  0  0  0  0  0  0  0  0  0
  136.9987   67.5062  223.4673 H   0  0  0  0  0  0  0  0  0  0  0  0
  136.3586   67.5272  221.7717 H   0  0  0  0  0  0  0  0  0  0  0  0
  135.0820   68.3310  223.2210 N   0  0  0  0  0  0  0  0  0  0  0  0
  134.5760   68.9460  222.5420 H   0  0  0  0  0  0  0  0  0  0  0  0
  135.0990   68.9800  224.5470 C   0  0  0  0  0  0  0  0  0  0  0  0
  135.1977   68.1990  225.3153 H   0  0  0  0  0  0  0  0  0  0  0  0
  134.1594   69.5440  224.6423 H   0  0  0  0  0  0  0  0  0  0  0  0
  136.2540   69.9900  224.7260 C   0  0  0  0  0  0  0  0  0  0  0  0
  137.0994   69.4855  225.2166 H   0  0  0  0  0  0  0  0  0  0  0  0
  135.8932   70.8274  225.3413 H   0  0  0  0  0  0  0  0  0  0  0  0
  136.7170   70.5430  223.3770 C   0  0  0  0  0  0  0  0  0  0  0  0
  137.5480   71.2442  223.5438 H   0  0  0  0  0  0  0  0  0  0  0  0
  135.8660   71.0523  222.9011 H   0  0  0  0  0  0  0  0  0  0  0  0
  139.6470   74.3340  221.9520 C   0  0  0  0  0  0  0  0  0  0  0  0
  138.7230   75.6830  222.3410 S   0  0  0  0  0  0  0  0  0  0  0  0
  139.9230   76.8270  222.0660 C   0  0  0  0  0  0  0  0  0  0  0  0
  139.8168   77.9154  222.1848 H   0  0  0  0  0  0  0  0  0  0  0  0
  141.0710   76.1600  221.6630 C   0  0  0  0  0  0  0  0  0  0  0  0
  142.0105   76.6766  221.4171 H   0  0  0  0  0  0  0  0  0  0  0  0
  140.9240   74.7690  221.5980 C   0  0  0  0  0  0  0  0  0  0  0  0
  141.7340   74.0880  221.2980 H   0  0  0  0  0  0  0  0  0  0  0  0
  1  2  1  0
  2  3  2  0
  3  4  1  0
  3  5  1  0
  5  6  2  0
  6  7  1  0
  7  8  2  0
  8  9  1  0
  8 10  1  0
 10 11  1  0
 10 12  2  0
 12 13  1  0
 12 14  1  0
 14 15  1  0
 14 16  2  0
 16 17  1  0
 17 18  2  0
 17 19  1  0
 19 20  1  0
 20 21  1  0
 20 22  1  0
 20 23  1  0
 23 24  1  6
 23 25  1  0
 25 26  1  0
 25 27  1  0
 25 28  1  0
 28 29  1  0
 28 30  1  0
 30 31  1  0
 30 32  1  0
 30 33  1  0
 33 34  1  0
 33 35  1  0
 33 36  1  0
 36 37  1  0
 36 38  1  0
  2 39  1  0
 39 40  1  0
 40 41  1  0
 41 42  1  0
 41 43  2  0
 43 44  1  0
 43 45  1  0
 45 46  1  0
 19  5  1  0
 36 23  1  0
 45 39  2  0
 16  7  1  0
M  END
>  <UniqueID>  (51) 
398

>  <SMILES>  (51) 
O=c1c2ccccc2nc(/C=C/c2cccs2)n1C[C@@H]1CCCNC1

>  <Energy>  (51) 
90.51648997437069

>  <Genealogy>  (51) 
O=c1c2ccccc2nc(/C=C/c2cccs2)n1C[C@@H]1CCCNC1 (chirality)
O=c1c2ccccc2nc(/C=C/c2cccs2)n1C[C@@H]1CCCNC1 (cis-trans isomerization)
O=c1c2ccccc2nc(/C=C/c2cccs2)n1C[C@@H]1CCCNC1 (3D coordinates assigned)
O=c1c2ccccc2nc(/C=C/c2cccs2)n1C[C@@H]1CCCNC1 (nonaromatic ring conformer: 90.51648997437069 kcal/mol)

>  <smiles>  (51) 
O=c1c2ccccc2nc(/C=C/c2cccs2)n1CC1CCCNC1

>  <score_type>  (51) 
oracle

>  <origin>  (51) 
autodockgpu

>  <m_score__min__energy>  (51) 
-7.4100000000000001

>  <m_primary>  (51) 
energy

>  <meeko>  (51) 
{"free_energy": -7.15, "intermolecular_energy": -8.64, "internal_energy": -1.33, "cluster_size": 14, "cluster_id": 2, "rank_in_cluster": 3}

>  <energy>  (51) 
-7.12

>  <cluster_rmsd>  (51) 
0.6

>  <rmsd>  (51) 
269.83

>  <cluster>  (51) 
2

$$$$
RPPNBJKXHXGJEE-BOLDSZDNNA-N
     RDKit          3D

 46 49  0  0  0  0  0  0  0  0999 V2000
  140.9514   70.7908  220.7455 H   0  0  0  0  0  0  0  0  0  0  0  0
  141.0900   71.7210  221.3160 C   0  0  0  0  0  0  0  0  0  0  0  0
  140.1990   72.0220  222.2700 C   0  0  0  0  0  0  0  0  0  0  0  0
  139.5157   72.8697  222.1135 H   0  0  0  0  0  0  0  0  0  0  0  0
  140.1060   71.2440  223.5350 C   0  0  0  0  0  0  0  0  0  0  0  0
  140.5830   71.8300  224.6680 N   0  0  0  0  0  0  0  0  0  0  0  0
  140.5750   71.2010  225.8650 C   0  0  0  0  0  0  0  0  0  0  0  0
  141.0800   71.8490  226.9980 C   0  0  0  0  0  0  0  0  0  0  0  0
  141.4809   72.8700  226.9148 H   0  0  0  0  0  0  0  0  0  0  0  0
  141.0750   71.1990  228.2350 C   0  0  0  0  0  0  0  0  0  0  0  0
  141.4733   71.7080  229.1251 H   0  0  0  0  0  0  0  0  0  0  0  0
  140.5640   69.9020  228.3420 C   0  0  0  0  0  0  0  0  0  0  0  0
  140.5608   69.3923  229.3168 H   0  0  0  0  0  0  0  0  0  0  0  0
  140.0570   69.2510  227.2130 C   0  0  0  0  0  0  0  0  0  0  0  0
  139.6548   68.2310  227.3011 H   0  0  0  0  0  0  0  0  0  0  0  0
  140.0610   69.9010  225.9620 C   0  0  0  0  0  0  0  0  0  0  0  0
  139.5600   69.2950  224.7980 C   0  0  0  0  0  0  0  0  0  0  0  0
  139.0700   68.1320  224.8710 O   0  0  0  0  0  0  0  0  0  0  0  0
  139.5880   69.9620  223.5920 N   0  0  0  0  0  0  0  0  0  0  0  0
  139.0060   69.2910  222.4030 C   0  0  0  0  0  0  0  0  0  0  0  0
  139.4603   69.7199  221.4977 H   0  0  0  0  0  0  0  0  0  0  0  0
  139.2167   68.2148  222.4888 H   0  0  0  0  0  0  0  0  0  0  0  0
  137.4690   69.4660  222.3190 C   0  0  1  0  0  0  0  0  0  0  0  0
  137.2211   69.6700  221.2669 H   0  0  0  0  0  0  0  0  0  0  0  0
  136.7640   68.1580  222.7670 C   0  0  0  0  0  0  0  0  0  0  0  0
  137.3454   67.6999  223.5807 H   0  0  0  0  0  0  0  0  0  0  0  0
  136.7045   67.4848  221.8991 H   0  0  0  0  0  0  0  0  0  0  0  0
  135.3990   68.4150  223.2430 N   0  0  0  0  0  0  0  0  0  0  0  0
  134.8690   68.9210  222.4940 H   0  0  0  0  0  0  0  0  0  0  0  0
  135.3900   69.2240  224.4770 C   0  0  0  0  0  0  0  0  0  0  0  0
  135.5182   68.5494  225.3364 H   0  0  0  0  0  0  0  0  0  0  0  0
  134.4293   69.7590  224.5058 H   0  0  0  0  0  0  0  0  0  0  0  0
  136.5060   70.2920  224.5230 C   0  0  0  0  0  0  0  0  0  0  0  0
  137.3700   69.8850  225.0687 H   0  0  0  0  0  0  0  0  0  0  0  0
  136.1130   71.1853  225.0305 H   0  0  0  0  0  0  0  0  0  0  0  0
  136.9480   70.6900  223.1140 C   0  0  0  0  0  0  0  0  0  0  0  0
  137.7519   71.4371  223.1886 H   0  0  0  0  0  0  0  0  0  0  0  0
  136.0788   71.1043  222.5821 H   0  0  0  0  0  0  0  0  0  0  0  0
  142.2480   72.5760  220.9930 C   0  0  0  0  0  0  0  0  0  0  0  0
  142.1440   74.2360  220.7480 S   0  0  0  0  0  0  0  0  0  0  0  0
  143.7770   74.4920  220.4460 C   0  0  0  0  0  0  0  0  0  0  0  0
  144.2476   75.4598  220.2182 H   0  0  0  0  0  0  0  0  0  0  0  0
  144.4290   73.2690  220.5340 C   0  0  0  0  0  0  0  0  0  0  0  0
  145.5116   73.1531  220.3776 H   0  0  0  0  0  0  0  0  0  0  0  0
  143.5820   72.1970  220.8400 C   0  0  0  0  0  0  0  0  0  0  0  0
  143.9330   71.1602  220.9488 H   0  0  0  0  0  0  0  0  0  0  0  0
  1  2  1  0
  2  3  2  0
  3  4  1  0
  3  5  1  0
  5  6  2  0
  6  7  1  0
  7  8  2  0
  8  9  1  0
  8 10  1  0
 10 11  1  0
 10 12  2  0
 12 13  1  0
 12 14  1  0
 14 15  1  0
 14 16  2  0
 16 17  1  0
 17 18  2  0
 17 19  1  0
 19 20  1  0
 20 21  1  0
 20 22  1  0
 20 23  1  0
 23 24  1  6
 23 25  1  0
 25 26  1  0
 25 27  1  0
 25 28  1  0
 28 29  1  0
 28 30  1  0
 30 31  1  0
 30 32  1  0
 30 33  1  0
 33 34  1  0
 33 35  1  0
 33 36  1  0
 36 37  1  0
 36 38  1  0
  2 39  1  0
 39 40  1  0
 40 41  1  0
 41 42  1  0
 41 43  2  0
 43 44  1  0
 43 45  1  0
 45 46  1  0
 19  5  1  0
 36 23  1  0
 45 39  2  0
 16  7  1  0
M  END
>  <UniqueID>  (52) 
398

>  <SMILES>  (52) 
O=c1c2ccccc2nc(/C=C/c2cccs2)n1C[C@@H]1CCCNC1

>  <Energy>  (52) 
90.51648997437069

>  <Genealogy>  (52) 
O=c1c2ccccc2nc(/C=C/c2cccs2)n1C[C@@H]1CCCNC1 (chirality)
O=c1c2ccccc2nc(/C=C/c2cccs2)n1C[C@@H]1CCCNC1 (cis-trans isomerization)
O=c1c2ccccc2nc(/C=C/c2cccs2)n1C[C@@H]1CCCNC1 (3D coordinates assigned)
O=c1c2ccccc2nc(/C=C/c2cccs2)n1C[C@@H]1CCCNC1 (nonaromatic ring conformer: 90.51648997437069 kcal/mol)

>  <smiles>  (52) 
O=c1c2ccccc2nc(/C=C/c2cccs2)n1CC1CCCNC1

>  <score_type>  (52) 
oracle

>  <origin>  (52) 
autodockgpu

>  <m_score__min__energy>  (52) 
-7.4100000000000001

>  <m_primary>  (52) 
energy

>  <meeko>  (52) 
{"free_energy": -7.1, "intermolecular_energy": -8.59, "internal_energy": -1.27, "cluster_size": 14, "cluster_id": 2, "rank_in_cluster": 7}

>  <energy>  (52) 
-7.1

>  <cluster_rmsd>  (52) 
1.71

>  <rmsd>  (52) 
269.9

>  <cluster>  (52) 
2

$$$$
RPPNBJKXHXGJEE-BOLDSZDNNA-N
     RDKit          3D

 46 49  0  0  0  0  0  0  0  0999 V2000
  139.8815   73.8914  222.3474 H   0  0  0  0  0  0  0  0  0  0  0  0
  140.4670   73.0630  221.9220 C   0  0  0  0  0  0  0  0  0  0  0  0
  139.9900   71.8170  222.0440 C   0  0  0  0  0  0  0  0  0  0  0  0
  139.6404   71.2890  221.1445 H   0  0  0  0  0  0  0  0  0  0  0  0
  139.9190   71.1260  223.3600 C   0  0  0  0  0  0  0  0  0  0  0  0
  140.4540   71.7670  224.4350 N   0  0  0  0  0  0  0  0  0  0  0  0
  140.4700   71.2170  225.6700 C   0  0  0  0  0  0  0  0  0  0  0  0
  141.0350   71.9190  226.7410 C   0  0  0  0  0  0  0  0  0  0  0  0
  141.4641   72.9187  226.5781 H   0  0  0  0  0  0  0  0  0  0  0  0
  141.0540   71.3500  228.0170 C   0  0  0  0  0  0  0  0  0  0  0  0
  141.4993   71.9018  228.8580 H   0  0  0  0  0  0  0  0  0  0  0  0
  140.5080   70.0810  228.2260 C   0  0  0  0  0  0  0  0  0  0  0  0
  140.5239   69.6358  229.2317 H   0  0  0  0  0  0  0  0  0  0  0  0
  139.9410   69.3750  227.1590 C   0  0  0  0  0  0  0  0  0  0  0  0
  139.5116   68.3763  227.3268 H   0  0  0  0  0  0  0  0  0  0  0  0
  139.9200   69.9430  225.8700 C   0  0  0  0  0  0  0  0  0  0  0  0
  139.3590   69.2800  224.7650 C   0  0  0  0  0  0  0  0  0  0  0  0
  138.8370   68.1410  224.9310 O   0  0  0  0  0  0  0  0  0  0  0  0
  139.3640   69.8670  223.5180 N   0  0  0  0  0  0  0  0  0  0  0  0
  138.7200   69.1410  222.3960 C   0  0  0  0  0  0  0  0  0  0  0  0
  139.1670   69.4833  221.4510 H   0  0  0  0  0  0  0  0  0  0  0  0
  138.8855   68.0651  222.5540 H   0  0  0  0  0  0  0  0  0  0  0  0
  137.1900   69.3800  222.3380 C   0  0  1  0  0  0  0  0  0  0  0  0
  136.9418   69.6499  221.3009 H   0  0  0  0  0  0  0  0  0  0  0  0
  136.4380   68.0780  222.7240 C   0  0  0  0  0  0  0  0  0  0  0  0
  137.0079   67.5554  223.5064 H   0  0  0  0  0  0  0  0  0  0  0  0
  136.3450   67.4549  221.8223 H   0  0  0  0  0  0  0  0  0  0  0  0
  135.0880   68.3610  223.2270 N   0  0  0  0  0  0  0  0  0  0  0  0
  134.5730   68.9270  222.5130 H   0  0  0  0  0  0  0  0  0  0  0  0
  135.1230   69.1030  224.5030 C   0  0  0  0  0  0  0  0  0  0  0  0
  135.2322   68.3787  225.3236 H   0  0  0  0  0  0  0  0  0  0  0  0
  134.1848   69.6733  224.5705 H   0  0  0  0  0  0  0  0  0  0  0  0
  136.2800   70.1220  224.5940 C   0  0  0  0  0  0  0  0  0  0  0  0
  137.1323   69.6527  225.1071 H   0  0  0  0  0  0  0  0  0  0  0  0
  135.9277   71.0011  225.1535 H   0  0  0  0  0  0  0  0  0  0  0  0
  136.7240   70.5780  223.2030 C   0  0  0  0  0  0  0  0  0  0  0  0
  137.5567   71.2890  223.3082 H   0  0  0  0  0  0  0  0  0  0  0  0
  135.8664   71.0528  222.7039 H   0  0  0  0  0  0  0  0  0  0  0  0
  141.7390   73.3780  221.2450 C   0  0  0  0  0  0  0  0  0  0  0  0
  142.8880   72.2230  220.8310 S   0  0  0  0  0  0  0  0  0  0  0  0
  143.9890   73.2840  220.1330 C   0  0  0  0  0  0  0  0  0  0  0  0
  144.9564   73.0096  219.6872 H   0  0  0  0  0  0  0  0  0  0  0  0
  143.4650   74.5670  220.2170 C   0  0  0  0  0  0  0  0  0  0  0  0
  143.9875   75.4555  219.8327 H   0  0  0  0  0  0  0  0  0  0  0  0
  142.2100   74.6260  220.8360 C   0  0  0  0  0  0  0  0  0  0  0  0
  141.6518   75.5621  220.9847 H   0  0  0  0  0  0  0  0  0  0  0  0
  1  2  1  0
  2  3  2  0
  3  4  1  0
  3  5  1  0
  5  6  2  0
  6  7  1  0
  7  8  2  0
  8  9  1  0
  8 10  1  0
 10 11  1  0
 10 12  2  0
 12 13  1  0
 12 14  1  0
 14 15  1  0
 14 16  2  0
 16 17  1  0
 17 18  2  0
 17 19  1  0
 19 20  1  0
 20 21  1  0
 20 22  1  0
 20 23  1  0
 23 24  1  6
 23 25  1  0
 25 26  1  0
 25 27  1  0
 25 28  1  0
 28 29  1  0
 28 30  1  0
 30 31  1  0
 30 32  1  0
 30 33  1  0
 33 34  1  0
 33 35  1  0
 33 36  1  0
 36 37  1  0
 36 38  1  0
  2 39  1  0
 39 40  1  0
 40 41  1  0
 41 42  1  0
 41 43  2  0
 43 44  1  0
 43 45  1  0
 45 46  1  0
 19  5  1  0
 36 23  1  0
 45 39  2  0
 16  7  1  0
M  END
>  <UniqueID>  (53) 
398

>  <SMILES>  (53) 
O=c1c2ccccc2nc(/C=C/c2cccs2)n1C[C@@H]1CCCNC1

>  <Energy>  (53) 
90.51648997437069

>  <Genealogy>  (53) 
O=c1c2ccccc2nc(/C=C/c2cccs2)n1C[C@@H]1CCCNC1 (chirality)
O=c1c2ccccc2nc(/C=C/c2cccs2)n1C[C@@H]1CCCNC1 (cis-trans isomerization)
O=c1c2ccccc2nc(/C=C/c2cccs2)n1C[C@@H]1CCCNC1 (3D coordinates assigned)
O=c1c2ccccc2nc(/C=C/c2cccs2)n1C[C@@H]1CCCNC1 (nonaromatic ring conformer: 90.51648997437069 kcal/mol)

>  <smiles>  (53) 
O=c1c2ccccc2nc(/C=C/c2cccs2)n1CC1CCCNC1

>  <score_type>  (53) 
oracle

>  <origin>  (53) 
autodockgpu

>  <m_score__min__energy>  (53) 
-7.4100000000000001

>  <m_primary>  (53) 
energy

>  <meeko>  (53) 
{"free_energy": -7.08, "intermolecular_energy": -8.57, "internal_energy": -1.26, "cluster_size": 14, "cluster_id": 2, "rank_in_cluster": 11}

>  <energy>  (53) 
-7.1

>  <cluster_rmsd>  (53) 
1.6

>  <rmsd>  (53) 
269.92

>  <cluster>  (53) 
2

$$$$
RPPNBJKXHXGJEE-BOLDSZDNNA-N
     RDKit          3D

 46 49  0  0  0  0  0  0  0  0999 V2000
  138.1970   72.7453  221.7425 H   0  0  0  0  0  0  0  0  0  0  0  0
  139.2520   72.9650  221.9630 C   0  0  0  0  0  0  0  0  0  0  0  0
  140.0710   71.9420  222.2420 C   0  0  0  0  0  0  0  0  0  0  0  0
  140.8334   71.6522  221.5039 H   0  0  0  0  0  0  0  0  0  0  0  0
  139.9800   71.1860  223.5210 C   0  0  0  0  0  0  0  0  0  0  0  0
  140.4910   71.7770  224.6360 N   0  0  0  0  0  0  0  0  0  0  0  0
  140.4880   71.1670  225.8420 C   0  0  0  0  0  0  0  0  0  0  0  0
  141.0280   71.8190  226.9570 C   0  0  0  0  0  0  0  0  0  0  0  0
  141.4531   72.8280  226.8516 H   0  0  0  0  0  0  0  0  0  0  0  0
  141.0270   71.1880  228.2040 C   0  0  0  0  0  0  0  0  0  0  0  0
  141.4515   71.7007  229.0798 H   0  0  0  0  0  0  0  0  0  0  0  0
  140.4870   69.9060  228.3390 C   0  0  0  0  0  0  0  0  0  0  0  0
  140.4884   69.4109  229.3213 H   0  0  0  0  0  0  0  0  0  0  0  0
  139.9450   69.2510  227.2290 C   0  0  0  0  0  0  0  0  0  0  0  0
  139.5189   68.2430  227.3399 H   0  0  0  0  0  0  0  0  0  0  0  0
  139.9440   69.8810  225.9680 C   0  0  0  0  0  0  0  0  0  0  0  0
  139.4080   69.2700  224.8220 C   0  0  0  0  0  0  0  0  0  0  0  0
  138.8920   68.1210  224.9220 O   0  0  0  0  0  0  0  0  0  0  0  0
  139.4330   69.9180  223.6060 N   0  0  0  0  0  0  0  0  0  0  0  0
  138.8150   69.2440  222.4370 C   0  0  0  0  0  0  0  0  0  0  0  0
  139.2688   69.6437  221.5181 H   0  0  0  0  0  0  0  0  0  0  0  0
  138.9954   68.1637  222.5387 H   0  0  0  0  0  0  0  0  0  0  0  0
  137.2820   69.4630  222.3710 C   0  0  1  0  0  0  0  0  0  0  0  0
  137.0315   69.6978  221.3260 H   0  0  0  0  0  0  0  0  0  0  0  0
  136.5450   68.1650  222.7960 C   0  0  0  0  0  0  0  0  0  0  0  0
  137.1206   67.6730  223.5938 H   0  0  0  0  0  0  0  0  0  0  0  0
  136.4595   67.5141  221.9134 H   0  0  0  0  0  0  0  0  0  0  0  0
  135.1920   68.4470  223.2900 N   0  0  0  0  0  0  0  0  0  0  0  0
  134.6700   68.9840  222.5580 H   0  0  0  0  0  0  0  0  0  0  0  0
  135.2160   69.2290  224.5420 C   0  0  0  0  0  0  0  0  0  0  0  0
  135.3324   68.5322  225.3852 H   0  0  0  0  0  0  0  0  0  0  0  0
  134.2710   69.7898  224.5905 H   0  0  0  0  0  0  0  0  0  0  0  0
  136.3610   70.2640  224.6020 C   0  0  0  0  0  0  0  0  0  0  0  0
  137.2183   69.8209  225.1299 H   0  0  0  0  0  0  0  0  0  0  0  0
  135.9977   71.1558  225.1338 H   0  0  0  0  0  0  0  0  0  0  0  0
  136.8010   70.6820  223.1980 C   0  0  0  0  0  0  0  0  0  0  0  0
  137.6252   71.4057  223.2816 H   0  0  0  0  0  0  0  0  0  0  0  0
  135.9385   71.1312  222.6838 H   0  0  0  0  0  0  0  0  0  0  0  0
  139.6960   74.3720  221.9370 C   0  0  0  0  0  0  0  0  0  0  0  0
  138.7090   75.6700  222.3460 S   0  0  0  0  0  0  0  0  0  0  0  0
  139.8540   76.8740  222.0910 C   0  0  0  0  0  0  0  0  0  0  0  0
  139.6963   77.9542  222.2263 H   0  0  0  0  0  0  0  0  0  0  0  0
  141.0330   76.2680  221.6800 C   0  0  0  0  0  0  0  0  0  0  0  0
  141.9474   76.8321  221.4442 H   0  0  0  0  0  0  0  0  0  0  0  0
  140.9520   74.8730  221.5930 C   0  0  0  0  0  0  0  0  0  0  0  0
  141.7940   74.2359  221.2845 H   0  0  0  0  0  0  0  0  0  0  0  0
  1  2  1  0
  2  3  2  0
  3  4  1  0
  3  5  1  0
  5  6  2  0
  6  7  1  0
  7  8  2  0
  8  9  1  0
  8 10  1  0
 10 11  1  0
 10 12  2  0
 12 13  1  0
 12 14  1  0
 14 15  1  0
 14 16  2  0
 16 17  1  0
 17 18  2  0
 17 19  1  0
 19 20  1  0
 20 21  1  0
 20 22  1  0
 20 23  1  0
 23 24  1  6
 23 25  1  0
 25 26  1  0
 25 27  1  0
 25 28  1  0
 28 29  1  0
 28 30  1  0
 30 31  1  0
 30 32  1  0
 30 33  1  0
 33 34  1  0
 33 35  1  0
 33 36  1  0
 36 37  1  0
 36 38  1  0
  2 39  1  0
 39 40  1  0
 40 41  1  0
 41 42  1  0
 41 43  2  0
 43 44  1  0
 43 45  1  0
 45 46  1  0
 19  5  1  0
 36 23  1  0
 45 39  2  0
 16  7  1  0
M  END
>  <UniqueID>  (54) 
398

>  <SMILES>  (54) 
O=c1c2ccccc2nc(/C=C/c2cccs2)n1C[C@@H]1CCCNC1

>  <Energy>  (54) 
90.51648997437069

>  <Genealogy>  (54) 
O=c1c2ccccc2nc(/C=C/c2cccs2)n1C[C@@H]1CCCNC1 (chirality)
O=c1c2ccccc2nc(/C=C/c2cccs2)n1C[C@@H]1CCCNC1 (cis-trans isomerization)
O=c1c2ccccc2nc(/C=C/c2cccs2)n1C[C@@H]1CCCNC1 (3D coordinates assigned)
O=c1c2ccccc2nc(/C=C/c2cccs2)n1C[C@@H]1CCCNC1 (nonaromatic ring conformer: 90.51648997437069 kcal/mol)

>  <smiles>  (54) 
O=c1c2ccccc2nc(/C=C/c2cccs2)n1CC1CCCNC1

>  <score_type>  (54) 
oracle

>  <origin>  (54) 
autodockgpu

>  <m_score__min__energy>  (54) 
-7.4100000000000001

>  <m_primary>  (54) 
energy

>  <meeko>  (54) 
{"free_energy": -7.09, "intermolecular_energy": -8.58, "internal_energy": -1.37, "cluster_size": 14, "cluster_id": 2, "rank_in_cluster": 9}

>  <energy>  (54) 
-7.09

>  <cluster_rmsd>  (54) 
1.58

>  <rmsd>  (54) 
269.93

>  <cluster>  (54) 
2

$$$$
RPPNBJKXHXGJEE-BOLDSZDNNA-N
     RDKit          3D

 46 49  0  0  0  0  0  0  0  0999 V2000
  138.0775   72.7868  221.7996 H   0  0  0  0  0  0  0  0  0  0  0  0
  139.1490   72.9590  221.9790 C   0  0  0  0  0  0  0  0  0  0  0  0
  139.9320   71.8990  222.2220 C   0  0  0  0  0  0  0  0  0  0  0  0
  140.6271   71.5585  221.4404 H   0  0  0  0  0  0  0  0  0  0  0  0
  139.8890   71.1690  223.5180 C   0  0  0  0  0  0  0  0  0  0  0  0
  140.4300   71.7860  224.6040 N   0  0  0  0  0  0  0  0  0  0  0  0
  140.4720   71.2010  225.8220 C   0  0  0  0  0  0  0  0  0  0  0  0
  141.0420   71.8800  226.9050 C   0  0  0  0  0  0  0  0  0  0  0  0
  141.4545   72.8902  226.7656 H   0  0  0  0  0  0  0  0  0  0  0  0
  141.0870   71.2740  228.1640 C   0  0  0  0  0  0  0  0  0  0  0  0
  141.5352   71.8076  229.0151 H   0  0  0  0  0  0  0  0  0  0  0  0
  140.5630   69.9910  228.3420 C   0  0  0  0  0  0  0  0  0  0  0  0
  140.6004   69.5160  229.3334 H   0  0  0  0  0  0  0  0  0  0  0  0
  139.9910   69.3090  227.2630 C   0  0  0  0  0  0  0  0  0  0  0  0
  139.5774   68.3000  227.4077 H   0  0  0  0  0  0  0  0  0  0  0  0
  139.9440   69.9130  225.9910 C   0  0  0  0  0  0  0  0  0  0  0  0
  139.3770   69.2750  224.8760 C   0  0  0  0  0  0  0  0  0  0  0  0
  138.8750   68.1240  225.0150 O   0  0  0  0  0  0  0  0  0  0  0  0
  139.3560   69.8980  223.6460 N   0  0  0  0  0  0  0  0  0  0  0  0
  138.7070   69.1950  222.5120 C   0  0  0  0  0  0  0  0  0  0  0  0
  139.1541   69.5522  221.5725 H   0  0  0  0  0  0  0  0  0  0  0  0
  138.8679   68.1156  222.6502 H   0  0  0  0  0  0  0  0  0  0  0  0
  137.1780   69.4420  222.4610 C   0  0  1  0  0  0  0  0  0  0  0  0
  136.9381   69.7897  221.4453 H   0  0  0  0  0  0  0  0  0  0  0  0
  136.4200   68.1170  222.7420 C   0  0  0  0  0  0  0  0  0  0  0  0
  136.9830   67.5348  223.4864 H   0  0  0  0  0  0  0  0  0  0  0  0
  136.3317   67.5640  221.7952 H   0  0  0  0  0  0  0  0  0  0  0  0
  135.0670   68.3660  223.2560 N   0  0  0  0  0  0  0  0  0  0  0  0
  134.5580   68.9850  222.5820 H   0  0  0  0  0  0  0  0  0  0  0  0
  135.0940   69.0100  224.5840 C   0  0  0  0  0  0  0  0  0  0  0  0
  135.1954   68.2258  225.3487 H   0  0  0  0  0  0  0  0  0  0  0  0
  134.1565   69.5762  224.6869 H   0  0  0  0  0  0  0  0  0  0  0  0
  136.2520   70.0160  224.7600 C   0  0  0  0  0  0  0  0  0  0  0  0
  137.0993   69.5073  225.2430 H   0  0  0  0  0  0  0  0  0  0  0  0
  135.8971   70.8516  225.3812 H   0  0  0  0  0  0  0  0  0  0  0  0
  136.7080   70.5740  223.4100 C   0  0  0  0  0  0  0  0  0  0  0  0
  137.5416   71.2726  223.5744 H   0  0  0  0  0  0  0  0  0  0  0  0
  135.8556   71.0876  222.9414 H   0  0  0  0  0  0  0  0  0  0  0  0
  139.6520   74.3450  221.9400 C   0  0  0  0  0  0  0  0  0  0  0  0
  138.7250   75.6870  222.3440 S   0  0  0  0  0  0  0  0  0  0  0  0
  139.9190   76.8380  222.0740 C   0  0  0  0  0  0  0  0  0  0  0  0
  139.8086   77.9249  222.2022 H   0  0  0  0  0  0  0  0  0  0  0  0
  141.0690   76.1790  221.6610 C   0  0  0  0  0  0  0  0  0  0  0  0
  142.0055   76.7014  221.4160 H   0  0  0  0  0  0  0  0  0  0  0  0
  140.9270   74.7880  221.5850 C   0  0  0  0  0  0  0  0  0  0  0  0
  141.7386   74.1125  221.2766 H   0  0  0  0  0  0  0  0  0  0  0  0
  1  2  1  0
  2  3  2  0
  3  4  1  0
  3  5  1  0
  5  6  2  0
  6  7  1  0
  7  8  2  0
  8  9  1  0
  8 10  1  0
 10 11  1  0
 10 12  2  0
 12 13  1  0
 12 14  1  0
 14 15  1  0
 14 16  2  0
 16 17  1  0
 17 18  2  0
 17 19  1  0
 19 20  1  0
 20 21  1  0
 20 22  1  0
 20 23  1  0
 23 24  1  6
 23 25  1  0
 25 26  1  0
 25 27  1  0
 25 28  1  0
 28 29  1  0
 28 30  1  0
 30 31  1  0
 30 32  1  0
 30 33  1  0
 33 34  1  0
 33 35  1  0
 33 36  1  0
 36 37  1  0
 36 38  1  0
  2 39  1  0
 39 40  1  0
 40 41  1  0
 41 42  1  0
 41 43  2  0
 43 44  1  0
 43 45  1  0
 45 46  1  0
 19  5  1  0
 36 23  1  0
 45 39  2  0
 16  7  1  0
M  END
>  <UniqueID>  (55) 
398

>  <SMILES>  (55) 
O=c1c2ccccc2nc(/C=C/c2cccs2)n1C[C@@H]1CCCNC1

>  <Energy>  (55) 
90.51648997437069

>  <Genealogy>  (55) 
O=c1c2ccccc2nc(/C=C/c2cccs2)n1C[C@@H]1CCCNC1 (chirality)
O=c1c2ccccc2nc(/C=C/c2cccs2)n1C[C@@H]1CCCNC1 (cis-trans isomerization)
O=c1c2ccccc2nc(/C=C/c2cccs2)n1C[C@@H]1CCCNC1 (3D coordinates assigned)
O=c1c2ccccc2nc(/C=C/c2cccs2)n1C[C@@H]1CCCNC1 (nonaromatic ring conformer: 90.51648997437069 kcal/mol)

>  <smiles>  (55) 
O=c1c2ccccc2nc(/C=C/c2cccs2)n1CC1CCCNC1

>  <score_type>  (55) 
oracle

>  <origin>  (55) 
autodockgpu

>  <m_score__min__energy>  (55) 
-7.4100000000000001

>  <m_primary>  (55) 
energy

>  <meeko>  (55) 
{"free_energy": -7.16, "intermolecular_energy": -8.65, "internal_energy": -1.33, "cluster_size": 14, "cluster_id": 2, "rank_in_cluster": 1}

>  <energy>  (55) 
-7.09

>  <cluster_rmsd>  (55) 
0.13

>  <rmsd>  (55) 
269.87

>  <cluster>  (55) 
2

$$$$
RPPNBJKXHXGJEE-BOLDSZDNNA-N
     RDKit          3D

 46 49  0  0  0  0  0  0  0  0999 V2000
  138.5604   72.2038  222.7971 H   0  0  0  0  0  0  0  0  0  0  0  0
  139.5880   71.8300  222.9170 C   0  0  0  0  0  0  0  0  0  0  0  0
  140.4190   71.9060  221.8700 C   0  0  0  0  0  0  0  0  0  0  0  0
  140.7337   70.9780  221.3701 H   0  0  0  0  0  0  0  0  0  0  0  0
  140.9300   73.2090  221.3620 C   0  0  0  0  0  0  0  0  0  0  0  0
  140.5590   74.3330  222.0350 N   0  0  0  0  0  0  0  0  0  0  0  0
  140.9400   75.5690  221.6420 C   0  0  0  0  0  0  0  0  0  0  0  0
  140.5290   76.6920  222.3690 C   0  0  0  0  0  0  0  0  0  0  0  0
  139.8967   76.5688  223.2607 H   0  0  0  0  0  0  0  0  0  0  0  0
  140.9220   77.9700  221.9620 C   0  0  0  0  0  0  0  0  0  0  0  0
  140.5981   78.8524  222.5333 H   0  0  0  0  0  0  0  0  0  0  0  0
  141.7260   78.1280  220.8300 C   0  0  0  0  0  0  0  0  0  0  0  0
  142.0341   79.1350  220.5122 H   0  0  0  0  0  0  0  0  0  0  0  0
  142.1400   77.0090  220.1000 C   0  0  0  0  0  0  0  0  0  0  0  0
  142.7727   77.1371  219.2093 H   0  0  0  0  0  0  0  0  0  0  0  0
  141.7470   75.7170  220.5050 C   0  0  0  0  0  0  0  0  0  0  0  0
  142.1390   74.5600  219.8120 C   0  0  0  0  0  0  0  0  0  0  0  0
  142.8850   74.6730  218.7980 O   0  0  0  0  0  0  0  0  0  0  0  0
  141.7270   73.3150  220.2360 N   0  0  0  0  0  0  0  0  0  0  0  0
  142.2060   72.1240  219.4910 C   0  0  0  0  0  0  0  0  0  0  0  0
  141.5041   71.2945  219.6621 H   0  0  0  0  0  0  0  0  0  0  0  0
  142.2593   72.3937  218.4259 H   0  0  0  0  0  0  0  0  0  0  0  0
  143.6220   71.6780  219.9370 C   0  0  1  0  0  0  0  0  0  0  0  0
  143.5592   70.6132  220.2058 H   0  0  0  0  0  0  0  0  0  0  0  0
  144.6230   71.8530  218.7640 C   0  0  0  0  0  0  0  0  0  0  0  0
  144.3496   72.7524  218.1928 H   0  0  0  0  0  0  0  0  0  0  0  0
  144.5715   70.9546  218.1314 H   0  0  0  0  0  0  0  0  0  0  0  0
  146.0020   71.9960  219.2460 N   0  0  0  0  0  0  0  0  0  0  0  0
  146.2350   71.1770  219.8550 H   0  0  0  0  0  0  0  0  0  0  0  0
  146.1880   73.2420  220.0160 C   0  0  0  0  0  0  0  0  0  0  0  0
  146.3940   74.0598  219.3098 H   0  0  0  0  0  0  0  0  0  0  0  0
  147.0225   73.0698  220.7116 H   0  0  0  0  0  0  0  0  0  0  0  0
  144.9600   73.6310  220.8690 C   0  0  0  0  0  0  0  0  0  0  0  0
  144.3413   74.3437  220.3040 H   0  0  0  0  0  0  0  0  0  0  0  0
  145.3150   74.0853  221.8058 H   0  0  0  0  0  0  0  0  0  0  0  0
  144.1170   72.4010  221.2140 C   0  0  0  0  0  0  0  0  0  0  0  0
  143.2458   72.7189  221.8056 H   0  0  0  0  0  0  0  0  0  0  0  0
  144.7439   71.7015  221.7865 H   0  0  0  0  0  0  0  0  0  0  0  0
  139.9820   71.2700  224.2230 C   0  0  0  0  0  0  0  0  0  0  0  0
  139.5630   69.7270  224.7440 S   0  0  0  0  0  0  0  0  0  0  0  0
  140.3320   69.8080  226.2360 C   0  0  0  0  0  0  0  0  0  0  0  0
  140.3558   69.0115  226.9943 H   0  0  0  0  0  0  0  0  0  0  0  0
  140.9320   71.0550  226.3450 C   0  0  0  0  0  0  0  0  0  0  0  0
  141.5051   71.3702  227.2294 H   0  0  0  0  0  0  0  0  0  0  0  0
  140.7410   71.8750  225.2260 C   0  0  0  0  0  0  0  0  0  0  0  0
  141.1483   72.8937  225.1456 H   0  0  0  0  0  0  0  0  0  0  0  0
  1  2  1  0
  2  3  2  0
  3  4  1  0
  3  5  1  0
  5  6  2  0
  6  7  1  0
  7  8  2  0
  8  9  1  0
  8 10  1  0
 10 11  1  0
 10 12  2  0
 12 13  1  0
 12 14  1  0
 14 15  1  0
 14 16  2  0
 16 17  1  0
 17 18  2  0
 17 19  1  0
 19 20  1  0
 20 21  1  0
 20 22  1  0
 20 23  1  0
 23 24  1  1
 23 25  1  0
 25 26  1  0
 25 27  1  0
 25 28  1  0
 28 29  1  0
 28 30  1  0
 30 31  1  0
 30 32  1  0
 30 33  1  0
 33 34  1  0
 33 35  1  0
 33 36  1  0
 36 37  1  0
 36 38  1  0
  2 39  1  0
 39 40  1  0
 40 41  1  0
 41 42  1  0
 41 43  2  0
 43 44  1  0
 43 45  1  0
 45 46  1  0
 19  5  1  0
 36 23  1  0
 45 39  2  0
 16  7  1  0
M  END
>  <UniqueID>  (56) 
398

>  <SMILES>  (56) 
O=c1c2ccccc2nc(/C=C/c2cccs2)n1C[C@@H]1CCCNC1

>  <Energy>  (56) 
90.51648997437069

>  <Genealogy>  (56) 
O=c1c2ccccc2nc(/C=C/c2cccs2)n1C[C@@H]1CCCNC1 (chirality)
O=c1c2ccccc2nc(/C=C/c2cccs2)n1C[C@@H]1CCCNC1 (cis-trans isomerization)
O=c1c2ccccc2nc(/C=C/c2cccs2)n1C[C@@H]1CCCNC1 (3D coordinates assigned)
O=c1c2ccccc2nc(/C=C/c2cccs2)n1C[C@@H]1CCCNC1 (nonaromatic ring conformer: 90.51648997437069 kcal/mol)

>  <smiles>  (56) 
O=c1c2ccccc2nc(/C=C/c2cccs2)n1CC1CCCNC1

>  <score_type>  (56) 
oracle

>  <origin>  (56) 
autodockgpu

>  <m_score__min__energy>  (56) 
-7.4100000000000001

>  <m_primary>  (56) 
energy

>  <meeko>  (56) 
{"free_energy": -7.2, "intermolecular_energy": -8.69, "internal_energy": -1.26, "cluster_size": 6, "cluster_id": 1, "rank_in_cluster": 5}

>  <energy>  (56) 
-7.09

>  <cluster_rmsd>  (56) 
1.71

>  <rmsd>  (56) 
269.92

>  <cluster>  (56) 
2

$$$$
RPPNBJKXHXGJEE-BOLDSZDNNA-N
     RDKit          3D

 46 49  0  0  0  0  0  0  0  0999 V2000
  138.5296   71.9484  222.8304 H   0  0  0  0  0  0  0  0  0  0  0  0
  139.5920   71.7320  223.0160 C   0  0  0  0  0  0  0  0  0  0  0  0
  140.4650   71.9220  222.0170 C   0  0  0  0  0  0  0  0  0  0  0  0
  140.8965   71.0454  221.5116 H   0  0  0  0  0  0  0  0  0  0  0  0
  140.8680   73.2830  221.5710 C   0  0  0  0  0  0  0  0  0  0  0  0
  140.3870   74.3420  222.2780 N   0  0  0  0  0  0  0  0  0  0  0  0
  140.6650   75.6220  221.9410 C   0  0  0  0  0  0  0  0  0  0  0  0
  140.1420   76.6750  222.7010 C   0  0  0  0  0  0  0  0  0  0  0  0
  139.5064   76.4616  223.5731 H   0  0  0  0  0  0  0  0  0  0  0  0
  140.4280   77.9980  222.3510 C   0  0  0  0  0  0  0  0  0  0  0  0
  140.0156   78.8255  222.9470 H   0  0  0  0  0  0  0  0  0  0  0  0
  141.2370   78.2700  221.2450 C   0  0  0  0  0  0  0  0  0  0  0  0
  141.4616   79.3119  220.9729 H   0  0  0  0  0  0  0  0  0  0  0  0
  141.7620   77.2220  220.4830 C   0  0  0  0  0  0  0  0  0  0  0  0
  142.3984   77.4408  219.6129 H   0  0  0  0  0  0  0  0  0  0  0  0
  141.4770   75.8860  220.8280 C   0  0  0  0  0  0  0  0  0  0  0  0
  141.9830   74.7960  220.1010 C   0  0  0  0  0  0  0  0  0  0  0  0
  142.7350   75.0140  219.1090 O   0  0  0  0  0  0  0  0  0  0  0  0
  141.6740   73.5030  220.4680 N   0  0  0  0  0  0  0  0  0  0  0  0
  142.2700   72.3900  219.6900 C   0  0  0  0  0  0  0  0  0  0  0  0
  141.6079   71.5145  219.7621 H   0  0  0  0  0  0  0  0  0  0  0  0
  142.3785   72.7290  218.6492 H   0  0  0  0  0  0  0  0  0  0  0  0
  143.6770   71.9940  220.2070 C   0  0  1  0  0  0  0  0  0  0  0  0
  143.5671   71.0512  220.7629 H   0  0  0  0  0  0  0  0  0  0  0  0
  144.6360   71.7720  219.0070 C   0  0  0  0  0  0  0  0  0  0  0  0
  144.3891   72.4936  218.2143 H   0  0  0  0  0  0  0  0  0  0  0  0
  144.5087   70.7390  218.6510 H   0  0  0  0  0  0  0  0  0  0  0  0
  146.0400   71.9540  219.3970 N   0  0  0  0  0  0  0  0  0  0  0  0
  146.2520   71.3210  220.2030 H   0  0  0  0  0  0  0  0  0  0  0  0
  146.3260   73.3490  219.7850 C   0  0  0  0  0  0  0  0  0  0  0  0
  146.5470   73.9250  218.8743 H   0  0  0  0  0  0  0  0  0  0  0  0
  147.1782   73.3225  220.4800 H   0  0  0  0  0  0  0  0  0  0  0  0
  145.1580   74.0360  220.5260 C   0  0  0  0  0  0  0  0  0  0  0  0
  144.5561   74.6027  219.8003 H   0  0  0  0  0  0  0  0  0  0  0  0
  145.5764   74.7075  221.2902 H   0  0  0  0  0  0  0  0  0  0  0  0
  144.2640   73.0070  221.2210 C   0  0  0  0  0  0  0  0  0  0  0  0
  143.4374   73.5314  221.7227 H   0  0  0  0  0  0  0  0  0  0  0  0
  144.8741   72.4538  221.9502 H   0  0  0  0  0  0  0  0  0  0  0  0
  139.9860   71.2470  224.3520 C   0  0  0  0  0  0  0  0  0  0  0  0
  139.4570   69.7940  225.0130 S   0  0  0  0  0  0  0  0  0  0  0  0
  140.2850   69.9280  226.4690 C   0  0  0  0  0  0  0  0  0  0  0  0
  140.2696   69.1964  227.2903 H   0  0  0  0  0  0  0  0  0  0  0  0
  140.9920   71.1230  226.4550 C   0  0  0  0  0  0  0  0  0  0  0  0
  141.6215   71.4582  227.2925 H   0  0  0  0  0  0  0  0  0  0  0  0
  140.8300   71.8620  225.2770 C   0  0  0  0  0  0  0  0  0  0  0  0
  141.3194   72.8309  225.0986 H   0  0  0  0  0  0  0  0  0  0  0  0
  1  2  1  0
  2  3  2  0
  3  4  1  0
  3  5  1  0
  5  6  2  0
  6  7  1  0
  7  8  2  0
  8  9  1  0
  8 10  1  0
 10 11  1  0
 10 12  2  0
 12 13  1  0
 12 14  1  0
 14 15  1  0
 14 16  2  0
 16 17  1  0
 17 18  2  0
 17 19  1  0
 19 20  1  0
 20 21  1  0
 20 22  1  0
 20 23  1  0
 23 24  1  1
 23 25  1  0
 25 26  1  0
 25 27  1  0
 25 28  1  0
 28 29  1  0
 28 30  1  0
 30 31  1  0
 30 32  1  0
 30 33  1  0
 33 34  1  0
 33 35  1  0
 33 36  1  0
 36 37  1  0
 36 38  1  0
  2 39  1  0
 39 40  1  0
 40 41  1  0
 41 42  1  0
 41 43  2  0
 43 44  1  0
 43 45  1  0
 45 46  1  0
 19  5  1  0
 36 23  1  0
 45 39  2  0
 16  7  1  0
M  END
>  <UniqueID>  (57) 
398

>  <SMILES>  (57) 
O=c1c2ccccc2nc(/C=C/c2cccs2)n1C[C@@H]1CCCNC1

>  <Energy>  (57) 
90.51648997437069

>  <Genealogy>  (57) 
O=c1c2ccccc2nc(/C=C/c2cccs2)n1C[C@@H]1CCCNC1 (chirality)
O=c1c2ccccc2nc(/C=C/c2cccs2)n1C[C@@H]1CCCNC1 (cis-trans isomerization)
O=c1c2ccccc2nc(/C=C/c2cccs2)n1C[C@@H]1CCCNC1 (3D coordinates assigned)
O=c1c2ccccc2nc(/C=C/c2cccs2)n1C[C@@H]1CCCNC1 (nonaromatic ring conformer: 90.51648997437069 kcal/mol)

>  <smiles>  (57) 
O=c1c2ccccc2nc(/C=C/c2cccs2)n1CC1CCCNC1

>  <score_type>  (57) 
oracle

>  <origin>  (57) 
autodockgpu

>  <m_score__min__energy>  (57) 
-7.4100000000000001

>  <m_primary>  (57) 
energy

>  <meeko>  (57) 
{"free_energy": -7.37, "intermolecular_energy": -8.87, "internal_energy": -1.16, "cluster_size": 6, "cluster_id": 1, "rank_in_cluster": 2}

>  <energy>  (57) 
-7.08

>  <cluster_rmsd>  (57) 
1.53

>  <rmsd>  (57) 
269.78

>  <cluster>  (57) 
2

$$$$
RPPNBJKXHXGJEE-BOLDSZDNNA-N
     RDKit          3D

 46 49  0  0  0  0  0  0  0  0999 V2000
  138.7487   72.4282  223.0849 H   0  0  0  0  0  0  0  0  0  0  0  0
  139.7040   71.8830  223.0970 C   0  0  0  0  0  0  0  0  0  0  0  0
  140.4740   71.9230  222.0010 C   0  0  0  0  0  0  0  0  0  0  0  0
  140.7432   70.9797  221.5033 H   0  0  0  0  0  0  0  0  0  0  0  0
  140.9760   73.2060  221.4370 C   0  0  0  0  0  0  0  0  0  0  0  0
  140.6390   74.3520  222.0890 N   0  0  0  0  0  0  0  0  0  0  0  0
  141.0150   75.5720  221.6460 C   0  0  0  0  0  0  0  0  0  0  0  0
  140.6390   76.7200  222.3540 C   0  0  0  0  0  0  0  0  0  0  0  0
  140.0385   76.6288  223.2711 H   0  0  0  0  0  0  0  0  0  0  0  0
  141.0270   77.9820  221.8950 C   0  0  0  0  0  0  0  0  0  0  0  0
  140.7299   78.8837  222.4506 H   0  0  0  0  0  0  0  0  0  0  0  0
  141.7920   78.1000  220.7310 C   0  0  0  0  0  0  0  0  0  0  0  0
  142.0966   79.0943  220.3725 H   0  0  0  0  0  0  0  0  0  0  0  0
  142.1710   76.9550  220.0210 C   0  0  0  0  0  0  0  0  0  0  0  0
  142.7735   77.0507  219.1056 H   0  0  0  0  0  0  0  0  0  0  0  0
  141.7820   75.6800  220.4770 C   0  0  0  0  0  0  0  0  0  0  0  0
  142.1400   74.5000  219.8060 C   0  0  0  0  0  0  0  0  0  0  0  0
  142.8500   74.5760  218.7630 O   0  0  0  0  0  0  0  0  0  0  0  0
  141.7330   73.2710  220.2810 N   0  0  0  0  0  0  0  0  0  0  0  0
  142.1760   72.0550  219.5560 C   0  0  0  0  0  0  0  0  0  0  0  0
  141.5124   71.2208  219.8275 H   0  0  0  0  0  0  0  0  0  0  0  0
  142.1311   72.2726  218.4787 H   0  0  0  0  0  0  0  0  0  0  0  0
  143.6350   71.6610  219.8970 C   0  0  1  0  0  0  0  0  0  0  0  0
  143.6389   70.5826  220.1141 H   0  0  0  0  0  0  0  0  0  0  0  0
  144.5560   71.9430  218.6790 C   0  0  0  0  0  0  0  0  0  0  0  0
  144.2064   72.8537  218.1706 H   0  0  0  0  0  0  0  0  0  0  0  0
  144.5106   71.0744  218.0055 H   0  0  0  0  0  0  0  0  0  0  0  0
  145.9530   72.1330  219.0890 N   0  0  0  0  0  0  0  0  0  0  0  0
  146.2600   71.2980  219.6410 H   0  0  0  0  0  0  0  0  0  0  0  0
  146.1230   73.3480  219.9100 C   0  0  0  0  0  0  0  0  0  0  0  0
  146.2471   74.2084  219.2360 H   0  0  0  0  0  0  0  0  0  0  0  0
  147.0043   73.1853  220.5478 H   0  0  0  0  0  0  0  0  0  0  0  0
  144.9300   73.6320  220.8500 C   0  0  0  0  0  0  0  0  0  0  0  0
  144.2451   74.3382  220.3579 H   0  0  0  0  0  0  0  0  0  0  0  0
  145.3173   74.0585  221.7871 H   0  0  0  0  0  0  0  0  0  0  0  0
  144.1700   72.3460  221.1790 C   0  0  0  0  0  0  0  0  0  0  0  0
  143.3214   72.5899  221.8350 H   0  0  0  0  0  0  0  0  0  0  0  0
  144.8631   71.6527  221.6780 H   0  0  0  0  0  0  0  0  0  0  0  0
  140.0740   71.1440  224.3190 C   0  0  0  0  0  0  0  0  0  0  0  0
  139.4920   69.6130  224.6970 S   0  0  0  0  0  0  0  0  0  0  0  0
  140.3170   69.4440  226.1510 C   0  0  0  0  0  0  0  0  0  0  0  0
  140.2719   68.5731  226.8214 H   0  0  0  0  0  0  0  0  0  0  0  0
  141.0650   70.5940  226.3590 C   0  0  0  0  0  0  0  0  0  0  0  0
  141.7025   70.7439  227.2428 H   0  0  0  0  0  0  0  0  0  0  0  0
  140.9340   71.5460  225.3410 C   0  0  0  0  0  0  0  0  0  0  0  0
  141.4568   72.5138  225.3465 H   0  0  0  0  0  0  0  0  0  0  0  0
  1  2  1  0
  2  3  2  0
  3  4  1  0
  3  5  1  0
  5  6  2  0
  6  7  1  0
  7  8  2  0
  8  9  1  0
  8 10  1  0
 10 11  1  0
 10 12  2  0
 12 13  1  0
 12 14  1  0
 14 15  1  0
 14 16  2  0
 16 17  1  0
 17 18  2  0
 17 19  1  0
 19 20  1  0
 20 21  1  0
 20 22  1  0
 20 23  1  0
 23 24  1  1
 23 25  1  0
 25 26  1  0
 25 27  1  0
 25 28  1  0
 28 29  1  0
 28 30  1  0
 30 31  1  0
 30 32  1  0
 30 33  1  0
 33 34  1  0
 33 35  1  0
 33 36  1  0
 36 37  1  0
 36 38  1  0
  2 39  1  0
 39 40  1  0
 40 41  1  0
 41 42  1  0
 41 43  2  0
 43 44  1  0
 43 45  1  0
 45 46  1  0
 19  5  1  0
 36 23  1  0
 45 39  2  0
 16  7  1  0
M  END
>  <UniqueID>  (58) 
398

>  <SMILES>  (58) 
O=c1c2ccccc2nc(/C=C/c2cccs2)n1C[C@@H]1CCCNC1

>  <Energy>  (58) 
90.51648997437069

>  <Genealogy>  (58) 
O=c1c2ccccc2nc(/C=C/c2cccs2)n1C[C@@H]1CCCNC1 (chirality)
O=c1c2ccccc2nc(/C=C/c2cccs2)n1C[C@@H]1CCCNC1 (cis-trans isomerization)
O=c1c2ccccc2nc(/C=C/c2cccs2)n1C[C@@H]1CCCNC1 (3D coordinates assigned)
O=c1c2ccccc2nc(/C=C/c2cccs2)n1C[C@@H]1CCCNC1 (nonaromatic ring conformer: 90.51648997437069 kcal/mol)

>  <smiles>  (58) 
O=c1c2ccccc2nc(/C=C/c2cccs2)n1CC1CCCNC1

>  <score_type>  (58) 
oracle

>  <origin>  (58) 
autodockgpu

>  <m_score__min__energy>  (58) 
-7.4100000000000001

>  <m_primary>  (58) 
energy

>  <meeko>  (58) 
{"free_energy": -7.22, "intermolecular_energy": -8.71, "internal_energy": -1.23, "cluster_size": 6, "cluster_id": 1, "rank_in_cluster": 4}

>  <energy>  (58) 
-7.06

>  <cluster_rmsd>  (58) 
0.2

>  <rmsd>  (58) 
269.83

>  <cluster>  (58) 
2

$$$$
RPPNBJKXHXGJEE-BOLDSZDNNA-N
     RDKit          3D

 46 49  0  0  0  0  0  0  0  0999 V2000
  140.9164   70.7747  220.7476 H   0  0  0  0  0  0  0  0  0  0  0  0
  141.0330   71.7110  221.3130 C   0  0  0  0  0  0  0  0  0  0  0  0
  140.1360   71.9950  222.2660 C   0  0  0  0  0  0  0  0  0  0  0  0
  139.4345   72.8274  222.1076 H   0  0  0  0  0  0  0  0  0  0  0  0
  140.0600   71.2180  223.5330 C   0  0  0  0  0  0  0  0  0  0  0  0
  140.5490   71.8060  224.6590 N   0  0  0  0  0  0  0  0  0  0  0  0
  140.5580   71.1780  225.8570 C   0  0  0  0  0  0  0  0  0  0  0  0
  141.0750   71.8280  226.9830 C   0  0  0  0  0  0  0  0  0  0  0  0
  141.4728   72.8497  226.8940 H   0  0  0  0  0  0  0  0  0  0  0  0
  141.0860   71.1790  228.2210 C   0  0  0  0  0  0  0  0  0  0  0  0
  141.4937   71.6897  229.1059 H   0  0  0  0  0  0  0  0  0  0  0  0
  140.5790   69.8810  228.3350 C   0  0  0  0  0  0  0  0  0  0  0  0
  140.5882   69.3720  229.3101 H   0  0  0  0  0  0  0  0  0  0  0  0
  140.0600   69.2280  227.2120 C   0  0  0  0  0  0  0  0  0  0  0  0
  139.6616   68.2069  227.3054 H   0  0  0  0  0  0  0  0  0  0  0  0
  140.0470   69.8770  225.9610 C   0  0  0  0  0  0  0  0  0  0  0  0
  139.5330   69.2690  224.8040 C   0  0  0  0  0  0  0  0  0  0  0  0
  139.0470   68.1050  224.8840 O   0  0  0  0  0  0  0  0  0  0  0  0
  139.5450   69.9350  223.5970 N   0  0  0  0  0  0  0  0  0  0  0  0
  138.9510   69.2620  222.4160 C   0  0  0  0  0  0  0  0  0  0  0  0
  139.4045   69.6808  221.5055 H   0  0  0  0  0  0  0  0  0  0  0  0
  139.1522   68.1844  222.5076 H   0  0  0  0  0  0  0  0  0  0  0  0
  137.4150   69.4510  222.3390 C   0  0  1  0  0  0  0  0  0  0  0  0
  137.1689   69.6915  221.2942 H   0  0  0  0  0  0  0  0  0  0  0  0
  136.7000   68.1350  222.7430 C   0  0  0  0  0  0  0  0  0  0  0  0
  137.2780   67.6453  223.5406 H   0  0  0  0  0  0  0  0  0  0  0  0
  136.6350   67.4921  221.8528 H   0  0  0  0  0  0  0  0  0  0  0  0
  135.3370   68.3860  223.2280 N   0  0  0  0  0  0  0  0  0  0  0  0
  134.8110   68.9210  222.4970 H   0  0  0  0  0  0  0  0  0  0  0  0
  135.3350   69.1540  224.4890 C   0  0  0  0  0  0  0  0  0  0  0  0
  135.4583   68.4501  225.3253 H   0  0  0  0  0  0  0  0  0  0  0  0
  134.3786   69.6953  224.5361 H   0  0  0  0  0  0  0  0  0  0  0  0
  136.4590   70.2110  224.5700 C   0  0  0  0  0  0  0  0  0  0  0  0
  137.3202   69.7794  225.1011 H   0  0  0  0  0  0  0  0  0  0  0  0
  136.0736   71.0899  225.1076 H   0  0  0  0  0  0  0  0  0  0  0  0
  136.9030   70.6520  223.1740 C   0  0  0  0  0  0  0  0  0  0  0  0
  137.7121   71.3907  223.2723 H   0  0  0  0  0  0  0  0  0  0  0  0
  136.0364   71.0896  222.6567 H   0  0  0  0  0  0  0  0  0  0  0  0
  142.1700   72.5920  220.9840 C   0  0  0  0  0  0  0  0  0  0  0  0
  143.7500   72.0480  220.8010 S   0  0  0  0  0  0  0  0  0  0  0  0
  144.4320   73.5440  220.4500 C   0  0  0  0  0  0  0  0  0  0  0  0
  145.4946   73.7362  220.2402 H   0  0  0  0  0  0  0  0  0  0  0  0
  143.4210   74.4940  220.4710 C   0  0  0  0  0  0  0  0  0  0  0  0
  143.5965   75.5616  220.2724 H   0  0  0  0  0  0  0  0  0  0  0  0
  142.1570   73.9700  220.7680 C   0  0  0  0  0  0  0  0  0  0  0  0
  141.2456   74.5832  220.8252 H   0  0  0  0  0  0  0  0  0  0  0  0
  1  2  1  0
  2  3  2  0
  3  4  1  0
  3  5  1  0
  5  6  2  0
  6  7  1  0
  7  8  2  0
  8  9  1  0
  8 10  1  0
 10 11  1  0
 10 12  2  0
 12 13  1  0
 12 14  1  0
 14 15  1  0
 14 16  2  0
 16 17  1  0
 17 18  2  0
 17 19  1  0
 19 20  1  0
 20 21  1  0
 20 22  1  0
 20 23  1  0
 23 24  1  6
 23 25  1  0
 25 26  1  0
 25 27  1  0
 25 28  1  0
 28 29  1  0
 28 30  1  0
 30 31  1  0
 30 32  1  0
 30 33  1  0
 33 34  1  0
 33 35  1  0
 33 36  1  0
 36 37  1  0
 36 38  1  0
  2 39  1  0
 39 40  1  0
 40 41  1  0
 41 42  1  0
 41 43  2  0
 43 44  1  0
 43 45  1  0
 45 46  1  0
 19  5  1  0
 36 23  1  0
 45 39  2  0
 16  7  1  0
M  END
>  <UniqueID>  (59) 
398

>  <SMILES>  (59) 
O=c1c2ccccc2nc(/C=C/c2cccs2)n1C[C@@H]1CCCNC1

>  <Energy>  (59) 
90.51648997437069

>  <Genealogy>  (59) 
O=c1c2ccccc2nc(/C=C/c2cccs2)n1C[C@@H]1CCCNC1 (chirality)
O=c1c2ccccc2nc(/C=C/c2cccs2)n1C[C@@H]1CCCNC1 (cis-trans isomerization)
O=c1c2ccccc2nc(/C=C/c2cccs2)n1C[C@@H]1CCCNC1 (3D coordinates assigned)
O=c1c2ccccc2nc(/C=C/c2cccs2)n1C[C@@H]1CCCNC1 (nonaromatic ring conformer: 90.51648997437069 kcal/mol)

>  <smiles>  (59) 
O=c1c2ccccc2nc(/C=C/c2cccs2)n1CC1CCCNC1

>  <score_type>  (59) 
oracle

>  <origin>  (59) 
autodockgpu

>  <m_score__min__energy>  (59) 
-7.4100000000000001

>  <m_primary>  (59) 
energy

>  <meeko>  (59) 
{"free_energy": -7.1, "intermolecular_energy": -8.59, "internal_energy": -1.27, "cluster_size": 14, "cluster_id": 2, "rank_in_cluster": 6}

>  <energy>  (59) 
-7.05

>  <cluster_rmsd>  (59) 
0.22

>  <rmsd>  (59) 
269.9

>  <cluster>  (59) 
2

$$$$
RPPNBJKXHXGJEE-BOLDSZDNNA-N
     RDKit          3D

 46 49  0  0  0  0  0  0  0  0999 V2000
  138.1004   72.6398  221.6610 H   0  0  0  0  0  0  0  0  0  0  0  0
  139.1290   72.9120  221.9400 C   0  0  0  0  0  0  0  0  0  0  0  0
  139.9880   71.9290  222.2420 C   0  0  0  0  0  0  0  0  0  0  0  0
  140.7683   71.6602  221.5148 H   0  0  0  0  0  0  0  0  0  0  0  0
  139.9180   71.1900  223.5320 C   0  0  0  0  0  0  0  0  0  0  0  0
  140.4530   71.7920  224.6300 N   0  0  0  0  0  0  0  0  0  0  0  0
  140.4710   71.1970  225.8440 C   0  0  0  0  0  0  0  0  0  0  0  0
  141.0360   71.8610  226.9390 C   0  0  0  0  0  0  0  0  0  0  0  0
  141.4638   72.8664  226.8123 H   0  0  0  0  0  0  0  0  0  0  0  0
  141.0560   71.2450  228.1940 C   0  0  0  0  0  0  0  0  0  0  0  0
  141.5010   71.7658  229.0547 H   0  0  0  0  0  0  0  0  0  0  0  0
  140.5110   69.9680  228.3560 C   0  0  0  0  0  0  0  0  0  0  0  0
  140.5275   69.4859  229.3446 H   0  0  0  0  0  0  0  0  0  0  0  0
  139.9450   69.3020  227.2650 C   0  0  0  0  0  0  0  0  0  0  0  0
  139.5170   68.2973  227.3966 H   0  0  0  0  0  0  0  0  0  0  0  0
  139.9220   69.9160  225.9970 C   0  0  0  0  0  0  0  0  0  0  0  0
  139.3610   69.2940  224.8690 C   0  0  0  0  0  0  0  0  0  0  0  0
  138.8410   68.1490  224.9930 O   0  0  0  0  0  0  0  0  0  0  0  0
  139.3650   69.9260  223.6440 N   0  0  0  0  0  0  0  0  0  0  0  0
  138.7210   69.2410  222.4970 C   0  0  0  0  0  0  0  0  0  0  0  0
  139.1613   69.6239  221.5645 H   0  0  0  0  0  0  0  0  0  0  0  0
  138.8947   68.1608  222.6113 H   0  0  0  0  0  0  0  0  0  0  0  0
  137.1890   69.4710  222.4550 C   0  0  1  0  0  0  0  0  0  0  0  0
  136.9396   69.8216  221.4427 H   0  0  0  0  0  0  0  0  0  0  0  0
  136.4480   68.1360  222.7330 C   0  0  0  0  0  0  0  0  0  0  0  0
  137.0218   67.5568  223.4714 H   0  0  0  0  0  0  0  0  0  0  0  0
  136.3612   67.5876  221.7834 H   0  0  0  0  0  0  0  0  0  0  0  0
  135.0950   68.3650  223.2550 N   0  0  0  0  0  0  0  0  0  0  0  0
  134.5750   68.9830  222.5880 H   0  0  0  0  0  0  0  0  0  0  0  0
  135.1220   69.0020  224.5870 C   0  0  0  0  0  0  0  0  0  0  0  0
  135.2369   68.2148  225.3467 H   0  0  0  0  0  0  0  0  0  0  0  0
  134.1786   69.5565  224.6986 H   0  0  0  0  0  0  0  0  0  0  0  0
  136.2700   70.0210  224.7620 C   0  0  0  0  0  0  0  0  0  0  0  0
  137.1258   69.5197  225.2377 H   0  0  0  0  0  0  0  0  0  0  0  0
  135.9089   70.8492  225.3894 H   0  0  0  0  0  0  0  0  0  0  0  0
  136.7120   70.5910  223.4130 C   0  0  0  0  0  0  0  0  0  0  0  0
  137.5387   71.2980  223.5768 H   0  0  0  0  0  0  0  0  0  0  0  0
  135.8509   71.0972  222.9522 H   0  0  0  0  0  0  0  0  0  0  0  0
  139.4940   74.3410  221.9630 C   0  0  0  0  0  0  0  0  0  0  0  0
  141.0140   74.9230  221.5440 S   0  0  0  0  0  0  0  0  0  0  0  0
  140.6780   76.5500  221.8000 C   0  0  0  0  0  0  0  0  0  0  0  0
  141.3807   77.3845  221.6591 H   0  0  0  0  0  0  0  0  0  0  0  0
  139.3600   76.6570  222.2200 C   0  0  0  0  0  0  0  0  0  0  0  0
  138.8825   77.6187  222.4590 H   0  0  0  0  0  0  0  0  0  0  0  0
  138.6930   75.4290  222.3120 C   0  0  0  0  0  0  0  0  0  0  0  0
  137.6437   75.3320  222.6275 H   0  0  0  0  0  0  0  0  0  0  0  0
  1  2  1  0
  2  3  2  0
  3  4  1  0
  3  5  1  0
  5  6  2  0
  6  7  1  0
  7  8  2  0
  8  9  1  0
  8 10  1  0
 10 11  1  0
 10 12  2  0
 12 13  1  0
 12 14  1  0
 14 15  1  0
 14 16  2  0
 16 17  1  0
 17 18  2  0
 17 19  1  0
 19 20  1  0
 20 21  1  0
 20 22  1  0
 20 23  1  0
 23 24  1  6
 23 25  1  0
 25 26  1  0
 25 27  1  0
 25 28  1  0
 28 29  1  0
 28 30  1  0
 30 31  1  0
 30 32  1  0
 30 33  1  0
 33 34  1  0
 33 35  1  0
 33 36  1  0
 36 37  1  0
 36 38  1  0
  2 39  1  0
 39 40  1  0
 40 41  1  0
 41 42  1  0
 41 43  2  0
 43 44  1  0
 43 45  1  0
 45 46  1  0
 19  5  1  0
 36 23  1  0
 45 39  2  0
 16  7  1  0
M  END
>  <UniqueID>  (60) 
398

>  <SMILES>  (60) 
O=c1c2ccccc2nc(/C=C/c2cccs2)n1C[C@@H]1CCCNC1

>  <Energy>  (60) 
90.51648997437069

>  <Genealogy>  (60) 
O=c1c2ccccc2nc(/C=C/c2cccs2)n1C[C@@H]1CCCNC1 (chirality)
O=c1c2ccccc2nc(/C=C/c2cccs2)n1C[C@@H]1CCCNC1 (cis-trans isomerization)
O=c1c2ccccc2nc(/C=C/c2cccs2)n1C[C@@H]1CCCNC1 (3D coordinates assigned)
O=c1c2ccccc2nc(/C=C/c2cccs2)n1C[C@@H]1CCCNC1 (nonaromatic ring conformer: 90.51648997437069 kcal/mol)

>  <smiles>  (60) 
O=c1c2ccccc2nc(/C=C/c2cccs2)n1CC1CCCNC1

>  <score_type>  (60) 
oracle

>  <origin>  (60) 
autodockgpu

>  <m_score__min__energy>  (60) 
-7.4100000000000001

>  <m_primary>  (60) 
energy

>  <meeko>  (60) 
{"free_energy": -7.12, "intermolecular_energy": -8.61, "internal_energy": -1.34, "cluster_size": 14, "cluster_id": 2, "rank_in_cluster": 4}

>  <energy>  (60) 
-6.79

>  <cluster_rmsd>  (60) 
0.73

>  <rmsd>  (60) 
269.73

>  <cluster>  (60) 
2

$$$$
RPPNBJKXHXGJEE-FEAKQIBJNA-N
     RDKit          3D

 46 49  0  0  0  0  0  0  0  0999 V2000
  141.8335   72.3164  221.6083 H   0  0  0  0  0  0  0  0  0  0  0  0
  140.8090   72.6480  221.8330 C   0  0  0  0  0  0  0  0  0  0  0  0
  139.8910   71.7200  222.1390 C   0  0  0  0  0  0  0  0  0  0  0  0
  139.1450   71.4368  221.3819 H   0  0  0  0  0  0  0  0  0  0  0  0
  139.8520   71.0620  223.4730 C   0  0  0  0  0  0  0  0  0  0  0  0
  140.4230   71.7230  224.5160 N   0  0  0  0  0  0  0  0  0  0  0  0
  140.4700   71.2040  225.7630 C   0  0  0  0  0  0  0  0  0  0  0  0
  141.0720   71.9260  226.8010 C   0  0  0  0  0  0  0  0  0  0  0  0
  141.5056   72.9171  226.6019 H   0  0  0  0  0  0  0  0  0  0  0  0
  141.1220   71.3880  228.0890 C   0  0  0  0  0  0  0  0  0  0  0  0
  141.5930   71.9565  228.9044 H   0  0  0  0  0  0  0  0  0  0  0  0
  140.5740   70.1280  228.3420 C   0  0  0  0  0  0  0  0  0  0  0  0
  140.6164   69.7057  229.3568 H   0  0  0  0  0  0  0  0  0  0  0  0
  139.9720   69.4020  227.3100 C   0  0  0  0  0  0  0  0  0  0  0  0
  139.5402   68.4111  227.5143 H   0  0  0  0  0  0  0  0  0  0  0  0
  139.9180   69.9390  226.0080 C   0  0  0  0  0  0  0  0  0  0  0  0
  139.3210   69.2550  224.9360 C   0  0  0  0  0  0  0  0  0  0  0  0
  138.7960   68.1240  225.1430 O   0  0  0  0  0  0  0  0  0  0  0  0
  139.2940   69.8120  223.6760 N   0  0  0  0  0  0  0  0  0  0  0  0
  138.6110   69.0660  222.5910 C   0  0  0  0  0  0  0  0  0  0  0  0
  139.0950   69.3119  221.6343 H   0  0  0  0  0  0  0  0  0  0  0  0
  138.6916   67.9930  222.8195 H   0  0  0  0  0  0  0  0  0  0  0  0
  137.1040   69.4160  222.4910 C   0  0  2  0  0  0  0  0  0  0  0  0
  136.9640   69.9889  221.5625 H   0  0  0  0  0  0  0  0  0  0  0  0
  136.6110   70.3480  223.6320 C   0  0  0  0  0  0  0  0  0  0  0  0
  135.8376   71.0211  223.2336 H   0  0  0  0  0  0  0  0  0  0  0  0
  137.4739   70.9180  224.0068 H   0  0  0  0  0  0  0  0  0  0  0  0
  136.0460   69.5830  224.7510 N   0  0  0  0  0  0  0  0  0  0  0  0
  136.7550   68.8860  225.0790 H   0  0  0  0  0  0  0  0  0  0  0  0
  134.8140   68.8680  224.3610 C   0  0  0  0  0  0  0  0  0  0  0  0
  133.9623   69.5549  224.4743 H   0  0  0  0  0  0  0  0  0  0  0  0
  134.7304   67.9876  225.0152 H   0  0  0  0  0  0  0  0  0  0  0  0
  134.8350   68.3510  222.9040 C   0  0  0  0  0  0  0  0  0  0  0  0
  134.3548   69.0954  222.2519 H   0  0  0  0  0  0  0  0  0  0  0  0
  134.2925   67.3949  222.8651 H   0  0  0  0  0  0  0  0  0  0  0  0
  136.2670   68.1160  222.4230 C   0  0  0  0  0  0  0  0  0  0  0  0
  136.2415   67.7603  221.3824 H   0  0  0  0  0  0  0  0  0  0  0  0
  136.7350   67.3673  223.0791 H   0  0  0  0  0  0  0  0  0  0  0  0
  140.5120   74.0920  221.7830 C   0  0  0  0  0  0  0  0  0  0  0  0
  138.9690   74.7340  221.9660 S   0  0  0  0  0  0  0  0  0  0  0  0
  139.4080   76.3470  221.8010 C   0  0  0  0  0  0  0  0  0  0  0  0
  138.7262   77.2090  221.8460 H   0  0  0  0  0  0  0  0  0  0  0  0
  140.7800   76.4040  221.5980 C   0  0  0  0  0  0  0  0  0  0  0  0
  141.3284   77.3473  221.4587 H   0  0  0  0  0  0  0  0  0  0  0  0
  141.4010   75.1490  221.5870 C   0  0  0  0  0  0  0  0  0  0  0  0
  142.4821   75.0104  221.4386 H   0  0  0  0  0  0  0  0  0  0  0  0
  1  2  1  0
  2  3  2  0
  3  4  1  0
  3  5  1  0
  5  6  2  0
  6  7  1  0
  7  8  2  0
  8  9  1  0
  8 10  1  0
 10 11  1  0
 10 12  2  0
 12 13  1  0
 12 14  1  0
 14 15  1  0
 14 16  2  0
 16 17  1  0
 17 18  2  0
 17 19  1  0
 19 20  1  0
 20 21  1  0
 20 22  1  0
 20 23  1  0
 23 24  1  6
 23 25  1  0
 25 26  1  0
 25 27  1  0
 25 28  1  0
 28 29  1  0
 28 30  1  0
 30 31  1  0
 30 32  1  0
 30 33  1  0
 33 34  1  0
 33 35  1  0
 33 36  1  0
 36 37  1  0
 36 38  1  0
  2 39  1  0
 39 40  1  0
 40 41  1  0
 41 42  1  0
 41 43  2  0
 43 44  1  0
 43 45  1  0
 45 46  1  0
 19  5  1  0
 36 23  1  0
 45 39  2  0
 16  7  1  0
M  END
>  <UniqueID>  (61) 
399

>  <SMILES>  (61) 
O=c1c2ccccc2nc(/C=C/c2cccs2)n1C[C@H]1CCCNC1

>  <Energy>  (61) 
90.74283815160413

>  <Genealogy>  (61) 
O=c1c2ccccc2nc(/C=C/c2cccs2)n1C[C@H]1CCCNC1 (chirality)
O=c1c2ccccc2nc(/C=C/c2cccs2)n1C[C@H]1CCCNC1 (cis-trans isomerization)
O=c1c2ccccc2nc(/C=C/c2cccs2)n1C[C@H]1CCCNC1 (3D coordinates assigned)
O=c1c2ccccc2nc(/C=C/c2cccs2)n1C[C@H]1CCCNC1 (nonaromatic ring conformer: 90.74283815160413 kcal/mol)

>  <smiles>  (61) 
O=c1c2ccccc2nc(/C=C/c2cccs2)n1CC1CCCNC1

>  <score_type>  (61) 
oracle

>  <origin>  (61) 
autodockgpu

>  <m_score__min__energy>  (61) 
-6.8300000000000001

>  <m_primary>  (61) 
energy

>  <meeko>  (61) 
{"free_energy": -6.74, "intermolecular_energy": -8.23, "internal_energy": -1.82, "cluster_size": 15, "cluster_id": 1, "rank_in_cluster": 13}

>  <energy>  (61) 
-6.83

>  <cluster_rmsd>  (61) 
0.0

>  <rmsd>  (61) 
271.33

>  <cluster>  (61) 
1

$$$$
RPPNBJKXHXGJEE-FEAKQIBJNA-N
     RDKit          3D

 46 49  0  0  0  0  0  0  0  0999 V2000
  139.7412   73.7021  222.3150 H   0  0  0  0  0  0  0  0  0  0  0  0
  140.4050   72.9220  221.9140 C   0  0  0  0  0  0  0  0  0  0  0  0
  140.0530   71.6390  222.0790 C   0  0  0  0  0  0  0  0  0  0  0  0
  139.8226   71.0300  221.1924 H   0  0  0  0  0  0  0  0  0  0  0  0
  139.9650   71.0150  223.4270 C   0  0  0  0  0  0  0  0  0  0  0  0
  140.5090   71.6960  224.4710 N   0  0  0  0  0  0  0  0  0  0  0  0
  140.5120   71.2070  225.7310 C   0  0  0  0  0  0  0  0  0  0  0  0
  141.0870   71.9490  226.7700 C   0  0  0  0  0  0  0  0  0  0  0  0
  141.5350   72.9317  226.5612 H   0  0  0  0  0  0  0  0  0  0  0  0
  141.0920   71.4420  228.0710 C   0  0  0  0  0  0  0  0  0  0  0  0
  141.5442   72.0255  228.8864 H   0  0  0  0  0  0  0  0  0  0  0  0
  140.5230   70.1940  228.3380 C   0  0  0  0  0  0  0  0  0  0  0  0
  140.5279   69.7970  229.3639 H   0  0  0  0  0  0  0  0  0  0  0  0
  139.9470   69.4480  227.3040 C   0  0  0  0  0  0  0  0  0  0  0  0
  139.5001   68.4659  227.5178 H   0  0  0  0  0  0  0  0  0  0  0  0
  139.9390   69.9540  225.9890 C   0  0  0  0  0  0  0  0  0  0  0  0
  139.3700   69.2490  224.9160 C   0  0  0  0  0  0  0  0  0  0  0  0
  138.8270   68.1280  225.1340 O   0  0  0  0  0  0  0  0  0  0  0  0
  139.3880   69.7750  223.6420 N   0  0  0  0  0  0  0  0  0  0  0  0
  138.7320   69.0090  222.5540 C   0  0  0  0  0  0  0  0  0  0  0  0
  139.2453   69.2309  221.6067 H   0  0  0  0  0  0  0  0  0  0  0  0
  138.7991   67.9410  222.8085 H   0  0  0  0  0  0  0  0  0  0  0  0
  137.2310   69.3650  222.4020 C   0  0  2  0  0  0  0  0  0  0  0  0
  137.1192   69.9074  221.4516 H   0  0  0  0  0  0  0  0  0  0  0  0
  136.7150   70.3370  223.4990 C   0  0  0  0  0  0  0  0  0  0  0  0
  135.9575   71.0019  223.0584 H   0  0  0  0  0  0  0  0  0  0  0  0
  137.5725   70.9125  223.8779 H   0  0  0  0  0  0  0  0  0  0  0  0
  136.1150   69.6140  224.6270 N   0  0  0  0  0  0  0  0  0  0  0  0
  136.8110   68.9240  224.9970 H   0  0  0  0  0  0  0  0  0  0  0  0
  134.8900   68.8940  224.2280 C   0  0  0  0  0  0  0  0  0  0  0  0
  134.0404   69.5894  224.2955 H   0  0  0  0  0  0  0  0  0  0  0  0
  134.7839   68.0363  224.9085 H   0  0  0  0  0  0  0  0  0  0  0  0
  134.9450   68.3280  222.7910 C   0  0  0  0  0  0  0  0  0  0  0  0
  134.4871   69.0528  222.1018 H   0  0  0  0  0  0  0  0  0  0  0  0
  134.3968   67.3745  222.7702 H   0  0  0  0  0  0  0  0  0  0  0  0
  136.3870   68.0680  222.3560 C   0  0  0  0  0  0  0  0  0  0  0  0
  136.3861   67.6773  221.3277 H   0  0  0  0  0  0  0  0  0  0  0  0
  136.8326   67.3391  223.0489 H   0  0  0  0  0  0  0  0  0  0  0  0
  141.6390   73.3390  221.2210 C   0  0  0  0  0  0  0  0  0  0  0  0
  141.9530   74.9210  220.7470 S   0  0  0  0  0  0  0  0  0  0  0  0
  143.4600   74.6240  220.0660 C   0  0  0  0  0  0  0  0  0  0  0  0
  144.1132   75.3723  219.5934 H   0  0  0  0  0  0  0  0  0  0  0  0
  143.7380   73.2710  220.2030 C   0  0  0  0  0  0  0  0  0  0  0  0
  144.6678   72.8089  219.8398 H   0  0  0  0  0  0  0  0  0  0  0  0
  142.7260   72.5490  220.8460 C   0  0  0  0  0  0  0  0  0  0  0  0
  142.7821   71.4671  221.0366 H   0  0  0  0  0  0  0  0  0  0  0  0
  1  2  1  0
  2  3  2  0
  3  4  1  0
  3  5  1  0
  5  6  2  0
  6  7  1  0
  7  8  2  0
  8  9  1  0
  8 10  1  0
 10 11  1  0
 10 12  2  0
 12 13  1  0
 12 14  1  0
 14 15  1  0
 14 16  2  0
 16 17  1  0
 17 18  2  0
 17 19  1  0
 19 20  1  0
 20 21  1  0
 20 22  1  0
 20 23  1  0
 23 24  1  6
 23 25  1  0
 25 26  1  0
 25 27  1  0
 25 28  1  0
 28 29  1  0
 28 30  1  0
 30 31  1  0
 30 32  1  0
 30 33  1  0
 33 34  1  0
 33 35  1  0
 33 36  1  0
 36 37  1  0
 36 38  1  0
  2 39  1  0
 39 40  1  0
 40 41  1  0
 41 42  1  0
 41 43  2  0
 43 44  1  0
 43 45  1  0
 45 46  1  0
 19  5  1  0
 36 23  1  0
 45 39  2  0
 16  7  1  0
M  END
>  <UniqueID>  (62) 
399

>  <SMILES>  (62) 
O=c1c2ccccc2nc(/C=C/c2cccs2)n1C[C@H]1CCCNC1

>  <Energy>  (62) 
90.74283815160413

>  <Genealogy>  (62) 
O=c1c2ccccc2nc(/C=C/c2cccs2)n1C[C@H]1CCCNC1 (chirality)
O=c1c2ccccc2nc(/C=C/c2cccs2)n1C[C@H]1CCCNC1 (cis-trans isomerization)
O=c1c2ccccc2nc(/C=C/c2cccs2)n1C[C@H]1CCCNC1 (3D coordinates assigned)
O=c1c2ccccc2nc(/C=C/c2cccs2)n1C[C@H]1CCCNC1 (nonaromatic ring conformer: 90.74283815160413 kcal/mol)

>  <smiles>  (62) 
O=c1c2ccccc2nc(/C=C/c2cccs2)n1CC1CCCNC1

>  <score_type>  (62) 
oracle

>  <origin>  (62) 
autodockgpu

>  <m_score__min__energy>  (62) 
-6.8300000000000001

>  <m_primary>  (62) 
energy

>  <meeko>  (62) 
{"free_energy": -6.83, "intermolecular_energy": -8.32, "internal_energy": -1.76, "cluster_size": 15, "cluster_id": 1, "rank_in_cluster": 2}

>  <energy>  (62) 
-6.83

>  <cluster_rmsd>  (62) 
0.62

>  <rmsd>  (62) 
271.32

>  <cluster>  (62) 
1

$$$$
RPPNBJKXHXGJEE-FEAKQIBJNA-N
     RDKit          3D

 46 49  0  0  0  0  0  0  0  0999 V2000
  141.0587   70.6468  220.7913 H   0  0  0  0  0  0  0  0  0  0  0  0
  141.0870   71.6170  221.3090 C   0  0  0  0  0  0  0  0  0  0  0  0
  140.1250   71.8920  222.2000 C   0  0  0  0  0  0  0  0  0  0  0  0
  139.3871   72.6733  221.9653 H   0  0  0  0  0  0  0  0  0  0  0  0
  140.0260   71.1710  223.4980 C   0  0  0  0  0  0  0  0  0  0  0  0
  140.5500   71.7800  224.5960 N   0  0  0  0  0  0  0  0  0  0  0  0
  140.5420   71.2010  225.8170 C   0  0  0  0  0  0  0  0  0  0  0  0
  141.0970   71.8710  226.9140 C   0  0  0  0  0  0  0  0  0  0  0  0
  141.5379   72.8701  226.7824 H   0  0  0  0  0  0  0  0  0  0  0  0
  141.0910   71.2710  228.1760 C   0  0  0  0  0  0  0  0  0  0  0  0
  141.5279   71.7975  229.0373 H   0  0  0  0  0  0  0  0  0  0  0  0
  140.5300   70.0020  228.3440 C   0  0  0  0  0  0  0  0  0  0  0  0
  140.5258   69.5318  229.3384 H   0  0  0  0  0  0  0  0  0  0  0  0
  139.9740   69.3280  227.2520 C   0  0  0  0  0  0  0  0  0  0  0  0
  139.5333   68.3295  227.3888 H   0  0  0  0  0  0  0  0  0  0  0  0
  139.9780   69.9270  225.9770 C   0  0  0  0  0  0  0  0  0  0  0  0
  139.4290   69.2970  224.8480 C   0  0  0  0  0  0  0  0  0  0  0  0
  138.8940   68.1590  224.9770 O   0  0  0  0  0  0  0  0  0  0  0  0
  139.4580   69.9140  223.6160 N   0  0  0  0  0  0  0  0  0  0  0  0
  138.8230   69.2240  222.4670 C   0  0  0  0  0  0  0  0  0  0  0  0
  139.3095   69.5612  221.5398 H   0  0  0  0  0  0  0  0  0  0  0  0
  138.9463   68.1412  222.6165 H   0  0  0  0  0  0  0  0  0  0  0  0
  137.3040   69.5170  222.3670 C   0  0  2  0  0  0  0  0  0  0  0  0
  137.1289   70.0019  221.3953 H   0  0  0  0  0  0  0  0  0  0  0  0
  136.8010   70.5290  223.4320 C   0  0  0  0  0  0  0  0  0  0  0  0
  135.9997   71.1409  222.9921 H   0  0  0  0  0  0  0  0  0  0  0  0
  137.6515   71.1554  223.7389 H   0  0  0  0  0  0  0  0  0  0  0  0
  136.2800   69.8480  224.6240 N   0  0  0  0  0  0  0  0  0  0  0  0
  137.0170   69.2040  224.9970 H   0  0  0  0  0  0  0  0  0  0  0  0
  135.0660   69.0640  224.3220 C   0  0  0  0  0  0  0  0  0  0  0  0
  134.1945   69.7315  224.3917 H   0  0  0  0  0  0  0  0  0  0  0  0
  135.0223   68.2422  225.0519 H   0  0  0  0  0  0  0  0  0  0  0  0
  135.0790   68.4220  222.9160 C   0  0  0  0  0  0  0  0  0  0  0  0
  134.5637   69.0910  222.2111 H   0  0  0  0  0  0  0  0  0  0  0  0
  134.5673   67.4498  222.9716 H   0  0  0  0  0  0  0  0  0  0  0  0
  136.5090   68.1900  222.4290 C   0  0  0  0  0  0  0  0  0  0  0  0
  136.4774   67.7439  221.4240 H   0  0  0  0  0  0  0  0  0  0  0  0
  137.0124   67.5163  223.1380 H   0  0  0  0  0  0  0  0  0  0  0  0
  142.1830   72.5520  220.9880 C   0  0  0  0  0  0  0  0  0  0  0  0
  143.7830   72.0790  220.7860 S   0  0  0  0  0  0  0  0  0  0  0  0
  144.3980   73.6070  220.4570 C   0  0  0  0  0  0  0  0  0  0  0  0
  145.4501   73.8470  220.2437 H   0  0  0  0  0  0  0  0  0  0  0  0
  143.3480   74.5150  220.5010 C   0  0  0  0  0  0  0  0  0  0  0  0
  143.4772   75.5924  220.3208 H   0  0  0  0  0  0  0  0  0  0  0  0
  142.1100   73.9320  220.7960 C   0  0  0  0  0  0  0  0  0  0  0  0
  141.1736   74.5045  220.8691 H   0  0  0  0  0  0  0  0  0  0  0  0
  1  2  1  0
  2  3  2  0
  3  4  1  0
  3  5  1  0
  5  6  2  0
  6  7  1  0
  7  8  2  0
  8  9  1  0
  8 10  1  0
 10 11  1  0
 10 12  2  0
 12 13  1  0
 12 14  1  0
 14 15  1  0
 14 16  2  0
 16 17  1  0
 17 18  2  0
 17 19  1  0
 19 20  1  0
 20 21  1  0
 20 22  1  0
 20 23  1  0
 23 24  1  6
 23 25  1  0
 25 26  1  0
 25 27  1  0
 25 28  1  0
 28 29  1  0
 28 30  1  0
 30 31  1  0
 30 32  1  0
 30 33  1  0
 33 34  1  0
 33 35  1  0
 33 36  1  0
 36 37  1  0
 36 38  1  0
  2 39  1  0
 39 40  1  0
 40 41  1  0
 41 42  1  0
 41 43  2  0
 43 44  1  0
 43 45  1  0
 45 46  1  0
 19  5  1  0
 36 23  1  0
 45 39  2  0
 16  7  1  0
M  END
>  <UniqueID>  (63) 
399

>  <SMILES>  (63) 
O=c1c2ccccc2nc(/C=C/c2cccs2)n1C[C@H]1CCCNC1

>  <Energy>  (63) 
90.74283815160413

>  <Genealogy>  (63) 
O=c1c2ccccc2nc(/C=C/c2cccs2)n1C[C@H]1CCCNC1 (chirality)
O=c1c2ccccc2nc(/C=C/c2cccs2)n1C[C@H]1CCCNC1 (cis-trans isomerization)
O=c1c2ccccc2nc(/C=C/c2cccs2)n1C[C@H]1CCCNC1 (3D coordinates assigned)
O=c1c2ccccc2nc(/C=C/c2cccs2)n1C[C@H]1CCCNC1 (nonaromatic ring conformer: 90.74283815160413 kcal/mol)

>  <smiles>  (63) 
O=c1c2ccccc2nc(/C=C/c2cccs2)n1CC1CCCNC1

>  <score_type>  (63) 
oracle

>  <origin>  (63) 
autodockgpu

>  <m_score__min__energy>  (63) 
-6.8300000000000001

>  <m_primary>  (63) 
energy

>  <meeko>  (63) 
{"free_energy": -6.79, "intermolecular_energy": -8.28, "internal_energy": -1.8, "cluster_size": 15, "cluster_id": 1, "rank_in_cluster": 7}

>  <energy>  (63) 
-6.83

>  <cluster_rmsd>  (63) 
1.5

>  <rmsd>  (63) 
271.3

>  <cluster>  (63) 
1

$$$$
RPPNBJKXHXGJEE-FEAKQIBJNA-N
     RDKit          3D

 46 49  0  0  0  0  0  0  0  0999 V2000
  137.9202   72.7020  221.7353 H   0  0  0  0  0  0  0  0  0  0  0  0
  138.9960   72.8200  221.9320 C   0  0  0  0  0  0  0  0  0  0  0  0
  139.7250   71.7210  222.1710 C   0  0  0  0  0  0  0  0  0  0  0  0
  140.3293   71.2932  221.3575 H   0  0  0  0  0  0  0  0  0  0  0  0
  139.7400   71.0630  223.5060 C   0  0  0  0  0  0  0  0  0  0  0  0
  140.3390   71.7300  224.5290 N   0  0  0  0  0  0  0  0  0  0  0  0
  140.4360   71.2110  225.7730 C   0  0  0  0  0  0  0  0  0  0  0  0
  141.0650   71.9400  226.7890 C   0  0  0  0  0  0  0  0  0  0  0  0
  141.4788   72.9367  226.5759 H   0  0  0  0  0  0  0  0  0  0  0  0
  141.1670   71.4010  228.0740 C   0  0  0  0  0  0  0  0  0  0  0  0
  141.6623   71.9737  228.8720 H   0  0  0  0  0  0  0  0  0  0  0  0
  140.6410   70.1360  228.3470 C   0  0  0  0  0  0  0  0  0  0  0  0
  140.7222   69.7150  229.3600 H   0  0  0  0  0  0  0  0  0  0  0  0
  140.0110   69.4030  227.3350 C   0  0  0  0  0  0  0  0  0  0  0  0
  139.5982   68.4071  227.5534 H   0  0  0  0  0  0  0  0  0  0  0  0
  139.9050   69.9400  226.0360 C   0  0  0  0  0  0  0  0  0  0  0  0
  139.2790   69.2490  224.9860 C   0  0  0  0  0  0  0  0  0  0  0  0
  138.7740   68.1130  225.2110 O   0  0  0  0  0  0  0  0  0  0  0  0
  139.2020   69.8060  223.7280 N   0  0  0  0  0  0  0  0  0  0  0  0
  138.4900   69.0530  222.6670 C   0  0  0  0  0  0  0  0  0  0  0  0
  138.9418   69.2997  221.6949 H   0  0  0  0  0  0  0  0  0  0  0  0
  138.5849   67.9811  222.8952 H   0  0  0  0  0  0  0  0  0  0  0  0
  136.9780   69.3930  222.6140 C   0  0  2  0  0  0  0  0  0  0  0  0
  136.8293   70.0885  221.7748 H   0  0  0  0  0  0  0  0  0  0  0  0
  136.4730   70.1490  223.8740 C   0  0  0  0  0  0  0  0  0  0  0  0
  135.6909   70.8615  223.5730 H   0  0  0  0  0  0  0  0  0  0  0  0
  137.3282   70.6720  224.3268 H   0  0  0  0  0  0  0  0  0  0  0  0
  135.9180   69.2260  224.8730 N   0  0  0  0  0  0  0  0  0  0  0  0
  136.6370   68.5000  225.1010 H   0  0  0  0  0  0  0  0  0  0  0  0
  134.6960   68.5570  224.3840 C   0  0  0  0  0  0  0  0  0  0  0  0
  133.8353   69.2100  224.5909 H   0  0  0  0  0  0  0  0  0  0  0  0
  134.6240   67.5924  224.9079 H   0  0  0  0  0  0  0  0  0  0  0  0
  134.7240   68.2500  222.8690 C   0  0  0  0  0  0  0  0  0  0  0  0
  134.2336   69.0721  222.3270 H   0  0  0  0  0  0  0  0  0  0  0  0
  134.1946   67.3015  222.6955 H   0  0  0  0  0  0  0  0  0  0  0  0
  136.1590   68.1040  222.3620 C   0  0  0  0  0  0  0  0  0  0  0  0
  136.1382   67.8981  221.2816 H   0  0  0  0  0  0  0  0  0  0  0  0
  136.6373   67.2765  222.9066 H   0  0  0  0  0  0  0  0  0  0  0  0
  139.5670   74.1810  221.9200 C   0  0  0  0  0  0  0  0  0  0  0  0
  138.7000   75.5590  222.3370 S   0  0  0  0  0  0  0  0  0  0  0  0
  139.9500   76.6550  222.0960 C   0  0  0  0  0  0  0  0  0  0  0  0
  139.8897   77.7438  222.2406 H   0  0  0  0  0  0  0  0  0  0  0  0
  141.0720   75.9500  221.6830 C   0  0  0  0  0  0  0  0  0  0  0  0
  142.0346   76.4313  221.4555 H   0  0  0  0  0  0  0  0  0  0  0  0
  140.8640   74.5680  221.5830 C   0  0  0  0  0  0  0  0  0  0  0  0
  141.6451   73.8594  221.2701 H   0  0  0  0  0  0  0  0  0  0  0  0
  1  2  1  0
  2  3  2  0
  3  4  1  0
  3  5  1  0
  5  6  2  0
  6  7  1  0
  7  8  2  0
  8  9  1  0
  8 10  1  0
 10 11  1  0
 10 12  2  0
 12 13  1  0
 12 14  1  0
 14 15  1  0
 14 16  2  0
 16 17  1  0
 17 18  2  0
 17 19  1  0
 19 20  1  0
 20 21  1  0
 20 22  1  0
 20 23  1  0
 23 24  1  6
 23 25  1  0
 25 26  1  0
 25 27  1  0
 25 28  1  0
 28 29  1  0
 28 30  1  0
 30 31  1  0
 30 32  1  0
 30 33  1  0
 33 34  1  0
 33 35  1  0
 33 36  1  0
 36 37  1  0
 36 38  1  0
  2 39  1  0
 39 40  1  0
 40 41  1  0
 41 42  1  0
 41 43  2  0
 43 44  1  0
 43 45  1  0
 45 46  1  0
 19  5  1  0
 36 23  1  0
 45 39  2  0
 16  7  1  0
M  END
>  <UniqueID>  (64) 
399

>  <SMILES>  (64) 
O=c1c2ccccc2nc(/C=C/c2cccs2)n1C[C@H]1CCCNC1

>  <Energy>  (64) 
90.74283815160413

>  <Genealogy>  (64) 
O=c1c2ccccc2nc(/C=C/c2cccs2)n1C[C@H]1CCCNC1 (chirality)
O=c1c2ccccc2nc(/C=C/c2cccs2)n1C[C@H]1CCCNC1 (cis-trans isomerization)
O=c1c2ccccc2nc(/C=C/c2cccs2)n1C[C@H]1CCCNC1 (3D coordinates assigned)
O=c1c2ccccc2nc(/C=C/c2cccs2)n1C[C@H]1CCCNC1 (nonaromatic ring conformer: 90.74283815160413 kcal/mol)

>  <smiles>  (64) 
O=c1c2ccccc2nc(/C=C/c2cccs2)n1CC1CCCNC1

>  <score_type>  (64) 
oracle

>  <origin>  (64) 
autodockgpu

>  <m_score__min__energy>  (64) 
-6.8300000000000001

>  <m_primary>  (64) 
energy

>  <meeko>  (64) 
{"free_energy": -6.83, "intermolecular_energy": -8.32, "internal_energy": -1.82, "cluster_size": 15, "cluster_id": 1, "rank_in_cluster": 3}

>  <energy>  (64) 
-6.83

>  <cluster_rmsd>  (64) 
1.5

>  <rmsd>  (64) 
271.35

>  <cluster>  (64) 
1

$$$$
RPPNBJKXHXGJEE-FEAKQIBJNA-N
     RDKit          3D

 46 49  0  0  0  0  0  0  0  0999 V2000
  138.2045   72.6924  221.6478 H   0  0  0  0  0  0  0  0  0  0  0  0
  139.2530   72.9020  221.9060 C   0  0  0  0  0  0  0  0  0  0  0  0
  140.0560   71.8700  222.2010 C   0  0  0  0  0  0  0  0  0  0  0  0
  140.8011   71.5439  221.4604 H   0  0  0  0  0  0  0  0  0  0  0  0
  139.9680   71.1530  223.5020 C   0  0  0  0  0  0  0  0  0  0  0  0
  140.5050   71.7620  224.5930 N   0  0  0  0  0  0  0  0  0  0  0  0
  140.5080   71.1860  225.8150 C   0  0  0  0  0  0  0  0  0  0  0  0
  141.0760   71.8570  226.9050 C   0  0  0  0  0  0  0  0  0  0  0  0
  141.5191   72.8543  226.7667 H   0  0  0  0  0  0  0  0  0  0  0  0
  141.0800   71.2600  228.1680 C   0  0  0  0  0  0  0  0  0  0  0  0
  141.5260   71.7878  229.0239 H   0  0  0  0  0  0  0  0  0  0  0  0
  140.5180   69.9930  228.3450 C   0  0  0  0  0  0  0  0  0  0  0  0
  140.5241   69.5245  229.3402 H   0  0  0  0  0  0  0  0  0  0  0  0
  139.9480   69.3190  227.2610 C   0  0  0  0  0  0  0  0  0  0  0  0
  139.5046   68.3227  227.4049 H   0  0  0  0  0  0  0  0  0  0  0  0
  139.9410   69.9150  225.9840 C   0  0  0  0  0  0  0  0  0  0  0  0
  139.3790   69.2840  224.8620 C   0  0  0  0  0  0  0  0  0  0  0  0
  138.8420   68.1480  225.0000 O   0  0  0  0  0  0  0  0  0  0  0  0
  139.3970   69.8970  223.6290 N   0  0  0  0  0  0  0  0  0  0  0  0
  138.7480   69.2060  222.4880 C   0  0  0  0  0  0  0  0  0  0  0  0
  139.2216   69.5444  221.5546 H   0  0  0  0  0  0  0  0  0  0  0  0
  138.8753   68.1234  222.6356 H   0  0  0  0  0  0  0  0  0  0  0  0
  137.2270   69.4960  222.4080 C   0  0  2  0  0  0  0  0  0  0  0  0
  137.0318   69.9444  221.4227 H   0  0  0  0  0  0  0  0  0  0  0  0
  136.7460   70.5470  223.4450 C   0  0  0  0  0  0  0  0  0  0  0  0
  135.9356   71.1426  222.9994 H   0  0  0  0  0  0  0  0  0  0  0  0
  137.6027   71.1838  223.7108 H   0  0  0  0  0  0  0  0  0  0  0  0
  136.2500   69.9110  224.6720 N   0  0  0  0  0  0  0  0  0  0  0  0
  136.9950   69.2820  225.0540 H   0  0  0  0  0  0  0  0  0  0  0  0
  135.0300   69.1180  224.4250 C   0  0  0  0  0  0  0  0  0  0  0  0
  134.1603   69.7887  224.4876 H   0  0  0  0  0  0  0  0  0  0  0  0
  135.0008   68.3243  225.1860 H   0  0  0  0  0  0  0  0  0  0  0  0
  135.0140   68.4240  223.0440 C   0  0  0  0  0  0  0  0  0  0  0  0
  134.4840   69.0665  222.3255 H   0  0  0  0  0  0  0  0  0  0  0  0
  134.5039   67.4548  223.1466 H   0  0  0  0  0  0  0  0  0  0  0  0
  136.4340   68.1730  222.5360 C   0  0  0  0  0  0  0  0  0  0  0  0
  136.3815   67.6897  221.5492 H   0  0  0  0  0  0  0  0  0  0  0  0
  136.9523   67.5258  223.2589 H   0  0  0  0  0  0  0  0  0  0  0  0
  139.7080   74.3060  221.9110 C   0  0  0  0  0  0  0  0  0  0  0  0
  138.7180   75.6050  222.3070 S   0  0  0  0  0  0  0  0  0  0  0  0
  139.8770   76.8030  222.1010 C   0  0  0  0  0  0  0  0  0  0  0  0
  139.7221   77.8822  222.2468 H   0  0  0  0  0  0  0  0  0  0  0  0
  141.0640   76.1960  221.7150 C   0  0  0  0  0  0  0  0  0  0  0  0
  141.9879   76.7574  221.5120 H   0  0  0  0  0  0  0  0  0  0  0  0
  140.9760   74.8020  221.6080 C   0  0  0  0  0  0  0  0  0  0  0  0
  141.8218   74.1628  221.3146 H   0  0  0  0  0  0  0  0  0  0  0  0
  1  2  1  0
  2  3  2  0
  3  4  1  0
  3  5  1  0
  5  6  2  0
  6  7  1  0
  7  8  2  0
  8  9  1  0
  8 10  1  0
 10 11  1  0
 10 12  2  0
 12 13  1  0
 12 14  1  0
 14 15  1  0
 14 16  2  0
 16 17  1  0
 17 18  2  0
 17 19  1  0
 19 20  1  0
 20 21  1  0
 20 22  1  0
 20 23  1  0
 23 24  1  6
 23 25  1  0
 25 26  1  0
 25 27  1  0
 25 28  1  0
 28 29  1  0
 28 30  1  0
 30 31  1  0
 30 32  1  0
 30 33  1  0
 33 34  1  0
 33 35  1  0
 33 36  1  0
 36 37  1  0
 36 38  1  0
  2 39  1  0
 39 40  1  0
 40 41  1  0
 41 42  1  0
 41 43  2  0
 43 44  1  0
 43 45  1  0
 45 46  1  0
 19  5  1  0
 36 23  1  0
 45 39  2  0
 16  7  1  0
M  END
>  <UniqueID>  (65) 
399

>  <SMILES>  (65) 
O=c1c2ccccc2nc(/C=C/c2cccs2)n1C[C@H]1CCCNC1

>  <Energy>  (65) 
90.74283815160413

>  <Genealogy>  (65) 
O=c1c2ccccc2nc(/C=C/c2cccs2)n1C[C@H]1CCCNC1 (chirality)
O=c1c2ccccc2nc(/C=C/c2cccs2)n1C[C@H]1CCCNC1 (cis-trans isomerization)
O=c1c2ccccc2nc(/C=C/c2cccs2)n1C[C@H]1CCCNC1 (3D coordinates assigned)
O=c1c2ccccc2nc(/C=C/c2cccs2)n1C[C@H]1CCCNC1 (nonaromatic ring conformer: 90.74283815160413 kcal/mol)

>  <smiles>  (65) 
O=c1c2ccccc2nc(/C=C/c2cccs2)n1CC1CCCNC1

>  <score_type>  (65) 
oracle

>  <origin>  (65) 
autodockgpu

>  <m_score__min__energy>  (65) 
-6.8300000000000001

>  <m_primary>  (65) 
energy

>  <meeko>  (65) 
{"free_energy": -6.79, "intermolecular_energy": -8.28, "internal_energy": -1.9, "cluster_size": 15, "cluster_id": 1, "rank_in_cluster": 9}

>  <energy>  (65) 
-6.82

>  <cluster_rmsd>  (65) 
0.07

>  <rmsd>  (65) 
271.32

>  <cluster>  (65) 
1

$$$$
RPPNBJKXHXGJEE-FEAKQIBJNA-N
     RDKit          3D

 46 49  0  0  0  0  0  0  0  0999 V2000
  138.3017   72.5889  221.5226 H   0  0  0  0  0  0  0  0  0  0  0  0
  139.3670   72.7150  221.7660 C   0  0  0  0  0  0  0  0  0  0  0  0
  140.0800   71.6270  222.0920 C   0  0  0  0  0  0  0  0  0  0  0  0
  140.7553   71.1869  221.3435 H   0  0  0  0  0  0  0  0  0  0  0  0
  139.9840   70.9980  223.4370 C   0  0  0  0  0  0  0  0  0  0  0  0
  140.5270   71.6730  224.4860 N   0  0  0  0  0  0  0  0  0  0  0  0
  140.5230   71.1790  225.7440 C   0  0  0  0  0  0  0  0  0  0  0  0
  141.0980   71.9140  226.7870 C   0  0  0  0  0  0  0  0  0  0  0  0
  141.5523   72.8949  226.5833 H   0  0  0  0  0  0  0  0  0  0  0  0
  141.0950   71.4020  228.0870 C   0  0  0  0  0  0  0  0  0  0  0  0
  141.5465   71.9804  228.9065 H   0  0  0  0  0  0  0  0  0  0  0  0
  140.5190   70.1560  228.3470 C   0  0  0  0  0  0  0  0  0  0  0  0
  140.5192   69.7549  229.3713 H   0  0  0  0  0  0  0  0  0  0  0  0
  139.9420   69.4170  227.3090 C   0  0  0  0  0  0  0  0  0  0  0  0
  139.4882   68.4370  227.5179 H   0  0  0  0  0  0  0  0  0  0  0  0
  139.9420   69.9280  225.9950 C   0  0  0  0  0  0  0  0  0  0  0  0
  139.3730   69.2300  224.9170 C   0  0  0  0  0  0  0  0  0  0  0  0
  138.8240   68.1120  225.1290 O   0  0  0  0  0  0  0  0  0  0  0  0
  139.3990   69.7610  223.6460 N   0  0  0  0  0  0  0  0  0  0  0  0
  138.7430   69.0030  222.5520 C   0  0  0  0  0  0  0  0  0  0  0  0
  139.2532   69.2359  221.6057 H   0  0  0  0  0  0  0  0  0  0  0  0
  138.8146   67.9328  222.7960 H   0  0  0  0  0  0  0  0  0  0  0  0
  137.2400   69.3550  222.4070 C   0  0  2  0  0  0  0  0  0  0  0  0
  137.1209   69.8881  221.4522 H   0  0  0  0  0  0  0  0  0  0  0  0
  136.7310   70.3370  223.4970 C   0  0  0  0  0  0  0  0  0  0  0  0
  135.9705   70.9975  223.0550 H   0  0  0  0  0  0  0  0  0  0  0  0
  137.5902   70.9170  223.8649 H   0  0  0  0  0  0  0  0  0  0  0  0
  136.1380   69.6230  224.6360 N   0  0  0  0  0  0  0  0  0  0  0  0
  136.8370   68.9370  225.0070 H   0  0  0  0  0  0  0  0  0  0  0  0
  134.9110   68.8990  224.2510 C   0  0  0  0  0  0  0  0  0  0  0  0
  134.0614   69.5946  224.3174 H   0  0  0  0  0  0  0  0  0  0  0  0
  134.8092   68.0475  224.9399 H   0  0  0  0  0  0  0  0  0  0  0  0
  134.9580   68.3200  222.8180 C   0  0  0  0  0  0  0  0  0  0  0  0
  134.4948   69.0380  222.1253 H   0  0  0  0  0  0  0  0  0  0  0  0
  134.4112   67.3656  222.8093 H   0  0  0  0  0  0  0  0  0  0  0  0
  136.3970   68.0580  222.3760 C   0  0  0  0  0  0  0  0  0  0  0  0
  136.3900   67.6597  221.3507 H   0  0  0  0  0  0  0  0  0  0  0  0
  136.8474   67.3346  223.0716 H   0  0  0  0  0  0  0  0  0  0  0  0
  139.9420   74.0730  221.7180 C   0  0  0  0  0  0  0  0  0  0  0  0
  139.1610   75.4370  222.3130 S   0  0  0  0  0  0  0  0  0  0  0  0
  140.3700   76.5380  221.9270 C   0  0  0  0  0  0  0  0  0  0  0  0
  140.3429   77.6205  222.1205 H   0  0  0  0  0  0  0  0  0  0  0  0
  141.4100   75.8440  221.3210 C   0  0  0  0  0  0  0  0  0  0  0  0
  142.3313   76.3298  220.9670 H   0  0  0  0  0  0  0  0  0  0  0  0
  141.1760   74.4690  221.2030 C   0  0  0  0  0  0  0  0  0  0  0  0
  141.8941   73.7702  220.7491 H   0  0  0  0  0  0  0  0  0  0  0  0
  1  2  1  0
  2  3  2  0
  3  4  1  0
  3  5  1  0
  5  6  2  0
  6  7  1  0
  7  8  2  0
  8  9  1  0
  8 10  1  0
 10 11  1  0
 10 12  2  0
 12 13  1  0
 12 14  1  0
 14 15  1  0
 14 16  2  0
 16 17  1  0
 17 18  2  0
 17 19  1  0
 19 20  1  0
 20 21  1  0
 20 22  1  0
 20 23  1  0
 23 24  1  6
 23 25  1  0
 25 26  1  0
 25 27  1  0
 25 28  1  0
 28 29  1  0
 28 30  1  0
 30 31  1  0
 30 32  1  0
 30 33  1  0
 33 34  1  0
 33 35  1  0
 33 36  1  0
 36 37  1  0
 36 38  1  0
  2 39  1  0
 39 40  1  0
 40 41  1  0
 41 42  1  0
 41 43  2  0
 43 44  1  0
 43 45  1  0
 45 46  1  0
 19  5  1  0
 36 23  1  0
 45 39  2  0
 16  7  1  0
M  END
>  <UniqueID>  (66) 
399

>  <SMILES>  (66) 
O=c1c2ccccc2nc(/C=C/c2cccs2)n1C[C@H]1CCCNC1

>  <Energy>  (66) 
90.74283815160413

>  <Genealogy>  (66) 
O=c1c2ccccc2nc(/C=C/c2cccs2)n1C[C@H]1CCCNC1 (chirality)
O=c1c2ccccc2nc(/C=C/c2cccs2)n1C[C@H]1CCCNC1 (cis-trans isomerization)
O=c1c2ccccc2nc(/C=C/c2cccs2)n1C[C@H]1CCCNC1 (3D coordinates assigned)
O=c1c2ccccc2nc(/C=C/c2cccs2)n1C[C@H]1CCCNC1 (nonaromatic ring conformer: 90.74283815160413 kcal/mol)

>  <smiles>  (66) 
O=c1c2ccccc2nc(/C=C/c2cccs2)n1CC1CCCNC1

>  <score_type>  (66) 
oracle

>  <origin>  (66) 
autodockgpu

>  <m_score__min__energy>  (66) 
-6.8300000000000001

>  <m_primary>  (66) 
energy

>  <meeko>  (66) 
{"free_energy": -6.74, "intermolecular_energy": -8.23, "internal_energy": -1.87, "cluster_size": 15, "cluster_id": 1, "rank_in_cluster": 14}

>  <energy>  (66) 
-6.81

>  <cluster_rmsd>  (66) 
1.5

>  <rmsd>  (66) 
271.37

>  <cluster>  (66) 
1

$$$$
RPPNBJKXHXGJEE-FEAKQIBJNA-N
     RDKit          3D

 46 49  0  0  0  0  0  0  0  0999 V2000
  138.2175   72.5859  221.5577 H   0  0  0  0  0  0  0  0  0  0  0  0
  139.2350   72.8470  221.8840 C   0  0  0  0  0  0  0  0  0  0  0  0
  140.0790   71.8540  222.1970 C   0  0  0  0  0  0  0  0  0  0  0  0
  140.8590   71.5684  221.4758 H   0  0  0  0  0  0  0  0  0  0  0  0
  139.9910   71.1270  223.4920 C   0  0  0  0  0  0  0  0  0  0  0  0
  140.5170   71.7320  224.5900 N   0  0  0  0  0  0  0  0  0  0  0  0
  140.5180   71.1470  225.8090 C   0  0  0  0  0  0  0  0  0  0  0  0
  141.0750   71.8150  226.9060 C   0  0  0  0  0  0  0  0  0  0  0  0
  141.5109   72.8166  226.7768 H   0  0  0  0  0  0  0  0  0  0  0  0
  141.0770   71.2090  228.1650 C   0  0  0  0  0  0  0  0  0  0  0  0
  141.5135   71.7346  229.0271 H   0  0  0  0  0  0  0  0  0  0  0  0
  140.5250   69.9360  228.3300 C   0  0  0  0  0  0  0  0  0  0  0  0
  140.5300   69.4602  229.3218 H   0  0  0  0  0  0  0  0  0  0  0  0
  139.9660   69.2650  227.2370 C   0  0  0  0  0  0  0  0  0  0  0  0
  139.5299   68.2641  227.3713 H   0  0  0  0  0  0  0  0  0  0  0  0
  139.9610   69.8700  225.9640 C   0  0  0  0  0  0  0  0  0  0  0  0
  139.4100   69.2430  224.8350 C   0  0  0  0  0  0  0  0  0  0  0  0
  138.8820   68.1010  224.9610 O   0  0  0  0  0  0  0  0  0  0  0  0
  139.4300   69.8660  223.6060 N   0  0  0  0  0  0  0  0  0  0  0  0
  138.7930   69.1770  222.4570 C   0  0  0  0  0  0  0  0  0  0  0  0
  139.2820   69.5106  221.5299 H   0  0  0  0  0  0  0  0  0  0  0  0
  138.9113   68.0939  222.6081 H   0  0  0  0  0  0  0  0  0  0  0  0
  137.2750   69.4770  222.3550 C   0  0  2  0  0  0  0  0  0  0  0  0
  137.1067   69.9856  221.3943 H   0  0  0  0  0  0  0  0  0  0  0  0
  136.7690   70.4650  223.4420 C   0  0  0  0  0  0  0  0  0  0  0  0
  135.9721   71.0902  223.0129 H   0  0  0  0  0  0  0  0  0  0  0  0
  137.6192   71.0816  223.7689 H   0  0  0  0  0  0  0  0  0  0  0  0
  136.2390   69.7550  224.6140 N   0  0  0  0  0  0  0  0  0  0  0  0
  136.9720   69.1010  224.9760 H   0  0  0  0  0  0  0  0  0  0  0  0
  135.0240   68.9830  224.2860 C   0  0  0  0  0  0  0  0  0  0  0  0
  134.1543   69.6516  224.3670 H   0  0  0  0  0  0  0  0  0  0  0  0
  134.9726   68.1438  224.9953 H   0  0  0  0  0  0  0  0  0  0  0  0
  135.0440   68.3760  222.8640 C   0  0  0  0  0  0  0  0  0  0  0  0
  134.5349   69.0639  222.1728 H   0  0  0  0  0  0  0  0  0  0  0  0
  134.5294   67.4042  222.8923 H   0  0  0  0  0  0  0  0  0  0  0  0
  136.4760   68.1520  222.3800 C   0  0  0  0  0  0  0  0  0  0  0  0
  136.4491   67.7306  221.3643 H   0  0  0  0  0  0  0  0  0  0  0  0
  136.9732   67.4599  223.0755 H   0  0  0  0  0  0  0  0  0  0  0  0
  139.6050   74.2740  221.9560 C   0  0  0  0  0  0  0  0  0  0  0  0
  141.1260   74.8640  221.5530 S   0  0  0  0  0  0  0  0  0  0  0  0
  140.7970   76.4820  221.8670 C   0  0  0  0  0  0  0  0  0  0  0  0
  141.5025   77.3182  221.7525 H   0  0  0  0  0  0  0  0  0  0  0  0
  139.4800   76.5800  222.2960 C   0  0  0  0  0  0  0  0  0  0  0  0
  139.0070   77.5343  222.5711 H   0  0  0  0  0  0  0  0  0  0  0  0
  138.8100   75.3520  222.3460 C   0  0  0  0  0  0  0  0  0  0  0  0
  137.7614   75.2474  222.6613 H   0  0  0  0  0  0  0  0  0  0  0  0
  1  2  1  0
  2  3  2  0
  3  4  1  0
  3  5  1  0
  5  6  2  0
  6  7  1  0
  7  8  2  0
  8  9  1  0
  8 10  1  0
 10 11  1  0
 10 12  2  0
 12 13  1  0
 12 14  1  0
 14 15  1  0
 14 16  2  0
 16 17  1  0
 17 18  2  0
 17 19  1  0
 19 20  1  0
 20 21  1  0
 20 22  1  0
 20 23  1  0
 23 24  1  6
 23 25  1  0
 25 26  1  0
 25 27  1  0
 25 28  1  0
 28 29  1  0
 28 30  1  0
 30 31  1  0
 30 32  1  0
 30 33  1  0
 33 34  1  0
 33 35  1  0
 33 36  1  0
 36 37  1  0
 36 38  1  0
  2 39  1  0
 39 40  1  0
 40 41  1  0
 41 42  1  0
 41 43  2  0
 43 44  1  0
 43 45  1  0
 45 46  1  0
 19  5  1  0
 36 23  1  0
 45 39  2  0
 16  7  1  0
M  END
>  <UniqueID>  (67) 
399

>  <SMILES>  (67) 
O=c1c2ccccc2nc(/C=C/c2cccs2)n1C[C@H]1CCCNC1

>  <Energy>  (67) 
90.74283815160413

>  <Genealogy>  (67) 
O=c1c2ccccc2nc(/C=C/c2cccs2)n1C[C@H]1CCCNC1 (chirality)
O=c1c2ccccc2nc(/C=C/c2cccs2)n1C[C@H]1CCCNC1 (cis-trans isomerization)
O=c1c2ccccc2nc(/C=C/c2cccs2)n1C[C@H]1CCCNC1 (3D coordinates assigned)
O=c1c2ccccc2nc(/C=C/c2cccs2)n1C[C@H]1CCCNC1 (nonaromatic ring conformer: 90.74283815160413 kcal/mol)

>  <smiles>  (67) 
O=c1c2ccccc2nc(/C=C/c2cccs2)n1CC1CCCNC1

>  <score_type>  (67) 
oracle

>  <origin>  (67) 
autodockgpu

>  <m_score__min__energy>  (67) 
-6.8300000000000001

>  <m_primary>  (67) 
energy

>  <meeko>  (67) 
{"free_energy": -6.77, "intermolecular_energy": -8.26, "internal_energy": -1.91, "cluster_size": 15, "cluster_id": 1, "rank_in_cluster": 12}

>  <energy>  (67) 
-6.79

>  <cluster_rmsd>  (67) 
0.41

>  <rmsd>  (67) 
271.39

>  <cluster>  (67) 
1

$$$$
RPPNBJKXHXGJEE-FEAKQIBJNA-N
     RDKit          3D

 46 49  0  0  0  0  0  0  0  0999 V2000
  138.1595   72.7233  221.7033 H   0  0  0  0  0  0  0  0  0  0  0  0
  139.2160   72.9290  221.9300 C   0  0  0  0  0  0  0  0  0  0  0  0
  140.0210   71.8950  222.2100 C   0  0  0  0  0  0  0  0  0  0  0  0
  140.7560   71.5713  221.4584 H   0  0  0  0  0  0  0  0  0  0  0  0
  139.9490   71.1720  223.5090 C   0  0  0  0  0  0  0  0  0  0  0  0
  140.4830   71.7840  224.6000 N   0  0  0  0  0  0  0  0  0  0  0  0
  140.4980   71.2040  225.8200 C   0  0  0  0  0  0  0  0  0  0  0  0
  141.0630   71.8790  226.9100 C   0  0  0  0  0  0  0  0  0  0  0  0
  141.4930   72.8822  226.7733 H   0  0  0  0  0  0  0  0  0  0  0  0
  141.0800   71.2770  228.1710 C   0  0  0  0  0  0  0  0  0  0  0  0
  141.5226   71.8075  229.0270 H   0  0  0  0  0  0  0  0  0  0  0  0
  140.5360   70.0030  228.3460 C   0  0  0  0  0  0  0  0  0  0  0  0
  140.5523   69.5316  229.3397 H   0  0  0  0  0  0  0  0  0  0  0  0
  139.9700   69.3240  227.2610 C   0  0  0  0  0  0  0  0  0  0  0  0
  139.5407   68.3212  227.4031 H   0  0  0  0  0  0  0  0  0  0  0  0
  139.9500   69.9250  225.9860 C   0  0  0  0  0  0  0  0  0  0  0  0
  139.3910   69.2900  224.8650 C   0  0  0  0  0  0  0  0  0  0  0  0
  138.8700   68.1470  225.0010 O   0  0  0  0  0  0  0  0  0  0  0  0
  139.3960   69.9090  223.6340 N   0  0  0  0  0  0  0  0  0  0  0  0
  138.7510   69.2130  222.4930 C   0  0  0  0  0  0  0  0  0  0  0  0
  139.2331   69.5419  221.5606 H   0  0  0  0  0  0  0  0  0  0  0  0
  138.8712   68.1308  222.6494 H   0  0  0  0  0  0  0  0  0  0  0  0
  137.2320   69.5110  222.4000 C   0  0  2  0  0  0  0  0  0  0  0  0
  137.0581   70.0244  221.4428 H   0  0  0  0  0  0  0  0  0  0  0  0
  136.7300   70.4920  223.4950 C   0  0  0  0  0  0  0  0  0  0  0  0
  135.9302   71.1185  223.0732 H   0  0  0  0  0  0  0  0  0  0  0  0
  137.5813   71.1076  223.8212 H   0  0  0  0  0  0  0  0  0  0  0  0
  136.2070   69.7760  224.6650 N   0  0  0  0  0  0  0  0  0  0  0  0
  136.9420   69.1210  225.0200 H   0  0  0  0  0  0  0  0  0  0  0  0
  134.9920   69.0040  224.3390 C   0  0  0  0  0  0  0  0  0  0  0  0
  134.1218   69.6710  224.4276 H   0  0  0  0  0  0  0  0  0  0  0  0
  134.9460   68.1611  225.0443 H   0  0  0  0  0  0  0  0  0  0  0  0
  135.0050   68.4040  222.9150 C   0  0  0  0  0  0  0  0  0  0  0  0
  134.4913   69.0944  222.2298 H   0  0  0  0  0  0  0  0  0  0  0  0
  134.4918   67.4314  222.9416 H   0  0  0  0  0  0  0  0  0  0  0  0
  136.4350   68.1840  222.4220 C   0  0  0  0  0  0  0  0  0  0  0  0
  136.4033   67.7680  221.4042 H   0  0  0  0  0  0  0  0  0  0  0  0
  136.9369   67.4885  223.1108 H   0  0  0  0  0  0  0  0  0  0  0  0
  139.6780   74.3300  221.9110 C   0  0  0  0  0  0  0  0  0  0  0  0
  138.7020   75.6390  222.3110 S   0  0  0  0  0  0  0  0  0  0  0  0
  139.8640   76.8290  222.0700 C   0  0  0  0  0  0  0  0  0  0  0  0
  139.7175   77.9108  222.2050 H   0  0  0  0  0  0  0  0  0  0  0  0
  141.0410   76.2100  221.6710 C   0  0  0  0  0  0  0  0  0  0  0  0
  141.9648   76.7633  221.4464 H   0  0  0  0  0  0  0  0  0  0  0  0
  140.9430   74.8160  221.5810 C   0  0  0  0  0  0  0  0  0  0  0  0
  141.7801   74.1689  221.2801 H   0  0  0  0  0  0  0  0  0  0  0  0
  1  2  1  0
  2  3  2  0
  3  4  1  0
  3  5  1  0
  5  6  2  0
  6  7  1  0
  7  8  2  0
  8  9  1  0
  8 10  1  0
 10 11  1  0
 10 12  2  0
 12 13  1  0
 12 14  1  0
 14 15  1  0
 14 16  2  0
 16 17  1  0
 17 18  2  0
 17 19  1  0
 19 20  1  0
 20 21  1  0
 20 22  1  0
 20 23  1  0
 23 24  1  6
 23 25  1  0
 25 26  1  0
 25 27  1  0
 25 28  1  0
 28 29  1  0
 28 30  1  0
 30 31  1  0
 30 32  1  0
 30 33  1  0
 33 34  1  0
 33 35  1  0
 33 36  1  0
 36 37  1  0
 36 38  1  0
  2 39  1  0
 39 40  1  0
 40 41  1  0
 41 42  1  0
 41 43  2  0
 43 44  1  0
 43 45  1  0
 45 46  1  0
 19  5  1  0
 36 23  1  0
 45 39  2  0
 16  7  1  0
M  END
>  <UniqueID>  (68) 
399

>  <SMILES>  (68) 
O=c1c2ccccc2nc(/C=C/c2cccs2)n1C[C@H]1CCCNC1

>  <Energy>  (68) 
90.74283815160413

>  <Genealogy>  (68) 
O=c1c2ccccc2nc(/C=C/c2cccs2)n1C[C@H]1CCCNC1 (chirality)
O=c1c2ccccc2nc(/C=C/c2cccs2)n1C[C@H]1CCCNC1 (cis-trans isomerization)
O=c1c2ccccc2nc(/C=C/c2cccs2)n1C[C@H]1CCCNC1 (3D coordinates assigned)
O=c1c2ccccc2nc(/C=C/c2cccs2)n1C[C@H]1CCCNC1 (nonaromatic ring conformer: 90.74283815160413 kcal/mol)

>  <smiles>  (68) 
O=c1c2ccccc2nc(/C=C/c2cccs2)n1CC1CCCNC1

>  <score_type>  (68) 
oracle

>  <origin>  (68) 
autodockgpu

>  <m_score__min__energy>  (68) 
-6.8300000000000001

>  <m_primary>  (68) 
energy

>  <meeko>  (68) 
{"free_energy": -6.81, "intermolecular_energy": -8.3, "internal_energy": -1.88, "cluster_size": 15, "cluster_id": 1, "rank_in_cluster": 6}

>  <energy>  (68) 
-6.79

>  <cluster_rmsd>  (68) 
0.41

>  <rmsd>  (68) 
271.39

>  <cluster>  (68) 
1

$$$$
RPPNBJKXHXGJEE-FEAKQIBJNA-N
     RDKit          3D

 46 49  0  0  0  0  0  0  0  0999 V2000
  139.8720   73.7103  222.3485 H   0  0  0  0  0  0  0  0  0  0  0  0
  140.5220   72.9240  221.9370 C   0  0  0  0  0  0  0  0  0  0  0  0
  140.1480   71.6450  222.0850 C   0  0  0  0  0  0  0  0  0  0  0  0
  139.9250   71.0465  221.1894 H   0  0  0  0  0  0  0  0  0  0  0  0
  140.0260   71.0120  223.4260 C   0  0  0  0  0  0  0  0  0  0  0  0
  140.5530   71.6820  224.4870 N   0  0  0  0  0  0  0  0  0  0  0  0
  140.5240   71.1840  225.7430 C   0  0  0  0  0  0  0  0  0  0  0  0
  141.0830   71.9140  226.8000 C   0  0  0  0  0  0  0  0  0  0  0  0
  141.5435   72.8943  226.6079 H   0  0  0  0  0  0  0  0  0  0  0  0
  141.0560   71.3980  228.0970 C   0  0  0  0  0  0  0  0  0  0  0  0
  141.4947   71.9725  228.9261 H   0  0  0  0  0  0  0  0  0  0  0  0
  140.4720   70.1520  228.3430 C   0  0  0  0  0  0  0  0  0  0  0  0
  140.4527   69.7476  229.3658 H   0  0  0  0  0  0  0  0  0  0  0  0
  139.9120   69.4180  227.2920 C   0  0  0  0  0  0  0  0  0  0  0  0
  139.4519   68.4385  227.4895 H   0  0  0  0  0  0  0  0  0  0  0  0
  139.9370   69.9330  225.9800 C   0  0  0  0  0  0  0  0  0  0  0  0
  139.3860   69.2400  224.8900 C   0  0  0  0  0  0  0  0  0  0  0  0
  138.8300   68.1220  225.0870 O   0  0  0  0  0  0  0  0  0  0  0  0
  139.4360   69.7750  223.6210 N   0  0  0  0  0  0  0  0  0  0  0  0
  138.7980   69.0220  222.5130 C   0  0  0  0  0  0  0  0  0  0  0  0
  139.3223   69.2607  221.5759 H   0  0  0  0  0  0  0  0  0  0  0  0
  138.8673   67.9506  222.7522 H   0  0  0  0  0  0  0  0  0  0  0  0
  137.2970   69.3730  222.3470 C   0  0  2  0  0  0  0  0  0  0  0  0
  137.1877   69.8857  221.3800 H   0  0  0  0  0  0  0  0  0  0  0  0
  136.7790   70.3790  223.4110 C   0  0  0  0  0  0  0  0  0  0  0  0
  136.0233   71.0305  222.9479 H   0  0  0  0  0  0  0  0  0  0  0  0
  137.6353   70.9662  223.7743 H   0  0  0  0  0  0  0  0  0  0  0  0
  136.1750   69.6900  224.5590 N   0  0  0  0  0  0  0  0  0  0  0  0
  136.8690   69.0120  224.9520 H   0  0  0  0  0  0  0  0  0  0  0  0
  134.9500   68.9590  224.1800 C   0  0  0  0  0  0  0  0  0  0  0  0
  134.1005   69.6565  224.2242 H   0  0  0  0  0  0  0  0  0  0  0  0
  134.8403   68.1230  224.8864 H   0  0  0  0  0  0  0  0  0  0  0  0
  135.0100   68.3500  222.7600 C   0  0  0  0  0  0  0  0  0  0  0  0
  134.5549   69.0542  222.0480 H   0  0  0  0  0  0  0  0  0  0  0  0
  134.4617   67.3964  222.7665 H   0  0  0  0  0  0  0  0  0  0  0  0
  136.4520   68.0760  222.3370 C   0  0  0  0  0  0  0  0  0  0  0  0
  136.4535   67.6551  221.3207 H   0  0  0  0  0  0  0  0  0  0  0  0
  136.8950   67.3674  223.0522 H   0  0  0  0  0  0  0  0  0  0  0  0
  141.7630   73.3280  221.2490 C   0  0  0  0  0  0  0  0  0  0  0  0
  142.9930   72.2570  220.8390 S   0  0  0  0  0  0  0  0  0  0  0  0
  144.0070   73.3890  220.1240 C   0  0  0  0  0  0  0  0  0  0  0  0
  144.9897   73.1824  219.6749 H   0  0  0  0  0  0  0  0  0  0  0  0
  143.3900   74.6310  220.1980 C   0  0  0  0  0  0  0  0  0  0  0  0
  143.8428   75.5518  219.8017 H   0  0  0  0  0  0  0  0  0  0  0  0
  142.1380   74.6020  220.8240 C   0  0  0  0  0  0  0  0  0  0  0  0
  141.5123   75.4955  220.9664 H   0  0  0  0  0  0  0  0  0  0  0  0
  1  2  1  0
  2  3  2  0
  3  4  1  0
  3  5  1  0
  5  6  2  0
  6  7  1  0
  7  8  2  0
  8  9  1  0
  8 10  1  0
 10 11  1  0
 10 12  2  0
 12 13  1  0
 12 14  1  0
 14 15  1  0
 14 16  2  0
 16 17  1  0
 17 18  2  0
 17 19  1  0
 19 20  1  0
 20 21  1  0
 20 22  1  0
 20 23  1  0
 23 24  1  6
 23 25  1  0
 25 26  1  0
 25 27  1  0
 25 28  1  0
 28 29  1  0
 28 30  1  0
 30 31  1  0
 30 32  1  0
 30 33  1  0
 33 34  1  0
 33 35  1  0
 33 36  1  0
 36 37  1  0
 36 38  1  0
  2 39  1  0
 39 40  1  0
 40 41  1  0
 41 42  1  0
 41 43  2  0
 43 44  1  0
 43 45  1  0
 45 46  1  0
 19  5  1  0
 36 23  1  0
 45 39  2  0
 16  7  1  0
M  END
>  <UniqueID>  (69) 
399

>  <SMILES>  (69) 
O=c1c2ccccc2nc(/C=C/c2cccs2)n1C[C@H]1CCCNC1

>  <Energy>  (69) 
90.74283815160413

>  <Genealogy>  (69) 
O=c1c2ccccc2nc(/C=C/c2cccs2)n1C[C@H]1CCCNC1 (chirality)
O=c1c2ccccc2nc(/C=C/c2cccs2)n1C[C@H]1CCCNC1 (cis-trans isomerization)
O=c1c2ccccc2nc(/C=C/c2cccs2)n1C[C@H]1CCCNC1 (3D coordinates assigned)
O=c1c2ccccc2nc(/C=C/c2cccs2)n1C[C@H]1CCCNC1 (nonaromatic ring conformer: 90.74283815160413 kcal/mol)

>  <smiles>  (69) 
O=c1c2ccccc2nc(/C=C/c2cccs2)n1CC1CCCNC1

>  <score_type>  (69) 
oracle

>  <origin>  (69) 
autodockgpu

>  <m_score__min__energy>  (69) 
-6.8300000000000001

>  <m_primary>  (69) 
energy

>  <meeko>  (69) 
{"free_energy": -6.83, "intermolecular_energy": -8.32, "internal_energy": -1.78, "cluster_size": 15, "cluster_id": 1, "rank_in_cluster": 1}

>  <energy>  (69) 
-6.79

>  <cluster_rmsd>  (69) 
1.49

>  <rmsd>  (69) 
271.39

>  <cluster>  (69) 
1

$$$$
RPPNBJKXHXGJEE-FEAKQIBJNA-N
     RDKit          3D

 46 49  0  0  0  0  0  0  0  0999 V2000
  138.0713   72.7772  221.7926 H   0  0  0  0  0  0  0  0  0  0  0  0
  139.1430   72.9450  221.9750 C   0  0  0  0  0  0  0  0  0  0  0  0
  139.9220   71.8820  222.2210 C   0  0  0  0  0  0  0  0  0  0  0  0
  140.6185   71.5382  221.4421 H   0  0  0  0  0  0  0  0  0  0  0  0
  139.8710   71.1540  223.5180 C   0  0  0  0  0  0  0  0  0  0  0  0
  140.4210   71.7630  224.6030 N   0  0  0  0  0  0  0  0  0  0  0  0
  140.4560   71.1770  225.8200 C   0  0  0  0  0  0  0  0  0  0  0  0
  141.0360   71.8490  226.9040 C   0  0  0  0  0  0  0  0  0  0  0  0
  141.4612   72.8539  226.7648 H   0  0  0  0  0  0  0  0  0  0  0  0
  141.0740   71.2420  228.1620 C   0  0  0  0  0  0  0  0  0  0  0  0
  141.5296   71.7694  229.0130 H   0  0  0  0  0  0  0  0  0  0  0  0
  140.5340   69.9660  228.3400 C   0  0  0  0  0  0  0  0  0  0  0  0
  140.5663   69.4903  229.3313 H   0  0  0  0  0  0  0  0  0  0  0  0
  139.9520   69.2910  227.2610 C   0  0  0  0  0  0  0  0  0  0  0  0
  139.5265   68.2870  227.4054 H   0  0  0  0  0  0  0  0  0  0  0  0
  139.9110   69.8970  225.9900 C   0  0  0  0  0  0  0  0  0  0  0  0
  139.3360   69.2660  224.8750 C   0  0  0  0  0  0  0  0  0  0  0  0
  138.8180   68.1210  225.0140 O   0  0  0  0  0  0  0  0  0  0  0  0
  139.3210   69.8900  223.6460 N   0  0  0  0  0  0  0  0  0  0  0  0
  138.6600   69.1970  222.5130 C   0  0  0  0  0  0  0  0  0  0  0  0
  139.1350   69.5210  221.5752 H   0  0  0  0  0  0  0  0  0  0  0  0
  138.7741   68.1142  222.6697 H   0  0  0  0  0  0  0  0  0  0  0  0
  137.1420   69.5060  222.4350 C   0  0  2  0  0  0  0  0  0  0  0  0
  136.9692   70.0596  221.5003 H   0  0  0  0  0  0  0  0  0  0  0  0
  136.6460   70.4430  223.5710 C   0  0  0  0  0  0  0  0  0  0  0  0
  135.8481   71.0896  223.1770 H   0  0  0  0  0  0  0  0  0  0  0  0
  137.5008   71.0406  223.9206 H   0  0  0  0  0  0  0  0  0  0  0  0
  136.1220   69.6820  224.7120 N   0  0  0  0  0  0  0  0  0  0  0  0
  136.8560   69.0100  225.0380 H   0  0  0  0  0  0  0  0  0  0  0  0
  134.9030   68.9290  224.3570 C   0  0  0  0  0  0  0  0  0  0  0  0
  134.0356   69.5951  224.4753 H   0  0  0  0  0  0  0  0  0  0  0  0
  134.8547   68.0577  225.0267 H   0  0  0  0  0  0  0  0  0  0  0  0
  134.9110   68.3890  222.9090 C   0  0  0  0  0  0  0  0  0  0  0  0
  134.3993   69.1099  222.2543 H   0  0  0  0  0  0  0  0  0  0  0  0
  134.3935   67.4184  222.8962 H   0  0  0  0  0  0  0  0  0  0  0  0
  136.3390   68.1830  222.4040 C   0  0  0  0  0  0  0  0  0  0  0  0
  136.3032   67.8096  221.3700 H   0  0  0  0  0  0  0  0  0  0  0  0
  136.8391   67.4574  223.0623 H   0  0  0  0  0  0  0  0  0  0  0  0
  139.6530   74.3290  221.9370 C   0  0  0  0  0  0  0  0  0  0  0  0
  138.7250   75.6750  222.3290 S   0  0  0  0  0  0  0  0  0  0  0  0
  139.9250   76.8210  222.0680 C   0  0  0  0  0  0  0  0  0  0  0  0
  139.8168   77.9085  222.1931 H   0  0  0  0  0  0  0  0  0  0  0  0
  141.0770   76.1580  221.6670 C   0  0  0  0  0  0  0  0  0  0  0  0
  142.0173   76.6770  221.4295 H   0  0  0  0  0  0  0  0  0  0  0  0
  140.9310   74.7680  221.5930 C   0  0  0  0  0  0  0  0  0  0  0  0
  141.7434   74.0896  221.2934 H   0  0  0  0  0  0  0  0  0  0  0  0
  1  2  1  0
  2  3  2  0
  3  4  1  0
  3  5  1  0
  5  6  2  0
  6  7  1  0
  7  8  2  0
  8  9  1  0
  8 10  1  0
 10 11  1  0
 10 12  2  0
 12 13  1  0
 12 14  1  0
 14 15  1  0
 14 16  2  0
 16 17  1  0
 17 18  2  0
 17 19  1  0
 19 20  1  0
 20 21  1  0
 20 22  1  0
 20 23  1  0
 23 24  1  6
 23 25  1  0
 25 26  1  0
 25 27  1  0
 25 28  1  0
 28 29  1  0
 28 30  1  0
 30 31  1  0
 30 32  1  0
 30 33  1  0
 33 34  1  0
 33 35  1  0
 33 36  1  0
 36 37  1  0
 36 38  1  0
  2 39  1  0
 39 40  1  0
 40 41  1  0
 41 42  1  0
 41 43  2  0
 43 44  1  0
 43 45  1  0
 45 46  1  0
 19  5  1  0
 36 23  1  0
 45 39  2  0
 16  7  1  0
M  END
>  <UniqueID>  (70) 
399

>  <SMILES>  (70) 
O=c1c2ccccc2nc(/C=C/c2cccs2)n1C[C@H]1CCCNC1

>  <Energy>  (70) 
90.74283815160413

>  <Genealogy>  (70) 
O=c1c2ccccc2nc(/C=C/c2cccs2)n1C[C@H]1CCCNC1 (chirality)
O=c1c2ccccc2nc(/C=C/c2cccs2)n1C[C@H]1CCCNC1 (cis-trans isomerization)
O=c1c2ccccc2nc(/C=C/c2cccs2)n1C[C@H]1CCCNC1 (3D coordinates assigned)
O=c1c2ccccc2nc(/C=C/c2cccs2)n1C[C@H]1CCCNC1 (nonaromatic ring conformer: 90.74283815160413 kcal/mol)

>  <smiles>  (70) 
O=c1c2ccccc2nc(/C=C/c2cccs2)n1CC1CCCNC1

>  <score_type>  (70) 
oracle

>  <origin>  (70) 
autodockgpu

>  <m_score__min__energy>  (70) 
-6.8300000000000001

>  <m_primary>  (70) 
energy

>  <meeko>  (70) 
{"free_energy": -6.83, "intermolecular_energy": -8.32, "internal_energy": -1.87, "cluster_size": 15, "cluster_id": 1, "rank_in_cluster": 4}

>  <energy>  (70) 
-6.77

>  <cluster_rmsd>  (70) 
0.67

>  <rmsd>  (70) 
271.39

>  <cluster>  (70) 
1

$$$$
RPPNBJKXHXGJEE-FEAKQIBJNA-N
     RDKit          3D

 46 49  0  0  0  0  0  0  0  0999 V2000
  140.7622   70.7921  220.7817 H   0  0  0  0  0  0  0  0  0  0  0  0
  140.9080   71.7250  221.3460 C   0  0  0  0  0  0  0  0  0  0  0  0
  140.0350   72.0260  222.3170 C   0  0  0  0  0  0  0  0  0  0  0  0
  139.3569   72.8811  222.1791 H   0  0  0  0  0  0  0  0  0  0  0  0
  139.9560   71.2370  223.5770 C   0  0  0  0  0  0  0  0  0  0  0  0
  140.4910   71.7900  224.6980 N   0  0  0  0  0  0  0  0  0  0  0  0
  140.5020   71.1480  225.8870 C   0  0  0  0  0  0  0  0  0  0  0  0
  141.0680   71.7630  227.0110 C   0  0  0  0  0  0  0  0  0  0  0  0
  141.5028   72.7699  226.9268 H   0  0  0  0  0  0  0  0  0  0  0  0
  141.0800   71.0970  228.2390 C   0  0  0  0  0  0  0  0  0  0  0  0
  141.5238   71.5807  229.1216 H   0  0  0  0  0  0  0  0  0  0  0  0
  140.5290   69.8170  228.3480 C   0  0  0  0  0  0  0  0  0  0  0  0
  140.5414   69.2947  229.3160 H   0  0  0  0  0  0  0  0  0  0  0  0
  139.9620   69.1990  227.2290 C   0  0  0  0  0  0  0  0  0  0  0  0
  139.5271   68.1926  227.3188 H   0  0  0  0  0  0  0  0  0  0  0  0
  139.9470   69.8640  225.9860 C   0  0  0  0  0  0  0  0  0  0  0  0
  139.3870   69.2910  224.8330 C   0  0  0  0  0  0  0  0  0  0  0  0
  138.8600   68.1450  224.9090 O   0  0  0  0  0  0  0  0  0  0  0  0
  139.3970   69.9720  223.6350 N   0  0  0  0  0  0  0  0  0  0  0  0
  138.7510   69.3390  222.4600 C   0  0  0  0  0  0  0  0  0  0  0  0
  139.2168   69.7345  221.5453 H   0  0  0  0  0  0  0  0  0  0  0  0
  138.8909   68.2513  222.5463 H   0  0  0  0  0  0  0  0  0  0  0  0
  137.2260   69.6160  222.4020 C   0  0  2  0  0  0  0  0  0  0  0  0
  137.0224   70.1206  221.4460 H   0  0  0  0  0  0  0  0  0  0  0  0
  136.7370   70.5980  223.5020 C   0  0  0  0  0  0  0  0  0  0  0  0
  135.9189   71.2106  223.0952 H   0  0  0  0  0  0  0  0  0  0  0  0
  137.5875   71.2271  223.8034 H   0  0  0  0  0  0  0  0  0  0  0  0
  136.2520   69.8840  224.6890 N   0  0  0  0  0  0  0  0  0  0  0  0
  137.0050   69.2410  225.0300 H   0  0  0  0  0  0  0  0  0  0  0  0
  135.0410   69.0930  224.3980 C   0  0  0  0  0  0  0  0  0  0  0  0
  134.1637   69.7480  224.5044 H   0  0  0  0  0  0  0  0  0  0  0  0
  135.0248   68.2539  225.1091 H   0  0  0  0  0  0  0  0  0  0  0  0
  135.0270   68.4840  222.9770 C   0  0  0  0  0  0  0  0  0  0  0  0
  134.4876   69.1632  222.3004 H   0  0  0  0  0  0  0  0  0  0  0  0
  134.5273   67.5051  223.0216 H   0  0  0  0  0  0  0  0  0  0  0  0
  136.4480   68.2800  222.4510 C   0  0  0  0  0  0  0  0  0  0  0  0
  136.3975   67.8573  221.4367 H   0  0  0  0  0  0  0  0  0  0  0  0
  136.9755   67.5957  223.1318 H   0  0  0  0  0  0  0  0  0  0  0  0
  142.0560   72.5850  220.9970 C   0  0  0  0  0  0  0  0  0  0  0  0
  143.6170   72.0060  220.7630 S   0  0  0  0  0  0  0  0  0  0  0  0
  144.3240   73.4900  220.4140 C   0  0  0  0  0  0  0  0  0  0  0  0
  145.3848   73.6597  220.1774 H   0  0  0  0  0  0  0  0  0  0  0  0
  143.3370   74.4650  220.4760 C   0  0  0  0  0  0  0  0  0  0  0  0
  143.5323   75.5309  220.2873 H   0  0  0  0  0  0  0  0  0  0  0  0
  142.0700   73.9650  220.8010 C   0  0  0  0  0  0  0  0  0  0  0  0
  141.1751   74.5981  220.8925 H   0  0  0  0  0  0  0  0  0  0  0  0
  1  2  1  0
  2  3  2  0
  3  4  1  0
  3  5  1  0
  5  6  2  0
  6  7  1  0
  7  8  2  0
  8  9  1  0
  8 10  1  0
 10 11  1  0
 10 12  2  0
 12 13  1  0
 12 14  1  0
 14 15  1  0
 14 16  2  0
 16 17  1  0
 17 18  2  0
 17 19  1  0
 19 20  1  0
 20 21  1  0
 20 22  1  0
 20 23  1  0
 23 24  1  6
 23 25  1  0
 25 26  1  0
 25 27  1  0
 25 28  1  0
 28 29  1  0
 28 30  1  0
 30 31  1  0
 30 32  1  0
 30 33  1  0
 33 34  1  0
 33 35  1  0
 33 36  1  0
 36 37  1  0
 36 38  1  0
  2 39  1  0
 39 40  1  0
 40 41  1  0
 41 42  1  0
 41 43  2  0
 43 44  1  0
 43 45  1  0
 45 46  1  0
 19  5  1  0
 36 23  1  0
 45 39  2  0
 16  7  1  0
M  END
>  <UniqueID>  (71) 
399

>  <SMILES>  (71) 
O=c1c2ccccc2nc(/C=C/c2cccs2)n1C[C@H]1CCCNC1

>  <Energy>  (71) 
90.74283815160413

>  <Genealogy>  (71) 
O=c1c2ccccc2nc(/C=C/c2cccs2)n1C[C@H]1CCCNC1 (chirality)
O=c1c2ccccc2nc(/C=C/c2cccs2)n1C[C@H]1CCCNC1 (cis-trans isomerization)
O=c1c2ccccc2nc(/C=C/c2cccs2)n1C[C@H]1CCCNC1 (3D coordinates assigned)
O=c1c2ccccc2nc(/C=C/c2cccs2)n1C[C@H]1CCCNC1 (nonaromatic ring conformer: 90.74283815160413 kcal/mol)

>  <smiles>  (71) 
O=c1c2ccccc2nc(/C=C/c2cccs2)n1CC1CCCNC1

>  <score_type>  (71) 
oracle

>  <origin>  (71) 
autodockgpu

>  <m_score__min__energy>  (71) 
-6.8300000000000001

>  <m_primary>  (71) 
energy

>  <meeko>  (71) 
{"free_energy": -6.79, "intermolecular_energy": -8.28, "internal_energy": -1.8, "cluster_size": 15, "cluster_id": 1, "rank_in_cluster": 8}

>  <energy>  (71) 
-6.77

>  <cluster_rmsd>  (71) 
1.31

>  <rmsd>  (71) 
271.35

>  <cluster>  (71) 
1

$$$$
RPPNBJKXHXGJEE-FEAKQIBJNA-N
     RDKit          3D

 46 49  0  0  0  0  0  0  0  0999 V2000
  136.7311   75.9021  221.3327 H   0  0  0  0  0  0  0  0  0  0  0  0
  137.0390   75.8640  222.3880 C   0  0  0  0  0  0  0  0  0  0  0  0
  138.1910   76.4530  222.7380 C   0  0  0  0  0  0  0  0  0  0  0  0
  138.2010   77.1390  223.5979 H   0  0  0  0  0  0  0  0  0  0  0  0
  139.4570   76.2050  221.9960 C   0  0  0  0  0  0  0  0  0  0  0  0
  139.9410   74.9340  221.9860 N   0  0  0  0  0  0  0  0  0  0  0  0
  141.0980   74.6050  221.3690 C   0  0  0  0  0  0  0  0  0  0  0  0
  141.5510   73.2810  221.3910 C   0  0  0  0  0  0  0  0  0  0  0  0
  140.9649   72.5075  221.9088 H   0  0  0  0  0  0  0  0  0  0  0  0
  142.7480   72.9420  220.7550 C   0  0  0  0  0  0  0  0  0  0  0  0
  143.1034   71.9011  220.7715 H   0  0  0  0  0  0  0  0  0  0  0  0
  143.4940   73.9240  220.0980 C   0  0  0  0  0  0  0  0  0  0  0  0
  144.4367   73.6547  219.5992 H   0  0  0  0  0  0  0  0  0  0  0  0
  143.0450   75.2490  220.0730 C   0  0  0  0  0  0  0  0  0  0  0  0
  143.6342   76.0193  219.5540 H   0  0  0  0  0  0  0  0  0  0  0  0
  141.8390   75.5970  220.7120 C   0  0  0  0  0  0  0  0  0  0  0  0
  141.3410   76.9100  220.7140 C   0  0  0  0  0  0  0  0  0  0  0  0
  141.9830   77.8130  220.1060 O   0  0  0  0  0  0  0  0  0  0  0  0
  140.1600   77.2120  221.3570 N   0  0  0  0  0  0  0  0  0  0  0  0
  139.6560   78.6060  221.2880 C   0  0  0  0  0  0  0  0  0  0  0  0
  139.9083   79.0245  220.3025 H   0  0  0  0  0  0  0  0  0  0  0  0
  138.5680   78.5775  221.4473 H   0  0  0  0  0  0  0  0  0  0  0  0
  140.2710   79.5120  222.3860 C   0  0  2  0  0  0  0  0  0  0  0  0
  139.4359   79.9804  222.9275 H   0  0  0  0  0  0  0  0  0  0  0  0
  141.1080   80.6890  221.8140 C   0  0  0  0  0  0  0  0  0  0  0  0
  140.9892   81.5635  222.4707 H   0  0  0  0  0  0  0  0  0  0  0  0
  140.7451   80.9072  220.7988 H   0  0  0  0  0  0  0  0  0  0  0  0
  142.5340   80.3480  221.7280 N   0  0  0  0  0  0  0  0  0  0  0  0
  142.6400   79.4700  221.1680 H   0  0  0  0  0  0  0  0  0  0  0  0
  143.1310   80.1430  223.0620 C   0  0  0  0  0  0  0  0  0  0  0  0
  143.4450   81.1206  223.4567 H   0  0  0  0  0  0  0  0  0  0  0  0
  143.9778   79.4526  222.9345 H   0  0  0  0  0  0  0  0  0  0  0  0
  142.1640   79.4930  224.0780 C   0  0  0  0  0  0  0  0  0  0  0  0
  141.6678   80.2848  224.6584 H   0  0  0  0  0  0  0  0  0  0  0  0
  142.7451   78.8338  224.7397 H   0  0  0  0  0  0  0  0  0  0  0  0
  141.1020   78.6540  223.3700 C   0  0  0  0  0  0  0  0  0  0  0  0
  140.4284   78.2190  224.1230 H   0  0  0  0  0  0  0  0  0  0  0  0
  141.6091   77.8631  222.7979 H   0  0  0  0  0  0  0  0  0  0  0  0
  136.1640   75.1670  223.3500 C   0  0  0  0  0  0  0  0  0  0  0  0
  135.8230   73.5220  223.2790 S   0  0  0  0  0  0  0  0  0  0  0  0
  134.8220   73.4720  224.6270 C   0  0  0  0  0  0  0  0  0  0  0  0
  134.3172   72.5784  225.0228 H   0  0  0  0  0  0  0  0  0  0  0  0
  134.7420   74.7530  225.1550 C   0  0  0  0  0  0  0  0  0  0  0  0
  134.1475   74.9992  226.0472 H   0  0  0  0  0  0  0  0  0  0  0  0
  135.4880   75.7030  224.4470 C   0  0  0  0  0  0  0  0  0  0  0  0
  135.5364   76.7656  224.7274 H   0  0  0  0  0  0  0  0  0  0  0  0
  1  2  1  0
  2  3  2  0
  3  4  1  0
  3  5  1  0
  5  6  2  0
  6  7  1  0
  7  8  2  0
  8  9  1  0
  8 10  1  0
 10 11  1  0
 10 12  2  0
 12 13  1  0
 12 14  1  0
 14 15  1  0
 14 16  2  0
 16 17  1  0
 17 18  2  0
 17 19  1  0
 19 20  1  0
 20 21  1  0
 20 22  1  0
 20 23  1  0
 23 24  1  1
 23 25  1  0
 25 26  1  0
 25 27  1  0
 25 28  1  0
 28 29  1  0
 28 30  1  0
 30 31  1  0
 30 32  1  0
 30 33  1  0
 33 34  1  0
 33 35  1  0
 33 36  1  0
 36 37  1  0
 36 38  1  0
  2 39  1  0
 39 40  1  0
 40 41  1  0
 41 42  1  0
 41 43  2  0
 43 44  1  0
 43 45  1  0
 45 46  1  0
 19  5  1  0
 36 23  1  0
 45 39  2  0
 16  7  1  0
M  END
>  <UniqueID>  (72) 
399

>  <SMILES>  (72) 
O=c1c2ccccc2nc(/C=C/c2cccs2)n1C[C@H]1CCCNC1

>  <Energy>  (72) 
90.74283815160413

>  <Genealogy>  (72) 
O=c1c2ccccc2nc(/C=C/c2cccs2)n1C[C@H]1CCCNC1 (chirality)
O=c1c2ccccc2nc(/C=C/c2cccs2)n1C[C@H]1CCCNC1 (cis-trans isomerization)
O=c1c2ccccc2nc(/C=C/c2cccs2)n1C[C@H]1CCCNC1 (3D coordinates assigned)
O=c1c2ccccc2nc(/C=C/c2cccs2)n1C[C@H]1CCCNC1 (nonaromatic ring conformer: 90.74283815160413 kcal/mol)

>  <smiles>  (72) 
O=c1c2ccccc2nc(/C=C/c2cccs2)n1CC1CCCNC1

>  <score_type>  (72) 
oracle

>  <origin>  (72) 
autodockgpu

>  <m_score__min__energy>  (72) 
-6.8300000000000001

>  <m_primary>  (72) 
energy

>  <meeko>  (72) 
{"free_energy": -6.5, "intermolecular_energy": -7.99, "internal_energy": -1.77, "cluster_size": 1, "cluster_id": 3, "rank_in_cluster": 1}

>  <energy>  (72) 
-6.77

>  <cluster_rmsd>  (72) 
1.42

>  <rmsd>  (72) 
271.35

>  <cluster>  (72) 
1

$$$$
RPPNBJKXHXGJEE-FEAKQIBJNA-N
     RDKit          3D

 46 49  0  0  0  0  0  0  0  0999 V2000
  142.2760   80.1002  219.8844 H   0  0  0  0  0  0  0  0  0  0  0  0
  141.7500   79.7030  220.7650 C   0  0  0  0  0  0  0  0  0  0  0  0
  140.8340   78.7420  220.5810 C   0  0  0  0  0  0  0  0  0  0  0  0
  139.8070   79.0275  220.3092 H   0  0  0  0  0  0  0  0  0  0  0  0
  141.1670   77.3000  220.7340 C   0  0  0  0  0  0  0  0  0  0  0  0
  142.2350   76.8240  220.0400 N   0  0  0  0  0  0  0  0  0  0  0  0
  142.6060   75.5250  220.0830 C   0  0  0  0  0  0  0  0  0  0  0  0
  143.7140   75.0880  219.3460 C   0  0  0  0  0  0  0  0  0  0  0  0
  144.2839   75.8023  218.7336 H   0  0  0  0  0  0  0  0  0  0  0  0
  144.0950   73.7450  219.3890 C   0  0  0  0  0  0  0  0  0  0  0  0
  144.9657   73.4022  218.8108 H   0  0  0  0  0  0  0  0  0  0  0  0
  143.3710   72.8360  220.1660 C   0  0  0  0  0  0  0  0  0  0  0  0
  143.6729   71.7787  220.1970 H   0  0  0  0  0  0  0  0  0  0  0  0
  142.2640   73.2670  220.9040 C   0  0  0  0  0  0  0  0  0  0  0  0
  141.6974   72.5491  221.5152 H   0  0  0  0  0  0  0  0  0  0  0  0
  141.8740   74.6210  220.8650 C   0  0  0  0  0  0  0  0  0  0  0  0
  140.7740   75.1080  221.5890 C   0  0  0  0  0  0  0  0  0  0  0  0
  140.1160   74.3120  222.3190 O   0  0  0  0  0  0  0  0  0  0  0  0
  140.4200   76.4380  221.5190 N   0  0  0  0  0  0  0  0  0  0  0  0
  139.2780   76.9070  222.3410 C   0  0  0  0  0  0  0  0  0  0  0  0
  139.3354   76.4298  223.3304 H   0  0  0  0  0  0  0  0  0  0  0  0
  139.3470   78.0022  222.4170 H   0  0  0  0  0  0  0  0  0  0  0  0
  137.9080   76.5630  221.7010 C   0  0  2  0  0  0  0  0  0  0  0  0
  137.4270   77.5145  221.4303 H   0  0  0  0  0  0  0  0  0  0  0  0
  136.9280   75.8660  222.6840 C   0  0  0  0  0  0  0  0  0  0  0  0
  135.9021   76.1896  222.4541 H   0  0  0  0  0  0  0  0  0  0  0  0
  137.2102   76.1496  223.7087 H   0  0  0  0  0  0  0  0  0  0  0  0
  137.0010   74.4030  222.5770 N   0  0  0  0  0  0  0  0  0  0  0  0
  137.9930   74.1010  222.7170 H   0  0  0  0  0  0  0  0  0  0  0  0
  136.5340   73.9250  221.2600 C   0  0  0  0  0  0  0  0  0  0  0  0
  135.4405   73.8122  221.2982 H   0  0  0  0  0  0  0  0  0  0  0  0
  137.0450   72.9712  221.0620 H   0  0  0  0  0  0  0  0  0  0  0  0
  136.8870   74.8800  220.0970 C   0  0  0  0  0  0  0  0  0  0  0  0
  136.0364   75.5533  219.9149 H   0  0  0  0  0  0  0  0  0  0  0  0
  137.1018   74.2757  219.2033 H   0  0  0  0  0  0  0  0  0  0  0  0
  138.1230   75.7160  220.4240 C   0  0  0  0  0  0  0  0  0  0  0  0
  138.3343   76.3885  219.5795 H   0  0  0  0  0  0  0  0  0  0  0  0
  138.9674   75.0331  220.5988 H   0  0  0  0  0  0  0  0  0  0  0  0
  142.0870   80.2540  222.0920 C   0  0  0  0  0  0  0  0  0  0  0  0
  141.3810   81.6400  222.7320 S   0  0  0  0  0  0  0  0  0  0  0  0
  142.2210   81.6310  224.1870 C   0  0  0  0  0  0  0  0  0  0  0  0
  142.1151   82.3669  224.9977 H   0  0  0  0  0  0  0  0  0  0  0  0
  143.0720   80.5340  224.1890 C   0  0  0  0  0  0  0  0  0  0  0  0
  143.7403   80.2936  225.0290 H   0  0  0  0  0  0  0  0  0  0  0  0
  143.0010   79.7620  223.0230 C   0  0  0  0  0  0  0  0  0  0  0  0
  143.6057   78.8580  222.8580 H   0  0  0  0  0  0  0  0  0  0  0  0
  1  2  1  0
  2  3  2  0
  3  4  1  0
  3  5  1  0
  5  6  2  0
  6  7  1  0
  7  8  2  0
  8  9  1  0
  8 10  1  0
 10 11  1  0
 10 12  2  0
 12 13  1  0
 12 14  1  0
 14 15  1  0
 14 16  2  0
 16 17  1  0
 17 18  2  0
 17 19  1  0
 19 20  1  0
 20 21  1  0
 20 22  1  0
 20 23  1  0
 23 24  1  6
 23 25  1  0
 25 26  1  0
 25 27  1  0
 25 28  1  0
 28 29  1  0
 28 30  1  0
 30 31  1  0
 30 32  1  0
 30 33  1  0
 33 34  1  0
 33 35  1  0
 33 36  1  0
 36 37  1  0
 36 38  1  0
  2 39  1  0
 39 40  1  0
 40 41  1  0
 41 42  1  0
 41 43  2  0
 43 44  1  0
 43 45  1  0
 45 46  1  0
 19  5  1  0
 36 23  1  0
 45 39  2  0
 16  7  1  0
M  END
>  <UniqueID>  (73) 
399

>  <SMILES>  (73) 
O=c1c2ccccc2nc(/C=C/c2cccs2)n1C[C@H]1CCCNC1

>  <Energy>  (73) 
90.74283815160413

>  <Genealogy>  (73) 
O=c1c2ccccc2nc(/C=C/c2cccs2)n1C[C@H]1CCCNC1 (chirality)
O=c1c2ccccc2nc(/C=C/c2cccs2)n1C[C@H]1CCCNC1 (cis-trans isomerization)
O=c1c2ccccc2nc(/C=C/c2cccs2)n1C[C@H]1CCCNC1 (3D coordinates assigned)
O=c1c2ccccc2nc(/C=C/c2cccs2)n1C[C@H]1CCCNC1 (nonaromatic ring conformer: 90.74283815160413 kcal/mol)

>  <smiles>  (73) 
O=c1c2ccccc2nc(/C=C/c2cccs2)n1CC1CCCNC1

>  <score_type>  (73) 
oracle

>  <origin>  (73) 
autodockgpu

>  <m_score__min__energy>  (73) 
-6.8300000000000001

>  <m_primary>  (73) 
energy

>  <meeko>  (73) 
{"free_energy": -6.62, "intermolecular_energy": -8.11, "internal_energy": -1.78, "cluster_size": 4, "cluster_id": 2, "rank_in_cluster": 1}

>  <energy>  (73) 
-6.74

>  <cluster_rmsd>  (73) 
1.32

>  <rmsd>  (73) 
271.34

>  <cluster>  (73) 
1

$$$$
RPPNBJKXHXGJEE-FEAKQIBJNA-N
     RDKit          3D

 46 49  0  0  0  0  0  0  0  0999 V2000
  138.2883   72.5868  221.5293 H   0  0  0  0  0  0  0  0  0  0  0  0
  139.3230   72.8070  221.8310 C   0  0  0  0  0  0  0  0  0  0  0  0
  140.1230   71.7830  222.1620 C   0  0  0  0  0  0  0  0  0  0  0  0
  140.8844   71.4457  221.4433 H   0  0  0  0  0  0  0  0  0  0  0  0
  140.0100   71.0900  223.4740 C   0  0  0  0  0  0  0  0  0  0  0  0
  140.5380   71.7130  224.5610 N   0  0  0  0  0  0  0  0  0  0  0  0
  140.5180   71.1590  225.7940 C   0  0  0  0  0  0  0  0  0  0  0  0
  141.0770   71.8440  226.8800 C   0  0  0  0  0  0  0  0  0  0  0  0
  141.5310   72.8348  226.7307 H   0  0  0  0  0  0  0  0  0  0  0  0
  141.0580   71.2690  228.1530 C   0  0  0  0  0  0  0  0  0  0  0  0
  141.4977   71.8071  229.0057 H   0  0  0  0  0  0  0  0  0  0  0  0
  140.4810   70.0110  228.3440 C   0  0  0  0  0  0  0  0  0  0  0  0
  140.4678   69.5603  229.3473 H   0  0  0  0  0  0  0  0  0  0  0  0
  139.9200   69.3230  227.2630 C   0  0  0  0  0  0  0  0  0  0  0  0
  139.4651   68.3335  227.4179 H   0  0  0  0  0  0  0  0  0  0  0  0
  139.9370   69.8960  225.9760 C   0  0  0  0  0  0  0  0  0  0  0  0
  139.3840   69.2510  224.8580 C   0  0  0  0  0  0  0  0  0  0  0  0
  138.8350   68.1220  225.0080 O   0  0  0  0  0  0  0  0  0  0  0  0
  139.4260   69.8420  223.6140 N   0  0  0  0  0  0  0  0  0  0  0  0
  138.7870   69.1370  222.4770 C   0  0  0  0  0  0  0  0  0  0  0  0
  139.2848   69.4452  221.5458 H   0  0  0  0  0  0  0  0  0  0  0  0
  138.8914   68.0560  222.6519 H   0  0  0  0  0  0  0  0  0  0  0  0
  137.2740   69.4520  222.3600 C   0  0  2  0  0  0  0  0  0  0  0  0
  137.1151   69.9264  221.3804 H   0  0  0  0  0  0  0  0  0  0  0  0
  136.7780   70.4860  223.4080 C   0  0  0  0  0  0  0  0  0  0  0  0
  135.9898   71.1044  222.9537 H   0  0  0  0  0  0  0  0  0  0  0  0
  137.6354   71.1036  223.7138 H   0  0  0  0  0  0  0  0  0  0  0  0
  136.2370   69.8280  224.6040 N   0  0  0  0  0  0  0  0  0  0  0  0
  136.9600   69.1790  224.9920 H   0  0  0  0  0  0  0  0  0  0  0  0
  135.0130   69.0600  224.3020 C   0  0  0  0  0  0  0  0  0  0  0  0
  134.1519   69.7424  224.3558 H   0  0  0  0  0  0  0  0  0  0  0  0
  134.9500   68.2486  225.0420 H   0  0  0  0  0  0  0  0  0  0  0  0
  135.0270   68.4000  222.9050 C   0  0  0  0  0  0  0  0  0  0  0  0
  134.5279   69.0679  222.1875 H   0  0  0  0  0  0  0  0  0  0  0  0
  134.4997   67.4367  222.9692 H   0  0  0  0  0  0  0  0  0  0  0  0
  136.4570   68.1390  222.4320 C   0  0  0  0  0  0  0  0  0  0  0  0
  136.4258   67.6811  221.4323 H   0  0  0  0  0  0  0  0  0  0  0  0
  136.9439   67.4661  223.1532 H   0  0  0  0  0  0  0  0  0  0  0  0
  139.7640   74.2150  221.8520 C   0  0  0  0  0  0  0  0  0  0  0  0
  141.2540   74.7350  221.2730 S   0  0  0  0  0  0  0  0  0  0  0  0
  141.0370   76.3650  221.6150 C   0  0  0  0  0  0  0  0  0  0  0  0
  141.7622   77.1679  221.4163 H   0  0  0  0  0  0  0  0  0  0  0  0
  139.7840   76.5240  222.1920 C   0  0  0  0  0  0  0  0  0  0  0  0
  139.3897   77.4994  222.5133 H   0  0  0  0  0  0  0  0  0  0  0  0
  139.0690   75.3280  222.3270 C   0  0  0  0  0  0  0  0  0  0  0  0
  138.0609   75.2713  222.7635 H   0  0  0  0  0  0  0  0  0  0  0  0
  1  2  1  0
  2  3  2  0
  3  4  1  0
  3  5  1  0
  5  6  2  0
  6  7  1  0
  7  8  2  0
  8  9  1  0
  8 10  1  0
 10 11  1  0
 10 12  2  0
 12 13  1  0
 12 14  1  0
 14 15  1  0
 14 16  2  0
 16 17  1  0
 17 18  2  0
 17 19  1  0
 19 20  1  0
 20 21  1  0
 20 22  1  0
 20 23  1  0
 23 24  1  6
 23 25  1  0
 25 26  1  0
 25 27  1  0
 25 28  1  0
 28 29  1  0
 28 30  1  0
 30 31  1  0
 30 32  1  0
 30 33  1  0
 33 34  1  0
 33 35  1  0
 33 36  1  0
 36 37  1  0
 36 38  1  0
  2 39  1  0
 39 40  1  0
 40 41  1  0
 41 42  1  0
 41 43  2  0
 43 44  1  0
 43 45  1  0
 45 46  1  0
 19  5  1  0
 36 23  1  0
 45 39  2  0
 16  7  1  0
M  END
>  <UniqueID>  (74) 
399

>  <SMILES>  (74) 
O=c1c2ccccc2nc(/C=C/c2cccs2)n1C[C@H]1CCCNC1

>  <Energy>  (74) 
90.74283815160413

>  <Genealogy>  (74) 
O=c1c2ccccc2nc(/C=C/c2cccs2)n1C[C@H]1CCCNC1 (chirality)
O=c1c2ccccc2nc(/C=C/c2cccs2)n1C[C@H]1CCCNC1 (cis-trans isomerization)
O=c1c2ccccc2nc(/C=C/c2cccs2)n1C[C@H]1CCCNC1 (3D coordinates assigned)
O=c1c2ccccc2nc(/C=C/c2cccs2)n1C[C@H]1CCCNC1 (nonaromatic ring conformer: 90.74283815160413 kcal/mol)

>  <smiles>  (74) 
O=c1c2ccccc2nc(/C=C/c2cccs2)n1CC1CCCNC1

>  <score_type>  (74) 
oracle

>  <origin>  (74) 
autodockgpu

>  <m_score__min__energy>  (74) 
-6.8300000000000001

>  <m_primary>  (74) 
energy

>  <meeko>  (74) 
{"free_energy": -6.77, "intermolecular_energy": -8.26, "internal_energy": -1.9, "cluster_size": 15, "cluster_id": 1, "rank_in_cluster": 11}

>  <energy>  (74) 
-6.74

>  <cluster_rmsd>  (74) 
1.3

>  <rmsd>  (74) 
271.31

>  <cluster>  (74) 
1

$$$$
RPPNBJKXHXGJEE-FEAKQIBJNA-N
     RDKit          3D

 46 49  0  0  0  0  0  0  0  0999 V2000
  141.7564   80.1547  219.7957 H   0  0  0  0  0  0  0  0  0  0  0  0
  141.3940   79.7010  220.7300 C   0  0  0  0  0  0  0  0  0  0  0  0
  140.5230   78.6850  220.6500 C   0  0  0  0  0  0  0  0  0  0  0  0
  139.4593   78.9058  220.4773 H   0  0  0  0  0  0  0  0  0  0  0  0
  140.9530   77.2680  220.7880 C   0  0  0  0  0  0  0  0  0  0  0  0
  142.0630   76.8790  220.1030 N   0  0  0  0  0  0  0  0  0  0  0  0
  142.5230   75.6080  220.1330 C   0  0  0  0  0  0  0  0  0  0  0  0
  143.6690   75.2610  219.4070 C   0  0  0  0  0  0  0  0  0  0  0  0
  144.1960   76.0229  218.8139 H   0  0  0  0  0  0  0  0  0  0  0  0
  144.1430   73.9470  219.4360 C   0  0  0  0  0  0  0  0  0  0  0  0
  145.0434   73.6749  218.8658 H   0  0  0  0  0  0  0  0  0  0  0  0
  143.4740   72.9780  220.1890 C   0  0  0  0  0  0  0  0  0  0  0  0
  143.8488   71.9440  220.2099 H   0  0  0  0  0  0  0  0  0  0  0  0
  142.3290   73.3200  220.9160 C   0  0  0  0  0  0  0  0  0  0  0  0
  141.8058   72.5552  221.5087 H   0  0  0  0  0  0  0  0  0  0  0  0
  141.8450   74.6430  220.8900 C   0  0  0  0  0  0  0  0  0  0  0  0
  140.7030   75.0410  221.6050 C   0  0  0  0  0  0  0  0  0  0  0  0
  140.0930   74.1900  222.3130 O   0  0  0  0  0  0  0  0  0  0  0  0
  140.2580   76.3430  221.5490 N   0  0  0  0  0  0  0  0  0  0  0  0
  139.0740   76.7190  222.3590 C   0  0  0  0  0  0  0  0  0  0  0  0
  139.1549   76.2399  223.3459 H   0  0  0  0  0  0  0  0  0  0  0  0
  139.0601   77.8157  222.4424 H   0  0  0  0  0  0  0  0  0  0  0  0
  137.7410   76.2790  221.7000 C   0  0  2  0  0  0  0  0  0  0  0  0
  137.1974   77.1936  221.4206 H   0  0  0  0  0  0  0  0  0  0  0  0
  136.7980   75.5160  222.6700 C   0  0  0  0  0  0  0  0  0  0  0  0
  135.7554   75.7669  222.4249 H   0  0  0  0  0  0  0  0  0  0  0  0
  137.0445   75.8193  223.6982 H   0  0  0  0  0  0  0  0  0  0  0  0
  136.9750   74.0620  222.5660 N   0  0  0  0  0  0  0  0  0  0  0  0
  137.9840   73.8300  222.7220 H   0  0  0  0  0  0  0  0  0  0  0  0
  136.5630   73.5510  221.2430 C   0  0  0  0  0  0  0  0  0  0  0  0
  135.4797   73.3612  221.2651 H   0  0  0  0  0  0  0  0  0  0  0  0
  137.1435   72.6358  221.0548 H   0  0  0  0  0  0  0  0  0  0  0  0
  136.8650   74.5270  220.0830 C   0  0  0  0  0  0  0  0  0  0  0  0
  135.9721   75.1389  219.8871 H   0  0  0  0  0  0  0  0  0  0  0  0
  137.1344   73.9386  219.1935 H   0  0  0  0  0  0  0  0  0  0  0  0
  138.0350   75.4480  220.4270 C   0  0  0  0  0  0  0  0  0  0  0  0
  138.2115   76.1331  219.5847 H   0  0  0  0  0  0  0  0  0  0  0  0
  138.9227   74.8263  220.6154 H   0  0  0  0  0  0  0  0  0  0  0  0
  141.8900   80.2400  222.0110 C   0  0  0  0  0  0  0  0  0  0  0  0
  141.2330   81.5880  222.7720 S   0  0  0  0  0  0  0  0  0  0  0  0
  142.2630   81.5840  224.0980 C   0  0  0  0  0  0  0  0  0  0  0  0
  142.2446   82.3019  224.9313 H   0  0  0  0  0  0  0  0  0  0  0  0
  143.1420   80.5180  223.9610 C   0  0  0  0  0  0  0  0  0  0  0  0
  143.9257   80.2865  224.6974 H   0  0  0  0  0  0  0  0  0  0  0  0
  142.9380   79.7650  222.7980 C   0  0  0  0  0  0  0  0  0  0  0  0
  143.5442   78.8865  222.5321 H   0  0  0  0  0  0  0  0  0  0  0  0
  1  2  1  0
  2  3  2  0
  3  4  1  0
  3  5  1  0
  5  6  2  0
  6  7  1  0
  7  8  2  0
  8  9  1  0
  8 10  1  0
 10 11  1  0
 10 12  2  0
 12 13  1  0
 12 14  1  0
 14 15  1  0
 14 16  2  0
 16 17  1  0
 17 18  2  0
 17 19  1  0
 19 20  1  0
 20 21  1  0
 20 22  1  0
 20 23  1  0
 23 24  1  6
 23 25  1  0
 25 26  1  0
 25 27  1  0
 25 28  1  0
 28 29  1  0
 28 30  1  0
 30 31  1  0
 30 32  1  0
 30 33  1  0
 33 34  1  0
 33 35  1  0
 33 36  1  0
 36 37  1  0
 36 38  1  0
  2 39  1  0
 39 40  1  0
 40 41  1  0
 41 42  1  0
 41 43  2  0
 43 44  1  0
 43 45  1  0
 45 46  1  0
 19  5  1  0
 36 23  1  0
 45 39  2  0
 16  7  1  0
M  END
>  <UniqueID>  (75) 
399

>  <SMILES>  (75) 
O=c1c2ccccc2nc(/C=C/c2cccs2)n1C[C@H]1CCCNC1

>  <Energy>  (75) 
90.74283815160413

>  <Genealogy>  (75) 
O=c1c2ccccc2nc(/C=C/c2cccs2)n1C[C@H]1CCCNC1 (chirality)
O=c1c2ccccc2nc(/C=C/c2cccs2)n1C[C@H]1CCCNC1 (cis-trans isomerization)
O=c1c2ccccc2nc(/C=C/c2cccs2)n1C[C@H]1CCCNC1 (3D coordinates assigned)
O=c1c2ccccc2nc(/C=C/c2cccs2)n1C[C@H]1CCCNC1 (nonaromatic ring conformer: 90.74283815160413 kcal/mol)

>  <smiles>  (75) 
O=c1c2ccccc2nc(/C=C/c2cccs2)n1CC1CCCNC1

>  <score_type>  (75) 
oracle

>  <origin>  (75) 
autodockgpu

>  <m_score__min__energy>  (75) 
-6.8300000000000001

>  <m_primary>  (75) 
energy

>  <meeko>  (75) 
{"free_energy": -6.57, "intermolecular_energy": -8.06, "internal_energy": -1.75, "cluster_size": 4, "cluster_id": 2, "rank_in_cluster": 3}

>  <energy>  (75) 
-6.72

>  <cluster_rmsd>  (75) 
1.48

>  <rmsd>  (75) 
271.37

>  <cluster>  (75) 
1

$$$$
RPPNBJKXHXGJEE-FEAKQIBJNA-N
     RDKit          3D

 46 49  0  0  0  0  0  0  0  0999 V2000
  138.3392   72.5634  221.3998 H   0  0  0  0  0  0  0  0  0  0  0  0
  139.3440   72.8060  221.7760 C   0  0  0  0  0  0  0  0  0  0  0  0
  140.1510   71.7980  222.1350 C   0  0  0  0  0  0  0  0  0  0  0  0
  140.9289   71.4609  221.4341 H   0  0  0  0  0  0  0  0  0  0  0  0
  140.0250   71.1220  223.4540 C   0  0  0  0  0  0  0  0  0  0  0  0
  140.5610   71.7500  224.5360 N   0  0  0  0  0  0  0  0  0  0  0  0
  140.5290   71.2110  225.7750 C   0  0  0  0  0  0  0  0  0  0  0  0
  141.0980   71.9000  226.8530 C   0  0  0  0  0  0  0  0  0  0  0  0
  141.5689   72.8811  226.6925 H   0  0  0  0  0  0  0  0  0  0  0  0
  141.0670   71.3400  228.1330 C   0  0  0  0  0  0  0  0  0  0  0  0
  141.5134   71.8812  228.9802 H   0  0  0  0  0  0  0  0  0  0  0  0
  140.4700   70.0940  228.3380 C   0  0  0  0  0  0  0  0  0  0  0  0
  140.4474   69.6564  229.3470 H   0  0  0  0  0  0  0  0  0  0  0  0
  139.9010   69.4010  227.2650 C   0  0  0  0  0  0  0  0  0  0  0  0
  139.4315   68.4202  227.4308 H   0  0  0  0  0  0  0  0  0  0  0  0
  139.9290   69.9590  225.9710 C   0  0  0  0  0  0  0  0  0  0  0  0
  139.3690   69.3090  224.8590 C   0  0  0  0  0  0  0  0  0  0  0  0
  138.8010   68.1910  225.0210 O   0  0  0  0  0  0  0  0  0  0  0  0
  139.4220   69.8850  223.6090 N   0  0  0  0  0  0  0  0  0  0  0  0
  138.7740   69.1760  222.4780 C   0  0  0  0  0  0  0  0  0  0  0  0
  139.2687   69.4767  221.5427 H   0  0  0  0  0  0  0  0  0  0  0  0
  138.8745   68.0955  222.6579 H   0  0  0  0  0  0  0  0  0  0  0  0
  137.2610   69.4980  222.3670 C   0  0  2  0  0  0  0  0  0  0  0  0
  137.0890   69.9143  221.3635 H   0  0  0  0  0  0  0  0  0  0  0  0
  136.7920   70.5980  223.3590 C   0  0  0  0  0  0  0  0  0  0  0  0
  136.0021   71.1961  222.8812 H   0  0  0  0  0  0  0  0  0  0  0  0
  137.6599   71.2242  223.6133 H   0  0  0  0  0  0  0  0  0  0  0  0
  136.2650   70.0180  224.6010 N   0  0  0  0  0  0  0  0  0  0  0  0
  136.9900   69.3860  225.0150 H   0  0  0  0  0  0  0  0  0  0  0  0
  135.0300   69.2450  224.3650 C   0  0  0  0  0  0  0  0  0  0  0  0
  134.1758   69.9376  224.3914 H   0  0  0  0  0  0  0  0  0  0  0  0
  134.9726   68.4799  225.1533 H   0  0  0  0  0  0  0  0  0  0  0  0
  135.0150   68.5020  223.0100 C   0  0  0  0  0  0  0  0  0  0  0  0
  134.5096   69.1301  222.2616 H   0  0  0  0  0  0  0  0  0  0  0  0
  134.4807   67.5494  223.1403 H   0  0  0  0  0  0  0  0  0  0  0  0
  136.4350   68.2000  222.5310 C   0  0  0  0  0  0  0  0  0  0  0  0
  136.3837   67.6830  221.5614 H   0  0  0  0  0  0  0  0  0  0  0  0
  136.9282   67.5674  223.2838 H   0  0  0  0  0  0  0  0  0  0  0  0
  139.7380   74.2250  221.8610 C   0  0  0  0  0  0  0  0  0  0  0  0
  138.6900   75.4590  222.3150 S   0  0  0  0  0  0  0  0  0  0  0  0
  139.7990   76.7140  222.1850 C   0  0  0  0  0  0  0  0  0  0  0  0
  139.5969   77.7765  222.3855 H   0  0  0  0  0  0  0  0  0  0  0  0
  141.0140   76.1790  221.7810 C   0  0  0  0  0  0  0  0  0  0  0  0
  141.9152   76.7886  221.6188 H   0  0  0  0  0  0  0  0  0  0  0  0
  140.9860   74.7900  221.5990 C   0  0  0  0  0  0  0  0  0  0  0  0
  141.8608   74.2037  221.2812 H   0  0  0  0  0  0  0  0  0  0  0  0
  1  2  1  0
  2  3  2  0
  3  4  1  0
  3  5  1  0
  5  6  2  0
  6  7  1  0
  7  8  2  0
  8  9  1  0
  8 10  1  0
 10 11  1  0
 10 12  2  0
 12 13  1  0
 12 14  1  0
 14 15  1  0
 14 16  2  0
 16 17  1  0
 17 18  2  0
 17 19  1  0
 19 20  1  0
 20 21  1  0
 20 22  1  0
 20 23  1  0
 23 24  1  6
 23 25  1  0
 25 26  1  0
 25 27  1  0
 25 28  1  0
 28 29  1  0
 28 30  1  0
 30 31  1  0
 30 32  1  0
 30 33  1  0
 33 34  1  0
 33 35  1  0
 33 36  1  0
 36 37  1  0
 36 38  1  0
  2 39  1  0
 39 40  1  0
 40 41  1  0
 41 42  1  0
 41 43  2  0
 43 44  1  0
 43 45  1  0
 45 46  1  0
 19  5  1  0
 36 23  1  0
 45 39  2  0
 16  7  1  0
M  END
>  <UniqueID>  (76) 
399

>  <SMILES>  (76) 
O=c1c2ccccc2nc(/C=C/c2cccs2)n1C[C@H]1CCCNC1

>  <Energy>  (76) 
90.74283815160413

>  <Genealogy>  (76) 
O=c1c2ccccc2nc(/C=C/c2cccs2)n1C[C@H]1CCCNC1 (chirality)
O=c1c2ccccc2nc(/C=C/c2cccs2)n1C[C@H]1CCCNC1 (cis-trans isomerization)
O=c1c2ccccc2nc(/C=C/c2cccs2)n1C[C@H]1CCCNC1 (3D coordinates assigned)
O=c1c2ccccc2nc(/C=C/c2cccs2)n1C[C@H]1CCCNC1 (nonaromatic ring conformer: 90.74283815160413 kcal/mol)

>  <smiles>  (76) 
O=c1c2ccccc2nc(/C=C/c2cccs2)n1CC1CCCNC1

>  <score_type>  (76) 
oracle

>  <origin>  (76) 
autodockgpu

>  <m_score__min__energy>  (76) 
-6.8300000000000001

>  <m_primary>  (76) 
energy

>  <meeko>  (76) 
{"free_energy": -6.72, "intermolecular_energy": -8.21, "internal_energy": -1.93, "cluster_size": 15, "cluster_id": 1, "rank_in_cluster": 15}

>  <energy>  (76) 
-6.62

>  <cluster_rmsd>  (76) 
0.0

>  <rmsd>  (76) 
271.62

>  <cluster>  (76) 
2

$$$$
RPPNBJKXHXGJEE-FEAKQIBJNA-N
     RDKit          3D

 46 49  0  0  0  0  0  0  0  0999 V2000
  139.8385   73.7100  222.2773 H   0  0  0  0  0  0  0  0  0  0  0  0
  140.4800   72.9010  221.8980 C   0  0  0  0  0  0  0  0  0  0  0  0
  140.0720   71.6340  222.0590 C   0  0  0  0  0  0  0  0  0  0  0  0
  139.7982   71.0441  221.1718 H   0  0  0  0  0  0  0  0  0  0  0  0
  139.9790   71.0030  223.4030 C   0  0  0  0  0  0  0  0  0  0  0  0
  140.5180   71.6800  224.4530 N   0  0  0  0  0  0  0  0  0  0  0  0
  140.5160   71.1850  225.7110 C   0  0  0  0  0  0  0  0  0  0  0  0
  141.0860   71.9230  226.7560 C   0  0  0  0  0  0  0  0  0  0  0  0
  141.5345   72.9068  226.5536 H   0  0  0  0  0  0  0  0  0  0  0  0
  141.0850   71.4100  228.0550 C   0  0  0  0  0  0  0  0  0  0  0  0
  141.5318   71.9906  228.8755 H   0  0  0  0  0  0  0  0  0  0  0  0
  140.5170   70.1600  228.3130 C   0  0  0  0  0  0  0  0  0  0  0  0
  140.5197   69.7573  229.3367 H   0  0  0  0  0  0  0  0  0  0  0  0
  139.9450   69.4190  227.2740 C   0  0  0  0  0  0  0  0  0  0  0  0
  139.4963   68.4364  227.4820 H   0  0  0  0  0  0  0  0  0  0  0  0
  139.9430   69.9300  225.9610 C   0  0  0  0  0  0  0  0  0  0  0  0
  139.3790   69.2300  224.8820 C   0  0  0  0  0  0  0  0  0  0  0  0
  138.8370   68.1080  225.0920 O   0  0  0  0  0  0  0  0  0  0  0  0
  139.4030   69.7620  223.6110 N   0  0  0  0  0  0  0  0  0  0  0  0
  138.7520   69.0000  222.5170 C   0  0  0  0  0  0  0  0  0  0  0  0
  139.2605   69.2366  221.5707 H   0  0  0  0  0  0  0  0  0  0  0  0
  138.8307   67.9303  222.7609 H   0  0  0  0  0  0  0  0  0  0  0  0
  137.2460   69.3420  222.3720 C   0  0  2  0  0  0  0  0  0  0  0  0
  137.1209   69.8663  221.4131 H   0  0  0  0  0  0  0  0  0  0  0  0
  136.7330   70.3300  223.4550 C   0  0  0  0  0  0  0  0  0  0  0  0
  135.9662   70.9809  223.0095 H   0  0  0  0  0  0  0  0  0  0  0  0
  137.5890   70.9196  223.8150 H   0  0  0  0  0  0  0  0  0  0  0  0
  136.1490   69.6220  224.6020 N   0  0  0  0  0  0  0  0  0  0  0  0
  136.8530   68.9440  224.9770 H   0  0  0  0  0  0  0  0  0  0  0  0
  134.9250   68.8870  224.2270 C   0  0  0  0  0  0  0  0  0  0  0  0
  134.0715   69.5782  224.2889 H   0  0  0  0  0  0  0  0  0  0  0  0
  134.8298   68.0415  224.9242 H   0  0  0  0  0  0  0  0  0  0  0  0
  134.9720   68.2950  222.8000 C   0  0  0  0  0  0  0  0  0  0  0  0
  134.5022   69.0034  222.1019 H   0  0  0  0  0  0  0  0  0  0  0  0
  134.4316   67.3369  222.8021 H   0  0  0  0  0  0  0  0  0  0  0  0
  136.4120   68.0380  222.3560 C   0  0  0  0  0  0  0  0  0  0  0  0
  136.4047   67.6297  221.3346 H   0  0  0  0  0  0  0  0  0  0  0  0
  136.8696   67.3243  223.0568 H   0  0  0  0  0  0  0  0  0  0  0  0
  141.7490   73.2620  221.2360 C   0  0  0  0  0  0  0  0  0  0  0  0
  142.9340   72.1460  220.8190 S   0  0  0  0  0  0  0  0  0  0  0  0
  144.0100   73.2470  220.1450 C   0  0  0  0  0  0  0  0  0  0  0  0
  144.9892   73.0060  219.7055 H   0  0  0  0  0  0  0  0  0  0  0  0
  143.4490   74.5130  220.2390 C   0  0  0  0  0  0  0  0  0  0  0  0
  143.9489   75.4207  219.8699 H   0  0  0  0  0  0  0  0  0  0  0  0
  142.1880   74.5280  220.8470 C   0  0  0  0  0  0  0  0  0  0  0  0
  141.6021   75.4459  221.0025 H   0  0  0  0  0  0  0  0  0  0  0  0
  1  2  1  0
  2  3  2  0
  3  4  1  0
  3  5  1  0
  5  6  2  0
  6  7  1  0
  7  8  2  0
  8  9  1  0
  8 10  1  0
 10 11  1  0
 10 12  2  0
 12 13  1  0
 12 14  1  0
 14 15  1  0
 14 16  2  0
 16 17  1  0
 17 18  2  0
 17 19  1  0
 19 20  1  0
 20 21  1  0
 20 22  1  0
 20 23  1  0
 23 24  1  6
 23 25  1  0
 25 26  1  0
 25 27  1  0
 25 28  1  0
 28 29  1  0
 28 30  1  0
 30 31  1  0
 30 32  1  0
 30 33  1  0
 33 34  1  0
 33 35  1  0
 33 36  1  0
 36 37  1  0
 36 38  1  0
  2 39  1  0
 39 40  1  0
 40 41  1  0
 41 42  1  0
 41 43  2  0
 43 44  1  0
 43 45  1  0
 45 46  1  0
 19  5  1  0
 36 23  1  0
 45 39  2  0
 16  7  1  0
M  END
>  <UniqueID>  (77) 
399

>  <SMILES>  (77) 
O=c1c2ccccc2nc(/C=C/c2cccs2)n1C[C@H]1CCCNC1

>  <Energy>  (77) 
90.74283815160413

>  <Genealogy>  (77) 
O=c1c2ccccc2nc(/C=C/c2cccs2)n1C[C@H]1CCCNC1 (chirality)
O=c1c2ccccc2nc(/C=C/c2cccs2)n1C[C@H]1CCCNC1 (cis-trans isomerization)
O=c1c2ccccc2nc(/C=C/c2cccs2)n1C[C@H]1CCCNC1 (3D coordinates assigned)
O=c1c2ccccc2nc(/C=C/c2cccs2)n1C[C@H]1CCCNC1 (nonaromatic ring conformer: 90.74283815160413 kcal/mol)

>  <smiles>  (77) 
O=c1c2ccccc2nc(/C=C/c2cccs2)n1CC1CCCNC1

>  <score_type>  (77) 
oracle

>  <origin>  (77) 
autodockgpu

>  <m_score__min__energy>  (77) 
-6.8300000000000001

>  <m_primary>  (77) 
energy

>  <meeko>  (77) 
{"free_energy": -6.82, "intermolecular_energy": -8.32, "internal_energy": -1.78, "cluster_size": 15, "cluster_id": 1, "rank_in_cluster": 5}

>  <energy>  (77) 
-6.57

>  <cluster_rmsd>  (77) 
0.16

>  <rmsd>  (77) 
271.62

>  <cluster>  (77) 
2

$$$$
RPPNBJKXHXGJEE-FEAKQIBJNA-N
     RDKit          3D

 46 49  0  0  0  0  0  0  0  0999 V2000
  142.2950   80.2738  219.8242 H   0  0  0  0  0  0  0  0  0  0  0  0
  141.7660   79.8310  220.6810 C   0  0  0  0  0  0  0  0  0  0  0  0
  140.8630   78.8690  220.4450 C   0  0  0  0  0  0  0  0  0  0  0  0
  139.8591   79.1523  220.0958 H   0  0  0  0  0  0  0  0  0  0  0  0
  141.1800   77.4290  220.6420 C   0  0  0  0  0  0  0  0  0  0  0  0
  142.2380   76.9190  219.9560 N   0  0  0  0  0  0  0  0  0  0  0  0
  142.5940   75.6180  220.0380 C   0  0  0  0  0  0  0  0  0  0  0  0
  143.6920   75.1440  219.3080 C   0  0  0  0  0  0  0  0  0  0  0  0
  144.2659   75.8316  218.6693 H   0  0  0  0  0  0  0  0  0  0  0  0
  144.0580   73.7990  219.3910 C   0  0  0  0  0  0  0  0  0  0  0  0
  144.9205   73.4280  218.8179 H   0  0  0  0  0  0  0  0  0  0  0  0
  143.3300   72.9240  220.2010 C   0  0  0  0  0  0  0  0  0  0  0  0
  143.6202   71.8648  220.2634 H   0  0  0  0  0  0  0  0  0  0  0  0
  142.2330   73.3910  220.9330 C   0  0  0  0  0  0  0  0  0  0  0  0
  141.6629   72.6993  221.5706 H   0  0  0  0  0  0  0  0  0  0  0  0
  141.8580   74.7470  220.8540 C   0  0  0  0  0  0  0  0  0  0  0  0
  140.7680   75.2700  221.5700 C   0  0  0  0  0  0  0  0  0  0  0  0
  140.1070   74.5050  222.3290 O   0  0  0  0  0  0  0  0  0  0  0  0
  140.4300   76.6010  221.4600 N   0  0  0  0  0  0  0  0  0  0  0  0
  139.2990   77.1090  222.2740 C   0  0  0  0  0  0  0  0  0  0  0  0
  139.3578   76.6624  223.2775 H   0  0  0  0  0  0  0  0  0  0  0  0
  139.3815   78.2052  222.3142 H   0  0  0  0  0  0  0  0  0  0  0  0
  137.9200   76.7620  221.6550 C   0  0  2  0  0  0  0  0  0  0  0  0
  137.4424   77.7113  221.3710 H   0  0  0  0  0  0  0  0  0  0  0  0
  136.9450   76.0910  222.6610 C   0  0  0  0  0  0  0  0  0  0  0  0
  135.9190   76.4166  222.4345 H   0  0  0  0  0  0  0  0  0  0  0  0
  137.2386   76.3930  223.6772 H   0  0  0  0  0  0  0  0  0  0  0  0
  137.0080   74.6260  222.5820 N   0  0  0  0  0  0  0  0  0  0  0  0
  137.9990   74.3200  222.7190 H   0  0  0  0  0  0  0  0  0  0  0  0
  136.5250   74.1260  221.2800 C   0  0  0  0  0  0  0  0  0  0  0  0
  135.4312   74.0217  221.3315 H   0  0  0  0  0  0  0  0  0  0  0  0
  137.0285   73.1654  221.0962 H   0  0  0  0  0  0  0  0  0  0  0  0
  136.8720   75.0540  220.0940 C   0  0  0  0  0  0  0  0  0  0  0  0
  136.0241   75.7292  219.9065 H   0  0  0  0  0  0  0  0  0  0  0  0
  137.0733   74.4303  219.2106 H   0  0  0  0  0  0  0  0  0  0  0  0
  138.1170   75.8880  220.3920 C   0  0  0  0  0  0  0  0  0  0  0  0
  138.3242   76.5422  219.5323 H   0  0  0  0  0  0  0  0  0  0  0  0
  138.9588   75.2031  220.5717 H   0  0  0  0  0  0  0  0  0  0  0  0
  142.0850   80.3250  222.0350 C   0  0  0  0  0  0  0  0  0  0  0  0
  141.3320   81.6500  222.7450 S   0  0  0  0  0  0  0  0  0  0  0  0
  142.1740   81.5960  224.1980 C   0  0  0  0  0  0  0  0  0  0  0  0
  142.0435   82.2852  225.0454 H   0  0  0  0  0  0  0  0  0  0  0  0
  143.0630   80.5310  224.1440 C   0  0  0  0  0  0  0  0  0  0  0  0
  143.7407   80.2714  224.9706 H   0  0  0  0  0  0  0  0  0  0  0  0
  143.0170   79.8180  222.9400 C   0  0  0  0  0  0  0  0  0  0  0  0
  143.6524   78.9452  222.7290 H   0  0  0  0  0  0  0  0  0  0  0  0
  1  2  1  0
  2  3  2  0
  3  4  1  0
  3  5  1  0
  5  6  2  0
  6  7  1  0
  7  8  2  0
  8  9  1  0
  8 10  1  0
 10 11  1  0
 10 12  2  0
 12 13  1  0
 12 14  1  0
 14 15  1  0
 14 16  2  0
 16 17  1  0
 17 18  2  0
 17 19  1  0
 19 20  1  0
 20 21  1  0
 20 22  1  0
 20 23  1  0
 23 24  1  6
 23 25  1  0
 25 26  1  0
 25 27  1  0
 25 28  1  0
 28 29  1  0
 28 30  1  0
 30 31  1  0
 30 32  1  0
 30 33  1  0
 33 34  1  0
 33 35  1  0
 33 36  1  0
 36 37  1  0
 36 38  1  0
  2 39  1  0
 39 40  1  0
 40 41  1  0
 41 42  1  0
 41 43  2  0
 43 44  1  0
 43 45  1  0
 45 46  1  0
 19  5  1  0
 36 23  1  0
 45 39  2  0
 16  7  1  0
M  END
>  <UniqueID>  (78) 
399

>  <SMILES>  (78) 
O=c1c2ccccc2nc(/C=C/c2cccs2)n1C[C@H]1CCCNC1

>  <Energy>  (78) 
90.74283815160413

>  <Genealogy>  (78) 
O=c1c2ccccc2nc(/C=C/c2cccs2)n1C[C@H]1CCCNC1 (chirality)
O=c1c2ccccc2nc(/C=C/c2cccs2)n1C[C@H]1CCCNC1 (cis-trans isomerization)
O=c1c2ccccc2nc(/C=C/c2cccs2)n1C[C@H]1CCCNC1 (3D coordinates assigned)
O=c1c2ccccc2nc(/C=C/c2cccs2)n1C[C@H]1CCCNC1 (nonaromatic ring conformer: 90.74283815160413 kcal/mol)

>  <smiles>  (78) 
O=c1c2ccccc2nc(/C=C/c2cccs2)n1CC1CCCNC1

>  <score_type>  (78) 
oracle

>  <origin>  (78) 
autodockgpu

>  <m_score__min__energy>  (78) 
-6.8300000000000001

>  <m_primary>  (78) 
energy

>  <meeko>  (78) 
{"free_energy": -6.57, "intermolecular_energy": -8.07, "internal_energy": -1.83, "cluster_size": 4, "cluster_id": 2, "rank_in_cluster": 2}

>  <energy>  (78) 
-6.57

>  <cluster_rmsd>  (78) 
0.25

>  <rmsd>  (78) 
271.54

>  <cluster>  (78) 
2

$$$$
RPPNBJKXHXGJEE-FEAKQIBJNA-N
     RDKit          3D

 46 49  0  0  0  0  0  0  0  0999 V2000
  142.2861   80.4912  219.7031 H   0  0  0  0  0  0  0  0  0  0  0  0
  141.7970   79.9760  220.5430 C   0  0  0  0  0  0  0  0  0  0  0  0
  140.9270   78.9930  220.2690 C   0  0  0  0  0  0  0  0  0  0  0  0
  139.9378   79.2528  219.8640 H   0  0  0  0  0  0  0  0  0  0  0  0
  141.2610   77.5610  220.4970 C   0  0  0  0  0  0  0  0  0  0  0  0
  142.2810   77.0310  219.7690 N   0  0  0  0  0  0  0  0  0  0  0  0
  142.6470   75.7340  219.8750 C   0  0  0  0  0  0  0  0  0  0  0  0
  143.7030   75.2390  219.1000 C   0  0  0  0  0  0  0  0  0  0  0  0
  144.2355   75.9056  218.4057 H   0  0  0  0  0  0  0  0  0  0  0  0
  144.0800   73.8980  219.2090 C   0  0  0  0  0  0  0  0  0  0  0  0
  144.9106   73.5096  218.6014 H   0  0  0  0  0  0  0  0  0  0  0  0
  143.4030   73.0500  220.0890 C   0  0  0  0  0  0  0  0  0  0  0  0
  143.7011   71.9944  220.1713 H   0  0  0  0  0  0  0  0  0  0  0  0
  142.3470   73.5390  220.8660 C   0  0  0  0  0  0  0  0  0  0  0  0
  141.8173   72.8685  221.5587 H   0  0  0  0  0  0  0  0  0  0  0  0
  141.9620   74.8910  220.7610 C   0  0  0  0  0  0  0  0  0  0  0  0
  140.9130   75.4350  221.5200 C   0  0  0  0  0  0  0  0  0  0  0  0
  140.3000   74.6950  222.3420 O   0  0  0  0  0  0  0  0  0  0  0  0
  140.5630   76.7600  221.3840 N   0  0  0  0  0  0  0  0  0  0  0  0
  139.4780   77.2940  222.2440 C   0  0  0  0  0  0  0  0  0  0  0  0
  139.5744   76.8548  223.2479 H   0  0  0  0  0  0  0  0  0  0  0  0
  139.5800   78.3889  222.2717 H   0  0  0  0  0  0  0  0  0  0  0  0
  138.0670   76.9640  221.6890 C   0  0  2  0  0  0  0  0  0  0  0  0
  137.5835   77.9192  221.4366 H   0  0  0  0  0  0  0  0  0  0  0  0
  137.1370   76.2920  222.7360 C   0  0  0  0  0  0  0  0  0  0  0  0
  136.1042   76.6294  222.5645 H   0  0  0  0  0  0  0  0  0  0  0  0
  137.4836   76.5809  223.7392 H   0  0  0  0  0  0  0  0  0  0  0  0
  137.1820   74.8270  222.6390 N   0  0  0  0  0  0  0  0  0  0  0  0
  138.1770   74.5110  222.7240 H   0  0  0  0  0  0  0  0  0  0  0  0
  136.6320   74.3440  221.3580 C   0  0  0  0  0  0  0  0  0  0  0  0
  135.5411   74.2479  221.4619 H   0  0  0  0  0  0  0  0  0  0  0  0
  137.1175   73.3812  221.1406 H   0  0  0  0  0  0  0  0  0  0  0  0
  136.9290   75.2820  220.1650 C   0  0  0  0  0  0  0  0  0  0  0  0
  136.0792   75.9665  220.0263 H   0  0  0  0  0  0  0  0  0  0  0  0
  137.0809   74.6660  219.2664 H   0  0  0  0  0  0  0  0  0  0  0  0
  138.1950   76.1020  220.4100 C   0  0  0  0  0  0  0  0  0  0  0  0
  138.3663   76.7632  219.5478 H   0  0  0  0  0  0  0  0  0  0  0  0
  139.0384   75.4082  220.5415 H   0  0  0  0  0  0  0  0  0  0  0  0
  142.1300   80.4000  221.9160 C   0  0  0  0  0  0  0  0  0  0  0  0
  141.3130   81.6160  222.7410 S   0  0  0  0  0  0  0  0  0  0  0  0
  142.2100   81.5260  224.1590 C   0  0  0  0  0  0  0  0  0  0  0  0
  142.0627   82.1452  225.0562 H   0  0  0  0  0  0  0  0  0  0  0  0
  143.1690   80.5350  224.0020 C   0  0  0  0  0  0  0  0  0  0  0  0
  143.8936   80.2705  224.7862 H   0  0  0  0  0  0  0  0  0  0  0  0
  143.1290   79.9030  222.7530 C   0  0  0  0  0  0  0  0  0  0  0  0
  143.8166   79.0955  222.4612 H   0  0  0  0  0  0  0  0  0  0  0  0
  1  2  1  0
  2  3  2  0
  3  4  1  0
  3  5  1  0
  5  6  2  0
  6  7  1  0
  7  8  2  0
  8  9  1  0
  8 10  1  0
 10 11  1  0
 10 12  2  0
 12 13  1  0
 12 14  1  0
 14 15  1  0
 14 16  2  0
 16 17  1  0
 17 18  2  0
 17 19  1  0
 19 20  1  0
 20 21  1  0
 20 22  1  0
 20 23  1  0
 23 24  1  6
 23 25  1  0
 25 26  1  0
 25 27  1  0
 25 28  1  0
 28 29  1  0
 28 30  1  0
 30 31  1  0
 30 32  1  0
 30 33  1  0
 33 34  1  0
 33 35  1  0
 33 36  1  0
 36 37  1  0
 36 38  1  0
  2 39  1  0
 39 40  1  0
 40 41  1  0
 41 42  1  0
 41 43  2  0
 43 44  1  0
 43 45  1  0
 45 46  1  0
 19  5  1  0
 36 23  1  0
 45 39  2  0
 16  7  1  0
M  END
>  <UniqueID>  (79) 
399

>  <SMILES>  (79) 
O=c1c2ccccc2nc(/C=C/c2cccs2)n1C[C@H]1CCCNC1

>  <Energy>  (79) 
90.74283815160413

>  <Genealogy>  (79) 
O=c1c2ccccc2nc(/C=C/c2cccs2)n1C[C@H]1CCCNC1 (chirality)
O=c1c2ccccc2nc(/C=C/c2cccs2)n1C[C@H]1CCCNC1 (cis-trans isomerization)
O=c1c2ccccc2nc(/C=C/c2cccs2)n1C[C@H]1CCCNC1 (3D coordinates assigned)
O=c1c2ccccc2nc(/C=C/c2cccs2)n1C[C@H]1CCCNC1 (nonaromatic ring conformer: 90.74283815160413 kcal/mol)

>  <smiles>  (79) 
O=c1c2ccccc2nc(/C=C/c2cccs2)n1CC1CCCNC1

>  <score_type>  (79) 
oracle

>  <origin>  (79) 
autodockgpu

>  <m_score__min__energy>  (79) 
-6.8300000000000001

>  <m_primary>  (79) 
energy

>  <meeko>  (79) 
{"free_energy": -6.5, "intermolecular_energy": -7.99, "internal_energy": -1.9, "cluster_size": 4, "cluster_id": 2, "rank_in_cluster": 4}

>  <energy>  (79) 
-6.5

>  <cluster_rmsd>  (79) 
0.35

>  <rmsd>  (79) 
271.65

>  <cluster>  (79) 
2

$$$$
RPPNBJKXHXGJEE-FEAKQIBJNA-N
     RDKit          3D

 46 49  0  0  0  0  0  0  0  0999 V2000
  140.8225   70.6852  220.6986 H   0  0  0  0  0  0  0  0  0  0  0  0
  141.0290   71.5920  221.2860 C   0  0  0  0  0  0  0  0  0  0  0  0
  140.1570   71.9460  222.2410 C   0  0  0  0  0  0  0  0  0  0  0  0
  139.5120   72.8220  222.0778 H   0  0  0  0  0  0  0  0  0  0  0  0
  140.0370   71.1870  223.5160 C   0  0  0  0  0  0  0  0  0  0  0  0
  140.5580   71.7550  224.6360 N   0  0  0  0  0  0  0  0  0  0  0  0
  140.5310   71.1390  225.8390 C   0  0  0  0  0  0  0  0  0  0  0  0
  141.0840   71.7680  226.9610 C   0  0  0  0  0  0  0  0  0  0  0  0
  141.5397   72.7644  226.8641 H   0  0  0  0  0  0  0  0  0  0  0  0
  141.0570   71.1300  228.2040 C   0  0  0  0  0  0  0  0  0  0  0  0
  141.4905   71.6251  229.0854 H   0  0  0  0  0  0  0  0  0  0  0  0
  140.4800   69.8640  228.3280 C   0  0  0  0  0  0  0  0  0  0  0  0
  140.4618   69.3631  229.3072 H   0  0  0  0  0  0  0  0  0  0  0  0
  139.9250   69.2310  227.2100 C   0  0  0  0  0  0  0  0  0  0  0  0
  139.4698   68.2348  227.3119 H   0  0  0  0  0  0  0  0  0  0  0  0
  139.9490   69.8690  225.9540 C   0  0  0  0  0  0  0  0  0  0  0  0
  139.4030   69.2810  224.8010 C   0  0  0  0  0  0  0  0  0  0  0  0
  138.8530   68.1460  224.8910 O   0  0  0  0  0  0  0  0  0  0  0  0
  139.4520   69.9340  223.5890 N   0  0  0  0  0  0  0  0  0  0  0  0
  138.8200   69.2870  222.4140 C   0  0  0  0  0  0  0  0  0  0  0  0
  139.2946   69.6738  221.5001 H   0  0  0  0  0  0  0  0  0  0  0  0
  138.9614   68.2006  222.5132 H   0  0  0  0  0  0  0  0  0  0  0  0
  137.2950   69.5600  222.3370 C   0  0  2  0  0  0  0  0  0  0  0  0
  137.0907   69.9960  221.3480 H   0  0  0  0  0  0  0  0  0  0  0  0
  136.8070   70.6170  223.3660 C   0  0  0  0  0  0  0  0  0  0  0  0
  135.9885   71.1996  222.9180 H   0  0  0  0  0  0  0  0  0  0  0  0
  137.6578   71.2656  223.6217 H   0  0  0  0  0  0  0  0  0  0  0  0
  136.3230   69.9880  224.6010 N   0  0  0  0  0  0  0  0  0  0  0  0
  137.0760   69.3710  224.9860 H   0  0  0  0  0  0  0  0  0  0  0  0
  135.1110   69.1790  224.3670 C   0  0  0  0  0  0  0  0  0  0  0  0
  134.2342   69.8405  224.4266 H   0  0  0  0  0  0  0  0  0  0  0  0
  135.0939   68.3926  225.1360 H   0  0  0  0  0  0  0  0  0  0  0  0
  135.0970   68.4710  222.9930 C   0  0  0  0  0  0  0  0  0  0  0  0
  134.5574   69.1006  222.2702 H   0  0  0  0  0  0  0  0  0  0  0  0
  134.5977   67.4976  223.1074 H   0  0  0  0  0  0  0  0  0  0  0  0
  136.5170   68.2300  222.4820 C   0  0  0  0  0  0  0  0  0  0  0  0
  136.4657   67.7359  221.5006 H   0  0  0  0  0  0  0  0  0  0  0  0
  137.0451   67.5960  223.2094 H   0  0  0  0  0  0  0  0  0  0  0  0
  142.2520   72.3600  220.9850 C   0  0  0  0  0  0  0  0  0  0  0  0
  142.2750   74.0250  220.7560 S   0  0  0  0  0  0  0  0  0  0  0  0
  143.9260   74.1600  220.4740 C   0  0  0  0  0  0  0  0  0  0  0  0
  144.4698   75.0920  220.2605 H   0  0  0  0  0  0  0  0  0  0  0  0
  144.4850   72.8920  220.5570 C   0  0  0  0  0  0  0  0  0  0  0  0
  145.5579   72.6973  220.4123 H   0  0  0  0  0  0  0  0  0  0  0  0
  143.5560   71.8840  220.8420 C   0  0  0  0  0  0  0  0  0  0  0  0
  143.8270   70.8227  220.9431 H   0  0  0  0  0  0  0  0  0  0  0  0
  1  2  1  0
  2  3  2  0
  3  4  1  0
  3  5  1  0
  5  6  2  0
  6  7  1  0
  7  8  2  0
  8  9  1  0
  8 10  1  0
 10 11  1  0
 10 12  2  0
 12 13  1  0
 12 14  1  0
 14 15  1  0
 14 16  2  0
 16 17  1  0
 17 18  2  0
 17 19  1  0
 19 20  1  0
 20 21  1  0
 20 22  1  0
 20 23  1  0
 23 24  1  6
 23 25  1  0
 25 26  1  0
 25 27  1  0
 25 28  1  0
 28 29  1  0
 28 30  1  0
 30 31  1  0
 30 32  1  0
 30 33  1  0
 33 34  1  0
 33 35  1  0
 33 36  1  0
 36 37  1  0
 36 38  1  0
  2 39  1  0
 39 40  1  0
 40 41  1  0
 41 42  1  0
 41 43  2  0
 43 44  1  0
 43 45  1  0
 45 46  1  0
 19  5  1  0
 36 23  1  0
 45 39  2  0
 16  7  1  0
M  END
>  <UniqueID>  (80) 
399

>  <SMILES>  (80) 
O=c1c2ccccc2nc(/C=C/c2cccs2)n1C[C@H]1CCCNC1

>  <Energy>  (80) 
90.74283815160413

>  <Genealogy>  (80) 
O=c1c2ccccc2nc(/C=C/c2cccs2)n1C[C@H]1CCCNC1 (chirality)
O=c1c2ccccc2nc(/C=C/c2cccs2)n1C[C@H]1CCCNC1 (cis-trans isomerization)
O=c1c2ccccc2nc(/C=C/c2cccs2)n1C[C@H]1CCCNC1 (3D coordinates assigned)
O=c1c2ccccc2nc(/C=C/c2cccs2)n1C[C@H]1CCCNC1 (nonaromatic ring conformer: 90.74283815160413 kcal/mol)

>  <smiles>  (80) 
O=c1c2ccccc2nc(/C=C/c2cccs2)n1CC1CCCNC1

>  <score_type>  (80) 
oracle

>  <origin>  (80) 
autodockgpu

>  <m_score__min__energy>  (80) 
-6.8300000000000001

>  <m_primary>  (80) 
energy

>  <meeko>  (80) 
{"free_energy": -6.77, "intermolecular_energy": -8.27, "internal_energy": -1.82, "cluster_size": 15, "cluster_id": 1, "rank_in_cluster": 10}

>  <energy>  (80) 
-6.5

>  <cluster_rmsd>  (80) 
0.0

>  <rmsd>  (80) 
271.81

>  <cluster>  (80) 
3

$$$$
