
     RDKit          3D

 43 46  0  0  0  0  0  0  0  0999 V2000
  141.3800   71.1150  221.2410 O   0  0  0  0  0  0  0  0  0  0  0  0
  141.2300   72.3540  221.2550 C   0  0  0  0  0  0  0  0  0  0  0  0
  142.2920   73.0950  220.7270 C   0  0  0  0  0  0  0  0  0  0  0  0
  143.4210   72.4790  220.2300 C   0  0  0  0  0  0  0  0  0  0  0  0
  144.4440   73.2330  219.7200 C   0  0  0  0  0  0  0  0  0  0  0  0
  145.6140   72.6020  219.2040 N   0  0  0  0  0  0  0  0  0  0  0  0
  145.9410   72.6590  218.0130 O   0  0  0  0  0  0  0  0  0  0  0  0
  146.4100   71.8970  220.0720 O   0  0  0  0  0  0  0  0  0  0  0  0
  144.4000   74.6180  219.6770 C   0  0  0  0  0  0  0  0  0  0  0  0
  143.2580   75.2430  220.1800 C   0  0  0  0  0  0  0  0  0  0  0  0
  142.2340   74.4730  220.6920 C   0  0  0  0  0  0  0  0  0  0  0  0
  141.1210   75.0410  221.1830 N   0  0  0  0  0  0  0  0  0  0  0  0
  140.1060   74.3180  221.6880 C   0  0  0  0  0  0  0  0  0  0  0  0
  138.9470   75.0640  222.1680 C   0  0  0  0  0  0  0  0  0  0  0  0
  138.8110   76.3380  221.8200 C   0  0  0  0  0  0  0  0  0  0  0  0
  139.6040   77.3590  222.4470 C   0  0  0  0  0  0  0  0  0  0  0  0
  140.9350   77.4520  222.7080 C   0  0  0  0  0  0  0  0  0  0  0  0
  141.4510   78.5160  223.3140 C   0  0  0  0  0  0  0  0  0  0  0  0
  140.5020   79.5360  223.6610 C   0  0  0  0  0  0  0  0  0  0  0  0
  138.9040   78.9110  223.0960 S   0  0  0  0  0  0  0  0  0  0  0  0
  140.1200   72.9670  221.7450 N   0  0  0  0  0  0  0  0  0  0  0  0
  139.0720   72.1700  222.3000 C   0  0  0  0  0  0  0  0  0  0  0  0
  139.4510   71.3180  223.4400 C   0  0  0  0  0  0  0  0  0  0  0  0
  139.1630   69.9790  223.5550 C   0  0  0  0  0  0  0  0  0  0  0  0
  139.5520   69.2180  224.6580 C   0  0  0  0  0  0  0  0  0  0  0  0
  140.2530   69.7790  225.6990 C   0  0  0  0  0  0  0  0  0  0  0  0
  140.5500   71.1220  225.6000 C   0  0  0  0  0  0  0  0  0  0  0  0
  141.4420   71.8460  226.9230 Cl  0  0  0  0  0  0  0  0  0  0  0  0
  140.1650   71.8770  224.5070 C   0  0  0  0  0  0  0  0  0  0  0  0
  143.4999   71.3819  220.2432 H   0  0  0  0  0  0  0  0  0  0  0  0
  145.2342   75.2026  219.2619 H   0  0  0  0  0  0  0  0  0  0  0  0
  143.1750   76.3398  220.1683 H   0  0  0  0  0  0  0  0  0  0  0  0
  138.1969   74.5776  222.8089 H   0  0  0  0  0  0  0  0  0  0  0  0
  138.0832   76.6149  221.0431 H   0  0  0  0  0  0  0  0  0  0  0  0
  141.5999   76.6277  222.4107 H   0  0  0  0  0  0  0  0  0  0  0  0
  142.5249   78.6084  223.5334 H   0  0  0  0  0  0  0  0  0  0  0  0
  140.7046   80.4933  224.1634 H   0  0  0  0  0  0  0  0  0  0  0  0
  138.2738   72.8482  222.6360 H   0  0  0  0  0  0  0  0  0  0  0  0
  138.7651   71.4802  221.5000 H   0  0  0  0  0  0  0  0  0  0  0  0
  138.6036   69.4877  222.7453 H   0  0  0  0  0  0  0  0  0  0  0  0
  139.2930   68.1496  224.6952 H   0  0  0  0  0  0  0  0  0  0  0  0
  140.5628   69.1840  226.5708 H   0  0  0  0  0  0  0  0  0  0  0  0
  140.4266   72.9450  224.4751 H   0  0  0  0  0  0  0  0  0  0  0  0
  1  2  2  0
  2  3  1  0
  3  4  2  0
  4  5  1  0
  5  6  1  0
  6  7  2  0
  6  8  1  0
  5  9  2  0
  9 10  1  0
 10 11  2  0
 11 12  1  0
 12 13  2  0
 13 14  1  0
 14 15  2  0
 15 16  1  0
 16 17  2  0
 17 18  1  0
 18 19  2  0
 19 20  1  0
 13 21  1  0
 21 22  1  0
 22 23  1  0
 23 24  2  0
 24 25  1  0
 25 26  2  0
 26 27  1  0
 27 28  1  0
 27 29  2  0
 21  2  1  0
 29 23  1  0
 11  3  1  0
 20 16  1  0
  4 30  1  0
  9 31  1  0
 10 32  1  0
 14 33  1  0
 15 34  1  0
 17 35  1  0
 18 36  1  0
 19 37  1  0
 22 38  1  0
 22 39  1  0
 24 40  1  0
 25 41  1  0
 26 42  1  0
 29 43  1  0
M  CHG  2   6   1   8  -1
M  END
>  <smiles>  (1) 
O=c1c2cc([N+](=O)[O-])ccc2nc(/C=C/c2cccs2)n1Cc1cccc(Cl)c1

>  <score_type>  (1) 
oracle

>  <origin>  (1) 
autodockgpu

>  <m_score__min__energy>  (1) 
-8.4100000000000001

>  <m_primary>  (1) 
energy

>  <meeko>  (1) 
{"free_energy": -8.41, "intermolecular_energy": -10.2, "internal_energy": -1.37, "cluster_size": 2, "cluster_id": 1, "rank_in_cluster": 1}

>  <energy>  (1) 
-8.41

>  <cluster_rmsd>  (1) 
0.0

>  <rmsd>  (1) 
271.29

>  <cluster>  (1) 
1

$$$$

     RDKit          3D

 43 46  0  0  0  0  0  0  0  0999 V2000
  143.1450   77.1480  219.5620 O   0  0  0  0  0  0  0  0  0  0  0  0
  142.3040   76.4120  220.1190 C   0  0  0  0  0  0  0  0  0  0  0  0
  142.7200   75.0990  220.3610 C   0  0  0  0  0  0  0  0  0  0  0  0
  143.9770   74.6660  220.0000 C   0  0  0  0  0  0  0  0  0  0  0  0
  144.3540   73.3740  220.2510 C   0  0  0  0  0  0  0  0  0  0  0  0
  145.6540   72.9200  219.8800 N   0  0  0  0  0  0  0  0  0  0  0  0
  145.8840   72.3260  218.8190 O   0  0  0  0  0  0  0  0  0  0  0  0
  146.6950   73.1520  220.7430 O   0  0  0  0  0  0  0  0  0  0  0  0
  143.5140   72.4580  220.8650 C   0  0  0  0  0  0  0  0  0  0  0  0
  142.2410   72.8950  221.2310 C   0  0  0  0  0  0  0  0  0  0  0  0
  141.8720   74.2000  220.9730 C   0  0  0  0  0  0  0  0  0  0  0  0
  140.6550   74.6530  221.3120 N   0  0  0  0  0  0  0  0  0  0  0  0
  140.2660   75.9190  221.0740 C   0  0  0  0  0  0  0  0  0  0  0  0
  138.9240   76.2850  221.5160 C   0  0  0  0  0  0  0  0  0  0  0  0
  138.7630   76.8040  222.7280 C   0  0  0  0  0  0  0  0  0  0  0  0
  138.6280   78.2230  222.9070 C   0  0  0  0  0  0  0  0  0  0  0  0
  139.1730   79.0870  223.8040 C   0  0  0  0  0  0  0  0  0  0  0  0
  138.8940   80.3860  223.7750 C   0  0  0  0  0  0  0  0  0  0  0  0
  137.9870   80.7870  222.7370 C   0  0  0  0  0  0  0  0  0  0  0  0
  137.5770   79.2690  221.8490 S   0  0  0  0  0  0  0  0  0  0  0  0
  141.0620   76.8340  220.4770 N   0  0  0  0  0  0  0  0  0  0  0  0
  140.6710   78.1770  220.1840 C   0  0  0  0  0  0  0  0  0  0  0  0
  141.2090   79.2120  221.0840 C   0  0  0  0  0  0  0  0  0  0  0  0
  142.0000   78.9700  222.1810 C   0  0  0  0  0  0  0  0  0  0  0  0
  142.4880   79.9930  222.9980 C   0  0  0  0  0  0  0  0  0  0  0  0
  142.1950   81.3100  222.7390 C   0  0  0  0  0  0  0  0  0  0  0  0
  141.4010   81.5700  221.6420 C   0  0  0  0  0  0  0  0  0  0  0  0
  141.0220   83.2480  221.3060 Cl  0  0  0  0  0  0  0  0  0  0  0  0
  140.9190   80.5590  220.8320 C   0  0  0  0  0  0  0  0  0  0  0  0
  144.6777   75.3582  219.5102 H   0  0  0  0  0  0  0  0  0  0  0  0
  143.8393   71.4248  221.0565 H   0  0  0  0  0  0  0  0  0  0  0  0
  141.5373   72.2059  221.7209 H   0  0  0  0  0  0  0  0  0  0  0  0
  138.0582   76.1332  220.8547 H   0  0  0  0  0  0  0  0  0  0  0  0
  138.7327   76.1399  223.6044 H   0  0  0  0  0  0  0  0  0  0  0  0
  139.8607   78.7021  224.5714 H   0  0  0  0  0  0  0  0  0  0  0  0
  139.3254   81.0999  224.4921 H   0  0  0  0  0  0  0  0  0  0  0  0
  137.6200   81.8025  222.5273 H   0  0  0  0  0  0  0  0  0  0  0  0
  141.0057   78.4108  219.1626 H   0  0  0  0  0  0  0  0  0  0  0  0
  139.5791   78.2056  220.3145 H   0  0  0  0  0  0  0  0  0  0  0  0
  142.2594   77.9294  222.4258 H   0  0  0  0  0  0  0  0  0  0  0  0
  143.1177   79.7395  223.8636 H   0  0  0  0  0  0  0  0  0  0  0  0
  142.5765   82.1203  223.3777 H   0  0  0  0  0  0  0  0  0  0  0  0
  140.2913   80.8190  219.9669 H   0  0  0  0  0  0  0  0  0  0  0  0
  1  2  2  0
  2  3  1  0
  3  4  2  0
  4  5  1  0
  5  6  1  0
  6  7  2  0
  6  8  1  0
  5  9  2  0
  9 10  1  0
 10 11  2  0
 11 12  1  0
 12 13  2  0
 13 14  1  0
 14 15  2  0
 15 16  1  0
 16 17  2  0
 17 18  1  0
 18 19  2  0
 19 20  1  0
 13 21  1  0
 21 22  1  0
 22 23  1  0
 23 24  2  0
 24 25  1  0
 25 26  2  0
 26 27  1  0
 27 28  1  0
 27 29  2  0
 21  2  1  0
 29 23  1  0
 11  3  1  0
 20 16  1  0
  4 30  1  0
  9 31  1  0
 10 32  1  0
 14 33  1  0
 15 34  1  0
 17 35  1  0
 18 36  1  0
 19 37  1  0
 22 38  1  0
 22 39  1  0
 24 40  1  0
 25 41  1  0
 26 42  1  0
 29 43  1  0
M  CHG  2   6   1   8  -1
M  END
>  <smiles>  (2) 
O=c1c2cc([N+](=O)[O-])ccc2nc(/C=C/c2cccs2)n1Cc1cccc(Cl)c1

>  <score_type>  (2) 
oracle

>  <origin>  (2) 
autodockgpu

>  <m_score__min__energy>  (2) 
-8.4100000000000001

>  <m_primary>  (2) 
energy

>  <meeko>  (2) 
{"free_energy": -7.51, "intermolecular_energy": -9.3, "internal_energy": -2.19, "cluster_size": 18, "cluster_id": 2, "rank_in_cluster": 7}

>  <energy>  (2) 
-7.87

>  <cluster_rmsd>  (2) 
1.21

>  <rmsd>  (2) 
271.08

>  <cluster>  (2) 
1

$$$$

     RDKit          3D

 43 46  0  0  0  0  0  0  0  0999 V2000
  143.3130   77.5400  218.8120 O   0  0  0  0  0  0  0  0  0  0  0  0
  142.4630   76.9410  219.5030 C   0  0  0  0  0  0  0  0  0  0  0  0
  142.8360   75.6680  219.9470 C   0  0  0  0  0  0  0  0  0  0  0  0
  144.0640   75.1290  219.6310 C   0  0  0  0  0  0  0  0  0  0  0  0
  144.3990   73.8800  220.0810 C   0  0  0  0  0  0  0  0  0  0  0  0
  145.6680   73.3160  219.7580 N   0  0  0  0  0  0  0  0  0  0  0  0
  145.8850   72.6990  218.7080 O   0  0  0  0  0  0  0  0  0  0  0  0
  146.6940   73.4660  220.6560 O   0  0  0  0  0  0  0  0  0  0  0  0
  143.5440   73.1130  220.8570 C   0  0  0  0  0  0  0  0  0  0  0  0
  142.3000   73.6580  221.1780 C   0  0  0  0  0  0  0  0  0  0  0  0
  141.9740   74.9170  220.7180 C   0  0  0  0  0  0  0  0  0  0  0  0
  140.7860   75.4720  221.0090 N   0  0  0  0  0  0  0  0  0  0  0  0
  140.4390   76.6970  220.5760 C   0  0  0  0  0  0  0  0  0  0  0  0
  139.1260   77.1870  220.9840 C   0  0  0  0  0  0  0  0  0  0  0  0
  138.8970   77.4210  222.2710 C   0  0  0  0  0  0  0  0  0  0  0  0
  138.7400   78.7650  222.7570 C   0  0  0  0  0  0  0  0  0  0  0  0
  139.2470   79.4100  223.8400 C   0  0  0  0  0  0  0  0  0  0  0  0
  138.9540   80.6810  224.0910 C   0  0  0  0  0  0  0  0  0  0  0  0
  138.0730   81.2990  223.1400 C   0  0  0  0  0  0  0  0  0  0  0  0
  137.7070   80.0140  221.9250 S   0  0  0  0  0  0  0  0  0  0  0  0
  141.2500   77.4680  219.8170 N   0  0  0  0  0  0  0  0  0  0  0  0
  140.9020   78.7610  219.3180 C   0  0  0  0  0  0  0  0  0  0  0  0
  141.1120   79.8850  220.2460 C   0  0  0  0  0  0  0  0  0  0  0  0
  140.6650   81.1680  220.0470 C   0  0  0  0  0  0  0  0  0  0  0  0
  140.8900   82.1950  220.9660 C   0  0  0  0  0  0  0  0  0  0  0  0
  141.5810   81.9680  222.1320 C   0  0  0  0  0  0  0  0  0  0  0  0
  142.0380   80.6850  222.3480 C   0  0  0  0  0  0  0  0  0  0  0  0
  142.9210   80.3870  223.8310 Cl  0  0  0  0  0  0  0  0  0  0  0  0
  141.8150   79.6670  221.4390 C   0  0  0  0  0  0  0  0  0  0  0  0
  144.7749   75.7018  219.0175 H   0  0  0  0  0  0  0  0  0  0  0  0
  143.8353   72.1116  221.2069 H   0  0  0  0  0  0  0  0  0  0  0  0
  141.5863   73.0891  221.7919 H   0  0  0  0  0  0  0  0  0  0  0  0
  138.3378   77.3599  220.2364 H   0  0  0  0  0  0  0  0  0  0  0  0
  138.8266   76.5771  222.9731 H   0  0  0  0  0  0  0  0  0  0  0  0
  139.9154   78.8672  224.5246 H   0  0  0  0  0  0  0  0  0  0  0  0
  139.3559   81.2197  224.9618 H   0  0  0  0  0  0  0  0  0  0  0  0
  137.7007   82.3340  223.1496 H   0  0  0  0  0  0  0  0  0  0  0  0
  141.5061   78.9491  218.4182 H   0  0  0  0  0  0  0  0  0  0  0  0
  139.8185   78.7269  219.1311 H   0  0  0  0  0  0  0  0  0  0  0  0
  140.1073   81.3959  219.1267 H   0  0  0  0  0  0  0  0  0  0  0  0
  140.5072   83.2040  220.7528 H   0  0  0  0  0  0  0  0  0  0  0  0
  141.7613   82.7729  222.8597 H   0  0  0  0  0  0  0  0  0  0  0  0
  142.1993   78.6598  221.6578 H   0  0  0  0  0  0  0  0  0  0  0  0
  1  2  2  0
  2  3  1  0
  3  4  2  0
  4  5  1  0
  5  6  1  0
  6  7  2  0
  6  8  1  0
  5  9  2  0
  9 10  1  0
 10 11  2  0
 11 12  1  0
 12 13  2  0
 13 14  1  0
 14 15  2  0
 15 16  1  0
 16 17  2  0
 17 18  1  0
 18 19  2  0
 19 20  1  0
 13 21  1  0
 21 22  1  0
 22 23  1  0
 23 24  2  0
 24 25  1  0
 25 26  2  0
 26 27  1  0
 27 28  1  0
 27 29  2  0
 21  2  1  0
 29 23  1  0
 11  3  1  0
 20 16  1  0
  4 30  1  0
  9 31  1  0
 10 32  1  0
 14 33  1  0
 15 34  1  0
 17 35  1  0
 18 36  1  0
 19 37  1  0
 22 38  1  0
 22 39  1  0
 24 40  1  0
 25 41  1  0
 26 42  1  0
 29 43  1  0
M  CHG  2   6   1   8  -1
M  END
>  <smiles>  (3) 
O=c1c2cc([N+](=O)[O-])ccc2nc(/C=C/c2cccs2)n1Cc1cccc(Cl)c1

>  <score_type>  (3) 
oracle

>  <origin>  (3) 
autodockgpu

>  <m_score__min__energy>  (3) 
-8.4100000000000001

>  <m_primary>  (3) 
energy

>  <meeko>  (3) 
{"free_energy": -7.49, "intermolecular_energy": -9.28, "internal_energy": -2.36, "cluster_size": 18, "cluster_id": 2, "rank_in_cluster": 12}

>  <energy>  (3) 
-7.67

>  <cluster_rmsd>  (3) 
0.0

>  <rmsd>  (3) 
271.59

>  <cluster>  (3) 
2

$$$$

     RDKit          3D

 43 46  0  0  0  0  0  0  0  0999 V2000
  143.2830   77.5380  218.8200 O   0  0  0  0  0  0  0  0  0  0  0  0
  142.4400   76.9260  219.5090 C   0  0  0  0  0  0  0  0  0  0  0  0
  142.8290   75.6560  219.9470 C   0  0  0  0  0  0  0  0  0  0  0  0
  144.0640   75.1340  219.6290 C   0  0  0  0  0  0  0  0  0  0  0  0
  144.4150   73.8870  220.0740 C   0  0  0  0  0  0  0  0  0  0  0  0
  145.6920   73.3410  219.7480 N   0  0  0  0  0  0  0  0  0  0  0  0
  145.9420   72.8160  218.6570 O   0  0  0  0  0  0  0  0  0  0  0  0
  146.6850   73.4020  220.6930 O   0  0  0  0  0  0  0  0  0  0  0  0
  143.5700   73.1060  220.8470 C   0  0  0  0  0  0  0  0  0  0  0  0
  142.3200   73.6340  221.1700 C   0  0  0  0  0  0  0  0  0  0  0  0
  141.9770   74.8910  220.7150 C   0  0  0  0  0  0  0  0  0  0  0  0
  140.7820   75.4290  221.0080 N   0  0  0  0  0  0  0  0  0  0  0  0
  140.4190   76.6520  220.5800 C   0  0  0  0  0  0  0  0  0  0  0  0
  139.1000   77.1230  220.9910 C   0  0  0  0  0  0  0  0  0  0  0  0
  138.8800   77.3870  222.2740 C   0  0  0  0  0  0  0  0  0  0  0  0
  138.7690   78.7430  222.7350 C   0  0  0  0  0  0  0  0  0  0  0  0
  139.2740   79.3830  223.8240 C   0  0  0  0  0  0  0  0  0  0  0  0
  139.0300   80.6690  224.0480 C   0  0  0  0  0  0  0  0  0  0  0  0
  138.2030   81.3100  223.0640 C   0  0  0  0  0  0  0  0  0  0  0  0
  137.8160   80.0240  221.8570 S   0  0  0  0  0  0  0  0  0  0  0  0
  141.2200   77.4360  219.8250 N   0  0  0  0  0  0  0  0  0  0  0  0
  140.8560   78.7260  219.3310 C   0  0  0  0  0  0  0  0  0  0  0  0
  141.1450   79.8600  220.2250 C   0  0  0  0  0  0  0  0  0  0  0  0
  140.8020   81.1680  219.9780 C   0  0  0  0  0  0  0  0  0  0  0  0
  141.0980   82.2040  220.8670 C   0  0  0  0  0  0  0  0  0  0  0  0
  141.7560   81.9620  222.0490 C   0  0  0  0  0  0  0  0  0  0  0  0
  142.1080   80.6540  222.3120 C   0  0  0  0  0  0  0  0  0  0  0  0
  142.9480   80.3380  223.8160 Cl  0  0  0  0  0  0  0  0  0  0  0  0
  141.8150   79.6280  221.4330 C   0  0  0  0  0  0  0  0  0  0  0  0
  144.7677   75.7185  219.0181 H   0  0  0  0  0  0  0  0  0  0  0  0
  143.8739   72.1070  221.1928 H   0  0  0  0  0  0  0  0  0  0  0  0
  141.6138   73.0536  221.7820 H   0  0  0  0  0  0  0  0  0  0  0  0
  138.2995   77.2574  220.2487 H   0  0  0  0  0  0  0  0  0  0  0  0
  138.7818   76.5586  222.9910 H   0  0  0  0  0  0  0  0  0  0  0  0
  139.8986   78.8226  224.5352 H   0  0  0  0  0  0  0  0  0  0  0  0
  139.4312   81.2034  224.9218 H   0  0  0  0  0  0  0  0  0  0  0  0
  137.8754   82.3600  223.0489 H   0  0  0  0  0  0  0  0  0  0  0  0
  141.3990   78.8921  218.3889 H   0  0  0  0  0  0  0  0  0  0  0  0
  139.7619   78.7051  219.2193 H   0  0  0  0  0  0  0  0  0  0  0  0
  140.2737   81.4083  219.0436 H   0  0  0  0  0  0  0  0  0  0  0  0
  140.7989   83.2325  220.6164 H   0  0  0  0  0  0  0  0  0  0  0  0
  141.9912   82.7737  222.7531 H   0  0  0  0  0  0  0  0  0  0  0  0
  142.1162   78.6015  221.6892 H   0  0  0  0  0  0  0  0  0  0  0  0
  1  2  2  0
  2  3  1  0
  3  4  2  0
  4  5  1  0
  5  6  1  0
  6  7  2  0
  6  8  1  0
  5  9  2  0
  9 10  1  0
 10 11  2  0
 11 12  1  0
 12 13  2  0
 13 14  1  0
 14 15  2  0
 15 16  1  0
 16 17  2  0
 17 18  1  0
 18 19  2  0
 19 20  1  0
 13 21  1  0
 21 22  1  0
 22 23  1  0
 23 24  2  0
 24 25  1  0
 25 26  2  0
 26 27  1  0
 27 28  1  0
 27 29  2  0
 21  2  1  0
 29 23  1  0
 11  3  1  0
 20 16  1  0
  4 30  1  0
  9 31  1  0
 10 32  1  0
 14 33  1  0
 15 34  1  0
 17 35  1  0
 18 36  1  0
 19 37  1  0
 22 38  1  0
 22 39  1  0
 24 40  1  0
 25 41  1  0
 26 42  1  0
 29 43  1  0
M  CHG  2   6   1   8  -1
M  END
>  <smiles>  (4) 
O=c1c2cc([N+](=O)[O-])ccc2nc(/C=C/c2cccs2)n1Cc1cccc(Cl)c1

>  <score_type>  (4) 
oracle

>  <origin>  (4) 
autodockgpu

>  <m_score__min__energy>  (4) 
-8.4100000000000001

>  <m_primary>  (4) 
energy

>  <meeko>  (4) 
{"free_energy": -7.47, "intermolecular_energy": -9.26, "internal_energy": -2.36, "cluster_size": 18, "cluster_id": 2, "rank_in_cluster": 13}

>  <energy>  (4) 
-7.61

>  <cluster_rmsd>  (4) 
0.32

>  <rmsd>  (4) 
271.6

>  <cluster>  (4) 
2

$$$$

     RDKit          3D

 43 46  0  0  0  0  0  0  0  0999 V2000
  141.4370   75.2710  222.2480 O   0  0  0  0  0  0  0  0  0  0  0  0
  141.2220   75.6910  221.0910 C   0  0  0  0  0  0  0  0  0  0  0  0
  142.1780   75.3360  220.1350 C   0  0  0  0  0  0  0  0  0  0  0  0
  143.2770   74.5750  220.4660 C   0  0  0  0  0  0  0  0  0  0  0  0
  144.1960   74.2440  219.5060 C   0  0  0  0  0  0  0  0  0  0  0  0
  145.3360   73.4560  219.8430 N   0  0  0  0  0  0  0  0  0  0  0  0
  145.9360   72.7530  219.0210 O   0  0  0  0  0  0  0  0  0  0  0  0
  145.7840   73.4810  221.1390 O   0  0  0  0  0  0  0  0  0  0  0  0
  144.0720   74.6470  218.1850 C   0  0  0  0  0  0  0  0  0  0  0  0
  142.9590   75.4180  217.8480 C   0  0  0  0  0  0  0  0  0  0  0  0
  142.0400   75.7450  218.8240 C   0  0  0  0  0  0  0  0  0  0  0  0
  140.9580   76.4850  218.5340 N   0  0  0  0  0  0  0  0  0  0  0  0
  140.0450   76.8200  219.4640 C   0  0  0  0  0  0  0  0  0  0  0  0
  138.9060   77.6090  219.0060 C   0  0  0  0  0  0  0  0  0  0  0  0
  139.1120   78.8490  218.5750 C   0  0  0  0  0  0  0  0  0  0  0  0
  140.1110   79.6820  219.1860 C   0  0  0  0  0  0  0  0  0  0  0  0
  141.4700   79.6380  219.1730 C   0  0  0  0  0  0  0  0  0  0  0  0
  142.1990   80.5350  219.8270 C   0  0  0  0  0  0  0  0  0  0  0  0
  141.4440   81.5310  220.5340 C   0  0  0  0  0  0  0  0  0  0  0  0
  139.7120   81.1260  220.2220 S   0  0  0  0  0  0  0  0  0  0  0  0
  140.1390   76.4430  220.7590 N   0  0  0  0  0  0  0  0  0  0  0  0
  139.2030   76.8040  221.7760 C   0  0  0  0  0  0  0  0  0  0  0  0
  139.4730   78.0730  222.4730 C   0  0  0  0  0  0  0  0  0  0  0  0
  138.5140   78.9030  223.0020 C   0  0  0  0  0  0  0  0  0  0  0  0
  138.8290   80.0950  223.6590 C   0  0  0  0  0  0  0  0  0  0  0  0
  140.1330   80.5010  223.8100 C   0  0  0  0  0  0  0  0  0  0  0  0
  141.1080   79.6790  223.2850 C   0  0  0  0  0  0  0  0  0  0  0  0
  142.7730   80.1910  223.4730 Cl  0  0  0  0  0  0  0  0  0  0  0  0
  140.7980   78.5000  222.6350 C   0  0  0  0  0  0  0  0  0  0  0  0
  143.4168   74.2328  221.5020 H   0  0  0  0  0  0  0  0  0  0  0  0
  144.8231   74.3692  217.4309 H   0  0  0  0  0  0  0  0  0  0  0  0
  142.8154   75.7622  216.8132 H   0  0  0  0  0  0  0  0  0  0  0  0
  137.8917   77.1835  219.0174 H   0  0  0  0  0  0  0  0  0  0  0  0
  138.5114   79.2421  217.7415 H   0  0  0  0  0  0  0  0  0  0  0  0
  141.9769   78.8417  218.6082 H   0  0  0  0  0  0  0  0  0  0  0  0
  143.2988   80.5164  219.8271 H   0  0  0  0  0  0  0  0  0  0  0  0
  141.8368   82.3630  221.1369 H   0  0  0  0  0  0  0  0  0  0  0  0
  138.2098   76.8797  221.3093 H   0  0  0  0  0  0  0  0  0  0  0  0
  139.2775   76.0194  222.5434 H   0  0  0  0  0  0  0  0  0  0  0  0
  137.4562   78.6175  222.9042 H   0  0  0  0  0  0  0  0  0  0  0  0
  138.0186   80.7197  224.0627 H   0  0  0  0  0  0  0  0  0  0  0  0
  140.3875   81.4386  224.3259 H   0  0  0  0  0  0  0  0  0  0  0  0
  141.6131   77.8797  222.2338 H   0  0  0  0  0  0  0  0  0  0  0  0
  1  2  2  0
  2  3  1  0
  3  4  2  0
  4  5  1  0
  5  6  1  0
  6  7  2  0
  6  8  1  0
  5  9  2  0
  9 10  1  0
 10 11  2  0
 11 12  1  0
 12 13  2  0
 13 14  1  0
 14 15  2  0
 15 16  1  0
 16 17  2  0
 17 18  1  0
 18 19  2  0
 19 20  1  0
 13 21  1  0
 21 22  1  0
 22 23  1  0
 23 24  2  0
 24 25  1  0
 25 26  2  0
 26 27  1  0
 27 28  1  0
 27 29  2  0
 21  2  1  0
 29 23  1  0
 11  3  1  0
 20 16  1  0
  4 30  1  0
  9 31  1  0
 10 32  1  0
 14 33  1  0
 15 34  1  0
 17 35  1  0
 18 36  1  0
 19 37  1  0
 22 38  1  0
 22 39  1  0
 24 40  1  0
 25 41  1  0
 26 42  1  0
 29 43  1  0
M  CHG  2   6   1   8  -1
M  END
>  <smiles>  (5) 
O=c1c2cc([N+](=O)[O-])ccc2nc(/C=C/c2cccs2)n1Cc1cccc(Cl)c1

>  <score_type>  (5) 
oracle

>  <origin>  (5) 
autodockgpu

>  <m_score__min__energy>  (5) 
-8.4100000000000001

>  <m_primary>  (5) 
energy

>  <meeko>  (5) 
{"free_energy": -6.6, "intermolecular_energy": -8.39, "internal_energy": -2.49, "cluster_size": 18, "cluster_id": 2, "rank_in_cluster": 18}

>  <energy>  (5) 
-7.54

>  <cluster_rmsd>  (5) 
1.09

>  <rmsd>  (5) 
271.64

>  <cluster>  (5) 
2

$$$$

     RDKit          3D

 43 46  0  0  0  0  0  0  0  0999 V2000
  143.3020   77.5180  218.8180 O   0  0  0  0  0  0  0  0  0  0  0  0
  142.4540   76.9110  219.5050 C   0  0  0  0  0  0  0  0  0  0  0  0
  142.8310   75.6370  219.9410 C   0  0  0  0  0  0  0  0  0  0  0  0
  144.0610   75.1040  219.6230 C   0  0  0  0  0  0  0  0  0  0  0  0
  144.4010   73.8540  220.0650 C   0  0  0  0  0  0  0  0  0  0  0  0
  145.6730   73.2970  219.7390 N   0  0  0  0  0  0  0  0  0  0  0  0
  145.8940   72.6950  218.6820 O   0  0  0  0  0  0  0  0  0  0  0  0
  146.6950   73.4370  220.6430 O   0  0  0  0  0  0  0  0  0  0  0  0
  143.5490   73.0790  220.8360 C   0  0  0  0  0  0  0  0  0  0  0  0
  142.3030   73.6170  221.1600 C   0  0  0  0  0  0  0  0  0  0  0  0
  141.9710   74.8780  220.7080 C   0  0  0  0  0  0  0  0  0  0  0  0
  140.7810   75.4260  221.0010 N   0  0  0  0  0  0  0  0  0  0  0  0
  140.4300   76.6530  220.5750 C   0  0  0  0  0  0  0  0  0  0  0  0
  139.1140   77.1350  220.9860 C   0  0  0  0  0  0  0  0  0  0  0  0
  138.8920   77.3850  222.2710 C   0  0  0  0  0  0  0  0  0  0  0  0
  138.7740   78.7350  222.7480 C   0  0  0  0  0  0  0  0  0  0  0  0
  139.2620   79.3610  223.8520 C   0  0  0  0  0  0  0  0  0  0  0  0
  139.0140   80.6450  224.0880 C   0  0  0  0  0  0  0  0  0  0  0  0
  138.2040   81.2980  223.0990 C   0  0  0  0  0  0  0  0  0  0  0  0
  137.8360   80.0270  221.8700 S   0  0  0  0  0  0  0  0  0  0  0  0
  141.2380   77.4320  219.8220 N   0  0  0  0  0  0  0  0  0  0  0  0
  140.8850   78.7260  219.3300 C   0  0  0  0  0  0  0  0  0  0  0  0
  141.1560   79.8530  220.2400 C   0  0  0  0  0  0  0  0  0  0  0  0
  140.7970   81.1590  220.0080 C   0  0  0  0  0  0  0  0  0  0  0  0
  141.0750   82.1870  220.9100 C   0  0  0  0  0  0  0  0  0  0  0  0
  141.7320   81.9400  222.0910 C   0  0  0  0  0  0  0  0  0  0  0  0
  142.1000   80.6340  222.3400 C   0  0  0  0  0  0  0  0  0  0  0  0
  142.9390   80.3100  223.8430 Cl  0  0  0  0  0  0  0  0  0  0  0  0
  141.8250   79.6140  221.4480 C   0  0  0  0  0  0  0  0  0  0  0  0
  144.7702   75.6833  219.0136 H   0  0  0  0  0  0  0  0  0  0  0  0
  143.8442   72.0767  221.1798 H   0  0  0  0  0  0  0  0  0  0  0  0
  141.5917   73.0412  221.7703 H   0  0  0  0  0  0  0  0  0  0  0  0
  138.3185   77.2886  220.2420 H   0  0  0  0  0  0  0  0  0  0  0  0
  138.7973   76.5484  222.9789 H   0  0  0  0  0  0  0  0  0  0  0  0
  139.8757   78.7919  224.5657 H   0  0  0  0  0  0  0  0  0  0  0  0
  139.4005   81.1684  224.9749 H   0  0  0  0  0  0  0  0  0  0  0  0
  137.8772   82.3483  223.0914 H   0  0  0  0  0  0  0  0  0  0  0  0
  141.4480   78.8992  218.4010 H   0  0  0  0  0  0  0  0  0  0  0  0
  139.7936   78.7069  219.1942 H   0  0  0  0  0  0  0  0  0  0  0  0
  140.2696   81.4039  219.0743 H   0  0  0  0  0  0  0  0  0  0  0  0
  140.7622   83.2141  220.6709 H   0  0  0  0  0  0  0  0  0  0  0  0
  141.9544   82.7465  222.8052 H   0  0  0  0  0  0  0  0  0  0  0  0
  142.1394   78.5887  221.6928 H   0  0  0  0  0  0  0  0  0  0  0  0
  1  2  2  0
  2  3  1  0
  3  4  2  0
  4  5  1  0
  5  6  1  0
  6  7  2  0
  6  8  1  0
  5  9  2  0
  9 10  1  0
 10 11  2  0
 11 12  1  0
 12 13  2  0
 13 14  1  0
 14 15  2  0
 15 16  1  0
 16 17  2  0
 17 18  1  0
 18 19  2  0
 19 20  1  0
 13 21  1  0
 21 22  1  0
 22 23  1  0
 23 24  2  0
 24 25  1  0
 25 26  2  0
 26 27  1  0
 27 28  1  0
 27 29  2  0
 21  2  1  0
 29 23  1  0
 11  3  1  0
 20 16  1  0
  4 30  1  0
  9 31  1  0
 10 32  1  0
 14 33  1  0
 15 34  1  0
 17 35  1  0
 18 36  1  0
 19 37  1  0
 22 38  1  0
 22 39  1  0
 24 40  1  0
 25 41  1  0
 26 42  1  0
 29 43  1  0
M  CHG  2   6   1   8  -1
M  END
>  <smiles>  (6) 
O=c1c2cc([N+](=O)[O-])ccc2nc(/C=C/c2cccs2)n1Cc1cccc(Cl)c1

>  <score_type>  (6) 
oracle

>  <origin>  (6) 
autodockgpu

>  <m_score__min__energy>  (6) 
-8.4100000000000001

>  <m_primary>  (6) 
energy

>  <meeko>  (6) 
{"free_energy": -7.47, "intermolecular_energy": -9.26, "internal_energy": -2.37, "cluster_size": 18, "cluster_id": 2, "rank_in_cluster": 14}

>  <energy>  (6) 
-7.54

>  <cluster_rmsd>  (6) 
0.75

>  <rmsd>  (6) 
271.54

>  <cluster>  (6) 
2

$$$$

     RDKit          3D

 43 46  0  0  0  0  0  0  0  0999 V2000
  143.3320   77.5220  218.8100 O   0  0  0  0  0  0  0  0  0  0  0  0
  142.4810   76.9270  219.5030 C   0  0  0  0  0  0  0  0  0  0  0  0
  142.8490   75.6530  219.9450 C   0  0  0  0  0  0  0  0  0  0  0  0
  144.0740   75.1080  219.6270 C   0  0  0  0  0  0  0  0  0  0  0  0
  144.4040   73.8570  220.0750 C   0  0  0  0  0  0  0  0  0  0  0  0
  145.6710   73.2880  219.7500 N   0  0  0  0  0  0  0  0  0  0  0  0
  145.8870   72.6850  218.6920 O   0  0  0  0  0  0  0  0  0  0  0  0
  146.6940   73.4160  220.6550 O   0  0  0  0  0  0  0  0  0  0  0  0
  143.5470   73.0930  220.8530 C   0  0  0  0  0  0  0  0  0  0  0  0
  142.3070   73.6440  221.1760 C   0  0  0  0  0  0  0  0  0  0  0  0
  141.9850   74.9050  220.7180 C   0  0  0  0  0  0  0  0  0  0  0  0
  140.8000   75.4640  221.0110 N   0  0  0  0  0  0  0  0  0  0  0  0
  140.4570   76.6910  220.5790 C   0  0  0  0  0  0  0  0  0  0  0  0
  139.1470   77.1870  220.9900 C   0  0  0  0  0  0  0  0  0  0  0  0
  138.9210   77.4210  222.2780 C   0  0  0  0  0  0  0  0  0  0  0  0
  138.7650   78.7640  222.7630 C   0  0  0  0  0  0  0  0  0  0  0  0
  139.2780   79.4120  223.8430 C   0  0  0  0  0  0  0  0  0  0  0  0
  138.9830   80.6820  224.0950 C   0  0  0  0  0  0  0  0  0  0  0  0
  138.0950   81.2980  223.1500 C   0  0  0  0  0  0  0  0  0  0  0  0
  137.7240   80.0110  221.9370 S   0  0  0  0  0  0  0  0  0  0  0  0
  141.2700   77.4600  219.8190 N   0  0  0  0  0  0  0  0  0  0  0  0
  140.9270   78.7540  219.3210 C   0  0  0  0  0  0  0  0  0  0  0  0
  141.1470   79.8760  220.2490 C   0  0  0  0  0  0  0  0  0  0  0  0
  140.7170   81.1650  220.0440 C   0  0  0  0  0  0  0  0  0  0  0  0
  140.9490   82.1910  220.9630 C   0  0  0  0  0  0  0  0  0  0  0  0
  141.6300   81.9570  222.1330 C   0  0  0  0  0  0  0  0  0  0  0  0
  142.0690   80.6690  222.3540 C   0  0  0  0  0  0  0  0  0  0  0  0
  142.9390   80.3620  223.8440 Cl  0  0  0  0  0  0  0  0  0  0  0  0
  141.8390   79.6520  221.4460 C   0  0  0  0  0  0  0  0  0  0  0  0
  144.7869   75.6781  219.0131 H   0  0  0  0  0  0  0  0  0  0  0  0
  143.8343   72.0903  221.2022 H   0  0  0  0  0  0  0  0  0  0  0  0
  141.5918   73.0779  221.7908 H   0  0  0  0  0  0  0  0  0  0  0  0
  138.3584   77.3644  220.2440 H   0  0  0  0  0  0  0  0  0  0  0  0
  138.8526   76.5773  222.9805 H   0  0  0  0  0  0  0  0  0  0  0  0
  139.9527   78.8718  224.5234 H   0  0  0  0  0  0  0  0  0  0  0  0
  139.3888   81.2219  224.9632 H   0  0  0  0  0  0  0  0  0  0  0  0
  137.7205   82.3322  223.1618 H   0  0  0  0  0  0  0  0  0  0  0  0
  141.5287   78.9390  218.4189 H   0  0  0  0  0  0  0  0  0  0  0  0
  139.8428   78.7260  219.1372 H   0  0  0  0  0  0  0  0  0  0  0  0
  140.1683   81.3980  219.1195 H   0  0  0  0  0  0  0  0  0  0  0  0
  140.5799   83.2043  220.7461 H   0  0  0  0  0  0  0  0  0  0  0  0
  141.8165   82.7608  222.8604 H   0  0  0  0  0  0  0  0  0  0  0  0
  142.2092   78.6405  221.6695 H   0  0  0  0  0  0  0  0  0  0  0  0
  1  2  2  0
  2  3  1  0
  3  4  2  0
  4  5  1  0
  5  6  1  0
  6  7  2  0
  6  8  1  0
  5  9  2  0
  9 10  1  0
 10 11  2  0
 11 12  1  0
 12 13  2  0
 13 14  1  0
 14 15  2  0
 15 16  1  0
 16 17  2  0
 17 18  1  0
 18 19  2  0
 19 20  1  0
 13 21  1  0
 21 22  1  0
 22 23  1  0
 23 24  2  0
 24 25  1  0
 25 26  2  0
 26 27  1  0
 27 28  1  0
 27 29  2  0
 21  2  1  0
 29 23  1  0
 11  3  1  0
 20 16  1  0
  4 30  1  0
  9 31  1  0
 10 32  1  0
 14 33  1  0
 15 34  1  0
 17 35  1  0
 18 36  1  0
 19 37  1  0
 22 38  1  0
 22 39  1  0
 24 40  1  0
 25 41  1  0
 26 42  1  0
 29 43  1  0
M  CHG  2   6   1   8  -1
M  END
>  <smiles>  (7) 
O=c1c2cc([N+](=O)[O-])ccc2nc(/C=C/c2cccs2)n1Cc1cccc(Cl)c1

>  <score_type>  (7) 
oracle

>  <origin>  (7) 
autodockgpu

>  <m_score__min__energy>  (7) 
-8.4100000000000001

>  <m_primary>  (7) 
energy

>  <meeko>  (7) 
{"free_energy": -7.5, "intermolecular_energy": -9.29, "internal_energy": -2.35, "cluster_size": 18, "cluster_id": 2, "rank_in_cluster": 10}

>  <energy>  (7) 
-7.52

>  <cluster_rmsd>  (7) 
1.09

>  <rmsd>  (7) 
271.63

>  <cluster>  (7) 
2

$$$$

     RDKit          3D

 43 46  0  0  0  0  0  0  0  0999 V2000
  143.3350   77.5350  218.7890 O   0  0  0  0  0  0  0  0  0  0  0  0
  142.4820   76.9510  219.4890 C   0  0  0  0  0  0  0  0  0  0  0  0
  142.8390   75.6730  219.9320 C   0  0  0  0  0  0  0  0  0  0  0  0
  144.0560   75.1150  219.6070 C   0  0  0  0  0  0  0  0  0  0  0  0
  144.3770   73.8620  220.0570 C   0  0  0  0  0  0  0  0  0  0  0  0
  145.6340   73.2780  219.7240 N   0  0  0  0  0  0  0  0  0  0  0  0
  145.8310   72.6520  218.6760 O   0  0  0  0  0  0  0  0  0  0  0  0
  146.6720   73.4190  220.6110 O   0  0  0  0  0  0  0  0  0  0  0  0
  143.5170   73.1090  220.8420 C   0  0  0  0  0  0  0  0  0  0  0  0
  142.2840   73.6740  221.1720 C   0  0  0  0  0  0  0  0  0  0  0  0
  141.9730   74.9370  220.7130 C   0  0  0  0  0  0  0  0  0  0  0  0
  140.7960   75.5100  221.0120 N   0  0  0  0  0  0  0  0  0  0  0  0
  140.4630   76.7390  220.5790 C   0  0  0  0  0  0  0  0  0  0  0  0
  139.1610   77.2500  220.9980 C   0  0  0  0  0  0  0  0  0  0  0  0
  138.9300   77.4410  222.2920 C   0  0  0  0  0  0  0  0  0  0  0  0
  138.7320   78.7650  222.8140 C   0  0  0  0  0  0  0  0  0  0  0  0
  139.2680   79.4170  223.8800 C   0  0  0  0  0  0  0  0  0  0  0  0
  138.9240   80.6660  224.1750 C   0  0  0  0  0  0  0  0  0  0  0  0
  137.9580   81.2530  223.2900 C   0  0  0  0  0  0  0  0  0  0  0  0
  137.5890   79.9740  222.0700 S   0  0  0  0  0  0  0  0  0  0  0  0
  141.2790   77.4970  219.8120 N   0  0  0  0  0  0  0  0  0  0  0  0
  140.9470   78.7930  219.3130 C   0  0  0  0  0  0  0  0  0  0  0  0
  141.1080   79.9070  220.2640 C   0  0  0  0  0  0  0  0  0  0  0  0
  140.5920   81.1690  220.0960 C   0  0  0  0  0  0  0  0  0  0  0  0
  140.7720   82.1870  221.0350 C   0  0  0  0  0  0  0  0  0  0  0  0
  141.4870   81.9720  222.1890 C   0  0  0  0  0  0  0  0  0  0  0  0
  142.0130   80.7100  222.3720 C   0  0  0  0  0  0  0  0  0  0  0  0
  142.9270   80.4290  223.8410 Cl  0  0  0  0  0  0  0  0  0  0  0  0
  141.8350   79.7020  221.4440 C   0  0  0  0  0  0  0  0  0  0  0  0
  144.7699   75.6759  218.9860 H   0  0  0  0  0  0  0  0  0  0  0  0
  143.7960   72.1040  221.1916 H   0  0  0  0  0  0  0  0  0  0  0  0
  141.5667   73.1170  221.7926 H   0  0  0  0  0  0  0  0  0  0  0  0
  138.3830   77.4735  220.2532 H   0  0  0  0  0  0  0  0  0  0  0  0
  138.8898   76.5766  222.9711 H   0  0  0  0  0  0  0  0  0  0  0  0
  140.0034   78.8985  224.5128 H   0  0  0  0  0  0  0  0  0  0  0  0
  139.3474   81.2093  225.0326 H   0  0  0  0  0  0  0  0  0  0  0  0
  137.5331   82.2662  223.3437 H   0  0  0  0  0  0  0  0  0  0  0  0
  141.5907   78.9952  218.4442 H   0  0  0  0  0  0  0  0  0  0  0  0
  139.8736   78.7557  219.0755 H   0  0  0  0  0  0  0  0  0  0  0  0
  140.0140   81.3864  219.1857 H   0  0  0  0  0  0  0  0  0  0  0  0
  140.3338   83.1784  220.8477 H   0  0  0  0  0  0  0  0  0  0  0  0
  141.6330   82.7695  222.9324 H   0  0  0  0  0  0  0  0  0  0  0  0
  142.2756   78.7127  221.6366 H   0  0  0  0  0  0  0  0  0  0  0  0
  1  2  2  0
  2  3  1  0
  3  4  2  0
  4  5  1  0
  5  6  1  0
  6  7  2  0
  6  8  1  0
  5  9  2  0
  9 10  1  0
 10 11  2  0
 11 12  1  0
 12 13  2  0
 13 14  1  0
 14 15  2  0
 15 16  1  0
 16 17  2  0
 17 18  1  0
 18 19  2  0
 19 20  1  0
 13 21  1  0
 21 22  1  0
 22 23  1  0
 23 24  2  0
 24 25  1  0
 25 26  2  0
 26 27  1  0
 27 28  1  0
 27 29  2  0
 21  2  1  0
 29 23  1  0
 11  3  1  0
 20 16  1  0
  4 30  1  0
  9 31  1  0
 10 32  1  0
 14 33  1  0
 15 34  1  0
 17 35  1  0
 18 36  1  0
 19 37  1  0
 22 38  1  0
 22 39  1  0
 24 40  1  0
 25 41  1  0
 26 42  1  0
 29 43  1  0
M  CHG  2   6   1   8  -1
M  END
>  <smiles>  (8) 
O=c1c2cc([N+](=O)[O-])ccc2nc(/C=C/c2cccs2)n1Cc1cccc(Cl)c1

>  <score_type>  (8) 
oracle

>  <origin>  (8) 
autodockgpu

>  <m_score__min__energy>  (8) 
-8.4100000000000001

>  <m_primary>  (8) 
energy

>  <meeko>  (8) 
{"free_energy": -7.52, "intermolecular_energy": -9.31, "internal_energy": -2.33, "cluster_size": 18, "cluster_id": 2, "rank_in_cluster": 6}

>  <energy>  (8) 
-7.52

>  <cluster_rmsd>  (8) 
1.08

>  <rmsd>  (8) 
271.63

>  <cluster>  (8) 
2

$$$$

     RDKit          3D

 43 46  0  0  0  0  0  0  0  0999 V2000
  141.7300   71.1640  221.5670 O   0  0  0  0  0  0  0  0  0  0  0  0
  141.3600   72.3460  221.4050 C   0  0  0  0  0  0  0  0  0  0  0  0
  142.2740   73.1780  220.7510 C   0  0  0  0  0  0  0  0  0  0  0  0
  143.4960   72.7070  220.3240 C   0  0  0  0  0  0  0  0  0  0  0  0
  144.3700   73.5480  219.6870 C   0  0  0  0  0  0  0  0  0  0  0  0
  145.6360   73.0660  219.2420 N   0  0  0  0  0  0  0  0  0  0  0  0
  146.7040   73.3830  219.7780 O   0  0  0  0  0  0  0  0  0  0  0  0
  145.6660   72.2120  218.1680 O   0  0  0  0  0  0  0  0  0  0  0  0
  144.0780   74.8810  219.4450 C   0  0  0  0  0  0  0  0  0  0  0  0
  142.8410   75.3600  219.8770 C   0  0  0  0  0  0  0  0  0  0  0  0
  141.9690   74.5030  220.5180 C   0  0  0  0  0  0  0  0  0  0  0  0
  140.7710   74.9310  220.9470 N   0  0  0  0  0  0  0  0  0  0  0  0
  139.9000   74.1200  221.5740 C   0  0  0  0  0  0  0  0  0  0  0  0
  138.6240   74.7100  221.9670 C   0  0  0  0  0  0  0  0  0  0  0  0
  138.6230   75.8590  222.6330 C   0  0  0  0  0  0  0  0  0  0  0  0
  139.4890   76.9360  222.2410 C   0  0  0  0  0  0  0  0  0  0  0  0
  140.7040   77.3440  222.6940 C   0  0  0  0  0  0  0  0  0  0  0  0
  141.3260   78.3920  222.1650 C   0  0  0  0  0  0  0  0  0  0  0  0
  140.6190   79.0410  221.0980 C   0  0  0  0  0  0  0  0  0  0  0  0
  139.0850   78.1090  220.9060 S   0  0  0  0  0  0  0  0  0  0  0  0
  140.1550   72.8160  221.8250 N   0  0  0  0  0  0  0  0  0  0  0  0
  139.2660   71.9360  222.5130 C   0  0  0  0  0  0  0  0  0  0  0  0
  139.7960   71.3200  223.7420 C   0  0  0  0  0  0  0  0  0  0  0  0
  140.7040   71.9070  224.5900 C   0  0  0  0  0  0  0  0  0  0  0  0
  141.1690   71.2770  225.7460 C   0  0  0  0  0  0  0  0  0  0  0  0
  140.7350   70.0210  226.0970 C   0  0  0  0  0  0  0  0  0  0  0  0
  139.8240   69.4180  225.2560 C   0  0  0  0  0  0  0  0  0  0  0  0
  139.2670   67.8160  225.6950 Cl  0  0  0  0  0  0  0  0  0  0  0  0
  139.3620   70.0400  224.1110 C   0  0  0  0  0  0  0  0  0  0  0  0
  143.7701   71.6554  220.4945 H   0  0  0  0  0  0  0  0  0  0  0  0
  144.7955   75.5375  218.9310 H   0  0  0  0  0  0  0  0  0  0  0  0
  142.5630   76.4109  219.7084 H   0  0  0  0  0  0  0  0  0  0  0  0
  137.6770   74.2102  221.7152 H   0  0  0  0  0  0  0  0  0  0  0  0
  137.9514   75.9874  223.4946 H   0  0  0  0  0  0  0  0  0  0  0  0
  141.1831   76.7939  223.5173 H   0  0  0  0  0  0  0  0  0  0  0  0
  142.3091   78.7364  222.5183 H   0  0  0  0  0  0  0  0  0  0  0  0
  140.9428   79.9193  220.5203 H   0  0  0  0  0  0  0  0  0  0  0  0
  138.3667   72.5087  222.7835 H   0  0  0  0  0  0  0  0  0  0  0  0
  139.0751   71.1032  221.8202 H   0  0  0  0  0  0  0  0  0  0  0  0
  141.0792   72.9125  224.3487 H   0  0  0  0  0  0  0  0  0  0  0  0
  141.8964   71.7956  226.3879 H   0  0  0  0  0  0  0  0  0  0  0  0
  141.0977   69.5201  227.0067 H   0  0  0  0  0  0  0  0  0  0  0  0
  138.6348   69.5163  223.4731 H   0  0  0  0  0  0  0  0  0  0  0  0
  1  2  2  0
  2  3  1  0
  3  4  2  0
  4  5  1  0
  5  6  1  0
  6  7  2  0
  6  8  1  0
  5  9  2  0
  9 10  1  0
 10 11  2  0
 11 12  1  0
 12 13  2  0
 13 14  1  0
 14 15  2  0
 15 16  1  0
 16 17  2  0
 17 18  1  0
 18 19  2  0
 19 20  1  0
 13 21  1  0
 21 22  1  0
 22 23  1  0
 23 24  2  0
 24 25  1  0
 25 26  2  0
 26 27  1  0
 27 28  1  0
 27 29  2  0
 21  2  1  0
 29 23  1  0
 11  3  1  0
 20 16  1  0
  4 30  1  0
  9 31  1  0
 10 32  1  0
 14 33  1  0
 15 34  1  0
 17 35  1  0
 18 36  1  0
 19 37  1  0
 22 38  1  0
 22 39  1  0
 24 40  1  0
 25 41  1  0
 26 42  1  0
 29 43  1  0
M  CHG  2   6   1   8  -1
M  END
>  <smiles>  (9) 
O=c1c2cc([N+](=O)[O-])ccc2nc(/C=C/c2cccs2)n1Cc1cccc(Cl)c1

>  <score_type>  (9) 
oracle

>  <origin>  (9) 
autodockgpu

>  <m_score__min__energy>  (9) 
-8.4100000000000001

>  <m_primary>  (9) 
energy

>  <meeko>  (9) 
{"free_energy": -7.87, "intermolecular_energy": -9.66, "internal_energy": -1.39, "cluster_size": 2, "cluster_id": 1, "rank_in_cluster": 2}

>  <energy>  (9) 
-7.51

>  <cluster_rmsd>  (9) 
0.49

>  <rmsd>  (9) 
271.66

>  <cluster>  (9) 
2

$$$$

     RDKit          3D

 43 46  0  0  0  0  0  0  0  0999 V2000
  143.3080   77.5160  218.7870 O   0  0  0  0  0  0  0  0  0  0  0  0
  142.4630   76.9270  219.4930 C   0  0  0  0  0  0  0  0  0  0  0  0
  142.8310   75.6530  219.9370 C   0  0  0  0  0  0  0  0  0  0  0  0
  144.0500   75.1020  219.6060 C   0  0  0  0  0  0  0  0  0  0  0  0
  144.3810   73.8530  220.0570 C   0  0  0  0  0  0  0  0  0  0  0  0
  145.6410   73.2770  219.7180 N   0  0  0  0  0  0  0  0  0  0  0  0
  145.8390   72.6580  218.6650 O   0  0  0  0  0  0  0  0  0  0  0  0
  146.6790   73.4160  220.6050 O   0  0  0  0  0  0  0  0  0  0  0  0
  143.5310   73.0960  220.8490 C   0  0  0  0  0  0  0  0  0  0  0  0
  142.2970   73.6530  221.1850 C   0  0  0  0  0  0  0  0  0  0  0  0
  141.9740   74.9130  220.7240 C   0  0  0  0  0  0  0  0  0  0  0  0
  140.7950   75.4780  221.0290 N   0  0  0  0  0  0  0  0  0  0  0  0
  140.4520   76.7050  220.5950 C   0  0  0  0  0  0  0  0  0  0  0  0
  139.1490   77.2080  221.0200 C   0  0  0  0  0  0  0  0  0  0  0  0
  138.9400   77.4480  222.3090 C   0  0  0  0  0  0  0  0  0  0  0  0
  138.7490   78.7910  222.7840 C   0  0  0  0  0  0  0  0  0  0  0  0
  139.2230   79.4510  223.8740 C   0  0  0  0  0  0  0  0  0  0  0  0
  138.9020   80.7180  224.1120 C   0  0  0  0  0  0  0  0  0  0  0  0
  138.0290   81.3150  223.1410 C   0  0  0  0  0  0  0  0  0  0  0  0
  137.7120   80.0180  221.9250 S   0  0  0  0  0  0  0  0  0  0  0  0
  141.2580   77.4660  219.8210 N   0  0  0  0  0  0  0  0  0  0  0  0
  140.9140   78.7590  219.3210 C   0  0  0  0  0  0  0  0  0  0  0  0
  141.1060   79.8800  220.2570 C   0  0  0  0  0  0  0  0  0  0  0  0
  140.6340   81.1570  220.0670 C   0  0  0  0  0  0  0  0  0  0  0  0
  140.8420   82.1810  220.9920 C   0  0  0  0  0  0  0  0  0  0  0  0
  141.5390   81.9590  222.1560 C   0  0  0  0  0  0  0  0  0  0  0  0
  142.0200   80.6830  222.3620 C   0  0  0  0  0  0  0  0  0  0  0  0
  142.9110   80.3910  223.8420 Cl  0  0  0  0  0  0  0  0  0  0  0  0
  141.8140   79.6670  221.4470 C   0  0  0  0  0  0  0  0  0  0  0  0
  144.7568   75.6659  218.9795 H   0  0  0  0  0  0  0  0  0  0  0  0
  143.8190   72.0938  221.1992 H   0  0  0  0  0  0  0  0  0  0  0  0
  141.5876   73.0928  221.8119 H   0  0  0  0  0  0  0  0  0  0  0  0
  138.3520   77.3856  220.2830 H   0  0  0  0  0  0  0  0  0  0  0  0
  138.9127   76.6100  223.0210 H   0  0  0  0  0  0  0  0  0  0  0  0
  139.8873   78.9240  224.5747 H   0  0  0  0  0  0  0  0  0  0  0  0
  139.2770   81.2684  224.9874 H   0  0  0  0  0  0  0  0  0  0  0  0
  137.6370   82.3428  223.1383 H   0  0  0  0  0  0  0  0  0  0  0  0
  141.5318   78.9523  218.4316 H   0  0  0  0  0  0  0  0  0  0  0  0
  139.8339   78.7225  219.1161 H   0  0  0  0  0  0  0  0  0  0  0  0
  140.0700   81.3806  219.1495 H   0  0  0  0  0  0  0  0  0  0  0  0
  140.4408   83.1843  220.7860 H   0  0  0  0  0  0  0  0  0  0  0  0
  141.7054   82.7620  222.8892 H   0  0  0  0  0  0  0  0  0  0  0  0
  142.2165   78.6655  221.6590 H   0  0  0  0  0  0  0  0  0  0  0  0
  1  2  2  0
  2  3  1  0
  3  4  2  0
  4  5  1  0
  5  6  1  0
  6  7  2  0
  6  8  1  0
  5  9  2  0
  9 10  1  0
 10 11  2  0
 11 12  1  0
 12 13  2  0
 13 14  1  0
 14 15  2  0
 15 16  1  0
 16 17  2  0
 17 18  1  0
 18 19  2  0
 19 20  1  0
 13 21  1  0
 21 22  1  0
 22 23  1  0
 23 24  2  0
 24 25  1  0
 25 26  2  0
 26 27  1  0
 27 28  1  0
 27 29  2  0
 21  2  1  0
 29 23  1  0
 11  3  1  0
 20 16  1  0
  4 30  1  0
  9 31  1  0
 10 32  1  0
 14 33  1  0
 15 34  1  0
 17 35  1  0
 18 36  1  0
 19 37  1  0
 22 38  1  0
 22 39  1  0
 24 40  1  0
 25 41  1  0
 26 42  1  0
 29 43  1  0
M  CHG  2   6   1   8  -1
M  END
>  <smiles>  (10) 
O=c1c2cc([N+](=O)[O-])ccc2nc(/C=C/c2cccs2)n1Cc1cccc(Cl)c1

>  <score_type>  (10) 
oracle

>  <origin>  (10) 
autodockgpu

>  <m_score__min__energy>  (10) 
-8.4100000000000001

>  <m_primary>  (10) 
energy

>  <meeko>  (10) 
{"free_energy": -7.5, "intermolecular_energy": -9.29, "internal_energy": -2.35, "cluster_size": 18, "cluster_id": 2, "rank_in_cluster": 11}

>  <energy>  (10) 
-7.5

>  <cluster_rmsd>  (10) 
1.08

>  <rmsd>  (10) 
271.62

>  <cluster>  (10) 
2

$$$$

     RDKit          3D

 43 46  0  0  0  0  0  0  0  0999 V2000
  143.3230   77.5450  218.7880 O   0  0  0  0  0  0  0  0  0  0  0  0
  142.4740   76.9620  219.4940 C   0  0  0  0  0  0  0  0  0  0  0  0
  142.8350   75.6860  219.9390 C   0  0  0  0  0  0  0  0  0  0  0  0
  144.0510   75.1280  219.6080 C   0  0  0  0  0  0  0  0  0  0  0  0
  144.3750   73.8760  220.0580 C   0  0  0  0  0  0  0  0  0  0  0  0
  145.6320   73.2930  219.7200 N   0  0  0  0  0  0  0  0  0  0  0  0
  145.8220   72.6610  218.6740 O   0  0  0  0  0  0  0  0  0  0  0  0
  146.6760   73.4420  220.5980 O   0  0  0  0  0  0  0  0  0  0  0  0
  143.5210   73.1250  220.8510 C   0  0  0  0  0  0  0  0  0  0  0  0
  142.2900   73.6890  221.1870 C   0  0  0  0  0  0  0  0  0  0  0  0
  141.9740   74.9500  220.7260 C   0  0  0  0  0  0  0  0  0  0  0  0
  140.7990   75.5230  221.0310 N   0  0  0  0  0  0  0  0  0  0  0  0
  140.4620   76.7510  220.5970 C   0  0  0  0  0  0  0  0  0  0  0  0
  139.1620   77.2610  221.0220 C   0  0  0  0  0  0  0  0  0  0  0  0
  138.9430   77.4680  222.3160 C   0  0  0  0  0  0  0  0  0  0  0  0
  138.7290   78.7960  222.8210 C   0  0  0  0  0  0  0  0  0  0  0  0
  139.2500   79.4650  223.8830 C   0  0  0  0  0  0  0  0  0  0  0  0
  138.8920   80.7150  224.1600 C   0  0  0  0  0  0  0  0  0  0  0  0
  137.9280   81.2830  223.2610 C   0  0  0  0  0  0  0  0  0  0  0  0
  137.5810   79.9850  222.0540 S   0  0  0  0  0  0  0  0  0  0  0  0
  141.2730   77.5070  219.8230 N   0  0  0  0  0  0  0  0  0  0  0  0
  140.9360   78.8020  219.3230 C   0  0  0  0  0  0  0  0  0  0  0  0
  141.0880   79.9160  220.2740 C   0  0  0  0  0  0  0  0  0  0  0  0
  140.5560   81.1730  220.1110 C   0  0  0  0  0  0  0  0  0  0  0  0
  140.7290   82.1910  221.0500 C   0  0  0  0  0  0  0  0  0  0  0  0
  141.4510   81.9840  222.2010 C   0  0  0  0  0  0  0  0  0  0  0  0
  141.9920   80.7280  222.3800 C   0  0  0  0  0  0  0  0  0  0  0  0
  142.9150   80.4550  223.8450 Cl  0  0  0  0  0  0  0  0  0  0  0  0
  141.8220   79.7180  221.4520 C   0  0  0  0  0  0  0  0  0  0  0  0
  144.7612   75.6884  218.9823 H   0  0  0  0  0  0  0  0  0  0  0  0
  143.8036   72.1216  221.2022 H   0  0  0  0  0  0  0  0  0  0  0  0
  141.5776   73.1329  221.8141 H   0  0  0  0  0  0  0  0  0  0  0  0
  138.3755   77.4708  220.2821 H   0  0  0  0  0  0  0  0  0  0  0  0
  138.9253   76.6133  223.0083 H   0  0  0  0  0  0  0  0  0  0  0  0
  139.9846   78.9608  224.5281 H   0  0  0  0  0  0  0  0  0  0  0  0
  139.3038   81.2723  225.0143 H   0  0  0  0  0  0  0  0  0  0  0  0
  137.4935   82.2928  223.2990 H   0  0  0  0  0  0  0  0  0  0  0  0
  141.5816   79.0076  218.4564 H   0  0  0  0  0  0  0  0  0  0  0  0
  139.8636   78.7593  219.0821 H   0  0  0  0  0  0  0  0  0  0  0  0
  139.9705   81.3850  219.2042 H   0  0  0  0  0  0  0  0  0  0  0  0
  140.2790   83.1776  220.8654 H   0  0  0  0  0  0  0  0  0  0  0  0
  141.5908   82.7825  222.9445 H   0  0  0  0  0  0  0  0  0  0  0  0
  142.2742   78.7335  221.6425 H   0  0  0  0  0  0  0  0  0  0  0  0
  1  2  2  0
  2  3  1  0
  3  4  2  0
  4  5  1  0
  5  6  1  0
  6  7  2  0
  6  8  1  0
  5  9  2  0
  9 10  1  0
 10 11  2  0
 11 12  1  0
 12 13  2  0
 13 14  1  0
 14 15  2  0
 15 16  1  0
 16 17  2  0
 17 18  1  0
 18 19  2  0
 19 20  1  0
 13 21  1  0
 21 22  1  0
 22 23  1  0
 23 24  2  0
 24 25  1  0
 25 26  2  0
 26 27  1  0
 27 28  1  0
 27 29  2  0
 21  2  1  0
 29 23  1  0
 11  3  1  0
 20 16  1  0
  4 30  1  0
  9 31  1  0
 10 32  1  0
 14 33  1  0
 15 34  1  0
 17 35  1  0
 18 36  1  0
 19 37  1  0
 22 38  1  0
 22 39  1  0
 24 40  1  0
 25 41  1  0
 26 42  1  0
 29 43  1  0
M  CHG  2   6   1   8  -1
M  END
>  <smiles>  (11) 
O=c1c2cc([N+](=O)[O-])ccc2nc(/C=C/c2cccs2)n1Cc1cccc(Cl)c1

>  <score_type>  (11) 
oracle

>  <origin>  (11) 
autodockgpu

>  <m_score__min__energy>  (11) 
-8.4100000000000001

>  <m_primary>  (11) 
energy

>  <meeko>  (11) 
{"free_energy": -7.52, "intermolecular_energy": -9.31, "internal_energy": -2.33, "cluster_size": 18, "cluster_id": 2, "rank_in_cluster": 5}

>  <energy>  (11) 
-7.5

>  <cluster_rmsd>  (11) 
1.08

>  <rmsd>  (11) 
271.62

>  <cluster>  (11) 
2

$$$$

     RDKit          3D

 43 46  0  0  0  0  0  0  0  0999 V2000
  143.3170   77.5170  218.8040 O   0  0  0  0  0  0  0  0  0  0  0  0
  142.4550   76.9020  219.4670 C   0  0  0  0  0  0  0  0  0  0  0  0
  142.8320   75.6320  219.9130 C   0  0  0  0  0  0  0  0  0  0  0  0
  144.0760   75.1110  219.6300 C   0  0  0  0  0  0  0  0  0  0  0  0
  144.4150   73.8640  220.0820 C   0  0  0  0  0  0  0  0  0  0  0  0
  145.7010   73.3190  219.7930 N   0  0  0  0  0  0  0  0  0  0  0  0
  146.6710   73.4390  220.5510 O   0  0  0  0  0  0  0  0  0  0  0  0
  145.8670   72.6320  218.6170 O   0  0  0  0  0  0  0  0  0  0  0  0
  143.5490   73.0800  220.8290 C   0  0  0  0  0  0  0  0  0  0  0  0
  142.2890   73.6070  221.1170 C   0  0  0  0  0  0  0  0  0  0  0  0
  141.9590   74.8650  220.6550 C   0  0  0  0  0  0  0  0  0  0  0  0
  140.7560   75.4010  220.9150 N   0  0  0  0  0  0  0  0  0  0  0  0
  140.4040   76.6240  220.4790 C   0  0  0  0  0  0  0  0  0  0  0  0
  139.0730   77.0940  220.8520 C   0  0  0  0  0  0  0  0  0  0  0  0
  138.7880   77.2670  222.1370 C   0  0  0  0  0  0  0  0  0  0  0  0
  138.5360   78.5800  222.6640 C   0  0  0  0  0  0  0  0  0  0  0  0
  137.5350   79.4750  222.4480 C   0  0  0  0  0  0  0  0  0  0  0  0
  137.5150   80.6540  223.0600 C   0  0  0  0  0  0  0  0  0  0  0  0
  138.6170   80.8950  223.9480 C   0  0  0  0  0  0  0  0  0  0  0  0
  139.6360   79.4060  223.8590 S   0  0  0  0  0  0  0  0  0  0  0  0
  141.2260   77.4110  219.7490 N   0  0  0  0  0  0  0  0  0  0  0  0
  140.8750   78.7020  219.2470 C   0  0  0  0  0  0  0  0  0  0  0  0
  141.1050   79.8300  220.1650 C   0  0  0  0  0  0  0  0  0  0  0  0
  140.6450   81.1110  219.9730 C   0  0  0  0  0  0  0  0  0  0  0  0
  140.8890   82.1430  220.8820 C   0  0  0  0  0  0  0  0  0  0  0  0
  141.6120   81.9240  222.0290 C   0  0  0  0  0  0  0  0  0  0  0  0
  142.0810   80.6440  222.2380 C   0  0  0  0  0  0  0  0  0  0  0  0
  143.0050   80.3570  223.6980 Cl  0  0  0  0  0  0  0  0  0  0  0  0
  141.8400   79.6210  221.3390 C   0  0  0  0  0  0  0  0  0  0  0  0
  144.7967   75.6971  219.0409 H   0  0  0  0  0  0  0  0  0  0  0  0
  143.8438   72.0805  221.1813 H   0  0  0  0  0  0  0  0  0  0  0  0
  141.5656   73.0250  221.7069 H   0  0  0  0  0  0  0  0  0  0  0  0
  138.3176   77.3017  220.0798 H   0  0  0  0  0  0  0  0  0  0  0  0
  138.7442   76.3951  222.8062 H   0  0  0  0  0  0  0  0  0  0  0  0
  136.7240   79.2170  221.7511 H   0  0  0  0  0  0  0  0  0  0  0  0
  136.7140   81.3904  222.8984 H   0  0  0  0  0  0  0  0  0  0  0  0
  138.8016   81.7946  224.5535 H   0  0  0  0  0  0  0  0  0  0  0  0
  141.4652   78.8821  218.3363 H   0  0  0  0  0  0  0  0  0  0  0  0
  139.7887   78.6715  219.0769 H   0  0  0  0  0  0  0  0  0  0  0  0
  140.0614   81.3322  219.0672 H   0  0  0  0  0  0  0  0  0  0  0  0
  140.4951   83.1491  220.6756 H   0  0  0  0  0  0  0  0  0  0  0  0
  141.8081   82.7328  222.7483 H   0  0  0  0  0  0  0  0  0  0  0  0
  142.2359   78.6169  221.5515 H   0  0  0  0  0  0  0  0  0  0  0  0
  1  2  2  0
  2  3  1  0
  3  4  2  0
  4  5  1  0
  5  6  1  0
  6  7  2  0
  6  8  1  0
  5  9  2  0
  9 10  1  0
 10 11  2  0
 11 12  1  0
 12 13  2  0
 13 14  1  0
 14 15  2  0
 15 16  1  0
 16 17  2  0
 17 18  1  0
 18 19  2  0
 19 20  1  0
 13 21  1  0
 21 22  1  0
 22 23  1  0
 23 24  2  0
 24 25  1  0
 25 26  2  0
 26 27  1  0
 27 28  1  0
 27 29  2  0
 21  2  1  0
 29 23  1  0
 11  3  1  0
 20 16  1  0
  4 30  1  0
  9 31  1  0
 10 32  1  0
 14 33  1  0
 15 34  1  0
 17 35  1  0
 18 36  1  0
 19 37  1  0
 22 38  1  0
 22 39  1  0
 24 40  1  0
 25 41  1  0
 26 42  1  0
 29 43  1  0
M  CHG  2   6   1   8  -1
M  END
>  <smiles>  (12) 
O=c1c2cc([N+](=O)[O-])ccc2nc(/C=C/c2cccs2)n1Cc1cccc(Cl)c1

>  <score_type>  (12) 
oracle

>  <origin>  (12) 
autodockgpu

>  <m_score__min__energy>  (12) 
-8.4100000000000001

>  <m_primary>  (12) 
energy

>  <meeko>  (12) 
{"free_energy": -7.42, "intermolecular_energy": -9.21, "internal_energy": -2.21, "cluster_size": 18, "cluster_id": 2, "rank_in_cluster": 16}

>  <energy>  (12) 
-7.5

>  <cluster_rmsd>  (12) 
1.08

>  <rmsd>  (12) 
271.63

>  <cluster>  (12) 
2

$$$$

     RDKit          3D

 43 46  0  0  0  0  0  0  0  0999 V2000
  143.0720   77.1200  219.4800 O   0  0  0  0  0  0  0  0  0  0  0  0
  142.2650   76.3710  220.0690 C   0  0  0  0  0  0  0  0  0  0  0  0
  142.7080   75.0630  220.2910 C   0  0  0  0  0  0  0  0  0  0  0  0
  143.9560   74.6480  219.8800 C   0  0  0  0  0  0  0  0  0  0  0  0
  144.3610   73.3620  220.1120 C   0  0  0  0  0  0  0  0  0  0  0  0
  145.6520   72.9260  219.6890 N   0  0  0  0  0  0  0  0  0  0  0  0
  146.6910   73.2020  220.3010 O   0  0  0  0  0  0  0  0  0  0  0  0
  145.7410   72.1680  218.5490 O   0  0  0  0  0  0  0  0  0  0  0  0
  143.5590   72.4320  220.7570 C   0  0  0  0  0  0  0  0  0  0  0  0
  142.2950   72.8510  221.1740 C   0  0  0  0  0  0  0  0  0  0  0  0
  141.8980   74.1500  220.9330 C   0  0  0  0  0  0  0  0  0  0  0  0
  140.6890   74.5860  221.3220 N   0  0  0  0  0  0  0  0  0  0  0  0
  140.2730   75.8460  221.1020 C   0  0  0  0  0  0  0  0  0  0  0  0
  138.9440   76.1930  221.5970 C   0  0  0  0  0  0  0  0  0  0  0  0
  138.8370   76.8810  222.7280 C   0  0  0  0  0  0  0  0  0  0  0  0
  138.4810   78.2720  222.7100 C   0  0  0  0  0  0  0  0  0  0  0  0
  137.5990   78.9800  221.9550 C   0  0  0  0  0  0  0  0  0  0  0  0
  137.4380   80.2890  222.1200 C   0  0  0  0  0  0  0  0  0  0  0  0
  138.2580   80.8760  223.1430 C   0  0  0  0  0  0  0  0  0  0  0  0
  139.2260   79.5100  223.8200 S   0  0  0  0  0  0  0  0  0  0  0  0
  141.0320   76.7740  220.4760 N   0  0  0  0  0  0  0  0  0  0  0  0
  140.6110   78.1120  220.2020 C   0  0  0  0  0  0  0  0  0  0  0  0
  141.1760   79.1530  221.0780 C   0  0  0  0  0  0  0  0  0  0  0  0
  141.9820   78.9180  222.1650 C   0  0  0  0  0  0  0  0  0  0  0  0
  142.4950   79.9470  222.9580 C   0  0  0  0  0  0  0  0  0  0  0  0
  142.2130   81.2640  222.6850 C   0  0  0  0  0  0  0  0  0  0  0  0
  141.4050   81.5170  221.5970 C   0  0  0  0  0  0  0  0  0  0  0  0
  141.0400   83.1940  221.2420 Cl  0  0  0  0  0  0  0  0  0  0  0  0
  140.8970   80.5000  220.8110 C   0  0  0  0  0  0  0  0  0  0  0  0
  144.6271   75.3512  219.3650 H   0  0  0  0  0  0  0  0  0  0  0  0
  143.9063   71.4032  220.9331 H   0  0  0  0  0  0  0  0  0  0  0  0
  141.6210   72.1516  221.6904 H   0  0  0  0  0  0  0  0  0  0  0  0
  138.0446   75.8891  221.0414 H   0  0  0  0  0  0  0  0  0  0  0  0
  139.0232   76.3796  223.6892 H   0  0  0  0  0  0  0  0  0  0  0  0
  137.0053   78.4575  221.1904 H   0  0  0  0  0  0  0  0  0  0  0  0
  136.7303   80.8784  221.5185 H   0  0  0  0  0  0  0  0  0  0  0  0
  138.2896   81.9322  223.4488 H   0  0  0  0  0  0  0  0  0  0  0  0
  140.8963   78.3505  219.1667 H   0  0  0  0  0  0  0  0  0  0  0  0
  139.5258   78.1268  220.3812 H   0  0  0  0  0  0  0  0  0  0  0  0
  142.2335   77.8782  222.4212 H   0  0  0  0  0  0  0  0  0  0  0  0
  143.1363   79.6987  223.8165 H   0  0  0  0  0  0  0  0  0  0  0  0
  142.6135   82.0788  223.3060 H   0  0  0  0  0  0  0  0  0  0  0  0
  140.2569   80.7546  219.9534 H   0  0  0  0  0  0  0  0  0  0  0  0
  1  2  2  0
  2  3  1  0
  3  4  2  0
  4  5  1  0
  5  6  1  0
  6  7  2  0
  6  8  1  0
  5  9  2  0
  9 10  1  0
 10 11  2  0
 11 12  1  0
 12 13  2  0
 13 14  1  0
 14 15  2  0
 15 16  1  0
 16 17  2  0
 17 18  1  0
 18 19  2  0
 19 20  1  0
 13 21  1  0
 21 22  1  0
 22 23  1  0
 23 24  2  0
 24 25  1  0
 25 26  2  0
 26 27  1  0
 27 28  1  0
 27 29  2  0
 21  2  1  0
 29 23  1  0
 11  3  1  0
 20 16  1  0
  4 30  1  0
  9 31  1  0
 10 32  1  0
 14 33  1  0
 15 34  1  0
 17 35  1  0
 18 36  1  0
 19 37  1  0
 22 38  1  0
 22 39  1  0
 24 40  1  0
 25 41  1  0
 26 42  1  0
 29 43  1  0
M  CHG  2   6   1   8  -1
M  END
>  <smiles>  (13) 
O=c1c2cc([N+](=O)[O-])ccc2nc(/C=C/c2cccs2)n1Cc1cccc(Cl)c1

>  <score_type>  (13) 
oracle

>  <origin>  (13) 
autodockgpu

>  <m_score__min__energy>  (13) 
-8.4100000000000001

>  <m_primary>  (13) 
energy

>  <meeko>  (13) 
{"free_energy": -7.54, "intermolecular_energy": -9.33, "internal_energy": -2.1, "cluster_size": 18, "cluster_id": 2, "rank_in_cluster": 4}

>  <energy>  (13) 
-7.5

>  <cluster_rmsd>  (13) 
1.08

>  <rmsd>  (13) 
271.62

>  <cluster>  (13) 
2

$$$$

     RDKit          3D

 43 46  0  0  0  0  0  0  0  0999 V2000
  143.3340   77.5110  218.8120 O   0  0  0  0  0  0  0  0  0  0  0  0
  142.4800   76.9170  219.5030 C   0  0  0  0  0  0  0  0  0  0  0  0
  142.8430   75.6410  219.9430 C   0  0  0  0  0  0  0  0  0  0  0  0
  144.0660   75.0920  219.6240 C   0  0  0  0  0  0  0  0  0  0  0  0
  144.3920   73.8390  220.0700 C   0  0  0  0  0  0  0  0  0  0  0  0
  145.6560   73.2660  219.7430 N   0  0  0  0  0  0  0  0  0  0  0  0
  145.8660   72.6510  218.6900 O   0  0  0  0  0  0  0  0  0  0  0  0
  146.6840   73.4030  220.6410 O   0  0  0  0  0  0  0  0  0  0  0  0
  143.5320   73.0770  220.8460 C   0  0  0  0  0  0  0  0  0  0  0  0
  142.2930   73.6310  221.1700 C   0  0  0  0  0  0  0  0  0  0  0  0
  141.9760   74.8940  220.7140 C   0  0  0  0  0  0  0  0  0  0  0  0
  140.7930   75.4580  221.0080 N   0  0  0  0  0  0  0  0  0  0  0  0
  140.4550   76.6870  220.5790 C   0  0  0  0  0  0  0  0  0  0  0  0
  139.1470   77.1870  220.9910 C   0  0  0  0  0  0  0  0  0  0  0  0
  138.9210   77.4150  222.2790 C   0  0  0  0  0  0  0  0  0  0  0  0
  138.7470   78.7550  222.7680 C   0  0  0  0  0  0  0  0  0  0  0  0
  139.2480   79.4050  223.8520 C   0  0  0  0  0  0  0  0  0  0  0  0
  138.9380   80.6710  224.1070 C   0  0  0  0  0  0  0  0  0  0  0  0
  138.0470   81.2790  223.1590 C   0  0  0  0  0  0  0  0  0  0  0  0
  137.6960   79.9930  221.9410 S   0  0  0  0  0  0  0  0  0  0  0  0
  141.2710   77.4540  219.8210 N   0  0  0  0  0  0  0  0  0  0  0  0
  140.9330   78.7500  219.3260 C   0  0  0  0  0  0  0  0  0  0  0  0
  141.1340   79.8670  220.2640 C   0  0  0  0  0  0  0  0  0  0  0  0
  140.6750   81.1490  220.0760 C   0  0  0  0  0  0  0  0  0  0  0  0
  140.8910   82.1690  221.0050 C   0  0  0  0  0  0  0  0  0  0  0  0
  141.5840   81.9380  222.1690 C   0  0  0  0  0  0  0  0  0  0  0  0
  142.0510   80.6560  222.3730 C   0  0  0  0  0  0  0  0  0  0  0  0
  142.9360   80.3530  223.8550 Cl  0  0  0  0  0  0  0  0  0  0  0  0
  141.8380   79.6450  221.4550 C   0  0  0  0  0  0  0  0  0  0  0  0
  144.7807   75.6605  219.0108 H   0  0  0  0  0  0  0  0  0  0  0  0
  143.8160   72.0727  221.1934 H   0  0  0  0  0  0  0  0  0  0  0  0
  141.5756   73.0660  221.7833 H   0  0  0  0  0  0  0  0  0  0  0  0
  138.3601   77.3721  220.2450 H   0  0  0  0  0  0  0  0  0  0  0  0
  138.8663   76.5689  222.9798 H   0  0  0  0  0  0  0  0  0  0  0  0
  139.9257   78.8700  224.5335 H   0  0  0  0  0  0  0  0  0  0  0  0
  139.3339   81.2129  224.9785 H   0  0  0  0  0  0  0  0  0  0  0  0
  137.6606   82.3088  223.1721 H   0  0  0  0  0  0  0  0  0  0  0  0
  141.5492   78.9423  218.4353 H   0  0  0  0  0  0  0  0  0  0  0  0
  139.8520   78.7201  219.1245 H   0  0  0  0  0  0  0  0  0  0  0  0
  140.1155   81.3805  219.1576 H   0  0  0  0  0  0  0  0  0  0  0  0
  140.4990   83.1764  220.8012 H   0  0  0  0  0  0  0  0  0  0  0  0
  141.7582   82.7379  222.9037 H   0  0  0  0  0  0  0  0  0  0  0  0
  142.2315   78.6395  221.6649 H   0  0  0  0  0  0  0  0  0  0  0  0
  1  2  2  0
  2  3  1  0
  3  4  2  0
  4  5  1  0
  5  6  1  0
  6  7  2  0
  6  8  1  0
  5  9  2  0
  9 10  1  0
 10 11  2  0
 11 12  1  0
 12 13  2  0
 13 14  1  0
 14 15  2  0
 15 16  1  0
 16 17  2  0
 17 18  1  0
 18 19  2  0
 19 20  1  0
 13 21  1  0
 21 22  1  0
 22 23  1  0
 23 24  2  0
 24 25  1  0
 25 26  2  0
 26 27  1  0
 27 28  1  0
 27 29  2  0
 21  2  1  0
 29 23  1  0
 11  3  1  0
 20 16  1  0
  4 30  1  0
  9 31  1  0
 10 32  1  0
 14 33  1  0
 15 34  1  0
 17 35  1  0
 18 36  1  0
 19 37  1  0
 22 38  1  0
 22 39  1  0
 24 40  1  0
 25 41  1  0
 26 42  1  0
 29 43  1  0
M  CHG  2   6   1   8  -1
M  END
>  <smiles>  (14) 
O=c1c2cc([N+](=O)[O-])ccc2nc(/C=C/c2cccs2)n1Cc1cccc(Cl)c1

>  <score_type>  (14) 
oracle

>  <origin>  (14) 
autodockgpu

>  <m_score__min__energy>  (14) 
-8.4100000000000001

>  <m_primary>  (14) 
energy

>  <meeko>  (14) 
{"free_energy": -7.5, "intermolecular_energy": -9.29, "internal_energy": -2.35, "cluster_size": 18, "cluster_id": 2, "rank_in_cluster": 9}

>  <energy>  (14) 
-7.49

>  <cluster_rmsd>  (14) 
1.09

>  <rmsd>  (14) 
271.62

>  <cluster>  (14) 
2

$$$$

     RDKit          3D

 43 46  0  0  0  0  0  0  0  0999 V2000
  143.3080   77.1400  219.1480 O   0  0  0  0  0  0  0  0  0  0  0  0
  142.4820   76.4880  219.8190 C   0  0  0  0  0  0  0  0  0  0  0  0
  142.8520   75.1740  220.1190 C   0  0  0  0  0  0  0  0  0  0  0  0
  144.0540   74.6510  219.6920 C   0  0  0  0  0  0  0  0  0  0  0  0
  144.3880   73.3600  220.0010 C   0  0  0  0  0  0  0  0  0  0  0  0
  145.6300   72.8140  219.5620 N   0  0  0  0  0  0  0  0  0  0  0  0
  146.7020   73.0250  220.1420 O   0  0  0  0  0  0  0  0  0  0  0  0
  145.6320   72.0180  218.4440 O   0  0  0  0  0  0  0  0  0  0  0  0
  143.5580   72.5320  220.7410 C   0  0  0  0  0  0  0  0  0  0  0  0
  142.3410   73.0600  221.1740 C   0  0  0  0  0  0  0  0  0  0  0  0
  142.0150   74.3620  220.8560 C   0  0  0  0  0  0  0  0  0  0  0  0
  140.8530   74.9010  221.2570 N   0  0  0  0  0  0  0  0  0  0  0  0
  140.5070   76.1670  220.9620 C   0  0  0  0  0  0  0  0  0  0  0  0
  139.2240   76.6320  221.4810 C   0  0  0  0  0  0  0  0  0  0  0  0
  139.1690   77.1330  222.7100 C   0  0  0  0  0  0  0  0  0  0  0  0
  138.8550   78.5180  222.9260 C   0  0  0  0  0  0  0  0  0  0  0  0
  139.2670   79.4140  223.8620 C   0  0  0  0  0  0  0  0  0  0  0  0
  138.8290   80.6680  223.8620 C   0  0  0  0  0  0  0  0  0  0  0  0
  137.9060   80.9880  222.8110 C   0  0  0  0  0  0  0  0  0  0  0  0
  137.7090   79.4600  221.8680 S   0  0  0  0  0  0  0  0  0  0  0  0
  141.2940   76.9980  220.2430 N   0  0  0  0  0  0  0  0  0  0  0  0
  140.9460   78.3380  219.8890 C   0  0  0  0  0  0  0  0  0  0  0  0
  141.3330   79.3780  220.8570 C   0  0  0  0  0  0  0  0  0  0  0  0
  142.0930   79.1650  221.9820 C   0  0  0  0  0  0  0  0  0  0  0  0
  142.4340   80.1920  222.8650 C   0  0  0  0  0  0  0  0  0  0  0  0
  142.0200   81.4840  222.6470 C   0  0  0  0  0  0  0  0  0  0  0  0
  141.2560   81.7150  221.5230 C   0  0  0  0  0  0  0  0  0  0  0  0
  140.7230   83.3600  221.2390 Cl  0  0  0  0  0  0  0  0  0  0  0  0
  140.9170   80.6990  220.6480 C   0  0  0  0  0  0  0  0  0  0  0  0
  144.7451   75.2715  219.1026 H   0  0  0  0  0  0  0  0  0  0  0  0
  143.8479   71.4977  220.9779 H   0  0  0  0  0  0  0  0  0  0  0  0
  141.6474   72.4430  221.7640 H   0  0  0  0  0  0  0  0  0  0  0  0
  138.3161   76.5684  220.8632 H   0  0  0  0  0  0  0  0  0  0  0  0
  139.3663   76.4795  223.5726 H   0  0  0  0  0  0  0  0  0  0  0  0
  139.9790   79.0932  224.6367 H   0  0  0  0  0  0  0  0  0  0  0  0
  139.1499   81.4061  224.6118 H   0  0  0  0  0  0  0  0  0  0  0  0
  137.4217   81.9571  222.6203 H   0  0  0  0  0  0  0  0  0  0  0  0
  141.4329   78.5711  218.9306 H   0  0  0  0  0  0  0  0  0  0  0  0
  139.8469   78.3606  219.8499 H   0  0  0  0  0  0  0  0  0  0  0  0
  142.4467   78.1455  222.1954 H   0  0  0  0  0  0  0  0  0  0  0  0
  143.0448   79.9625  223.7506 H   0  0  0  0  0  0  0  0  0  0  0  0
  142.2862   82.2973  223.3382 H   0  0  0  0  0  0  0  0  0  0  0  0
  140.3048   80.9345  219.7650 H   0  0  0  0  0  0  0  0  0  0  0  0
  1  2  2  0
  2  3  1  0
  3  4  2  0
  4  5  1  0
  5  6  1  0
  6  7  2  0
  6  8  1  0
  5  9  2  0
  9 10  1  0
 10 11  2  0
 11 12  1  0
 12 13  2  0
 13 14  1  0
 14 15  2  0
 15 16  1  0
 16 17  2  0
 17 18  1  0
 18 19  2  0
 19 20  1  0
 13 21  1  0
 21 22  1  0
 22 23  1  0
 23 24  2  0
 24 25  1  0
 25 26  2  0
 26 27  1  0
 27 28  1  0
 27 29  2  0
 21  2  1  0
 29 23  1  0
 11  3  1  0
 20 16  1  0
  4 30  1  0
  9 31  1  0
 10 32  1  0
 14 33  1  0
 15 34  1  0
 17 35  1  0
 18 36  1  0
 19 37  1  0
 22 38  1  0
 22 39  1  0
 24 40  1  0
 25 41  1  0
 26 42  1  0
 29 43  1  0
M  CHG  2   6   1   8  -1
M  END
>  <smiles>  (15) 
O=c1c2cc([N+](=O)[O-])ccc2nc(/C=C/c2cccs2)n1Cc1cccc(Cl)c1

>  <score_type>  (15) 
oracle

>  <origin>  (15) 
autodockgpu

>  <m_score__min__energy>  (15) 
-8.4100000000000001

>  <m_primary>  (15) 
energy

>  <meeko>  (15) 
{"free_energy": -7.61, "intermolecular_energy": -9.4, "internal_energy": -2.23, "cluster_size": 18, "cluster_id": 2, "rank_in_cluster": 2}

>  <energy>  (15) 
-7.47

>  <cluster_rmsd>  (15) 
1.08

>  <rmsd>  (15) 
271.62

>  <cluster>  (15) 
2

$$$$

     RDKit          3D

 43 46  0  0  0  0  0  0  0  0999 V2000
  143.0920   77.5790  218.9100 O   0  0  0  0  0  0  0  0  0  0  0  0
  142.2830   76.9180  219.5940 C   0  0  0  0  0  0  0  0  0  0  0  0
  142.7280   75.6570  220.0020 C   0  0  0  0  0  0  0  0  0  0  0  0
  143.9810   75.1940  219.6630 C   0  0  0  0  0  0  0  0  0  0  0  0
  144.3880   73.9540  220.0790 C   0  0  0  0  0  0  0  0  0  0  0  0
  145.6830   73.4690  219.7310 N   0  0  0  0  0  0  0  0  0  0  0  0
  145.9090   72.8310  218.6960 O   0  0  0  0  0  0  0  0  0  0  0  0
  146.7250   73.7220  220.5880 O   0  0  0  0  0  0  0  0  0  0  0  0
  143.5840   73.1230  220.8430 C   0  0  0  0  0  0  0  0  0  0  0  0
  142.3160   73.5910  221.1870 C   0  0  0  0  0  0  0  0  0  0  0  0
  141.9160   74.8410  220.7620 C   0  0  0  0  0  0  0  0  0  0  0  0
  140.7030   75.3230  221.0760 N   0  0  0  0  0  0  0  0  0  0  0  0
  140.2850   76.5370  220.6770 C   0  0  0  0  0  0  0  0  0  0  0  0
  138.9510   76.9450  221.1080 C   0  0  0  0  0  0  0  0  0  0  0  0
  138.7630   77.2950  222.3750 C   0  0  0  0  0  0  0  0  0  0  0  0
  138.6920   78.6800  222.7510 C   0  0  0  0  0  0  0  0  0  0  0  0
  139.2260   79.3730  223.7910 C   0  0  0  0  0  0  0  0  0  0  0  0
  139.0180   80.6770  223.9360 C   0  0  0  0  0  0  0  0  0  0  0  0
  138.1970   81.2760  222.9220 C   0  0  0  0  0  0  0  0  0  0  0  0
  137.7620   79.9280  221.8030 S   0  0  0  0  0  0  0  0  0  0  0  0
  141.0450   77.3700  219.9310 N   0  0  0  0  0  0  0  0  0  0  0  0
  140.6230   78.6530  219.4660 C   0  0  0  0  0  0  0  0  0  0  0  0
  141.0170   79.7990  220.3030 C   0  0  0  0  0  0  0  0  0  0  0  0
  140.7840   81.1180  219.9970 C   0  0  0  0  0  0  0  0  0  0  0  0
  141.1770   82.1660  220.8320 C   0  0  0  0  0  0  0  0  0  0  0  0
  141.8270   81.9250  222.0180 C   0  0  0  0  0  0  0  0  0  0  0  0
  142.0700   80.6060  222.3410 C   0  0  0  0  0  0  0  0  0  0  0  0
  142.8990   80.2910  223.8520 Cl  0  0  0  0  0  0  0  0  0  0  0  0
  141.6810   79.5680  221.5160 C   0  0  0  0  0  0  0  0  0  0  0  0
  144.6540   75.8200  219.0586 H   0  0  0  0  0  0  0  0  0  0  0  0
  143.9330   72.1311  221.1661 H   0  0  0  0  0  0  0  0  0  0  0  0
  141.6405   72.9686  221.7922 H   0  0  0  0  0  0  0  0  0  0  0  0
  138.1144   76.9622  220.3940 H   0  0  0  0  0  0  0  0  0  0  0  0
  138.6605   76.5162  223.1451 H   0  0  0  0  0  0  0  0  0  0  0  0
  139.8446   78.8420  224.5295 H   0  0  0  0  0  0  0  0  0  0  0  0
  139.4429   81.2544  224.7703 H   0  0  0  0  0  0  0  0  0  0  0  0
  137.8970   82.3314  222.8436 H   0  0  0  0  0  0  0  0  0  0  0  0
  141.0485   78.8053  218.4631 H   0  0  0  0  0  0  0  0  0  0  0  0
  139.5234   78.6317  219.4867 H   0  0  0  0  0  0  0  0  0  0  0  0
  140.2670   81.3582  219.0562 H   0  0  0  0  0  0  0  0  0  0  0  0
  140.9623   83.2031  220.5348 H   0  0  0  0  0  0  0  0  0  0  0  0
  142.1394   82.7462  222.6799 H   0  0  0  0  0  0  0  0  0  0  0  0
  141.8980   78.5331  221.8190 H   0  0  0  0  0  0  0  0  0  0  0  0
  1  2  2  0
  2  3  1  0
  3  4  2  0
  4  5  1  0
  5  6  1  0
  6  7  2  0
  6  8  1  0
  5  9  2  0
  9 10  1  0
 10 11  2  0
 11 12  1  0
 12 13  2  0
 13 14  1  0
 14 15  2  0
 15 16  1  0
 16 17  2  0
 17 18  1  0
 18 19  2  0
 19 20  1  0
 13 21  1  0
 21 22  1  0
 22 23  1  0
 23 24  2  0
 24 25  1  0
 25 26  2  0
 26 27  1  0
 27 28  1  0
 27 29  2  0
 21  2  1  0
 29 23  1  0
 11  3  1  0
 20 16  1  0
  4 30  1  0
  9 31  1  0
 10 32  1  0
 14 33  1  0
 15 34  1  0
 17 35  1  0
 18 36  1  0
 19 37  1  0
 22 38  1  0
 22 39  1  0
 24 40  1  0
 25 41  1  0
 26 42  1  0
 29 43  1  0
M  CHG  2   6   1   8  -1
M  END
>  <smiles>  (16) 
O=c1c2cc([N+](=O)[O-])ccc2nc(/C=C/c2cccs2)n1Cc1cccc(Cl)c1

>  <score_type>  (16) 
oracle

>  <origin>  (16) 
autodockgpu

>  <m_score__min__energy>  (16) 
-8.4100000000000001

>  <m_primary>  (16) 
energy

>  <meeko>  (16) 
{"free_energy": -7.41, "intermolecular_energy": -9.2, "internal_energy": -2.35, "cluster_size": 18, "cluster_id": 2, "rank_in_cluster": 17}

>  <energy>  (16) 
-7.47

>  <cluster_rmsd>  (16) 
1.08

>  <rmsd>  (16) 
271.62

>  <cluster>  (16) 
2

$$$$

     RDKit          3D

 43 46  0  0  0  0  0  0  0  0999 V2000
  143.4240   77.0150  219.0610 O   0  0  0  0  0  0  0  0  0  0  0  0
  142.5900   76.3830  219.7420 C   0  0  0  0  0  0  0  0  0  0  0  0
  142.9210   75.0530  220.0180 C   0  0  0  0  0  0  0  0  0  0  0  0
  144.0950   74.4950  219.5600 C   0  0  0  0  0  0  0  0  0  0  0  0
  144.3900   73.1890  219.8470 C   0  0  0  0  0  0  0  0  0  0  0  0
  145.6030   72.6060  219.3750 N   0  0  0  0  0  0  0  0  0  0  0  0
  146.3590   71.9440  220.0970 O   0  0  0  0  0  0  0  0  0  0  0  0
  145.9450   72.7910  218.0590 O   0  0  0  0  0  0  0  0  0  0  0  0
  143.5480   72.3810  220.5950 C   0  0  0  0  0  0  0  0  0  0  0  0
  142.3590   72.9450  221.0600 C   0  0  0  0  0  0  0  0  0  0  0  0
  142.0720   74.2620  220.7640 C   0  0  0  0  0  0  0  0  0  0  0  0
  140.9380   74.8350  221.1960 N   0  0  0  0  0  0  0  0  0  0  0  0
  140.6300   76.1160  220.9240 C   0  0  0  0  0  0  0  0  0  0  0  0
  139.3750   76.6190  221.4750 C   0  0  0  0  0  0  0  0  0  0  0  0
  139.3730   77.1480  222.6930 C   0  0  0  0  0  0  0  0  0  0  0  0
  138.9960   78.5190  222.8970 C   0  0  0  0  0  0  0  0  0  0  0  0
  139.3320   79.4270  223.8520 C   0  0  0  0  0  0  0  0  0  0  0  0
  138.8460   80.6640  223.8350 C   0  0  0  0  0  0  0  0  0  0  0  0
  137.9560   80.9510  222.7460 C   0  0  0  0  0  0  0  0  0  0  0  0
  137.8590   79.4190  221.7940 S   0  0  0  0  0  0  0  0  0  0  0  0
  141.4300   76.9280  220.1970 N   0  0  0  0  0  0  0  0  0  0  0  0
  141.1210   78.2830  219.8660 C   0  0  0  0  0  0  0  0  0  0  0  0
  141.4960   79.2900  220.8740 C   0  0  0  0  0  0  0  0  0  0  0  0
  142.2160   79.0350  222.0160 C   0  0  0  0  0  0  0  0  0  0  0  0
  142.5480   80.0320  222.9360 C   0  0  0  0  0  0  0  0  0  0  0  0
  142.1640   81.3370  222.7400 C   0  0  0  0  0  0  0  0  0  0  0  0
  141.4400   81.6110  221.5980 C   0  0  0  0  0  0  0  0  0  0  0  0
  140.9460   83.2720  221.3420 Cl  0  0  0  0  0  0  0  0  0  0  0  0
  141.1110   80.6250  220.6870 C   0  0  0  0  0  0  0  0  0  0  0  0
  144.7951   75.0988  218.9639 H   0  0  0  0  0  0  0  0  0  0  0  0
  143.8072   71.3346  220.8139 H   0  0  0  0  0  0  0  0  0  0  0  0
  141.6567   72.3449  221.6572 H   0  0  0  0  0  0  0  0  0  0  0  0
  138.4452   76.5607  220.8901 H   0  0  0  0  0  0  0  0  0  0  0  0
  139.6632   76.5296  223.5551 H   0  0  0  0  0  0  0  0  0  0  0  0
  140.0214   79.1311  224.6565 H   0  0  0  0  0  0  0  0  0  0  0  0
  139.1064   81.4119  224.5984 H   0  0  0  0  0  0  0  0  0  0  0  0
  137.4427   81.9010  222.5361 H   0  0  0  0  0  0  0  0  0  0  0  0
  141.6449   78.5300  218.9308 H   0  0  0  0  0  0  0  0  0  0  0  0
  140.0246   78.3298  219.7900 H   0  0  0  0  0  0  0  0  0  0  0  0
  142.5443   78.0039  222.2137 H   0  0  0  0  0  0  0  0  0  0  0  0
  143.1270   79.7681  223.8333 H   0  0  0  0  0  0  0  0  0  0  0  0
  142.4221   82.1269  223.4607 H   0  0  0  0  0  0  0  0  0  0  0  0
  140.5318   80.8949  219.7916 H   0  0  0  0  0  0  0  0  0  0  0  0
  1  2  2  0
  2  3  1  0
  3  4  2  0
  4  5  1  0
  5  6  1  0
  6  7  2  0
  6  8  1  0
  5  9  2  0
  9 10  1  0
 10 11  2  0
 11 12  1  0
 12 13  2  0
 13 14  1  0
 14 15  2  0
 15 16  1  0
 16 17  2  0
 17 18  1  0
 18 19  2  0
 19 20  1  0
 13 21  1  0
 21 22  1  0
 22 23  1  0
 23 24  2  0
 24 25  1  0
 25 26  2  0
 26 27  1  0
 27 28  1  0
 27 29  2  0
 21  2  1  0
 29 23  1  0
 11  3  1  0
 20 16  1  0
  4 30  1  0
  9 31  1  0
 10 32  1  0
 14 33  1  0
 15 34  1  0
 17 35  1  0
 18 36  1  0
 19 37  1  0
 22 38  1  0
 22 39  1  0
 24 40  1  0
 25 41  1  0
 26 42  1  0
 29 43  1  0
M  CHG  2   6   1   8  -1
M  END
>  <smiles>  (17) 
O=c1c2cc([N+](=O)[O-])ccc2nc(/C=C/c2cccs2)n1Cc1cccc(Cl)c1

>  <score_type>  (17) 
oracle

>  <origin>  (17) 
autodockgpu

>  <m_score__min__energy>  (17) 
-8.4100000000000001

>  <m_primary>  (17) 
energy

>  <meeko>  (17) 
{"free_energy": -7.67, "intermolecular_energy": -9.46, "internal_energy": -2.19, "cluster_size": 18, "cluster_id": 2, "rank_in_cluster": 1}

>  <energy>  (17) 
-7.46

>  <cluster_rmsd>  (17) 
1.08

>  <rmsd>  (17) 
271.62

>  <cluster>  (17) 
2

$$$$

     RDKit          3D

 43 46  0  0  0  0  0  0  0  0999 V2000
  143.3100   77.5590  218.7860 O   0  0  0  0  0  0  0  0  0  0  0  0
  142.4700   76.9650  219.4940 C   0  0  0  0  0  0  0  0  0  0  0  0
  142.8490   75.6950  219.9380 C   0  0  0  0  0  0  0  0  0  0  0  0
  144.0710   75.1520  219.6050 C   0  0  0  0  0  0  0  0  0  0  0  0
  144.4120   73.9050  220.0560 C   0  0  0  0  0  0  0  0  0  0  0  0
  145.6750   73.3380  219.7150 N   0  0  0  0  0  0  0  0  0  0  0  0
  146.6830   73.4630  220.4210 O   0  0  0  0  0  0  0  0  0  0  0  0
  145.7730   72.6210  218.5490 O   0  0  0  0  0  0  0  0  0  0  0  0
  143.5690   73.1430  220.8510 C   0  0  0  0  0  0  0  0  0  0  0  0
  142.3320   73.6910  221.1890 C   0  0  0  0  0  0  0  0  0  0  0  0
  141.9990   74.9490  220.7280 C   0  0  0  0  0  0  0  0  0  0  0  0
  140.8170   75.5060  221.0350 N   0  0  0  0  0  0  0  0  0  0  0  0
  140.4640   76.7290  220.6010 C   0  0  0  0  0  0  0  0  0  0  0  0
  139.1580   77.2230  221.0290 C   0  0  0  0  0  0  0  0  0  0  0  0
  138.9470   77.4540  222.3200 C   0  0  0  0  0  0  0  0  0  0  0  0
  138.7330   78.7910  222.8010 C   0  0  0  0  0  0  0  0  0  0  0  0
  139.2570   79.4800  223.8490 C   0  0  0  0  0  0  0  0  0  0  0  0
  138.8990   80.7340  224.1050 C   0  0  0  0  0  0  0  0  0  0  0  0
  137.9320   81.2840  223.1980 C   0  0  0  0  0  0  0  0  0  0  0  0
  137.5820   79.9650  222.0150 S   0  0  0  0  0  0  0  0  0  0  0  0
  141.2630   77.4960  219.8250 N   0  0  0  0  0  0  0  0  0  0  0  0
  140.9080   78.7860  219.3250 C   0  0  0  0  0  0  0  0  0  0  0  0
  141.0910   79.9090  220.2600 C   0  0  0  0  0  0  0  0  0  0  0  0
  140.5860   81.1740  220.0830 C   0  0  0  0  0  0  0  0  0  0  0  0
  140.7880   82.2010  221.0080 C   0  0  0  0  0  0  0  0  0  0  0  0
  141.5130   81.9920  222.1560 C   0  0  0  0  0  0  0  0  0  0  0  0
  142.0270   80.7270  222.3490 C   0  0  0  0  0  0  0  0  0  0  0  0
  142.9540   80.4530  223.8110 Cl  0  0  0  0  0  0  0  0  0  0  0  0
  141.8280   79.7100  221.4350 C   0  0  0  0  0  0  0  0  0  0  0  0
  144.7726   75.7205  218.9768 H   0  0  0  0  0  0  0  0  0  0  0  0
  143.8651   72.1434  221.2019 H   0  0  0  0  0  0  0  0  0  0  0  0
  141.6278   73.1259  221.8174 H   0  0  0  0  0  0  0  0  0  0  0  0
  138.3604   77.4013  220.2928 H   0  0  0  0  0  0  0  0  0  0  0  0
  138.9360   76.6127  223.0285 H   0  0  0  0  0  0  0  0  0  0  0  0
  139.9945   78.9882  224.5003 H   0  0  0  0  0  0  0  0  0  0  0  0
  139.3124   81.3070  224.9481 H   0  0  0  0  0  0  0  0  0  0  0  0
  137.4967   82.2940  223.2190 H   0  0  0  0  0  0  0  0  0  0  0  0
  141.5236   78.9841  218.4352 H   0  0  0  0  0  0  0  0  0  0  0  0
  139.8280   78.7403  219.1211 H   0  0  0  0  0  0  0  0  0  0  0  0
  139.9994   81.3867  219.1771 H   0  0  0  0  0  0  0  0  0  0  0  0
  140.3588   83.1950  220.8137 H   0  0  0  0  0  0  0  0  0  0  0  0
  141.6761   82.7969  222.8878 H   0  0  0  0  0  0  0  0  0  0  0  0
  142.2595   78.7181  221.6350 H   0  0  0  0  0  0  0  0  0  0  0  0
  1  2  2  0
  2  3  1  0
  3  4  2  0
  4  5  1  0
  5  6  1  0
  6  7  2  0
  6  8  1  0
  5  9  2  0
  9 10  1  0
 10 11  2  0
 11 12  1  0
 12 13  2  0
 13 14  1  0
 14 15  2  0
 15 16  1  0
 16 17  2  0
 17 18  1  0
 18 19  2  0
 19 20  1  0
 13 21  1  0
 21 22  1  0
 22 23  1  0
 23 24  2  0
 24 25  1  0
 25 26  2  0
 26 27  1  0
 27 28  1  0
 27 29  2  0
 21  2  1  0
 29 23  1  0
 11  3  1  0
 20 16  1  0
  4 30  1  0
  9 31  1  0
 10 32  1  0
 14 33  1  0
 15 34  1  0
 17 35  1  0
 18 36  1  0
 19 37  1  0
 22 38  1  0
 22 39  1  0
 24 40  1  0
 25 41  1  0
 26 42  1  0
 29 43  1  0
M  CHG  2   6   1   8  -1
M  END
>  <smiles>  (18) 
O=c1c2cc([N+](=O)[O-])ccc2nc(/C=C/c2cccs2)n1Cc1cccc(Cl)c1

>  <score_type>  (18) 
oracle

>  <origin>  (18) 
autodockgpu

>  <m_score__min__energy>  (18) 
-8.4100000000000001

>  <m_primary>  (18) 
energy

>  <meeko>  (18) 
{"free_energy": -7.5, "intermolecular_energy": -9.29, "internal_energy": -2.34, "cluster_size": 18, "cluster_id": 2, "rank_in_cluster": 8}

>  <energy>  (18) 
-7.42

>  <cluster_rmsd>  (18) 
1.23

>  <rmsd>  (18) 
271.54

>  <cluster>  (18) 
2

$$$$

     RDKit          3D

 43 46  0  0  0  0  0  0  0  0999 V2000
  143.2470   77.5390  218.8200 O   0  0  0  0  0  0  0  0  0  0  0  0
  142.4190   76.9200  219.5210 C   0  0  0  0  0  0  0  0  0  0  0  0
  142.8240   75.6540  219.9550 C   0  0  0  0  0  0  0  0  0  0  0  0
  144.0580   75.1410  219.6200 C   0  0  0  0  0  0  0  0  0  0  0  0
  144.4250   73.8980  220.0600 C   0  0  0  0  0  0  0  0  0  0  0  0
  145.7010   73.3610  219.7170 N   0  0  0  0  0  0  0  0  0  0  0  0
  146.7090   73.5190  220.4160 O   0  0  0  0  0  0  0  0  0  0  0  0
  145.8120   72.6370  218.5560 O   0  0  0  0  0  0  0  0  0  0  0  0
  143.5970   73.1100  220.8460 C   0  0  0  0  0  0  0  0  0  0  0  0
  142.3480   73.6290  221.1860 C   0  0  0  0  0  0  0  0  0  0  0  0
  141.9880   74.8830  220.7360 C   0  0  0  0  0  0  0  0  0  0  0  0
  140.7940   75.4120  221.0450 N   0  0  0  0  0  0  0  0  0  0  0  0
  140.4150   76.6310  220.6220 C   0  0  0  0  0  0  0  0  0  0  0  0
  139.0990   77.0930  221.0510 C   0  0  0  0  0  0  0  0  0  0  0  0
  138.9010   77.3760  222.3330 C   0  0  0  0  0  0  0  0  0  0  0  0
  138.7760   78.7380  222.7730 C   0  0  0  0  0  0  0  0  0  0  0  0
  139.2710   79.3990  223.8530 C   0  0  0  0  0  0  0  0  0  0  0  0
  139.0140   80.6870  224.0560 C   0  0  0  0  0  0  0  0  0  0  0  0
  138.1860   81.3050  223.0590 C   0  0  0  0  0  0  0  0  0  0  0  0
  137.8150   79.9960  221.8710 S   0  0  0  0  0  0  0  0  0  0  0  0
  141.1990   77.4220  219.8550 N   0  0  0  0  0  0  0  0  0  0  0  0
  140.8180   78.7080  219.3650 C   0  0  0  0  0  0  0  0  0  0  0  0
  141.1160   79.8460  220.2520 C   0  0  0  0  0  0  0  0  0  0  0  0
  140.7890   81.1550  219.9940 C   0  0  0  0  0  0  0  0  0  0  0  0
  141.0930   82.1940  220.8760 C   0  0  0  0  0  0  0  0  0  0  0  0
  141.7440   81.9540  222.0620 C   0  0  0  0  0  0  0  0  0  0  0  0
  142.0800   80.6450  222.3360 C   0  0  0  0  0  0  0  0  0  0  0  0
  142.9110   80.3300  223.8460 Cl  0  0  0  0  0  0  0  0  0  0  0  0
  141.7800   79.6150  221.4650 C   0  0  0  0  0  0  0  0  0  0  0  0
  144.7484   75.7305  218.9988 H   0  0  0  0  0  0  0  0  0  0  0  0
  143.9135   72.1136  221.1881 H   0  0  0  0  0  0  0  0  0  0  0  0
  141.6551   73.0434  221.8081 H   0  0  0  0  0  0  0  0  0  0  0  0
  138.2825   77.2052  220.3225 H   0  0  0  0  0  0  0  0  0  0  0  0
  138.8319   76.5589  223.0662 H   0  0  0  0  0  0  0  0  0  0  0  0
  139.8983   78.8556  224.5750 H   0  0  0  0  0  0  0  0  0  0  0  0
  139.4064   81.2385  224.9231 H   0  0  0  0  0  0  0  0  0  0  0  0
  137.8496   82.3518  223.0258 H   0  0  0  0  0  0  0  0  0  0  0  0
  141.3429   78.8756  218.4130 H   0  0  0  0  0  0  0  0  0  0  0  0
  139.7222   78.6800  219.2727 H   0  0  0  0  0  0  0  0  0  0  0  0
  140.2671   81.3941  219.0557 H   0  0  0  0  0  0  0  0  0  0  0  0
  140.8060   83.2237  220.6165 H   0  0  0  0  0  0  0  0  0  0  0  0
  141.9860   82.7685  222.7606 H   0  0  0  0  0  0  0  0  0  0  0  0
  142.0696   78.5875  221.7302 H   0  0  0  0  0  0  0  0  0  0  0  0
  1  2  2  0
  2  3  1  0
  3  4  2  0
  4  5  1  0
  5  6  1  0
  6  7  2  0
  6  8  1  0
  5  9  2  0
  9 10  1  0
 10 11  2  0
 11 12  1  0
 12 13  2  0
 13 14  1  0
 14 15  2  0
 15 16  1  0
 16 17  2  0
 17 18  1  0
 18 19  2  0
 19 20  1  0
 13 21  1  0
 21 22  1  0
 22 23  1  0
 23 24  2  0
 24 25  1  0
 25 26  2  0
 26 27  1  0
 27 28  1  0
 27 29  2  0
 21  2  1  0
 29 23  1  0
 11  3  1  0
 20 16  1  0
  4 30  1  0
  9 31  1  0
 10 32  1  0
 14 33  1  0
 15 34  1  0
 17 35  1  0
 18 36  1  0
 19 37  1  0
 22 38  1  0
 22 39  1  0
 24 40  1  0
 25 41  1  0
 26 42  1  0
 29 43  1  0
M  CHG  2   6   1   8  -1
M  END
>  <smiles>  (19) 
O=c1c2cc([N+](=O)[O-])ccc2nc(/C=C/c2cccs2)n1Cc1cccc(Cl)c1

>  <score_type>  (19) 
oracle

>  <origin>  (19) 
autodockgpu

>  <m_score__min__energy>  (19) 
-8.4100000000000001

>  <m_primary>  (19) 
energy

>  <meeko>  (19) 
{"free_energy": -7.46, "intermolecular_energy": -9.25, "internal_energy": -2.36, "cluster_size": 18, "cluster_id": 2, "rank_in_cluster": 15}

>  <energy>  (19) 
-7.41

>  <cluster_rmsd>  (19) 
1.1

>  <rmsd>  (19) 
271.6

>  <cluster>  (19) 
2

$$$$

     RDKit          3D

 43 46  0  0  0  0  0  0  0  0999 V2000
  143.3170   77.5420  218.8010 O   0  0  0  0  0  0  0  0  0  0  0  0
  142.4730   76.9550  219.5100 C   0  0  0  0  0  0  0  0  0  0  0  0
  142.8360   75.6780  219.9470 C   0  0  0  0  0  0  0  0  0  0  0  0
  144.0500   75.1200  219.6060 C   0  0  0  0  0  0  0  0  0  0  0  0
  144.3760   73.8670  220.0490 C   0  0  0  0  0  0  0  0  0  0  0  0
  145.6310   73.2850  219.7000 N   0  0  0  0  0  0  0  0  0  0  0  0
  145.8080   72.6360  218.6620 O   0  0  0  0  0  0  0  0  0  0  0  0
  146.6880   73.4540  220.5590 O   0  0  0  0  0  0  0  0  0  0  0  0
  143.5270   73.1120  220.8440 C   0  0  0  0  0  0  0  0  0  0  0  0
  142.2980   73.6750  221.1900 C   0  0  0  0  0  0  0  0  0  0  0  0
  141.9800   74.9390  220.7360 C   0  0  0  0  0  0  0  0  0  0  0  0
  140.8060   75.5100  221.0510 N   0  0  0  0  0  0  0  0  0  0  0  0
  140.4680   76.7400  220.6250 C   0  0  0  0  0  0  0  0  0  0  0  0
  139.1700   77.2490  221.0600 C   0  0  0  0  0  0  0  0  0  0  0  0
  138.9620   77.4590  222.3540 C   0  0  0  0  0  0  0  0  0  0  0  0
  138.7130   78.7840  222.8520 C   0  0  0  0  0  0  0  0  0  0  0  0
  139.2430   79.4860  223.8890 C   0  0  0  0  0  0  0  0  0  0  0  0
  138.8460   80.7230  224.1650 C   0  0  0  0  0  0  0  0  0  0  0  0
  137.8300   81.2420  223.2930 C   0  0  0  0  0  0  0  0  0  0  0  0
  137.4940   79.9180  222.1120 S   0  0  0  0  0  0  0  0  0  0  0  0
  141.2740   77.5000  219.8490 N   0  0  0  0  0  0  0  0  0  0  0  0
  140.9340   78.7970  219.3560 C   0  0  0  0  0  0  0  0  0  0  0  0
  141.0750   79.9050  220.3160 C   0  0  0  0  0  0  0  0  0  0  0  0
  140.5090   81.1490  220.1750 C   0  0  0  0  0  0  0  0  0  0  0  0
  140.6730   82.1620  221.1230 C   0  0  0  0  0  0  0  0  0  0  0  0
  141.4210   81.9600  222.2580 C   0  0  0  0  0  0  0  0  0  0  0  0
  141.9960   80.7170  222.4140 C   0  0  0  0  0  0  0  0  0  0  0  0
  142.9520   80.4530  223.8590 Cl  0  0  0  0  0  0  0  0  0  0  0  0
  141.8350   79.7130  221.4780 C   0  0  0  0  0  0  0  0  0  0  0  0
  144.7565   75.6822  218.9777 H   0  0  0  0  0  0  0  0  0  0  0  0
  143.8116   72.1070  221.1889 H   0  0  0  0  0  0  0  0  0  0  0  0
  141.5891   73.1165  221.8189 H   0  0  0  0  0  0  0  0  0  0  0  0
  138.3768   77.4552  220.3263 H   0  0  0  0  0  0  0  0  0  0  0  0
  138.9804   76.6097  223.0528 H   0  0  0  0  0  0  0  0  0  0  0  0
  140.0184   79.0186  224.5137 H   0  0  0  0  0  0  0  0  0  0  0  0
  139.2640   81.3061  224.9988 H   0  0  0  0  0  0  0  0  0  0  0  0
  137.3573   82.2343  223.3354 H   0  0  0  0  0  0  0  0  0  0  0  0
  141.5839   79.0118  218.4949 H   0  0  0  0  0  0  0  0  0  0  0  0
  139.8633   78.7511  219.1080 H   0  0  0  0  0  0  0  0  0  0  0  0
  139.9029   81.3555  219.2806 H   0  0  0  0  0  0  0  0  0  0  0  0
  140.1948   83.1388  220.9580 H   0  0  0  0  0  0  0  0  0  0  0  0
  141.5547   82.7538  223.0076 H   0  0  0  0  0  0  0  0  0  0  0  0
  142.3155   78.7384  221.6493 H   0  0  0  0  0  0  0  0  0  0  0  0
  1  2  2  0
  2  3  1  0
  3  4  2  0
  4  5  1  0
  5  6  1  0
  6  7  2  0
  6  8  1  0
  5  9  2  0
  9 10  1  0
 10 11  2  0
 11 12  1  0
 12 13  2  0
 13 14  1  0
 14 15  2  0
 15 16  1  0
 16 17  2  0
 17 18  1  0
 18 19  2  0
 19 20  1  0
 13 21  1  0
 21 22  1  0
 22 23  1  0
 23 24  2  0
 24 25  1  0
 25 26  2  0
 26 27  1  0
 27 28  1  0
 27 29  2  0
 21  2  1  0
 29 23  1  0
 11  3  1  0
 20 16  1  0
  4 30  1  0
  9 31  1  0
 10 32  1  0
 14 33  1  0
 15 34  1  0
 17 35  1  0
 18 36  1  0
 19 37  1  0
 22 38  1  0
 22 39  1  0
 24 40  1  0
 25 41  1  0
 26 42  1  0
 29 43  1  0
M  CHG  2   6   1   8  -1
M  END
>  <smiles>  (20) 
O=c1c2cc([N+](=O)[O-])ccc2nc(/C=C/c2cccs2)n1Cc1cccc(Cl)c1

>  <score_type>  (20) 
oracle

>  <origin>  (20) 
autodockgpu

>  <m_score__min__energy>  (20) 
-8.4100000000000001

>  <m_primary>  (20) 
energy

>  <meeko>  (20) 
{"free_energy": -7.54, "intermolecular_energy": -9.33, "internal_energy": -2.31, "cluster_size": 18, "cluster_id": 2, "rank_in_cluster": 3}

>  <energy>  (20) 
-6.6

>  <cluster_rmsd>  (20) 
1.9

>  <rmsd>  (20) 
271.1

>  <cluster>  (20) 
2

$$$$
