SYIYTKFSEXLBKJ-UHFFFAOYNA-N
     RDKit          3D

 52 53  0  0  0  0  0  0  0  0999 V2000
  141.4250   72.0060  227.9990 C   0  0  0  0  0  0  0  0  0  0  0  0
  140.8630   71.1810  226.8790 C   0  0  0  0  0  0  0  0  0  0  0  0
  140.4240   69.8750  227.1190 C   0  0  0  0  0  0  0  0  0  0  0  0
  139.8710   69.1030  226.0870 C   0  0  0  0  0  0  0  0  0  0  0  0
  139.4260   67.6950  226.3900 C   0  0  0  0  0  0  0  0  0  0  0  0
  139.7030   69.6710  224.8000 C   0  0  0  0  0  0  0  0  0  0  0  0
  139.0860   68.8630  223.6810 C   0  0  0  0  0  0  0  0  0  0  0  0
  140.1360   70.9950  224.5570 C   0  0  0  0  0  0  0  0  0  0  0  0
  139.9860   71.5320  223.2670 O   0  0  0  0  0  0  0  0  0  0  0  0
  140.7130   72.6320  222.7130 C   0  0  0  0  0  0  0  0  0  0  0  0
  139.9540   73.2590  221.5340 C   0  0  0  0  0  0  0  0  0  0  0  0
  140.8660   73.6220  220.3590 C   0  0  0  0  0  0  0  0  0  0  0  0
  141.5110   74.9270  220.6260 N   0  0  0  0  0  0  0  0  0  0  0  0
  140.5320   76.0320  220.5800 C   0  0  0  0  0  0  0  0  0  0  0  0
  141.0250   77.2260  221.3560 C   0  0  0  0  0  0  0  0  0  0  0  0
  141.0570   77.2030  222.7600 C   0  0  0  0  0  0  0  0  0  0  0  0
  141.5170   78.3160  223.4710 C   0  0  0  0  0  0  0  0  0  0  0  0
  141.9530   79.4540  222.7870 C   0  0  0  0  0  0  0  0  0  0  0  0
  141.9310   79.4810  221.3890 C   0  0  0  0  0  0  0  0  0  0  0  0
  141.4720   78.3710  220.6740 C   0  0  0  0  0  0  0  0  0  0  0  0
  142.8150   75.2130  219.4850 S   0  0  0  0  0  0  0  0  0  0  0  0
  142.2010   75.9620  217.9890 C   0  0  0  0  0  0  0  0  0  0  0  0
  143.8450   76.1220  220.0970 O   0  0  0  0  0  0  0  0  0  0  0  0
  143.4670   73.9110  219.1140 O   0  0  0  0  0  0  0  0  0  0  0  0
  140.7140   71.7370  225.6040 C   0  0  0  0  0  0  0  0  0  0  0  0
  141.1265   71.5678  228.9628 H   0  0  0  0  0  0  0  0  0  0  0  0
  142.5226   72.0219  227.9277 H   0  0  0  0  0  0  0  0  0  0  0  0
  141.0380   73.0332  227.9277 H   0  0  0  0  0  0  0  0  0  0  0  0
  140.5135   69.4484  228.1289 H   0  0  0  0  0  0  0  0  0  0  0  0
  139.3806   67.5513  227.4796 H   0  0  0  0  0  0  0  0  0  0  0  0
  138.4299   67.5238  225.9557 H   0  0  0  0  0  0  0  0  0  0  0  0
  140.1427   66.9825  225.9557 H   0  0  0  0  0  0  0  0  0  0  0  0
  138.4705   68.0570  224.1070 H   0  0  0  0  0  0  0  0  0  0  0  0
  138.4555   69.5172  223.0609 H   0  0  0  0  0  0  0  0  0  0  0  0
  139.8831   68.4270  223.0609 H   0  0  0  0  0  0  0  0  0  0  0  0
  140.8596   73.3945  223.4921 H   0  0  0  0  0  0  0  0  0  0  0  0
  141.6820   72.2615  222.3472 H   0  0  0  0  0  0  0  0  0  0  0  0
  139.1984   72.5411  221.1822 H   0  0  0  0  0  0  0  0  0  0  0  0
  139.4976   74.1921  221.8961 H   0  0  0  0  0  0  0  0  0  0  0  0
  141.6383   72.8478  220.2403 H   0  0  0  0  0  0  0  0  0  0  0  0
  140.2705   73.6870  219.4364 H   0  0  0  0  0  0  0  0  0  0  0  0
  140.3709   76.3259  219.5323 H   0  0  0  0  0  0  0  0  0  0  0  0
  139.5916   75.6848  221.0330 H   0  0  0  0  0  0  0  0  0  0  0  0
  140.7194   76.3072  223.3018 H   0  0  0  0  0  0  0  0  0  0  0  0
  141.5356   78.2956  224.5706 H   0  0  0  0  0  0  0  0  0  0  0  0
  142.3135   80.3286  223.3483 H   0  0  0  0  0  0  0  0  0  0  0  0
  142.2753   80.3768  220.8514 H   0  0  0  0  0  0  0  0  0  0  0  0
  141.4606   78.3936  219.5743 H   0  0  0  0  0  0  0  0  0  0  0  0
  141.5228   76.7894  218.2448 H   0  0  0  0  0  0  0  0  0  0  0  0
  143.0452   76.3489  217.3994 H   0  0  0  0  0  0  0  0  0  0  0  0
  141.6560   75.2101  217.3994 H   0  0  0  0  0  0  0  0  0  0  0  0
  141.0528   72.7668  225.4174 H   0  0  0  0  0  0  0  0  0  0  0  0
  1  2  1  0
  2  3  2  0
  3  4  1  0
  4  5  1  0
  4  6  2  0
  6  7  1  0
  6  8  1  0
  8  9  1  0
  9 10  1  0
 10 11  1  0
 11 12  1  0
 12 13  1  0
 13 14  1  0
 14 15  1  0
 15 16  2  0
 16 17  1  0
 17 18  2  0
 18 19  1  0
 19 20  2  0
 13 21  1  0
 21 22  1  0
 21 23  2  0
 21 24  2  0
  8 25  2  0
 25  2  1  0
 20 15  1  0
  1 26  1  0
  1 27  1  0
  1 28  1  0
  3 29  1  0
  5 30  1  0
  5 31  1  0
  5 32  1  0
  7 33  1  0
  7 34  1  0
  7 35  1  0
 10 36  1  0
 10 37  1  0
 11 38  1  0
 11 39  1  0
 12 40  1  0
 12 41  1  0
 14 42  1  0
 14 43  1  0
 16 44  1  0
 17 45  1  0
 18 46  1  0
 19 47  1  0
 20 48  1  0
 22 49  1  0
 22 50  1  0
 22 51  1  0
 25 52  1  0
M  END
>  <UniqueID>  (1) 
14

>  <SMILES>  (1) 
Cc1cc(C)c(C)c(OCCCN(Cc2ccccc2)S(C)(=O)=O)c1

>  <Energy>  (1) 
47.23074631624768

>  <Genealogy>  (1) 
Cc1cc(C)c(C)c(OCCCN(Cc2ccccc2)S(C)(=O)=O)c1 (3D coordinates assigned)
Cc1cc(C)c(C)c(OCCCN(Cc2ccccc2)S(C)(=O)=O)c1 (optimized conformer: 47.23074631624768 kcal/mol)

>  <smiles>  (1) 
Cc1cc(C)c(C)c(OCCCN(Cc2ccccc2)S(C)(=O)=O)c1

>  <score_type>  (1) 
oracle

>  <origin>  (1) 
autodockgpu

>  <m_score__min__energy>  (1) 
-7.3600000000000003

>  <m_primary>  (1) 
energy

>  <meeko>  (1) 
{"free_energy": -6.39, "intermolecular_energy": -8.78, "internal_energy": -0.96, "cluster_size": 1, "cluster_id": 3, "rank_in_cluster": 1}

>  <energy>  (1) 
-7.36

>  <cluster_rmsd>  (1) 
0.0

>  <rmsd>  (1) 
269.68

>  <cluster>  (1) 
1

$$$$
SYIYTKFSEXLBKJ-UHFFFAOYNA-N
     RDKit          3D

 52 53  0  0  0  0  0  0  0  0999 V2000
  143.7200   71.2230  220.2280 C   0  0  0  0  0  0  0  0  0  0  0  0
  142.9880   72.4930  220.5470 C   0  0  0  0  0  0  0  0  0  0  0  0
  143.4350   73.7120  220.0290 C   0  0  0  0  0  0  0  0  0  0  0  0
  142.7450   74.9030  220.2970 C   0  0  0  0  0  0  0  0  0  0  0  0
  143.2730   76.1950  219.7280 C   0  0  0  0  0  0  0  0  0  0  0  0
  141.5480   74.8630  221.0560 C   0  0  0  0  0  0  0  0  0  0  0  0
  140.7760   76.1320  221.3350 C   0  0  0  0  0  0  0  0  0  0  0  0
  141.0880   73.6310  221.5730 C   0  0  0  0  0  0  0  0  0  0  0  0
  139.9150   73.6140  222.3470 O   0  0  0  0  0  0  0  0  0  0  0  0
  138.6630   73.0270  221.9820 C   0  0  0  0  0  0  0  0  0  0  0  0
  138.6630   71.5150  222.2500 C   0  0  0  0  0  0  0  0  0  0  0  0
  137.9980   71.1400  223.5770 C   0  0  0  0  0  0  0  0  0  0  0  0
  138.7520   70.0320  224.2060 N   0  0  0  0  0  0  0  0  0  0  0  0
  140.1730   70.3880  224.3990 C   0  0  0  0  0  0  0  0  0  0  0  0
  140.4450   70.7690  225.8310 C   0  0  0  0  0  0  0  0  0  0  0  0
  139.9420   69.9890  226.8860 C   0  0  0  0  0  0  0  0  0  0  0  0
  140.2010   70.3510  228.2120 C   0  0  0  0  0  0  0  0  0  0  0  0
  140.9660   71.4860  228.4930 C   0  0  0  0  0  0  0  0  0  0  0  0
  141.4760   72.2620  227.4480 C   0  0  0  0  0  0  0  0  0  0  0  0
  141.2200   71.9060  226.1210 C   0  0  0  0  0  0  0  0  0  0  0  0
  138.6090   68.5690  223.2450 S   0  0  0  0  0  0  0  0  0  0  0  0
  136.9300   68.3250  222.7000 C   0  0  0  0  0  0  0  0  0  0  0  0
  139.5050   68.6540  222.0410 O   0  0  0  0  0  0  0  0  0  0  0  0
  139.0040   67.3750  224.0680 O   0  0  0  0  0  0  0  0  0  0  0  0
  141.8170   72.4550  221.3110 C   0  0  0  0  0  0  0  0  0  0  0  0
  144.0090   70.7215  221.1634 H   0  0  0  0  0  0  0  0  0  0  0  0
  143.0657   70.5596  219.6433 H   0  0  0  0  0  0  0  0  0  0  0  0
  144.6220   71.4566  219.6433 H   0  0  0  0  0  0  0  0  0  0  0  0
  144.3394   73.7373  219.4033 H   0  0  0  0  0  0  0  0  0  0  0  0
  143.5495   76.8717  220.5499 H   0  0  0  0  0  0  0  0  0  0  0  0
  144.1588   75.9883  219.1094 H   0  0  0  0  0  0  0  0  0  0  0  0
  142.4960   76.6679  219.1094 H   0  0  0  0  0  0  0  0  0  0  0  0
  140.6882   76.2763  222.4220 H   0  0  0  0  0  0  0  0  0  0  0  0
  141.3063   76.9885  220.8931 H   0  0  0  0  0  0  0  0  0  0  0  0
  139.7716   76.0549  220.8931 H   0  0  0  0  0  0  0  0  0  0  0  0
  137.8609   73.4963  222.5705 H   0  0  0  0  0  0  0  0  0  0  0  0
  138.5000   73.1915  220.9066 H   0  0  0  0  0  0  0  0  0  0  0  0
  138.1216   71.0148  221.4335 H   0  0  0  0  0  0  0  0  0  0  0  0
  139.7130   71.1921  222.3067 H   0  0  0  0  0  0  0  0  0  0  0  0
  137.9984   72.0120  224.2476 H   0  0  0  0  0  0  0  0  0  0  0  0
  136.9611   70.8223  223.3928 H   0  0  0  0  0  0  0  0  0  0  0  0
  140.7996   69.5245  224.1314 H   0  0  0  0  0  0  0  0  0  0  0  0
  140.4086   71.2493  223.7566 H   0  0  0  0  0  0  0  0  0  0  0  0
  139.3434   69.0921  226.6687 H   0  0  0  0  0  0  0  0  0  0  0  0
  139.8016   69.7408  229.0355 H   0  0  0  0  0  0  0  0  0  0  0  0
  141.1670   71.7690  229.5368 H   0  0  0  0  0  0  0  0  0  0  0  0
  142.0797   73.1542  227.6705 H   0  0  0  0  0  0  0  0  0  0  0  0
  141.6258   72.5169  225.3012 H   0  0  0  0  0  0  0  0  0  0  0  0
  136.2706   68.2292  223.5753 H   0  0  0  0  0  0  0  0  0  0  0  0
  136.6123   69.1864  222.0942 H   0  0  0  0  0  0  0  0  0  0  0  0
  136.8706   67.4088  222.0942 H   0  0  0  0  0  0  0  0  0  0  0  0
  141.4611   71.4946  221.7122 H   0  0  0  0  0  0  0  0  0  0  0  0
  1  2  1  0
  2  3  2  0
  3  4  1  0
  4  5  1  0
  4  6  2  0
  6  7  1  0
  6  8  1  0
  8  9  1  0
  9 10  1  0
 10 11  1  0
 11 12  1  0
 12 13  1  0
 13 14  1  0
 14 15  1  0
 15 16  2  0
 16 17  1  0
 17 18  2  0
 18 19  1  0
 19 20  2  0
 13 21  1  0
 21 22  1  0
 21 23  2  0
 21 24  2  0
  8 25  2  0
 25  2  1  0
 20 15  1  0
  1 26  1  0
  1 27  1  0
  1 28  1  0
  3 29  1  0
  5 30  1  0
  5 31  1  0
  5 32  1  0
  7 33  1  0
  7 34  1  0
  7 35  1  0
 10 36  1  0
 10 37  1  0
 11 38  1  0
 11 39  1  0
 12 40  1  0
 12 41  1  0
 14 42  1  0
 14 43  1  0
 16 44  1  0
 17 45  1  0
 18 46  1  0
 19 47  1  0
 20 48  1  0
 22 49  1  0
 22 50  1  0
 22 51  1  0
 25 52  1  0
M  END
>  <UniqueID>  (2) 
14

>  <SMILES>  (2) 
Cc1cc(C)c(C)c(OCCCN(Cc2ccccc2)S(C)(=O)=O)c1

>  <Energy>  (2) 
47.23074631624768

>  <Genealogy>  (2) 
Cc1cc(C)c(C)c(OCCCN(Cc2ccccc2)S(C)(=O)=O)c1 (3D coordinates assigned)
Cc1cc(C)c(C)c(OCCCN(Cc2ccccc2)S(C)(=O)=O)c1 (optimized conformer: 47.23074631624768 kcal/mol)

>  <smiles>  (2) 
Cc1cc(C)c(C)c(OCCCN(Cc2ccccc2)S(C)(=O)=O)c1

>  <score_type>  (2) 
oracle

>  <origin>  (2) 
autodockgpu

>  <m_score__min__energy>  (2) 
-7.3600000000000003

>  <m_primary>  (2) 
energy

>  <meeko>  (2) 
{"free_energy": -6.84, "intermolecular_energy": -9.22, "internal_energy": -1.24, "cluster_size": 12, "cluster_id": 1, "rank_in_cluster": 9}

>  <energy>  (2) 
-7.35

>  <cluster_rmsd>  (2) 
1.25

>  <rmsd>  (2) 
269.59

>  <cluster>  (2) 
1

$$$$
SYIYTKFSEXLBKJ-UHFFFAOYNA-N
     RDKit          3D

 52 53  0  0  0  0  0  0  0  0999 V2000
  146.3340   73.3520  221.6680 C   0  0  0  0  0  0  0  0  0  0  0  0
  145.0850   73.3250  220.8380 C   0  0  0  0  0  0  0  0  0  0  0  0
  144.2580   72.1970  220.8480 C   0  0  0  0  0  0  0  0  0  0  0  0
  143.0730   72.1690  220.0980 C   0  0  0  0  0  0  0  0  0  0  0  0
  142.2210   70.9260  220.1290 C   0  0  0  0  0  0  0  0  0  0  0  0
  142.6810   73.3170  219.3650 C   0  0  0  0  0  0  0  0  0  0  0  0
  141.3950   73.3150  218.5700 C   0  0  0  0  0  0  0  0  0  0  0  0
  143.5090   74.4620  219.3610 C   0  0  0  0  0  0  0  0  0  0  0  0
  143.1170   75.5810  218.6060 O   0  0  0  0  0  0  0  0  0  0  0  0
  143.2190   76.9520  219.0000 C   0  0  0  0  0  0  0  0  0  0  0  0
  141.9910   77.3860  219.8120 C   0  0  0  0  0  0  0  0  0  0  0  0
  141.4100   76.2590  220.6710 C   0  0  0  0  0  0  0  0  0  0  0  0
  140.4350   76.8270  221.6290 N   0  0  0  0  0  0  0  0  0  0  0  0
  141.0730   77.1490  222.9210 C   0  0  0  0  0  0  0  0  0  0  0  0
  141.2780   78.6340  223.0690 C   0  0  0  0  0  0  0  0  0  0  0  0
  140.1910   79.4830  223.3360 C   0  0  0  0  0  0  0  0  0  0  0  0
  140.3910   80.8610  223.4720 C   0  0  0  0  0  0  0  0  0  0  0  0
  141.6750   81.3980  223.3470 C   0  0  0  0  0  0  0  0  0  0  0  0
  142.7630   80.5590  223.0890 C   0  0  0  0  0  0  0  0  0  0  0  0
  142.5680   79.1810  222.9520 C   0  0  0  0  0  0  0  0  0  0  0  0
  139.0900   75.7230  221.8640 S   0  0  0  0  0  0  0  0  0  0  0  0
  138.1600   75.5200  220.3570 C   0  0  0  0  0  0  0  0  0  0  0  0
  139.5990   74.3790  222.3070 O   0  0  0  0  0  0  0  0  0  0  0  0
  138.1580   76.2640  222.9120 O   0  0  0  0  0  0  0  0  0  0  0  0
  144.7070   74.4520  220.1000 C   0  0  0  0  0  0  0  0  0  0  0  0
  146.0656   73.3462  222.7347 H   0  0  0  0  0  0  0  0  0  0  0  0
  146.9456   72.4669  221.4390 H   0  0  0  0  0  0  0  0  0  0  0  0
  146.9068   74.2627  221.4390 H   0  0  0  0  0  0  0  0  0  0  0  0
  144.5402   71.3215  221.4512 H   0  0  0  0  0  0  0  0  0  0  0  0
  142.0258   70.6412  221.1734 H   0  0  0  0  0  0  0  0  0  0  0  0
  141.2669   71.1226  219.6181 H   0  0  0  0  0  0  0  0  0  0  0  0
  142.7485   70.1070  219.6181 H   0  0  0  0  0  0  0  0  0  0  0  0
  140.5378   73.3137  219.2593 H   0  0  0  0  0  0  0  0  0  0  0  0
  141.3544   74.2131  217.9361 H   0  0  0  0  0  0  0  0  0  0  0  0
  141.3572   72.4168  217.9361 H   0  0  0  0  0  0  0  0  0  0  0  0
  144.1213   77.0828  219.6154 H   0  0  0  0  0  0  0  0  0  0  0  0
  143.2760   77.5728  218.0937 H   0  0  0  0  0  0  0  0  0  0  0  0
  142.2836   78.2149  220.4732 H   0  0  0  0  0  0  0  0  0  0  0  0
  141.2129   77.6863  219.0948 H   0  0  0  0  0  0  0  0  0  0  0  0
  140.9053   75.5266  220.0238 H   0  0  0  0  0  0  0  0  0  0  0  0
  142.2209   75.7606  221.2224 H   0  0  0  0  0  0  0  0  0  0  0  0
  140.4294   76.7919  223.7385 H   0  0  0  0  0  0  0  0  0  0  0  0
  142.0552   76.6551  222.9585 H   0  0  0  0  0  0  0  0  0  0  0  0
  139.1795   79.0630  223.4384 H   0  0  0  0  0  0  0  0  0  0  0  0
  139.5365   81.5225  223.6776 H   0  0  0  0  0  0  0  0  0  0  0  0
  141.8298   82.4820  223.4517 H   0  0  0  0  0  0  0  0  0  0  0  0
  143.7735   80.9831  222.9937 H   0  0  0  0  0  0  0  0  0  0  0  0
  143.4265   78.5230  222.7521 H   0  0  0  0  0  0  0  0  0  0  0  0
  137.1120   75.2912  220.6008 H   0  0  0  0  0  0  0  0  0  0  0  0
  138.2055   76.4492  219.7701 H   0  0  0  0  0  0  0  0  0  0  0  0
  138.5886   74.6943  219.7701 H   0  0  0  0  0  0  0  0  0  0  0  0
  145.3542   75.3415  220.0973 H   0  0  0  0  0  0  0  0  0  0  0  0
  1  2  1  0
  2  3  2  0
  3  4  1  0
  4  5  1  0
  4  6  2  0
  6  7  1  0
  6  8  1  0
  8  9  1  0
  9 10  1  0
 10 11  1  0
 11 12  1  0
 12 13  1  0
 13 14  1  0
 14 15  1  0
 15 16  2  0
 16 17  1  0
 17 18  2  0
 18 19  1  0
 19 20  2  0
 13 21  1  0
 21 22  1  0
 21 23  2  0
 21 24  2  0
  8 25  2  0
 25  2  1  0
 20 15  1  0
  1 26  1  0
  1 27  1  0
  1 28  1  0
  3 29  1  0
  5 30  1  0
  5 31  1  0
  5 32  1  0
  7 33  1  0
  7 34  1  0
  7 35  1  0
 10 36  1  0
 10 37  1  0
 11 38  1  0
 11 39  1  0
 12 40  1  0
 12 41  1  0
 14 42  1  0
 14 43  1  0
 16 44  1  0
 17 45  1  0
 18 46  1  0
 19 47  1  0
 20 48  1  0
 22 49  1  0
 22 50  1  0
 22 51  1  0
 25 52  1  0
M  END
>  <UniqueID>  (3) 
14

>  <SMILES>  (3) 
Cc1cc(C)c(C)c(OCCCN(Cc2ccccc2)S(C)(=O)=O)c1

>  <Energy>  (3) 
47.23074631624768

>  <Genealogy>  (3) 
Cc1cc(C)c(C)c(OCCCN(Cc2ccccc2)S(C)(=O)=O)c1 (3D coordinates assigned)
Cc1cc(C)c(C)c(OCCCN(Cc2ccccc2)S(C)(=O)=O)c1 (optimized conformer: 47.23074631624768 kcal/mol)

>  <smiles>  (3) 
Cc1cc(C)c(C)c(OCCCN(Cc2ccccc2)S(C)(=O)=O)c1

>  <score_type>  (3) 
oracle

>  <origin>  (3) 
autodockgpu

>  <m_score__min__energy>  (3) 
-7.3600000000000003

>  <m_primary>  (3) 
energy

>  <meeko>  (3) 
{"free_energy": -6.17, "intermolecular_energy": -8.56, "internal_energy": -1.32, "cluster_size": 2, "cluster_id": 4, "rank_in_cluster": 2}

>  <energy>  (3) 
-7.32

>  <cluster_rmsd>  (3) 
1.2

>  <rmsd>  (3) 
269.65

>  <cluster>  (3) 
1

$$$$
SYIYTKFSEXLBKJ-UHFFFAOYNA-N
     RDKit          3D

 52 53  0  0  0  0  0  0  0  0999 V2000
  143.6950   71.1410  220.2250 C   0  0  0  0  0  0  0  0  0  0  0  0
  142.9950   72.4320  220.5330 C   0  0  0  0  0  0  0  0  0  0  0  0
  143.4720   73.6350  220.0040 C   0  0  0  0  0  0  0  0  0  0  0  0
  142.8120   74.8450  220.2610 C   0  0  0  0  0  0  0  0  0  0  0  0
  143.3720   76.1180  219.6800 C   0  0  0  0  0  0  0  0  0  0  0  0
  141.6150   74.8420  221.0200 C   0  0  0  0  0  0  0  0  0  0  0  0
  140.8750   76.1330  221.2870 C   0  0  0  0  0  0  0  0  0  0  0  0
  141.1240   73.6260  221.5480 C   0  0  0  0  0  0  0  0  0  0  0  0
  139.9500   73.6460  222.3220 O   0  0  0  0  0  0  0  0  0  0  0  0
  138.6180   73.4270  221.8530 C   0  0  0  0  0  0  0  0  0  0  0  0
  138.0090   72.1670  222.4860 C   0  0  0  0  0  0  0  0  0  0  0  0
  138.9950   70.9990  222.5650 C   0  0  0  0  0  0  0  0  0  0  0  0
  139.0160   70.4690  223.9470 N   0  0  0  0  0  0  0  0  0  0  0  0
  140.3990   70.2520  224.4200 C   0  0  0  0  0  0  0  0  0  0  0  0
  140.5620   70.7130  225.8450 C   0  0  0  0  0  0  0  0  0  0  0  0
  141.2780   71.8850  226.1400 C   0  0  0  0  0  0  0  0  0  0  0  0
  141.4230   72.3050  227.4660 C   0  0  0  0  0  0  0  0  0  0  0  0
  140.8510   71.5640  228.5030 C   0  0  0  0  0  0  0  0  0  0  0  0
  140.1310   70.4010  228.2170 C   0  0  0  0  0  0  0  0  0  0  0  0
  139.9830   69.9760  226.8930 C   0  0  0  0  0  0  0  0  0  0  0  0
  138.0910   68.9790  224.0480 S   0  0  0  0  0  0  0  0  0  0  0  0
  136.4890   69.2720  224.7730 C   0  0  0  0  0  0  0  0  0  0  0  0
  137.9050   68.3940  222.6750 O   0  0  0  0  0  0  0  0  0  0  0  0
  138.8130   67.9840  224.9130 O   0  0  0  0  0  0  0  0  0  0  0  0
  141.8230   72.4300  221.2970 C   0  0  0  0  0  0  0  0  0  0  0  0
  143.9675   70.6384  221.1648 H   0  0  0  0  0  0  0  0  0  0  0  0
  143.0258   70.4910  219.6422 H   0  0  0  0  0  0  0  0  0  0  0  0
  144.6049   71.3472  219.6422 H   0  0  0  0  0  0  0  0  0  0  0  0
  144.3766   73.6322  219.3782 H   0  0  0  0  0  0  0  0  0  0  0  0
  143.6692   76.7936  220.4956 H   0  0  0  0  0  0  0  0  0  0  0  0
  144.2499   75.8831  219.0602 H   0  0  0  0  0  0  0  0  0  0  0  0
  142.6056   76.6064  219.0602 H   0  0  0  0  0  0  0  0  0  0  0  0
  140.7866   76.2872  222.3725 H   0  0  0  0  0  0  0  0  0  0  0  0
  141.4292   76.9722  220.8414 H   0  0  0  0  0  0  0  0  0  0  0  0
  139.8708   76.0789  220.8414 H   0  0  0  0  0  0  0  0  0  0  0  0
  137.9973   74.2966  222.1150 H   0  0  0  0  0  0  0  0  0  0  0  0
  138.6499   73.2894  220.7621 H   0  0  0  0  0  0  0  0  0  0  0  0
  137.6754   72.4132  223.5049 H   0  0  0  0  0  0  0  0  0  0  0  0
  137.1736   71.8486  221.8451 H   0  0  0  0  0  0  0  0  0  0  0  0
  138.6804   70.2050  221.8717 H   0  0  0  0  0  0  0  0  0  0  0  0
  140.0012   71.3469  222.2885 H   0  0  0  0  0  0  0  0  0  0  0  0
  140.6354   69.1794  224.3599 H   0  0  0  0  0  0  0  0  0  0  0  0
  141.0819   70.8339  223.7836 H   0  0  0  0  0  0  0  0  0  0  0  0
  141.7258   72.4739  225.3259 H   0  0  0  0  0  0  0  0  0  0  0  0
  141.9886   73.2207  227.6929 H   0  0  0  0  0  0  0  0  0  0  0  0
  140.9674   71.8962  229.5452 H   0  0  0  0  0  0  0  0  0  0  0  0
  139.6801   69.8191  229.0344 H   0  0  0  0  0  0  0  0  0  0  0  0
  139.4120   69.0625  226.6708 H   0  0  0  0  0  0  0  0  0  0  0  0
  136.5744   69.2564  225.8696 H   0  0  0  0  0  0  0  0  0  0  0  0
  136.1136   70.2537  224.4484 H   0  0  0  0  0  0  0  0  0  0  0  0
  135.7905   68.4867  224.4484 H   0  0  0  0  0  0  0  0  0  0  0  0
  141.4430   71.4824  221.7066 H   0  0  0  0  0  0  0  0  0  0  0  0
  1  2  1  0
  2  3  2  0
  3  4  1  0
  4  5  1  0
  4  6  2  0
  6  7  1  0
  6  8  1  0
  8  9  1  0
  9 10  1  0
 10 11  1  0
 11 12  1  0
 12 13  1  0
 13 14  1  0
 14 15  1  0
 15 16  2  0
 16 17  1  0
 17 18  2  0
 18 19  1  0
 19 20  2  0
 13 21  1  0
 21 22  1  0
 21 23  2  0
 21 24  2  0
  8 25  2  0
 25  2  1  0
 20 15  1  0
  1 26  1  0
  1 27  1  0
  1 28  1  0
  3 29  1  0
  5 30  1  0
  5 31  1  0
  5 32  1  0
  7 33  1  0
  7 34  1  0
  7 35  1  0
 10 36  1  0
 10 37  1  0
 11 38  1  0
 11 39  1  0
 12 40  1  0
 12 41  1  0
 14 42  1  0
 14 43  1  0
 16 44  1  0
 17 45  1  0
 18 46  1  0
 19 47  1  0
 20 48  1  0
 22 49  1  0
 22 50  1  0
 22 51  1  0
 25 52  1  0
M  END
>  <UniqueID>  (4) 
14

>  <SMILES>  (4) 
Cc1cc(C)c(C)c(OCCCN(Cc2ccccc2)S(C)(=O)=O)c1

>  <Energy>  (4) 
47.23074631624768

>  <Genealogy>  (4) 
Cc1cc(C)c(C)c(OCCCN(Cc2ccccc2)S(C)(=O)=O)c1 (3D coordinates assigned)
Cc1cc(C)c(C)c(OCCCN(Cc2ccccc2)S(C)(=O)=O)c1 (optimized conformer: 47.23074631624768 kcal/mol)

>  <smiles>  (4) 
Cc1cc(C)c(C)c(OCCCN(Cc2ccccc2)S(C)(=O)=O)c1

>  <score_type>  (4) 
oracle

>  <origin>  (4) 
autodockgpu

>  <m_score__min__energy>  (4) 
-7.3600000000000003

>  <m_primary>  (4) 
energy

>  <meeko>  (4) 
{"free_energy": -6.92, "intermolecular_energy": -9.3, "internal_energy": -1.25, "cluster_size": 12, "cluster_id": 1, "rank_in_cluster": 8}

>  <energy>  (4) 
-7.16

>  <cluster_rmsd>  (4) 
0.79

>  <rmsd>  (4) 
269.67

>  <cluster>  (4) 
1

$$$$
SYIYTKFSEXLBKJ-UHFFFAOYNA-N
     RDKit          3D

 52 53  0  0  0  0  0  0  0  0999 V2000
  141.6550   77.6900  220.4830 C   0  0  0  0  0  0  0  0  0  0  0  0
  141.7750   76.2010  220.6220 C   0  0  0  0  0  0  0  0  0  0  0  0
  142.8470   75.5230  220.0340 C   0  0  0  0  0  0  0  0  0  0  0  0
  142.9860   74.1350  220.1800 C   0  0  0  0  0  0  0  0  0  0  0  0
  144.1510   73.4470  219.5150 C   0  0  0  0  0  0  0  0  0  0  0  0
  142.0600   73.4190  220.9780 C   0  0  0  0  0  0  0  0  0  0  0  0
  142.2070   71.9260  221.1670 C   0  0  0  0  0  0  0  0  0  0  0  0
  140.9810   74.1020  221.5820 C   0  0  0  0  0  0  0  0  0  0  0  0
  140.0560   73.3700  222.3480 O   0  0  0  0  0  0  0  0  0  0  0  0
  138.7260   73.0140  221.9640 C   0  0  0  0  0  0  0  0  0  0  0  0
  138.5120   71.4960  222.0540 C   0  0  0  0  0  0  0  0  0  0  0  0
  137.7950   71.0660  223.3370 C   0  0  0  0  0  0  0  0  0  0  0  0
  138.6220   70.0640  224.0460 N   0  0  0  0  0  0  0  0  0  0  0  0
  140.0140   70.5310  224.2090 C   0  0  0  0  0  0  0  0  0  0  0  0
  140.3310   70.7930  225.6580 C   0  0  0  0  0  0  0  0  0  0  0  0
  139.8500   69.9360  226.6620 C   0  0  0  0  0  0  0  0  0  0  0  0
  140.1500   70.1880  228.0040 C   0  0  0  0  0  0  0  0  0  0  0  0
  140.9350   71.2900  228.3530 C   0  0  0  0  0  0  0  0  0  0  0  0
  141.4240   72.1430  227.3600 C   0  0  0  0  0  0  0  0  0  0  0  0
  141.1260   71.8960  226.0160 C   0  0  0  0  0  0  0  0  0  0  0  0
  138.5840   68.5260  223.2000 S   0  0  0  0  0  0  0  0  0  0  0  0
  136.9380   68.1530  222.6270 C   0  0  0  0  0  0  0  0  0  0  0  0
  139.5140   68.5650  222.0190 O   0  0  0  0  0  0  0  0  0  0  0  0
  139.0120   67.4210  224.1250 O   0  0  0  0  0  0  0  0  0  0  0  0
  140.8500   75.4910  221.3960 C   0  0  0  0  0  0  0  0  0  0  0  0
  141.6180   78.1497  221.4817 H   0  0  0  0  0  0  0  0  0  0  0  0
  142.5248   78.0782  219.9327 H   0  0  0  0  0  0  0  0  0  0  0  0
  140.7343   77.9339  219.9327 H   0  0  0  0  0  0  0  0  0  0  0  0
  143.5905   76.0850  219.4497 H   0  0  0  0  0  0  0  0  0  0  0  0
  144.8282   73.0470  220.2840 H   0  0  0  0  0  0  0  0  0  0  0  0
  143.7807   72.6226  218.8879 H   0  0  0  0  0  0  0  0  0  0  0  0
  144.6941   74.1693  218.8879 H   0  0  0  0  0  0  0  0  0  0  0  0
  142.2299   71.6930  222.2418 H   0  0  0  0  0  0  0  0  0  0  0  0
  141.3552   71.4114  220.6984 H   0  0  0  0  0  0  0  0  0  0  0  0
  143.1428   71.5875  220.6984 H   0  0  0  0  0  0  0  0  0  0  0  0
  138.0121   73.5177  222.6324 H   0  0  0  0  0  0  0  0  0  0  0  0
  138.5675   73.3279  220.9217 H   0  0  0  0  0  0  0  0  0  0  0  0
  137.9089   71.1756  221.1916 H   0  0  0  0  0  0  0  0  0  0  0  0
  139.5057   71.0242  222.0594 H   0  0  0  0  0  0  0  0  0  0  0  0
  137.6433   71.9421  223.9847 H   0  0  0  0  0  0  0  0  0  0  0  0
  136.8188   70.6265  223.0845 H   0  0  0  0  0  0  0  0  0  0  0  0
  140.6989   69.7607  223.8249 H   0  0  0  0  0  0  0  0  0  0  0  0
  140.1358   71.4699  223.6490 H   0  0  0  0  0  0  0  0  0  0  0  0
  139.2358   69.0645  226.3915 H   0  0  0  0  0  0  0  0  0  0  0  0
  139.7671   69.5171  228.7871 H   0  0  0  0  0  0  0  0  0  0  0  0
  141.1682   71.4862  229.4099 H   0  0  0  0  0  0  0  0  0  0  0  0
  142.0436   73.0091  227.6355 H   0  0  0  0  0  0  0  0  0  0  0  0
  141.5151   72.5672  225.2362 H   0  0  0  0  0  0  0  0  0  0  0  0
  136.2742   68.0026  223.4912 H   0  0  0  0  0  0  0  0  0  0  0  0
  136.5635   68.9890  222.0181 H   0  0  0  0  0  0  0  0  0  0  0  0
  136.9605   67.2372  222.0181 H   0  0  0  0  0  0  0  0  0  0  0  0
  140.0103   76.0251  221.8647 H   0  0  0  0  0  0  0  0  0  0  0  0
  1  2  1  0
  2  3  2  0
  3  4  1  0
  4  5  1  0
  4  6  2  0
  6  7  1  0
  6  8  1  0
  8  9  1  0
  9 10  1  0
 10 11  1  0
 11 12  1  0
 12 13  1  0
 13 14  1  0
 14 15  1  0
 15 16  2  0
 16 17  1  0
 17 18  2  0
 18 19  1  0
 19 20  2  0
 13 21  1  0
 21 22  1  0
 21 23  2  0
 21 24  2  0
  8 25  2  0
 25  2  1  0
 20 15  1  0
  1 26  1  0
  1 27  1  0
  1 28  1  0
  3 29  1  0
  5 30  1  0
  5 31  1  0
  5 32  1  0
  7 33  1  0
  7 34  1  0
  7 35  1  0
 10 36  1  0
 10 37  1  0
 11 38  1  0
 11 39  1  0
 12 40  1  0
 12 41  1  0
 14 42  1  0
 14 43  1  0
 16 44  1  0
 17 45  1  0
 18 46  1  0
 19 47  1  0
 20 48  1  0
 22 49  1  0
 22 50  1  0
 22 51  1  0
 25 52  1  0
M  END
>  <UniqueID>  (5) 
14

>  <SMILES>  (5) 
Cc1cc(C)c(C)c(OCCCN(Cc2ccccc2)S(C)(=O)=O)c1

>  <Energy>  (5) 
47.23074631624768

>  <Genealogy>  (5) 
Cc1cc(C)c(C)c(OCCCN(Cc2ccccc2)S(C)(=O)=O)c1 (3D coordinates assigned)
Cc1cc(C)c(C)c(OCCCN(Cc2ccccc2)S(C)(=O)=O)c1 (optimized conformer: 47.23074631624768 kcal/mol)

>  <smiles>  (5) 
Cc1cc(C)c(C)c(OCCCN(Cc2ccccc2)S(C)(=O)=O)c1

>  <score_type>  (5) 
oracle

>  <origin>  (5) 
autodockgpu

>  <m_score__min__energy>  (5) 
-7.3600000000000003

>  <m_primary>  (5) 
energy

>  <meeko>  (5) 
{"free_energy": -6.73, "intermolecular_energy": -9.11, "internal_energy": -1.25, "cluster_size": 12, "cluster_id": 1, "rank_in_cluster": 10}

>  <energy>  (5) 
-7.09

>  <cluster_rmsd>  (5) 
1.18

>  <rmsd>  (5) 
269.52

>  <cluster>  (5) 
1

$$$$
SYIYTKFSEXLBKJ-UHFFFAOYNA-N
     RDKit          3D

 52 53  0  0  0  0  0  0  0  0999 V2000
  141.4650   72.4030  227.5720 C   0  0  0  0  0  0  0  0  0  0  0  0
  140.9250   71.2980  226.7130 C   0  0  0  0  0  0  0  0  0  0  0  0
  140.5290   70.0870  227.2900 C   0  0  0  0  0  0  0  0  0  0  0  0
  139.9970   69.0560  226.5020 C   0  0  0  0  0  0  0  0  0  0  0  0
  139.5980   67.7640  227.1670 C   0  0  0  0  0  0  0  0  0  0  0  0
  139.8060   69.2640  225.1130 C   0  0  0  0  0  0  0  0  0  0  0  0
  139.2110   68.1730  224.2510 C   0  0  0  0  0  0  0  0  0  0  0  0
  140.1950   70.4900  224.5290 C   0  0  0  0  0  0  0  0  0  0  0  0
  140.0240   70.6680  223.1440 O   0  0  0  0  0  0  0  0  0  0  0  0
  139.5470   71.8460  222.4900 C   0  0  0  0  0  0  0  0  0  0  0  0
  140.4030   72.1800  221.2600 C   0  0  0  0  0  0  0  0  0  0  0  0
  141.5100   73.1940  221.5560 C   0  0  0  0  0  0  0  0  0  0  0  0
  141.4040   74.3260  220.6080 N   0  0  0  0  0  0  0  0  0  0  0  0
  142.7170   74.9630  220.3800 C   0  0  0  0  0  0  0  0  0  0  0  0
  143.7880   73.9300  220.1510 C   0  0  0  0  0  0  0  0  0  0  0  0
  143.5970   72.8950  219.2200 C   0  0  0  0  0  0  0  0  0  0  0  0
  144.5970   71.9400  219.0140 C   0  0  0  0  0  0  0  0  0  0  0  0
  145.7960   72.0140  219.7300 C   0  0  0  0  0  0  0  0  0  0  0  0
  145.9960   73.0450  220.6520 C   0  0  0  0  0  0  0  0  0  0  0  0
  144.9990   74.0020  220.8620 C   0  0  0  0  0  0  0  0  0  0  0  0
  140.2390   75.5050  221.1870 S   0  0  0  0  0  0  0  0  0  0  0  0
  141.0400   77.0440  221.5980 C   0  0  0  0  0  0  0  0  0  0  0  0
  139.2000   75.7640  220.1310 O   0  0  0  0  0  0  0  0  0  0  0  0
  139.5620   74.9920  222.4270 O   0  0  0  0  0  0  0  0  0  0  0  0
  140.7530   71.4970  225.3390 C   0  0  0  0  0  0  0  0  0  0  0  0
  141.3362   72.1395  228.6322 H   0  0  0  0  0  0  0  0  0  0  0  0
  142.5343   72.5455  227.3568 H   0  0  0  0  0  0  0  0  0  0  0  0
  140.9204   73.3342  227.3568 H   0  0  0  0  0  0  0  0  0  0  0  0
  140.6361   69.9415  228.3750 H   0  0  0  0  0  0  0  0  0  0  0  0
  139.6360   67.8869  228.2595 H   0  0  0  0  0  0  0  0  0  0  0  0
  138.5752   67.4960  226.8635 H   0  0  0  0  0  0  0  0  0  0  0  0
  140.2916   66.9660  226.8635 H   0  0  0  0  0  0  0  0  0  0  0  0
  138.7837   67.3896  224.8942 H   0  0  0  0  0  0  0  0  0  0  0  0
  138.4197   68.5980  223.6159 H   0  0  0  0  0  0  0  0  0  0  0  0
  139.9968   67.7379  223.6159 H   0  0  0  0  0  0  0  0  0  0  0  0
  138.5070   71.6835  222.1706 H   0  0  0  0  0  0  0  0  0  0  0  0
  139.6074   72.6868  223.1966 H   0  0  0  0  0  0  0  0  0  0  0  0
  140.8669   71.2522  220.8940 H   0  0  0  0  0  0  0  0  0  0  0  0
  139.7370   72.6314  220.5099 H   0  0  0  0  0  0  0  0  0  0  0  0
  141.4018   73.5658  222.5856 H   0  0  0  0  0  0  0  0  0  0  0  0
  142.4917   72.7105  221.4438 H   0  0  0  0  0  0  0  0  0  0  0  0
  142.6515   75.6147  219.4962 H   0  0  0  0  0  0  0  0  0  0  0  0
  142.9812   75.5482  221.2731 H   0  0  0  0  0  0  0  0  0  0  0  0
  142.6573   72.8360  218.6512 H   0  0  0  0  0  0  0  0  0  0  0  0
  144.4405   71.1290  218.2875 H   0  0  0  0  0  0  0  0  0  0  0  0
  146.5813   71.2611  219.5675 H   0  0  0  0  0  0  0  0  0  0  0  0
  146.9400   73.1035  221.2136 H   0  0  0  0  0  0  0  0  0  0  0  0
  145.1623   74.8140  221.5858 H   0  0  0  0  0  0  0  0  0  0  0  0
  141.0943   77.1484  222.6917 H   0  0  0  0  0  0  0  0  0  0  0  0
  142.0566   77.0519  221.1780 H   0  0  0  0  0  0  0  0  0  0  0  0
  140.4632   77.8812  221.1780 H   0  0  0  0  0  0  0  0  0  0  0  0
  141.0575   72.4520  224.8861 H   0  0  0  0  0  0  0  0  0  0  0  0
  1  2  1  0
  2  3  2  0
  3  4  1  0
  4  5  1  0
  4  6  2  0
  6  7  1  0
  6  8  1  0
  8  9  1  0
  9 10  1  0
 10 11  1  0
 11 12  1  0
 12 13  1  0
 13 14  1  0
 14 15  1  0
 15 16  2  0
 16 17  1  0
 17 18  2  0
 18 19  1  0
 19 20  2  0
 13 21  1  0
 21 22  1  0
 21 23  2  0
 21 24  2  0
  8 25  2  0
 25  2  1  0
 20 15  1  0
  1 26  1  0
  1 27  1  0
  1 28  1  0
  3 29  1  0
  5 30  1  0
  5 31  1  0
  5 32  1  0
  7 33  1  0
  7 34  1  0
  7 35  1  0
 10 36  1  0
 10 37  1  0
 11 38  1  0
 11 39  1  0
 12 40  1  0
 12 41  1  0
 14 42  1  0
 14 43  1  0
 16 44  1  0
 17 45  1  0
 18 46  1  0
 19 47  1  0
 20 48  1  0
 22 49  1  0
 22 50  1  0
 22 51  1  0
 25 52  1  0
M  END
>  <UniqueID>  (6) 
14

>  <SMILES>  (6) 
Cc1cc(C)c(C)c(OCCCN(Cc2ccccc2)S(C)(=O)=O)c1

>  <Energy>  (6) 
47.23074631624768

>  <Genealogy>  (6) 
Cc1cc(C)c(C)c(OCCCN(Cc2ccccc2)S(C)(=O)=O)c1 (3D coordinates assigned)
Cc1cc(C)c(C)c(OCCCN(Cc2ccccc2)S(C)(=O)=O)c1 (optimized conformer: 47.23074631624768 kcal/mol)

>  <smiles>  (6) 
Cc1cc(C)c(C)c(OCCCN(Cc2ccccc2)S(C)(=O)=O)c1

>  <score_type>  (6) 
oracle

>  <origin>  (6) 
autodockgpu

>  <m_score__min__energy>  (6) 
-7.3600000000000003

>  <m_primary>  (6) 
energy

>  <meeko>  (6) 
{"free_energy": -6.8, "intermolecular_energy": -9.19, "internal_energy": -0.95, "cluster_size": 1, "cluster_id": 2, "rank_in_cluster": 1}

>  <energy>  (6) 
-7.03

>  <cluster_rmsd>  (6) 
1.68

>  <rmsd>  (6) 
269.4

>  <cluster>  (6) 
1

$$$$
SYIYTKFSEXLBKJ-UHFFFAOYNA-N
     RDKit          3D

 52 53  0  0  0  0  0  0  0  0999 V2000
  144.0780   74.4830  218.9440 C   0  0  0  0  0  0  0  0  0  0  0  0
  143.0350   75.1320  219.8050 C   0  0  0  0  0  0  0  0  0  0  0  0
  142.8130   76.5110  219.7240 C   0  0  0  0  0  0  0  0  0  0  0  0
  141.8230   77.1260  220.5030 C   0  0  0  0  0  0  0  0  0  0  0  0
  141.6310   78.6170  220.3910 C   0  0  0  0  0  0  0  0  0  0  0  0
  140.9990   76.3340  221.3420 C   0  0  0  0  0  0  0  0  0  0  0  0
  139.9100   76.9760  222.1710 C   0  0  0  0  0  0  0  0  0  0  0  0
  141.2140   74.9400  221.4190 C   0  0  0  0  0  0  0  0  0  0  0  0
  140.4060   74.1740  222.2780 O   0  0  0  0  0  0  0  0  0  0  0  0
  140.3460   72.7470  222.3440 C   0  0  0  0  0  0  0  0  0  0  0  0
  138.9040   72.2630  222.5530 C   0  0  0  0  0  0  0  0  0  0  0  0
  138.7800   70.7380  222.5720 C   0  0  0  0  0  0  0  0  0  0  0  0
  138.8960   70.2550  223.9670 N   0  0  0  0  0  0  0  0  0  0  0  0
  140.3090   70.1650  224.3900 C   0  0  0  0  0  0  0  0  0  0  0  0
  140.4920   70.7080  225.7830 C   0  0  0  0  0  0  0  0  0  0  0  0
  139.9190   70.0540  226.8870 C   0  0  0  0  0  0  0  0  0  0  0  0
  140.0960   70.5660  228.1760 C   0  0  0  0  0  0  0  0  0  0  0  0
  140.8470   71.7280  228.3730 C   0  0  0  0  0  0  0  0  0  0  0  0
  141.4260   72.3800  227.2800 C   0  0  0  0  0  0  0  0  0  0  0  0
  141.2520   71.8720  225.9890 C   0  0  0  0  0  0  0  0  0  0  0  0
  138.0990   68.7010  224.1470 S   0  0  0  0  0  0  0  0  0  0  0  0
  137.9580   67.8690  222.5770 C   0  0  0  0  0  0  0  0  0  0  0  0
  138.8780   67.8290  225.0920 O   0  0  0  0  0  0  0  0  0  0  0  0
  136.7110   68.8960  224.6910 O   0  0  0  0  0  0  0  0  0  0  0  0
  142.2340   74.3530  220.6470 C   0  0  0  0  0  0  0  0  0  0  0  0
  144.8383   74.0099  219.5828 H   0  0  0  0  0  0  0  0  0  0  0  0
  143.6057   73.7190  218.3089 H   0  0  0  0  0  0  0  0  0  0  0  0
  144.5548   75.2442  218.3089 H   0  0  0  0  0  0  0  0  0  0  0  0
  143.4228   77.1202  219.0406 H   0  0  0  0  0  0  0  0  0  0  0  0
  141.5745   79.0561  221.3980 H   0  0  0  0  0  0  0  0  0  0  0  0
  142.4800   79.0562  219.8467 H   0  0  0  0  0  0  0  0  0  0  0  0
  140.6984   78.8267  219.8467 H   0  0  0  0  0  0  0  0  0  0  0  0
  140.1358   76.8429  223.2393 H   0  0  0  0  0  0  0  0  0  0  0  0
  139.8570   78.0498  221.9385 H   0  0  0  0  0  0  0  0  0  0  0  0
  138.9448   76.5024  221.9385 H   0  0  0  0  0  0  0  0  0  0  0  0
  140.7330   72.3274  221.4037 H   0  0  0  0  0  0  0  0  0  0  0  0
  140.9541   72.4110  223.1968 H   0  0  0  0  0  0  0  0  0  0  0  0
  138.5384   72.6560  223.5131 H   0  0  0  0  0  0  0  0  0  0  0  0
  138.3083   72.6302  221.7043 H   0  0  0  0  0  0  0  0  0  0  0  0
  137.8029   70.4436  222.1613 H   0  0  0  0  0  0  0  0  0  0  0  0
  139.5806   70.2955  221.9610 H   0  0  0  0  0  0  0  0  0  0  0  0
  140.6237   69.1112  224.3707 H   0  0  0  0  0  0  0  0  0  0  0  0
  140.9203   70.7629  223.6981 H   0  0  0  0  0  0  0  0  0  0  0  0
  139.3299   69.1373  226.7367 H   0  0  0  0  0  0  0  0  0  0  0  0
  139.6430   70.0529  229.0371 H   0  0  0  0  0  0  0  0  0  0  0  0
  140.9826   72.1297  229.3880 H   0  0  0  0  0  0  0  0  0  0  0  0
  142.0189   73.2933  227.4359 H   0  0  0  0  0  0  0  0  0  0  0  0
  141.7116   72.3853  225.1315 H   0  0  0  0  0  0  0  0  0  0  0  0
  137.7763   66.7972  222.7450 H   0  0  0  0  0  0  0  0  0  0  0  0
  137.1198   68.2983  222.0085 H   0  0  0  0  0  0  0  0  0  0  0  0
  138.8908   67.9981  222.0085 H   0  0  0  0  0  0  0  0  0  0  0  0
  142.4036   73.2678  220.7064 H   0  0  0  0  0  0  0  0  0  0  0  0
  1  2  1  0
  2  3  2  0
  3  4  1  0
  4  5  1  0
  4  6  2  0
  6  7  1  0
  6  8  1  0
  8  9  1  0
  9 10  1  0
 10 11  1  0
 11 12  1  0
 12 13  1  0
 13 14  1  0
 14 15  1  0
 15 16  2  0
 16 17  1  0
 17 18  2  0
 18 19  1  0
 19 20  2  0
 13 21  1  0
 21 22  1  0
 21 23  2  0
 21 24  2  0
  8 25  2  0
 25  2  1  0
 20 15  1  0
  1 26  1  0
  1 27  1  0
  1 28  1  0
  3 29  1  0
  5 30  1  0
  5 31  1  0
  5 32  1  0
  7 33  1  0
  7 34  1  0
  7 35  1  0
 10 36  1  0
 10 37  1  0
 11 38  1  0
 11 39  1  0
 12 40  1  0
 12 41  1  0
 14 42  1  0
 14 43  1  0
 16 44  1  0
 17 45  1  0
 18 46  1  0
 19 47  1  0
 20 48  1  0
 22 49  1  0
 22 50  1  0
 22 51  1  0
 25 52  1  0
M  END
>  <UniqueID>  (7) 
14

>  <SMILES>  (7) 
Cc1cc(C)c(C)c(OCCCN(Cc2ccccc2)S(C)(=O)=O)c1

>  <Energy>  (7) 
47.23074631624768

>  <Genealogy>  (7) 
Cc1cc(C)c(C)c(OCCCN(Cc2ccccc2)S(C)(=O)=O)c1 (3D coordinates assigned)
Cc1cc(C)c(C)c(OCCCN(Cc2ccccc2)S(C)(=O)=O)c1 (optimized conformer: 47.23074631624768 kcal/mol)

>  <smiles>  (7) 
Cc1cc(C)c(C)c(OCCCN(Cc2ccccc2)S(C)(=O)=O)c1

>  <score_type>  (7) 
oracle

>  <origin>  (7) 
autodockgpu

>  <m_score__min__energy>  (7) 
-7.3600000000000003

>  <m_primary>  (7) 
energy

>  <meeko>  (7) 
{"free_energy": -7.35, "intermolecular_energy": -9.74, "internal_energy": -0.94, "cluster_size": 12, "cluster_id": 1, "rank_in_cluster": 2}

>  <energy>  (7) 
-6.95

>  <cluster_rmsd>  (7) 
1.65

>  <rmsd>  (7) 
269.94

>  <cluster>  (7) 
1

$$$$
SYIYTKFSEXLBKJ-UHFFFAOYNA-N
     RDKit          3D

 52 53  0  0  0  0  0  0  0  0999 V2000
  143.2930   80.5260  223.8500 C   0  0  0  0  0  0  0  0  0  0  0  0
  142.1060   80.2810  222.9660 C   0  0  0  0  0  0  0  0  0  0  0  0
  140.8680   79.9510  223.5270 C   0  0  0  0  0  0  0  0  0  0  0  0
  139.7430   79.7470  222.7140 C   0  0  0  0  0  0  0  0  0  0  0  0
  138.4330   79.3800  223.3630 C   0  0  0  0  0  0  0  0  0  0  0  0
  139.8490   79.9320  221.3130 C   0  0  0  0  0  0  0  0  0  0  0  0
  138.6420   79.7410  220.4230 C   0  0  0  0  0  0  0  0  0  0  0  0
  141.0960   80.2750  220.7450 C   0  0  0  0  0  0  0  0  0  0  0  0
  141.1880   80.4270  219.3500 O   0  0  0  0  0  0  0  0  0  0  0  0
  141.6420   79.4450  218.4150 C   0  0  0  0  0  0  0  0  0  0  0  0
  142.1890   78.2050  219.1370 C   0  0  0  0  0  0  0  0  0  0  0  0
  141.1320   77.1170  219.3440 C   0  0  0  0  0  0  0  0  0  0  0  0
  141.6500   76.1070  220.2930 N   0  0  0  0  0  0  0  0  0  0  0  0
  141.8740   74.8060  219.6280 C   0  0  0  0  0  0  0  0  0  0  0  0
  143.1610   74.1760  220.0920 C   0  0  0  0  0  0  0  0  0  0  0  0
  143.2130   72.8080  220.4110 C   0  0  0  0  0  0  0  0  0  0  0  0
  144.4120   72.2320  220.8410 C   0  0  0  0  0  0  0  0  0  0  0  0
  145.5660   73.0120  220.9500 C   0  0  0  0  0  0  0  0  0  0  0  0
  145.5240   74.3720  220.6280 C   0  0  0  0  0  0  0  0  0  0  0  0
  144.3270   74.9530  220.1980 C   0  0  0  0  0  0  0  0  0  0  0  0
  140.5540   75.9220  221.6530 S   0  0  0  0  0  0  0  0  0  0  0  0
  138.9010   76.4200  221.2120 C   0  0  0  0  0  0  0  0  0  0  0  0
  140.5270   74.4860  222.1010 O   0  0  0  0  0  0  0  0  0  0  0  0
  141.0060   76.7850  222.7970 O   0  0  0  0  0  0  0  0  0  0  0  0
  142.2150   80.4460  221.5820 C   0  0  0  0  0  0  0  0  0  0  0  0
  142.9846   80.4623  224.9040 H   0  0  0  0  0  0  0  0  0  0  0  0
  144.0639   79.7681  223.6471 H   0  0  0  0  0  0  0  0  0  0  0  0
  143.7008   81.5273  223.6471 H   0  0  0  0  0  0  0  0  0  0  0  0
  140.7754   79.8502  224.6184 H   0  0  0  0  0  0  0  0  0  0  0  0
  138.5443   79.4112  224.4569 H   0  0  0  0  0  0  0  0  0  0  0  0
  137.6570   80.0953  223.0529 H   0  0  0  0  0  0  0  0  0  0  0  0
  138.1416   78.3656  223.0529 H   0  0  0  0  0  0  0  0  0  0  0  0
  137.7462   79.5992  221.0455 H   0  0  0  0  0  0  0  0  0  0  0  0
  138.5104   80.6295  219.7880 H   0  0  0  0  0  0  0  0  0  0  0  0
  138.7912   78.8553  219.7880 H   0  0  0  0  0  0  0  0  0  0  0  0
  140.8010   79.1448  217.7726 H   0  0  0  0  0  0  0  0  0  0  0  0
  142.4512   79.8839  217.8129 H   0  0  0  0  0  0  0  0  0  0  0  0
  143.0111   77.7854  218.5386 H   0  0  0  0  0  0  0  0  0  0  0  0
  142.5280   78.5274  220.1326 H   0  0  0  0  0  0  0  0  0  0  0  0
  140.2152   77.5680  219.7514 H   0  0  0  0  0  0  0  0  0  0  0  0
  140.9046   76.6359  218.3813 H   0  0  0  0  0  0  0  0  0  0  0  0
  141.0377   74.1321  219.8656 H   0  0  0  0  0  0  0  0  0  0  0  0
  141.9379   74.9740  218.5428 H   0  0  0  0  0  0  0  0  0  0  0  0
  142.3080   72.1891  220.3220 H   0  0  0  0  0  0  0  0  0  0  0  0
  144.4470   71.1621  221.0942 H   0  0  0  0  0  0  0  0  0  0  0  0
  146.5078   72.5561  221.2892 H   0  0  0  0  0  0  0  0  0  0  0  0
  146.4332   74.9853  220.7130 H   0  0  0  0  0  0  0  0  0  0  0  0
  144.2980   76.0223  219.9417 H   0  0  0  0  0  0  0  0  0  0  0  0
  138.3151   76.5965  222.1261 H   0  0  0  0  0  0  0  0  0  0  0  0
  138.9428   77.3454  220.6188 H   0  0  0  0  0  0  0  0  0  0  0  0
  138.4246   75.6255  220.6188 H   0  0  0  0  0  0  0  0  0  0  0  0
  143.1871   80.7127  221.1416 H   0  0  0  0  0  0  0  0  0  0  0  0
  1  2  1  0
  2  3  2  0
  3  4  1  0
  4  5  1  0
  4  6  2  0
  6  7  1  0
  6  8  1  0
  8  9  1  0
  9 10  1  0
 10 11  1  0
 11 12  1  0
 12 13  1  0
 13 14  1  0
 14 15  1  0
 15 16  2  0
 16 17  1  0
 17 18  2  0
 18 19  1  0
 19 20  2  0
 13 21  1  0
 21 22  1  0
 21 23  2  0
 21 24  2  0
  8 25  2  0
 25  2  1  0
 20 15  1  0
  1 26  1  0
  1 27  1  0
  1 28  1  0
  3 29  1  0
  5 30  1  0
  5 31  1  0
  5 32  1  0
  7 33  1  0
  7 34  1  0
  7 35  1  0
 10 36  1  0
 10 37  1  0
 11 38  1  0
 11 39  1  0
 12 40  1  0
 12 41  1  0
 14 42  1  0
 14 43  1  0
 16 44  1  0
 17 45  1  0
 18 46  1  0
 19 47  1  0
 20 48  1  0
 22 49  1  0
 22 50  1  0
 22 51  1  0
 25 52  1  0
M  END
>  <UniqueID>  (8) 
14

>  <SMILES>  (8) 
Cc1cc(C)c(C)c(OCCCN(Cc2ccccc2)S(C)(=O)=O)c1

>  <Energy>  (8) 
47.23074631624768

>  <Genealogy>  (8) 
Cc1cc(C)c(C)c(OCCCN(Cc2ccccc2)S(C)(=O)=O)c1 (3D coordinates assigned)
Cc1cc(C)c(C)c(OCCCN(Cc2ccccc2)S(C)(=O)=O)c1 (optimized conformer: 47.23074631624768 kcal/mol)

>  <smiles>  (8) 
Cc1cc(C)c(C)c(OCCCN(Cc2ccccc2)S(C)(=O)=O)c1

>  <score_type>  (8) 
oracle

>  <origin>  (8) 
autodockgpu

>  <m_score__min__energy>  (8) 
-7.3600000000000003

>  <m_primary>  (8) 
energy

>  <meeko>  (8) 
{"free_energy": -5.88, "intermolecular_energy": -8.27, "internal_energy": -1.87, "cluster_size": 4, "cluster_id": 5, "rank_in_cluster": 2}

>  <energy>  (8) 
-6.92

>  <cluster_rmsd>  (8) 
1.49

>  <rmsd>  (8) 
269.44

>  <cluster>  (8) 
1

$$$$
SYIYTKFSEXLBKJ-UHFFFAOYNA-N
     RDKit          3D

 52 53  0  0  0  0  0  0  0  0999 V2000
  142.5550   77.1600  219.7670 C   0  0  0  0  0  0  0  0  0  0  0  0
  142.8420   75.7090  220.0170 C   0  0  0  0  0  0  0  0  0  0  0  0
  144.1630   75.2510  220.0650 C   0  0  0  0  0  0  0  0  0  0  0  0
  144.4460   73.9030  220.3250 C   0  0  0  0  0  0  0  0  0  0  0  0
  145.8850   73.4540  220.3540 C   0  0  0  0  0  0  0  0  0  0  0  0
  143.3850   73.0040  220.5970 C   0  0  0  0  0  0  0  0  0  0  0  0
  143.6720   71.5520  220.9040 C   0  0  0  0  0  0  0  0  0  0  0  0
  142.0500   73.4660  220.5590 C   0  0  0  0  0  0  0  0  0  0  0  0
  141.0080   72.5530  220.8030 O   0  0  0  0  0  0  0  0  0  0  0  0
  140.0040   72.6600  221.8160 C   0  0  0  0  0  0  0  0  0  0  0  0
  140.1270   71.5210  222.8380 C   0  0  0  0  0  0  0  0  0  0  0  0
  138.7820   71.1140  223.4470 C   0  0  0  0  0  0  0  0  0  0  0  0
  138.9440   69.8390  224.1810 N   0  0  0  0  0  0  0  0  0  0  0  0
  140.3140   69.6950  224.7170 C   0  0  0  0  0  0  0  0  0  0  0  0
  140.4750   70.4600  226.0040 C   0  0  0  0  0  0  0  0  0  0  0  0
  141.2870   71.6050  226.0590 C   0  0  0  0  0  0  0  0  0  0  0  0
  141.4300   72.3080  227.2590 C   0  0  0  0  0  0  0  0  0  0  0  0
  140.7610   71.8780  228.4080 C   0  0  0  0  0  0  0  0  0  0  0  0
  139.9450   70.7440  228.3590 C   0  0  0  0  0  0  0  0  0  0  0  0
  139.7990   70.0370  227.1620 C   0  0  0  0  0  0  0  0  0  0  0  0
  138.5420   68.4780  223.1460 S   0  0  0  0  0  0  0  0  0  0  0  0
  136.8010   68.4610  222.7640 C   0  0  0  0  0  0  0  0  0  0  0  0
  139.3220   68.5590  221.8630 O   0  0  0  0  0  0  0  0  0  0  0  0
  138.8730   67.1880  223.8420 O   0  0  0  0  0  0  0  0  0  0  0  0
  141.7930   74.8190  220.2670 C   0  0  0  0  0  0  0  0  0  0  0  0
  142.4513   77.6842  220.7285 H   0  0  0  0  0  0  0  0  0  0  0  0
  143.3827   77.6042  219.1946 H   0  0  0  0  0  0  0  0  0  0  0  0
  141.6205   77.2556  219.1946 H   0  0  0  0  0  0  0  0  0  0  0  0
  144.9895   75.9571  219.8967 H   0  0  0  0  0  0  0  0  0  0  0  0
  146.2159   73.3508  221.3980 H   0  0  0  0  0  0  0  0  0  0  0  0
  145.9770   72.4845  219.8426 H   0  0  0  0  0  0  0  0  0  0  0  0
  146.5120   74.1992  219.8426 H   0  0  0  0  0  0  0  0  0  0  0  0
  143.7008   71.4064  221.9940 H   0  0  0  0  0  0  0  0  0  0  0  0
  142.8809   70.9223  220.4707 H   0  0  0  0  0  0  0  0  0  0  0  0
  144.6431   71.2706  220.4707 H   0  0  0  0  0  0  0  0  0  0  0  0
  140.1188   73.6228  222.3354 H   0  0  0  0  0  0  0  0  0  0  0  0
  139.0159   72.5947  221.3371 H   0  0  0  0  0  0  0  0  0  0  0  0
  140.5634   70.6452  222.3356 H   0  0  0  0  0  0  0  0  0  0  0  0
  140.7631   71.8835  223.6590 H   0  0  0  0  0  0  0  0  0  0  0  0
  138.4407   71.8966  224.1406 H   0  0  0  0  0  0  0  0  0  0  0  0
  138.0381   70.9869  222.6467 H   0  0  0  0  0  0  0  0  0  0  0  0
  140.5166   68.6301  224.9041 H   0  0  0  0  0  0  0  0  0  0  0  0
  141.0225   70.0992  223.9790 H   0  0  0  0  0  0  0  0  0  0  0  0
  141.8117   71.9494  225.1556 H   0  0  0  0  0  0  0  0  0  0  0  0
  142.0704   73.2014  227.2987 H   0  0  0  0  0  0  0  0  0  0  0  0
  140.8765   72.4320  229.3513 H   0  0  0  0  0  0  0  0  0  0  0  0
  139.4171   70.4076  229.2635 H   0  0  0  0  0  0  0  0  0  0  0  0
  139.1534   69.1471  227.1259 H   0  0  0  0  0  0  0  0  0  0  0  0
  136.2206   68.4553  223.6984 H   0  0  0  0  0  0  0  0  0  0  0  0
  136.5452   69.3567  222.1789 H   0  0  0  0  0  0  0  0  0  0  0  0
  136.5627   67.5605  222.1789 H   0  0  0  0  0  0  0  0  0  0  0  0
  140.7545   75.1803  220.2351 H   0  0  0  0  0  0  0  0  0  0  0  0
  1  2  1  0
  2  3  2  0
  3  4  1  0
  4  5  1  0
  4  6  2  0
  6  7  1  0
  6  8  1  0
  8  9  1  0
  9 10  1  0
 10 11  1  0
 11 12  1  0
 12 13  1  0
 13 14  1  0
 14 15  1  0
 15 16  2  0
 16 17  1  0
 17 18  2  0
 18 19  1  0
 19 20  2  0
 13 21  1  0
 21 22  1  0
 21 23  2  0
 21 24  2  0
  8 25  2  0
 25  2  1  0
 20 15  1  0
  1 26  1  0
  1 27  1  0
  1 28  1  0
  3 29  1  0
  5 30  1  0
  5 31  1  0
  5 32  1  0
  7 33  1  0
  7 34  1  0
  7 35  1  0
 10 36  1  0
 10 37  1  0
 11 38  1  0
 11 39  1  0
 12 40  1  0
 12 41  1  0
 14 42  1  0
 14 43  1  0
 16 44  1  0
 17 45  1  0
 18 46  1  0
 19 47  1  0
 20 48  1  0
 22 49  1  0
 22 50  1  0
 22 51  1  0
 25 52  1  0
M  END
>  <UniqueID>  (9) 
14

>  <SMILES>  (9) 
Cc1cc(C)c(C)c(OCCCN(Cc2ccccc2)S(C)(=O)=O)c1

>  <Energy>  (9) 
47.23074631624768

>  <Genealogy>  (9) 
Cc1cc(C)c(C)c(OCCCN(Cc2ccccc2)S(C)(=O)=O)c1 (3D coordinates assigned)
Cc1cc(C)c(C)c(OCCCN(Cc2ccccc2)S(C)(=O)=O)c1 (optimized conformer: 47.23074631624768 kcal/mol)

>  <smiles>  (9) 
Cc1cc(C)c(C)c(OCCCN(Cc2ccccc2)S(C)(=O)=O)c1

>  <score_type>  (9) 
oracle

>  <origin>  (9) 
autodockgpu

>  <m_score__min__energy>  (9) 
-7.3600000000000003

>  <m_primary>  (9) 
energy

>  <meeko>  (9) 
{"free_energy": -6.64, "intermolecular_energy": -9.03, "internal_energy": -0.97, "cluster_size": 12, "cluster_id": 1, "rank_in_cluster": 11}

>  <energy>  (9) 
-6.84

>  <cluster_rmsd>  (9) 
1.64

>  <rmsd>  (9) 
269.35

>  <cluster>  (9) 
1

$$$$
SYIYTKFSEXLBKJ-UHFFFAOYNA-N
     RDKit          3D

 52 53  0  0  0  0  0  0  0  0999 V2000
  143.3060   80.8200  223.9220 C   0  0  0  0  0  0  0  0  0  0  0  0
  142.1010   80.4940  223.0890 C   0  0  0  0  0  0  0  0  0  0  0  0
  140.8600   80.2880  223.6990 C   0  0  0  0  0  0  0  0  0  0  0  0
  139.7200   80.0100  222.9300 C   0  0  0  0  0  0  0  0  0  0  0  0
  138.4070   79.7810  223.6330 C   0  0  0  0  0  0  0  0  0  0  0  0
  139.8160   79.9930  221.5170 C   0  0  0  0  0  0  0  0  0  0  0  0
  138.5930   79.7200  220.6700 C   0  0  0  0  0  0  0  0  0  0  0  0
  141.0670   80.2110  220.8970 C   0  0  0  0  0  0  0  0  0  0  0  0
  141.1490   80.1630  219.4940 O   0  0  0  0  0  0  0  0  0  0  0  0
  141.7480   79.1270  218.7110 C   0  0  0  0  0  0  0  0  0  0  0  0
  142.2130   77.9630  219.5970 C   0  0  0  0  0  0  0  0  0  0  0  0
  141.4680   76.6560  219.3120 C   0  0  0  0  0  0  0  0  0  0  0  0
  141.8160   75.6590  220.3490 N   0  0  0  0  0  0  0  0  0  0  0  0
  141.9830   74.3110  219.7660 C   0  0  0  0  0  0  0  0  0  0  0  0
  143.3680   73.7780  220.0230 C   0  0  0  0  0  0  0  0  0  0  0  0
  144.3970   74.6350  220.4500 C   0  0  0  0  0  0  0  0  0  0  0  0
  145.6790   74.1300  220.6860 C   0  0  0  0  0  0  0  0  0  0  0  0
  145.9420   72.7700  220.5050 C   0  0  0  0  0  0  0  0  0  0  0  0
  144.9220   71.9100  220.0880 C   0  0  0  0  0  0  0  0  0  0  0  0
  143.6380   72.4100  219.8490 C   0  0  0  0  0  0  0  0  0  0  0  0
  140.5980   75.6360  221.6130 S   0  0  0  0  0  0  0  0  0  0  0  0
  139.0110   76.1450  220.9790 C   0  0  0  0  0  0  0  0  0  0  0  0
  140.4720   74.2500  222.1820 O   0  0  0  0  0  0  0  0  0  0  0  0
  140.9810   76.5860  222.7130 O   0  0  0  0  0  0  0  0  0  0  0  0
  142.2000   80.4600  221.6940 C   0  0  0  0  0  0  0  0  0  0  0  0
  143.0447   80.7493  224.9882 H   0  0  0  0  0  0  0  0  0  0  0  0
  144.1128   80.1078  223.6942 H   0  0  0  0  0  0  0  0  0  0  0  0
  143.6437   81.8418  223.6942 H   0  0  0  0  0  0  0  0  0  0  0  0
  140.7765   80.3445  224.7944 H   0  0  0  0  0  0  0  0  0  0  0  0
  138.5641   79.8084  224.7214 H   0  0  0  0  0  0  0  0  0  0  0  0
  137.6949   80.5685  223.3454 H   0  0  0  0  0  0  0  0  0  0  0  0
  138.0035   78.7989  223.3454 H   0  0  0  0  0  0  0  0  0  0  0  0
  137.7297   79.5273  221.3239 H   0  0  0  0  0  0  0  0  0  0  0  0
  138.3843   80.5937  220.0351 H   0  0  0  0  0  0  0  0  0  0  0  0
  138.7756   78.8405  220.0351 H   0  0  0  0  0  0  0  0  0  0  0  0
  141.0108   78.7536  217.9850 H   0  0  0  0  0  0  0  0  0  0  0  0
  142.6245   79.5433  218.1928 H   0  0  0  0  0  0  0  0  0  0  0  0
  143.2868   77.7987  219.4240 H   0  0  0  0  0  0  0  0  0  0  0  0
  142.0014   78.2402  220.6403 H   0  0  0  0  0  0  0  0  0  0  0  0
  140.3836   76.8400  219.3282 H   0  0  0  0  0  0  0  0  0  0  0  0
  141.7581   76.2747  218.3218 H   0  0  0  0  0  0  0  0  0  0  0  0
  141.2464   73.6303  220.2176 H   0  0  0  0  0  0  0  0  0  0  0  0
  141.8304   74.3787  218.6788 H   0  0  0  0  0  0  0  0  0  0  0  0
  144.1930   75.7056  220.5988 H   0  0  0  0  0  0  0  0  0  0  0  0
  146.4827   74.8052  221.0150 H   0  0  0  0  0  0  0  0  0  0  0  0
  146.9520   72.3758  220.6907 H   0  0  0  0  0  0  0  0  0  0  0  0
  145.1295   70.8389  219.9477 H   0  0  0  0  0  0  0  0  0  0  0  0
  142.8368   71.7302  219.5237 H   0  0  0  0  0  0  0  0  0  0  0  0
  138.3335   76.3623  221.8180 H   0  0  0  0  0  0  0  0  0  0  0  0
  139.1345   77.0486  220.3640 H   0  0  0  0  0  0  0  0  0  0  0  0
  138.5859   75.3381  220.3640 H   0  0  0  0  0  0  0  0  0  0  0  0
  143.1751   80.6299  221.2142 H   0  0  0  0  0  0  0  0  0  0  0  0
  1  2  1  0
  2  3  2  0
  3  4  1  0
  4  5  1  0
  4  6  2  0
  6  7  1  0
  6  8  1  0
  8  9  1  0
  9 10  1  0
 10 11  1  0
 11 12  1  0
 12 13  1  0
 13 14  1  0
 14 15  1  0
 15 16  2  0
 16 17  1  0
 17 18  2  0
 18 19  1  0
 19 20  2  0
 13 21  1  0
 21 22  1  0
 21 23  2  0
 21 24  2  0
  8 25  2  0
 25  2  1  0
 20 15  1  0
  1 26  1  0
  1 27  1  0
  1 28  1  0
  3 29  1  0
  5 30  1  0
  5 31  1  0
  5 32  1  0
  7 33  1  0
  7 34  1  0
  7 35  1  0
 10 36  1  0
 10 37  1  0
 11 38  1  0
 11 39  1  0
 12 40  1  0
 12 41  1  0
 14 42  1  0
 14 43  1  0
 16 44  1  0
 17 45  1  0
 18 46  1  0
 19 47  1  0
 20 48  1  0
 22 49  1  0
 22 50  1  0
 22 51  1  0
 25 52  1  0
M  END
>  <UniqueID>  (10) 
14

>  <SMILES>  (10) 
Cc1cc(C)c(C)c(OCCCN(Cc2ccccc2)S(C)(=O)=O)c1

>  <Energy>  (10) 
47.23074631624768

>  <Genealogy>  (10) 
Cc1cc(C)c(C)c(OCCCN(Cc2ccccc2)S(C)(=O)=O)c1 (3D coordinates assigned)
Cc1cc(C)c(C)c(OCCCN(Cc2ccccc2)S(C)(=O)=O)c1 (optimized conformer: 47.23074631624768 kcal/mol)

>  <smiles>  (10) 
Cc1cc(C)c(C)c(OCCCN(Cc2ccccc2)S(C)(=O)=O)c1

>  <score_type>  (10) 
oracle

>  <origin>  (10) 
autodockgpu

>  <m_score__min__energy>  (10) 
-7.3600000000000003

>  <m_primary>  (10) 
energy

>  <meeko>  (10) 
{"free_energy": -6.0, "intermolecular_energy": -8.39, "internal_energy": -1.62, "cluster_size": 4, "cluster_id": 5, "rank_in_cluster": 1}

>  <energy>  (10) 
-6.73

>  <cluster_rmsd>  (10) 
1.34

>  <rmsd>  (10) 
269.28

>  <cluster>  (10) 
1

$$$$
SYIYTKFSEXLBKJ-UHFFFAOYNA-N
     RDKit          3D

 52 53  0  0  0  0  0  0  0  0999 V2000
  146.2630   73.4180  221.3340 C   0  0  0  0  0  0  0  0  0  0  0  0
  144.8860   73.4440  220.7390 C   0  0  0  0  0  0  0  0  0  0  0  0
  144.0360   72.3430  220.8860 C   0  0  0  0  0  0  0  0  0  0  0  0
  142.7360   72.3650  220.3590 C   0  0  0  0  0  0  0  0  0  0  0  0
  141.8610   71.1500  220.5320 C   0  0  0  0  0  0  0  0  0  0  0  0
  142.2600   73.5350  219.7190 C   0  0  0  0  0  0  0  0  0  0  0  0
  140.8540   73.5860  219.1660 C   0  0  0  0  0  0  0  0  0  0  0  0
  143.1130   74.6530  219.5760 C   0  0  0  0  0  0  0  0  0  0  0  0
  142.6330   75.7950  218.9130 O   0  0  0  0  0  0  0  0  0  0  0  0
  142.9320   77.1560  219.2350 C   0  0  0  0  0  0  0  0  0  0  0  0
  141.8230   77.7780  220.0940 C   0  0  0  0  0  0  0  0  0  0  0  0
  140.5920   76.8780  220.2290 C   0  0  0  0  0  0  0  0  0  0  0  0
  140.0170   77.0360  221.5840 N   0  0  0  0  0  0  0  0  0  0  0  0
  141.0750   77.1660  222.6070 C   0  0  0  0  0  0  0  0  0  0  0  0
  141.2530   78.6030  223.0220 C   0  0  0  0  0  0  0  0  0  0  0  0
  140.1410   79.3950  223.3520 C   0  0  0  0  0  0  0  0  0  0  0  0
  140.3170   80.7280  223.7370 C   0  0  0  0  0  0  0  0  0  0  0  0
  141.6010   81.2760  223.7990 C   0  0  0  0  0  0  0  0  0  0  0  0
  142.7130   80.4920  223.4780 C   0  0  0  0  0  0  0  0  0  0  0  0
  142.5420   79.1590  223.0930 C   0  0  0  0  0  0  0  0  0  0  0  0
  138.9570   75.6880  221.9630 S   0  0  0  0  0  0  0  0  0  0  0  0
  137.9340   75.2680  220.5640 C   0  0  0  0  0  0  0  0  0  0  0  0
  139.7720   74.4840  222.3490 O   0  0  0  0  0  0  0  0  0  0  0  0
  138.0490   76.0540  223.1030 O   0  0  0  0  0  0  0  0  0  0  0  0
  144.4230   74.5930  220.0900 C   0  0  0  0  0  0  0  0  0  0  0  0
  146.1883   73.4194  222.4315 H   0  0  0  0  0  0  0  0  0  0  0  0
  146.7882   72.5098  221.0034 H   0  0  0  0  0  0  0  0  0  0  0  0
  146.8221   74.3057  221.0034 H   0  0  0  0  0  0  0  0  0  0  0  0
  144.3908   71.4497  221.4209 H   0  0  0  0  0  0  0  0  0  0  0  0
  141.7177   70.9510  221.6043 H   0  0  0  0  0  0  0  0  0  0  0  0
  140.8845   71.3310  220.0590 H   0  0  0  0  0  0  0  0  0  0  0  0
  142.3422   70.2813  220.0590 H   0  0  0  0  0  0  0  0  0  0  0  0
  140.1338   73.6121  219.9971 H   0  0  0  0  0  0  0  0  0  0  0  0
  140.7351   74.4890  218.5493 H   0  0  0  0  0  0  0  0  0  0  0  0
  140.6700   72.6939  218.5493 H   0  0  0  0  0  0  0  0  0  0  0  0
  143.8804   77.1934  219.7909 H   0  0  0  0  0  0  0  0  0  0  0  0
  143.0096   77.7273  218.2982 H   0  0  0  0  0  0  0  0  0  0  0  0
  142.2261   77.9729  221.0987 H   0  0  0  0  0  0  0  0  0  0  0  0
  141.5000   78.7027  219.5934 H   0  0  0  0  0  0  0  0  0  0  0  0
  139.8429   77.1646  219.4762 H   0  0  0  0  0  0  0  0  0  0  0  0
  140.8834   75.8289  220.0723 H   0  0  0  0  0  0  0  0  0  0  0  0
  140.7980   76.5690  223.4884 H   0  0  0  0  0  0  0  0  0  0  0  0
  142.0219   76.8057  222.1786 H   0  0  0  0  0  0  0  0  0  0  0  0
  139.1292   78.9658  223.3075 H   0  0  0  0  0  0  0  0  0  0  0  0
  139.4433   81.3460  223.9914 H   0  0  0  0  0  0  0  0  0  0  0  0
  141.7368   82.3251  224.1006 H   0  0  0  0  0  0  0  0  0  0  0  0
  143.7232   80.9243  223.5284 H   0  0  0  0  0  0  0  0  0  0  0  0
  143.4191   78.5432  222.8448 H   0  0  0  0  0  0  0  0  0  0  0  0
  136.9710   74.8726  220.9195 H   0  0  0  0  0  0  0  0  0  0  0  0
  137.7589   76.1670  219.9548 H   0  0  0  0  0  0  0  0  0  0  0  0
  138.4411   74.5053  219.9548 H   0  0  0  0  0  0  0  0  0  0  0  0
  145.0901   75.4606  219.9796 H   0  0  0  0  0  0  0  0  0  0  0  0
  1  2  1  0
  2  3  2  0
  3  4  1  0
  4  5  1  0
  4  6  2  0
  6  7  1  0
  6  8  1  0
  8  9  1  0
  9 10  1  0
 10 11  1  0
 11 12  1  0
 12 13  1  0
 13 14  1  0
 14 15  1  0
 15 16  2  0
 16 17  1  0
 17 18  2  0
 18 19  1  0
 19 20  2  0
 13 21  1  0
 21 22  1  0
 21 23  2  0
 21 24  2  0
  8 25  2  0
 25  2  1  0
 20 15  1  0
  1 26  1  0
  1 27  1  0
  1 28  1  0
  3 29  1  0
  5 30  1  0
  5 31  1  0
  5 32  1  0
  7 33  1  0
  7 34  1  0
  7 35  1  0
 10 36  1  0
 10 37  1  0
 11 38  1  0
 11 39  1  0
 12 40  1  0
 12 41  1  0
 14 42  1  0
 14 43  1  0
 16 44  1  0
 17 45  1  0
 18 46  1  0
 19 47  1  0
 20 48  1  0
 22 49  1  0
 22 50  1  0
 22 51  1  0
 25 52  1  0
M  END
>  <UniqueID>  (11) 
14

>  <SMILES>  (11) 
Cc1cc(C)c(C)c(OCCCN(Cc2ccccc2)S(C)(=O)=O)c1

>  <Energy>  (11) 
47.23074631624768

>  <Genealogy>  (11) 
Cc1cc(C)c(C)c(OCCCN(Cc2ccccc2)S(C)(=O)=O)c1 (3D coordinates assigned)
Cc1cc(C)c(C)c(OCCCN(Cc2ccccc2)S(C)(=O)=O)c1 (optimized conformer: 47.23074631624768 kcal/mol)

>  <smiles>  (11) 
Cc1cc(C)c(C)c(OCCCN(Cc2ccccc2)S(C)(=O)=O)c1

>  <score_type>  (11) 
oracle

>  <origin>  (11) 
autodockgpu

>  <m_score__min__energy>  (11) 
-7.3600000000000003

>  <m_primary>  (11) 
energy

>  <meeko>  (11) 
{"free_energy": -6.25, "intermolecular_energy": -8.63, "internal_energy": -1.51, "cluster_size": 2, "cluster_id": 4, "rank_in_cluster": 1}

>  <energy>  (11) 
-6.64

>  <cluster_rmsd>  (11) 
1.73

>  <rmsd>  (11) 
269.49

>  <cluster>  (11) 
1

$$$$
SYIYTKFSEXLBKJ-UHFFFAOYNA-N
     RDKit          3D

 52 53  0  0  0  0  0  0  0  0999 V2000
  143.0000   80.6770  224.1860 C   0  0  0  0  0  0  0  0  0  0  0  0
  142.2980   80.8780  222.8750 C   0  0  0  0  0  0  0  0  0  0  0  0
  141.5320   82.0280  222.6560 C   0  0  0  0  0  0  0  0  0  0  0  0
  140.8940   82.2420  221.4260 C   0  0  0  0  0  0  0  0  0  0  0  0
  140.0680   83.4890  221.2430 C   0  0  0  0  0  0  0  0  0  0  0  0
  141.0730   81.3100  220.3730 C   0  0  0  0  0  0  0  0  0  0  0  0
  140.4130   81.5360  219.0320 C   0  0  0  0  0  0  0  0  0  0  0  0
  141.8550   80.1530  220.5880 C   0  0  0  0  0  0  0  0  0  0  0  0
  141.9980   79.2260  219.5400 O   0  0  0  0  0  0  0  0  0  0  0  0
  141.0400   78.2450  219.1350 C   0  0  0  0  0  0  0  0  0  0  0  0
  141.6040   76.8250  219.2890 C   0  0  0  0  0  0  0  0  0  0  0  0
  141.6390   76.3470  220.7430 C   0  0  0  0  0  0  0  0  0  0  0  0
  140.3740   76.7250  221.4120 N   0  0  0  0  0  0  0  0  0  0  0  0
  140.6280   77.4790  222.6580 C   0  0  0  0  0  0  0  0  0  0  0  0
  139.6360   78.6000  222.8230 C   0  0  0  0  0  0  0  0  0  0  0  0
  138.6810   78.8640  221.8270 C   0  0  0  0  0  0  0  0  0  0  0  0
  137.7640   79.9070  221.9910 C   0  0  0  0  0  0  0  0  0  0  0  0
  137.7910   80.6890  223.1490 C   0  0  0  0  0  0  0  0  0  0  0  0
  138.7330   80.4280  224.1470 C   0  0  0  0  0  0  0  0  0  0  0  0
  139.6520   79.3860  223.9890 C   0  0  0  0  0  0  0  0  0  0  0  0
  139.4030   75.3000  221.7420 S   0  0  0  0  0  0  0  0  0  0  0  0
  138.6430   74.6870  220.2510 C   0  0  0  0  0  0  0  0  0  0  0  0
  140.2630   74.2160  222.3310 O   0  0  0  0  0  0  0  0  0  0  0  0
  138.3060   75.6390  222.7120 O   0  0  0  0  0  0  0  0  0  0  0  0
  142.4600   79.9490  221.8420 C   0  0  0  0  0  0  0  0  0  0  0  0
  142.3005   80.8773  225.0110 H   0  0  0  0  0  0  0  0  0  0  0  0
  143.3598   79.6397  224.2540 H   0  0  0  0  0  0  0  0  0  0  0  0
  143.8543   81.3666  224.2540 H   0  0  0  0  0  0  0  0  0  0  0  0
  141.4290   82.7733  223.4585 H   0  0  0  0  0  0  0  0  0  0  0  0
  139.7975   83.8974  222.2279 H   0  0  0  0  0  0  0  0  0  0  0  0
  140.6506   84.2359  220.6838 H   0  0  0  0  0  0  0  0  0  0  0  0
  139.1530   83.2439  220.6838 H   0  0  0  0  0  0  0  0  0  0  0  0
  139.3825   81.8889  219.1853 H   0  0  0  0  0  0  0  0  0  0  0  0
  140.9791   82.2915  218.4674 H   0  0  0  0  0  0  0  0  0  0  0  0
  140.3971   80.5921  218.4674 H   0  0  0  0  0  0  0  0  0  0  0  0
  140.1393   78.3434  219.7588 H   0  0  0  0  0  0  0  0  0  0  0  0
  140.7964   78.4112  218.0753 H   0  0  0  0  0  0  0  0  0  0  0  0
  140.9755   76.1338  218.7083 H   0  0  0  0  0  0  0  0  0  0  0  0
  142.6417   76.8430  218.9246 H   0  0  0  0  0  0  0  0  0  0  0  0
  141.7554   75.2535  220.7677 H   0  0  0  0  0  0  0  0  0  0  0  0
  142.4865   76.8154  221.2649 H   0  0  0  0  0  0  0  0  0  0  0  0
  140.5439   76.7952  223.5156 H   0  0  0  0  0  0  0  0  0  0  0  0
  141.6385   77.9104  222.6064 H   0  0  0  0  0  0  0  0  0  0  0  0
  138.6545   78.2486  220.9156 H   0  0  0  0  0  0  0  0  0  0  0  0
  137.0201   80.1123  221.2071 H   0  0  0  0  0  0  0  0  0  0  0  0
  137.0702   81.5104  223.2746 H   0  0  0  0  0  0  0  0  0  0  0  0
  138.7519   81.0432  225.0587 H   0  0  0  0  0  0  0  0  0  0  0  0
  140.3894   79.1806  224.7789 H   0  0  0  0  0  0  0  0  0  0  0  0
  137.8113   74.0162  220.5124 H   0  0  0  0  0  0  0  0  0  0  0  0
  138.2604   75.5323  219.6602 H   0  0  0  0  0  0  0  0  0  0  0  0
  139.3882   74.1342  219.6602 H   0  0  0  0  0  0  0  0  0  0  0  0
  143.0677   79.0480  222.0119 H   0  0  0  0  0  0  0  0  0  0  0  0
  1  2  1  0
  2  3  2  0
  3  4  1  0
  4  5  1  0
  4  6  2  0
  6  7  1  0
  6  8  1  0
  8  9  1  0
  9 10  1  0
 10 11  1  0
 11 12  1  0
 12 13  1  0
 13 14  1  0
 14 15  1  0
 15 16  2  0
 16 17  1  0
 17 18  2  0
 18 19  1  0
 19 20  2  0
 13 21  1  0
 21 22  1  0
 21 23  2  0
 21 24  2  0
  8 25  2  0
 25  2  1  0
 20 15  1  0
  1 26  1  0
  1 27  1  0
  1 28  1  0
  3 29  1  0
  5 30  1  0
  5 31  1  0
  5 32  1  0
  7 33  1  0
  7 34  1  0
  7 35  1  0
 10 36  1  0
 10 37  1  0
 11 38  1  0
 11 39  1  0
 12 40  1  0
 12 41  1  0
 14 42  1  0
 14 43  1  0
 16 44  1  0
 17 45  1  0
 18 46  1  0
 19 47  1  0
 20 48  1  0
 22 49  1  0
 22 50  1  0
 22 51  1  0
 25 52  1  0
M  END
>  <UniqueID>  (12) 
14

>  <SMILES>  (12) 
Cc1cc(C)c(C)c(OCCCN(Cc2ccccc2)S(C)(=O)=O)c1

>  <Energy>  (12) 
47.23074631624768

>  <Genealogy>  (12) 
Cc1cc(C)c(C)c(OCCCN(Cc2ccccc2)S(C)(=O)=O)c1 (3D coordinates assigned)
Cc1cc(C)c(C)c(OCCCN(Cc2ccccc2)S(C)(=O)=O)c1 (optimized conformer: 47.23074631624768 kcal/mol)

>  <smiles>  (12) 
Cc1cc(C)c(C)c(OCCCN(Cc2ccccc2)S(C)(=O)=O)c1

>  <score_type>  (12) 
oracle

>  <origin>  (12) 
autodockgpu

>  <m_score__min__energy>  (12) 
-7.3600000000000003

>  <m_primary>  (12) 
energy

>  <meeko>  (12) 
{"free_energy": -4.94, "intermolecular_energy": -7.32, "internal_energy": -2.48, "cluster_size": 4, "cluster_id": 5, "rank_in_cluster": 3}

>  <energy>  (12) 
-6.46

>  <cluster_rmsd>  (12) 
1.03

>  <rmsd>  (12) 
269.57

>  <cluster>  (12) 
1

$$$$
SYIYTKFSEXLBKJ-UHFFFAOYNA-N
     RDKit          3D

 52 53  0  0  0  0  0  0  0  0999 V2000
  143.5970   75.3200  218.3940 C   0  0  0  0  0  0  0  0  0  0  0  0
  142.7060   75.7650  219.5170 C   0  0  0  0  0  0  0  0  0  0  0  0
  142.5680   77.1250  219.8090 C   0  0  0  0  0  0  0  0  0  0  0  0
  141.7180   77.5560  220.8380 C   0  0  0  0  0  0  0  0  0  0  0  0
  141.6140   79.0320  221.1250 C   0  0  0  0  0  0  0  0  0  0  0  0
  140.9460   76.6060  221.5520 C   0  0  0  0  0  0  0  0  0  0  0  0
  140.0050   77.0540  222.6480 C   0  0  0  0  0  0  0  0  0  0  0  0
  141.0750   75.2320  221.2520 C   0  0  0  0  0  0  0  0  0  0  0  0
  140.3220   74.3010  221.9900 O   0  0  0  0  0  0  0  0  0  0  0  0
  139.7880   73.0650  221.5100 C   0  0  0  0  0  0  0  0  0  0  0  0
  140.1220   71.9100  222.4650 C   0  0  0  0  0  0  0  0  0  0  0  0
  138.9460   70.9560  222.6870 C   0  0  0  0  0  0  0  0  0  0  0  0
  138.9810   70.4520  224.0780 N   0  0  0  0  0  0  0  0  0  0  0  0
  140.3690   70.2560  224.5460 C   0  0  0  0  0  0  0  0  0  0  0  0
  140.5300   70.7180  225.9710 C   0  0  0  0  0  0  0  0  0  0  0  0
  139.9150   70.0190  227.0230 C   0  0  0  0  0  0  0  0  0  0  0  0
  140.0710   70.4560  228.3420 C   0  0  0  0  0  0  0  0  0  0  0  0
  140.8440   71.5870  228.6200 C   0  0  0  0  0  0  0  0  0  0  0  0
  141.4640   72.2830  227.5790 C   0  0  0  0  0  0  0  0  0  0  0  0
  141.3110   71.8510  226.2580 C   0  0  0  0  0  0  0  0  0  0  0  0
  138.0690   68.9570  224.2140 S   0  0  0  0  0  0  0  0  0  0  0  0
  136.4770   69.2470  224.9610 C   0  0  0  0  0  0  0  0  0  0  0  0
  137.8650   68.3530  222.8520 O   0  0  0  0  0  0  0  0  0  0  0  0
  138.8130   67.9790  225.0790 O   0  0  0  0  0  0  0  0  0  0  0  0
  141.9580   74.8250  220.2340 C   0  0  0  0  0  0  0  0  0  0  0  0
  144.5088   74.8646  218.8078 H   0  0  0  0  0  0  0  0  0  0  0  0
  143.0663   74.5811  217.7756 H   0  0  0  0  0  0  0  0  0  0  0  0
  143.8689   76.1881  217.7756 H   0  0  0  0  0  0  0  0  0  0  0  0
  143.1329   77.8662  219.2247 H   0  0  0  0  0  0  0  0  0  0  0  0
  141.6026   79.1941  222.2129 H   0  0  0  0  0  0  0  0  0  0  0  0
  142.4777   79.5527  220.6858 H   0  0  0  0  0  0  0  0  0  0  0  0
  140.6858   79.4264  220.6858 H   0  0  0  0  0  0  0  0  0  0  0  0
  140.4554   76.8396  223.6284 H   0  0  0  0  0  0  0  0  0  0  0  0
  139.8237   78.1351  222.5564 H   0  0  0  0  0  0  0  0  0  0  0  0
  139.0515   76.5132  222.5564 H   0  0  0  0  0  0  0  0  0  0  0  0
  138.6951   73.1552  221.4239 H   0  0  0  0  0  0  0  0  0  0  0  0
  140.2367   72.8481  220.5294 H   0  0  0  0  0  0  0  0  0  0  0  0
  140.9618   71.3384  222.0430 H   0  0  0  0  0  0  0  0  0  0  0  0
  140.3741   72.3527  223.4399 H   0  0  0  0  0  0  0  0  0  0  0  0
  138.0008   71.4913  222.5138 H   0  0  0  0  0  0  0  0  0  0  0  0
  139.0199   70.1108  221.9868 H   0  0  0  0  0  0  0  0  0  0  0  0
  140.6218   69.1872  224.4839 H   0  0  0  0  0  0  0  0  0  0  0  0
  141.0405   70.8492  223.9079 H   0  0  0  0  0  0  0  0  0  0  0  0
  139.3095   69.1260  226.8086 H   0  0  0  0  0  0  0  0  0  0  0  0
  139.5844   69.9086  229.1627 H   0  0  0  0  0  0  0  0  0  0  0  0
  140.9642   71.9292  229.6585 H   0  0  0  0  0  0  0  0  0  0  0  0
  142.0733   73.1720  227.7990 H   0  0  0  0  0  0  0  0  0  0  0  0
  141.8031   72.3992  225.4411 H   0  0  0  0  0  0  0  0  0  0  0  0
  136.5771   69.2288  226.0563 H   0  0  0  0  0  0  0  0  0  0  0  0
  136.0966   70.2292  224.6439 H   0  0  0  0  0  0  0  0  0  0  0  0
  135.7747   68.4620  224.6439 H   0  0  0  0  0  0  0  0  0  0  0  0
  142.0611   73.7552  219.9995 H   0  0  0  0  0  0  0  0  0  0  0  0
  1  2  1  0
  2  3  2  0
  3  4  1  0
  4  5  1  0
  4  6  2  0
  6  7  1  0
  6  8  1  0
  8  9  1  0
  9 10  1  0
 10 11  1  0
 11 12  1  0
 12 13  1  0
 13 14  1  0
 14 15  1  0
 15 16  2  0
 16 17  1  0
 17 18  2  0
 18 19  1  0
 19 20  2  0
 13 21  1  0
 21 22  1  0
 21 23  2  0
 21 24  2  0
  8 25  2  0
 25  2  1  0
 20 15  1  0
  1 26  1  0
  1 27  1  0
  1 28  1  0
  3 29  1  0
  5 30  1  0
  5 31  1  0
  5 32  1  0
  7 33  1  0
  7 34  1  0
  7 35  1  0
 10 36  1  0
 10 37  1  0
 11 38  1  0
 11 39  1  0
 12 40  1  0
 12 41  1  0
 14 42  1  0
 14 43  1  0
 16 44  1  0
 17 45  1  0
 18 46  1  0
 19 47  1  0
 20 48  1  0
 22 49  1  0
 22 50  1  0
 22 51  1  0
 25 52  1  0
M  END
>  <UniqueID>  (13) 
14

>  <SMILES>  (13) 
Cc1cc(C)c(C)c(OCCCN(Cc2ccccc2)S(C)(=O)=O)c1

>  <Energy>  (13) 
47.23074631624768

>  <Genealogy>  (13) 
Cc1cc(C)c(C)c(OCCCN(Cc2ccccc2)S(C)(=O)=O)c1 (3D coordinates assigned)
Cc1cc(C)c(C)c(OCCCN(Cc2ccccc2)S(C)(=O)=O)c1 (optimized conformer: 47.23074631624768 kcal/mol)

>  <smiles>  (13) 
Cc1cc(C)c(C)c(OCCCN(Cc2ccccc2)S(C)(=O)=O)c1

>  <score_type>  (13) 
oracle

>  <origin>  (13) 
autodockgpu

>  <m_score__min__energy>  (13) 
-7.3600000000000003

>  <m_primary>  (13) 
energy

>  <meeko>  (13) 
{"free_energy": -7.16, "intermolecular_energy": -9.54, "internal_energy": -0.89, "cluster_size": 12, "cluster_id": 1, "rank_in_cluster": 4}

>  <energy>  (13) 
-6.8

>  <cluster_rmsd>  (13) 
0.0

>  <rmsd>  (13) 
269.6

>  <cluster>  (13) 
2

$$$$
SYIYTKFSEXLBKJ-UHFFFAOYNA-N
     RDKit          3D

 52 53  0  0  0  0  0  0  0  0999 V2000
  142.1900   79.0180  222.6050 C   0  0  0  0  0  0  0  0  0  0  0  0
  140.9170   78.2250  222.6160 C   0  0  0  0  0  0  0  0  0  0  0  0
  139.6820   78.8780  222.6780 C   0  0  0  0  0  0  0  0  0  0  0  0
  138.4830   78.1500  222.6600 C   0  0  0  0  0  0  0  0  0  0  0  0
  137.1770   78.8970  222.7430 C   0  0  0  0  0  0  0  0  0  0  0  0
  138.5220   76.7400  222.5220 C   0  0  0  0  0  0  0  0  0  0  0  0
  137.2400   75.9400  222.4760 C   0  0  0  0  0  0  0  0  0  0  0  0
  139.7690   76.0780  222.4490 C   0  0  0  0  0  0  0  0  0  0  0  0
  139.7880   74.6760  222.3410 O   0  0  0  0  0  0  0  0  0  0  0  0
  140.7620   73.8890  221.6500 C   0  0  0  0  0  0  0  0  0  0  0  0
  140.5640   72.3930  221.9310 C   0  0  0  0  0  0  0  0  0  0  0  0
  139.1660   72.0610  222.4590 C   0  0  0  0  0  0  0  0  0  0  0  0
  139.2810   71.4800  223.8150 N   0  0  0  0  0  0  0  0  0  0  0  0
  140.6930   71.2610  224.1900 C   0  0  0  0  0  0  0  0  0  0  0  0
  140.8150   70.8820  225.6430 C   0  0  0  0  0  0  0  0  0  0  0  0
  140.8080   71.8690  226.6420 C   0  0  0  0  0  0  0  0  0  0  0  0
  140.9220   71.5070  227.9880 C   0  0  0  0  0  0  0  0  0  0  0  0
  141.0370   70.1610  228.3460 C   0  0  0  0  0  0  0  0  0  0  0  0
  141.0370   69.1730  227.3570 C   0  0  0  0  0  0  0  0  0  0  0  0
  140.9240   69.5290  226.0100 C   0  0  0  0  0  0  0  0  0  0  0  0
  138.3770   69.9780  223.9180 S   0  0  0  0  0  0  0  0  0  0  0  0
  136.8750   70.0700  222.9620 C   0  0  0  0  0  0  0  0  0  0  0  0
  139.2120   68.8370  223.4040 O   0  0  0  0  0  0  0  0  0  0  0  0
  137.9980   69.7040  225.3470 O   0  0  0  0  0  0  0  0  0  0  0  0
  140.9570   76.8310  222.4980 C   0  0  0  0  0  0  0  0  0  0  0  0
  142.5077   79.2159  223.6394 H   0  0  0  0  0  0  0  0  0  0  0  0
  142.9729   78.4475  222.0838 H   0  0  0  0  0  0  0  0  0  0  0  0
  142.0231   79.9722  222.0838 H   0  0  0  0  0  0  0  0  0  0  0  0
  139.6503   79.9757  222.7416 H   0  0  0  0  0  0  0  0  0  0  0  0
  136.9088   79.0504  223.7987 H   0  0  0  0  0  0  0  0  0  0  0  0
  137.2803   79.8726  222.2454 H   0  0  0  0  0  0  0  0  0  0  0  0
  136.3885   78.3133  222.2454 H   0  0  0  0  0  0  0  0  0  0  0  0
  136.9023   75.7293  223.5015 H   0  0  0  0  0  0  0  0  0  0  0  0
  136.4670   76.5163  221.9465 H   0  0  0  0  0  0  0  0  0  0  0  0
  137.4179   74.9924  221.9465 H   0  0  0  0  0  0  0  0  0  0  0  0
  140.6664   74.0672  220.5687 H   0  0  0  0  0  0  0  0  0  0  0  0
  141.7619   74.1815  222.0031 H   0  0  0  0  0  0  0  0  0  0  0  0
  140.7263   71.8367  220.9960 H   0  0  0  0  0  0  0  0  0  0  0  0
  141.2854   72.1075  222.7107 H   0  0  0  0  0  0  0  0  0  0  0  0
  138.5620   72.9793  222.5026 H   0  0  0  0  0  0  0  0  0  0  0  0
  138.6807   71.3372  221.7878 H   0  0  0  0  0  0  0  0  0  0  0  0
  141.1077   70.4515  223.5714 H   0  0  0  0  0  0  0  0  0  0  0  0
  141.2478   72.1964  224.0248 H   0  0  0  0  0  0  0  0  0  0  0  0
  140.7126   72.9293  226.3651 H   0  0  0  0  0  0  0  0  0  0  0  0
  140.9211   72.2837  228.7669 H   0  0  0  0  0  0  0  0  0  0  0  0
  141.1275   69.8791  229.4054 H   0  0  0  0  0  0  0  0  0  0  0  0
  141.1261   68.1136  227.6393 H   0  0  0  0  0  0  0  0  0  0  0  0
  140.9203   68.7485  225.2349 H   0  0  0  0  0  0  0  0  0  0  0  0
  136.0110   70.1229  223.6408 H   0  0  0  0  0  0  0  0  0  0  0  0
  136.8985   70.9684  222.3277 H   0  0  0  0  0  0  0  0  0  0  0  0
  136.7887   69.1755  222.3277 H   0  0  0  0  0  0  0  0  0  0  0  0
  141.9284   76.3179  222.4429 H   0  0  0  0  0  0  0  0  0  0  0  0
  1  2  1  0
  2  3  2  0
  3  4  1  0
  4  5  1  0
  4  6  2  0
  6  7  1  0
  6  8  1  0
  8  9  1  0
  9 10  1  0
 10 11  1  0
 11 12  1  0
 12 13  1  0
 13 14  1  0
 14 15  1  0
 15 16  2  0
 16 17  1  0
 17 18  2  0
 18 19  1  0
 19 20  2  0
 13 21  1  0
 21 22  1  0
 21 23  2  0
 21 24  2  0
  8 25  2  0
 25  2  1  0
 20 15  1  0
  1 26  1  0
  1 27  1  0
  1 28  1  0
  3 29  1  0
  5 30  1  0
  5 31  1  0
  5 32  1  0
  7 33  1  0
  7 34  1  0
  7 35  1  0
 10 36  1  0
 10 37  1  0
 11 38  1  0
 11 39  1  0
 12 40  1  0
 12 41  1  0
 14 42  1  0
 14 43  1  0
 16 44  1  0
 17 45  1  0
 18 46  1  0
 19 47  1  0
 20 48  1  0
 22 49  1  0
 22 50  1  0
 22 51  1  0
 25 52  1  0
M  END
>  <UniqueID>  (14) 
14

>  <SMILES>  (14) 
Cc1cc(C)c(C)c(OCCCN(Cc2ccccc2)S(C)(=O)=O)c1

>  <Energy>  (14) 
47.23074631624768

>  <Genealogy>  (14) 
Cc1cc(C)c(C)c(OCCCN(Cc2ccccc2)S(C)(=O)=O)c1 (3D coordinates assigned)
Cc1cc(C)c(C)c(OCCCN(Cc2ccccc2)S(C)(=O)=O)c1 (optimized conformer: 47.23074631624768 kcal/mol)

>  <smiles>  (14) 
Cc1cc(C)c(C)c(OCCCN(Cc2ccccc2)S(C)(=O)=O)c1

>  <score_type>  (14) 
oracle

>  <origin>  (14) 
autodockgpu

>  <m_score__min__energy>  (14) 
-7.3600000000000003

>  <m_primary>  (14) 
energy

>  <meeko>  (14) 
{"free_energy": -6.95, "intermolecular_energy": -9.34, "internal_energy": -1.11, "cluster_size": 12, "cluster_id": 1, "rank_in_cluster": 7}

>  <energy>  (14) 
-6.39

>  <cluster_rmsd>  (14) 
0.0

>  <rmsd>  (14) 
269.86

>  <cluster>  (14) 
3

$$$$
SYIYTKFSEXLBKJ-UHFFFAOYNA-N
     RDKit          3D

 52 53  0  0  0  0  0  0  0  0999 V2000
  140.5420   79.0970  222.5220 C   0  0  0  0  0  0  0  0  0  0  0  0
  140.9690   77.8320  221.8390 C   0  0  0  0  0  0  0  0  0  0  0  0
  141.7580   77.8860  220.6850 C   0  0  0  0  0  0  0  0  0  0  0  0
  142.1870   76.7110  220.0530 C   0  0  0  0  0  0  0  0  0  0  0  0
  143.0240   76.8210  218.8040 C   0  0  0  0  0  0  0  0  0  0  0  0
  141.8650   75.4530  220.6200 C   0  0  0  0  0  0  0  0  0  0  0  0
  142.3400   74.1750  219.9660 C   0  0  0  0  0  0  0  0  0  0  0  0
  141.0760   75.3940  221.7910 C   0  0  0  0  0  0  0  0  0  0  0  0
  140.7430   74.1360  222.3240 O   0  0  0  0  0  0  0  0  0  0  0  0
  139.6200   73.3290  221.9620 C   0  0  0  0  0  0  0  0  0  0  0  0
  139.9160   71.8390  222.1850 C   0  0  0  0  0  0  0  0  0  0  0  0
  138.6700   71.0270  222.5500 C   0  0  0  0  0  0  0  0  0  0  0  0
  138.8140   70.5040  223.9270 N   0  0  0  0  0  0  0  0  0  0  0  0
  140.2350   70.3310  224.2930 C   0  0  0  0  0  0  0  0  0  0  0  0
  140.4780   70.7330  225.7240 C   0  0  0  0  0  0  0  0  0  0  0  0
  139.9770   69.9540  226.7810 C   0  0  0  0  0  0  0  0  0  0  0  0
  140.2090   70.3350  228.1060 C   0  0  0  0  0  0  0  0  0  0  0  0
  140.9440   71.4910  228.3850 C   0  0  0  0  0  0  0  0  0  0  0  0
  141.4510   72.2670  227.3390 C   0  0  0  0  0  0  0  0  0  0  0  0
  141.2220   71.8900  226.0120 C   0  0  0  0  0  0  0  0  0  0  0  0
  137.9440   68.9890  224.1020 S   0  0  0  0  0  0  0  0  0  0  0  0
  136.4020   69.2340  224.9620 C   0  0  0  0  0  0  0  0  0  0  0  0
  137.6590   68.3990  222.7480 O   0  0  0  0  0  0  0  0  0  0  0  0
  138.7660   68.0150  224.8990 O   0  0  0  0  0  0  0  0  0  0  0  0
  140.6350   76.5900  222.3890 C   0  0  0  0  0  0  0  0  0  0  0  0
  140.5887   78.9588  223.6123 H   0  0  0  0  0  0  0  0  0  0  0  0
  141.2131   79.9173  222.2273 H   0  0  0  0  0  0  0  0  0  0  0  0
  139.5111   79.3428  222.2273 H   0  0  0  0  0  0  0  0  0  0  0  0
  142.0452   78.8628  220.2685 H   0  0  0  0  0  0  0  0  0  0  0  0
  144.0795   76.9597  219.0810 H   0  0  0  0  0  0  0  0  0  0  0  0
  142.9187   75.9013  218.2098 H   0  0  0  0  0  0  0  0  0  0  0  0
  142.6846   77.6823  218.2098 H   0  0  0  0  0  0  0  0  0  0  0  0
  142.6114   73.4447  220.7425 H   0  0  0  0  0  0  0  0  0  0  0  0
  141.5352   73.7624  219.3399 H   0  0  0  0  0  0  0  0  0  0  0  0
  143.2189   74.3882  219.3399 H   0  0  0  0  0  0  0  0  0  0  0  0
  138.7555   73.6196  222.5770 H   0  0  0  0  0  0  0  0  0  0  0  0
  139.4055   73.4869  220.8948 H   0  0  0  0  0  0  0  0  0  0  0  0
  140.3451   71.4252  221.2606 H   0  0  0  0  0  0  0  0  0  0  0  0
  140.6144   71.7665  223.0318 H   0  0  0  0  0  0  0  0  0  0  0  0
  137.7810   71.6723  222.4930 H   0  0  0  0  0  0  0  0  0  0  0  0
  138.5572   70.1886  221.8469 H   0  0  0  0  0  0  0  0  0  0  0  0
  140.5133   69.2746  224.1642 H   0  0  0  0  0  0  0  0  0  0  0  0
  140.8450   70.9733  223.6408 H   0  0  0  0  0  0  0  0  0  0  0  0
  139.4008   69.0421  226.5653 H   0  0  0  0  0  0  0  0  0  0  0  0
  139.8125   69.7241  228.9304 H   0  0  0  0  0  0  0  0  0  0  0  0
  141.1234   71.7900  229.4283 H   0  0  0  0  0  0  0  0  0  0  0  0
  142.0308   73.1753  227.5598 H   0  0  0  0  0  0  0  0  0  0  0  0
  141.6254   72.5009  225.1910 H   0  0  0  0  0  0  0  0  0  0  0  0
  136.5790   69.2059  226.0473 H   0  0  0  0  0  0  0  0  0  0  0  0
  135.9787   70.2107  224.6847 H   0  0  0  0  0  0  0  0  0  0  0  0
  135.6968   68.4366  224.6847 H   0  0  0  0  0  0  0  0  0  0  0  0
  140.0201   76.5471  223.3001 H   0  0  0  0  0  0  0  0  0  0  0  0
  1  2  1  0
  2  3  2  0
  3  4  1  0
  4  5  1  0
  4  6  2  0
  6  7  1  0
  6  8  1  0
  8  9  1  0
  9 10  1  0
 10 11  1  0
 11 12  1  0
 12 13  1  0
 13 14  1  0
 14 15  1  0
 15 16  2  0
 16 17  1  0
 17 18  2  0
 18 19  1  0
 19 20  2  0
 13 21  1  0
 21 22  1  0
 21 23  2  0
 21 24  2  0
  8 25  2  0
 25  2  1  0
 20 15  1  0
  1 26  1  0
  1 27  1  0
  1 28  1  0
  3 29  1  0
  5 30  1  0
  5 31  1  0
  5 32  1  0
  7 33  1  0
  7 34  1  0
  7 35  1  0
 10 36  1  0
 10 37  1  0
 11 38  1  0
 11 39  1  0
 12 40  1  0
 12 41  1  0
 14 42  1  0
 14 43  1  0
 16 44  1  0
 17 45  1  0
 18 46  1  0
 19 47  1  0
 20 48  1  0
 22 49  1  0
 22 50  1  0
 22 51  1  0
 25 52  1  0
M  END
>  <UniqueID>  (15) 
14

>  <SMILES>  (15) 
Cc1cc(C)c(C)c(OCCCN(Cc2ccccc2)S(C)(=O)=O)c1

>  <Energy>  (15) 
47.23074631624768

>  <Genealogy>  (15) 
Cc1cc(C)c(C)c(OCCCN(Cc2ccccc2)S(C)(=O)=O)c1 (3D coordinates assigned)
Cc1cc(C)c(C)c(OCCCN(Cc2ccccc2)S(C)(=O)=O)c1 (optimized conformer: 47.23074631624768 kcal/mol)

>  <smiles>  (15) 
Cc1cc(C)c(C)c(OCCCN(Cc2ccccc2)S(C)(=O)=O)c1

>  <score_type>  (15) 
oracle

>  <origin>  (15) 
autodockgpu

>  <m_score__min__energy>  (15) 
-7.3600000000000003

>  <m_primary>  (15) 
energy

>  <meeko>  (15) 
{"free_energy": -7.36, "intermolecular_energy": -9.75, "internal_energy": -0.95, "cluster_size": 12, "cluster_id": 1, "rank_in_cluster": 1}

>  <energy>  (15) 
-6.25

>  <cluster_rmsd>  (15) 
0.0

>  <rmsd>  (15) 
269.6

>  <cluster>  (15) 
4

$$$$
SYIYTKFSEXLBKJ-UHFFFAOYNA-N
     RDKit          3D

 52 53  0  0  0  0  0  0  0  0999 V2000
  140.5310   78.6890  222.8470 C   0  0  0  0  0  0  0  0  0  0  0  0
  140.9880   77.5590  221.9720 C   0  0  0  0  0  0  0  0  0  0  0  0
  141.7580   77.8180  220.8340 C   0  0  0  0  0  0  0  0  0  0  0  0
  142.2150   76.7690  220.0230 C   0  0  0  0  0  0  0  0  0  0  0  0
  143.0310   77.0990  218.7980 C   0  0  0  0  0  0  0  0  0  0  0  0
  141.9410   75.4290  220.3910 C   0  0  0  0  0  0  0  0  0  0  0  0
  142.4460   74.2840  219.5420 C   0  0  0  0  0  0  0  0  0  0  0  0
  141.1710   75.1630  221.5460 C   0  0  0  0  0  0  0  0  0  0  0  0
  140.8850   73.8280  221.8800 O   0  0  0  0  0  0  0  0  0  0  0  0
  139.6330   73.3150  222.3410 C   0  0  0  0  0  0  0  0  0  0  0  0
  139.2370   72.0480  221.5690 C   0  0  0  0  0  0  0  0  0  0  0  0
  139.6200   70.7570  222.2980 C   0  0  0  0  0  0  0  0  0  0  0  0
  139.0960   70.8030  223.6810 N   0  0  0  0  0  0  0  0  0  0  0  0
  139.7650   69.8070  224.5440 C   0  0  0  0  0  0  0  0  0  0  0  0
  140.2260   70.4330  225.8350 C   0  0  0  0  0  0  0  0  0  0  0  0
  141.0370   71.5800  225.8240 C   0  0  0  0  0  0  0  0  0  0  0  0
  141.4600   72.1530  227.0270 C   0  0  0  0  0  0  0  0  0  0  0  0
  141.0720   71.5900  228.2470 C   0  0  0  0  0  0  0  0  0  0  0  0
  140.2590   70.4540  228.2650 C   0  0  0  0  0  0  0  0  0  0  0  0
  139.8340   69.8760  227.0650 C   0  0  0  0  0  0  0  0  0  0  0  0
  137.3580   70.5540  223.6890 S   0  0  0  0  0  0  0  0  0  0  0  0
  136.9010   69.2750  224.8430 C   0  0  0  0  0  0  0  0  0  0  0  0
  136.6560   71.8280  224.0710 O   0  0  0  0  0  0  0  0  0  0  0  0
  136.8940   70.1290  222.3240 O   0  0  0  0  0  0  0  0  0  0  0  0
  140.7010   76.2370  222.3260 C   0  0  0  0  0  0  0  0  0  0  0  0
  140.6461   78.4045  223.9033 H   0  0  0  0  0  0  0  0  0  0  0  0
  141.1386   79.5822  222.6396 H   0  0  0  0  0  0  0  0  0  0  0  0
  139.4733   78.9087  222.6396 H   0  0  0  0  0  0  0  0  0  0  0  0
  142.0082   78.8566  220.5718 H   0  0  0  0  0  0  0  0  0  0  0  0
  144.0101   77.4950  219.1054 H   0  0  0  0  0  0  0  0  0  0  0  0
  143.1757   76.1887  218.1976 H   0  0  0  0  0  0  0  0  0  0  0  0
  142.5022   77.8540  218.1976 H   0  0  0  0  0  0  0  0  0  0  0  0
  142.8034   73.4736  220.1944 H   0  0  0  0  0  0  0  0  0  0  0  0
  141.6292   73.9103  218.9070 H   0  0  0  0  0  0  0  0  0  0  0  0
  143.2727   74.6352  218.9070 H   0  0  0  0  0  0  0  0  0  0  0  0
  139.7160   73.0727  223.4108 H   0  0  0  0  0  0  0  0  0  0  0  0
  138.8600   74.0802  222.1768 H   0  0  0  0  0  0  0  0  0  0  0  0
  138.1473   72.0555  221.4191 H   0  0  0  0  0  0  0  0  0  0  0  0
  139.7838   72.0607  220.6146 H   0  0  0  0  0  0  0  0  0  0  0  0
  139.1877   69.8945  221.7697 H   0  0  0  0  0  0  0  0  0  0  0  0
  140.7153   70.6581  222.3218 H   0  0  0  0  0  0  0  0  0  0  0  0
  139.0584   68.9949  224.7703 H   0  0  0  0  0  0  0  0  0  0  0  0
  140.6441   69.4159  224.0109 H   0  0  0  0  0  0  0  0  0  0  0  0
  141.3400   72.0284  224.8664 H   0  0  0  0  0  0  0  0  0  0  0  0
  142.0991   73.0482  227.0139 H   0  0  0  0  0  0  0  0  0  0  0  0
  141.4070   72.0416  229.1924 H   0  0  0  0  0  0  0  0  0  0  0  0
  139.9526   70.0134  229.2252 H   0  0  0  0  0  0  0  0  0  0  0  0
  139.1914   68.9834  227.0832 H   0  0  0  0  0  0  0  0  0  0  0  0
  137.0329   69.6442  225.8707 H   0  0  0  0  0  0  0  0  0  0  0  0
  135.8482   68.9979  224.6853 H   0  0  0  0  0  0  0  0  0  0  0  0
  137.5398   68.3935  224.6853 H   0  0  0  0  0  0  0  0  0  0  0  0
  140.1006   76.0335  223.2250 H   0  0  0  0  0  0  0  0  0  0  0  0
  1  2  1  0
  2  3  2  0
  3  4  1  0
  4  5  1  0
  4  6  2  0
  6  7  1  0
  6  8  1  0
  8  9  1  0
  9 10  1  0
 10 11  1  0
 11 12  1  0
 12 13  1  0
 13 14  1  0
 14 15  1  0
 15 16  2  0
 16 17  1  0
 17 18  2  0
 18 19  1  0
 19 20  2  0
 13 21  1  0
 21 22  1  0
 21 23  2  0
 21 24  2  0
  8 25  2  0
 25  2  1  0
 20 15  1  0
  1 26  1  0
  1 27  1  0
  1 28  1  0
  3 29  1  0
  5 30  1  0
  5 31  1  0
  5 32  1  0
  7 33  1  0
  7 34  1  0
  7 35  1  0
 10 36  1  0
 10 37  1  0
 11 38  1  0
 11 39  1  0
 12 40  1  0
 12 41  1  0
 14 42  1  0
 14 43  1  0
 16 44  1  0
 17 45  1  0
 18 46  1  0
 19 47  1  0
 20 48  1  0
 22 49  1  0
 22 50  1  0
 22 51  1  0
 25 52  1  0
M  END
>  <UniqueID>  (16) 
14

>  <SMILES>  (16) 
Cc1cc(C)c(C)c(OCCCN(Cc2ccccc2)S(C)(=O)=O)c1

>  <Energy>  (16) 
47.23074631624768

>  <Genealogy>  (16) 
Cc1cc(C)c(C)c(OCCCN(Cc2ccccc2)S(C)(=O)=O)c1 (3D coordinates assigned)
Cc1cc(C)c(C)c(OCCCN(Cc2ccccc2)S(C)(=O)=O)c1 (optimized conformer: 47.23074631624768 kcal/mol)

>  <smiles>  (16) 
Cc1cc(C)c(C)c(OCCCN(Cc2ccccc2)S(C)(=O)=O)c1

>  <score_type>  (16) 
oracle

>  <origin>  (16) 
autodockgpu

>  <m_score__min__energy>  (16) 
-7.3600000000000003

>  <m_primary>  (16) 
energy

>  <meeko>  (16) 
{"free_energy": -6.46, "intermolecular_energy": -8.84, "internal_energy": -1.06, "cluster_size": 12, "cluster_id": 1, "rank_in_cluster": 12}

>  <energy>  (16) 
-6.17

>  <cluster_rmsd>  (16) 
0.47

>  <rmsd>  (16) 
269.59

>  <cluster>  (16) 
4

$$$$
SYIYTKFSEXLBKJ-UHFFFAOYNA-N
     RDKit          3D

 52 53  0  0  0  0  0  0  0  0999 V2000
  144.7860   73.8050  219.7440 C   0  0  0  0  0  0  0  0  0  0  0  0
  143.5750   74.6110  220.1120 C   0  0  0  0  0  0  0  0  0  0  0  0
  143.4360   75.9230  219.6500 C   0  0  0  0  0  0  0  0  0  0  0  0
  142.2960   76.6780  219.9640 C   0  0  0  0  0  0  0  0  0  0  0  0
  142.1980   78.0930  219.4540 C   0  0  0  0  0  0  0  0  0  0  0  0
  141.2490   76.0860  220.7120 C   0  0  0  0  0  0  0  0  0  0  0  0
  140.0020   76.8760  221.0400 C   0  0  0  0  0  0  0  0  0  0  0  0
  141.3820   74.7570  221.1720 C   0  0  0  0  0  0  0  0  0  0  0  0
  140.3440   74.1950  221.9370 O   0  0  0  0  0  0  0  0  0  0  0  0
  139.4990   73.1060  221.5560 C   0  0  0  0  0  0  0  0  0  0  0  0
  139.7630   71.8710  222.4300 C   0  0  0  0  0  0  0  0  0  0  0  0
  138.4960   71.3190  223.0880 C   0  0  0  0  0  0  0  0  0  0  0  0
  138.8730   70.3320  224.1250 N   0  0  0  0  0  0  0  0  0  0  0  0
  140.3070   70.4290  224.4650 C   0  0  0  0  0  0  0  0  0  0  0  0
  140.4960   70.8120  225.9090 C   0  0  0  0  0  0  0  0  0  0  0  0
  139.9210   70.0430  226.9350 C   0  0  0  0  0  0  0  0  0  0  0  0
  140.1020   70.4060  228.2720 C   0  0  0  0  0  0  0  0  0  0  0  0
  140.8610   71.5340  228.5960 C   0  0  0  0  0  0  0  0  0  0  0  0
  141.4430   72.3000  227.5820 C   0  0  0  0  0  0  0  0  0  0  0  0
  141.2640   71.9410  226.2430 C   0  0  0  0  0  0  0  0  0  0  0  0
  138.4740   68.7050  223.5980 S   0  0  0  0  0  0  0  0  0  0  0  0
  136.7270   68.5490  223.2780 C   0  0  0  0  0  0  0  0  0  0  0  0
  139.2310   68.3700  222.3430 O   0  0  0  0  0  0  0  0  0  0  0  0
  138.8360   67.7160  224.6700 O   0  0  0  0  0  0  0  0  0  0  0  0
  142.5490   74.0310  220.8660 C   0  0  0  0  0  0  0  0  0  0  0  0
  145.2936   73.4671  220.6595 H   0  0  0  0  0  0  0  0  0  0  0  0
  144.4784   72.9308  219.1514 H   0  0  0  0  0  0  0  0  0  0  0  0
  145.4737   74.4262  219.1514 H   0  0  0  0  0  0  0  0  0  0  0  0
  144.2300   76.3688  219.0328 H   0  0  0  0  0  0  0  0  0  0  0  0
  142.1499   78.7873  220.3059 H   0  0  0  0  0  0  0  0  0  0  0  0
  143.0823   78.3242  218.8420 H   0  0  0  0  0  0  0  0  0  0  0  0
  141.2903   78.2001  218.8420 H   0  0  0  0  0  0  0  0  0  0  0  0
  139.8897   76.9472  222.1319 H   0  0  0  0  0  0  0  0  0  0  0  0
  140.0853   77.8865  220.6133 H   0  0  0  0  0  0  0  0  0  0  0  0
  139.1240   76.3690  220.6133 H   0  0  0  0  0  0  0  0  0  0  0  0
  138.4479   73.4094  221.6705 H   0  0  0  0  0  0  0  0  0  0  0  0
  139.7138   72.8461  220.5089 H   0  0  0  0  0  0  0  0  0  0  0  0
  140.2017   71.0834  221.7997 H   0  0  0  0  0  0  0  0  0  0  0  0
  140.4438   72.1798  223.2370 H   0  0  0  0  0  0  0  0  0  0  0  0
  137.9342   72.1430  223.5521 H   0  0  0  0  0  0  0  0  0  0  0  0
  137.8680   70.8323  222.3273 H   0  0  0  0  0  0  0  0  0  0  0  0
  140.7856   69.4549  224.2859 H   0  0  0  0  0  0  0  0  0  0  0  0
  140.7643   71.2056  223.8343 H   0  0  0  0  0  0  0  0  0  0  0  0
  139.3263   69.1521  226.6846 H   0  0  0  0  0  0  0  0  0  0  0  0
  139.6463   69.8029  229.0711 H   0  0  0  0  0  0  0  0  0  0  0  0
  141.0004   71.8190  229.6492 H   0  0  0  0  0  0  0  0  0  0  0  0
  142.0424   73.1861  227.8380 H   0  0  0  0  0  0  0  0  0  0  0  0
  141.7259   72.5443  225.4476 H   0  0  0  0  0  0  0  0  0  0  0  0
  136.1823   68.5004  224.2324 H   0  0  0  0  0  0  0  0  0  0  0  0
  136.3805   69.4198  222.7021 H   0  0  0  0  0  0  0  0  0  0  0  0
  136.5403   67.6306  222.7021 H   0  0  0  0  0  0  0  0  0  0  0  0
  142.6552   72.9962  221.2237 H   0  0  0  0  0  0  0  0  0  0  0  0
  1  2  1  0
  2  3  2  0
  3  4  1  0
  4  5  1  0
  4  6  2  0
  6  7  1  0
  6  8  1  0
  8  9  1  0
  9 10  1  0
 10 11  1  0
 11 12  1  0
 12 13  1  0
 13 14  1  0
 14 15  1  0
 15 16  2  0
 16 17  1  0
 17 18  2  0
 18 19  1  0
 19 20  2  0
 13 21  1  0
 21 22  1  0
 21 23  2  0
 21 24  2  0
  8 25  2  0
 25  2  1  0
 20 15  1  0
  1 26  1  0
  1 27  1  0
  1 28  1  0
  3 29  1  0
  5 30  1  0
  5 31  1  0
  5 32  1  0
  7 33  1  0
  7 34  1  0
  7 35  1  0
 10 36  1  0
 10 37  1  0
 11 38  1  0
 11 39  1  0
 12 40  1  0
 12 41  1  0
 14 42  1  0
 14 43  1  0
 16 44  1  0
 17 45  1  0
 18 46  1  0
 19 47  1  0
 20 48  1  0
 22 49  1  0
 22 50  1  0
 22 51  1  0
 25 52  1  0
M  END
>  <UniqueID>  (17) 
14

>  <SMILES>  (17) 
Cc1cc(C)c(C)c(OCCCN(Cc2ccccc2)S(C)(=O)=O)c1

>  <Energy>  (17) 
47.23074631624768

>  <Genealogy>  (17) 
Cc1cc(C)c(C)c(OCCCN(Cc2ccccc2)S(C)(=O)=O)c1 (3D coordinates assigned)
Cc1cc(C)c(C)c(OCCCN(Cc2ccccc2)S(C)(=O)=O)c1 (optimized conformer: 47.23074631624768 kcal/mol)

>  <smiles>  (17) 
Cc1cc(C)c(C)c(OCCCN(Cc2ccccc2)S(C)(=O)=O)c1

>  <score_type>  (17) 
oracle

>  <origin>  (17) 
autodockgpu

>  <m_score__min__energy>  (17) 
-7.3600000000000003

>  <m_primary>  (17) 
energy

>  <meeko>  (17) 
{"free_energy": -7.09, "intermolecular_energy": -9.48, "internal_energy": -0.92, "cluster_size": 12, "cluster_id": 1, "rank_in_cluster": 5}

>  <energy>  (17) 
-6.0

>  <cluster_rmsd>  (17) 
0.0

>  <rmsd>  (17) 
269.79

>  <cluster>  (17) 
5

$$$$
SYIYTKFSEXLBKJ-UHFFFAOYNA-N
     RDKit          3D

 52 53  0  0  0  0  0  0  0  0999 V2000
  143.7200   71.1500  220.1420 C   0  0  0  0  0  0  0  0  0  0  0  0
  142.9930   72.4140  220.4940 C   0  0  0  0  0  0  0  0  0  0  0  0
  143.4230   73.6400  219.9770 C   0  0  0  0  0  0  0  0  0  0  0  0
  142.7360   74.8260  220.2750 C   0  0  0  0  0  0  0  0  0  0  0  0
  143.2460   76.1250  219.7070 C   0  0  0  0  0  0  0  0  0  0  0  0
  141.5590   74.7730  221.0630 C   0  0  0  0  0  0  0  0  0  0  0  0
  140.7900   76.0380  221.3750 C   0  0  0  0  0  0  0  0  0  0  0  0
  141.1160   73.5340  221.5780 C   0  0  0  0  0  0  0  0  0  0  0  0
  139.9620   73.5060  222.3810 O   0  0  0  0  0  0  0  0  0  0  0  0
  138.6130   73.3630  221.9290 C   0  0  0  0  0  0  0  0  0  0  0  0
  137.9700   72.0930  222.5040 C   0  0  0  0  0  0  0  0  0  0  0  0
  138.9400   70.9110  222.5820 C   0  0  0  0  0  0  0  0  0  0  0  0
  138.9440   70.3710  223.9600 N   0  0  0  0  0  0  0  0  0  0  0  0
  140.3200   70.1850  224.4620 C   0  0  0  0  0  0  0  0  0  0  0  0
  140.4640   70.7260  225.8600 C   0  0  0  0  0  0  0  0  0  0  0  0
  141.1790   71.9120  226.0980 C   0  0  0  0  0  0  0  0  0  0  0  0
  141.3070   72.4070  227.4000 C   0  0  0  0  0  0  0  0  0  0  0  0
  140.7190   71.7260  228.4700 C   0  0  0  0  0  0  0  0  0  0  0  0
  140.0010   70.5500  228.2400 C   0  0  0  0  0  0  0  0  0  0  0  0
  139.8700   70.0510  226.9400 C   0  0  0  0  0  0  0  0  0  0  0  0
  138.0530   68.8600  224.0310 S   0  0  0  0  0  0  0  0  0  0  0  0
  137.7500   68.2200  222.3950 C   0  0  0  0  0  0  0  0  0  0  0  0
  138.8310   67.8390  224.8160 O   0  0  0  0  0  0  0  0  0  0  0  0
  136.7220   69.0780  224.6940 O   0  0  0  0  0  0  0  0  0  0  0  0
  141.8410   72.3640  221.2870 C   0  0  0  0  0  0  0  0  0  0  0  0
  144.0190   70.6301  221.0641 H   0  0  0  0  0  0  0  0  0  0  0  0
  143.0585   70.4987  219.5519 H   0  0  0  0  0  0  0  0  0  0  0  0
  144.6156   71.3943  219.5519 H   0  0  0  0  0  0  0  0  0  0  0  0
  144.3109   73.6748  219.3287 H   0  0  0  0  0  0  0  0  0  0  0  0
  143.5130   76.8050  220.5294 H   0  0  0  0  0  0  0  0  0  0  0  0
  144.1347   75.9309  219.0885 H   0  0  0  0  0  0  0  0  0  0  0  0
  142.4627   76.5874  219.0885 H   0  0  0  0  0  0  0  0  0  0  0  0
  140.7147   76.1618  222.4654 H   0  0  0  0  0  0  0  0  0  0  0  0
  141.3155   76.9025  220.9432 H   0  0  0  0  0  0  0  0  0  0  0  0
  139.7806   75.9694  220.9432 H   0  0  0  0  0  0  0  0  0  0  0  0
  138.0309   74.2386  222.2523 H   0  0  0  0  0  0  0  0  0  0  0  0
  138.6181   73.2864  220.8317 H   0  0  0  0  0  0  0  0  0  0  0  0
  137.6049   72.3137  223.5179 H   0  0  0  0  0  0  0  0  0  0  0  0
  137.1536   71.8031  221.8262 H   0  0  0  0  0  0  0  0  0  0  0  0
  138.6199   70.1262  221.8808 H   0  0  0  0  0  0  0  0  0  0  0  0
  139.9528   71.2475  222.3154 H   0  0  0  0  0  0  0  0  0  0  0  0
  140.5592   69.1113  224.4657 H   0  0  0  0  0  0  0  0  0  0  0  0
  141.0098   70.7321  223.8025 H   0  0  0  0  0  0  0  0  0  0  0  0
  141.6394   72.4528  225.2580 H   0  0  0  0  0  0  0  0  0  0  0  0
  141.8712   73.3335  227.5822 H   0  0  0  0  0  0  0  0  0  0  0  0
  140.8217   72.1163  229.4933 H   0  0  0  0  0  0  0  0  0  0  0  0
  139.5380   70.0156  229.0826 H   0  0  0  0  0  0  0  0  0  0  0  0
  139.3001   69.1271  226.7623 H   0  0  0  0  0  0  0  0  0  0  0  0
  137.2804   67.2281  222.4705 H   0  0  0  0  0  0  0  0  0  0  0  0
  137.0795   68.9028  221.8525 H   0  0  0  0  0  0  0  0  0  0  0  0
  138.7031   68.1342  221.8525 H   0  0  0  0  0  0  0  0  0  0  0  0
  141.4983   71.3985  221.6875 H   0  0  0  0  0  0  0  0  0  0  0  0
  1  2  1  0
  2  3  2  0
  3  4  1  0
  4  5  1  0
  4  6  2  0
  6  7  1  0
  6  8  1  0
  8  9  1  0
  9 10  1  0
 10 11  1  0
 11 12  1  0
 12 13  1  0
 13 14  1  0
 14 15  1  0
 15 16  2  0
 16 17  1  0
 17 18  2  0
 18 19  1  0
 19 20  2  0
 13 21  1  0
 21 22  1  0
 21 23  2  0
 21 24  2  0
  8 25  2  0
 25  2  1  0
 20 15  1  0
  1 26  1  0
  1 27  1  0
  1 28  1  0
  3 29  1  0
  5 30  1  0
  5 31  1  0
  5 32  1  0
  7 33  1  0
  7 34  1  0
  7 35  1  0
 10 36  1  0
 10 37  1  0
 11 38  1  0
 11 39  1  0
 12 40  1  0
 12 41  1  0
 14 42  1  0
 14 43  1  0
 16 44  1  0
 17 45  1  0
 18 46  1  0
 19 47  1  0
 20 48  1  0
 22 49  1  0
 22 50  1  0
 22 51  1  0
 25 52  1  0
M  END
>  <UniqueID>  (18) 
14

>  <SMILES>  (18) 
Cc1cc(C)c(C)c(OCCCN(Cc2ccccc2)S(C)(=O)=O)c1

>  <Energy>  (18) 
47.23074631624768

>  <Genealogy>  (18) 
Cc1cc(C)c(C)c(OCCCN(Cc2ccccc2)S(C)(=O)=O)c1 (3D coordinates assigned)
Cc1cc(C)c(C)c(OCCCN(Cc2ccccc2)S(C)(=O)=O)c1 (optimized conformer: 47.23074631624768 kcal/mol)

>  <smiles>  (18) 
Cc1cc(C)c(C)c(OCCCN(Cc2ccccc2)S(C)(=O)=O)c1

>  <score_type>  (18) 
oracle

>  <origin>  (18) 
autodockgpu

>  <m_score__min__energy>  (18) 
-7.3600000000000003

>  <m_primary>  (18) 
energy

>  <meeko>  (18) 
{"free_energy": -7.03, "intermolecular_energy": -9.42, "internal_energy": -1.27, "cluster_size": 12, "cluster_id": 1, "rank_in_cluster": 6}

>  <energy>  (18) 
-5.88

>  <cluster_rmsd>  (18) 
0.45

>  <rmsd>  (18) 
269.75

>  <cluster>  (18) 
5

$$$$
SYIYTKFSEXLBKJ-UHFFFAOYNA-N
     RDKit          3D

 52 53  0  0  0  0  0  0  0  0999 V2000
  137.3750   79.6440  221.5960 C   0  0  0  0  0  0  0  0  0  0  0  0
  138.5890   79.9520  220.7690 C   0  0  0  0  0  0  0  0  0  0  0  0
  139.2500   81.1750  220.9180 C   0  0  0  0  0  0  0  0  0  0  0  0
  140.4020   81.4640  220.1720 C   0  0  0  0  0  0  0  0  0  0  0  0
  141.0720   82.8010  220.3580 C   0  0  0  0  0  0  0  0  0  0  0  0
  140.9340   80.4830  219.2980 C   0  0  0  0  0  0  0  0  0  0  0  0
  142.1890   80.7670  218.5030 C   0  0  0  0  0  0  0  0  0  0  0  0
  140.2730   79.2430  219.1520 C   0  0  0  0  0  0  0  0  0  0  0  0
  140.8000   78.2930  218.2590 O   0  0  0  0  0  0  0  0  0  0  0  0
  141.8880   77.4000  218.5100 C   0  0  0  0  0  0  0  0  0  0  0  0
  142.2240   77.3450  220.0070 C   0  0  0  0  0  0  0  0  0  0  0  0
  141.4560   76.2510  220.7540 C   0  0  0  0  0  0  0  0  0  0  0  0
  140.4740   76.8790  221.6660 N   0  0  0  0  0  0  0  0  0  0  0  0
  141.0760   77.1820  222.9810 C   0  0  0  0  0  0  0  0  0  0  0  0
  141.3400   78.6580  223.1270 C   0  0  0  0  0  0  0  0  0  0  0  0
  140.3680   79.5070  223.6820 C   0  0  0  0  0  0  0  0  0  0  0  0
  140.6230   80.8750  223.8140 C   0  0  0  0  0  0  0  0  0  0  0  0
  141.8480   81.4040  223.3990 C   0  0  0  0  0  0  0  0  0  0  0  0
  142.8230   80.5640  222.8530 C   0  0  0  0  0  0  0  0  0  0  0  0
  142.5730   79.1950  222.7180 C   0  0  0  0  0  0  0  0  0  0  0  0
  139.0660   75.8460  221.8580 S   0  0  0  0  0  0  0  0  0  0  0  0
  138.1750   75.6910  220.3220 C   0  0  0  0  0  0  0  0  0  0  0  0
  139.4890   74.4780  222.3150 O   0  0  0  0  0  0  0  0  0  0  0  0
  138.1310   76.4370  222.8760 O   0  0  0  0  0  0  0  0  0  0  0  0
  139.1030   78.9910  219.8930 C   0  0  0  0  0  0  0  0  0  0  0  0
  137.6323   79.7093  222.6635 H   0  0  0  0  0  0  0  0  0  0  0  0
  136.5806   80.3690  221.3653 H   0  0  0  0  0  0  0  0  0  0  0  0
  137.0223   78.6279  221.3653 H   0  0  0  0  0  0  0  0  0  0  0  0
  138.8619   81.9194  221.6288 H   0  0  0  0  0  0  0  0  0  0  0  0
  141.1777   83.0119  221.4324 H   0  0  0  0  0  0  0  0  0  0  0  0
  142.0667   82.7811  219.8887 H   0  0  0  0  0  0  0  0  0  0  0  0
  140.4607   83.5859  219.8887 H   0  0  0  0  0  0  0  0  0  0  0  0
  143.0249   80.9562  219.1926 H   0  0  0  0  0  0  0  0  0  0  0  0
  142.4256   79.8997  217.8691 H   0  0  0  0  0  0  0  0  0  0  0  0
  142.0292   81.6517  217.8691 H   0  0  0  0  0  0  0  0  0  0  0  0
  141.6121   76.3921  218.1665 H   0  0  0  0  0  0  0  0  0  0  0  0
  142.7721   77.7651  217.9667 H   0  0  0  0  0  0  0  0  0  0  0  0
  143.3017   77.1541  220.1174 H   0  0  0  0  0  0  0  0  0  0  0  0
  141.9303   78.3102  220.4453 H   0  0  0  0  0  0  0  0  0  0  0  0
  140.9290   75.6122  220.0300 H   0  0  0  0  0  0  0  0  0  0  0  0
  142.1601   75.6381  221.3359 H   0  0  0  0  0  0  0  0  0  0  0  0
  140.3864   76.8597  223.7751 H   0  0  0  0  0  0  0  0  0  0  0  0
  142.0330   76.6454  223.0602 H   0  0  0  0  0  0  0  0  0  0  0  0
  139.4038   79.0942  224.0135 H   0  0  0  0  0  0  0  0  0  0  0  0
  139.8576   81.5367  224.2456 H   0  0  0  0  0  0  0  0  0  0  0  0
  142.0451   82.4813  223.5019 H   0  0  0  0  0  0  0  0  0  0  0  0
  143.7882   80.9807  222.5291 H   0  0  0  0  0  0  0  0  0  0  0  0
  143.3433   78.5363  222.2905 H   0  0  0  0  0  0  0  0  0  0  0  0
  137.1113   75.5059  220.5322 H   0  0  0  0  0  0  0  0  0  0  0  0
  138.2780   76.6206  219.7429 H   0  0  0  0  0  0  0  0  0  0  0  0
  138.5859   74.8508  219.7429 H   0  0  0  0  0  0  0  0  0  0  0  0
  138.5867   78.0261  219.7815 H   0  0  0  0  0  0  0  0  0  0  0  0
  1  2  1  0
  2  3  2  0
  3  4  1  0
  4  5  1  0
  4  6  2  0
  6  7  1  0
  6  8  1  0
  8  9  1  0
  9 10  1  0
 10 11  1  0
 11 12  1  0
 12 13  1  0
 13 14  1  0
 14 15  1  0
 15 16  2  0
 16 17  1  0
 17 18  2  0
 18 19  1  0
 19 20  2  0
 13 21  1  0
 21 22  1  0
 21 23  2  0
 21 24  2  0
  8 25  2  0
 25  2  1  0
 20 15  1  0
  1 26  1  0
  1 27  1  0
  1 28  1  0
  3 29  1  0
  5 30  1  0
  5 31  1  0
  5 32  1  0
  7 33  1  0
  7 34  1  0
  7 35  1  0
 10 36  1  0
 10 37  1  0
 11 38  1  0
 11 39  1  0
 12 40  1  0
 12 41  1  0
 14 42  1  0
 14 43  1  0
 16 44  1  0
 17 45  1  0
 18 46  1  0
 19 47  1  0
 20 48  1  0
 22 49  1  0
 22 50  1  0
 22 51  1  0
 25 52  1  0
M  END
>  <UniqueID>  (19) 
14

>  <SMILES>  (19) 
Cc1cc(C)c(C)c(OCCCN(Cc2ccccc2)S(C)(=O)=O)c1

>  <Energy>  (19) 
47.23074631624768

>  <Genealogy>  (19) 
Cc1cc(C)c(C)c(OCCCN(Cc2ccccc2)S(C)(=O)=O)c1 (3D coordinates assigned)
Cc1cc(C)c(C)c(OCCCN(Cc2ccccc2)S(C)(=O)=O)c1 (optimized conformer: 47.23074631624768 kcal/mol)

>  <smiles>  (19) 
Cc1cc(C)c(C)c(OCCCN(Cc2ccccc2)S(C)(=O)=O)c1

>  <score_type>  (19) 
oracle

>  <origin>  (19) 
autodockgpu

>  <m_score__min__energy>  (19) 
-7.3600000000000003

>  <m_primary>  (19) 
energy

>  <meeko>  (19) 
{"free_energy": -4.58, "intermolecular_energy": -6.97, "internal_energy": -2.83, "cluster_size": 4, "cluster_id": 5, "rank_in_cluster": 4}

>  <energy>  (19) 
-4.94

>  <cluster_rmsd>  (19) 
1.79

>  <rmsd>  (19) 
270.03

>  <cluster>  (19) 
5

$$$$
SYIYTKFSEXLBKJ-UHFFFAOYNA-N
     RDKit          3D

 52 53  0  0  0  0  0  0  0  0999 V2000
  143.7110   74.8950  218.7540 C   0  0  0  0  0  0  0  0  0  0  0  0
  142.7100   75.4510  219.7230 C   0  0  0  0  0  0  0  0  0  0  0  0
  142.5300   76.8340  219.8320 C   0  0  0  0  0  0  0  0  0  0  0  0
  141.5780   77.3670  220.7140 C   0  0  0  0  0  0  0  0  0  0  0  0
  141.4300   78.8630  220.8070 C   0  0  0  0  0  0  0  0  0  0  0  0
  140.7520   76.4930  221.4630 C   0  0  0  0  0  0  0  0  0  0  0  0
  139.7030   77.0470  222.4010 C   0  0  0  0  0  0  0  0  0  0  0  0
  140.9250   75.0950  221.3480 C   0  0  0  0  0  0  0  0  0  0  0  0
  140.1140   74.2440  222.1190 O   0  0  0  0  0  0  0  0  0  0  0  0
  140.3100   72.8440  222.3330 C   0  0  0  0  0  0  0  0  0  0  0  0
  138.9740   72.1300  222.5830 C   0  0  0  0  0  0  0  0  0  0  0  0
  139.1110   70.6070  222.6520 C   0  0  0  0  0  0  0  0  0  0  0  0
  139.0970   70.1790  224.0690 N   0  0  0  0  0  0  0  0  0  0  0  0
  140.4670   70.0690  224.6120 C   0  0  0  0  0  0  0  0  0  0  0  0
  140.5620   70.7030  225.9750 C   0  0  0  0  0  0  0  0  0  0  0  0
  139.9070   70.1300  227.0780 C   0  0  0  0  0  0  0  0  0  0  0  0
  140.0010   70.7260  228.3390 C   0  0  0  0  0  0  0  0  0  0  0  0
  140.7520   71.8920  228.5100 C   0  0  0  0  0  0  0  0  0  0  0  0
  141.4120   72.4640  227.4190 C   0  0  0  0  0  0  0  0  0  0  0  0
  141.3210   71.8720  226.1550 C   0  0  0  0  0  0  0  0  0  0  0  0
  138.2420   68.6550  224.2430 S   0  0  0  0  0  0  0  0  0  0  0  0
  138.1530   67.7930  222.6860 C   0  0  0  0  0  0  0  0  0  0  0  0
  138.9460   67.7810  225.2440 O   0  0  0  0  0  0  0  0  0  0  0  0
  136.8370   68.9060  224.7120 O   0  0  0  0  0  0  0  0  0  0  0  0
  141.9070   74.5890  220.4760 C   0  0  0  0  0  0  0  0  0  0  0  0
  144.5413   74.4338  219.3088 H   0  0  0  0  0  0  0  0  0  0  0  0
  143.2267   74.1366  218.1213 H   0  0  0  0  0  0  0  0  0  0  0  0
  144.0990   75.7069  218.1213 H   0  0  0  0  0  0  0  0  0  0  0  0
  143.1422   77.5117  219.2188 H   0  0  0  0  0  0  0  0  0  0  0  0
  141.4003   79.1635  221.8648 H   0  0  0  0  0  0  0  0  0  0  0  0
  142.2846   79.3475  220.3121 H   0  0  0  0  0  0  0  0  0  0  0  0
  140.4970   79.1706  220.3121 H   0  0  0  0  0  0  0  0  0  0  0  0
  140.0175   76.8809  223.4419 H   0  0  0  0  0  0  0  0  0  0  0  0
  139.5837   78.1257  222.2217 H   0  0  0  0  0  0  0  0  0  0  0  0
  138.7448   76.5373  222.2217 H   0  0  0  0  0  0  0  0  0  0  0  0
  140.7891   72.4084  221.4438 H   0  0  0  0  0  0  0  0  0  0  0  0
  140.9475   72.7123  223.2197 H   0  0  0  0  0  0  0  0  0  0  0  0
  138.5589   72.4878  223.5368 H   0  0  0  0  0  0  0  0  0  0  0  0
  138.3142   72.3619  221.7340 H   0  0  0  0  0  0  0  0  0  0  0  0
  138.2715   70.1378  222.1180 H   0  0  0  0  0  0  0  0  0  0  0  0
  140.0577   70.3003  222.1834 H   0  0  0  0  0  0  0  0  0  0  0  0
  140.7381   69.0058  224.6905 H   0  0  0  0  0  0  0  0  0  0  0  0
  141.1553   70.5942  223.9334 H   0  0  0  0  0  0  0  0  0  0  0  0
  139.3185   69.2097  226.9489 H   0  0  0  0  0  0  0  0  0  0  0  0
  139.4827   70.2761  229.1986 H   0  0  0  0  0  0  0  0  0  0  0  0
  140.8236   72.3595  229.5031 H   0  0  0  0  0  0  0  0  0  0  0  0
  142.0040   73.3812  227.5545 H   0  0  0  0  0  0  0  0  0  0  0  0
  141.8451   72.3228  225.2993 H   0  0  0  0  0  0  0  0  0  0  0  0
  138.0416   66.7142  222.8700 H   0  0  0  0  0  0  0  0  0  0  0  0
  137.2878   68.1586  222.1134 H   0  0  0  0  0  0  0  0  0  0  0  0
  139.0746   67.9741  222.1134 H   0  0  0  0  0  0  0  0  0  0  0  0
  142.0445   73.5014  220.3857 H   0  0  0  0  0  0  0  0  0  0  0  0
  1  2  1  0
  2  3  2  0
  3  4  1  0
  4  5  1  0
  4  6  2  0
  6  7  1  0
  6  8  1  0
  8  9  1  0
  9 10  1  0
 10 11  1  0
 11 12  1  0
 12 13  1  0
 13 14  1  0
 14 15  1  0
 15 16  2  0
 16 17  1  0
 17 18  2  0
 18 19  1  0
 19 20  2  0
 13 21  1  0
 21 22  1  0
 21 23  2  0
 21 24  2  0
  8 25  2  0
 25  2  1  0
 20 15  1  0
  1 26  1  0
  1 27  1  0
  1 28  1  0
  3 29  1  0
  5 30  1  0
  5 31  1  0
  5 32  1  0
  7 33  1  0
  7 34  1  0
  7 35  1  0
 10 36  1  0
 10 37  1  0
 11 38  1  0
 11 39  1  0
 12 40  1  0
 12 41  1  0
 14 42  1  0
 14 43  1  0
 16 44  1  0
 17 45  1  0
 18 46  1  0
 19 47  1  0
 20 48  1  0
 22 49  1  0
 22 50  1  0
 22 51  1  0
 25 52  1  0
M  END
>  <UniqueID>  (20) 
14

>  <SMILES>  (20) 
Cc1cc(C)c(C)c(OCCCN(Cc2ccccc2)S(C)(=O)=O)c1

>  <Energy>  (20) 
47.23074631624768

>  <Genealogy>  (20) 
Cc1cc(C)c(C)c(OCCCN(Cc2ccccc2)S(C)(=O)=O)c1 (3D coordinates assigned)
Cc1cc(C)c(C)c(OCCCN(Cc2ccccc2)S(C)(=O)=O)c1 (optimized conformer: 47.23074631624768 kcal/mol)

>  <smiles>  (20) 
Cc1cc(C)c(C)c(OCCCN(Cc2ccccc2)S(C)(=O)=O)c1

>  <score_type>  (20) 
oracle

>  <origin>  (20) 
autodockgpu

>  <m_score__min__energy>  (20) 
-7.3600000000000003

>  <m_primary>  (20) 
energy

>  <meeko>  (20) 
{"free_energy": -7.32, "intermolecular_energy": -9.71, "internal_energy": -0.92, "cluster_size": 12, "cluster_id": 1, "rank_in_cluster": 3}

>  <energy>  (20) 
-4.58

>  <cluster_rmsd>  (20) 
1.83

>  <rmsd>  (20) 
269.62

>  <cluster>  (20) 
5

$$$$
