PTHZUPGKXGNJLI-VUCLPHKJNA-N
     RDKit          3D

 54 58  0  0  0  0  0  0  0  0999 V2000
  140.1210   73.4680  219.4510 H   0  0  0  0  0  0  0  0  0  0  0  0
  139.4920   74.0560  219.9810 O   0  0  0  0  0  0  0  0  0  0  0  0
  139.8020   74.5780  221.2400 C   0  0  0  0  0  0  0  0  0  0  0  0
  139.9370   73.8130  222.2860 N   0  0  0  0  0  0  0  0  0  0  0  0
  140.7700   72.6170  222.3830 C   0  0  0  0  0  0  0  0  0  0  0  0
  140.1411   71.7618  222.6712 H   0  0  0  0  0  0  0  0  0  0  0  0
  141.5498   72.7906  223.1392 H   0  0  0  0  0  0  0  0  0  0  0  0
  141.4330   72.3200  221.0660 C   0  0  0  0  0  0  0  0  0  0  0  0
  140.8470   71.5610  220.2470 O   0  0  0  0  0  0  0  0  0  0  0  0
  142.7190   72.8750  220.7290 N   0  0  0  0  0  0  0  0  0  0  0  0
  143.9580   72.1120  220.7020 C   0  0  0  0  0  0  0  0  0  0  0  0
  144.2050   71.7446  221.7090 H   0  0  0  0  0  0  0  0  0  0  0  0
  143.8796   71.2303  220.0489 H   0  0  0  0  0  0  0  0  0  0  0  0
  145.0280   73.0860  220.2120 C   0  0  2  0  0  0  0  0  0  0  0  0
  145.2704   72.9157  219.1526 H   0  0  0  0  0  0  0  0  0  0  0  0
  146.2310   72.9240  220.9140 O   0  0  0  0  0  0  0  0  0  0  0  0
  146.0860   72.1740  221.5480 H   0  0  0  0  0  0  0  0  0  0  0  0
  144.4450   74.4770  220.4540 C   0  0  0  0  0  0  0  0  0  0  0  0
  144.7779   74.8696  221.4262 H   0  0  0  0  0  0  0  0  0  0  0  0
  144.7732   75.1958  219.6888 H   0  0  0  0  0  0  0  0  0  0  0  0
  142.9260   74.2910  220.4440 C   0  0  1  0  0  0  0  0  0  0  0  0
  142.4269   74.9370  221.1813 H   0  0  0  0  0  0  0  0  0  0  0  0
  142.3400   74.6660  219.0920 C   0  0  0  0  0  0  0  0  0  0  0  0
  141.9380   73.6650  218.2580 N   0  0  0  0  0  0  0  0  0  0  0  0
  141.4120   73.8990  217.0290 C   0  0  0  0  0  0  0  0  0  0  0  0
  141.0987   73.0553  216.3965 H   0  0  0  0  0  0  0  0  0  0  0  0
  141.2680   75.2040  216.5670 C   0  0  0  0  0  0  0  0  0  0  0  0
  140.8303   75.3958  215.5762 H   0  0  0  0  0  0  0  0  0  0  0  0
  141.6840   76.2700  217.3720 C   0  0  0  0  0  0  0  0  0  0  0  0
  141.5610   77.5890  216.9100 C   0  0  0  0  0  0  0  0  0  0  0  0
  141.1233   77.7843  215.9199 H   0  0  0  0  0  0  0  0  0  0  0  0
  141.9920   78.6540  217.7020 C   0  0  0  0  0  0  0  0  0  0  0  0
  141.8894   79.6864  217.3365 H   0  0  0  0  0  0  0  0  0  0  0  0
  142.5530   78.4120  218.9570 C   0  0  0  0  0  0  0  0  0  0  0  0
  142.8967   79.2547  219.5749 H   0  0  0  0  0  0  0  0  0  0  0  0
  142.6800   77.1040  219.4320 C   0  0  0  0  0  0  0  0  0  0  0  0
  143.1261   76.9232  220.4211 H   0  0  0  0  0  0  0  0  0  0  0  0
  142.2400   76.0130  218.6520 C   0  0  0  0  0  0  0  0  0  0  0  0
  139.9850   76.0350  221.3920 C   0  0  0  0  0  0  0  0  0  0  0  0
  140.7880   76.5110  222.3860 N   0  0  0  0  0  0  0  0  0  0  0  0
  140.9990   77.8410  222.5690 C   0  0  0  0  0  0  0  0  0  0  0  0
  141.8320   78.2860  223.6020 C   0  0  0  0  0  0  0  0  0  0  0  0
  142.3178   77.5582  224.2686 H   0  0  0  0  0  0  0  0  0  0  0  0
  142.0470   79.6550  223.7870 C   0  0  0  0  0  0  0  0  0  0  0  0
  142.7015   80.0019  224.6002 H   0  0  0  0  0  0  0  0  0  0  0  0
  141.4330   80.5850  222.9420 C   0  0  0  0  0  0  0  0  0  0  0  0
  141.6450   81.9100  223.1270 F   0  0  0  0  0  0  0  0  0  0  0  0
  140.5980   80.1500  221.9070 C   0  0  0  0  0  0  0  0  0  0  0  0
  140.1149   80.8835  221.2447 H   0  0  0  0  0  0  0  0  0  0  0  0
  140.3770   78.7770  221.7140 C   0  0  0  0  0  0  0  0  0  0  0  0
  139.5490   78.3110  220.6870 C   0  0  0  0  0  0  0  0  0  0  0  0
  139.0551   79.0240  220.0104 H   0  0  0  0  0  0  0  0  0  0  0  0
  139.3510   76.9370  220.5230 C   0  0  0  0  0  0  0  0  0  0  0  0
  138.7017   76.5644  219.7171 H   0  0  0  0  0  0  0  0  0  0  0  0
  1  2  1  0
  2  3  1  0
  3  4  2  0
  4  5  1  0
  5  6  1  0
  5  7  1  0
  5  8  1  0
  8  9  2  0
  8 10  1  0
 10 11  1  0
 11 12  1  0
 11 13  1  0
 11 14  1  0
 14 15  1  6
 14 16  1  0
 16 17  1  0
 14 18  1  0
 18 19  1  0
 18 20  1  0
 18 21  1  0
 21 22  1  1
 21 23  1  0
 23 24  2  0
 24 25  1  0
 25 26  1  0
 25 27  2  0
 27 28  1  0
 27 29  1  0
 29 30  2  0
 30 31  1  0
 30 32  1  0
 32 33  1  0
 32 34  2  0
 34 35  1  0
 34 36  1  0
 36 37  1  0
 36 38  2  0
  3 39  1  0
 39 40  2  0
 40 41  1  0
 41 42  2  0
 42 43  1  0
 42 44  1  0
 44 45  1  0
 44 46  2  0
 46 47  1  0
 46 48  1  0
 48 49  1  0
 48 50  2  0
 50 51  1  0
 51 52  1  0
 51 53  2  0
 53 54  1  0
 21 10  1  0
 38 23  1  0
 53 39  1  0
 38 29  1  0
 50 41  1  0
M  END
>  <UniqueID>  (1) 
25

>  <SMILES>  (1) 
O=C(C/N=C(\O)c1ccc2cc(F)ccc2n1)N1C[C@H](O)C[C@H]1c1nccc2ccccc12

>  <Energy>  (1) 
67.91710877564772

>  <Genealogy>  (1) 
O=C(CN=C(O)c1ccc2cc(F)ccc2n1)N1C[C@H](O)C[C@H]1c1nccc2ccccc12 (tautomer)
O=C(C/N=C(\O)c1ccc2cc(F)ccc2n1)N1C[C@H](O)C[C@H]1c1nccc2ccccc12 (cis-trans isomerization)
O=C(C/N=C(\O)c1ccc2cc(F)ccc2n1)N1C[C@H](O)C[C@H]1c1nccc2ccccc12 (3D coordinates assigned)
O=C(C/N=C(\O)c1ccc2cc(F)ccc2n1)N1C[C@H](O)C[C@H]1c1nccc2ccccc12 (nonaromatic ring conformer: 67.91710877564772 kcal/mol)

>  <smiles>  (1) 
O=C(NCC(=O)N1C[C@H](O)C[C@H]1c1nccc2ccccc12)c1ccc2cc(F)ccc2n1

>  <score_type>  (1) 
oracle

>  <origin>  (1) 
autodockgpu

>  <m_score__min__energy>  (1) 
-9.0299999999999994

>  <m_primary>  (1) 
energy

>  <meeko>  (1) 
{"free_energy": -6.23, "intermolecular_energy": -8.62, "internal_energy": -4.26, "cluster_size": 9, "cluster_id": 4, "rank_in_cluster": 8}

>  <energy>  (1) 
-9.03

>  <cluster_rmsd>  (1) 
0.0

>  <rmsd>  (1) 
269.55

>  <cluster>  (1) 
1

$$$$
PTHZUPGKXGNJLI-VUCLPHKJNA-N
     RDKit          3D

 54 58  0  0  0  0  0  0  0  0999 V2000
  140.4580   75.1630  219.2260 H   0  0  0  0  0  0  0  0  0  0  0  0
  139.7350   75.4410  219.8760 O   0  0  0  0  0  0  0  0  0  0  0  0
  139.9180   75.4790  221.2610 C   0  0  0  0  0  0  0  0  0  0  0  0
  139.9400   74.3920  221.9810 N   0  0  0  0  0  0  0  0  0  0  0  0
  140.7130   73.1850  221.7030 C   0  0  0  0  0  0  0  0  0  0  0  0
  140.0313   72.3230  221.6561 H   0  0  0  0  0  0  0  0  0  0  0  0
  141.4512   73.0462  222.5066 H   0  0  0  0  0  0  0  0  0  0  0  0
  141.4430   73.3080  220.3940 C   0  0  0  0  0  0  0  0  0  0  0  0
  140.7930   73.1860  219.3210 O   0  0  0  0  0  0  0  0  0  0  0  0
  142.8630   73.5490  220.3440 N   0  0  0  0  0  0  0  0  0  0  0  0
  143.8760   72.5240  220.5450 C   0  0  0  0  0  0  0  0  0  0  0  0
  143.8218   72.1258  221.5689 H   0  0  0  0  0  0  0  0  0  0  0  0
  143.7362   71.6733  219.8619 H   0  0  0  0  0  0  0  0  0  0  0  0
  145.2150   73.2210  220.3140 C   0  0  2  0  0  0  0  0  0  0  0  0
  145.6243   72.9838  219.3209 H   0  0  0  0  0  0  0  0  0  0  0  0
  146.1800   72.8000  221.2410 O   0  0  0  0  0  0  0  0  0  0  0  0
  145.8690   71.9240  221.5900 H   0  0  0  0  0  0  0  0  0  0  0  0
  144.9250   74.7120  220.4770 C   0  0  0  0  0  0  0  0  0  0  0  0
  145.1309   75.0334  221.5087 H   0  0  0  0  0  0  0  0  0  0  0  0
  145.5574   75.3256  219.8186 H   0  0  0  0  0  0  0  0  0  0  0  0
  143.4390   74.8760  220.1520 C   0  0  1  0  0  0  0  0  0  0  0  0
  142.9583   75.6300  220.7926 H   0  0  0  0  0  0  0  0  0  0  0  0
  143.2430   75.3540  218.7220 C   0  0  0  0  0  0  0  0  0  0  0  0
  143.5240   74.4900  217.7050 N   0  0  0  0  0  0  0  0  0  0  0  0
  143.3900   74.8260  216.3970 C   0  0  0  0  0  0  0  0  0  0  0  0
  143.6250   74.0894  215.6146 H   0  0  0  0  0  0  0  0  0  0  0  0
  142.9560   76.1000  216.0430 C   0  0  0  0  0  0  0  0  0  0  0  0
  142.8364   76.3704  214.9835 H   0  0  0  0  0  0  0  0  0  0  0  0
  142.6730   77.0340  217.0450 C   0  0  0  0  0  0  0  0  0  0  0  0
  142.2510   78.3270  216.7010 C   0  0  0  0  0  0  0  0  0  0  0  0
  142.1286   78.6001  215.6425 H   0  0  0  0  0  0  0  0  0  0  0  0
  141.9860   79.2680  217.6970 C   0  0  0  0  0  0  0  0  0  0  0  0
  141.6511   80.2790  217.4218 H   0  0  0  0  0  0  0  0  0  0  0  0
  142.1450   78.9290  219.0410 C   0  0  0  0  0  0  0  0  0  0  0  0
  141.9410   79.6765  219.8218 H   0  0  0  0  0  0  0  0  0  0  0  0
  142.5620   77.6450  219.4000 C   0  0  0  0  0  0  0  0  0  0  0  0
  142.6871   77.3886  220.4623 H   0  0  0  0  0  0  0  0  0  0  0  0
  142.8240   76.6740  218.4090 C   0  0  0  0  0  0  0  0  0  0  0  0
  140.0940   76.7820  221.9310 C   0  0  0  0  0  0  0  0  0  0  0  0
  141.3390   77.3330  222.0110 N   0  0  0  0  0  0  0  0  0  0  0  0
  141.5600   78.5340  222.6090 C   0  0  0  0  0  0  0  0  0  0  0  0
  142.8540   79.0630  222.6680 C   0  0  0  0  0  0  0  0  0  0  0  0
  143.6958   78.5063  222.2303 H   0  0  0  0  0  0  0  0  0  0  0  0
  143.0780   80.2990  223.2830 C   0  0  0  0  0  0  0  0  0  0  0  0
  144.0963   80.7126  223.3283 H   0  0  0  0  0  0  0  0  0  0  0  0
  142.0100   81.0110  223.8410 C   0  0  0  0  0  0  0  0  0  0  0  0
  142.2340   82.2070  224.4360 F   0  0  0  0  0  0  0  0  0  0  0  0
  140.7130   80.4900  223.7870 C   0  0  0  0  0  0  0  0  0  0  0  0
  139.8755   81.0514  224.2268 H   0  0  0  0  0  0  0  0  0  0  0  0
  140.4810   79.2500  223.1710 C   0  0  0  0  0  0  0  0  0  0  0  0
  139.1950   78.7030  223.1000 C   0  0  0  0  0  0  0  0  0  0  0  0
  138.3410   79.2446  223.5328 H   0  0  0  0  0  0  0  0  0  0  0  0
  138.9980   77.4670  222.4780 C   0  0  0  0  0  0  0  0  0  0  0  0
  137.9889   77.0333  222.4175 H   0  0  0  0  0  0  0  0  0  0  0  0
  1  2  1  0
  2  3  1  0
  3  4  2  0
  4  5  1  0
  5  6  1  0
  5  7  1  0
  5  8  1  0
  8  9  2  0
  8 10  1  0
 10 11  1  0
 11 12  1  0
 11 13  1  0
 11 14  1  0
 14 15  1  6
 14 16  1  0
 16 17  1  0
 14 18  1  0
 18 19  1  0
 18 20  1  0
 18 21  1  0
 21 22  1  1
 21 23  1  0
 23 24  2  0
 24 25  1  0
 25 26  1  0
 25 27  2  0
 27 28  1  0
 27 29  1  0
 29 30  2  0
 30 31  1  0
 30 32  1  0
 32 33  1  0
 32 34  2  0
 34 35  1  0
 34 36  1  0
 36 37  1  0
 36 38  2  0
  3 39  1  0
 39 40  2  0
 40 41  1  0
 41 42  2  0
 42 43  1  0
 42 44  1  0
 44 45  1  0
 44 46  2  0
 46 47  1  0
 46 48  1  0
 48 49  1  0
 48 50  2  0
 50 51  1  0
 51 52  1  0
 51 53  2  0
 53 54  1  0
 21 10  1  0
 38 23  1  0
 53 39  1  0
 38 29  1  0
 50 41  1  0
M  END
>  <UniqueID>  (2) 
25

>  <SMILES>  (2) 
O=C(C/N=C(\O)c1ccc2cc(F)ccc2n1)N1C[C@H](O)C[C@H]1c1nccc2ccccc12

>  <Energy>  (2) 
67.91710877564772

>  <Genealogy>  (2) 
O=C(CN=C(O)c1ccc2cc(F)ccc2n1)N1C[C@H](O)C[C@H]1c1nccc2ccccc12 (tautomer)
O=C(C/N=C(\O)c1ccc2cc(F)ccc2n1)N1C[C@H](O)C[C@H]1c1nccc2ccccc12 (cis-trans isomerization)
O=C(C/N=C(\O)c1ccc2cc(F)ccc2n1)N1C[C@H](O)C[C@H]1c1nccc2ccccc12 (3D coordinates assigned)
O=C(C/N=C(\O)c1ccc2cc(F)ccc2n1)N1C[C@H](O)C[C@H]1c1nccc2ccccc12 (nonaromatic ring conformer: 67.91710877564772 kcal/mol)

>  <smiles>  (2) 
O=C(NCC(=O)N1C[C@H](O)C[C@H]1c1nccc2ccccc12)c1ccc2cc(F)ccc2n1

>  <score_type>  (2) 
oracle

>  <origin>  (2) 
autodockgpu

>  <m_score__min__energy>  (2) 
-9.0299999999999994

>  <m_primary>  (2) 
energy

>  <meeko>  (2) 
{"free_energy": -7.25, "intermolecular_energy": -9.64, "internal_energy": -2.97, "cluster_size": 9, "cluster_id": 4, "rank_in_cluster": 4}

>  <energy>  (2) 
-8.86

>  <cluster_rmsd>  (2) 
0.09

>  <rmsd>  (2) 
269.56

>  <cluster>  (2) 
1

$$$$
PTHZUPGKXGNJLI-VUCLPHKJNA-N
     RDKit          3D

 54 58  0  0  0  0  0  0  0  0999 V2000
  137.4550   74.1050  223.0580 H   0  0  0  0  0  0  0  0  0  0  0  0
  137.7600   74.7090  222.3070 O   0  0  0  0  0  0  0  0  0  0  0  0
  139.0820   75.1350  222.1500 C   0  0  0  0  0  0  0  0  0  0  0  0
  140.0560   74.2920  221.9510 N   0  0  0  0  0  0  0  0  0  0  0  0
  141.3350   74.5820  221.3080 C   0  0  0  0  0  0  0  0  0  0  0  0
  142.1073   74.7070  222.0813 H   0  0  0  0  0  0  0  0  0  0  0  0
  141.2317   75.5043  220.7174 H   0  0  0  0  0  0  0  0  0  0  0  0
  141.7360   73.4620  220.3870 C   0  0  0  0  0  0  0  0  0  0  0  0
  140.8540   72.6520  219.9950 O   0  0  0  0  0  0  0  0  0  0  0  0
  143.1000   73.2950  219.9570 N   0  0  0  0  0  0  0  0  0  0  0  0
  143.7270   72.0060  219.7050 C   0  0  0  0  0  0  0  0  0  0  0  0
  143.7835   71.4183  220.6331 H   0  0  0  0  0  0  0  0  0  0  0  0
  143.1535   71.4086  218.9810 H   0  0  0  0  0  0  0  0  0  0  0  0
  145.1290   72.3260  219.1900 C   0  0  2  0  0  0  0  0  0  0  0  0
  145.1901   72.2131  218.0975 H   0  0  0  0  0  0  0  0  0  0  0  0
  146.0860   71.4490  219.7230 O   0  0  0  0  0  0  0  0  0  0  0  0
  146.0280   71.5390  220.7110 H   0  0  0  0  0  0  0  0  0  0  0  0
  145.4030   73.7610  219.6390 C   0  0  0  0  0  0  0  0  0  0  0  0
  145.9395   73.7676  220.5993 H   0  0  0  0  0  0  0  0  0  0  0  0
  146.0323   74.3016  218.9167 H   0  0  0  0  0  0  0  0  0  0  0  0
  144.0270   74.4110  219.7910 C   0  0  1  0  0  0  0  0  0  0  0  0
  143.9920   75.1060  220.6429 H   0  0  0  0  0  0  0  0  0  0  0  0
  143.6740   75.2350  218.5640 C   0  0  0  0  0  0  0  0  0  0  0  0
  144.0450   74.7670  217.3380 N   0  0  0  0  0  0  0  0  0  0  0  0
  143.7830   75.4340  216.1860 C   0  0  0  0  0  0  0  0  0  0  0  0
  144.0986   75.0087  215.2219 H   0  0  0  0  0  0  0  0  0  0  0  0
  143.1160   76.6550  216.2210 C   0  0  0  0  0  0  0  0  0  0  0  0
  142.8940   77.1922  215.2871 H   0  0  0  0  0  0  0  0  0  0  0  0
  142.7300   77.1940  217.4530 C   0  0  0  0  0  0  0  0  0  0  0  0
  142.0710   78.4320  217.5030 C   0  0  0  0  0  0  0  0  0  0  0  0
  141.8446   78.9705  216.5710 H   0  0  0  0  0  0  0  0  0  0  0  0
  141.7020   78.9820  218.7310 C   0  0  0  0  0  0  0  0  0  0  0  0
  141.1836   79.9516  218.7643 H   0  0  0  0  0  0  0  0  0  0  0  0
  141.9890   78.3050  219.9170 C   0  0  0  0  0  0  0  0  0  0  0  0
  141.6992   78.7453  220.8825 H   0  0  0  0  0  0  0  0  0  0  0  0
  142.6430   77.0700  219.8840 C   0  0  0  0  0  0  0  0  0  0  0  0
  142.8693   76.5465  220.8246 H   0  0  0  0  0  0  0  0  0  0  0  0
  143.0150   76.4900  218.6520 C   0  0  0  0  0  0  0  0  0  0  0  0
  139.3880   76.5780  222.2090 C   0  0  0  0  0  0  0  0  0  0  0  0
  140.5530   76.9940  222.7820 N   0  0  0  0  0  0  0  0  0  0  0  0
  140.8910   78.3090  222.8580 C   0  0  0  0  0  0  0  0  0  0  0  0
  142.0980   78.6920  223.4540 C   0  0  0  0  0  0  0  0  0  0  0  0
  142.7761   77.9284  223.8627 H   0  0  0  0  0  0  0  0  0  0  0  0
  142.4420   80.0450  223.5300 C   0  0  0  0  0  0  0  0  0  0  0  0
  143.3903   80.3437  224.0006 H   0  0  0  0  0  0  0  0  0  0  0  0
  141.5850   81.0200  223.0100 C   0  0  0  0  0  0  0  0  0  0  0  0
  141.9250   82.3300  223.0870 F   0  0  0  0  0  0  0  0  0  0  0  0
  140.3760   80.6470  222.4120 C   0  0  0  0  0  0  0  0  0  0  0  0
  139.7029   81.4160  222.0050 H   0  0  0  0  0  0  0  0  0  0  0  0
  140.0230   79.2910  222.3320 C   0  0  0  0  0  0  0  0  0  0  0  0
  138.8230   78.8860  221.7390 C   0  0  0  0  0  0  0  0  0  0  0  0
  138.1331   79.6354  221.3237 H   0  0  0  0  0  0  0  0  0  0  0  0
  138.5020   77.5270  221.6750 C   0  0  0  0  0  0  0  0  0  0  0  0
  137.5600   77.2028  221.2086 H   0  0  0  0  0  0  0  0  0  0  0  0
  1  2  1  0
  2  3  1  0
  3  4  2  0
  4  5  1  0
  5  6  1  0
  5  7  1  0
  5  8  1  0
  8  9  2  0
  8 10  1  0
 10 11  1  0
 11 12  1  0
 11 13  1  0
 11 14  1  0
 14 15  1  6
 14 16  1  0
 16 17  1  0
 14 18  1  0
 18 19  1  0
 18 20  1  0
 18 21  1  0
 21 22  1  1
 21 23  1  0
 23 24  2  0
 24 25  1  0
 25 26  1  0
 25 27  2  0
 27 28  1  0
 27 29  1  0
 29 30  2  0
 30 31  1  0
 30 32  1  0
 32 33  1  0
 32 34  2  0
 34 35  1  0
 34 36  1  0
 36 37  1  0
 36 38  2  0
  3 39  1  0
 39 40  2  0
 40 41  1  0
 41 42  2  0
 42 43  1  0
 42 44  1  0
 44 45  1  0
 44 46  2  0
 46 47  1  0
 46 48  1  0
 48 49  1  0
 48 50  2  0
 50 51  1  0
 51 52  1  0
 51 53  2  0
 53 54  1  0
 21 10  1  0
 38 23  1  0
 53 39  1  0
 38 29  1  0
 50 41  1  0
M  END
>  <UniqueID>  (3) 
25

>  <SMILES>  (3) 
O=C(C/N=C(\O)c1ccc2cc(F)ccc2n1)N1C[C@H](O)C[C@H]1c1nccc2ccccc12

>  <Energy>  (3) 
67.91710877564772

>  <Genealogy>  (3) 
O=C(CN=C(O)c1ccc2cc(F)ccc2n1)N1C[C@H](O)C[C@H]1c1nccc2ccccc12 (tautomer)
O=C(C/N=C(\O)c1ccc2cc(F)ccc2n1)N1C[C@H](O)C[C@H]1c1nccc2ccccc12 (cis-trans isomerization)
O=C(C/N=C(\O)c1ccc2cc(F)ccc2n1)N1C[C@H](O)C[C@H]1c1nccc2ccccc12 (3D coordinates assigned)
O=C(C/N=C(\O)c1ccc2cc(F)ccc2n1)N1C[C@H](O)C[C@H]1c1nccc2ccccc12 (nonaromatic ring conformer: 67.91710877564772 kcal/mol)

>  <smiles>  (3) 
O=C(NCC(=O)N1C[C@H](O)C[C@H]1c1nccc2ccccc12)c1ccc2cc(F)ccc2n1

>  <score_type>  (3) 
oracle

>  <origin>  (3) 
autodockgpu

>  <m_score__min__energy>  (3) 
-9.0299999999999994

>  <m_primary>  (3) 
energy

>  <meeko>  (3) 
{"free_energy": -7.54, "intermolecular_energy": -9.93, "internal_energy": -2.17, "cluster_size": 9, "cluster_id": 4, "rank_in_cluster": 2}

>  <energy>  (3) 
-8.51

>  <cluster_rmsd>  (3) 
0.83

>  <rmsd>  (3) 
269.58

>  <cluster>  (3) 
1

$$$$
PTHZUPGKXGNJLI-VUCLPHKJNA-N
     RDKit          3D

 54 58  0  0  0  0  0  0  0  0999 V2000
  139.0590   73.8090  222.7650 H   0  0  0  0  0  0  0  0  0  0  0  0
  138.5630   72.9450  222.5990 O   0  0  0  0  0  0  0  0  0  0  0  0
  139.2000   71.7130  222.4200 C   0  0  0  0  0  0  0  0  0  0  0  0
  139.6380   71.3300  221.2540 N   0  0  0  0  0  0  0  0  0  0  0  0
  141.0260   71.3510  220.8000 C   0  0  0  0  0  0  0  0  0  0  0  0
  141.0493   71.2393  219.7059 H   0  0  0  0  0  0  0  0  0  0  0  0
  141.5669   70.5227  221.2810 H   0  0  0  0  0  0  0  0  0  0  0  0
  141.6920   72.6460  221.1780 C   0  0  0  0  0  0  0  0  0  0  0  0
  141.0770   73.4500  221.9280 O   0  0  0  0  0  0  0  0  0  0  0  0
  143.0050   72.9850  220.6920 N   0  0  0  0  0  0  0  0  0  0  0  0
  143.9160   72.0400  220.0650 C   0  0  0  0  0  0  0  0  0  0  0  0
  144.2120   71.2591  220.7809 H   0  0  0  0  0  0  0  0  0  0  0  0
  143.4491   71.5309  219.2090 H   0  0  0  0  0  0  0  0  0  0  0  0
  145.1310   72.8620  219.6400 C   0  0  2  0  0  0  0  0  0  0  0  0
  145.1133   73.0747  218.5609 H   0  0  0  0  0  0  0  0  0  0  0  0
  146.3290   72.1710  219.8770 O   0  0  0  0  0  0  0  0  0  0  0  0
  146.2810   71.8440  220.8140 H   0  0  0  0  0  0  0  0  0  0  0  0
  145.0670   74.1360  220.4800 C   0  0  0  0  0  0  0  0  0  0  0  0
  145.6750   74.0272  221.3902 H   0  0  0  0  0  0  0  0  0  0  0  0
  145.4611   75.0054  219.9333 H   0  0  0  0  0  0  0  0  0  0  0  0
  143.5910   74.3140  220.8410 C   0  0  1  0  0  0  0  0  0  0  0  0
  143.4607   74.7105  221.8588 H   0  0  0  0  0  0  0  0  0  0  0  0
  142.9190   75.3130  219.9120 C   0  0  0  0  0  0  0  0  0  0  0  0
  143.3690   75.4110  218.6290 N   0  0  0  0  0  0  0  0  0  0  0  0
  142.8410   76.2790  217.7290 C   0  0  0  0  0  0  0  0  0  0  0  0
  143.2379   76.3153  216.7037 H   0  0  0  0  0  0  0  0  0  0  0  0
  141.7990   77.1230  218.1000 C   0  0  0  0  0  0  0  0  0  0  0  0
  141.3614   77.8180  217.3682 H   0  0  0  0  0  0  0  0  0  0  0  0
  141.3120   77.0810  219.4110 C   0  0  0  0  0  0  0  0  0  0  0  0
  140.2730   77.9390  219.8020 C   0  0  0  0  0  0  0  0  0  0  0  0
  139.8322   78.6343  219.0725 H   0  0  0  0  0  0  0  0  0  0  0  0
  139.7970   77.9130  221.1140 C   0  0  0  0  0  0  0  0  0  0  0  0
  138.9801   78.5855  221.4147 H   0  0  0  0  0  0  0  0  0  0  0  0
  140.3550   77.0360  222.0450 C   0  0  0  0  0  0  0  0  0  0  0  0
  139.9799   77.0240  223.0790 H   0  0  0  0  0  0  0  0  0  0  0  0
  141.3880   76.1730  221.6700 C   0  0  0  0  0  0  0  0  0  0  0  0
  141.8235   75.4878  222.4122 H   0  0  0  0  0  0  0  0  0  0  0  0
  141.8770   76.1740  220.3450 C   0  0  0  0  0  0  0  0  0  0  0  0
  139.3860   70.8210  223.5800 C   0  0  0  0  0  0  0  0  0  0  0  0
  139.9880   71.2990  224.7060 N   0  0  0  0  0  0  0  0  0  0  0  0
  140.1790   70.5260  225.8080 C   0  0  0  0  0  0  0  0  0  0  0  0
  140.8010   71.0580  226.9430 C   0  0  0  0  0  0  0  0  0  0  0  0
  141.1376   72.1052  226.9451 H   0  0  0  0  0  0  0  0  0  0  0  0
  140.9950   70.2600  228.0740 C   0  0  0  0  0  0  0  0  0  0  0  0
  141.4848   70.6809  228.9645 H   0  0  0  0  0  0  0  0  0  0  0  0
  140.5680   68.9270  228.0770 C   0  0  0  0  0  0  0  0  0  0  0  0
  140.7590   68.1590  229.1770 F   0  0  0  0  0  0  0  0  0  0  0  0
  139.9450   68.3860  226.9470 C   0  0  0  0  0  0  0  0  0  0  0  0
  139.6107   67.3380  226.9516 H   0  0  0  0  0  0  0  0  0  0  0  0
  139.7470   69.1810  225.8080 C   0  0  0  0  0  0  0  0  0  0  0  0
  139.1260   68.6700  224.6630 C   0  0  0  0  0  0  0  0  0  0  0  0
  138.7825   67.6252  224.6423 H   0  0  0  0  0  0  0  0  0  0  0  0
  138.9430   69.4890  223.5460 C   0  0  0  0  0  0  0  0  0  0  0  0
  138.4541   69.0922  222.6441 H   0  0  0  0  0  0  0  0  0  0  0  0
  1  2  1  0
  2  3  1  0
  3  4  2  0
  4  5  1  0
  5  6  1  0
  5  7  1  0
  5  8  1  0
  8  9  2  0
  8 10  1  0
 10 11  1  0
 11 12  1  0
 11 13  1  0
 11 14  1  0
 14 15  1  6
 14 16  1  0
 16 17  1  0
 14 18  1  0
 18 19  1  0
 18 20  1  0
 18 21  1  0
 21 22  1  1
 21 23  1  0
 23 24  2  0
 24 25  1  0
 25 26  1  0
 25 27  2  0
 27 28  1  0
 27 29  1  0
 29 30  2  0
 30 31  1  0
 30 32  1  0
 32 33  1  0
 32 34  2  0
 34 35  1  0
 34 36  1  0
 36 37  1  0
 36 38  2  0
  3 39  1  0
 39 40  2  0
 40 41  1  0
 41 42  2  0
 42 43  1  0
 42 44  1  0
 44 45  1  0
 44 46  2  0
 46 47  1  0
 46 48  1  0
 48 49  1  0
 48 50  2  0
 50 51  1  0
 51 52  1  0
 51 53  2  0
 53 54  1  0
 21 10  1  0
 38 23  1  0
 53 39  1  0
 38 29  1  0
 50 41  1  0
M  END
>  <UniqueID>  (4) 
25

>  <SMILES>  (4) 
O=C(C/N=C(\O)c1ccc2cc(F)ccc2n1)N1C[C@H](O)C[C@H]1c1nccc2ccccc12

>  <Energy>  (4) 
67.91710877564772

>  <Genealogy>  (4) 
O=C(CN=C(O)c1ccc2cc(F)ccc2n1)N1C[C@H](O)C[C@H]1c1nccc2ccccc12 (tautomer)
O=C(C/N=C(\O)c1ccc2cc(F)ccc2n1)N1C[C@H](O)C[C@H]1c1nccc2ccccc12 (cis-trans isomerization)
O=C(C/N=C(\O)c1ccc2cc(F)ccc2n1)N1C[C@H](O)C[C@H]1c1nccc2ccccc12 (3D coordinates assigned)
O=C(C/N=C(\O)c1ccc2cc(F)ccc2n1)N1C[C@H](O)C[C@H]1c1nccc2ccccc12 (nonaromatic ring conformer: 67.91710877564772 kcal/mol)

>  <smiles>  (4) 
O=C(NCC(=O)N1C[C@H](O)C[C@H]1c1nccc2ccccc12)c1ccc2cc(F)ccc2n1

>  <score_type>  (4) 
oracle

>  <origin>  (4) 
autodockgpu

>  <m_score__min__energy>  (4) 
-9.0299999999999994

>  <m_primary>  (4) 
energy

>  <meeko>  (4) 
{"free_energy": -8.51, "intermolecular_energy": -10.89, "internal_energy": -1.79, "cluster_size": 3, "cluster_id": 1, "rank_in_cluster": 3}

>  <energy>  (4) 
-8.96

>  <cluster_rmsd>  (4) 
0.0

>  <rmsd>  (4) 
270.06

>  <cluster>  (4) 
2

$$$$
PTHZUPGKXGNJLI-VUCLPHKJNA-N
     RDKit          3D

 54 58  0  0  0  0  0  0  0  0999 V2000
  137.8190   73.4040  222.9830 H   0  0  0  0  0  0  0  0  0  0  0  0
  138.3280   73.4380  222.1100 O   0  0  0  0  0  0  0  0  0  0  0  0
  139.5660   74.0700  221.9640 C   0  0  0  0  0  0  0  0  0  0  0  0
  139.7470   75.3140  222.3070 N   0  0  0  0  0  0  0  0  0  0  0  0
  139.2700   76.4900  221.5840 C   0  0  0  0  0  0  0  0  0  0  0  0
  139.7583   77.3871  221.9923 H   0  0  0  0  0  0  0  0  0  0  0  0
  138.1789   76.5598  221.7047 H   0  0  0  0  0  0  0  0  0  0  0  0
  139.5870   76.3800  220.1180 C   0  0  0  0  0  0  0  0  0  0  0  0
  138.6430   76.1940  219.3040 O   0  0  0  0  0  0  0  0  0  0  0  0
  140.9410   76.4710  219.6320 N   0  0  0  0  0  0  0  0  0  0  0  0
  141.4170   75.8390  218.4120 C   0  0  0  0  0  0  0  0  0  0  0  0
  141.3558   74.7440  218.4974 H   0  0  0  0  0  0  0  0  0  0  0  0
  140.8111   76.1273  217.5404 H   0  0  0  0  0  0  0  0  0  0  0  0
  142.8710   76.2820  218.2620 C   0  0  2  0  0  0  0  0  0  0  0  0
  142.9710   77.0799  217.5114 H   0  0  0  0  0  0  0  0  0  0  0  0
  143.6870   75.2300  217.8180 O   0  0  0  0  0  0  0  0  0  0  0  0
  144.6200   75.5690  217.8460 H   0  0  0  0  0  0  0  0  0  0  0  0
  143.2960   76.7440  219.6550 C   0  0  0  0  0  0  0  0  0  0  0  0
  143.7829   75.9224  220.2008 H   0  0  0  0  0  0  0  0  0  0  0  0
  144.0204   77.5704  219.6081 H   0  0  0  0  0  0  0  0  0  0  0  0
  142.0030   77.1610  220.3580 C   0  0  1  0  0  0  0  0  0  0  0  0
  142.0108   76.8967  221.4257 H   0  0  0  0  0  0  0  0  0  0  0  0
  141.8130   78.6680  220.3010 C   0  0  0  0  0  0  0  0  0  0  0  0
  141.6230   79.2530  219.0840 N   0  0  0  0  0  0  0  0  0  0  0  0
  141.4540   80.5910  218.9300 C   0  0  0  0  0  0  0  0  0  0  0  0
  141.3001   81.0126  217.9257 H   0  0  0  0  0  0  0  0  0  0  0  0
  141.4750   81.4310  220.0400 C   0  0  0  0  0  0  0  0  0  0  0  0
  141.3259   82.5140  219.9181 H   0  0  0  0  0  0  0  0  0  0  0  0
  141.6870   80.8880  221.3110 C   0  0  0  0  0  0  0  0  0  0  0  0
  141.7270   81.7260  222.4360 C   0  0  0  0  0  0  0  0  0  0  0  0
  141.5767   82.8093  222.3184 H   0  0  0  0  0  0  0  0  0  0  0  0
  141.9570   81.1890  223.7040 C   0  0  0  0  0  0  0  0  0  0  0  0
  141.9845   81.8498  224.5829 H   0  0  0  0  0  0  0  0  0  0  0  0
  142.1520   79.8170  223.8590 C   0  0  0  0  0  0  0  0  0  0  0  0
  142.3374   79.4002  224.8599 H   0  0  0  0  0  0  0  0  0  0  0  0
  142.1130   78.9690  222.7490 C   0  0  0  0  0  0  0  0  0  0  0  0
  142.2729   77.8888  222.8815 H   0  0  0  0  0  0  0  0  0  0  0  0
  141.8700   79.4880  221.4590 C   0  0  0  0  0  0  0  0  0  0  0  0
  140.7030   73.3110  221.4080 C   0  0  0  0  0  0  0  0  0  0  0  0
  141.9220   73.9110  221.2960 N   0  0  0  0  0  0  0  0  0  0  0  0
  143.0060   73.2590  220.7990 C   0  0  0  0  0  0  0  0  0  0  0  0
  144.2390   73.9150  220.7030 C   0  0  0  0  0  0  0  0  0  0  0  0
  144.3321   74.9612  221.0298 H   0  0  0  0  0  0  0  0  0  0  0  0
  145.3520   73.2410  220.1920 C   0  0  0  0  0  0  0  0  0  0  0  0
  146.3198   73.7586  220.1175 H   0  0  0  0  0  0  0  0  0  0  0  0
  145.2390   71.9100  219.7750 C   0  0  0  0  0  0  0  0  0  0  0  0
  146.3220   71.2630  219.2800 F   0  0  0  0  0  0  0  0  0  0  0  0
  144.0100   71.2460  219.8660 C   0  0  0  0  0  0  0  0  0  0  0  0
  143.9232   70.2003  219.5358 H   0  0  0  0  0  0  0  0  0  0  0  0
  142.8890   71.9160  220.3790 C   0  0  0  0  0  0  0  0  0  0  0  0
  141.6470   71.2800  220.4850 C   0  0  0  0  0  0  0  0  0  0  0  0
  141.5344   70.2341  220.1635 H   0  0  0  0  0  0  0  0  0  0  0  0
  140.5500   71.9760  221.0000 C   0  0  0  0  0  0  0  0  0  0  0  0
  139.5716   71.4806  221.0853 H   0  0  0  0  0  0  0  0  0  0  0  0
  1  2  1  0
  2  3  1  0
  3  4  2  0
  4  5  1  0
  5  6  1  0
  5  7  1  0
  5  8  1  0
  8  9  2  0
  8 10  1  0
 10 11  1  0
 11 12  1  0
 11 13  1  0
 11 14  1  0
 14 15  1  6
 14 16  1  0
 16 17  1  0
 14 18  1  0
 18 19  1  0
 18 20  1  0
 18 21  1  0
 21 22  1  1
 21 23  1  0
 23 24  2  0
 24 25  1  0
 25 26  1  0
 25 27  2  0
 27 28  1  0
 27 29  1  0
 29 30  2  0
 30 31  1  0
 30 32  1  0
 32 33  1  0
 32 34  2  0
 34 35  1  0
 34 36  1  0
 36 37  1  0
 36 38  2  0
  3 39  1  0
 39 40  2  0
 40 41  1  0
 41 42  2  0
 42 43  1  0
 42 44  1  0
 44 45  1  0
 44 46  2  0
 46 47  1  0
 46 48  1  0
 48 49  1  0
 48 50  2  0
 50 51  1  0
 51 52  1  0
 51 53  2  0
 53 54  1  0
 21 10  1  0
 38 23  1  0
 53 39  1  0
 38 29  1  0
 50 41  1  0
M  END
>  <UniqueID>  (5) 
25

>  <SMILES>  (5) 
O=C(C/N=C(\O)c1ccc2cc(F)ccc2n1)N1C[C@H](O)C[C@H]1c1nccc2ccccc12

>  <Energy>  (5) 
67.91710877564772

>  <Genealogy>  (5) 
O=C(CN=C(O)c1ccc2cc(F)ccc2n1)N1C[C@H](O)C[C@H]1c1nccc2ccccc12 (tautomer)
O=C(C/N=C(\O)c1ccc2cc(F)ccc2n1)N1C[C@H](O)C[C@H]1c1nccc2ccccc12 (cis-trans isomerization)
O=C(C/N=C(\O)c1ccc2cc(F)ccc2n1)N1C[C@H](O)C[C@H]1c1nccc2ccccc12 (3D coordinates assigned)
O=C(C/N=C(\O)c1ccc2cc(F)ccc2n1)N1C[C@H](O)C[C@H]1c1nccc2ccccc12 (nonaromatic ring conformer: 67.91710877564772 kcal/mol)

>  <smiles>  (5) 
O=C(NCC(=O)N1C[C@H](O)C[C@H]1c1nccc2ccccc12)c1ccc2cc(F)ccc2n1

>  <score_type>  (5) 
oracle

>  <origin>  (5) 
autodockgpu

>  <m_score__min__energy>  (5) 
-9.0299999999999994

>  <m_primary>  (5) 
energy

>  <meeko>  (5) 
{"free_energy": -7.46, "intermolecular_energy": -9.85, "internal_energy": -2.45, "cluster_size": 1, "cluster_id": 5, "rank_in_cluster": 1}

>  <energy>  (5) 
-8.95

>  <cluster_rmsd>  (5) 
0.4

>  <rmsd>  (5) 
270.02

>  <cluster>  (5) 
2

$$$$
PTHZUPGKXGNJLI-VUCLPHKJNA-N
     RDKit          3D

 54 58  0  0  0  0  0  0  0  0999 V2000
  139.2790   74.6070  223.2270 H   0  0  0  0  0  0  0  0  0  0  0  0
  139.7010   74.3820  222.3370 O   0  0  0  0  0  0  0  0  0  0  0  0
  139.9030   73.0730  221.8890 C   0  0  0  0  0  0  0  0  0  0  0  0
  140.0570   72.7960  220.6250 N   0  0  0  0  0  0  0  0  0  0  0  0
  141.2900   72.3550  219.9780 C   0  0  0  0  0  0  0  0  0  0  0  0
  141.1300   72.3077  218.8907 H   0  0  0  0  0  0  0  0  0  0  0  0
  141.5581   71.3623  220.3686 H   0  0  0  0  0  0  0  0  0  0  0  0
  142.4160   73.3090  220.2700 C   0  0  0  0  0  0  0  0  0  0  0  0
  143.2150   73.0390  221.2070 O   0  0  0  0  0  0  0  0  0  0  0  0
  142.5890   74.5220  219.5110 N   0  0  0  0  0  0  0  0  0  0  0  0
  143.0100   74.5630  218.1190 C   0  0  0  0  0  0  0  0  0  0  0  0
  144.0307   74.1664  218.0144 H   0  0  0  0  0  0  0  0  0  0  0  0
  142.3601   73.9491  217.4781 H   0  0  0  0  0  0  0  0  0  0  0  0
  142.9670   76.0380  217.7220 C   0  0  2  0  0  0  0  0  0  0  0  0
  142.0699   76.2686  217.1287 H   0  0  0  0  0  0  0  0  0  0  0  0
  144.0630   76.3850  216.9170 O   0  0  0  0  0  0  0  0  0  0  0  0
  144.8680   76.0140  217.3650 H   0  0  0  0  0  0  0  0  0  0  0  0
  143.0000   76.8090  219.0410 C   0  0  0  0  0  0  0  0  0  0  0  0
  144.0330   77.0853  219.2992 H   0  0  0  0  0  0  0  0  0  0  0  0
  142.4237   77.7441  218.9819 H   0  0  0  0  0  0  0  0  0  0  0  0
  142.4250   75.8530  220.0870 C   0  0  1  0  0  0  0  0  0  0  0  0
  142.9360   75.9483  221.0564 H   0  0  0  0  0  0  0  0  0  0  0  0
  140.9590   76.1540  220.3540 C   0  0  0  0  0  0  0  0  0  0  0  0
  140.0180   75.5260  219.5920 N   0  0  0  0  0  0  0  0  0  0  0  0
  138.6860   75.7360  219.7480 C   0  0  0  0  0  0  0  0  0  0  0  0
  137.9677   75.1996  219.1106 H   0  0  0  0  0  0  0  0  0  0  0  0
  138.2270   76.6280  220.7120 C   0  0  0  0  0  0  0  0  0  0  0  0
  137.1475   76.7903  220.8473 H   0  0  0  0  0  0  0  0  0  0  0  0
  139.1480   77.3170  221.5080 C   0  0  0  0  0  0  0  0  0  0  0  0
  138.6990   78.2320  222.4720 C   0  0  0  0  0  0  0  0  0  0  0  0
  137.6203   78.3960  222.6113 H   0  0  0  0  0  0  0  0  0  0  0  0
  139.6160   78.9350  223.2550 C   0  0  0  0  0  0  0  0  0  0  0  0
  139.2582   79.6489  224.0115 H   0  0  0  0  0  0  0  0  0  0  0  0
  140.9860   78.7340  223.0800 C   0  0  0  0  0  0  0  0  0  0  0  0
  141.7045   79.2942  223.6964 H   0  0  0  0  0  0  0  0  0  0  0  0
  141.4490   77.8250  222.1260 C   0  0  0  0  0  0  0  0  0  0  0  0
  142.5309   77.6773  221.9929 H   0  0  0  0  0  0  0  0  0  0  0  0
  140.5390   77.0940  221.3310 C   0  0  0  0  0  0  0  0  0  0  0  0
  139.9470   71.9720  222.8710 C   0  0  0  0  0  0  0  0  0  0  0  0
  140.4220   72.2100  224.1270 N   0  0  0  0  0  0  0  0  0  0  0  0
  140.4780   71.2370  225.0750 C   0  0  0  0  0  0  0  0  0  0  0  0
  140.9730   71.5260  226.3510 C   0  0  0  0  0  0  0  0  0  0  0  0
  141.3186   72.5428  226.5890 H   0  0  0  0  0  0  0  0  0  0  0  0
  141.0290   70.5240  227.3240 C   0  0  0  0  0  0  0  0  0  0  0  0
  141.4191   70.7539  228.3265 H   0  0  0  0  0  0  0  0  0  0  0  0
  140.5900   69.2290  227.0260 C   0  0  0  0  0  0  0  0  0  0  0  0
  140.6470   68.2610  227.9730 F   0  0  0  0  0  0  0  0  0  0  0  0
  140.0940   68.9300  225.7520 C   0  0  0  0  0  0  0  0  0  0  0  0
  139.7507   67.9110  225.5201 H   0  0  0  0  0  0  0  0  0  0  0  0
  140.0350   69.9310  224.7710 C   0  0  0  0  0  0  0  0  0  0  0  0
  139.5420   69.6650  223.4890 C   0  0  0  0  0  0  0  0  0  0  0  0
  139.1905   68.6547  223.2325 H   0  0  0  0  0  0  0  0  0  0  0  0
  139.4970   70.6850  222.5350 C   0  0  0  0  0  0  0  0  0  0  0  0
  139.1108   70.4807  221.5255 H   0  0  0  0  0  0  0  0  0  0  0  0
  1  2  1  0
  2  3  1  0
  3  4  2  0
  4  5  1  0
  5  6  1  0
  5  7  1  0
  5  8  1  0
  8  9  2  0
  8 10  1  0
 10 11  1  0
 11 12  1  0
 11 13  1  0
 11 14  1  0
 14 15  1  6
 14 16  1  0
 16 17  1  0
 14 18  1  0
 18 19  1  0
 18 20  1  0
 18 21  1  0
 21 22  1  1
 21 23  1  0
 23 24  2  0
 24 25  1  0
 25 26  1  0
 25 27  2  0
 27 28  1  0
 27 29  1  0
 29 30  2  0
 30 31  1  0
 30 32  1  0
 32 33  1  0
 32 34  2  0
 34 35  1  0
 34 36  1  0
 36 37  1  0
 36 38  2  0
  3 39  1  0
 39 40  2  0
 40 41  1  0
 41 42  2  0
 42 43  1  0
 42 44  1  0
 44 45  1  0
 44 46  2  0
 46 47  1  0
 46 48  1  0
 48 49  1  0
 48 50  2  0
 50 51  1  0
 51 52  1  0
 51 53  2  0
 53 54  1  0
 21 10  1  0
 38 23  1  0
 53 39  1  0
 38 29  1  0
 50 41  1  0
M  END
>  <UniqueID>  (6) 
25

>  <SMILES>  (6) 
O=C(C/N=C(\O)c1ccc2cc(F)ccc2n1)N1C[C@H](O)C[C@H]1c1nccc2ccccc12

>  <Energy>  (6) 
67.91710877564772

>  <Genealogy>  (6) 
O=C(CN=C(O)c1ccc2cc(F)ccc2n1)N1C[C@H](O)C[C@H]1c1nccc2ccccc12 (tautomer)
O=C(C/N=C(\O)c1ccc2cc(F)ccc2n1)N1C[C@H](O)C[C@H]1c1nccc2ccccc12 (cis-trans isomerization)
O=C(C/N=C(\O)c1ccc2cc(F)ccc2n1)N1C[C@H](O)C[C@H]1c1nccc2ccccc12 (3D coordinates assigned)
O=C(C/N=C(\O)c1ccc2cc(F)ccc2n1)N1C[C@H](O)C[C@H]1c1nccc2ccccc12 (nonaromatic ring conformer: 67.91710877564772 kcal/mol)

>  <smiles>  (6) 
O=C(NCC(=O)N1C[C@H](O)C[C@H]1c1nccc2ccccc12)c1ccc2cc(F)ccc2n1

>  <score_type>  (6) 
oracle

>  <origin>  (6) 
autodockgpu

>  <m_score__min__energy>  (6) 
-9.0299999999999994

>  <m_primary>  (6) 
energy

>  <meeko>  (6) 
{"free_energy": -7.61, "intermolecular_energy": -10.0, "internal_energy": -2.1, "cluster_size": 6, "cluster_id": 2, "rank_in_cluster": 6}

>  <energy>  (6) 
-8.89

>  <cluster_rmsd>  (6) 
1.34

>  <rmsd>  (6) 
269.89

>  <cluster>  (6) 
2

$$$$
PTHZUPGKXGNJLI-VUCLPHKJNA-N
     RDKit          3D

 54 58  0  0  0  0  0  0  0  0999 V2000
  140.9290   74.9310  221.9070 H   0  0  0  0  0  0  0  0  0  0  0  0
  140.2800   74.2330  222.2430 O   0  0  0  0  0  0  0  0  0  0  0  0
  140.4290   72.8640  222.0040 C   0  0  0  0  0  0  0  0  0  0  0  0
  140.7140   72.4010  220.8200 N   0  0  0  0  0  0  0  0  0  0  0  0
  141.2040   73.1750  219.6820 C   0  0  0  0  0  0  0  0  0  0  0  0
  140.3465   73.5897  219.1317 H   0  0  0  0  0  0  0  0  0  0  0  0
  141.7918   72.5114  219.0308 H   0  0  0  0  0  0  0  0  0  0  0  0
  142.0860   74.3030  220.1440 C   0  0  0  0  0  0  0  0  0  0  0  0
  142.8200   74.1270  221.1530 O   0  0  0  0  0  0  0  0  0  0  0  0
  142.0980   75.5740  219.4660 N   0  0  0  0  0  0  0  0  0  0  0  0
  141.9180   75.7380  218.0310 C   0  0  0  0  0  0  0  0  0  0  0  0
  142.7442   75.2614  217.4831 H   0  0  0  0  0  0  0  0  0  0  0  0
  140.9873   75.2680  217.6804 H   0  0  0  0  0  0  0  0  0  0  0  0
  141.9170   77.2460  217.7890 C   0  0  2  0  0  0  0  0  0  0  0  0
  140.8958   77.6273  217.6414 H   0  0  0  0  0  0  0  0  0  0  0  0
  142.6260   77.5810  216.6260 O   0  0  0  0  0  0  0  0  0  0  0  0
  143.1680   78.3830  216.8500 H   0  0  0  0  0  0  0  0  0  0  0  0
  142.5860   77.8510  219.0220 C   0  0  0  0  0  0  0  0  0  0  0  0
  143.6617   77.9960  218.8437 H   0  0  0  0  0  0  0  0  0  0  0  0
  142.1671   78.8371  219.2714 H   0  0  0  0  0  0  0  0  0  0  0  0
  142.3620   76.8380  220.1460 C   0  0  1  0  0  0  0  0  0  0  0  0
  143.2300   76.7710  220.8184 H   0  0  0  0  0  0  0  0  0  0  0  0
  141.1850   77.2430  221.0200 C   0  0  0  0  0  0  0  0  0  0  0  0
  140.0040   76.5800  220.8670 N   0  0  0  0  0  0  0  0  0  0  0  0
  138.8960   76.8750  221.5920 C   0  0  0  0  0  0  0  0  0  0  0  0
  137.9684   76.3057  221.4325 H   0  0  0  0  0  0  0  0  0  0  0  0
  138.9300   77.8960  222.5370 C   0  0  0  0  0  0  0  0  0  0  0  0
  138.0358   78.1288  223.1339 H   0  0  0  0  0  0  0  0  0  0  0  0
  140.1100   78.6240  222.7220 C   0  0  0  0  0  0  0  0  0  0  0  0
  140.1520   79.6680  223.6590 C   0  0  0  0  0  0  0  0  0  0  0  0
  139.2600   79.9031  224.2582 H   0  0  0  0  0  0  0  0  0  0  0  0
  141.3220   80.4090  223.8330 C   0  0  0  0  0  0  0  0  0  0  0  0
  141.3513   81.2231  224.5721 H   0  0  0  0  0  0  0  0  0  0  0  0
  142.4550   80.1190  223.0710 C   0  0  0  0  0  0  0  0  0  0  0  0
  143.3727   80.7097  223.2081 H   0  0  0  0  0  0  0  0  0  0  0  0
  142.4290   79.0820  222.1350 C   0  0  0  0  0  0  0  0  0  0  0  0
  143.3258   78.8640  221.5364 H   0  0  0  0  0  0  0  0  0  0  0  0
  141.2600   78.3120  221.9520 C   0  0  0  0  0  0  0  0  0  0  0  0
  140.2620   71.9130  223.1210 C   0  0  0  0  0  0  0  0  0  0  0  0
  140.7040   72.2540  224.3650 N   0  0  0  0  0  0  0  0  0  0  0  0
  140.5700   71.4230  225.4320 C   0  0  0  0  0  0  0  0  0  0  0  0
  141.0360   71.8140  226.6920 C   0  0  0  0  0  0  0  0  0  0  0  0
  141.5127   72.7969  226.8212 H   0  0  0  0  0  0  0  0  0  0  0  0
  140.8960   70.9560  227.7870 C   0  0  0  0  0  0  0  0  0  0  0  0
  141.2637   71.2657  228.7764 H   0  0  0  0  0  0  0  0  0  0  0  0
  140.2900   69.7050  227.6290 C   0  0  0  0  0  0  0  0  0  0  0  0
  140.1570   68.8790  228.6950 F   0  0  0  0  0  0  0  0  0  0  0  0
  139.8200   69.3050  226.3730 C   0  0  0  0  0  0  0  0  0  0  0  0
  139.3438   68.3210  226.2510 H   0  0  0  0  0  0  0  0  0  0  0  0
  139.9570   70.1610  225.2690 C   0  0  0  0  0  0  0  0  0  0  0  0
  139.4960   69.7910  224.0010 C   0  0  0  0  0  0  0  0  0  0  0  0
  139.0157   68.8125  223.8530 H   0  0  0  0  0  0  0  0  0  0  0  0
  139.6470   70.6670  222.9230 C   0  0  0  0  0  0  0  0  0  0  0  0
  139.2857   70.3815  221.9240 H   0  0  0  0  0  0  0  0  0  0  0  0
  1  2  1  0
  2  3  1  0
  3  4  2  0
  4  5  1  0
  5  6  1  0
  5  7  1  0
  5  8  1  0
  8  9  2  0
  8 10  1  0
 10 11  1  0
 11 12  1  0
 11 13  1  0
 11 14  1  0
 14 15  1  6
 14 16  1  0
 16 17  1  0
 14 18  1  0
 18 19  1  0
 18 20  1  0
 18 21  1  0
 21 22  1  1
 21 23  1  0
 23 24  2  0
 24 25  1  0
 25 26  1  0
 25 27  2  0
 27 28  1  0
 27 29  1  0
 29 30  2  0
 30 31  1  0
 30 32  1  0
 32 33  1  0
 32 34  2  0
 34 35  1  0
 34 36  1  0
 36 37  1  0
 36 38  2  0
  3 39  1  0
 39 40  2  0
 40 41  1  0
 41 42  2  0
 42 43  1  0
 42 44  1  0
 44 45  1  0
 44 46  2  0
 46 47  1  0
 46 48  1  0
 48 49  1  0
 48 50  2  0
 50 51  1  0
 51 52  1  0
 51 53  2  0
 53 54  1  0
 21 10  1  0
 38 23  1  0
 53 39  1  0
 38 29  1  0
 50 41  1  0
M  END
>  <UniqueID>  (7) 
25

>  <SMILES>  (7) 
O=C(C/N=C(\O)c1ccc2cc(F)ccc2n1)N1C[C@H](O)C[C@H]1c1nccc2ccccc12

>  <Energy>  (7) 
67.91710877564772

>  <Genealogy>  (7) 
O=C(CN=C(O)c1ccc2cc(F)ccc2n1)N1C[C@H](O)C[C@H]1c1nccc2ccccc12 (tautomer)
O=C(C/N=C(\O)c1ccc2cc(F)ccc2n1)N1C[C@H](O)C[C@H]1c1nccc2ccccc12 (cis-trans isomerization)
O=C(C/N=C(\O)c1ccc2cc(F)ccc2n1)N1C[C@H](O)C[C@H]1c1nccc2ccccc12 (3D coordinates assigned)
O=C(C/N=C(\O)c1ccc2cc(F)ccc2n1)N1C[C@H](O)C[C@H]1c1nccc2ccccc12 (nonaromatic ring conformer: 67.91710877564772 kcal/mol)

>  <smiles>  (7) 
O=C(NCC(=O)N1C[C@H](O)C[C@H]1c1nccc2ccccc12)c1ccc2cc(F)ccc2n1

>  <score_type>  (7) 
oracle

>  <origin>  (7) 
autodockgpu

>  <m_score__min__energy>  (7) 
-9.0299999999999994

>  <m_primary>  (7) 
energy

>  <meeko>  (7) 
{"free_energy": -8.15, "intermolecular_energy": -10.53, "internal_energy": -2.53, "cluster_size": 6, "cluster_id": 2, "rank_in_cluster": 4}

>  <energy>  (7) 
-8.15

>  <cluster_rmsd>  (7) 
1.44

>  <rmsd>  (7) 
269.87

>  <cluster>  (7) 
2

$$$$
PTHZUPGKXGNJLI-VUCLPHKJNA-N
     RDKit          3D

 54 58  0  0  0  0  0  0  0  0999 V2000
  138.3560   74.3880  219.9170 H   0  0  0  0  0  0  0  0  0  0  0  0
  138.1890   74.7530  220.8450 O   0  0  0  0  0  0  0  0  0  0  0  0
  139.2120   75.0650  221.7450 C   0  0  0  0  0  0  0  0  0  0  0  0
  139.9600   74.1410  222.2810 N   0  0  0  0  0  0  0  0  0  0  0  0
  140.6790   73.0880  221.5680 C   0  0  0  0  0  0  0  0  0  0  0  0
  139.9690   72.2997  221.2774 H   0  0  0  0  0  0  0  0  0  0  0  0
  141.4547   72.6790  222.2320 H   0  0  0  0  0  0  0  0  0  0  0  0
  141.3410   73.6350  220.3330 C   0  0  0  0  0  0  0  0  0  0  0  0
  140.6230   73.9540  219.3480 O   0  0  0  0  0  0  0  0  0  0  0  0
  142.7720   73.7900  220.2530 N   0  0  0  0  0  0  0  0  0  0  0  0
  143.7150   72.6820  220.2330 C   0  0  0  0  0  0  0  0  0  0  0  0
  143.6718   72.1234  221.1796 H   0  0  0  0  0  0  0  0  0  0  0  0
  143.4877   71.9673  219.4283 H   0  0  0  0  0  0  0  0  0  0  0  0
  145.0910   73.3200  220.0520 C   0  0  2  0  0  0  0  0  0  0  0  0
  145.4430   73.2253  219.0142 H   0  0  0  0  0  0  0  0  0  0  0  0
  146.0590   72.6890  220.8490 O   0  0  0  0  0  0  0  0  0  0  0  0
  145.5750   72.0190  221.3990 H   0  0  0  0  0  0  0  0  0  0  0  0
  144.9160   74.7790  220.4710 C   0  0  0  0  0  0  0  0  0  0  0  0
  145.1837   74.9101  221.5298 H   0  0  0  0  0  0  0  0  0  0  0  0
  145.5655   75.4517  219.8917 H   0  0  0  0  0  0  0  0  0  0  0  0
  143.4340   75.0900  220.2510 C   0  0  1  0  0  0  0  0  0  0  0  0
  143.0337   75.7568  221.0289 H   0  0  0  0  0  0  0  0  0  0  0  0
  143.2180   75.8100  218.9300 C   0  0  0  0  0  0  0  0  0  0  0  0
  143.6410   75.2050  217.7840 N   0  0  0  0  0  0  0  0  0  0  0  0
  143.5010   75.7710  216.5590 C   0  0  0  0  0  0  0  0  0  0  0  0
  143.8541   75.2370  215.6645 H   0  0  0  0  0  0  0  0  0  0  0  0
  142.9120   77.0250  216.4310 C   0  0  0  0  0  0  0  0  0  0  0  0
  142.7885   77.4806  215.4374 H   0  0  0  0  0  0  0  0  0  0  0  0
  142.4780   77.7020  217.5760 C   0  0  0  0  0  0  0  0  0  0  0  0
  141.8970   78.9750  217.4620 C   0  0  0  0  0  0  0  0  0  0  0  0
  141.7695   79.4327  216.4699 H   0  0  0  0  0  0  0  0  0  0  0  0
  141.4810   79.6610  218.6030 C   0  0  0  0  0  0  0  0  0  0  0  0
  141.0231   80.6566  218.5078 H   0  0  0  0  0  0  0  0  0  0  0  0
  141.6440   79.0880  219.8650 C   0  0  0  0  0  0  0  0  0  0  0  0
  141.3190   79.6364  220.7614 H   0  0  0  0  0  0  0  0  0  0  0  0
  142.2180   77.8210  219.9950 C   0  0  0  0  0  0  0  0  0  0  0  0
  142.3453   77.3793  220.9943 H   0  0  0  0  0  0  0  0  0  0  0  0
  142.6360   77.1030  218.8530 C   0  0  0  0  0  0  0  0  0  0  0  0
  139.4560   76.4760  222.1010 C   0  0  0  0  0  0  0  0  0  0  0  0
  140.6650   76.8400  222.6160 N   0  0  0  0  0  0  0  0  0  0  0  0
  140.9490   78.1260  222.9540 C   0  0  0  0  0  0  0  0  0  0  0  0
  142.2040   78.4550  223.4780 C   0  0  0  0  0  0  0  0  0  0  0  0
  142.9642   77.6722  223.6169 H   0  0  0  0  0  0  0  0  0  0  0  0
  142.4920   79.7780  223.8250 C   0  0  0  0  0  0  0  0  0  0  0  0
  143.4789   80.0340  224.2378 H   0  0  0  0  0  0  0  0  0  0  0  0
  141.5290   80.7780  223.6490 C   0  0  0  0  0  0  0  0  0  0  0  0
  141.8150   82.0580  223.9870 F   0  0  0  0  0  0  0  0  0  0  0  0
  140.2720   80.4580  223.1260 C   0  0  0  0  0  0  0  0  0  0  0  0
  139.5162   81.2455  222.9898 H   0  0  0  0  0  0  0  0  0  0  0  0
  139.9750   79.1320  222.7750 C   0  0  0  0  0  0  0  0  0  0  0  0
  138.7270   78.7810  222.2480 C   0  0  0  0  0  0  0  0  0  0  0  0
  137.9547   79.5503  222.1009 H   0  0  0  0  0  0  0  0  0  0  0  0
  138.4640   77.4510  221.9090 C   0  0  0  0  0  0  0  0  0  0  0  0
  137.4850   77.1694  221.4939 H   0  0  0  0  0  0  0  0  0  0  0  0
  1  2  1  0
  2  3  1  0
  3  4  2  0
  4  5  1  0
  5  6  1  0
  5  7  1  0
  5  8  1  0
  8  9  2  0
  8 10  1  0
 10 11  1  0
 11 12  1  0
 11 13  1  0
 11 14  1  0
 14 15  1  6
 14 16  1  0
 16 17  1  0
 14 18  1  0
 18 19  1  0
 18 20  1  0
 18 21  1  0
 21 22  1  1
 21 23  1  0
 23 24  2  0
 24 25  1  0
 25 26  1  0
 25 27  2  0
 27 28  1  0
 27 29  1  0
 29 30  2  0
 30 31  1  0
 30 32  1  0
 32 33  1  0
 32 34  2  0
 34 35  1  0
 34 36  1  0
 36 37  1  0
 36 38  2  0
  3 39  1  0
 39 40  2  0
 40 41  1  0
 41 42  2  0
 42 43  1  0
 42 44  1  0
 44 45  1  0
 44 46  2  0
 46 47  1  0
 46 48  1  0
 48 49  1  0
 48 50  2  0
 50 51  1  0
 51 52  1  0
 51 53  2  0
 53 54  1  0
 21 10  1  0
 38 23  1  0
 53 39  1  0
 38 29  1  0
 50 41  1  0
M  END
>  <UniqueID>  (8) 
25

>  <SMILES>  (8) 
O=C(C/N=C(\O)c1ccc2cc(F)ccc2n1)N1C[C@H](O)C[C@H]1c1nccc2ccccc12

>  <Energy>  (8) 
67.91710877564772

>  <Genealogy>  (8) 
O=C(CN=C(O)c1ccc2cc(F)ccc2n1)N1C[C@H](O)C[C@H]1c1nccc2ccccc12 (tautomer)
O=C(C/N=C(\O)c1ccc2cc(F)ccc2n1)N1C[C@H](O)C[C@H]1c1nccc2ccccc12 (cis-trans isomerization)
O=C(C/N=C(\O)c1ccc2cc(F)ccc2n1)N1C[C@H](O)C[C@H]1c1nccc2ccccc12 (3D coordinates assigned)
O=C(C/N=C(\O)c1ccc2cc(F)ccc2n1)N1C[C@H](O)C[C@H]1c1nccc2ccccc12 (nonaromatic ring conformer: 67.91710877564772 kcal/mol)

>  <smiles>  (8) 
O=C(NCC(=O)N1C[C@H](O)C[C@H]1c1nccc2ccccc12)c1ccc2cc(F)ccc2n1

>  <score_type>  (8) 
oracle

>  <origin>  (8) 
autodockgpu

>  <m_score__min__energy>  (8) 
-9.0299999999999994

>  <m_primary>  (8) 
energy

>  <meeko>  (8) 
{"free_energy": -7.08, "intermolecular_energy": -9.47, "internal_energy": -2.97, "cluster_size": 9, "cluster_id": 4, "rank_in_cluster": 5}

>  <energy>  (8) 
-7.9

>  <cluster_rmsd>  (8) 
1.61

>  <rmsd>  (8) 
269.67

>  <cluster>  (8) 
2

$$$$
PTHZUPGKXGNJLI-VUCLPHKJNA-N
     RDKit          3D

 54 58  0  0  0  0  0  0  0  0999 V2000
  139.2920   73.1390  223.3720 H   0  0  0  0  0  0  0  0  0  0  0  0
  139.9410   73.5000  222.6870 O   0  0  0  0  0  0  0  0  0  0  0  0
  139.5460   74.2270  221.5600 C   0  0  0  0  0  0  0  0  0  0  0  0
  138.7340   73.7280  220.6720 N   0  0  0  0  0  0  0  0  0  0  0  0
  137.5240   72.9560  220.9420 C   0  0  0  0  0  0  0  0  0  0  0  0
  137.2582   72.3769  220.0454 H   0  0  0  0  0  0  0  0  0  0  0  0
  136.7130   73.6518  221.2030 H   0  0  0  0  0  0  0  0  0  0  0  0
  137.7380   72.0120  222.0930 C   0  0  0  0  0  0  0  0  0  0  0  0
  137.2740   72.3170  223.2240 O   0  0  0  0  0  0  0  0  0  0  0  0
  138.4680   70.7800  221.9300 N   0  0  0  0  0  0  0  0  0  0  0  0
  139.1590   70.3930  220.7090 C   0  0  0  0  0  0  0  0  0  0  0  0
  138.4404   70.2584  219.8871 H   0  0  0  0  0  0  0  0  0  0  0  0
  139.8764   71.1617  220.3859 H   0  0  0  0  0  0  0  0  0  0  0  0
  139.8530   69.0720  221.0320 C   0  0  2  0  0  0  0  0  0  0  0  0
  140.9274   69.2187  221.2167 H   0  0  0  0  0  0  0  0  0  0  0  0
  139.7650   68.1690  219.9620 O   0  0  0  0  0  0  0  0  0  0  0  0
  140.1440   67.3110  220.2880 H   0  0  0  0  0  0  0  0  0  0  0  0
  139.1250   68.5260  222.2600 C   0  0  0  0  0  0  0  0  0  0  0  0
  138.3258   67.8335  221.9570 H   0  0  0  0  0  0  0  0  0  0  0  0
  139.8022   67.9641  222.9200 H   0  0  0  0  0  0  0  0  0  0  0  0
  138.5340   69.7510  222.9620 C   0  0  1  0  0  0  0  0  0  0  0  0
  137.5459   69.5403  223.3970 H   0  0  0  0  0  0  0  0  0  0  0  0
  139.4160   70.1940  224.1180 C   0  0  0  0  0  0  0  0  0  0  0  0
  140.0620   71.3910  224.0210 N   0  0  0  0  0  0  0  0  0  0  0  0
  140.8770   71.8670  224.9960 C   0  0  0  0  0  0  0  0  0  0  0  0
  141.3708   72.8419  224.8703 H   0  0  0  0  0  0  0  0  0  0  0  0
  141.0900   71.1260  226.1540 C   0  0  0  0  0  0  0  0  0  0  0  0
  141.7418   71.5162  226.9496 H   0  0  0  0  0  0  0  0  0  0  0  0
  140.4690   69.8810  226.2990 C   0  0  0  0  0  0  0  0  0  0  0  0
  140.6890   69.1160  227.4550 C   0  0  0  0  0  0  0  0  0  0  0  0
  141.3380   69.5039  228.2539 H   0  0  0  0  0  0  0  0  0  0  0  0
  140.0870   67.8650  227.5940 C   0  0  0  0  0  0  0  0  0  0  0  0
  140.2599   67.2711  228.5036 H   0  0  0  0  0  0  0  0  0  0  0  0
  139.2660   67.3650  226.5820 C   0  0  0  0  0  0  0  0  0  0  0  0
  138.7989   66.3754  226.6944 H   0  0  0  0  0  0  0  0  0  0  0  0
  139.0350   68.1160  225.4270 C   0  0  0  0  0  0  0  0  0  0  0  0
  138.3885   67.7125  224.6338 H   0  0  0  0  0  0  0  0  0  0  0  0
  139.6250   69.3890  225.2700 C   0  0  0  0  0  0  0  0  0  0  0  0
  140.0590   75.5970  221.3680 C   0  0  0  0  0  0  0  0  0  0  0  0
  140.5180   76.3000  222.4430 N   0  0  0  0  0  0  0  0  0  0  0  0
  141.0090   77.5620  222.3250 C   0  0  0  0  0  0  0  0  0  0  0  0
  141.4710   78.2460  223.4550 C   0  0  0  0  0  0  0  0  0  0  0  0
  141.4369   77.7623  224.4423 H   0  0  0  0  0  0  0  0  0  0  0  0
  141.9760   79.5440  223.3300 C   0  0  0  0  0  0  0  0  0  0  0  0
  142.3389   80.0793  224.2198 H   0  0  0  0  0  0  0  0  0  0  0  0
  142.0210   80.1640  222.0760 C   0  0  0  0  0  0  0  0  0  0  0  0
  142.5110   81.4220  221.9620 F   0  0  0  0  0  0  0  0  0  0  0  0
  141.5620   79.4880  220.9410 C   0  0  0  0  0  0  0  0  0  0  0  0
  141.5991   79.9776  219.9566 H   0  0  0  0  0  0  0  0  0  0  0  0
  141.0540   78.1850  221.0580 C   0  0  0  0  0  0  0  0  0  0  0  0
  140.5880   77.4820  219.9420 C   0  0  0  0  0  0  0  0  0  0  0  0
  140.6144   77.9489  218.9464 H   0  0  0  0  0  0  0  0  0  0  0  0
  140.0890   76.1860  220.0940 C   0  0  0  0  0  0  0  0  0  0  0  0
  139.7212   75.6295  219.2193 H   0  0  0  0  0  0  0  0  0  0  0  0
  1  2  1  0
  2  3  1  0
  3  4  2  0
  4  5  1  0
  5  6  1  0
  5  7  1  0
  5  8  1  0
  8  9  2  0
  8 10  1  0
 10 11  1  0
 11 12  1  0
 11 13  1  0
 11 14  1  0
 14 15  1  1
 14 16  1  0
 16 17  1  0
 14 18  1  0
 18 19  1  0
 18 20  1  0
 18 21  1  0
 21 22  1  1
 21 23  1  0
 23 24  2  0
 24 25  1  0
 25 26  1  0
 25 27  2  0
 27 28  1  0
 27 29  1  0
 29 30  2  0
 30 31  1  0
 30 32  1  0
 32 33  1  0
 32 34  2  0
 34 35  1  0
 34 36  1  0
 36 37  1  0
 36 38  2  0
  3 39  1  0
 39 40  2  0
 40 41  1  0
 41 42  2  0
 42 43  1  0
 42 44  1  0
 44 45  1  0
 44 46  2  0
 46 47  1  0
 46 48  1  0
 48 49  1  0
 48 50  2  0
 50 51  1  0
 51 52  1  0
 51 53  2  0
 53 54  1  0
 21 10  1  0
 38 23  1  0
 53 39  1  0
 38 29  1  0
 50 41  1  0
M  END
>  <UniqueID>  (9) 
25

>  <SMILES>  (9) 
O=C(C/N=C(\O)c1ccc2cc(F)ccc2n1)N1C[C@H](O)C[C@H]1c1nccc2ccccc12

>  <Energy>  (9) 
67.91710877564772

>  <Genealogy>  (9) 
O=C(CN=C(O)c1ccc2cc(F)ccc2n1)N1C[C@H](O)C[C@H]1c1nccc2ccccc12 (tautomer)
O=C(C/N=C(\O)c1ccc2cc(F)ccc2n1)N1C[C@H](O)C[C@H]1c1nccc2ccccc12 (cis-trans isomerization)
O=C(C/N=C(\O)c1ccc2cc(F)ccc2n1)N1C[C@H](O)C[C@H]1c1nccc2ccccc12 (3D coordinates assigned)
O=C(C/N=C(\O)c1ccc2cc(F)ccc2n1)N1C[C@H](O)C[C@H]1c1nccc2ccccc12 (nonaromatic ring conformer: 67.91710877564772 kcal/mol)

>  <smiles>  (9) 
O=C(NCC(=O)N1C[C@H](O)C[C@H]1c1nccc2ccccc12)c1ccc2cc(F)ccc2n1

>  <score_type>  (9) 
oracle

>  <origin>  (9) 
autodockgpu

>  <m_score__min__energy>  (9) 
-9.0299999999999994

>  <m_primary>  (9) 
energy

>  <meeko>  (9) 
{"free_energy": -7.71, "intermolecular_energy": -10.09, "internal_energy": -2.43, "cluster_size": 1, "cluster_id": 3, "rank_in_cluster": 1}

>  <energy>  (9) 
-7.61

>  <cluster_rmsd>  (9) 
1.84

>  <rmsd>  (9) 
269.32

>  <cluster>  (9) 
2

$$$$
PTHZUPGKXGNJLI-VUCLPHKJNA-N
     RDKit          3D

 54 58  0  0  0  0  0  0  0  0999 V2000
  137.6740   73.5410  223.0900 H   0  0  0  0  0  0  0  0  0  0  0  0
  137.7390   72.6110  222.7010 O   0  0  0  0  0  0  0  0  0  0  0  0
  138.9310   71.8840  222.6350 C   0  0  0  0  0  0  0  0  0  0  0  0
  139.7470   71.9940  221.6250 N   0  0  0  0  0  0  0  0  0  0  0  0
  140.8220   72.9720  221.4830 C   0  0  0  0  0  0  0  0  0  0  0  0
  141.3081   72.8343  220.5059 H   0  0  0  0  0  0  0  0  0  0  0  0
  141.5470   72.8197  222.2962 H   0  0  0  0  0  0  0  0  0  0  0  0
  140.2840   74.3740  221.5730 C   0  0  0  0  0  0  0  0  0  0  0  0
  139.4100   74.6350  222.4420 O   0  0  0  0  0  0  0  0  0  0  0  0
  140.7390   75.4120  220.6830 N   0  0  0  0  0  0  0  0  0  0  0  0
  140.5540   75.3930  219.2400 C   0  0  0  0  0  0  0  0  0  0  0  0
  141.1050   74.5524  218.7931 H   0  0  0  0  0  0  0  0  0  0  0  0
  139.4963   75.2653  218.9664 H   0  0  0  0  0  0  0  0  0  0  0  0
  141.1120   76.7240  218.7380 C   0  0  2  0  0  0  0  0  0  0  0  0
  140.3058   77.4381  218.5142 H   0  0  0  0  0  0  0  0  0  0  0  0
  141.8280   76.5630  217.5430 O   0  0  0  0  0  0  0  0  0  0  0  0
  142.1000   77.4740  217.2550 H   0  0  0  0  0  0  0  0  0  0  0  0
  142.0290   77.2210  219.8540 C   0  0  0  0  0  0  0  0  0  0  0  0
  143.0675   76.9115  219.6649 H   0  0  0  0  0  0  0  0  0  0  0  0
  142.0297   78.3188  219.9235 H   0  0  0  0  0  0  0  0  0  0  0  0
  141.5020   76.5710  221.1350 C   0  0  1  0  0  0  0  0  0  0  0  0
  142.3166   76.2871  221.8175 H   0  0  0  0  0  0  0  0  0  0  0  0
  140.6190   77.5350  221.9120 C   0  0  0  0  0  0  0  0  0  0  0  0
  139.2830   77.2730  221.9910 N   0  0  0  0  0  0  0  0  0  0  0  0
  138.4140   78.0770  222.6530 C   0  0  0  0  0  0  0  0  0  0  0  0
  137.3461   77.8162  222.6920 H   0  0  0  0  0  0  0  0  0  0  0  0
  138.8700   79.2310  223.2830 C   0  0  0  0  0  0  0  0  0  0  0  0
  138.1682   79.8780  223.8297 H   0  0  0  0  0  0  0  0  0  0  0  0
  140.2270   79.5620  223.2160 C   0  0  0  0  0  0  0  0  0  0  0  0
  140.6970   80.7320  223.8320 C   0  0  0  0  0  0  0  0  0  0  0  0
  139.9984   81.3813  224.3800 H   0  0  0  0  0  0  0  0  0  0  0  0
  142.0480   81.0750  223.7520 C   0  0  0  0  0  0  0  0  0  0  0  0
  142.4117   81.9909  224.2408 H   0  0  0  0  0  0  0  0  0  0  0  0
  142.9380   80.2580  223.0530 C   0  0  0  0  0  0  0  0  0  0  0  0
  144.0003   80.5359  222.9876 H   0  0  0  0  0  0  0  0  0  0  0  0
  142.4860   79.0890  222.4360 C   0  0  0  0  0  0  0  0  0  0  0  0
  143.1948   78.4540  221.8843 H   0  0  0  0  0  0  0  0  0  0  0  0
  141.1260   78.7160  222.5150 C   0  0  0  0  0  0  0  0  0  0  0  0
  139.2800   70.9680  223.7380 C   0  0  0  0  0  0  0  0  0  0  0  0
  139.8370   71.4690  224.8770 N   0  0  0  0  0  0  0  0  0  0  0  0
  140.1710   70.6740  225.9290 C   0  0  0  0  0  0  0  0  0  0  0  0
  140.7390   71.2310  227.0790 C   0  0  0  0  0  0  0  0  0  0  0  0
  140.9161   72.3152  227.1350 H   0  0  0  0  0  0  0  0  0  0  0  0
  141.0820   70.4100  228.1580 C   0  0  0  0  0  0  0  0  0  0  0  0
  141.5303   70.8503  229.0609 H   0  0  0  0  0  0  0  0  0  0  0  0
  140.8570   69.0310  228.0930 C   0  0  0  0  0  0  0  0  0  0  0  0
  141.1920   68.2410  229.1420 F   0  0  0  0  0  0  0  0  0  0  0  0
  140.2900   68.4650  226.9460 C   0  0  0  0  0  0  0  0  0  0  0  0
  140.1162   67.3799  226.8962 H   0  0  0  0  0  0  0  0  0  0  0  0
  139.9430   69.2820  225.8590 C   0  0  0  0  0  0  0  0  0  0  0  0
  139.3720   68.7460  224.6990 C   0  0  0  0  0  0  0  0  0  0  0  0
  139.1858   67.6644  224.6252 H   0  0  0  0  0  0  0  0  0  0  0  0
  139.0390   69.5880  223.6350 C   0  0  0  0  0  0  0  0  0  0  0  0
  138.5902   69.1722  222.7208 H   0  0  0  0  0  0  0  0  0  0  0  0
  1  2  1  0
  2  3  1  0
  3  4  2  0
  4  5  1  0
  5  6  1  0
  5  7  1  0
  5  8  1  0
  8  9  2  0
  8 10  1  0
 10 11  1  0
 11 12  1  0
 11 13  1  0
 11 14  1  0
 14 15  1  6
 14 16  1  0
 16 17  1  0
 14 18  1  0
 18 19  1  0
 18 20  1  0
 18 21  1  0
 21 22  1  1
 21 23  1  0
 23 24  2  0
 24 25  1  0
 25 26  1  0
 25 27  2  0
 27 28  1  0
 27 29  1  0
 29 30  2  0
 30 31  1  0
 30 32  1  0
 32 33  1  0
 32 34  2  0
 34 35  1  0
 34 36  1  0
 36 37  1  0
 36 38  2  0
  3 39  1  0
 39 40  2  0
 40 41  1  0
 41 42  2  0
 42 43  1  0
 42 44  1  0
 44 45  1  0
 44 46  2  0
 46 47  1  0
 46 48  1  0
 48 49  1  0
 48 50  2  0
 50 51  1  0
 51 52  1  0
 51 53  2  0
 53 54  1  0
 21 10  1  0
 38 23  1  0
 53 39  1  0
 38 29  1  0
 50 41  1  0
M  END
>  <UniqueID>  (10) 
25

>  <SMILES>  (10) 
O=C(C/N=C(\O)c1ccc2cc(F)ccc2n1)N1C[C@H](O)C[C@H]1c1nccc2ccccc12

>  <Energy>  (10) 
67.91710877564772

>  <Genealogy>  (10) 
O=C(CN=C(O)c1ccc2cc(F)ccc2n1)N1C[C@H](O)C[C@H]1c1nccc2ccccc12 (tautomer)
O=C(C/N=C(\O)c1ccc2cc(F)ccc2n1)N1C[C@H](O)C[C@H]1c1nccc2ccccc12 (cis-trans isomerization)
O=C(C/N=C(\O)c1ccc2cc(F)ccc2n1)N1C[C@H](O)C[C@H]1c1nccc2ccccc12 (3D coordinates assigned)
O=C(C/N=C(\O)c1ccc2cc(F)ccc2n1)N1C[C@H](O)C[C@H]1c1nccc2ccccc12 (nonaromatic ring conformer: 67.91710877564772 kcal/mol)

>  <smiles>  (10) 
O=C(NCC(=O)N1C[C@H](O)C[C@H]1c1nccc2ccccc12)c1ccc2cc(F)ccc2n1

>  <score_type>  (10) 
oracle

>  <origin>  (10) 
autodockgpu

>  <m_score__min__energy>  (10) 
-9.0299999999999994

>  <m_primary>  (10) 
energy

>  <meeko>  (10) 
{"free_energy": -8.96, "intermolecular_energy": -11.35, "internal_energy": -1.73, "cluster_size": 6, "cluster_id": 2, "rank_in_cluster": 1}

>  <energy>  (10) 
-7.71

>  <cluster_rmsd>  (10) 
0.0

>  <rmsd>  (10) 
269.27

>  <cluster>  (10) 
3

$$$$
PTHZUPGKXGNJLI-VUCLPHKJNA-N
     RDKit          3D

 54 58  0  0  0  0  0  0  0  0999 V2000
  139.3760   75.0850  219.4460 H   0  0  0  0  0  0  0  0  0  0  0  0
  138.9300   75.4380  220.2820 O   0  0  0  0  0  0  0  0  0  0  0  0
  139.5710   75.5180  221.5210 C   0  0  0  0  0  0  0  0  0  0  0  0
  139.9550   74.4520  222.1650 N   0  0  0  0  0  0  0  0  0  0  0  0
  140.7110   73.3310  221.6110 C   0  0  0  0  0  0  0  0  0  0  0  0
  140.0178   72.5105  221.3739 H   0  0  0  0  0  0  0  0  0  0  0  0
  141.4519   73.0030  222.3550 H   0  0  0  0  0  0  0  0  0  0  0  0
  141.4350   73.7430  220.3580 C   0  0  0  0  0  0  0  0  0  0  0  0
  140.7630   74.0120  219.3270 O   0  0  0  0  0  0  0  0  0  0  0  0
  142.8730   73.8240  220.3140 N   0  0  0  0  0  0  0  0  0  0  0  0
  143.7630   72.6840  220.4730 C   0  0  0  0  0  0  0  0  0  0  0  0
  143.6624   72.2556  221.4812 H   0  0  0  0  0  0  0  0  0  0  0  0
  143.5289   71.8811  219.7585 H   0  0  0  0  0  0  0  0  0  0  0  0
  145.1730   73.2340  220.2650 C   0  0  2  0  0  0  0  0  0  0  0  0
  145.5546   72.9897  219.2626 H   0  0  0  0  0  0  0  0  0  0  0  0
  146.0830   72.6720  221.1720 O   0  0  0  0  0  0  0  0  0  0  0  0
  145.5870   71.9680  221.6670 H   0  0  0  0  0  0  0  0  0  0  0  0
  145.0530   74.7410  220.4840 C   0  0  0  0  0  0  0  0  0  0  0  0
  145.2927   74.9984  221.5262 H   0  0  0  0  0  0  0  0  0  0  0  0
  145.7514   75.3032  219.8467 H   0  0  0  0  0  0  0  0  0  0  0  0
  143.5960   75.0840  220.1700 C   0  0  1  0  0  0  0  0  0  0  0  0
  143.2031   75.8631  220.8398 H   0  0  0  0  0  0  0  0  0  0  0  0
  143.4570   75.6340  218.7590 C   0  0  0  0  0  0  0  0  0  0  0  0
  143.9560   74.9000  217.7240 N   0  0  0  0  0  0  0  0  0  0  0  0
  143.8890   75.3100  216.4320 C   0  0  0  0  0  0  0  0  0  0  0  0
  144.3025   74.6770  215.6330 H   0  0  0  0  0  0  0  0  0  0  0  0
  143.2980   76.5300  216.1160 C   0  0  0  0  0  0  0  0  0  0  0  0
  143.2325   76.8588  215.0683 H   0  0  0  0  0  0  0  0  0  0  0  0
  142.7880   77.3350  217.1400 C   0  0  0  0  0  0  0  0  0  0  0  0
  142.2050   78.5740  216.8360 C   0  0  0  0  0  0  0  0  0  0  0  0
  142.1363   78.9051  215.7893 H   0  0  0  0  0  0  0  0  0  0  0  0
  141.7120   79.3880  217.8560 C   0  0  0  0  0  0  0  0  0  0  0  0
  141.2521   80.3568  217.6112 H   0  0  0  0  0  0  0  0  0  0  0  0
  141.8010   78.9760  219.1860 C   0  0  0  0  0  0  0  0  0  0  0  0
  141.4168   79.6246  219.9870 H   0  0  0  0  0  0  0  0  0  0  0  0
  142.3760   77.7430  219.5050 C   0  0  0  0  0  0  0  0  0  0  0  0
  142.4442   77.4285  220.5569 H   0  0  0  0  0  0  0  0  0  0  0  0
  142.8700   76.8980  218.4880 C   0  0  0  0  0  0  0  0  0  0  0  0
  139.8220   76.8430  222.1210 C   0  0  0  0  0  0  0  0  0  0  0  0
  141.0910   77.3400  222.1440 N   0  0  0  0  0  0  0  0  0  0  0  0
  141.3810   78.5570  222.6770 C   0  0  0  0  0  0  0  0  0  0  0  0
  142.6980   79.0290  222.6780 C   0  0  0  0  0  0  0  0  0  0  0  0
  143.5025   78.4147  222.2474 H   0  0  0  0  0  0  0  0  0  0  0  0
  142.9920   80.2810  223.2260 C   0  0  0  0  0  0  0  0  0  0  0  0
  144.0286   80.6489  223.2273 H   0  0  0  0  0  0  0  0  0  0  0  0
  141.9720   81.0680  223.7730 C   0  0  0  0  0  0  0  0  0  0  0  0
  142.2640   82.2800  224.3030 F   0  0  0  0  0  0  0  0  0  0  0  0
  140.6520   80.6040  223.7760 C   0  0  0  0  0  0  0  0  0  0  0  0
  139.8520   81.2234  224.2077 H   0  0  0  0  0  0  0  0  0  0  0  0
  140.3490   79.3480  223.2280 C   0  0  0  0  0  0  0  0  0  0  0  0
  139.0390   78.8570  223.2150 C   0  0  0  0  0  0  0  0  0  0  0  0
  138.2211   79.4570  223.6404 H   0  0  0  0  0  0  0  0  0  0  0  0
  138.7720   77.6020  222.6600 C   0  0  0  0  0  0  0  0  0  0  0  0
  137.7438   77.2114  222.6459 H   0  0  0  0  0  0  0  0  0  0  0  0
  1  2  1  0
  2  3  1  0
  3  4  2  0
  4  5  1  0
  5  6  1  0
  5  7  1  0
  5  8  1  0
  8  9  2  0
  8 10  1  0
 10 11  1  0
 11 12  1  0
 11 13  1  0
 11 14  1  0
 14 15  1  6
 14 16  1  0
 16 17  1  0
 14 18  1  0
 18 19  1  0
 18 20  1  0
 18 21  1  0
 21 22  1  1
 21 23  1  0
 23 24  2  0
 24 25  1  0
 25 26  1  0
 25 27  2  0
 27 28  1  0
 27 29  1  0
 29 30  2  0
 30 31  1  0
 30 32  1  0
 32 33  1  0
 32 34  2  0
 34 35  1  0
 34 36  1  0
 36 37  1  0
 36 38  2  0
  3 39  1  0
 39 40  2  0
 40 41  1  0
 41 42  2  0
 42 43  1  0
 42 44  1  0
 44 45  1  0
 44 46  2  0
 46 47  1  0
 46 48  1  0
 48 49  1  0
 48 50  2  0
 50 51  1  0
 51 52  1  0
 51 53  2  0
 53 54  1  0
 21 10  1  0
 38 23  1  0
 53 39  1  0
 38 29  1  0
 50 41  1  0
M  END
>  <UniqueID>  (11) 
25

>  <SMILES>  (11) 
O=C(C/N=C(\O)c1ccc2cc(F)ccc2n1)N1C[C@H](O)C[C@H]1c1nccc2ccccc12

>  <Energy>  (11) 
67.91710877564772

>  <Genealogy>  (11) 
O=C(CN=C(O)c1ccc2cc(F)ccc2n1)N1C[C@H](O)C[C@H]1c1nccc2ccccc12 (tautomer)
O=C(C/N=C(\O)c1ccc2cc(F)ccc2n1)N1C[C@H](O)C[C@H]1c1nccc2ccccc12 (cis-trans isomerization)
O=C(C/N=C(\O)c1ccc2cc(F)ccc2n1)N1C[C@H](O)C[C@H]1c1nccc2ccccc12 (3D coordinates assigned)
O=C(C/N=C(\O)c1ccc2cc(F)ccc2n1)N1C[C@H](O)C[C@H]1c1nccc2ccccc12 (nonaromatic ring conformer: 67.91710877564772 kcal/mol)

>  <smiles>  (11) 
O=C(NCC(=O)N1C[C@H](O)C[C@H]1c1nccc2ccccc12)c1ccc2cc(F)ccc2n1

>  <score_type>  (11) 
oracle

>  <origin>  (11) 
autodockgpu

>  <m_score__min__energy>  (11) 
-9.0299999999999994

>  <m_primary>  (11) 
energy

>  <meeko>  (11) 
{"free_energy": -7.4, "intermolecular_energy": -9.78, "internal_energy": -2.95, "cluster_size": 9, "cluster_id": 4, "rank_in_cluster": 3}

>  <energy>  (11) 
-7.68

>  <cluster_rmsd>  (11) 
0.0

>  <rmsd>  (11) 
269.6

>  <cluster>  (11) 
4

$$$$
PTHZUPGKXGNJLI-VUCLPHKJNA-N
     RDKit          3D

 54 58  0  0  0  0  0  0  0  0999 V2000
  139.2490   74.1380  223.3310 H   0  0  0  0  0  0  0  0  0  0  0  0
  139.5950   73.7970  222.4440 O   0  0  0  0  0  0  0  0  0  0  0  0
  139.8760   72.4510  222.1930 C   0  0  0  0  0  0  0  0  0  0  0  0
  140.1020   72.0100  220.9880 N   0  0  0  0  0  0  0  0  0  0  0  0
  140.5370   72.8060  219.8430 C   0  0  0  0  0  0  0  0  0  0  0  0
  140.7693   73.8268  220.1807 H   0  0  0  0  0  0  0  0  0  0  0  0
  139.7278   72.8243  219.0981 H   0  0  0  0  0  0  0  0  0  0  0  0
  141.7620   72.2050  219.2100 C   0  0  0  0  0  0  0  0  0  0  0  0
  141.6200   71.2760  218.3700 O   0  0  0  0  0  0  0  0  0  0  0  0
  143.0850   72.6620  219.5510 N   0  0  0  0  0  0  0  0  0  0  0  0
  144.3140   72.0420  219.0770 C   0  0  0  0  0  0  0  0  0  0  0  0
  144.4000   71.0153  219.4625 H   0  0  0  0  0  0  0  0  0  0  0  0
  144.3403   71.9757  217.9793 H   0  0  0  0  0  0  0  0  0  0  0  0
  145.4460   72.9120  219.6190 C   0  0  2  0  0  0  0  0  0  0  0  0
  145.8513   73.5741  218.8397 H   0  0  0  0  0  0  0  0  0  0  0  0
  146.5250   72.1320  220.0640 O   0  0  0  0  0  0  0  0  0  0  0  0
  146.2900   71.8280  220.9800 H   0  0  0  0  0  0  0  0  0  0  0  0
  144.8320   73.6960  220.7770 C   0  0  0  0  0  0  0  0  0  0  0  0
  145.0072   73.1751  221.7299 H   0  0  0  0  0  0  0  0  0  0  0  0
  145.2765   74.6975  220.8734 H   0  0  0  0  0  0  0  0  0  0  0  0
  143.3340   73.7660  220.4730 C   0  0  1  0  0  0  0  0  0  0  0  0
  142.7243   73.6858  221.3851 H   0  0  0  0  0  0  0  0  0  0  0  0
  142.9680   75.0990  219.8400 C   0  0  0  0  0  0  0  0  0  0  0  0
  143.5640   75.4440  218.6630 N   0  0  0  0  0  0  0  0  0  0  0  0
  143.3100   76.6150  218.0260 C   0  0  0  0  0  0  0  0  0  0  0  0
  143.8141   76.8432  217.0753 H   0  0  0  0  0  0  0  0  0  0  0  0
  142.4130   77.5280  218.5730 C   0  0  0  0  0  0  0  0  0  0  0  0
  142.1974   78.4726  218.0522 H   0  0  0  0  0  0  0  0  0  0  0  0
  141.7880   77.2360  219.7890 C   0  0  0  0  0  0  0  0  0  0  0  0
  140.8950   78.1550  220.3600 C   0  0  0  0  0  0  0  0  0  0  0  0
  140.6756   79.1001  219.8416 H   0  0  0  0  0  0  0  0  0  0  0  0
  140.2840   77.8750  221.5830 C   0  0  0  0  0  0  0  0  0  0  0  0
  139.5814   78.5977  222.0236 H   0  0  0  0  0  0  0  0  0  0  0  0
  140.5620   76.6810  222.2480 C   0  0  0  0  0  0  0  0  0  0  0  0
  140.0822   76.4682  223.2147 H   0  0  0  0  0  0  0  0  0  0  0  0
  141.4470   75.7540  221.6920 C   0  0  0  0  0  0  0  0  0  0  0  0
  141.6624   74.8167  222.2260 H   0  0  0  0  0  0  0  0  0  0  0  0
  142.0670   76.0110  220.4500 C   0  0  0  0  0  0  0  0  0  0  0  0
  139.9190   71.5000  223.3210 C   0  0  0  0  0  0  0  0  0  0  0  0
  140.3890   71.9150  224.5320 N   0  0  0  0  0  0  0  0  0  0  0  0
  140.4450   71.0850  225.6080 C   0  0  0  0  0  0  0  0  0  0  0  0
  140.9340   71.5530  226.8320 C   0  0  0  0  0  0  0  0  0  0  0  0
  141.2749   72.5947  226.9254 H   0  0  0  0  0  0  0  0  0  0  0  0
  140.9900   70.6980  227.9370 C   0  0  0  0  0  0  0  0  0  0  0  0
  141.3754   71.0685  228.8984 H   0  0  0  0  0  0  0  0  0  0  0  0
  140.5570   69.3720  227.8230 C   0  0  0  0  0  0  0  0  0  0  0  0
  140.6140   68.5480  228.8970 F   0  0  0  0  0  0  0  0  0  0  0  0
  140.0660   68.8950  226.6020 C   0  0  0  0  0  0  0  0  0  0  0  0
  139.7267   67.8523  226.5146 H   0  0  0  0  0  0  0  0  0  0  0  0
  140.0070   69.7480  225.4900 C   0  0  0  0  0  0  0  0  0  0  0  0
  139.5200   69.3010  224.2560 C   0  0  0  0  0  0  0  0  0  0  0  0
  139.1744   68.2628  224.1430 H   0  0  0  0  0  0  0  0  0  0  0  0
  139.4740   70.1770  223.1680 C   0  0  0  0  0  0  0  0  0  0  0  0
  139.0910   69.8317  222.1964 H   0  0  0  0  0  0  0  0  0  0  0  0
  1  2  1  0
  2  3  1  0
  3  4  2  0
  4  5  1  0
  5  6  1  0
  5  7  1  0
  5  8  1  0
  8  9  2  0
  8 10  1  0
 10 11  1  0
 11 12  1  0
 11 13  1  0
 11 14  1  0
 14 15  1  6
 14 16  1  0
 16 17  1  0
 14 18  1  0
 18 19  1  0
 18 20  1  0
 18 21  1  0
 21 22  1  1
 21 23  1  0
 23 24  2  0
 24 25  1  0
 25 26  1  0
 25 27  2  0
 27 28  1  0
 27 29  1  0
 29 30  2  0
 30 31  1  0
 30 32  1  0
 32 33  1  0
 32 34  2  0
 34 35  1  0
 34 36  1  0
 36 37  1  0
 36 38  2  0
  3 39  1  0
 39 40  2  0
 40 41  1  0
 41 42  2  0
 42 43  1  0
 42 44  1  0
 44 45  1  0
 44 46  2  0
 46 47  1  0
 46 48  1  0
 48 49  1  0
 48 50  2  0
 50 51  1  0
 51 52  1  0
 51 53  2  0
 53 54  1  0
 21 10  1  0
 38 23  1  0
 53 39  1  0
 38 29  1  0
 50 41  1  0
M  END
>  <UniqueID>  (12) 
25

>  <SMILES>  (12) 
O=C(C/N=C(\O)c1ccc2cc(F)ccc2n1)N1C[C@H](O)C[C@H]1c1nccc2ccccc12

>  <Energy>  (12) 
67.91710877564772

>  <Genealogy>  (12) 
O=C(CN=C(O)c1ccc2cc(F)ccc2n1)N1C[C@H](O)C[C@H]1c1nccc2ccccc12 (tautomer)
O=C(C/N=C(\O)c1ccc2cc(F)ccc2n1)N1C[C@H](O)C[C@H]1c1nccc2ccccc12 (cis-trans isomerization)
O=C(C/N=C(\O)c1ccc2cc(F)ccc2n1)N1C[C@H](O)C[C@H]1c1nccc2ccccc12 (3D coordinates assigned)
O=C(C/N=C(\O)c1ccc2cc(F)ccc2n1)N1C[C@H](O)C[C@H]1c1nccc2ccccc12 (nonaromatic ring conformer: 67.91710877564772 kcal/mol)

>  <smiles>  (12) 
O=C(NCC(=O)N1C[C@H](O)C[C@H]1c1nccc2ccccc12)c1ccc2cc(F)ccc2n1

>  <score_type>  (12) 
oracle

>  <origin>  (12) 
autodockgpu

>  <m_score__min__energy>  (12) 
-9.0299999999999994

>  <m_primary>  (12) 
energy

>  <meeko>  (12) 
{"free_energy": -8.86, "intermolecular_energy": -11.25, "internal_energy": -1.71, "cluster_size": 3, "cluster_id": 1, "rank_in_cluster": 2}

>  <energy>  (12) 
-7.54

>  <cluster_rmsd>  (12) 
1.04

>  <rmsd>  (12) 
269.29

>  <cluster>  (12) 
4

$$$$
PTHZUPGKXGNJLI-VUCLPHKJNA-N
     RDKit          3D

 54 58  0  0  0  0  0  0  0  0999 V2000
  138.8700   73.9310  223.0530 H   0  0  0  0  0  0  0  0  0  0  0  0
  139.6170   73.7760  222.3900 O   0  0  0  0  0  0  0  0  0  0  0  0
  140.4010   72.6190  222.3700 C   0  0  0  0  0  0  0  0  0  0  0  0
  141.2720   72.3960  221.4260 N   0  0  0  0  0  0  0  0  0  0  0  0
  141.3740   73.1110  220.1560 C   0  0  0  0  0  0  0  0  0  0  0  0
  140.3918   73.5355  219.9010 H   0  0  0  0  0  0  0  0  0  0  0  0
  141.6986   72.4044  219.3780 H   0  0  0  0  0  0  0  0  0  0  0  0
  142.3830   74.2230  220.2500 C   0  0  0  0  0  0  0  0  0  0  0  0
  143.3870   74.0720  220.9970 O   0  0  0  0  0  0  0  0  0  0  0  0
  142.2180   75.4510  219.5150 N   0  0  0  0  0  0  0  0  0  0  0  0
  141.9100   75.5200  218.0940 C   0  0  0  0  0  0  0  0  0  0  0  0
  142.7325   75.0929  217.5014 H   0  0  0  0  0  0  0  0  0  0  0  0
  141.0042   74.9477  217.8450 H   0  0  0  0  0  0  0  0  0  0  0  0
  141.7440   77.0060  217.7830 C   0  0  2  0  0  0  0  0  0  0  0  0
  140.6821   77.2820  217.7043 H   0  0  0  0  0  0  0  0  0  0  0  0
  142.3240   77.3420  216.5500 O   0  0  0  0  0  0  0  0  0  0  0  0
  141.8500   76.8040  215.8630 H   0  0  0  0  0  0  0  0  0  0  0  0
  142.4480   77.7370  218.9260 C   0  0  0  0  0  0  0  0  0  0  0  0
  143.4870   77.9710  218.6509 H   0  0  0  0  0  0  0  0  0  0  0  0
  141.9574   78.6924  219.1639 H   0  0  0  0  0  0  0  0  0  0  0  0
  142.4130   76.7690  220.1110 C   0  0  1  0  0  0  0  0  0  0  0  0
  143.3345   76.8180  220.7098 H   0  0  0  0  0  0  0  0  0  0  0  0
  141.2760   77.1110  221.0610 C   0  0  0  0  0  0  0  0  0  0  0  0
  140.1260   76.3820  220.9860 N   0  0  0  0  0  0  0  0  0  0  0  0
  139.0530   76.6170  221.7840 C   0  0  0  0  0  0  0  0  0  0  0  0
  138.1500   75.9964  221.6863 H   0  0  0  0  0  0  0  0  0  0  0  0
  139.0930   77.6410  222.7250 C   0  0  0  0  0  0  0  0  0  0  0  0
  138.2292   77.8250  223.3808 H   0  0  0  0  0  0  0  0  0  0  0  0
  140.2400   78.4350  222.8310 C   0  0  0  0  0  0  0  0  0  0  0  0
  140.2860   79.4820  223.7640 C   0  0  0  0  0  0  0  0  0  0  0  0
  139.4243   79.6684  224.4219 H   0  0  0  0  0  0  0  0  0  0  0  0
  141.4220   80.2880  223.8600 C   0  0  0  0  0  0  0  0  0  0  0  0
  141.4544   81.1049  224.5959 H   0  0  0  0  0  0  0  0  0  0  0  0
  142.5160   80.0600  223.0250 C   0  0  0  0  0  0  0  0  0  0  0  0
  143.4060   80.7019  223.1008 H   0  0  0  0  0  0  0  0  0  0  0  0
  142.4860   79.0200  222.0930 C   0  0  0  0  0  0  0  0  0  0  0  0
  143.3525   78.8503  221.4370 H   0  0  0  0  0  0  0  0  0  0  0  0
  141.3530   78.1850  221.9860 C   0  0  0  0  0  0  0  0  0  0  0  0
  140.2440   71.6210  223.4460 C   0  0  0  0  0  0  0  0  0  0  0  0
  140.6990   71.9070  224.6990 N   0  0  0  0  0  0  0  0  0  0  0  0
  140.5750   71.0300  225.7310 C   0  0  0  0  0  0  0  0  0  0  0  0
  141.0550   71.3650  227.0010 C   0  0  0  0  0  0  0  0  0  0  0  0
  141.5346   72.3409  227.1672 H   0  0  0  0  0  0  0  0  0  0  0  0
  140.9260   70.4610  228.0600 C   0  0  0  0  0  0  0  0  0  0  0  0
  141.3058   70.7268  229.0575 H   0  0  0  0  0  0  0  0  0  0  0  0
  140.3150   69.2190  227.8540 C   0  0  0  0  0  0  0  0  0  0  0  0
  140.1930   68.3470  228.8840 F   0  0  0  0  0  0  0  0  0  0  0  0
  139.8320   68.8750  226.5870 C   0  0  0  0  0  0  0  0  0  0  0  0
  139.3535   67.8975  226.4274 H   0  0  0  0  0  0  0  0  0  0  0  0
  139.9580   69.7770  225.5200 C   0  0  0  0  0  0  0  0  0  0  0  0
  139.4840   69.4630  224.2410 C   0  0  0  0  0  0  0  0  0  0  0  0
  139.0013   68.4922  224.0554 H   0  0  0  0  0  0  0  0  0  0  0  0
  139.6250   70.3850  223.2000 C   0  0  0  0  0  0  0  0  0  0  0  0
  139.2530   70.1436  222.1934 H   0  0  0  0  0  0  0  0  0  0  0  0
  1  2  1  0
  2  3  1  0
  3  4  2  0
  4  5  1  0
  5  6  1  0
  5  7  1  0
  5  8  1  0
  8  9  2  0
  8 10  1  0
 10 11  1  0
 11 12  1  0
 11 13  1  0
 11 14  1  0
 14 15  1  6
 14 16  1  0
 16 17  1  0
 14 18  1  0
 18 19  1  0
 18 20  1  0
 18 21  1  0
 21 22  1  1
 21 23  1  0
 23 24  2  0
 24 25  1  0
 25 26  1  0
 25 27  2  0
 27 28  1  0
 27 29  1  0
 29 30  2  0
 30 31  1  0
 30 32  1  0
 32 33  1  0
 32 34  2  0
 34 35  1  0
 34 36  1  0
 36 37  1  0
 36 38  2  0
  3 39  1  0
 39 40  2  0
 40 41  1  0
 41 42  2  0
 42 43  1  0
 42 44  1  0
 44 45  1  0
 44 46  2  0
 46 47  1  0
 46 48  1  0
 48 49  1  0
 48 50  2  0
 50 51  1  0
 51 52  1  0
 51 53  2  0
 53 54  1  0
 21 10  1  0
 38 23  1  0
 53 39  1  0
 38 29  1  0
 50 41  1  0
M  END
>  <UniqueID>  (13) 
25

>  <SMILES>  (13) 
O=C(C/N=C(\O)c1ccc2cc(F)ccc2n1)N1C[C@H](O)C[C@H]1c1nccc2ccccc12

>  <Energy>  (13) 
67.91710877564772

>  <Genealogy>  (13) 
O=C(CN=C(O)c1ccc2cc(F)ccc2n1)N1C[C@H](O)C[C@H]1c1nccc2ccccc12 (tautomer)
O=C(C/N=C(\O)c1ccc2cc(F)ccc2n1)N1C[C@H](O)C[C@H]1c1nccc2ccccc12 (cis-trans isomerization)
O=C(C/N=C(\O)c1ccc2cc(F)ccc2n1)N1C[C@H](O)C[C@H]1c1nccc2ccccc12 (3D coordinates assigned)
O=C(C/N=C(\O)c1ccc2cc(F)ccc2n1)N1C[C@H](O)C[C@H]1c1nccc2ccccc12 (nonaromatic ring conformer: 67.91710877564772 kcal/mol)

>  <smiles>  (13) 
O=C(NCC(=O)N1C[C@H](O)C[C@H]1c1nccc2ccccc12)c1ccc2cc(F)ccc2n1

>  <score_type>  (13) 
oracle

>  <origin>  (13) 
autodockgpu

>  <m_score__min__energy>  (13) 
-9.0299999999999994

>  <m_primary>  (13) 
energy

>  <meeko>  (13) 
{"free_energy": -8.89, "intermolecular_energy": -11.27, "internal_energy": -1.44, "cluster_size": 6, "cluster_id": 2, "rank_in_cluster": 3}

>  <energy>  (13) 
-7.4

>  <cluster_rmsd>  (13) 
1.03

>  <rmsd>  (13) 
269.51

>  <cluster>  (13) 
4

$$$$
PTHZUPGKXGNJLI-VUCLPHKJNA-N
     RDKit          3D

 54 58  0  0  0  0  0  0  0  0999 V2000
  140.0160   73.3820  219.5220 H   0  0  0  0  0  0  0  0  0  0  0  0
  139.4670   74.0580  220.0350 O   0  0  0  0  0  0  0  0  0  0  0  0
  139.8650   74.6050  221.2580 C   0  0  0  0  0  0  0  0  0  0  0  0
  140.0080   73.8690  222.3250 N   0  0  0  0  0  0  0  0  0  0  0  0
  140.7700   72.6270  222.4240 C   0  0  0  0  0  0  0  0  0  0  0  0
  140.0876   71.8052  222.6868 H   0  0  0  0  0  0  0  0  0  0  0  0
  141.5410   72.7472  223.1993 H   0  0  0  0  0  0  0  0  0  0  0  0
  141.4450   72.3090  221.1180 C   0  0  0  0  0  0  0  0  0  0  0  0
  140.8730   71.5280  220.3110 O   0  0  0  0  0  0  0  0  0  0  0  0
  142.7290   72.8690  220.7810 N   0  0  0  0  0  0  0  0  0  0  0  0
  143.9790   72.1250  220.8050 C   0  0  0  0  0  0  0  0  0  0  0  0
  144.2144   71.8028  221.8301 H   0  0  0  0  0  0  0  0  0  0  0  0
  143.9239   71.2167  220.1869 H   0  0  0  0  0  0  0  0  0  0  0  0
  145.0430   73.0930  220.2930 C   0  0  2  0  0  0  0  0  0  0  0  0
  145.3057   72.8825  219.2458 H   0  0  0  0  0  0  0  0  0  0  0  0
  146.2370   72.9780  221.0210 O   0  0  0  0  0  0  0  0  0  0  0  0
  146.1340   72.1800  221.6020 H   0  0  0  0  0  0  0  0  0  0  0  0
  144.4360   74.4850  220.4680 C   0  0  0  0  0  0  0  0  0  0  0  0
  144.7461   74.9219  221.4287 H   0  0  0  0  0  0  0  0  0  0  0  0
  144.7673   75.1774  219.6800 H   0  0  0  0  0  0  0  0  0  0  0  0
  142.9210   74.2750  220.4400 C   0  0  1  0  0  0  0  0  0  0  0  0
  142.3998   74.9433  221.1413 H   0  0  0  0  0  0  0  0  0  0  0  0
  142.3530   74.5850  219.0640 C   0  0  0  0  0  0  0  0  0  0  0  0
  141.8450   73.5590  218.3250 N   0  0  0  0  0  0  0  0  0  0  0  0
  141.3250   73.7330  217.0840 C   0  0  0  0  0  0  0  0  0  0  0  0
  140.9230   72.8708  216.5317 H   0  0  0  0  0  0  0  0  0  0  0  0
  141.2990   75.0000  216.5080 C   0  0  0  0  0  0  0  0  0  0  0  0
  140.8675   75.1451  215.5066 H   0  0  0  0  0  0  0  0  0  0  0  0
  141.8260   76.0870  217.2130 C   0  0  0  0  0  0  0  0  0  0  0  0
  141.8220   77.3670  216.6370 C   0  0  0  0  0  0  0  0  0  0  0  0
  141.3901   77.5163  215.6364 H   0  0  0  0  0  0  0  0  0  0  0  0
  142.3640   78.4510  217.3290 C   0  0  0  0  0  0  0  0  0  0  0  0
  142.3543   79.4526  216.8744 H   0  0  0  0  0  0  0  0  0  0  0  0
  142.9180   78.2670  218.5960 C   0  0  0  0  0  0  0  0  0  0  0  0
  143.3491   79.1238  219.1346 H   0  0  0  0  0  0  0  0  0  0  0  0
  142.9280   77.0000  219.1840 C   0  0  0  0  0  0  0  0  0  0  0  0
  143.3707   76.8649  220.1819 H   0  0  0  0  0  0  0  0  0  0  0  0
  142.3740   75.8910  218.5070 C   0  0  0  0  0  0  0  0  0  0  0  0
  140.1320   76.0530  221.3490 C   0  0  0  0  0  0  0  0  0  0  0  0
  140.8260   76.5420  222.4160 N   0  0  0  0  0  0  0  0  0  0  0  0
  141.1090   77.8660  222.5480 C   0  0  0  0  0  0  0  0  0  0  0  0
  141.8250   78.3240  223.6590 C   0  0  0  0  0  0  0  0  0  0  0  0
  142.1608   77.6129  224.4281 H   0  0  0  0  0  0  0  0  0  0  0  0
  142.1140   79.6860  223.7920 C   0  0  0  0  0  0  0  0  0  0  0  0
  142.6768   80.0440  224.6667 H   0  0  0  0  0  0  0  0  0  0  0  0
  141.6900   80.5940  222.8170 C   0  0  0  0  0  0  0  0  0  0  0  0
  141.9730   81.9120  222.9520 F   0  0  0  0  0  0  0  0  0  0  0  0
  140.9730   80.1450  221.7020 C   0  0  0  0  0  0  0  0  0  0  0  0
  140.6403   80.8613  220.9363 H   0  0  0  0  0  0  0  0  0  0  0  0
  140.6790   78.7800  221.5620 C   0  0  0  0  0  0  0  0  0  0  0  0
  139.9650   78.3000  220.4580 C   0  0  0  0  0  0  0  0  0  0  0  0
  139.6213   78.9958  219.6784 H   0  0  0  0  0  0  0  0  0  0  0  0
  139.6900   76.9340  220.3490 C   0  0  0  0  0  0  0  0  0  0  0  0
  139.1297   76.5507  219.4835 H   0  0  0  0  0  0  0  0  0  0  0  0
  1  2  1  0
  2  3  1  0
  3  4  2  0
  4  5  1  0
  5  6  1  0
  5  7  1  0
  5  8  1  0
  8  9  2  0
  8 10  1  0
 10 11  1  0
 11 12  1  0
 11 13  1  0
 11 14  1  0
 14 15  1  6
 14 16  1  0
 16 17  1  0
 14 18  1  0
 18 19  1  0
 18 20  1  0
 18 21  1  0
 21 22  1  1
 21 23  1  0
 23 24  2  0
 24 25  1  0
 25 26  1  0
 25 27  2  0
 27 28  1  0
 27 29  1  0
 29 30  2  0
 30 31  1  0
 30 32  1  0
 32 33  1  0
 32 34  2  0
 34 35  1  0
 34 36  1  0
 36 37  1  0
 36 38  2  0
  3 39  1  0
 39 40  2  0
 40 41  1  0
 41 42  2  0
 42 43  1  0
 42 44  1  0
 44 45  1  0
 44 46  2  0
 46 47  1  0
 46 48  1  0
 48 49  1  0
 48 50  2  0
 50 51  1  0
 51 52  1  0
 51 53  2  0
 53 54  1  0
 21 10  1  0
 38 23  1  0
 53 39  1  0
 38 29  1  0
 50 41  1  0
M  END
>  <UniqueID>  (14) 
25

>  <SMILES>  (14) 
O=C(C/N=C(\O)c1ccc2cc(F)ccc2n1)N1C[C@H](O)C[C@H]1c1nccc2ccccc12

>  <Energy>  (14) 
67.91710877564772

>  <Genealogy>  (14) 
O=C(CN=C(O)c1ccc2cc(F)ccc2n1)N1C[C@H](O)C[C@H]1c1nccc2ccccc12 (tautomer)
O=C(C/N=C(\O)c1ccc2cc(F)ccc2n1)N1C[C@H](O)C[C@H]1c1nccc2ccccc12 (cis-trans isomerization)
O=C(C/N=C(\O)c1ccc2cc(F)ccc2n1)N1C[C@H](O)C[C@H]1c1nccc2ccccc12 (3D coordinates assigned)
O=C(C/N=C(\O)c1ccc2cc(F)ccc2n1)N1C[C@H](O)C[C@H]1c1nccc2ccccc12 (nonaromatic ring conformer: 67.91710877564772 kcal/mol)

>  <smiles>  (14) 
O=C(NCC(=O)N1C[C@H](O)C[C@H]1c1nccc2ccccc12)c1ccc2cc(F)ccc2n1

>  <score_type>  (14) 
oracle

>  <origin>  (14) 
autodockgpu

>  <m_score__min__energy>  (14) 
-9.0299999999999994

>  <m_primary>  (14) 
energy

>  <meeko>  (14) 
{"free_energy": -6.35, "intermolecular_energy": -8.73, "internal_energy": -4.14, "cluster_size": 9, "cluster_id": 4, "rank_in_cluster": 7}

>  <energy>  (14) 
-7.25

>  <cluster_rmsd>  (14) 
1.03

>  <rmsd>  (14) 
269.46

>  <cluster>  (14) 
4

$$$$
PTHZUPGKXGNJLI-VUCLPHKJNA-N
     RDKit          3D

 54 58  0  0  0  0  0  0  0  0999 V2000
  141.2220   75.3380  221.9170 H   0  0  0  0  0  0  0  0  0  0  0  0
  140.5760   74.6730  222.3200 O   0  0  0  0  0  0  0  0  0  0  0  0
  140.2950   73.4290  221.7470 C   0  0  0  0  0  0  0  0  0  0  0  0
  140.1970   73.2740  220.4570 N   0  0  0  0  0  0  0  0  0  0  0  0
  141.2380   73.5480  219.4700 C   0  0  0  0  0  0  0  0  0  0  0  0
  140.7665   73.8435  218.5211 H   0  0  0  0  0  0  0  0  0  0  0  0
  141.8405   72.6382  219.3311 H   0  0  0  0  0  0  0  0  0  0  0  0
  142.1400   74.6570  219.9390 C   0  0  0  0  0  0  0  0  0  0  0  0
  142.9200   74.4390  220.9050 O   0  0  0  0  0  0  0  0  0  0  0  0
  142.1200   75.9560  219.3160 N   0  0  0  0  0  0  0  0  0  0  0  0
  141.8780   76.1810  217.8990 C   0  0  0  0  0  0  0  0  0  0  0  0
  142.6805   75.7312  217.2960 H   0  0  0  0  0  0  0  0  0  0  0  0
  140.9337   75.7234  217.5691 H   0  0  0  0  0  0  0  0  0  0  0  0
  141.8640   77.6980  217.7220 C   0  0  2  0  0  0  0  0  0  0  0  0
  140.8369   78.0822  217.6351 H   0  0  0  0  0  0  0  0  0  0  0  0
  142.5220   78.0840  216.5450 O   0  0  0  0  0  0  0  0  0  0  0  0
  143.2960   78.6390  216.8270 H   0  0  0  0  0  0  0  0  0  0  0  0
  142.5850   78.2520  218.9500 C   0  0  0  0  0  0  0  0  0  0  0  0
  143.6517   78.4087  218.7316 H   0  0  0  0  0  0  0  0  0  0  0  0
  142.1756   79.2248  219.2599 H   0  0  0  0  0  0  0  0  0  0  0  0
  142.4120   77.1900  220.0380 C   0  0  1  0  0  0  0  0  0  0  0  0
  143.3087   77.0959  220.6682 H   0  0  0  0  0  0  0  0  0  0  0  0
  141.2740   77.5540  220.9790 C   0  0  0  0  0  0  0  0  0  0  0  0
  140.0990   76.8700  220.8720 N   0  0  0  0  0  0  0  0  0  0  0  0
  139.0240   77.1270  221.6590 C   0  0  0  0  0  0  0  0  0  0  0  0
  138.1009   76.5416  221.5357 H   0  0  0  0  0  0  0  0  0  0  0  0
  139.0870   78.1300  222.6220 C   0  0  0  0  0  0  0  0  0  0  0  0
  138.2202   78.3327  223.2682 H   0  0  0  0  0  0  0  0  0  0  0  0
  140.2600   78.8780  222.7620 C   0  0  0  0  0  0  0  0  0  0  0  0
  140.3310   79.9030  223.7180 C   0  0  0  0  0  0  0  0  0  0  0  0
  139.4673   80.1070  224.3679 H   0  0  0  0  0  0  0  0  0  0  0  0
  141.4930   80.6640  223.8470 C   0  0  0  0  0  0  0  0  0  0  0  0
  141.5436   81.4644  224.5999 H   0  0  0  0  0  0  0  0  0  0  0  0
  142.5910   80.4130  223.0240 C   0  0  0  0  0  0  0  0  0  0  0  0
  143.5031   81.0192  223.1275 H   0  0  0  0  0  0  0  0  0  0  0  0
  142.5370   79.3950  222.0690 C   0  0  0  0  0  0  0  0  0  0  0  0
  143.4064   79.2076  221.4216 H   0  0  0  0  0  0  0  0  0  0  0  0
  141.3760   78.6050  221.9280 C   0  0  0  0  0  0  0  0  0  0  0  0
  140.1040   72.2580  222.6230 C   0  0  0  0  0  0  0  0  0  0  0  0
  140.6670   72.2480  223.8650 N   0  0  0  0  0  0  0  0  0  0  0  0
  140.5180   71.2000  224.7190 C   0  0  0  0  0  0  0  0  0  0  0  0
  141.1120   71.2340  225.9850 C   0  0  0  0  0  0  0  0  0  0  0  0
  141.7012   72.1105  226.2925 H   0  0  0  0  0  0  0  0  0  0  0  0
  140.9570   70.1540  226.8600 C   0  0  0  0  0  0  0  0  0  0  0  0
  141.4262   70.1822  227.8545 H   0  0  0  0  0  0  0  0  0  0  0  0
  140.2070   69.0380  226.4740 C   0  0  0  0  0  0  0  0  0  0  0  0
  140.0610   67.9950  227.3270 F   0  0  0  0  0  0  0  0  0  0  0  0
  139.6090   68.9950  225.2100 C   0  0  0  0  0  0  0  0  0  0  0  0
  139.0209   68.1155  224.9090 H   0  0  0  0  0  0  0  0  0  0  0  0
  139.7600   70.0750  224.3260 C   0  0  0  0  0  0  0  0  0  0  0  0
  139.1730   70.0630  223.0560 C   0  0  0  0  0  0  0  0  0  0  0  0
  138.5791   69.1959  222.7314 H   0  0  0  0  0  0  0  0  0  0  0  0
  139.3430   71.1550  222.2010 C   0  0  0  0  0  0  0  0  0  0  0  0
  138.8830   71.1511  221.2018 H   0  0  0  0  0  0  0  0  0  0  0  0
  1  2  1  0
  2  3  1  0
  3  4  2  0
  4  5  1  0
  5  6  1  0
  5  7  1  0
  5  8  1  0
  8  9  2  0
  8 10  1  0
 10 11  1  0
 11 12  1  0
 11 13  1  0
 11 14  1  0
 14 15  1  6
 14 16  1  0
 16 17  1  0
 14 18  1  0
 18 19  1  0
 18 20  1  0
 18 21  1  0
 21 22  1  1
 21 23  1  0
 23 24  2  0
 24 25  1  0
 25 26  1  0
 25 27  2  0
 27 28  1  0
 27 29  1  0
 29 30  2  0
 30 31  1  0
 30 32  1  0
 32 33  1  0
 32 34  2  0
 34 35  1  0
 34 36  1  0
 36 37  1  0
 36 38  2  0
  3 39  1  0
 39 40  2  0
 40 41  1  0
 41 42  2  0
 42 43  1  0
 42 44  1  0
 44 45  1  0
 44 46  2  0
 46 47  1  0
 46 48  1  0
 48 49  1  0
 48 50  2  0
 50 51  1  0
 51 52  1  0
 51 53  2  0
 53 54  1  0
 21 10  1  0
 38 23  1  0
 53 39  1  0
 38 29  1  0
 50 41  1  0
M  END
>  <UniqueID>  (15) 
25

>  <SMILES>  (15) 
O=C(C/N=C(\O)c1ccc2cc(F)ccc2n1)N1C[C@H](O)C[C@H]1c1nccc2ccccc12

>  <Energy>  (15) 
67.91710877564772

>  <Genealogy>  (15) 
O=C(CN=C(O)c1ccc2cc(F)ccc2n1)N1C[C@H](O)C[C@H]1c1nccc2ccccc12 (tautomer)
O=C(C/N=C(\O)c1ccc2cc(F)ccc2n1)N1C[C@H](O)C[C@H]1c1nccc2ccccc12 (cis-trans isomerization)
O=C(C/N=C(\O)c1ccc2cc(F)ccc2n1)N1C[C@H](O)C[C@H]1c1nccc2ccccc12 (3D coordinates assigned)
O=C(C/N=C(\O)c1ccc2cc(F)ccc2n1)N1C[C@H](O)C[C@H]1c1nccc2ccccc12 (nonaromatic ring conformer: 67.91710877564772 kcal/mol)

>  <smiles>  (15) 
O=C(NCC(=O)N1C[C@H](O)C[C@H]1c1nccc2ccccc12)c1ccc2cc(F)ccc2n1

>  <score_type>  (15) 
oracle

>  <origin>  (15) 
autodockgpu

>  <m_score__min__energy>  (15) 
-9.0299999999999994

>  <m_primary>  (15) 
energy

>  <meeko>  (15) 
{"free_energy": -7.9, "intermolecular_energy": -10.29, "internal_energy": -2.69, "cluster_size": 6, "cluster_id": 2, "rank_in_cluster": 5}

>  <energy>  (15) 
-7.08

>  <cluster_rmsd>  (15) 
1.13

>  <rmsd>  (15) 
269.4

>  <cluster>  (15) 
4

$$$$
PTHZUPGKXGNJLI-VUCLPHKJNA-N
     RDKit          3D

 54 58  0  0  0  0  0  0  0  0999 V2000
  138.7740   74.5900  223.1040 H   0  0  0  0  0  0  0  0  0  0  0  0
  139.1970   74.4520  222.1960 O   0  0  0  0  0  0  0  0  0  0  0  0
  140.0670   75.3720  221.6040 C   0  0  0  0  0  0  0  0  0  0  0  0
  140.7640   75.0730  220.5440 N   0  0  0  0  0  0  0  0  0  0  0  0
  140.5990   73.8890  219.7050 C   0  0  0  0  0  0  0  0  0  0  0  0
  140.6681   74.1840  218.6475 H   0  0  0  0  0  0  0  0  0  0  0  0
  139.6158   73.4427  219.9149 H   0  0  0  0  0  0  0  0  0  0  0  0
  141.6640   72.8700  220.0030 C   0  0  0  0  0  0  0  0  0  0  0  0
  141.3270   71.6660  220.1650 O   0  0  0  0  0  0  0  0  0  0  0  0
  143.0510   73.2440  220.1170 N   0  0  0  0  0  0  0  0  0  0  0  0
  144.1400   72.3000  220.3210 C   0  0  0  0  0  0  0  0  0  0  0  0
  144.0347   71.7962  221.2932 H   0  0  0  0  0  0  0  0  0  0  0  0
  144.1477   71.5142  219.5513 H   0  0  0  0  0  0  0  0  0  0  0  0
  145.4180   73.1360  220.2890 C   0  0  2  0  0  0  0  0  0  0  0  0
  145.9363   73.0398  219.3235 H   0  0  0  0  0  0  0  0  0  0  0  0
  146.3340   72.7120  221.2640 O   0  0  0  0  0  0  0  0  0  0  0  0
  145.9340   71.9110  221.6940 H   0  0  0  0  0  0  0  0  0  0  0  0
  144.9660   74.5700  220.5610 C   0  0  0  0  0  0  0  0  0  0  0  0
  145.0452   74.8012  221.6335 H   0  0  0  0  0  0  0  0  0  0  0  0
  145.5901   75.3028  220.0285 H   0  0  0  0  0  0  0  0  0  0  0  0
  143.5060   74.6310  220.1070 C   0  0  1  0  0  0  0  0  0  0  0  0
  142.8969   75.2694  220.7638 H   0  0  0  0  0  0  0  0  0  0  0  0
  143.3920   75.2320  218.7150 C   0  0  0  0  0  0  0  0  0  0  0  0
  143.7750   74.4750  217.6470 N   0  0  0  0  0  0  0  0  0  0  0  0
  143.7200   74.9260  216.3690 C   0  0  0  0  0  0  0  0  0  0  0  0
  144.0368   74.2726  215.5428 H   0  0  0  0  0  0  0  0  0  0  0  0
  143.2640   76.2130  216.1000 C   0  0  0  0  0  0  0  0  0  0  0  0
  143.2075   76.5757  215.0631 H   0  0  0  0  0  0  0  0  0  0  0  0
  142.8780   77.0420  217.1590 C   0  0  0  0  0  0  0  0  0  0  0  0
  142.4330   78.3480  216.9030 C   0  0  0  0  0  0  0  0  0  0  0  0
  142.3748   78.7141  215.8674 H   0  0  0  0  0  0  0  0  0  0  0  0
  142.0640   79.1840  217.9580 C   0  0  0  0  0  0  0  0  0  0  0  0
  141.7110   80.2051  217.7514 H   0  0  0  0  0  0  0  0  0  0  0  0
  142.1420   78.7270  219.2750 C   0  0  0  0  0  0  0  0  0  0  0  0
  141.8564   79.3923  220.1031 H   0  0  0  0  0  0  0  0  0  0  0  0
  142.5810   77.4290  219.5460 C   0  0  0  0  0  0  0  0  0  0  0  0
  142.6421   77.0795  220.5872 H   0  0  0  0  0  0  0  0  0  0  0  0
  142.9470   76.5620  218.4930 C   0  0  0  0  0  0  0  0  0  0  0  0
  140.2020   76.7190  222.1900 C   0  0  0  0  0  0  0  0  0  0  0  0
  141.4330   77.3030  222.2550 N   0  0  0  0  0  0  0  0  0  0  0  0
  141.6170   78.5450  222.7770 C   0  0  0  0  0  0  0  0  0  0  0  0
  142.8980   79.1060  222.8240 C   0  0  0  0  0  0  0  0  0  0  0  0
  143.7599   78.5416  222.4385 H   0  0  0  0  0  0  0  0  0  0  0  0
  143.0830   80.3840  223.3610 C   0  0  0  0  0  0  0  0  0  0  0  0
  144.0909   80.8230  223.3967 H   0  0  0  0  0  0  0  0  0  0  0  0
  141.9900   81.1060  223.8530 C   0  0  0  0  0  0  0  0  0  0  0  0
  142.1770   82.3440  224.3720 F   0  0  0  0  0  0  0  0  0  0  0  0
  140.7050   80.5530  223.8100 C   0  0  0  0  0  0  0  0  0  0  0  0
  139.8472   81.1228  224.1968 H   0  0  0  0  0  0  0  0  0  0  0  0
  140.5120   79.2710  223.2730 C   0  0  0  0  0  0  0  0  0  0  0  0
  139.2390   78.6920  223.2150 C   0  0  0  0  0  0  0  0  0  0  0  0
  138.3653   79.2415  223.5955 H   0  0  0  0  0  0  0  0  0  0  0  0
  139.0810   77.4130  222.6720 C   0  0  0  0  0  0  0  0  0  0  0  0
  138.0830   76.9530  222.6228 H   0  0  0  0  0  0  0  0  0  0  0  0
  1  2  1  0
  2  3  1  0
  3  4  2  0
  4  5  1  0
  5  6  1  0
  5  7  1  0
  5  8  1  0
  8  9  2  0
  8 10  1  0
 10 11  1  0
 11 12  1  0
 11 13  1  0
 11 14  1  0
 14 15  1  6
 14 16  1  0
 16 17  1  0
 14 18  1  0
 18 19  1  0
 18 20  1  0
 18 21  1  0
 21 22  1  1
 21 23  1  0
 23 24  2  0
 24 25  1  0
 25 26  1  0
 25 27  2  0
 27 28  1  0
 27 29  1  0
 29 30  2  0
 30 31  1  0
 30 32  1  0
 32 33  1  0
 32 34  2  0
 34 35  1  0
 34 36  1  0
 36 37  1  0
 36 38  2  0
  3 39  1  0
 39 40  2  0
 40 41  1  0
 41 42  2  0
 42 43  1  0
 42 44  1  0
 44 45  1  0
 44 46  2  0
 46 47  1  0
 46 48  1  0
 48 49  1  0
 48 50  2  0
 50 51  1  0
 51 52  1  0
 51 53  2  0
 53 54  1  0
 21 10  1  0
 38 23  1  0
 53 39  1  0
 38 29  1  0
 50 41  1  0
M  END
>  <UniqueID>  (16) 
25

>  <SMILES>  (16) 
O=C(C/N=C(\O)c1ccc2cc(F)ccc2n1)N1C[C@H](O)C[C@H]1c1nccc2ccccc12

>  <Energy>  (16) 
67.91710877564772

>  <Genealogy>  (16) 
O=C(CN=C(O)c1ccc2cc(F)ccc2n1)N1C[C@H](O)C[C@H]1c1nccc2ccccc12 (tautomer)
O=C(C/N=C(\O)c1ccc2cc(F)ccc2n1)N1C[C@H](O)C[C@H]1c1nccc2ccccc12 (cis-trans isomerization)
O=C(C/N=C(\O)c1ccc2cc(F)ccc2n1)N1C[C@H](O)C[C@H]1c1nccc2ccccc12 (3D coordinates assigned)
O=C(C/N=C(\O)c1ccc2cc(F)ccc2n1)N1C[C@H](O)C[C@H]1c1nccc2ccccc12 (nonaromatic ring conformer: 67.91710877564772 kcal/mol)

>  <smiles>  (16) 
O=C(NCC(=O)N1C[C@H](O)C[C@H]1c1nccc2ccccc12)c1ccc2cc(F)ccc2n1

>  <score_type>  (16) 
oracle

>  <origin>  (16) 
autodockgpu

>  <m_score__min__energy>  (16) 
-9.0299999999999994

>  <m_primary>  (16) 
energy

>  <meeko>  (16) 
{"free_energy": -7.68, "intermolecular_energy": -10.07, "internal_energy": -2.17, "cluster_size": 9, "cluster_id": 4, "rank_in_cluster": 1}

>  <energy>  (16) 
-6.37

>  <cluster_rmsd>  (16) 
1.56

>  <rmsd>  (16) 
269.04

>  <cluster>  (16) 
4

$$$$
PTHZUPGKXGNJLI-VUCLPHKJNA-N
     RDKit          3D

 54 58  0  0  0  0  0  0  0  0999 V2000
  139.5150   73.3510  219.5590 H   0  0  0  0  0  0  0  0  0  0  0  0
  138.9710   73.8860  220.2220 O   0  0  0  0  0  0  0  0  0  0  0  0
  139.4650   74.3080  221.4600 C   0  0  0  0  0  0  0  0  0  0  0  0
  139.8940   73.4610  222.3520 N   0  0  0  0  0  0  0  0  0  0  0  0
  141.0720   72.6040  222.2380 C   0  0  0  0  0  0  0  0  0  0  0  0
  140.8529   71.6270  222.6934 H   0  0  0  0  0  0  0  0  0  0  0  0
  141.9124   73.0879  222.7572 H   0  0  0  0  0  0  0  0  0  0  0  0
  141.4470   72.4030  220.7950 C   0  0  0  0  0  0  0  0  0  0  0  0
  140.7630   71.6110  220.0930 O   0  0  0  0  0  0  0  0  0  0  0  0
  142.5720   73.0850  220.2090 N   0  0  0  0  0  0  0  0  0  0  0  0
  143.7230   72.4140  219.6240 C   0  0  0  0  0  0  0  0  0  0  0  0
  144.2683   71.8466  220.3925 H   0  0  0  0  0  0  0  0  0  0  0  0
  143.4239   71.6961  218.8461 H   0  0  0  0  0  0  0  0  0  0  0  0
  144.6030   73.5270  219.0580 C   0  0  2  0  0  0  0  0  0  0  0  0
  144.4944   73.6083  217.9664 H   0  0  0  0  0  0  0  0  0  0  0  0
  145.9630   73.2770  219.2930 O   0  0  0  0  0  0  0  0  0  0  0  0
  146.4210   74.1580  219.2510 H   0  0  0  0  0  0  0  0  0  0  0  0
  144.1550   74.7980  219.7790 C   0  0  0  0  0  0  0  0  0  0  0  0
  144.7857   74.9823  220.6612 H   0  0  0  0  0  0  0  0  0  0  0  0
  144.2398   75.6849  219.1339 H   0  0  0  0  0  0  0  0  0  0  0  0
  142.7080   74.5390  220.2010 C   0  0  1  0  0  0  0  0  0  0  0  0
  142.4812   74.9794  221.1832 H   0  0  0  0  0  0  0  0  0  0  0  0
  141.7320   75.1720  219.2220 C   0  0  0  0  0  0  0  0  0  0  0  0
  141.0410   74.3570  218.3750 N   0  0  0  0  0  0  0  0  0  0  0  0
  140.1560   74.8270  217.4610 C   0  0  0  0  0  0  0  0  0  0  0  0
  139.6196   74.1254  216.8052 H   0  0  0  0  0  0  0  0  0  0  0  0
  139.9250   76.1950  217.3510 C   0  0  0  0  0  0  0  0  0  0  0  0
  139.1998   76.5773  216.6176 H   0  0  0  0  0  0  0  0  0  0  0  0
  140.6220   77.0800  218.1800 C   0  0  0  0  0  0  0  0  0  0  0  0
  140.4110   78.4630  218.0680 C   0  0  0  0  0  0  0  0  0  0  0  0
  139.6853   78.8490  217.3370 H   0  0  0  0  0  0  0  0  0  0  0  0
  141.1180   79.3500  218.8800 C   0  0  0  0  0  0  0  0  0  0  0  0
  140.9453   80.4327  218.7903 H   0  0  0  0  0  0  0  0  0  0  0  0
  142.0440   78.8670  219.8060 C   0  0  0  0  0  0  0  0  0  0  0  0
  142.6029   79.5711  220.4400 H   0  0  0  0  0  0  0  0  0  0  0  0
  142.2640   77.4930  219.9310 C   0  0  0  0  0  0  0  0  0  0  0  0
  142.9990   77.1220  220.6605 H   0  0  0  0  0  0  0  0  0  0  0  0
  141.5500   76.5770  219.1280 C   0  0  0  0  0  0  0  0  0  0  0  0
  139.5050   75.7500  221.7680 C   0  0  0  0  0  0  0  0  0  0  0  0
  140.5840   76.2680  222.4210 N   0  0  0  0  0  0  0  0  0  0  0  0
  140.6790   77.5900  222.7240 C   0  0  0  0  0  0  0  0  0  0  0  0
  141.8050   78.0790  223.3950 C   0  0  0  0  0  0  0  0  0  0  0  0
  142.6164   77.3928  223.6790 H   0  0  0  0  0  0  0  0  0  0  0  0
  141.9000   79.4390  223.7050 C   0  0  0  0  0  0  0  0  0  0  0  0
  142.7862   79.8203  224.2335 H   0  0  0  0  0  0  0  0  0  0  0  0
  140.8710   80.3170  223.3450 C   0  0  0  0  0  0  0  0  0  0  0  0
  140.9690   81.6340  223.6490 F   0  0  0  0  0  0  0  0  0  0  0  0
  139.7400   79.8370  222.6740 C   0  0  0  0  0  0  0  0  0  0  0  0
  138.9319   80.5284  222.3931 H   0  0  0  0  0  0  0  0  0  0  0  0
  139.6380   78.4730  222.3600 C   0  0  0  0  0  0  0  0  0  0  0  0
  138.5220   77.9630  221.6880 C   0  0  0  0  0  0  0  0  0  0  0  0
  137.7012   78.6340  221.3947 H   0  0  0  0  0  0  0  0  0  0  0  0
  138.4520   76.5990  221.3900 C   0  0  0  0  0  0  0  0  0  0  0  0
  137.5766   76.1927  220.8621 H   0  0  0  0  0  0  0  0  0  0  0  0
  1  2  1  0
  2  3  1  0
  3  4  2  0
  4  5  1  0
  5  6  1  0
  5  7  1  0
  5  8  1  0
  8  9  2  0
  8 10  1  0
 10 11  1  0
 11 12  1  0
 11 13  1  0
 11 14  1  0
 14 15  1  6
 14 16  1  0
 16 17  1  0
 14 18  1  0
 18 19  1  0
 18 20  1  0
 18 21  1  0
 21 22  1  1
 21 23  1  0
 23 24  2  0
 24 25  1  0
 25 26  1  0
 25 27  2  0
 27 28  1  0
 27 29  1  0
 29 30  2  0
 30 31  1  0
 30 32  1  0
 32 33  1  0
 32 34  2  0
 34 35  1  0
 34 36  1  0
 36 37  1  0
 36 38  2  0
  3 39  1  0
 39 40  2  0
 40 41  1  0
 41 42  2  0
 42 43  1  0
 42 44  1  0
 44 45  1  0
 44 46  2  0
 46 47  1  0
 46 48  1  0
 48 49  1  0
 48 50  2  0
 50 51  1  0
 51 52  1  0
 51 53  2  0
 53 54  1  0
 21 10  1  0
 38 23  1  0
 53 39  1  0
 38 29  1  0
 50 41  1  0
M  END
>  <UniqueID>  (17) 
25

>  <SMILES>  (17) 
O=C(C/N=C(\O)c1ccc2cc(F)ccc2n1)N1C[C@H](O)C[C@H]1c1nccc2ccccc12

>  <Energy>  (17) 
67.91710877564772

>  <Genealogy>  (17) 
O=C(CN=C(O)c1ccc2cc(F)ccc2n1)N1C[C@H](O)C[C@H]1c1nccc2ccccc12 (tautomer)
O=C(C/N=C(\O)c1ccc2cc(F)ccc2n1)N1C[C@H](O)C[C@H]1c1nccc2ccccc12 (cis-trans isomerization)
O=C(C/N=C(\O)c1ccc2cc(F)ccc2n1)N1C[C@H](O)C[C@H]1c1nccc2ccccc12 (3D coordinates assigned)
O=C(C/N=C(\O)c1ccc2cc(F)ccc2n1)N1C[C@H](O)C[C@H]1c1nccc2ccccc12 (nonaromatic ring conformer: 67.91710877564772 kcal/mol)

>  <smiles>  (17) 
O=C(NCC(=O)N1C[C@H](O)C[C@H]1c1nccc2ccccc12)c1ccc2cc(F)ccc2n1

>  <score_type>  (17) 
oracle

>  <origin>  (17) 
autodockgpu

>  <m_score__min__energy>  (17) 
-9.0299999999999994

>  <m_primary>  (17) 
energy

>  <meeko>  (17) 
{"free_energy": -5.7, "intermolecular_energy": -8.09, "internal_energy": -4.6, "cluster_size": 9, "cluster_id": 4, "rank_in_cluster": 9}

>  <energy>  (17) 
-6.35

>  <cluster_rmsd>  (17) 
1.58

>  <rmsd>  (17) 
269.03

>  <cluster>  (17) 
4

$$$$
PTHZUPGKXGNJLI-VUCLPHKJNA-N
     RDKit          3D

 54 58  0  0  0  0  0  0  0  0999 V2000
  138.8920   74.0620  223.0840 H   0  0  0  0  0  0  0  0  0  0  0  0
  139.5970   73.7540  222.4280 O   0  0  0  0  0  0  0  0  0  0  0  0
  139.8960   72.4090  222.1940 C   0  0  0  0  0  0  0  0  0  0  0  0
  140.1340   71.9580  220.9940 N   0  0  0  0  0  0  0  0  0  0  0  0
  140.5360   72.7520  219.8350 C   0  0  0  0  0  0  0  0  0  0  0  0
  140.7365   73.7845  220.1570 H   0  0  0  0  0  0  0  0  0  0  0  0
  139.7223   72.7332  219.0950 H   0  0  0  0  0  0  0  0  0  0  0  0
  141.7760   72.1830  219.2030 C   0  0  0  0  0  0  0  0  0  0  0  0
  141.6580   71.2580  218.3550 O   0  0  0  0  0  0  0  0  0  0  0  0
  143.0880   72.6660  219.5530 N   0  0  0  0  0  0  0  0  0  0  0  0
  144.3310   72.0680  219.0910 C   0  0  0  0  0  0  0  0  0  0  0  0
  144.4331   71.0444  219.4806 H   0  0  0  0  0  0  0  0  0  0  0  0
  144.3671   71.9988  217.9938 H   0  0  0  0  0  0  0  0  0  0  0  0
  145.4430   72.9610  219.6390 C   0  0  2  0  0  0  0  0  0  0  0  0
  145.8426   73.6273  218.8603 H   0  0  0  0  0  0  0  0  0  0  0  0
  146.5320   72.2040  220.0960 O   0  0  0  0  0  0  0  0  0  0  0  0
  146.2730   71.8500  220.9870 H   0  0  0  0  0  0  0  0  0  0  0  0
  144.8040   73.7370  220.7900 C   0  0  0  0  0  0  0  0  0  0  0  0
  144.9811   73.2222  221.7458 H   0  0  0  0  0  0  0  0  0  0  0  0
  145.2286   74.7471  220.8867 H   0  0  0  0  0  0  0  0  0  0  0  0
  143.3080   73.7780  220.4740 C   0  0  1  0  0  0  0  0  0  0  0  0
  142.6926   73.6897  221.3815 H   0  0  0  0  0  0  0  0  0  0  0  0
  142.9220   75.1010  219.8330 C   0  0  0  0  0  0  0  0  0  0  0  0
  143.4940   75.4370  218.6410 N   0  0  0  0  0  0  0  0  0  0  0  0
  143.2210   76.5990  217.9970 C   0  0  0  0  0  0  0  0  0  0  0  0
  143.7061   76.8197  217.0347 H   0  0  0  0  0  0  0  0  0  0  0  0
  142.3290   77.5130  218.5500 C   0  0  0  0  0  0  0  0  0  0  0  0
  142.0984   78.4507  218.0231 H   0  0  0  0  0  0  0  0  0  0  0  0
  141.7280   77.2300  219.7810 C   0  0  0  0  0  0  0  0  0  0  0  0
  140.8400   78.1510  220.3570 C   0  0  0  0  0  0  0  0  0  0  0  0
  140.6058   79.0890  219.8324 H   0  0  0  0  0  0  0  0  0  0  0  0
  140.2530   77.8800  221.5940 C   0  0  0  0  0  0  0  0  0  0  0  0
  139.5540   78.6032  222.0395 H   0  0  0  0  0  0  0  0  0  0  0  0
  140.5500   76.6950  222.2670 C   0  0  0  0  0  0  0  0  0  0  0  0
  140.0888   76.4900  223.2444 H   0  0  0  0  0  0  0  0  0  0  0  0
  141.4310   75.7670  221.7050 C   0  0  0  0  0  0  0  0  0  0  0  0
  141.6616   74.8369  222.2451 H   0  0  0  0  0  0  0  0  0  0  0  0
  142.0270   76.0140  220.4500 C   0  0  0  0  0  0  0  0  0  0  0  0
  139.9440   71.4710  223.3310 C   0  0  0  0  0  0  0  0  0  0  0  0
  140.4310   71.8950  224.5320 N   0  0  0  0  0  0  0  0  0  0  0  0
  140.4920   71.0780  225.6170 C   0  0  0  0  0  0  0  0  0  0  0  0
  140.9980   71.5560  226.8310 C   0  0  0  0  0  0  0  0  0  0  0  0
  141.3473   72.5961  226.9093 H   0  0  0  0  0  0  0  0  0  0  0  0
  141.0600   70.7130  227.9440 C   0  0  0  0  0  0  0  0  0  0  0  0
  141.4590   71.0912  228.8968 H   0  0  0  0  0  0  0  0  0  0  0  0
  140.6160   69.3890  227.8500 C   0  0  0  0  0  0  0  0  0  0  0  0
  140.6780   68.5770  228.9330 F   0  0  0  0  0  0  0  0  0  0  0  0
  140.1080   68.9020  226.6410 C   0  0  0  0  0  0  0  0  0  0  0  0
  139.7598   67.8610  226.5696 H   0  0  0  0  0  0  0  0  0  0  0  0
  140.0430   69.7430  225.5190 C   0  0  0  0  0  0  0  0  0  0  0  0
  139.5400   69.2860  224.2960 C   0  0  0  0  0  0  0  0  0  0  0  0
  139.1853   68.2493  224.1989 H   0  0  0  0  0  0  0  0  0  0  0  0
  139.4890   70.1490  223.1980 C   0  0  0  0  0  0  0  0  0  0  0  0
  139.0944   69.7946  222.2343 H   0  0  0  0  0  0  0  0  0  0  0  0
  1  2  1  0
  2  3  1  0
  3  4  2  0
  4  5  1  0
  5  6  1  0
  5  7  1  0
  5  8  1  0
  8  9  2  0
  8 10  1  0
 10 11  1  0
 11 12  1  0
 11 13  1  0
 11 14  1  0
 14 15  1  6
 14 16  1  0
 16 17  1  0
 14 18  1  0
 18 19  1  0
 18 20  1  0
 18 21  1  0
 21 22  1  1
 21 23  1  0
 23 24  2  0
 24 25  1  0
 25 26  1  0
 25 27  2  0
 27 28  1  0
 27 29  1  0
 29 30  2  0
 30 31  1  0
 30 32  1  0
 32 33  1  0
 32 34  2  0
 34 35  1  0
 34 36  1  0
 36 37  1  0
 36 38  2  0
  3 39  1  0
 39 40  2  0
 40 41  1  0
 41 42  2  0
 42 43  1  0
 42 44  1  0
 44 45  1  0
 44 46  2  0
 46 47  1  0
 46 48  1  0
 48 49  1  0
 48 50  2  0
 50 51  1  0
 51 52  1  0
 51 53  2  0
 53 54  1  0
 21 10  1  0
 38 23  1  0
 53 39  1  0
 38 29  1  0
 50 41  1  0
M  END
>  <UniqueID>  (18) 
25

>  <SMILES>  (18) 
O=C(C/N=C(\O)c1ccc2cc(F)ccc2n1)N1C[C@H](O)C[C@H]1c1nccc2ccccc12

>  <Energy>  (18) 
67.91710877564772

>  <Genealogy>  (18) 
O=C(CN=C(O)c1ccc2cc(F)ccc2n1)N1C[C@H](O)C[C@H]1c1nccc2ccccc12 (tautomer)
O=C(C/N=C(\O)c1ccc2cc(F)ccc2n1)N1C[C@H](O)C[C@H]1c1nccc2ccccc12 (cis-trans isomerization)
O=C(C/N=C(\O)c1ccc2cc(F)ccc2n1)N1C[C@H](O)C[C@H]1c1nccc2ccccc12 (3D coordinates assigned)
O=C(C/N=C(\O)c1ccc2cc(F)ccc2n1)N1C[C@H](O)C[C@H]1c1nccc2ccccc12 (nonaromatic ring conformer: 67.91710877564772 kcal/mol)

>  <smiles>  (18) 
O=C(NCC(=O)N1C[C@H](O)C[C@H]1c1nccc2ccccc12)c1ccc2cc(F)ccc2n1

>  <score_type>  (18) 
oracle

>  <origin>  (18) 
autodockgpu

>  <m_score__min__energy>  (18) 
-9.0299999999999994

>  <m_primary>  (18) 
energy

>  <meeko>  (18) 
{"free_energy": -9.03, "intermolecular_energy": -11.42, "internal_energy": -1.65, "cluster_size": 3, "cluster_id": 1, "rank_in_cluster": 1}

>  <energy>  (18) 
-6.23

>  <cluster_rmsd>  (18) 
1.55

>  <rmsd>  (18) 
269.02

>  <cluster>  (18) 
4

$$$$
PTHZUPGKXGNJLI-VUCLPHKJNA-N
     RDKit          3D

 54 58  0  0  0  0  0  0  0  0999 V2000
  137.8820   73.6210  222.8190 H   0  0  0  0  0  0  0  0  0  0  0  0
  138.0410   72.7200  222.3890 O   0  0  0  0  0  0  0  0  0  0  0  0
  139.2500   72.0260  222.4810 C   0  0  0  0  0  0  0  0  0  0  0  0
  140.2030   72.1880  221.6070 N   0  0  0  0  0  0  0  0  0  0  0  0
  141.1750   73.2780  221.5790 C   0  0  0  0  0  0  0  0  0  0  0  0
  141.7868   73.1921  220.6689 H   0  0  0  0  0  0  0  0  0  0  0  0
  141.8091   73.2076  222.4751 H   0  0  0  0  0  0  0  0  0  0  0  0
  140.4820   74.6130  221.5830 C   0  0  0  0  0  0  0  0  0  0  0  0
  139.6120   74.8440  222.4650 O   0  0  0  0  0  0  0  0  0  0  0  0
  140.7840   75.6190  220.5970 N   0  0  0  0  0  0  0  0  0  0  0  0
  140.4600   75.5040  219.1830 C   0  0  0  0  0  0  0  0  0  0  0  0
  141.0147   74.6700  218.7283 H   0  0  0  0  0  0  0  0  0  0  0  0
  139.3903   75.3020  219.0249 H   0  0  0  0  0  0  0  0  0  0  0  0
  140.8840   76.8310  218.5570 C   0  0  2  0  0  0  0  0  0  0  0  0
  140.0174   77.4844  218.3781 H   0  0  0  0  0  0  0  0  0  0  0  0
  141.4880   76.6400  217.3050 O   0  0  0  0  0  0  0  0  0  0  0  0
  142.1090   75.8710  217.4100 H   0  0  0  0  0  0  0  0  0  0  0  0
  141.8730   77.4440  219.5460 C   0  0  0  0  0  0  0  0  0  0  0  0
  142.9050   77.1813  219.2705 H   0  0  0  0  0  0  0  0  0  0  0  0
  141.8135   78.5424  219.5550 H   0  0  0  0  0  0  0  0  0  0  0  0
  141.5140   76.8450  220.9070 C   0  0  1  0  0  0  0  0  0  0  0  0
  142.4065   76.6493  221.5195 H   0  0  0  0  0  0  0  0  0  0  0  0
  140.6540   77.8030  221.7150 C   0  0  0  0  0  0  0  0  0  0  0  0
  139.3050   77.6010  221.7400 N   0  0  0  0  0  0  0  0  0  0  0  0
  138.4540   78.4070  222.4250 C   0  0  0  0  0  0  0  0  0  0  0  0
  137.3742   78.1973  222.4173 H   0  0  0  0  0  0  0  0  0  0  0  0
  138.9440   79.4980  223.1370 C   0  0  0  0  0  0  0  0  0  0  0  0
  138.2568   80.1453  223.7016 H   0  0  0  0  0  0  0  0  0  0  0  0
  140.3170   79.7650  223.1290 C   0  0  0  0  0  0  0  0  0  0  0  0
  140.8220   80.8720  223.8280 C   0  0  0  0  0  0  0  0  0  0  0  0
  140.1381   81.5212  224.3944 H   0  0  0  0  0  0  0  0  0  0  0  0
  142.1890   81.1520  223.8070 C   0  0  0  0  0  0  0  0  0  0  0  0
  142.5800   82.0185  224.3605 H   0  0  0  0  0  0  0  0  0  0  0  0
  143.0610   80.3360  223.0860 C   0  0  0  0  0  0  0  0  0  0  0  0
  144.1368   80.5650  223.0684 H   0  0  0  0  0  0  0  0  0  0  0  0
  142.5740   79.2290  222.3860 C   0  0  0  0  0  0  0  0  0  0  0  0
  143.2691   78.5937  221.8175 H   0  0  0  0  0  0  0  0  0  0  0  0
  141.1970   78.9200  222.4030 C   0  0  0  0  0  0  0  0  0  0  0  0
  139.4590   71.0830  223.5970 C   0  0  0  0  0  0  0  0  0  0  0  0
  140.0390   71.5240  224.7500 N   0  0  0  0  0  0  0  0  0  0  0  0
  140.2490   70.7030  225.8130 C   0  0  0  0  0  0  0  0  0  0  0  0
  140.8460   71.1980  226.9770 C   0  0  0  0  0  0  0  0  0  0  0  0
  141.1475   72.2544  227.0332 H   0  0  0  0  0  0  0  0  0  0  0  0
  141.0600   70.3520  228.0690 C   0  0  0  0  0  0  0  0  0  0  0  0
  141.5300   70.7444  228.9829 H   0  0  0  0  0  0  0  0  0  0  0  0
  140.6780   69.0070  228.0030 C   0  0  0  0  0  0  0  0  0  0  0  0
  140.8880   68.1920  229.0640 F   0  0  0  0  0  0  0  0  0  0  0  0
  140.0790   68.5030  226.8430 C   0  0  0  0  0  0  0  0  0  0  0  0
  139.7792   67.4458  226.7933 H   0  0  0  0  0  0  0  0  0  0  0  0
  139.8610   69.3470  225.7430 C   0  0  0  0  0  0  0  0  0  0  0  0
  139.2640   68.8730  224.5700 C   0  0  0  0  0  0  0  0  0  0  0  0
  138.9558   67.8197  224.4951 H   0  0  0  0  0  0  0  0  0  0  0  0
  139.0600   69.7410  223.4930 C   0  0  0  0  0  0  0  0  0  0  0  0
  138.5893   69.3743  222.5689 H   0  0  0  0  0  0  0  0  0  0  0  0
  1  2  1  0
  2  3  1  0
  3  4  2  0
  4  5  1  0
  5  6  1  0
  5  7  1  0
  5  8  1  0
  8  9  2  0
  8 10  1  0
 10 11  1  0
 11 12  1  0
 11 13  1  0
 11 14  1  0
 14 15  1  6
 14 16  1  0
 16 17  1  0
 14 18  1  0
 18 19  1  0
 18 20  1  0
 18 21  1  0
 21 22  1  1
 21 23  1  0
 23 24  2  0
 24 25  1  0
 25 26  1  0
 25 27  2  0
 27 28  1  0
 27 29  1  0
 29 30  2  0
 30 31  1  0
 30 32  1  0
 32 33  1  0
 32 34  2  0
 34 35  1  0
 34 36  1  0
 36 37  1  0
 36 38  2  0
  3 39  1  0
 39 40  2  0
 40 41  1  0
 41 42  2  0
 42 43  1  0
 42 44  1  0
 44 45  1  0
 44 46  2  0
 46 47  1  0
 46 48  1  0
 48 49  1  0
 48 50  2  0
 50 51  1  0
 51 52  1  0
 51 53  2  0
 53 54  1  0
 21 10  1  0
 38 23  1  0
 53 39  1  0
 38 29  1  0
 50 41  1  0
M  END
>  <UniqueID>  (19) 
25

>  <SMILES>  (19) 
O=C(C/N=C(\O)c1ccc2cc(F)ccc2n1)N1C[C@H](O)C[C@H]1c1nccc2ccccc12

>  <Energy>  (19) 
67.91710877564772

>  <Genealogy>  (19) 
O=C(CN=C(O)c1ccc2cc(F)ccc2n1)N1C[C@H](O)C[C@H]1c1nccc2ccccc12 (tautomer)
O=C(C/N=C(\O)c1ccc2cc(F)ccc2n1)N1C[C@H](O)C[C@H]1c1nccc2ccccc12 (cis-trans isomerization)
O=C(C/N=C(\O)c1ccc2cc(F)ccc2n1)N1C[C@H](O)C[C@H]1c1nccc2ccccc12 (3D coordinates assigned)
O=C(C/N=C(\O)c1ccc2cc(F)ccc2n1)N1C[C@H](O)C[C@H]1c1nccc2ccccc12 (nonaromatic ring conformer: 67.91710877564772 kcal/mol)

>  <smiles>  (19) 
O=C(NCC(=O)N1C[C@H](O)C[C@H]1c1nccc2ccccc12)c1ccc2cc(F)ccc2n1

>  <score_type>  (19) 
oracle

>  <origin>  (19) 
autodockgpu

>  <m_score__min__energy>  (19) 
-9.0299999999999994

>  <m_primary>  (19) 
energy

>  <meeko>  (19) 
{"free_energy": -8.95, "intermolecular_energy": -11.34, "internal_energy": -1.84, "cluster_size": 6, "cluster_id": 2, "rank_in_cluster": 2}

>  <energy>  (19) 
-5.7

>  <cluster_rmsd>  (19) 
1.8

>  <rmsd>  (19) 
268.89

>  <cluster>  (19) 
4

$$$$
PTHZUPGKXGNJLI-VUCLPHKJNA-N
     RDKit          3D

 54 58  0  0  0  0  0  0  0  0999 V2000
  140.0820   73.4220  219.4850 H   0  0  0  0  0  0  0  0  0  0  0  0
  139.5210   74.0930  219.9910 O   0  0  0  0  0  0  0  0  0  0  0  0
  139.8900   74.6300  221.2270 C   0  0  0  0  0  0  0  0  0  0  0  0
  140.0160   73.8850  222.2890 N   0  0  0  0  0  0  0  0  0  0  0  0
  140.7760   72.6410  222.3880 C   0  0  0  0  0  0  0  0  0  0  0  0
  140.0906   71.8190  222.6420 H   0  0  0  0  0  0  0  0  0  0  0  0
  141.5415   72.7567  223.1695 H   0  0  0  0  0  0  0  0  0  0  0  0
  141.4600   72.3280  221.0860 C   0  0  0  0  0  0  0  0  0  0  0  0
  140.8920   71.5530  220.2710 O   0  0  0  0  0  0  0  0  0  0  0  0
  142.7480   72.8860  220.7610 N   0  0  0  0  0  0  0  0  0  0  0  0
  143.9970   72.1390  220.7970 C   0  0  0  0  0  0  0  0  0  0  0  0
  144.2226   71.8169  221.8243 H   0  0  0  0  0  0  0  0  0  0  0  0
  143.9463   71.2301  220.1794 H   0  0  0  0  0  0  0  0  0  0  0  0
  145.0670   73.1060  220.2940 C   0  0  2  0  0  0  0  0  0  0  0  0
  145.3382   72.8955  219.2490 H   0  0  0  0  0  0  0  0  0  0  0  0
  146.2540   72.9890  221.0330 O   0  0  0  0  0  0  0  0  0  0  0  0
  146.1370   72.2010  221.6260 H   0  0  0  0  0  0  0  0  0  0  0  0
  144.4610   74.4990  220.4640 C   0  0  0  0  0  0  0  0  0  0  0  0
  144.7631   74.9349  221.4277 H   0  0  0  0  0  0  0  0  0  0  0  0
  144.8008   75.1910  219.6793 H   0  0  0  0  0  0  0  0  0  0  0  0
  142.9460   74.2920  220.4220 C   0  0  1  0  0  0  0  0  0  0  0  0
  142.4200   74.9614  221.1186 H   0  0  0  0  0  0  0  0  0  0  0  0
  142.3910   74.6030  219.0410 C   0  0  0  0  0  0  0  0  0  0  0  0
  141.8930   73.5760  218.2940 N   0  0  0  0  0  0  0  0  0  0  0  0
  141.3860   73.7520  217.0480 C   0  0  0  0  0  0  0  0  0  0  0  0
  140.9928   72.8900  216.4891 H   0  0  0  0  0  0  0  0  0  0  0  0
  141.3620   75.0200  216.4750 C   0  0  0  0  0  0  0  0  0  0  0  0
  140.9403   75.1659  215.4696 H   0  0  0  0  0  0  0  0  0  0  0  0
  141.8780   76.1070  217.1870 C   0  0  0  0  0  0  0  0  0  0  0  0
  141.8760   77.3880  216.6140 C   0  0  0  0  0  0  0  0  0  0  0  0
  141.4536   77.5384  215.6095 H   0  0  0  0  0  0  0  0  0  0  0  0
  142.4080   78.4720  217.3140 C   0  0  0  0  0  0  0  0  0  0  0  0
  142.4008   79.4745  216.8612 H   0  0  0  0  0  0  0  0  0  0  0  0
  142.9490   78.2870  218.5870 C   0  0  0  0  0  0  0  0  0  0  0  0
  143.3711   79.1441  219.1322 H   0  0  0  0  0  0  0  0  0  0  0  0
  142.9570   77.0190  219.1720 C   0  0  0  0  0  0  0  0  0  0  0  0
  143.3896   76.8830  220.1742 H   0  0  0  0  0  0  0  0  0  0  0  0
  142.4140   75.9100  218.4870 C   0  0  0  0  0  0  0  0  0  0  0  0
  140.1460   76.0790  221.3380 C   0  0  0  0  0  0  0  0  0  0  0  0
  140.8420   76.5580  222.4080 N   0  0  0  0  0  0  0  0  0  0  0  0
  141.1150   77.8820  222.5590 C   0  0  0  0  0  0  0  0  0  0  0  0
  141.8340   78.3300  223.6720 C   0  0  0  0  0  0  0  0  0  0  0  0
  142.1802   77.6104  224.4285 H   0  0  0  0  0  0  0  0  0  0  0  0
  142.1130   79.6910  223.8240 C   0  0  0  0  0  0  0  0  0  0  0  0
  142.6784   80.0403  224.7005 H   0  0  0  0  0  0  0  0  0  0  0  0
  141.6750   80.6110  222.8640 C   0  0  0  0  0  0  0  0  0  0  0  0
  141.9480   81.9290  223.0180 F   0  0  0  0  0  0  0  0  0  0  0  0
  140.9550   80.1720  221.7480 C   0  0  0  0  0  0  0  0  0  0  0  0
  140.6106   80.8969  220.9957 H   0  0  0  0  0  0  0  0  0  0  0  0
  140.6720   78.8070  221.5880 C   0  0  0  0  0  0  0  0  0  0  0  0
  139.9550   78.3370  220.4820 C   0  0  0  0  0  0  0  0  0  0  0  0
  139.6001   79.0413  219.7152 H   0  0  0  0  0  0  0  0  0  0  0  0
  139.6910   76.9710  220.3540 C   0  0  0  0  0  0  0  0  0  0  0  0
  139.1290   76.5960  219.4859 H   0  0  0  0  0  0  0  0  0  0  0  0
  1  2  1  0
  2  3  1  0
  3  4  2  0
  4  5  1  0
  5  6  1  0
  5  7  1  0
  5  8  1  0
  8  9  2  0
  8 10  1  0
 10 11  1  0
 11 12  1  0
 11 13  1  0
 11 14  1  0
 14 15  1  6
 14 16  1  0
 16 17  1  0
 14 18  1  0
 18 19  1  0
 18 20  1  0
 18 21  1  0
 21 22  1  1
 21 23  1  0
 23 24  2  0
 24 25  1  0
 25 26  1  0
 25 27  2  0
 27 28  1  0
 27 29  1  0
 29 30  2  0
 30 31  1  0
 30 32  1  0
 32 33  1  0
 32 34  2  0
 34 35  1  0
 34 36  1  0
 36 37  1  0
 36 38  2  0
  3 39  1  0
 39 40  2  0
 40 41  1  0
 41 42  2  0
 42 43  1  0
 42 44  1  0
 44 45  1  0
 44 46  2  0
 46 47  1  0
 46 48  1  0
 48 49  1  0
 48 50  2  0
 50 51  1  0
 51 52  1  0
 51 53  2  0
 53 54  1  0
 21 10  1  0
 38 23  1  0
 53 39  1  0
 38 29  1  0
 50 41  1  0
M  END
>  <UniqueID>  (20) 
25

>  <SMILES>  (20) 
O=C(C/N=C(\O)c1ccc2cc(F)ccc2n1)N1C[C@H](O)C[C@H]1c1nccc2ccccc12

>  <Energy>  (20) 
67.91710877564772

>  <Genealogy>  (20) 
O=C(CN=C(O)c1ccc2cc(F)ccc2n1)N1C[C@H](O)C[C@H]1c1nccc2ccccc12 (tautomer)
O=C(C/N=C(\O)c1ccc2cc(F)ccc2n1)N1C[C@H](O)C[C@H]1c1nccc2ccccc12 (cis-trans isomerization)
O=C(C/N=C(\O)c1ccc2cc(F)ccc2n1)N1C[C@H](O)C[C@H]1c1nccc2ccccc12 (3D coordinates assigned)
O=C(C/N=C(\O)c1ccc2cc(F)ccc2n1)N1C[C@H](O)C[C@H]1c1nccc2ccccc12 (nonaromatic ring conformer: 67.91710877564772 kcal/mol)

>  <smiles>  (20) 
O=C(NCC(=O)N1C[C@H](O)C[C@H]1c1nccc2ccccc12)c1ccc2cc(F)ccc2n1

>  <score_type>  (20) 
oracle

>  <origin>  (20) 
autodockgpu

>  <m_score__min__energy>  (20) 
-9.0299999999999994

>  <m_primary>  (20) 
energy

>  <meeko>  (20) 
{"free_energy": -6.37, "intermolecular_energy": -8.75, "internal_energy": -4.14, "cluster_size": 9, "cluster_id": 4, "rank_in_cluster": 6}

>  <energy>  (20) 
-7.46

>  <cluster_rmsd>  (20) 
0.0

>  <rmsd>  (20) 
269.27

>  <cluster>  (20) 
5

$$$$
PTHZUPGKXGNJLI-VUCLPHKJNA-N
     RDKit          3D

 54 58  0  0  0  0  0  0  0  0999 V2000
  140.1210   73.4680  219.4510 H   0  0  0  0  0  0  0  0  0  0  0  0
  139.4920   74.0560  219.9810 O   0  0  0  0  0  0  0  0  0  0  0  0
  139.8020   74.5780  221.2400 C   0  0  0  0  0  0  0  0  0  0  0  0
  139.9370   73.8130  222.2860 N   0  0  0  0  0  0  0  0  0  0  0  0
  140.7700   72.6170  222.3830 C   0  0  0  0  0  0  0  0  0  0  0  0
  140.1411   71.7618  222.6712 H   0  0  0  0  0  0  0  0  0  0  0  0
  141.5498   72.7906  223.1392 H   0  0  0  0  0  0  0  0  0  0  0  0
  141.4330   72.3200  221.0660 C   0  0  0  0  0  0  0  0  0  0  0  0
  140.8470   71.5610  220.2470 O   0  0  0  0  0  0  0  0  0  0  0  0
  142.7190   72.8750  220.7290 N   0  0  0  0  0  0  0  0  0  0  0  0
  143.9580   72.1120  220.7020 C   0  0  0  0  0  0  0  0  0  0  0  0
  144.2050   71.7446  221.7090 H   0  0  0  0  0  0  0  0  0  0  0  0
  143.8796   71.2303  220.0489 H   0  0  0  0  0  0  0  0  0  0  0  0
  145.0280   73.0860  220.2120 C   0  0  2  0  0  0  0  0  0  0  0  0
  145.2704   72.9157  219.1526 H   0  0  0  0  0  0  0  0  0  0  0  0
  146.2310   72.9240  220.9140 O   0  0  0  0  0  0  0  0  0  0  0  0
  146.0860   72.1740  221.5480 H   0  0  0  0  0  0  0  0  0  0  0  0
  144.4450   74.4770  220.4540 C   0  0  0  0  0  0  0  0  0  0  0  0
  144.7779   74.8696  221.4262 H   0  0  0  0  0  0  0  0  0  0  0  0
  144.7732   75.1958  219.6888 H   0  0  0  0  0  0  0  0  0  0  0  0
  142.9260   74.2910  220.4440 C   0  0  1  0  0  0  0  0  0  0  0  0
  142.4269   74.9370  221.1813 H   0  0  0  0  0  0  0  0  0  0  0  0
  142.3400   74.6660  219.0920 C   0  0  0  0  0  0  0  0  0  0  0  0
  141.9380   73.6650  218.2580 N   0  0  0  0  0  0  0  0  0  0  0  0
  141.4120   73.8990  217.0290 C   0  0  0  0  0  0  0  0  0  0  0  0
  141.0987   73.0553  216.3965 H   0  0  0  0  0  0  0  0  0  0  0  0
  141.2680   75.2040  216.5670 C   0  0  0  0  0  0  0  0  0  0  0  0
  140.8303   75.3958  215.5762 H   0  0  0  0  0  0  0  0  0  0  0  0
  141.6840   76.2700  217.3720 C   0  0  0  0  0  0  0  0  0  0  0  0
  141.5610   77.5890  216.9100 C   0  0  0  0  0  0  0  0  0  0  0  0
  141.1233   77.7843  215.9199 H   0  0  0  0  0  0  0  0  0  0  0  0
  141.9920   78.6540  217.7020 C   0  0  0  0  0  0  0  0  0  0  0  0
  141.8894   79.6864  217.3365 H   0  0  0  0  0  0  0  0  0  0  0  0
  142.5530   78.4120  218.9570 C   0  0  0  0  0  0  0  0  0  0  0  0
  142.8967   79.2547  219.5749 H   0  0  0  0  0  0  0  0  0  0  0  0
  142.6800   77.1040  219.4320 C   0  0  0  0  0  0  0  0  0  0  0  0
  143.1261   76.9232  220.4211 H   0  0  0  0  0  0  0  0  0  0  0  0
  142.2400   76.0130  218.6520 C   0  0  0  0  0  0  0  0  0  0  0  0
  139.9850   76.0350  221.3920 C   0  0  0  0  0  0  0  0  0  0  0  0
  140.7880   76.5110  222.3860 N   0  0  0  0  0  0  0  0  0  0  0  0
  140.9990   77.8410  222.5690 C   0  0  0  0  0  0  0  0  0  0  0  0
  141.8320   78.2860  223.6020 C   0  0  0  0  0  0  0  0  0  0  0  0
  142.3178   77.5582  224.2686 H   0  0  0  0  0  0  0  0  0  0  0  0
  142.0470   79.6550  223.7870 C   0  0  0  0  0  0  0  0  0  0  0  0
  142.7015   80.0019  224.6002 H   0  0  0  0  0  0  0  0  0  0  0  0
  141.4330   80.5850  222.9420 C   0  0  0  0  0  0  0  0  0  0  0  0
  141.6450   81.9100  223.1270 F   0  0  0  0  0  0  0  0  0  0  0  0
  140.5980   80.1500  221.9070 C   0  0  0  0  0  0  0  0  0  0  0  0
  140.1149   80.8835  221.2447 H   0  0  0  0  0  0  0  0  0  0  0  0
  140.3770   78.7770  221.7140 C   0  0  0  0  0  0  0  0  0  0  0  0
  139.5490   78.3110  220.6870 C   0  0  0  0  0  0  0  0  0  0  0  0
  139.0551   79.0240  220.0104 H   0  0  0  0  0  0  0  0  0  0  0  0
  139.3510   76.9370  220.5230 C   0  0  0  0  0  0  0  0  0  0  0  0
  138.7017   76.5644  219.7171 H   0  0  0  0  0  0  0  0  0  0  0  0
  1  2  1  0
  2  3  1  0
  3  4  2  0
  4  5  1  0
  5  6  1  0
  5  7  1  0
  5  8  1  0
  8  9  2  0
  8 10  1  0
 10 11  1  0
 11 12  1  0
 11 13  1  0
 11 14  1  0
 14 15  1  6
 14 16  1  0
 16 17  1  0
 14 18  1  0
 18 19  1  0
 18 20  1  0
 18 21  1  0
 21 22  1  1
 21 23  1  0
 23 24  2  0
 24 25  1  0
 25 26  1  0
 25 27  2  0
 27 28  1  0
 27 29  1  0
 29 30  2  0
 30 31  1  0
 30 32  1  0
 32 33  1  0
 32 34  2  0
 34 35  1  0
 34 36  1  0
 36 37  1  0
 36 38  2  0
  3 39  1  0
 39 40  2  0
 40 41  1  0
 41 42  2  0
 42 43  1  0
 42 44  1  0
 44 45  1  0
 44 46  2  0
 46 47  1  0
 46 48  1  0
 48 49  1  0
 48 50  2  0
 50 51  1  0
 51 52  1  0
 51 53  2  0
 53 54  1  0
 21 10  1  0
 38 23  1  0
 53 39  1  0
 38 29  1  0
 50 41  1  0
M  END
>  <UniqueID>  (21) 
26

>  <SMILES>  (21) 
O=C(C/N=C(\O)c1ccc2cc(F)ccc2n1)N1C[C@H](O)C[C@H]1c1nccc2ccccc12

>  <Energy>  (21) 
67.92733207019938

>  <Genealogy>  (21) 
O=C(CN=C(O)c1ccc2cc(F)ccc2n1)N1C[C@H](O)C[C@H]1c1nccc2ccccc12 (tautomer)
O=C(C/N=C(\O)c1ccc2cc(F)ccc2n1)N1C[C@H](O)C[C@H]1c1nccc2ccccc12 (cis-trans isomerization)
O=C(C/N=C(\O)c1ccc2cc(F)ccc2n1)N1C[C@H](O)C[C@H]1c1nccc2ccccc12 (3D coordinates assigned)
O=C(C/N=C(\O)c1ccc2cc(F)ccc2n1)N1C[C@H](O)C[C@H]1c1nccc2ccccc12 (nonaromatic ring conformer: 67.92733207019938 kcal/mol)

>  <smiles>  (21) 
O=C(NCC(=O)N1C[C@H](O)C[C@H]1c1nccc2ccccc12)c1ccc2cc(F)ccc2n1

>  <score_type>  (21) 
oracle

>  <origin>  (21) 
autodockgpu

>  <m_score__min__energy>  (21) 
-9.0299999999999994

>  <m_primary>  (21) 
energy

>  <meeko>  (21) 
{"free_energy": -6.23, "intermolecular_energy": -8.62, "internal_energy": -4.26, "cluster_size": 9, "cluster_id": 4, "rank_in_cluster": 8}

>  <energy>  (21) 
-9.03

>  <cluster_rmsd>  (21) 
0.0

>  <rmsd>  (21) 
269.55

>  <cluster>  (21) 
1

$$$$
PTHZUPGKXGNJLI-VUCLPHKJNA-N
     RDKit          3D

 54 58  0  0  0  0  0  0  0  0999 V2000
  140.4580   75.1630  219.2260 H   0  0  0  0  0  0  0  0  0  0  0  0
  139.7350   75.4410  219.8760 O   0  0  0  0  0  0  0  0  0  0  0  0
  139.9180   75.4790  221.2610 C   0  0  0  0  0  0  0  0  0  0  0  0
  139.9400   74.3920  221.9810 N   0  0  0  0  0  0  0  0  0  0  0  0
  140.7130   73.1850  221.7030 C   0  0  0  0  0  0  0  0  0  0  0  0
  140.0313   72.3230  221.6561 H   0  0  0  0  0  0  0  0  0  0  0  0
  141.4512   73.0462  222.5066 H   0  0  0  0  0  0  0  0  0  0  0  0
  141.4430   73.3080  220.3940 C   0  0  0  0  0  0  0  0  0  0  0  0
  140.7930   73.1860  219.3210 O   0  0  0  0  0  0  0  0  0  0  0  0
  142.8630   73.5490  220.3440 N   0  0  0  0  0  0  0  0  0  0  0  0
  143.8760   72.5240  220.5450 C   0  0  0  0  0  0  0  0  0  0  0  0
  143.8218   72.1258  221.5689 H   0  0  0  0  0  0  0  0  0  0  0  0
  143.7362   71.6733  219.8619 H   0  0  0  0  0  0  0  0  0  0  0  0
  145.2150   73.2210  220.3140 C   0  0  2  0  0  0  0  0  0  0  0  0
  145.6243   72.9838  219.3209 H   0  0  0  0  0  0  0  0  0  0  0  0
  146.1800   72.8000  221.2410 O   0  0  0  0  0  0  0  0  0  0  0  0
  145.8690   71.9240  221.5900 H   0  0  0  0  0  0  0  0  0  0  0  0
  144.9250   74.7120  220.4770 C   0  0  0  0  0  0  0  0  0  0  0  0
  145.1309   75.0334  221.5087 H   0  0  0  0  0  0  0  0  0  0  0  0
  145.5574   75.3256  219.8186 H   0  0  0  0  0  0  0  0  0  0  0  0
  143.4390   74.8760  220.1520 C   0  0  1  0  0  0  0  0  0  0  0  0
  142.9583   75.6300  220.7926 H   0  0  0  0  0  0  0  0  0  0  0  0
  143.2430   75.3540  218.7220 C   0  0  0  0  0  0  0  0  0  0  0  0
  143.5240   74.4900  217.7050 N   0  0  0  0  0  0  0  0  0  0  0  0
  143.3900   74.8260  216.3970 C   0  0  0  0  0  0  0  0  0  0  0  0
  143.6250   74.0894  215.6146 H   0  0  0  0  0  0  0  0  0  0  0  0
  142.9560   76.1000  216.0430 C   0  0  0  0  0  0  0  0  0  0  0  0
  142.8364   76.3704  214.9835 H   0  0  0  0  0  0  0  0  0  0  0  0
  142.6730   77.0340  217.0450 C   0  0  0  0  0  0  0  0  0  0  0  0
  142.2510   78.3270  216.7010 C   0  0  0  0  0  0  0  0  0  0  0  0
  142.1286   78.6001  215.6425 H   0  0  0  0  0  0  0  0  0  0  0  0
  141.9860   79.2680  217.6970 C   0  0  0  0  0  0  0  0  0  0  0  0
  141.6511   80.2790  217.4218 H   0  0  0  0  0  0  0  0  0  0  0  0
  142.1450   78.9290  219.0410 C   0  0  0  0  0  0  0  0  0  0  0  0
  141.9410   79.6765  219.8218 H   0  0  0  0  0  0  0  0  0  0  0  0
  142.5620   77.6450  219.4000 C   0  0  0  0  0  0  0  0  0  0  0  0
  142.6871   77.3886  220.4623 H   0  0  0  0  0  0  0  0  0  0  0  0
  142.8240   76.6740  218.4090 C   0  0  0  0  0  0  0  0  0  0  0  0
  140.0940   76.7820  221.9310 C   0  0  0  0  0  0  0  0  0  0  0  0
  141.3390   77.3330  222.0110 N   0  0  0  0  0  0  0  0  0  0  0  0
  141.5600   78.5340  222.6090 C   0  0  0  0  0  0  0  0  0  0  0  0
  142.8540   79.0630  222.6680 C   0  0  0  0  0  0  0  0  0  0  0  0
  143.6958   78.5063  222.2303 H   0  0  0  0  0  0  0  0  0  0  0  0
  143.0780   80.2990  223.2830 C   0  0  0  0  0  0  0  0  0  0  0  0
  144.0963   80.7126  223.3283 H   0  0  0  0  0  0  0  0  0  0  0  0
  142.0100   81.0110  223.8410 C   0  0  0  0  0  0  0  0  0  0  0  0
  142.2340   82.2070  224.4360 F   0  0  0  0  0  0  0  0  0  0  0  0
  140.7130   80.4900  223.7870 C   0  0  0  0  0  0  0  0  0  0  0  0
  139.8755   81.0514  224.2268 H   0  0  0  0  0  0  0  0  0  0  0  0
  140.4810   79.2500  223.1710 C   0  0  0  0  0  0  0  0  0  0  0  0
  139.1950   78.7030  223.1000 C   0  0  0  0  0  0  0  0  0  0  0  0
  138.3410   79.2446  223.5328 H   0  0  0  0  0  0  0  0  0  0  0  0
  138.9980   77.4670  222.4780 C   0  0  0  0  0  0  0  0  0  0  0  0
  137.9889   77.0333  222.4175 H   0  0  0  0  0  0  0  0  0  0  0  0
  1  2  1  0
  2  3  1  0
  3  4  2  0
  4  5  1  0
  5  6  1  0
  5  7  1  0
  5  8  1  0
  8  9  2  0
  8 10  1  0
 10 11  1  0
 11 12  1  0
 11 13  1  0
 11 14  1  0
 14 15  1  6
 14 16  1  0
 16 17  1  0
 14 18  1  0
 18 19  1  0
 18 20  1  0
 18 21  1  0
 21 22  1  1
 21 23  1  0
 23 24  2  0
 24 25  1  0
 25 26  1  0
 25 27  2  0
 27 28  1  0
 27 29  1  0
 29 30  2  0
 30 31  1  0
 30 32  1  0
 32 33  1  0
 32 34  2  0
 34 35  1  0
 34 36  1  0
 36 37  1  0
 36 38  2  0
  3 39  1  0
 39 40  2  0
 40 41  1  0
 41 42  2  0
 42 43  1  0
 42 44  1  0
 44 45  1  0
 44 46  2  0
 46 47  1  0
 46 48  1  0
 48 49  1  0
 48 50  2  0
 50 51  1  0
 51 52  1  0
 51 53  2  0
 53 54  1  0
 21 10  1  0
 38 23  1  0
 53 39  1  0
 38 29  1  0
 50 41  1  0
M  END
>  <UniqueID>  (22) 
26

>  <SMILES>  (22) 
O=C(C/N=C(\O)c1ccc2cc(F)ccc2n1)N1C[C@H](O)C[C@H]1c1nccc2ccccc12

>  <Energy>  (22) 
67.92733207019938

>  <Genealogy>  (22) 
O=C(CN=C(O)c1ccc2cc(F)ccc2n1)N1C[C@H](O)C[C@H]1c1nccc2ccccc12 (tautomer)
O=C(C/N=C(\O)c1ccc2cc(F)ccc2n1)N1C[C@H](O)C[C@H]1c1nccc2ccccc12 (cis-trans isomerization)
O=C(C/N=C(\O)c1ccc2cc(F)ccc2n1)N1C[C@H](O)C[C@H]1c1nccc2ccccc12 (3D coordinates assigned)
O=C(C/N=C(\O)c1ccc2cc(F)ccc2n1)N1C[C@H](O)C[C@H]1c1nccc2ccccc12 (nonaromatic ring conformer: 67.92733207019938 kcal/mol)

>  <smiles>  (22) 
O=C(NCC(=O)N1C[C@H](O)C[C@H]1c1nccc2ccccc12)c1ccc2cc(F)ccc2n1

>  <score_type>  (22) 
oracle

>  <origin>  (22) 
autodockgpu

>  <m_score__min__energy>  (22) 
-9.0299999999999994

>  <m_primary>  (22) 
energy

>  <meeko>  (22) 
{"free_energy": -7.25, "intermolecular_energy": -9.64, "internal_energy": -2.97, "cluster_size": 9, "cluster_id": 4, "rank_in_cluster": 4}

>  <energy>  (22) 
-8.86

>  <cluster_rmsd>  (22) 
0.09

>  <rmsd>  (22) 
269.56

>  <cluster>  (22) 
1

$$$$
PTHZUPGKXGNJLI-VUCLPHKJNA-N
     RDKit          3D

 54 58  0  0  0  0  0  0  0  0999 V2000
  137.4550   74.1050  223.0580 H   0  0  0  0  0  0  0  0  0  0  0  0
  137.7600   74.7090  222.3070 O   0  0  0  0  0  0  0  0  0  0  0  0
  139.0820   75.1350  222.1500 C   0  0  0  0  0  0  0  0  0  0  0  0
  140.0560   74.2920  221.9510 N   0  0  0  0  0  0  0  0  0  0  0  0
  141.3350   74.5820  221.3080 C   0  0  0  0  0  0  0  0  0  0  0  0
  142.1073   74.7070  222.0813 H   0  0  0  0  0  0  0  0  0  0  0  0
  141.2317   75.5043  220.7174 H   0  0  0  0  0  0  0  0  0  0  0  0
  141.7360   73.4620  220.3870 C   0  0  0  0  0  0  0  0  0  0  0  0
  140.8540   72.6520  219.9950 O   0  0  0  0  0  0  0  0  0  0  0  0
  143.1000   73.2950  219.9570 N   0  0  0  0  0  0  0  0  0  0  0  0
  143.7270   72.0060  219.7050 C   0  0  0  0  0  0  0  0  0  0  0  0
  143.7835   71.4183  220.6331 H   0  0  0  0  0  0  0  0  0  0  0  0
  143.1535   71.4086  218.9810 H   0  0  0  0  0  0  0  0  0  0  0  0
  145.1290   72.3260  219.1900 C   0  0  2  0  0  0  0  0  0  0  0  0
  145.1901   72.2131  218.0975 H   0  0  0  0  0  0  0  0  0  0  0  0
  146.0860   71.4490  219.7230 O   0  0  0  0  0  0  0  0  0  0  0  0
  146.0280   71.5390  220.7110 H   0  0  0  0  0  0  0  0  0  0  0  0
  145.4030   73.7610  219.6390 C   0  0  0  0  0  0  0  0  0  0  0  0
  145.9395   73.7676  220.5993 H   0  0  0  0  0  0  0  0  0  0  0  0
  146.0323   74.3016  218.9167 H   0  0  0  0  0  0  0  0  0  0  0  0
  144.0270   74.4110  219.7910 C   0  0  1  0  0  0  0  0  0  0  0  0
  143.9920   75.1060  220.6429 H   0  0  0  0  0  0  0  0  0  0  0  0
  143.6740   75.2350  218.5640 C   0  0  0  0  0  0  0  0  0  0  0  0
  144.0450   74.7670  217.3380 N   0  0  0  0  0  0  0  0  0  0  0  0
  143.7830   75.4340  216.1860 C   0  0  0  0  0  0  0  0  0  0  0  0
  144.0986   75.0087  215.2219 H   0  0  0  0  0  0  0  0  0  0  0  0
  143.1160   76.6550  216.2210 C   0  0  0  0  0  0  0  0  0  0  0  0
  142.8940   77.1922  215.2871 H   0  0  0  0  0  0  0  0  0  0  0  0
  142.7300   77.1940  217.4530 C   0  0  0  0  0  0  0  0  0  0  0  0
  142.0710   78.4320  217.5030 C   0  0  0  0  0  0  0  0  0  0  0  0
  141.8446   78.9705  216.5710 H   0  0  0  0  0  0  0  0  0  0  0  0
  141.7020   78.9820  218.7310 C   0  0  0  0  0  0  0  0  0  0  0  0
  141.1836   79.9516  218.7643 H   0  0  0  0  0  0  0  0  0  0  0  0
  141.9890   78.3050  219.9170 C   0  0  0  0  0  0  0  0  0  0  0  0
  141.6992   78.7453  220.8825 H   0  0  0  0  0  0  0  0  0  0  0  0
  142.6430   77.0700  219.8840 C   0  0  0  0  0  0  0  0  0  0  0  0
  142.8693   76.5465  220.8246 H   0  0  0  0  0  0  0  0  0  0  0  0
  143.0150   76.4900  218.6520 C   0  0  0  0  0  0  0  0  0  0  0  0
  139.3880   76.5780  222.2090 C   0  0  0  0  0  0  0  0  0  0  0  0
  140.5530   76.9940  222.7820 N   0  0  0  0  0  0  0  0  0  0  0  0
  140.8910   78.3090  222.8580 C   0  0  0  0  0  0  0  0  0  0  0  0
  142.0980   78.6920  223.4540 C   0  0  0  0  0  0  0  0  0  0  0  0
  142.7761   77.9284  223.8627 H   0  0  0  0  0  0  0  0  0  0  0  0
  142.4420   80.0450  223.5300 C   0  0  0  0  0  0  0  0  0  0  0  0
  143.3903   80.3437  224.0006 H   0  0  0  0  0  0  0  0  0  0  0  0
  141.5850   81.0200  223.0100 C   0  0  0  0  0  0  0  0  0  0  0  0
  141.9250   82.3300  223.0870 F   0  0  0  0  0  0  0  0  0  0  0  0
  140.3760   80.6470  222.4120 C   0  0  0  0  0  0  0  0  0  0  0  0
  139.7029   81.4160  222.0050 H   0  0  0  0  0  0  0  0  0  0  0  0
  140.0230   79.2910  222.3320 C   0  0  0  0  0  0  0  0  0  0  0  0
  138.8230   78.8860  221.7390 C   0  0  0  0  0  0  0  0  0  0  0  0
  138.1331   79.6354  221.3237 H   0  0  0  0  0  0  0  0  0  0  0  0
  138.5020   77.5270  221.6750 C   0  0  0  0  0  0  0  0  0  0  0  0
  137.5600   77.2028  221.2086 H   0  0  0  0  0  0  0  0  0  0  0  0
  1  2  1  0
  2  3  1  0
  3  4  2  0
  4  5  1  0
  5  6  1  0
  5  7  1  0
  5  8  1  0
  8  9  2  0
  8 10  1  0
 10 11  1  0
 11 12  1  0
 11 13  1  0
 11 14  1  0
 14 15  1  6
 14 16  1  0
 16 17  1  0
 14 18  1  0
 18 19  1  0
 18 20  1  0
 18 21  1  0
 21 22  1  1
 21 23  1  0
 23 24  2  0
 24 25  1  0
 25 26  1  0
 25 27  2  0
 27 28  1  0
 27 29  1  0
 29 30  2  0
 30 31  1  0
 30 32  1  0
 32 33  1  0
 32 34  2  0
 34 35  1  0
 34 36  1  0
 36 37  1  0
 36 38  2  0
  3 39  1  0
 39 40  2  0
 40 41  1  0
 41 42  2  0
 42 43  1  0
 42 44  1  0
 44 45  1  0
 44 46  2  0
 46 47  1  0
 46 48  1  0
 48 49  1  0
 48 50  2  0
 50 51  1  0
 51 52  1  0
 51 53  2  0
 53 54  1  0
 21 10  1  0
 38 23  1  0
 53 39  1  0
 38 29  1  0
 50 41  1  0
M  END
>  <UniqueID>  (23) 
26

>  <SMILES>  (23) 
O=C(C/N=C(\O)c1ccc2cc(F)ccc2n1)N1C[C@H](O)C[C@H]1c1nccc2ccccc12

>  <Energy>  (23) 
67.92733207019938

>  <Genealogy>  (23) 
O=C(CN=C(O)c1ccc2cc(F)ccc2n1)N1C[C@H](O)C[C@H]1c1nccc2ccccc12 (tautomer)
O=C(C/N=C(\O)c1ccc2cc(F)ccc2n1)N1C[C@H](O)C[C@H]1c1nccc2ccccc12 (cis-trans isomerization)
O=C(C/N=C(\O)c1ccc2cc(F)ccc2n1)N1C[C@H](O)C[C@H]1c1nccc2ccccc12 (3D coordinates assigned)
O=C(C/N=C(\O)c1ccc2cc(F)ccc2n1)N1C[C@H](O)C[C@H]1c1nccc2ccccc12 (nonaromatic ring conformer: 67.92733207019938 kcal/mol)

>  <smiles>  (23) 
O=C(NCC(=O)N1C[C@H](O)C[C@H]1c1nccc2ccccc12)c1ccc2cc(F)ccc2n1

>  <score_type>  (23) 
oracle

>  <origin>  (23) 
autodockgpu

>  <m_score__min__energy>  (23) 
-9.0299999999999994

>  <m_primary>  (23) 
energy

>  <meeko>  (23) 
{"free_energy": -7.54, "intermolecular_energy": -9.93, "internal_energy": -2.17, "cluster_size": 9, "cluster_id": 4, "rank_in_cluster": 2}

>  <energy>  (23) 
-8.51

>  <cluster_rmsd>  (23) 
0.83

>  <rmsd>  (23) 
269.58

>  <cluster>  (23) 
1

$$$$
PTHZUPGKXGNJLI-VUCLPHKJNA-N
     RDKit          3D

 54 58  0  0  0  0  0  0  0  0999 V2000
  139.0590   73.8090  222.7650 H   0  0  0  0  0  0  0  0  0  0  0  0
  138.5630   72.9450  222.5990 O   0  0  0  0  0  0  0  0  0  0  0  0
  139.2000   71.7130  222.4200 C   0  0  0  0  0  0  0  0  0  0  0  0
  139.6380   71.3300  221.2540 N   0  0  0  0  0  0  0  0  0  0  0  0
  141.0260   71.3510  220.8000 C   0  0  0  0  0  0  0  0  0  0  0  0
  141.0493   71.2393  219.7059 H   0  0  0  0  0  0  0  0  0  0  0  0
  141.5669   70.5227  221.2810 H   0  0  0  0  0  0  0  0  0  0  0  0
  141.6920   72.6460  221.1780 C   0  0  0  0  0  0  0  0  0  0  0  0
  141.0770   73.4500  221.9280 O   0  0  0  0  0  0  0  0  0  0  0  0
  143.0050   72.9850  220.6920 N   0  0  0  0  0  0  0  0  0  0  0  0
  143.9160   72.0400  220.0650 C   0  0  0  0  0  0  0  0  0  0  0  0
  144.2120   71.2591  220.7809 H   0  0  0  0  0  0  0  0  0  0  0  0
  143.4491   71.5309  219.2090 H   0  0  0  0  0  0  0  0  0  0  0  0
  145.1310   72.8620  219.6400 C   0  0  2  0  0  0  0  0  0  0  0  0
  145.1133   73.0747  218.5609 H   0  0  0  0  0  0  0  0  0  0  0  0
  146.3290   72.1710  219.8770 O   0  0  0  0  0  0  0  0  0  0  0  0
  146.2810   71.8440  220.8140 H   0  0  0  0  0  0  0  0  0  0  0  0
  145.0670   74.1360  220.4800 C   0  0  0  0  0  0  0  0  0  0  0  0
  145.6750   74.0272  221.3902 H   0  0  0  0  0  0  0  0  0  0  0  0
  145.4611   75.0054  219.9333 H   0  0  0  0  0  0  0  0  0  0  0  0
  143.5910   74.3140  220.8410 C   0  0  1  0  0  0  0  0  0  0  0  0
  143.4607   74.7105  221.8588 H   0  0  0  0  0  0  0  0  0  0  0  0
  142.9190   75.3130  219.9120 C   0  0  0  0  0  0  0  0  0  0  0  0
  143.3690   75.4110  218.6290 N   0  0  0  0  0  0  0  0  0  0  0  0
  142.8410   76.2790  217.7290 C   0  0  0  0  0  0  0  0  0  0  0  0
  143.2379   76.3153  216.7037 H   0  0  0  0  0  0  0  0  0  0  0  0
  141.7990   77.1230  218.1000 C   0  0  0  0  0  0  0  0  0  0  0  0
  141.3614   77.8180  217.3682 H   0  0  0  0  0  0  0  0  0  0  0  0
  141.3120   77.0810  219.4110 C   0  0  0  0  0  0  0  0  0  0  0  0
  140.2730   77.9390  219.8020 C   0  0  0  0  0  0  0  0  0  0  0  0
  139.8322   78.6343  219.0725 H   0  0  0  0  0  0  0  0  0  0  0  0
  139.7970   77.9130  221.1140 C   0  0  0  0  0  0  0  0  0  0  0  0
  138.9801   78.5855  221.4147 H   0  0  0  0  0  0  0  0  0  0  0  0
  140.3550   77.0360  222.0450 C   0  0  0  0  0  0  0  0  0  0  0  0
  139.9799   77.0240  223.0790 H   0  0  0  0  0  0  0  0  0  0  0  0
  141.3880   76.1730  221.6700 C   0  0  0  0  0  0  0  0  0  0  0  0
  141.8235   75.4878  222.4122 H   0  0  0  0  0  0  0  0  0  0  0  0
  141.8770   76.1740  220.3450 C   0  0  0  0  0  0  0  0  0  0  0  0
  139.3860   70.8210  223.5800 C   0  0  0  0  0  0  0  0  0  0  0  0
  139.9880   71.2990  224.7060 N   0  0  0  0  0  0  0  0  0  0  0  0
  140.1790   70.5260  225.8080 C   0  0  0  0  0  0  0  0  0  0  0  0
  140.8010   71.0580  226.9430 C   0  0  0  0  0  0  0  0  0  0  0  0
  141.1376   72.1052  226.9451 H   0  0  0  0  0  0  0  0  0  0  0  0
  140.9950   70.2600  228.0740 C   0  0  0  0  0  0  0  0  0  0  0  0
  141.4848   70.6809  228.9645 H   0  0  0  0  0  0  0  0  0  0  0  0
  140.5680   68.9270  228.0770 C   0  0  0  0  0  0  0  0  0  0  0  0
  140.7590   68.1590  229.1770 F   0  0  0  0  0  0  0  0  0  0  0  0
  139.9450   68.3860  226.9470 C   0  0  0  0  0  0  0  0  0  0  0  0
  139.6107   67.3380  226.9516 H   0  0  0  0  0  0  0  0  0  0  0  0
  139.7470   69.1810  225.8080 C   0  0  0  0  0  0  0  0  0  0  0  0
  139.1260   68.6700  224.6630 C   0  0  0  0  0  0  0  0  0  0  0  0
  138.7825   67.6252  224.6423 H   0  0  0  0  0  0  0  0  0  0  0  0
  138.9430   69.4890  223.5460 C   0  0  0  0  0  0  0  0  0  0  0  0
  138.4541   69.0922  222.6441 H   0  0  0  0  0  0  0  0  0  0  0  0
  1  2  1  0
  2  3  1  0
  3  4  2  0
  4  5  1  0
  5  6  1  0
  5  7  1  0
  5  8  1  0
  8  9  2  0
  8 10  1  0
 10 11  1  0
 11 12  1  0
 11 13  1  0
 11 14  1  0
 14 15  1  6
 14 16  1  0
 16 17  1  0
 14 18  1  0
 18 19  1  0
 18 20  1  0
 18 21  1  0
 21 22  1  1
 21 23  1  0
 23 24  2  0
 24 25  1  0
 25 26  1  0
 25 27  2  0
 27 28  1  0
 27 29  1  0
 29 30  2  0
 30 31  1  0
 30 32  1  0
 32 33  1  0
 32 34  2  0
 34 35  1  0
 34 36  1  0
 36 37  1  0
 36 38  2  0
  3 39  1  0
 39 40  2  0
 40 41  1  0
 41 42  2  0
 42 43  1  0
 42 44  1  0
 44 45  1  0
 44 46  2  0
 46 47  1  0
 46 48  1  0
 48 49  1  0
 48 50  2  0
 50 51  1  0
 51 52  1  0
 51 53  2  0
 53 54  1  0
 21 10  1  0
 38 23  1  0
 53 39  1  0
 38 29  1  0
 50 41  1  0
M  END
>  <UniqueID>  (24) 
26

>  <SMILES>  (24) 
O=C(C/N=C(\O)c1ccc2cc(F)ccc2n1)N1C[C@H](O)C[C@H]1c1nccc2ccccc12

>  <Energy>  (24) 
67.92733207019938

>  <Genealogy>  (24) 
O=C(CN=C(O)c1ccc2cc(F)ccc2n1)N1C[C@H](O)C[C@H]1c1nccc2ccccc12 (tautomer)
O=C(C/N=C(\O)c1ccc2cc(F)ccc2n1)N1C[C@H](O)C[C@H]1c1nccc2ccccc12 (cis-trans isomerization)
O=C(C/N=C(\O)c1ccc2cc(F)ccc2n1)N1C[C@H](O)C[C@H]1c1nccc2ccccc12 (3D coordinates assigned)
O=C(C/N=C(\O)c1ccc2cc(F)ccc2n1)N1C[C@H](O)C[C@H]1c1nccc2ccccc12 (nonaromatic ring conformer: 67.92733207019938 kcal/mol)

>  <smiles>  (24) 
O=C(NCC(=O)N1C[C@H](O)C[C@H]1c1nccc2ccccc12)c1ccc2cc(F)ccc2n1

>  <score_type>  (24) 
oracle

>  <origin>  (24) 
autodockgpu

>  <m_score__min__energy>  (24) 
-9.0299999999999994

>  <m_primary>  (24) 
energy

>  <meeko>  (24) 
{"free_energy": -8.51, "intermolecular_energy": -10.89, "internal_energy": -1.79, "cluster_size": 3, "cluster_id": 1, "rank_in_cluster": 3}

>  <energy>  (24) 
-8.96

>  <cluster_rmsd>  (24) 
0.0

>  <rmsd>  (24) 
270.06

>  <cluster>  (24) 
2

$$$$
PTHZUPGKXGNJLI-VUCLPHKJNA-N
     RDKit          3D

 54 58  0  0  0  0  0  0  0  0999 V2000
  137.8190   73.4040  222.9830 H   0  0  0  0  0  0  0  0  0  0  0  0
  138.3280   73.4380  222.1100 O   0  0  0  0  0  0  0  0  0  0  0  0
  139.5660   74.0700  221.9640 C   0  0  0  0  0  0  0  0  0  0  0  0
  139.7470   75.3140  222.3070 N   0  0  0  0  0  0  0  0  0  0  0  0
  139.2700   76.4900  221.5840 C   0  0  0  0  0  0  0  0  0  0  0  0
  139.7583   77.3871  221.9923 H   0  0  0  0  0  0  0  0  0  0  0  0
  138.1789   76.5598  221.7047 H   0  0  0  0  0  0  0  0  0  0  0  0
  139.5870   76.3800  220.1180 C   0  0  0  0  0  0  0  0  0  0  0  0
  138.6430   76.1940  219.3040 O   0  0  0  0  0  0  0  0  0  0  0  0
  140.9410   76.4710  219.6320 N   0  0  0  0  0  0  0  0  0  0  0  0
  141.4170   75.8390  218.4120 C   0  0  0  0  0  0  0  0  0  0  0  0
  141.3558   74.7440  218.4974 H   0  0  0  0  0  0  0  0  0  0  0  0
  140.8111   76.1273  217.5404 H   0  0  0  0  0  0  0  0  0  0  0  0
  142.8710   76.2820  218.2620 C   0  0  2  0  0  0  0  0  0  0  0  0
  142.9710   77.0799  217.5114 H   0  0  0  0  0  0  0  0  0  0  0  0
  143.6870   75.2300  217.8180 O   0  0  0  0  0  0  0  0  0  0  0  0
  144.6200   75.5690  217.8460 H   0  0  0  0  0  0  0  0  0  0  0  0
  143.2960   76.7440  219.6550 C   0  0  0  0  0  0  0  0  0  0  0  0
  143.7829   75.9224  220.2008 H   0  0  0  0  0  0  0  0  0  0  0  0
  144.0204   77.5704  219.6081 H   0  0  0  0  0  0  0  0  0  0  0  0
  142.0030   77.1610  220.3580 C   0  0  1  0  0  0  0  0  0  0  0  0
  142.0108   76.8967  221.4257 H   0  0  0  0  0  0  0  0  0  0  0  0
  141.8130   78.6680  220.3010 C   0  0  0  0  0  0  0  0  0  0  0  0
  141.6230   79.2530  219.0840 N   0  0  0  0  0  0  0  0  0  0  0  0
  141.4540   80.5910  218.9300 C   0  0  0  0  0  0  0  0  0  0  0  0
  141.3001   81.0126  217.9257 H   0  0  0  0  0  0  0  0  0  0  0  0
  141.4750   81.4310  220.0400 C   0  0  0  0  0  0  0  0  0  0  0  0
  141.3259   82.5140  219.9181 H   0  0  0  0  0  0  0  0  0  0  0  0
  141.6870   80.8880  221.3110 C   0  0  0  0  0  0  0  0  0  0  0  0
  141.7270   81.7260  222.4360 C   0  0  0  0  0  0  0  0  0  0  0  0
  141.5767   82.8093  222.3184 H   0  0  0  0  0  0  0  0  0  0  0  0
  141.9570   81.1890  223.7040 C   0  0  0  0  0  0  0  0  0  0  0  0
  141.9845   81.8498  224.5829 H   0  0  0  0  0  0  0  0  0  0  0  0
  142.1520   79.8170  223.8590 C   0  0  0  0  0  0  0  0  0  0  0  0
  142.3374   79.4002  224.8599 H   0  0  0  0  0  0  0  0  0  0  0  0
  142.1130   78.9690  222.7490 C   0  0  0  0  0  0  0  0  0  0  0  0
  142.2729   77.8888  222.8815 H   0  0  0  0  0  0  0  0  0  0  0  0
  141.8700   79.4880  221.4590 C   0  0  0  0  0  0  0  0  0  0  0  0
  140.7030   73.3110  221.4080 C   0  0  0  0  0  0  0  0  0  0  0  0
  141.9220   73.9110  221.2960 N   0  0  0  0  0  0  0  0  0  0  0  0
  143.0060   73.2590  220.7990 C   0  0  0  0  0  0  0  0  0  0  0  0
  144.2390   73.9150  220.7030 C   0  0  0  0  0  0  0  0  0  0  0  0
  144.3321   74.9612  221.0298 H   0  0  0  0  0  0  0  0  0  0  0  0
  145.3520   73.2410  220.1920 C   0  0  0  0  0  0  0  0  0  0  0  0
  146.3198   73.7586  220.1175 H   0  0  0  0  0  0  0  0  0  0  0  0
  145.2390   71.9100  219.7750 C   0  0  0  0  0  0  0  0  0  0  0  0
  146.3220   71.2630  219.2800 F   0  0  0  0  0  0  0  0  0  0  0  0
  144.0100   71.2460  219.8660 C   0  0  0  0  0  0  0  0  0  0  0  0
  143.9232   70.2003  219.5358 H   0  0  0  0  0  0  0  0  0  0  0  0
  142.8890   71.9160  220.3790 C   0  0  0  0  0  0  0  0  0  0  0  0
  141.6470   71.2800  220.4850 C   0  0  0  0  0  0  0  0  0  0  0  0
  141.5344   70.2341  220.1635 H   0  0  0  0  0  0  0  0  0  0  0  0
  140.5500   71.9760  221.0000 C   0  0  0  0  0  0  0  0  0  0  0  0
  139.5716   71.4806  221.0853 H   0  0  0  0  0  0  0  0  0  0  0  0
  1  2  1  0
  2  3  1  0
  3  4  2  0
  4  5  1  0
  5  6  1  0
  5  7  1  0
  5  8  1  0
  8  9  2  0
  8 10  1  0
 10 11  1  0
 11 12  1  0
 11 13  1  0
 11 14  1  0
 14 15  1  6
 14 16  1  0
 16 17  1  0
 14 18  1  0
 18 19  1  0
 18 20  1  0
 18 21  1  0
 21 22  1  1
 21 23  1  0
 23 24  2  0
 24 25  1  0
 25 26  1  0
 25 27  2  0
 27 28  1  0
 27 29  1  0
 29 30  2  0
 30 31  1  0
 30 32  1  0
 32 33  1  0
 32 34  2  0
 34 35  1  0
 34 36  1  0
 36 37  1  0
 36 38  2  0
  3 39  1  0
 39 40  2  0
 40 41  1  0
 41 42  2  0
 42 43  1  0
 42 44  1  0
 44 45  1  0
 44 46  2  0
 46 47  1  0
 46 48  1  0
 48 49  1  0
 48 50  2  0
 50 51  1  0
 51 52  1  0
 51 53  2  0
 53 54  1  0
 21 10  1  0
 38 23  1  0
 53 39  1  0
 38 29  1  0
 50 41  1  0
M  END
>  <UniqueID>  (25) 
26

>  <SMILES>  (25) 
O=C(C/N=C(\O)c1ccc2cc(F)ccc2n1)N1C[C@H](O)C[C@H]1c1nccc2ccccc12

>  <Energy>  (25) 
67.92733207019938

>  <Genealogy>  (25) 
O=C(CN=C(O)c1ccc2cc(F)ccc2n1)N1C[C@H](O)C[C@H]1c1nccc2ccccc12 (tautomer)
O=C(C/N=C(\O)c1ccc2cc(F)ccc2n1)N1C[C@H](O)C[C@H]1c1nccc2ccccc12 (cis-trans isomerization)
O=C(C/N=C(\O)c1ccc2cc(F)ccc2n1)N1C[C@H](O)C[C@H]1c1nccc2ccccc12 (3D coordinates assigned)
O=C(C/N=C(\O)c1ccc2cc(F)ccc2n1)N1C[C@H](O)C[C@H]1c1nccc2ccccc12 (nonaromatic ring conformer: 67.92733207019938 kcal/mol)

>  <smiles>  (25) 
O=C(NCC(=O)N1C[C@H](O)C[C@H]1c1nccc2ccccc12)c1ccc2cc(F)ccc2n1

>  <score_type>  (25) 
oracle

>  <origin>  (25) 
autodockgpu

>  <m_score__min__energy>  (25) 
-9.0299999999999994

>  <m_primary>  (25) 
energy

>  <meeko>  (25) 
{"free_energy": -7.46, "intermolecular_energy": -9.85, "internal_energy": -2.45, "cluster_size": 1, "cluster_id": 5, "rank_in_cluster": 1}

>  <energy>  (25) 
-8.95

>  <cluster_rmsd>  (25) 
0.4

>  <rmsd>  (25) 
270.02

>  <cluster>  (25) 
2

$$$$
PTHZUPGKXGNJLI-VUCLPHKJNA-N
     RDKit          3D

 54 58  0  0  0  0  0  0  0  0999 V2000
  139.2790   74.6070  223.2270 H   0  0  0  0  0  0  0  0  0  0  0  0
  139.7010   74.3820  222.3370 O   0  0  0  0  0  0  0  0  0  0  0  0
  139.9030   73.0730  221.8890 C   0  0  0  0  0  0  0  0  0  0  0  0
  140.0570   72.7960  220.6250 N   0  0  0  0  0  0  0  0  0  0  0  0
  141.2900   72.3550  219.9780 C   0  0  0  0  0  0  0  0  0  0  0  0
  141.1300   72.3077  218.8907 H   0  0  0  0  0  0  0  0  0  0  0  0
  141.5581   71.3623  220.3686 H   0  0  0  0  0  0  0  0  0  0  0  0
  142.4160   73.3090  220.2700 C   0  0  0  0  0  0  0  0  0  0  0  0
  143.2150   73.0390  221.2070 O   0  0  0  0  0  0  0  0  0  0  0  0
  142.5890   74.5220  219.5110 N   0  0  0  0  0  0  0  0  0  0  0  0
  143.0100   74.5630  218.1190 C   0  0  0  0  0  0  0  0  0  0  0  0
  144.0307   74.1664  218.0144 H   0  0  0  0  0  0  0  0  0  0  0  0
  142.3601   73.9491  217.4781 H   0  0  0  0  0  0  0  0  0  0  0  0
  142.9670   76.0380  217.7220 C   0  0  2  0  0  0  0  0  0  0  0  0
  142.0699   76.2686  217.1287 H   0  0  0  0  0  0  0  0  0  0  0  0
  144.0630   76.3850  216.9170 O   0  0  0  0  0  0  0  0  0  0  0  0
  144.8680   76.0140  217.3650 H   0  0  0  0  0  0  0  0  0  0  0  0
  143.0000   76.8090  219.0410 C   0  0  0  0  0  0  0  0  0  0  0  0
  144.0330   77.0853  219.2992 H   0  0  0  0  0  0  0  0  0  0  0  0
  142.4237   77.7441  218.9819 H   0  0  0  0  0  0  0  0  0  0  0  0
  142.4250   75.8530  220.0870 C   0  0  1  0  0  0  0  0  0  0  0  0
  142.9360   75.9483  221.0564 H   0  0  0  0  0  0  0  0  0  0  0  0
  140.9590   76.1540  220.3540 C   0  0  0  0  0  0  0  0  0  0  0  0
  140.0180   75.5260  219.5920 N   0  0  0  0  0  0  0  0  0  0  0  0
  138.6860   75.7360  219.7480 C   0  0  0  0  0  0  0  0  0  0  0  0
  137.9677   75.1996  219.1106 H   0  0  0  0  0  0  0  0  0  0  0  0
  138.2270   76.6280  220.7120 C   0  0  0  0  0  0  0  0  0  0  0  0
  137.1475   76.7903  220.8473 H   0  0  0  0  0  0  0  0  0  0  0  0
  139.1480   77.3170  221.5080 C   0  0  0  0  0  0  0  0  0  0  0  0
  138.6990   78.2320  222.4720 C   0  0  0  0  0  0  0  0  0  0  0  0
  137.6203   78.3960  222.6113 H   0  0  0  0  0  0  0  0  0  0  0  0
  139.6160   78.9350  223.2550 C   0  0  0  0  0  0  0  0  0  0  0  0
  139.2582   79.6489  224.0115 H   0  0  0  0  0  0  0  0  0  0  0  0
  140.9860   78.7340  223.0800 C   0  0  0  0  0  0  0  0  0  0  0  0
  141.7045   79.2942  223.6964 H   0  0  0  0  0  0  0  0  0  0  0  0
  141.4490   77.8250  222.1260 C   0  0  0  0  0  0  0  0  0  0  0  0
  142.5309   77.6773  221.9929 H   0  0  0  0  0  0  0  0  0  0  0  0
  140.5390   77.0940  221.3310 C   0  0  0  0  0  0  0  0  0  0  0  0
  139.9470   71.9720  222.8710 C   0  0  0  0  0  0  0  0  0  0  0  0
  140.4220   72.2100  224.1270 N   0  0  0  0  0  0  0  0  0  0  0  0
  140.4780   71.2370  225.0750 C   0  0  0  0  0  0  0  0  0  0  0  0
  140.9730   71.5260  226.3510 C   0  0  0  0  0  0  0  0  0  0  0  0
  141.3186   72.5428  226.5890 H   0  0  0  0  0  0  0  0  0  0  0  0
  141.0290   70.5240  227.3240 C   0  0  0  0  0  0  0  0  0  0  0  0
  141.4191   70.7539  228.3265 H   0  0  0  0  0  0  0  0  0  0  0  0
  140.5900   69.2290  227.0260 C   0  0  0  0  0  0  0  0  0  0  0  0
  140.6470   68.2610  227.9730 F   0  0  0  0  0  0  0  0  0  0  0  0
  140.0940   68.9300  225.7520 C   0  0  0  0  0  0  0  0  0  0  0  0
  139.7507   67.9110  225.5201 H   0  0  0  0  0  0  0  0  0  0  0  0
  140.0350   69.9310  224.7710 C   0  0  0  0  0  0  0  0  0  0  0  0
  139.5420   69.6650  223.4890 C   0  0  0  0  0  0  0  0  0  0  0  0
  139.1905   68.6547  223.2325 H   0  0  0  0  0  0  0  0  0  0  0  0
  139.4970   70.6850  222.5350 C   0  0  0  0  0  0  0  0  0  0  0  0
  139.1108   70.4807  221.5255 H   0  0  0  0  0  0  0  0  0  0  0  0
  1  2  1  0
  2  3  1  0
  3  4  2  0
  4  5  1  0
  5  6  1  0
  5  7  1  0
  5  8  1  0
  8  9  2  0
  8 10  1  0
 10 11  1  0
 11 12  1  0
 11 13  1  0
 11 14  1  0
 14 15  1  6
 14 16  1  0
 16 17  1  0
 14 18  1  0
 18 19  1  0
 18 20  1  0
 18 21  1  0
 21 22  1  1
 21 23  1  0
 23 24  2  0
 24 25  1  0
 25 26  1  0
 25 27  2  0
 27 28  1  0
 27 29  1  0
 29 30  2  0
 30 31  1  0
 30 32  1  0
 32 33  1  0
 32 34  2  0
 34 35  1  0
 34 36  1  0
 36 37  1  0
 36 38  2  0
  3 39  1  0
 39 40  2  0
 40 41  1  0
 41 42  2  0
 42 43  1  0
 42 44  1  0
 44 45  1  0
 44 46  2  0
 46 47  1  0
 46 48  1  0
 48 49  1  0
 48 50  2  0
 50 51  1  0
 51 52  1  0
 51 53  2  0
 53 54  1  0
 21 10  1  0
 38 23  1  0
 53 39  1  0
 38 29  1  0
 50 41  1  0
M  END
>  <UniqueID>  (26) 
26

>  <SMILES>  (26) 
O=C(C/N=C(\O)c1ccc2cc(F)ccc2n1)N1C[C@H](O)C[C@H]1c1nccc2ccccc12

>  <Energy>  (26) 
67.92733207019938

>  <Genealogy>  (26) 
O=C(CN=C(O)c1ccc2cc(F)ccc2n1)N1C[C@H](O)C[C@H]1c1nccc2ccccc12 (tautomer)
O=C(C/N=C(\O)c1ccc2cc(F)ccc2n1)N1C[C@H](O)C[C@H]1c1nccc2ccccc12 (cis-trans isomerization)
O=C(C/N=C(\O)c1ccc2cc(F)ccc2n1)N1C[C@H](O)C[C@H]1c1nccc2ccccc12 (3D coordinates assigned)
O=C(C/N=C(\O)c1ccc2cc(F)ccc2n1)N1C[C@H](O)C[C@H]1c1nccc2ccccc12 (nonaromatic ring conformer: 67.92733207019938 kcal/mol)

>  <smiles>  (26) 
O=C(NCC(=O)N1C[C@H](O)C[C@H]1c1nccc2ccccc12)c1ccc2cc(F)ccc2n1

>  <score_type>  (26) 
oracle

>  <origin>  (26) 
autodockgpu

>  <m_score__min__energy>  (26) 
-9.0299999999999994

>  <m_primary>  (26) 
energy

>  <meeko>  (26) 
{"free_energy": -7.61, "intermolecular_energy": -10.0, "internal_energy": -2.1, "cluster_size": 6, "cluster_id": 2, "rank_in_cluster": 6}

>  <energy>  (26) 
-8.89

>  <cluster_rmsd>  (26) 
1.34

>  <rmsd>  (26) 
269.89

>  <cluster>  (26) 
2

$$$$
PTHZUPGKXGNJLI-VUCLPHKJNA-N
     RDKit          3D

 54 58  0  0  0  0  0  0  0  0999 V2000
  140.9290   74.9310  221.9070 H   0  0  0  0  0  0  0  0  0  0  0  0
  140.2800   74.2330  222.2430 O   0  0  0  0  0  0  0  0  0  0  0  0
  140.4290   72.8640  222.0040 C   0  0  0  0  0  0  0  0  0  0  0  0
  140.7140   72.4010  220.8200 N   0  0  0  0  0  0  0  0  0  0  0  0
  141.2040   73.1750  219.6820 C   0  0  0  0  0  0  0  0  0  0  0  0
  140.3465   73.5897  219.1317 H   0  0  0  0  0  0  0  0  0  0  0  0
  141.7918   72.5114  219.0308 H   0  0  0  0  0  0  0  0  0  0  0  0
  142.0860   74.3030  220.1440 C   0  0  0  0  0  0  0  0  0  0  0  0
  142.8200   74.1270  221.1530 O   0  0  0  0  0  0  0  0  0  0  0  0
  142.0980   75.5740  219.4660 N   0  0  0  0  0  0  0  0  0  0  0  0
  141.9180   75.7380  218.0310 C   0  0  0  0  0  0  0  0  0  0  0  0
  142.7442   75.2614  217.4831 H   0  0  0  0  0  0  0  0  0  0  0  0
  140.9873   75.2680  217.6804 H   0  0  0  0  0  0  0  0  0  0  0  0
  141.9170   77.2460  217.7890 C   0  0  2  0  0  0  0  0  0  0  0  0
  140.8958   77.6273  217.6414 H   0  0  0  0  0  0  0  0  0  0  0  0
  142.6260   77.5810  216.6260 O   0  0  0  0  0  0  0  0  0  0  0  0
  143.1680   78.3830  216.8500 H   0  0  0  0  0  0  0  0  0  0  0  0
  142.5860   77.8510  219.0220 C   0  0  0  0  0  0  0  0  0  0  0  0
  143.6617   77.9960  218.8437 H   0  0  0  0  0  0  0  0  0  0  0  0
  142.1671   78.8371  219.2714 H   0  0  0  0  0  0  0  0  0  0  0  0
  142.3620   76.8380  220.1460 C   0  0  1  0  0  0  0  0  0  0  0  0
  143.2300   76.7710  220.8184 H   0  0  0  0  0  0  0  0  0  0  0  0
  141.1850   77.2430  221.0200 C   0  0  0  0  0  0  0  0  0  0  0  0
  140.0040   76.5800  220.8670 N   0  0  0  0  0  0  0  0  0  0  0  0
  138.8960   76.8750  221.5920 C   0  0  0  0  0  0  0  0  0  0  0  0
  137.9684   76.3057  221.4325 H   0  0  0  0  0  0  0  0  0  0  0  0
  138.9300   77.8960  222.5370 C   0  0  0  0  0  0  0  0  0  0  0  0
  138.0358   78.1288  223.1339 H   0  0  0  0  0  0  0  0  0  0  0  0
  140.1100   78.6240  222.7220 C   0  0  0  0  0  0  0  0  0  0  0  0
  140.1520   79.6680  223.6590 C   0  0  0  0  0  0  0  0  0  0  0  0
  139.2600   79.9031  224.2582 H   0  0  0  0  0  0  0  0  0  0  0  0
  141.3220   80.4090  223.8330 C   0  0  0  0  0  0  0  0  0  0  0  0
  141.3513   81.2231  224.5721 H   0  0  0  0  0  0  0  0  0  0  0  0
  142.4550   80.1190  223.0710 C   0  0  0  0  0  0  0  0  0  0  0  0
  143.3727   80.7097  223.2081 H   0  0  0  0  0  0  0  0  0  0  0  0
  142.4290   79.0820  222.1350 C   0  0  0  0  0  0  0  0  0  0  0  0
  143.3258   78.8640  221.5364 H   0  0  0  0  0  0  0  0  0  0  0  0
  141.2600   78.3120  221.9520 C   0  0  0  0  0  0  0  0  0  0  0  0
  140.2620   71.9130  223.1210 C   0  0  0  0  0  0  0  0  0  0  0  0
  140.7040   72.2540  224.3650 N   0  0  0  0  0  0  0  0  0  0  0  0
  140.5700   71.4230  225.4320 C   0  0  0  0  0  0  0  0  0  0  0  0
  141.0360   71.8140  226.6920 C   0  0  0  0  0  0  0  0  0  0  0  0
  141.5127   72.7969  226.8212 H   0  0  0  0  0  0  0  0  0  0  0  0
  140.8960   70.9560  227.7870 C   0  0  0  0  0  0  0  0  0  0  0  0
  141.2637   71.2657  228.7764 H   0  0  0  0  0  0  0  0  0  0  0  0
  140.2900   69.7050  227.6290 C   0  0  0  0  0  0  0  0  0  0  0  0
  140.1570   68.8790  228.6950 F   0  0  0  0  0  0  0  0  0  0  0  0
  139.8200   69.3050  226.3730 C   0  0  0  0  0  0  0  0  0  0  0  0
  139.3438   68.3210  226.2510 H   0  0  0  0  0  0  0  0  0  0  0  0
  139.9570   70.1610  225.2690 C   0  0  0  0  0  0  0  0  0  0  0  0
  139.4960   69.7910  224.0010 C   0  0  0  0  0  0  0  0  0  0  0  0
  139.0157   68.8125  223.8530 H   0  0  0  0  0  0  0  0  0  0  0  0
  139.6470   70.6670  222.9230 C   0  0  0  0  0  0  0  0  0  0  0  0
  139.2857   70.3815  221.9240 H   0  0  0  0  0  0  0  0  0  0  0  0
  1  2  1  0
  2  3  1  0
  3  4  2  0
  4  5  1  0
  5  6  1  0
  5  7  1  0
  5  8  1  0
  8  9  2  0
  8 10  1  0
 10 11  1  0
 11 12  1  0
 11 13  1  0
 11 14  1  0
 14 15  1  6
 14 16  1  0
 16 17  1  0
 14 18  1  0
 18 19  1  0
 18 20  1  0
 18 21  1  0
 21 22  1  1
 21 23  1  0
 23 24  2  0
 24 25  1  0
 25 26  1  0
 25 27  2  0
 27 28  1  0
 27 29  1  0
 29 30  2  0
 30 31  1  0
 30 32  1  0
 32 33  1  0
 32 34  2  0
 34 35  1  0
 34 36  1  0
 36 37  1  0
 36 38  2  0
  3 39  1  0
 39 40  2  0
 40 41  1  0
 41 42  2  0
 42 43  1  0
 42 44  1  0
 44 45  1  0
 44 46  2  0
 46 47  1  0
 46 48  1  0
 48 49  1  0
 48 50  2  0
 50 51  1  0
 51 52  1  0
 51 53  2  0
 53 54  1  0
 21 10  1  0
 38 23  1  0
 53 39  1  0
 38 29  1  0
 50 41  1  0
M  END
>  <UniqueID>  (27) 
26

>  <SMILES>  (27) 
O=C(C/N=C(\O)c1ccc2cc(F)ccc2n1)N1C[C@H](O)C[C@H]1c1nccc2ccccc12

>  <Energy>  (27) 
67.92733207019938

>  <Genealogy>  (27) 
O=C(CN=C(O)c1ccc2cc(F)ccc2n1)N1C[C@H](O)C[C@H]1c1nccc2ccccc12 (tautomer)
O=C(C/N=C(\O)c1ccc2cc(F)ccc2n1)N1C[C@H](O)C[C@H]1c1nccc2ccccc12 (cis-trans isomerization)
O=C(C/N=C(\O)c1ccc2cc(F)ccc2n1)N1C[C@H](O)C[C@H]1c1nccc2ccccc12 (3D coordinates assigned)
O=C(C/N=C(\O)c1ccc2cc(F)ccc2n1)N1C[C@H](O)C[C@H]1c1nccc2ccccc12 (nonaromatic ring conformer: 67.92733207019938 kcal/mol)

>  <smiles>  (27) 
O=C(NCC(=O)N1C[C@H](O)C[C@H]1c1nccc2ccccc12)c1ccc2cc(F)ccc2n1

>  <score_type>  (27) 
oracle

>  <origin>  (27) 
autodockgpu

>  <m_score__min__energy>  (27) 
-9.0299999999999994

>  <m_primary>  (27) 
energy

>  <meeko>  (27) 
{"free_energy": -8.15, "intermolecular_energy": -10.53, "internal_energy": -2.53, "cluster_size": 6, "cluster_id": 2, "rank_in_cluster": 4}

>  <energy>  (27) 
-8.15

>  <cluster_rmsd>  (27) 
1.44

>  <rmsd>  (27) 
269.87

>  <cluster>  (27) 
2

$$$$
PTHZUPGKXGNJLI-VUCLPHKJNA-N
     RDKit          3D

 54 58  0  0  0  0  0  0  0  0999 V2000
  138.3560   74.3880  219.9170 H   0  0  0  0  0  0  0  0  0  0  0  0
  138.1890   74.7530  220.8450 O   0  0  0  0  0  0  0  0  0  0  0  0
  139.2120   75.0650  221.7450 C   0  0  0  0  0  0  0  0  0  0  0  0
  139.9600   74.1410  222.2810 N   0  0  0  0  0  0  0  0  0  0  0  0
  140.6790   73.0880  221.5680 C   0  0  0  0  0  0  0  0  0  0  0  0
  139.9690   72.2997  221.2774 H   0  0  0  0  0  0  0  0  0  0  0  0
  141.4547   72.6790  222.2320 H   0  0  0  0  0  0  0  0  0  0  0  0
  141.3410   73.6350  220.3330 C   0  0  0  0  0  0  0  0  0  0  0  0
  140.6230   73.9540  219.3480 O   0  0  0  0  0  0  0  0  0  0  0  0
  142.7720   73.7900  220.2530 N   0  0  0  0  0  0  0  0  0  0  0  0
  143.7150   72.6820  220.2330 C   0  0  0  0  0  0  0  0  0  0  0  0
  143.6718   72.1234  221.1796 H   0  0  0  0  0  0  0  0  0  0  0  0
  143.4877   71.9673  219.4283 H   0  0  0  0  0  0  0  0  0  0  0  0
  145.0910   73.3200  220.0520 C   0  0  2  0  0  0  0  0  0  0  0  0
  145.4430   73.2253  219.0142 H   0  0  0  0  0  0  0  0  0  0  0  0
  146.0590   72.6890  220.8490 O   0  0  0  0  0  0  0  0  0  0  0  0
  145.5750   72.0190  221.3990 H   0  0  0  0  0  0  0  0  0  0  0  0
  144.9160   74.7790  220.4710 C   0  0  0  0  0  0  0  0  0  0  0  0
  145.1837   74.9101  221.5298 H   0  0  0  0  0  0  0  0  0  0  0  0
  145.5655   75.4517  219.8917 H   0  0  0  0  0  0  0  0  0  0  0  0
  143.4340   75.0900  220.2510 C   0  0  1  0  0  0  0  0  0  0  0  0
  143.0337   75.7568  221.0289 H   0  0  0  0  0  0  0  0  0  0  0  0
  143.2180   75.8100  218.9300 C   0  0  0  0  0  0  0  0  0  0  0  0
  143.6410   75.2050  217.7840 N   0  0  0  0  0  0  0  0  0  0  0  0
  143.5010   75.7710  216.5590 C   0  0  0  0  0  0  0  0  0  0  0  0
  143.8541   75.2370  215.6645 H   0  0  0  0  0  0  0  0  0  0  0  0
  142.9120   77.0250  216.4310 C   0  0  0  0  0  0  0  0  0  0  0  0
  142.7885   77.4806  215.4374 H   0  0  0  0  0  0  0  0  0  0  0  0
  142.4780   77.7020  217.5760 C   0  0  0  0  0  0  0  0  0  0  0  0
  141.8970   78.9750  217.4620 C   0  0  0  0  0  0  0  0  0  0  0  0
  141.7695   79.4327  216.4699 H   0  0  0  0  0  0  0  0  0  0  0  0
  141.4810   79.6610  218.6030 C   0  0  0  0  0  0  0  0  0  0  0  0
  141.0231   80.6566  218.5078 H   0  0  0  0  0  0  0  0  0  0  0  0
  141.6440   79.0880  219.8650 C   0  0  0  0  0  0  0  0  0  0  0  0
  141.3190   79.6364  220.7614 H   0  0  0  0  0  0  0  0  0  0  0  0
  142.2180   77.8210  219.9950 C   0  0  0  0  0  0  0  0  0  0  0  0
  142.3453   77.3793  220.9943 H   0  0  0  0  0  0  0  0  0  0  0  0
  142.6360   77.1030  218.8530 C   0  0  0  0  0  0  0  0  0  0  0  0
  139.4560   76.4760  222.1010 C   0  0  0  0  0  0  0  0  0  0  0  0
  140.6650   76.8400  222.6160 N   0  0  0  0  0  0  0  0  0  0  0  0
  140.9490   78.1260  222.9540 C   0  0  0  0  0  0  0  0  0  0  0  0
  142.2040   78.4550  223.4780 C   0  0  0  0  0  0  0  0  0  0  0  0
  142.9642   77.6722  223.6169 H   0  0  0  0  0  0  0  0  0  0  0  0
  142.4920   79.7780  223.8250 C   0  0  0  0  0  0  0  0  0  0  0  0
  143.4789   80.0340  224.2378 H   0  0  0  0  0  0  0  0  0  0  0  0
  141.5290   80.7780  223.6490 C   0  0  0  0  0  0  0  0  0  0  0  0
  141.8150   82.0580  223.9870 F   0  0  0  0  0  0  0  0  0  0  0  0
  140.2720   80.4580  223.1260 C   0  0  0  0  0  0  0  0  0  0  0  0
  139.5162   81.2455  222.9898 H   0  0  0  0  0  0  0  0  0  0  0  0
  139.9750   79.1320  222.7750 C   0  0  0  0  0  0  0  0  0  0  0  0
  138.7270   78.7810  222.2480 C   0  0  0  0  0  0  0  0  0  0  0  0
  137.9547   79.5503  222.1009 H   0  0  0  0  0  0  0  0  0  0  0  0
  138.4640   77.4510  221.9090 C   0  0  0  0  0  0  0  0  0  0  0  0
  137.4850   77.1694  221.4939 H   0  0  0  0  0  0  0  0  0  0  0  0
  1  2  1  0
  2  3  1  0
  3  4  2  0
  4  5  1  0
  5  6  1  0
  5  7  1  0
  5  8  1  0
  8  9  2  0
  8 10  1  0
 10 11  1  0
 11 12  1  0
 11 13  1  0
 11 14  1  0
 14 15  1  6
 14 16  1  0
 16 17  1  0
 14 18  1  0
 18 19  1  0
 18 20  1  0
 18 21  1  0
 21 22  1  1
 21 23  1  0
 23 24  2  0
 24 25  1  0
 25 26  1  0
 25 27  2  0
 27 28  1  0
 27 29  1  0
 29 30  2  0
 30 31  1  0
 30 32  1  0
 32 33  1  0
 32 34  2  0
 34 35  1  0
 34 36  1  0
 36 37  1  0
 36 38  2  0
  3 39  1  0
 39 40  2  0
 40 41  1  0
 41 42  2  0
 42 43  1  0
 42 44  1  0
 44 45  1  0
 44 46  2  0
 46 47  1  0
 46 48  1  0
 48 49  1  0
 48 50  2  0
 50 51  1  0
 51 52  1  0
 51 53  2  0
 53 54  1  0
 21 10  1  0
 38 23  1  0
 53 39  1  0
 38 29  1  0
 50 41  1  0
M  END
>  <UniqueID>  (28) 
26

>  <SMILES>  (28) 
O=C(C/N=C(\O)c1ccc2cc(F)ccc2n1)N1C[C@H](O)C[C@H]1c1nccc2ccccc12

>  <Energy>  (28) 
67.92733207019938

>  <Genealogy>  (28) 
O=C(CN=C(O)c1ccc2cc(F)ccc2n1)N1C[C@H](O)C[C@H]1c1nccc2ccccc12 (tautomer)
O=C(C/N=C(\O)c1ccc2cc(F)ccc2n1)N1C[C@H](O)C[C@H]1c1nccc2ccccc12 (cis-trans isomerization)
O=C(C/N=C(\O)c1ccc2cc(F)ccc2n1)N1C[C@H](O)C[C@H]1c1nccc2ccccc12 (3D coordinates assigned)
O=C(C/N=C(\O)c1ccc2cc(F)ccc2n1)N1C[C@H](O)C[C@H]1c1nccc2ccccc12 (nonaromatic ring conformer: 67.92733207019938 kcal/mol)

>  <smiles>  (28) 
O=C(NCC(=O)N1C[C@H](O)C[C@H]1c1nccc2ccccc12)c1ccc2cc(F)ccc2n1

>  <score_type>  (28) 
oracle

>  <origin>  (28) 
autodockgpu

>  <m_score__min__energy>  (28) 
-9.0299999999999994

>  <m_primary>  (28) 
energy

>  <meeko>  (28) 
{"free_energy": -7.08, "intermolecular_energy": -9.47, "internal_energy": -2.97, "cluster_size": 9, "cluster_id": 4, "rank_in_cluster": 5}

>  <energy>  (28) 
-7.9

>  <cluster_rmsd>  (28) 
1.61

>  <rmsd>  (28) 
269.67

>  <cluster>  (28) 
2

$$$$
PTHZUPGKXGNJLI-VUCLPHKJNA-N
     RDKit          3D

 54 58  0  0  0  0  0  0  0  0999 V2000
  139.2920   73.1390  223.3720 H   0  0  0  0  0  0  0  0  0  0  0  0
  139.9410   73.5000  222.6870 O   0  0  0  0  0  0  0  0  0  0  0  0
  139.5460   74.2270  221.5600 C   0  0  0  0  0  0  0  0  0  0  0  0
  138.7340   73.7280  220.6720 N   0  0  0  0  0  0  0  0  0  0  0  0
  137.5240   72.9560  220.9420 C   0  0  0  0  0  0  0  0  0  0  0  0
  137.2582   72.3769  220.0454 H   0  0  0  0  0  0  0  0  0  0  0  0
  136.7130   73.6518  221.2030 H   0  0  0  0  0  0  0  0  0  0  0  0
  137.7380   72.0120  222.0930 C   0  0  0  0  0  0  0  0  0  0  0  0
  137.2740   72.3170  223.2240 O   0  0  0  0  0  0  0  0  0  0  0  0
  138.4680   70.7800  221.9300 N   0  0  0  0  0  0  0  0  0  0  0  0
  139.1590   70.3930  220.7090 C   0  0  0  0  0  0  0  0  0  0  0  0
  138.4404   70.2584  219.8871 H   0  0  0  0  0  0  0  0  0  0  0  0
  139.8764   71.1617  220.3859 H   0  0  0  0  0  0  0  0  0  0  0  0
  139.8530   69.0720  221.0320 C   0  0  2  0  0  0  0  0  0  0  0  0
  140.9274   69.2187  221.2167 H   0  0  0  0  0  0  0  0  0  0  0  0
  139.7650   68.1690  219.9620 O   0  0  0  0  0  0  0  0  0  0  0  0
  140.1440   67.3110  220.2880 H   0  0  0  0  0  0  0  0  0  0  0  0
  139.1250   68.5260  222.2600 C   0  0  0  0  0  0  0  0  0  0  0  0
  138.3258   67.8335  221.9570 H   0  0  0  0  0  0  0  0  0  0  0  0
  139.8022   67.9641  222.9200 H   0  0  0  0  0  0  0  0  0  0  0  0
  138.5340   69.7510  222.9620 C   0  0  1  0  0  0  0  0  0  0  0  0
  137.5459   69.5403  223.3970 H   0  0  0  0  0  0  0  0  0  0  0  0
  139.4160   70.1940  224.1180 C   0  0  0  0  0  0  0  0  0  0  0  0
  140.0620   71.3910  224.0210 N   0  0  0  0  0  0  0  0  0  0  0  0
  140.8770   71.8670  224.9960 C   0  0  0  0  0  0  0  0  0  0  0  0
  141.3708   72.8419  224.8703 H   0  0  0  0  0  0  0  0  0  0  0  0
  141.0900   71.1260  226.1540 C   0  0  0  0  0  0  0  0  0  0  0  0
  141.7418   71.5162  226.9496 H   0  0  0  0  0  0  0  0  0  0  0  0
  140.4690   69.8810  226.2990 C   0  0  0  0  0  0  0  0  0  0  0  0
  140.6890   69.1160  227.4550 C   0  0  0  0  0  0  0  0  0  0  0  0
  141.3380   69.5039  228.2539 H   0  0  0  0  0  0  0  0  0  0  0  0
  140.0870   67.8650  227.5940 C   0  0  0  0  0  0  0  0  0  0  0  0
  140.2599   67.2711  228.5036 H   0  0  0  0  0  0  0  0  0  0  0  0
  139.2660   67.3650  226.5820 C   0  0  0  0  0  0  0  0  0  0  0  0
  138.7989   66.3754  226.6944 H   0  0  0  0  0  0  0  0  0  0  0  0
  139.0350   68.1160  225.4270 C   0  0  0  0  0  0  0  0  0  0  0  0
  138.3885   67.7125  224.6338 H   0  0  0  0  0  0  0  0  0  0  0  0
  139.6250   69.3890  225.2700 C   0  0  0  0  0  0  0  0  0  0  0  0
  140.0590   75.5970  221.3680 C   0  0  0  0  0  0  0  0  0  0  0  0
  140.5180   76.3000  222.4430 N   0  0  0  0  0  0  0  0  0  0  0  0
  141.0090   77.5620  222.3250 C   0  0  0  0  0  0  0  0  0  0  0  0
  141.4710   78.2460  223.4550 C   0  0  0  0  0  0  0  0  0  0  0  0
  141.4369   77.7623  224.4423 H   0  0  0  0  0  0  0  0  0  0  0  0
  141.9760   79.5440  223.3300 C   0  0  0  0  0  0  0  0  0  0  0  0
  142.3389   80.0793  224.2198 H   0  0  0  0  0  0  0  0  0  0  0  0
  142.0210   80.1640  222.0760 C   0  0  0  0  0  0  0  0  0  0  0  0
  142.5110   81.4220  221.9620 F   0  0  0  0  0  0  0  0  0  0  0  0
  141.5620   79.4880  220.9410 C   0  0  0  0  0  0  0  0  0  0  0  0
  141.5991   79.9776  219.9566 H   0  0  0  0  0  0  0  0  0  0  0  0
  141.0540   78.1850  221.0580 C   0  0  0  0  0  0  0  0  0  0  0  0
  140.5880   77.4820  219.9420 C   0  0  0  0  0  0  0  0  0  0  0  0
  140.6144   77.9489  218.9464 H   0  0  0  0  0  0  0  0  0  0  0  0
  140.0890   76.1860  220.0940 C   0  0  0  0  0  0  0  0  0  0  0  0
  139.7212   75.6295  219.2193 H   0  0  0  0  0  0  0  0  0  0  0  0
  1  2  1  0
  2  3  1  0
  3  4  2  0
  4  5  1  0
  5  6  1  0
  5  7  1  0
  5  8  1  0
  8  9  2  0
  8 10  1  0
 10 11  1  0
 11 12  1  0
 11 13  1  0
 11 14  1  0
 14 15  1  1
 14 16  1  0
 16 17  1  0
 14 18  1  0
 18 19  1  0
 18 20  1  0
 18 21  1  0
 21 22  1  1
 21 23  1  0
 23 24  2  0
 24 25  1  0
 25 26  1  0
 25 27  2  0
 27 28  1  0
 27 29  1  0
 29 30  2  0
 30 31  1  0
 30 32  1  0
 32 33  1  0
 32 34  2  0
 34 35  1  0
 34 36  1  0
 36 37  1  0
 36 38  2  0
  3 39  1  0
 39 40  2  0
 40 41  1  0
 41 42  2  0
 42 43  1  0
 42 44  1  0
 44 45  1  0
 44 46  2  0
 46 47  1  0
 46 48  1  0
 48 49  1  0
 48 50  2  0
 50 51  1  0
 51 52  1  0
 51 53  2  0
 53 54  1  0
 21 10  1  0
 38 23  1  0
 53 39  1  0
 38 29  1  0
 50 41  1  0
M  END
>  <UniqueID>  (29) 
26

>  <SMILES>  (29) 
O=C(C/N=C(\O)c1ccc2cc(F)ccc2n1)N1C[C@H](O)C[C@H]1c1nccc2ccccc12

>  <Energy>  (29) 
67.92733207019938

>  <Genealogy>  (29) 
O=C(CN=C(O)c1ccc2cc(F)ccc2n1)N1C[C@H](O)C[C@H]1c1nccc2ccccc12 (tautomer)
O=C(C/N=C(\O)c1ccc2cc(F)ccc2n1)N1C[C@H](O)C[C@H]1c1nccc2ccccc12 (cis-trans isomerization)
O=C(C/N=C(\O)c1ccc2cc(F)ccc2n1)N1C[C@H](O)C[C@H]1c1nccc2ccccc12 (3D coordinates assigned)
O=C(C/N=C(\O)c1ccc2cc(F)ccc2n1)N1C[C@H](O)C[C@H]1c1nccc2ccccc12 (nonaromatic ring conformer: 67.92733207019938 kcal/mol)

>  <smiles>  (29) 
O=C(NCC(=O)N1C[C@H](O)C[C@H]1c1nccc2ccccc12)c1ccc2cc(F)ccc2n1

>  <score_type>  (29) 
oracle

>  <origin>  (29) 
autodockgpu

>  <m_score__min__energy>  (29) 
-9.0299999999999994

>  <m_primary>  (29) 
energy

>  <meeko>  (29) 
{"free_energy": -7.71, "intermolecular_energy": -10.09, "internal_energy": -2.43, "cluster_size": 1, "cluster_id": 3, "rank_in_cluster": 1}

>  <energy>  (29) 
-7.61

>  <cluster_rmsd>  (29) 
1.84

>  <rmsd>  (29) 
269.32

>  <cluster>  (29) 
2

$$$$
PTHZUPGKXGNJLI-VUCLPHKJNA-N
     RDKit          3D

 54 58  0  0  0  0  0  0  0  0999 V2000
  137.6740   73.5410  223.0900 H   0  0  0  0  0  0  0  0  0  0  0  0
  137.7390   72.6110  222.7010 O   0  0  0  0  0  0  0  0  0  0  0  0
  138.9310   71.8840  222.6350 C   0  0  0  0  0  0  0  0  0  0  0  0
  139.7470   71.9940  221.6250 N   0  0  0  0  0  0  0  0  0  0  0  0
  140.8220   72.9720  221.4830 C   0  0  0  0  0  0  0  0  0  0  0  0
  141.3081   72.8343  220.5059 H   0  0  0  0  0  0  0  0  0  0  0  0
  141.5470   72.8197  222.2962 H   0  0  0  0  0  0  0  0  0  0  0  0
  140.2840   74.3740  221.5730 C   0  0  0  0  0  0  0  0  0  0  0  0
  139.4100   74.6350  222.4420 O   0  0  0  0  0  0  0  0  0  0  0  0
  140.7390   75.4120  220.6830 N   0  0  0  0  0  0  0  0  0  0  0  0
  140.5540   75.3930  219.2400 C   0  0  0  0  0  0  0  0  0  0  0  0
  141.1050   74.5524  218.7931 H   0  0  0  0  0  0  0  0  0  0  0  0
  139.4963   75.2653  218.9664 H   0  0  0  0  0  0  0  0  0  0  0  0
  141.1120   76.7240  218.7380 C   0  0  2  0  0  0  0  0  0  0  0  0
  140.3058   77.4381  218.5142 H   0  0  0  0  0  0  0  0  0  0  0  0
  141.8280   76.5630  217.5430 O   0  0  0  0  0  0  0  0  0  0  0  0
  142.1000   77.4740  217.2550 H   0  0  0  0  0  0  0  0  0  0  0  0
  142.0290   77.2210  219.8540 C   0  0  0  0  0  0  0  0  0  0  0  0
  143.0675   76.9115  219.6649 H   0  0  0  0  0  0  0  0  0  0  0  0
  142.0297   78.3188  219.9235 H   0  0  0  0  0  0  0  0  0  0  0  0
  141.5020   76.5710  221.1350 C   0  0  1  0  0  0  0  0  0  0  0  0
  142.3166   76.2871  221.8175 H   0  0  0  0  0  0  0  0  0  0  0  0
  140.6190   77.5350  221.9120 C   0  0  0  0  0  0  0  0  0  0  0  0
  139.2830   77.2730  221.9910 N   0  0  0  0  0  0  0  0  0  0  0  0
  138.4140   78.0770  222.6530 C   0  0  0  0  0  0  0  0  0  0  0  0
  137.3461   77.8162  222.6920 H   0  0  0  0  0  0  0  0  0  0  0  0
  138.8700   79.2310  223.2830 C   0  0  0  0  0  0  0  0  0  0  0  0
  138.1682   79.8780  223.8297 H   0  0  0  0  0  0  0  0  0  0  0  0
  140.2270   79.5620  223.2160 C   0  0  0  0  0  0  0  0  0  0  0  0
  140.6970   80.7320  223.8320 C   0  0  0  0  0  0  0  0  0  0  0  0
  139.9984   81.3813  224.3800 H   0  0  0  0  0  0  0  0  0  0  0  0
  142.0480   81.0750  223.7520 C   0  0  0  0  0  0  0  0  0  0  0  0
  142.4117   81.9909  224.2408 H   0  0  0  0  0  0  0  0  0  0  0  0
  142.9380   80.2580  223.0530 C   0  0  0  0  0  0  0  0  0  0  0  0
  144.0003   80.5359  222.9876 H   0  0  0  0  0  0  0  0  0  0  0  0
  142.4860   79.0890  222.4360 C   0  0  0  0  0  0  0  0  0  0  0  0
  143.1948   78.4540  221.8843 H   0  0  0  0  0  0  0  0  0  0  0  0
  141.1260   78.7160  222.5150 C   0  0  0  0  0  0  0  0  0  0  0  0
  139.2800   70.9680  223.7380 C   0  0  0  0  0  0  0  0  0  0  0  0
  139.8370   71.4690  224.8770 N   0  0  0  0  0  0  0  0  0  0  0  0
  140.1710   70.6740  225.9290 C   0  0  0  0  0  0  0  0  0  0  0  0
  140.7390   71.2310  227.0790 C   0  0  0  0  0  0  0  0  0  0  0  0
  140.9161   72.3152  227.1350 H   0  0  0  0  0  0  0  0  0  0  0  0
  141.0820   70.4100  228.1580 C   0  0  0  0  0  0  0  0  0  0  0  0
  141.5303   70.8503  229.0609 H   0  0  0  0  0  0  0  0  0  0  0  0
  140.8570   69.0310  228.0930 C   0  0  0  0  0  0  0  0  0  0  0  0
  141.1920   68.2410  229.1420 F   0  0  0  0  0  0  0  0  0  0  0  0
  140.2900   68.4650  226.9460 C   0  0  0  0  0  0  0  0  0  0  0  0
  140.1162   67.3799  226.8962 H   0  0  0  0  0  0  0  0  0  0  0  0
  139.9430   69.2820  225.8590 C   0  0  0  0  0  0  0  0  0  0  0  0
  139.3720   68.7460  224.6990 C   0  0  0  0  0  0  0  0  0  0  0  0
  139.1858   67.6644  224.6252 H   0  0  0  0  0  0  0  0  0  0  0  0
  139.0390   69.5880  223.6350 C   0  0  0  0  0  0  0  0  0  0  0  0
  138.5902   69.1722  222.7208 H   0  0  0  0  0  0  0  0  0  0  0  0
  1  2  1  0
  2  3  1  0
  3  4  2  0
  4  5  1  0
  5  6  1  0
  5  7  1  0
  5  8  1  0
  8  9  2  0
  8 10  1  0
 10 11  1  0
 11 12  1  0
 11 13  1  0
 11 14  1  0
 14 15  1  6
 14 16  1  0
 16 17  1  0
 14 18  1  0
 18 19  1  0
 18 20  1  0
 18 21  1  0
 21 22  1  1
 21 23  1  0
 23 24  2  0
 24 25  1  0
 25 26  1  0
 25 27  2  0
 27 28  1  0
 27 29  1  0
 29 30  2  0
 30 31  1  0
 30 32  1  0
 32 33  1  0
 32 34  2  0
 34 35  1  0
 34 36  1  0
 36 37  1  0
 36 38  2  0
  3 39  1  0
 39 40  2  0
 40 41  1  0
 41 42  2  0
 42 43  1  0
 42 44  1  0
 44 45  1  0
 44 46  2  0
 46 47  1  0
 46 48  1  0
 48 49  1  0
 48 50  2  0
 50 51  1  0
 51 52  1  0
 51 53  2  0
 53 54  1  0
 21 10  1  0
 38 23  1  0
 53 39  1  0
 38 29  1  0
 50 41  1  0
M  END
>  <UniqueID>  (30) 
26

>  <SMILES>  (30) 
O=C(C/N=C(\O)c1ccc2cc(F)ccc2n1)N1C[C@H](O)C[C@H]1c1nccc2ccccc12

>  <Energy>  (30) 
67.92733207019938

>  <Genealogy>  (30) 
O=C(CN=C(O)c1ccc2cc(F)ccc2n1)N1C[C@H](O)C[C@H]1c1nccc2ccccc12 (tautomer)
O=C(C/N=C(\O)c1ccc2cc(F)ccc2n1)N1C[C@H](O)C[C@H]1c1nccc2ccccc12 (cis-trans isomerization)
O=C(C/N=C(\O)c1ccc2cc(F)ccc2n1)N1C[C@H](O)C[C@H]1c1nccc2ccccc12 (3D coordinates assigned)
O=C(C/N=C(\O)c1ccc2cc(F)ccc2n1)N1C[C@H](O)C[C@H]1c1nccc2ccccc12 (nonaromatic ring conformer: 67.92733207019938 kcal/mol)

>  <smiles>  (30) 
O=C(NCC(=O)N1C[C@H](O)C[C@H]1c1nccc2ccccc12)c1ccc2cc(F)ccc2n1

>  <score_type>  (30) 
oracle

>  <origin>  (30) 
autodockgpu

>  <m_score__min__energy>  (30) 
-9.0299999999999994

>  <m_primary>  (30) 
energy

>  <meeko>  (30) 
{"free_energy": -8.96, "intermolecular_energy": -11.35, "internal_energy": -1.73, "cluster_size": 6, "cluster_id": 2, "rank_in_cluster": 1}

>  <energy>  (30) 
-7.71

>  <cluster_rmsd>  (30) 
0.0

>  <rmsd>  (30) 
269.27

>  <cluster>  (30) 
3

$$$$
PTHZUPGKXGNJLI-VUCLPHKJNA-N
     RDKit          3D

 54 58  0  0  0  0  0  0  0  0999 V2000
  139.3760   75.0850  219.4460 H   0  0  0  0  0  0  0  0  0  0  0  0
  138.9300   75.4380  220.2820 O   0  0  0  0  0  0  0  0  0  0  0  0
  139.5710   75.5180  221.5210 C   0  0  0  0  0  0  0  0  0  0  0  0
  139.9550   74.4520  222.1650 N   0  0  0  0  0  0  0  0  0  0  0  0
  140.7110   73.3310  221.6110 C   0  0  0  0  0  0  0  0  0  0  0  0
  140.0178   72.5105  221.3739 H   0  0  0  0  0  0  0  0  0  0  0  0
  141.4519   73.0030  222.3550 H   0  0  0  0  0  0  0  0  0  0  0  0
  141.4350   73.7430  220.3580 C   0  0  0  0  0  0  0  0  0  0  0  0
  140.7630   74.0120  219.3270 O   0  0  0  0  0  0  0  0  0  0  0  0
  142.8730   73.8240  220.3140 N   0  0  0  0  0  0  0  0  0  0  0  0
  143.7630   72.6840  220.4730 C   0  0  0  0  0  0  0  0  0  0  0  0
  143.6624   72.2556  221.4812 H   0  0  0  0  0  0  0  0  0  0  0  0
  143.5289   71.8811  219.7585 H   0  0  0  0  0  0  0  0  0  0  0  0
  145.1730   73.2340  220.2650 C   0  0  2  0  0  0  0  0  0  0  0  0
  145.5546   72.9897  219.2626 H   0  0  0  0  0  0  0  0  0  0  0  0
  146.0830   72.6720  221.1720 O   0  0  0  0  0  0  0  0  0  0  0  0
  145.5870   71.9680  221.6670 H   0  0  0  0  0  0  0  0  0  0  0  0
  145.0530   74.7410  220.4840 C   0  0  0  0  0  0  0  0  0  0  0  0
  145.2927   74.9984  221.5262 H   0  0  0  0  0  0  0  0  0  0  0  0
  145.7514   75.3032  219.8467 H   0  0  0  0  0  0  0  0  0  0  0  0
  143.5960   75.0840  220.1700 C   0  0  1  0  0  0  0  0  0  0  0  0
  143.2031   75.8631  220.8398 H   0  0  0  0  0  0  0  0  0  0  0  0
  143.4570   75.6340  218.7590 C   0  0  0  0  0  0  0  0  0  0  0  0
  143.9560   74.9000  217.7240 N   0  0  0  0  0  0  0  0  0  0  0  0
  143.8890   75.3100  216.4320 C   0  0  0  0  0  0  0  0  0  0  0  0
  144.3025   74.6770  215.6330 H   0  0  0  0  0  0  0  0  0  0  0  0
  143.2980   76.5300  216.1160 C   0  0  0  0  0  0  0  0  0  0  0  0
  143.2325   76.8588  215.0683 H   0  0  0  0  0  0  0  0  0  0  0  0
  142.7880   77.3350  217.1400 C   0  0  0  0  0  0  0  0  0  0  0  0
  142.2050   78.5740  216.8360 C   0  0  0  0  0  0  0  0  0  0  0  0
  142.1363   78.9051  215.7893 H   0  0  0  0  0  0  0  0  0  0  0  0
  141.7120   79.3880  217.8560 C   0  0  0  0  0  0  0  0  0  0  0  0
  141.2521   80.3568  217.6112 H   0  0  0  0  0  0  0  0  0  0  0  0
  141.8010   78.9760  219.1860 C   0  0  0  0  0  0  0  0  0  0  0  0
  141.4168   79.6246  219.9870 H   0  0  0  0  0  0  0  0  0  0  0  0
  142.3760   77.7430  219.5050 C   0  0  0  0  0  0  0  0  0  0  0  0
  142.4442   77.4285  220.5569 H   0  0  0  0  0  0  0  0  0  0  0  0
  142.8700   76.8980  218.4880 C   0  0  0  0  0  0  0  0  0  0  0  0
  139.8220   76.8430  222.1210 C   0  0  0  0  0  0  0  0  0  0  0  0
  141.0910   77.3400  222.1440 N   0  0  0  0  0  0  0  0  0  0  0  0
  141.3810   78.5570  222.6770 C   0  0  0  0  0  0  0  0  0  0  0  0
  142.6980   79.0290  222.6780 C   0  0  0  0  0  0  0  0  0  0  0  0
  143.5025   78.4147  222.2474 H   0  0  0  0  0  0  0  0  0  0  0  0
  142.9920   80.2810  223.2260 C   0  0  0  0  0  0  0  0  0  0  0  0
  144.0286   80.6489  223.2273 H   0  0  0  0  0  0  0  0  0  0  0  0
  141.9720   81.0680  223.7730 C   0  0  0  0  0  0  0  0  0  0  0  0
  142.2640   82.2800  224.3030 F   0  0  0  0  0  0  0  0  0  0  0  0
  140.6520   80.6040  223.7760 C   0  0  0  0  0  0  0  0  0  0  0  0
  139.8520   81.2234  224.2077 H   0  0  0  0  0  0  0  0  0  0  0  0
  140.3490   79.3480  223.2280 C   0  0  0  0  0  0  0  0  0  0  0  0
  139.0390   78.8570  223.2150 C   0  0  0  0  0  0  0  0  0  0  0  0
  138.2211   79.4570  223.6404 H   0  0  0  0  0  0  0  0  0  0  0  0
  138.7720   77.6020  222.6600 C   0  0  0  0  0  0  0  0  0  0  0  0
  137.7438   77.2114  222.6459 H   0  0  0  0  0  0  0  0  0  0  0  0
  1  2  1  0
  2  3  1  0
  3  4  2  0
  4  5  1  0
  5  6  1  0
  5  7  1  0
  5  8  1  0
  8  9  2  0
  8 10  1  0
 10 11  1  0
 11 12  1  0
 11 13  1  0
 11 14  1  0
 14 15  1  6
 14 16  1  0
 16 17  1  0
 14 18  1  0
 18 19  1  0
 18 20  1  0
 18 21  1  0
 21 22  1  1
 21 23  1  0
 23 24  2  0
 24 25  1  0
 25 26  1  0
 25 27  2  0
 27 28  1  0
 27 29  1  0
 29 30  2  0
 30 31  1  0
 30 32  1  0
 32 33  1  0
 32 34  2  0
 34 35  1  0
 34 36  1  0
 36 37  1  0
 36 38  2  0
  3 39  1  0
 39 40  2  0
 40 41  1  0
 41 42  2  0
 42 43  1  0
 42 44  1  0
 44 45  1  0
 44 46  2  0
 46 47  1  0
 46 48  1  0
 48 49  1  0
 48 50  2  0
 50 51  1  0
 51 52  1  0
 51 53  2  0
 53 54  1  0
 21 10  1  0
 38 23  1  0
 53 39  1  0
 38 29  1  0
 50 41  1  0
M  END
>  <UniqueID>  (31) 
26

>  <SMILES>  (31) 
O=C(C/N=C(\O)c1ccc2cc(F)ccc2n1)N1C[C@H](O)C[C@H]1c1nccc2ccccc12

>  <Energy>  (31) 
67.92733207019938

>  <Genealogy>  (31) 
O=C(CN=C(O)c1ccc2cc(F)ccc2n1)N1C[C@H](O)C[C@H]1c1nccc2ccccc12 (tautomer)
O=C(C/N=C(\O)c1ccc2cc(F)ccc2n1)N1C[C@H](O)C[C@H]1c1nccc2ccccc12 (cis-trans isomerization)
O=C(C/N=C(\O)c1ccc2cc(F)ccc2n1)N1C[C@H](O)C[C@H]1c1nccc2ccccc12 (3D coordinates assigned)
O=C(C/N=C(\O)c1ccc2cc(F)ccc2n1)N1C[C@H](O)C[C@H]1c1nccc2ccccc12 (nonaromatic ring conformer: 67.92733207019938 kcal/mol)

>  <smiles>  (31) 
O=C(NCC(=O)N1C[C@H](O)C[C@H]1c1nccc2ccccc12)c1ccc2cc(F)ccc2n1

>  <score_type>  (31) 
oracle

>  <origin>  (31) 
autodockgpu

>  <m_score__min__energy>  (31) 
-9.0299999999999994

>  <m_primary>  (31) 
energy

>  <meeko>  (31) 
{"free_energy": -7.4, "intermolecular_energy": -9.78, "internal_energy": -2.95, "cluster_size": 9, "cluster_id": 4, "rank_in_cluster": 3}

>  <energy>  (31) 
-7.68

>  <cluster_rmsd>  (31) 
0.0

>  <rmsd>  (31) 
269.6

>  <cluster>  (31) 
4

$$$$
PTHZUPGKXGNJLI-VUCLPHKJNA-N
     RDKit          3D

 54 58  0  0  0  0  0  0  0  0999 V2000
  139.2490   74.1380  223.3310 H   0  0  0  0  0  0  0  0  0  0  0  0
  139.5950   73.7970  222.4440 O   0  0  0  0  0  0  0  0  0  0  0  0
  139.8760   72.4510  222.1930 C   0  0  0  0  0  0  0  0  0  0  0  0
  140.1020   72.0100  220.9880 N   0  0  0  0  0  0  0  0  0  0  0  0
  140.5370   72.8060  219.8430 C   0  0  0  0  0  0  0  0  0  0  0  0
  140.7693   73.8268  220.1807 H   0  0  0  0  0  0  0  0  0  0  0  0
  139.7278   72.8243  219.0981 H   0  0  0  0  0  0  0  0  0  0  0  0
  141.7620   72.2050  219.2100 C   0  0  0  0  0  0  0  0  0  0  0  0
  141.6200   71.2760  218.3700 O   0  0  0  0  0  0  0  0  0  0  0  0
  143.0850   72.6620  219.5510 N   0  0  0  0  0  0  0  0  0  0  0  0
  144.3140   72.0420  219.0770 C   0  0  0  0  0  0  0  0  0  0  0  0
  144.4000   71.0153  219.4625 H   0  0  0  0  0  0  0  0  0  0  0  0
  144.3403   71.9757  217.9793 H   0  0  0  0  0  0  0  0  0  0  0  0
  145.4460   72.9120  219.6190 C   0  0  2  0  0  0  0  0  0  0  0  0
  145.8513   73.5741  218.8397 H   0  0  0  0  0  0  0  0  0  0  0  0
  146.5250   72.1320  220.0640 O   0  0  0  0  0  0  0  0  0  0  0  0
  146.2900   71.8280  220.9800 H   0  0  0  0  0  0  0  0  0  0  0  0
  144.8320   73.6960  220.7770 C   0  0  0  0  0  0  0  0  0  0  0  0
  145.0072   73.1751  221.7299 H   0  0  0  0  0  0  0  0  0  0  0  0
  145.2765   74.6975  220.8734 H   0  0  0  0  0  0  0  0  0  0  0  0
  143.3340   73.7660  220.4730 C   0  0  1  0  0  0  0  0  0  0  0  0
  142.7243   73.6858  221.3851 H   0  0  0  0  0  0  0  0  0  0  0  0
  142.9680   75.0990  219.8400 C   0  0  0  0  0  0  0  0  0  0  0  0
  143.5640   75.4440  218.6630 N   0  0  0  0  0  0  0  0  0  0  0  0
  143.3100   76.6150  218.0260 C   0  0  0  0  0  0  0  0  0  0  0  0
  143.8141   76.8432  217.0753 H   0  0  0  0  0  0  0  0  0  0  0  0
  142.4130   77.5280  218.5730 C   0  0  0  0  0  0  0  0  0  0  0  0
  142.1974   78.4726  218.0522 H   0  0  0  0  0  0  0  0  0  0  0  0
  141.7880   77.2360  219.7890 C   0  0  0  0  0  0  0  0  0  0  0  0
  140.8950   78.1550  220.3600 C   0  0  0  0  0  0  0  0  0  0  0  0
  140.6756   79.1001  219.8416 H   0  0  0  0  0  0  0  0  0  0  0  0
  140.2840   77.8750  221.5830 C   0  0  0  0  0  0  0  0  0  0  0  0
  139.5814   78.5977  222.0236 H   0  0  0  0  0  0  0  0  0  0  0  0
  140.5620   76.6810  222.2480 C   0  0  0  0  0  0  0  0  0  0  0  0
  140.0822   76.4682  223.2147 H   0  0  0  0  0  0  0  0  0  0  0  0
  141.4470   75.7540  221.6920 C   0  0  0  0  0  0  0  0  0  0  0  0
  141.6624   74.8167  222.2260 H   0  0  0  0  0  0  0  0  0  0  0  0
  142.0670   76.0110  220.4500 C   0  0  0  0  0  0  0  0  0  0  0  0
  139.9190   71.5000  223.3210 C   0  0  0  0  0  0  0  0  0  0  0  0
  140.3890   71.9150  224.5320 N   0  0  0  0  0  0  0  0  0  0  0  0
  140.4450   71.0850  225.6080 C   0  0  0  0  0  0  0  0  0  0  0  0
  140.9340   71.5530  226.8320 C   0  0  0  0  0  0  0  0  0  0  0  0
  141.2749   72.5947  226.9254 H   0  0  0  0  0  0  0  0  0  0  0  0
  140.9900   70.6980  227.9370 C   0  0  0  0  0  0  0  0  0  0  0  0
  141.3754   71.0685  228.8984 H   0  0  0  0  0  0  0  0  0  0  0  0
  140.5570   69.3720  227.8230 C   0  0  0  0  0  0  0  0  0  0  0  0
  140.6140   68.5480  228.8970 F   0  0  0  0  0  0  0  0  0  0  0  0
  140.0660   68.8950  226.6020 C   0  0  0  0  0  0  0  0  0  0  0  0
  139.7267   67.8523  226.5146 H   0  0  0  0  0  0  0  0  0  0  0  0
  140.0070   69.7480  225.4900 C   0  0  0  0  0  0  0  0  0  0  0  0
  139.5200   69.3010  224.2560 C   0  0  0  0  0  0  0  0  0  0  0  0
  139.1744   68.2628  224.1430 H   0  0  0  0  0  0  0  0  0  0  0  0
  139.4740   70.1770  223.1680 C   0  0  0  0  0  0  0  0  0  0  0  0
  139.0910   69.8317  222.1964 H   0  0  0  0  0  0  0  0  0  0  0  0
  1  2  1  0
  2  3  1  0
  3  4  2  0
  4  5  1  0
  5  6  1  0
  5  7  1  0
  5  8  1  0
  8  9  2  0
  8 10  1  0
 10 11  1  0
 11 12  1  0
 11 13  1  0
 11 14  1  0
 14 15  1  6
 14 16  1  0
 16 17  1  0
 14 18  1  0
 18 19  1  0
 18 20  1  0
 18 21  1  0
 21 22  1  1
 21 23  1  0
 23 24  2  0
 24 25  1  0
 25 26  1  0
 25 27  2  0
 27 28  1  0
 27 29  1  0
 29 30  2  0
 30 31  1  0
 30 32  1  0
 32 33  1  0
 32 34  2  0
 34 35  1  0
 34 36  1  0
 36 37  1  0
 36 38  2  0
  3 39  1  0
 39 40  2  0
 40 41  1  0
 41 42  2  0
 42 43  1  0
 42 44  1  0
 44 45  1  0
 44 46  2  0
 46 47  1  0
 46 48  1  0
 48 49  1  0
 48 50  2  0
 50 51  1  0
 51 52  1  0
 51 53  2  0
 53 54  1  0
 21 10  1  0
 38 23  1  0
 53 39  1  0
 38 29  1  0
 50 41  1  0
M  END
>  <UniqueID>  (32) 
26

>  <SMILES>  (32) 
O=C(C/N=C(\O)c1ccc2cc(F)ccc2n1)N1C[C@H](O)C[C@H]1c1nccc2ccccc12

>  <Energy>  (32) 
67.92733207019938

>  <Genealogy>  (32) 
O=C(CN=C(O)c1ccc2cc(F)ccc2n1)N1C[C@H](O)C[C@H]1c1nccc2ccccc12 (tautomer)
O=C(C/N=C(\O)c1ccc2cc(F)ccc2n1)N1C[C@H](O)C[C@H]1c1nccc2ccccc12 (cis-trans isomerization)
O=C(C/N=C(\O)c1ccc2cc(F)ccc2n1)N1C[C@H](O)C[C@H]1c1nccc2ccccc12 (3D coordinates assigned)
O=C(C/N=C(\O)c1ccc2cc(F)ccc2n1)N1C[C@H](O)C[C@H]1c1nccc2ccccc12 (nonaromatic ring conformer: 67.92733207019938 kcal/mol)

>  <smiles>  (32) 
O=C(NCC(=O)N1C[C@H](O)C[C@H]1c1nccc2ccccc12)c1ccc2cc(F)ccc2n1

>  <score_type>  (32) 
oracle

>  <origin>  (32) 
autodockgpu

>  <m_score__min__energy>  (32) 
-9.0299999999999994

>  <m_primary>  (32) 
energy

>  <meeko>  (32) 
{"free_energy": -8.86, "intermolecular_energy": -11.25, "internal_energy": -1.71, "cluster_size": 3, "cluster_id": 1, "rank_in_cluster": 2}

>  <energy>  (32) 
-7.54

>  <cluster_rmsd>  (32) 
1.04

>  <rmsd>  (32) 
269.29

>  <cluster>  (32) 
4

$$$$
PTHZUPGKXGNJLI-VUCLPHKJNA-N
     RDKit          3D

 54 58  0  0  0  0  0  0  0  0999 V2000
  138.8700   73.9310  223.0530 H   0  0  0  0  0  0  0  0  0  0  0  0
  139.6170   73.7760  222.3900 O   0  0  0  0  0  0  0  0  0  0  0  0
  140.4010   72.6190  222.3700 C   0  0  0  0  0  0  0  0  0  0  0  0
  141.2720   72.3960  221.4260 N   0  0  0  0  0  0  0  0  0  0  0  0
  141.3740   73.1110  220.1560 C   0  0  0  0  0  0  0  0  0  0  0  0
  140.3918   73.5355  219.9010 H   0  0  0  0  0  0  0  0  0  0  0  0
  141.6986   72.4044  219.3780 H   0  0  0  0  0  0  0  0  0  0  0  0
  142.3830   74.2230  220.2500 C   0  0  0  0  0  0  0  0  0  0  0  0
  143.3870   74.0720  220.9970 O   0  0  0  0  0  0  0  0  0  0  0  0
  142.2180   75.4510  219.5150 N   0  0  0  0  0  0  0  0  0  0  0  0
  141.9100   75.5200  218.0940 C   0  0  0  0  0  0  0  0  0  0  0  0
  142.7325   75.0929  217.5014 H   0  0  0  0  0  0  0  0  0  0  0  0
  141.0042   74.9477  217.8450 H   0  0  0  0  0  0  0  0  0  0  0  0
  141.7440   77.0060  217.7830 C   0  0  2  0  0  0  0  0  0  0  0  0
  140.6821   77.2820  217.7043 H   0  0  0  0  0  0  0  0  0  0  0  0
  142.3240   77.3420  216.5500 O   0  0  0  0  0  0  0  0  0  0  0  0
  141.8500   76.8040  215.8630 H   0  0  0  0  0  0  0  0  0  0  0  0
  142.4480   77.7370  218.9260 C   0  0  0  0  0  0  0  0  0  0  0  0
  143.4870   77.9710  218.6509 H   0  0  0  0  0  0  0  0  0  0  0  0
  141.9574   78.6924  219.1639 H   0  0  0  0  0  0  0  0  0  0  0  0
  142.4130   76.7690  220.1110 C   0  0  1  0  0  0  0  0  0  0  0  0
  143.3345   76.8180  220.7098 H   0  0  0  0  0  0  0  0  0  0  0  0
  141.2760   77.1110  221.0610 C   0  0  0  0  0  0  0  0  0  0  0  0
  140.1260   76.3820  220.9860 N   0  0  0  0  0  0  0  0  0  0  0  0
  139.0530   76.6170  221.7840 C   0  0  0  0  0  0  0  0  0  0  0  0
  138.1500   75.9964  221.6863 H   0  0  0  0  0  0  0  0  0  0  0  0
  139.0930   77.6410  222.7250 C   0  0  0  0  0  0  0  0  0  0  0  0
  138.2292   77.8250  223.3808 H   0  0  0  0  0  0  0  0  0  0  0  0
  140.2400   78.4350  222.8310 C   0  0  0  0  0  0  0  0  0  0  0  0
  140.2860   79.4820  223.7640 C   0  0  0  0  0  0  0  0  0  0  0  0
  139.4243   79.6684  224.4219 H   0  0  0  0  0  0  0  0  0  0  0  0
  141.4220   80.2880  223.8600 C   0  0  0  0  0  0  0  0  0  0  0  0
  141.4544   81.1049  224.5959 H   0  0  0  0  0  0  0  0  0  0  0  0
  142.5160   80.0600  223.0250 C   0  0  0  0  0  0  0  0  0  0  0  0
  143.4060   80.7019  223.1008 H   0  0  0  0  0  0  0  0  0  0  0  0
  142.4860   79.0200  222.0930 C   0  0  0  0  0  0  0  0  0  0  0  0
  143.3525   78.8503  221.4370 H   0  0  0  0  0  0  0  0  0  0  0  0
  141.3530   78.1850  221.9860 C   0  0  0  0  0  0  0  0  0  0  0  0
  140.2440   71.6210  223.4460 C   0  0  0  0  0  0  0  0  0  0  0  0
  140.6990   71.9070  224.6990 N   0  0  0  0  0  0  0  0  0  0  0  0
  140.5750   71.0300  225.7310 C   0  0  0  0  0  0  0  0  0  0  0  0
  141.0550   71.3650  227.0010 C   0  0  0  0  0  0  0  0  0  0  0  0
  141.5346   72.3409  227.1672 H   0  0  0  0  0  0  0  0  0  0  0  0
  140.9260   70.4610  228.0600 C   0  0  0  0  0  0  0  0  0  0  0  0
  141.3058   70.7268  229.0575 H   0  0  0  0  0  0  0  0  0  0  0  0
  140.3150   69.2190  227.8540 C   0  0  0  0  0  0  0  0  0  0  0  0
  140.1930   68.3470  228.8840 F   0  0  0  0  0  0  0  0  0  0  0  0
  139.8320   68.8750  226.5870 C   0  0  0  0  0  0  0  0  0  0  0  0
  139.3535   67.8975  226.4274 H   0  0  0  0  0  0  0  0  0  0  0  0
  139.9580   69.7770  225.5200 C   0  0  0  0  0  0  0  0  0  0  0  0
  139.4840   69.4630  224.2410 C   0  0  0  0  0  0  0  0  0  0  0  0
  139.0013   68.4922  224.0554 H   0  0  0  0  0  0  0  0  0  0  0  0
  139.6250   70.3850  223.2000 C   0  0  0  0  0  0  0  0  0  0  0  0
  139.2530   70.1436  222.1934 H   0  0  0  0  0  0  0  0  0  0  0  0
  1  2  1  0
  2  3  1  0
  3  4  2  0
  4  5  1  0
  5  6  1  0
  5  7  1  0
  5  8  1  0
  8  9  2  0
  8 10  1  0
 10 11  1  0
 11 12  1  0
 11 13  1  0
 11 14  1  0
 14 15  1  6
 14 16  1  0
 16 17  1  0
 14 18  1  0
 18 19  1  0
 18 20  1  0
 18 21  1  0
 21 22  1  1
 21 23  1  0
 23 24  2  0
 24 25  1  0
 25 26  1  0
 25 27  2  0
 27 28  1  0
 27 29  1  0
 29 30  2  0
 30 31  1  0
 30 32  1  0
 32 33  1  0
 32 34  2  0
 34 35  1  0
 34 36  1  0
 36 37  1  0
 36 38  2  0
  3 39  1  0
 39 40  2  0
 40 41  1  0
 41 42  2  0
 42 43  1  0
 42 44  1  0
 44 45  1  0
 44 46  2  0
 46 47  1  0
 46 48  1  0
 48 49  1  0
 48 50  2  0
 50 51  1  0
 51 52  1  0
 51 53  2  0
 53 54  1  0
 21 10  1  0
 38 23  1  0
 53 39  1  0
 38 29  1  0
 50 41  1  0
M  END
>  <UniqueID>  (33) 
26

>  <SMILES>  (33) 
O=C(C/N=C(\O)c1ccc2cc(F)ccc2n1)N1C[C@H](O)C[C@H]1c1nccc2ccccc12

>  <Energy>  (33) 
67.92733207019938

>  <Genealogy>  (33) 
O=C(CN=C(O)c1ccc2cc(F)ccc2n1)N1C[C@H](O)C[C@H]1c1nccc2ccccc12 (tautomer)
O=C(C/N=C(\O)c1ccc2cc(F)ccc2n1)N1C[C@H](O)C[C@H]1c1nccc2ccccc12 (cis-trans isomerization)
O=C(C/N=C(\O)c1ccc2cc(F)ccc2n1)N1C[C@H](O)C[C@H]1c1nccc2ccccc12 (3D coordinates assigned)
O=C(C/N=C(\O)c1ccc2cc(F)ccc2n1)N1C[C@H](O)C[C@H]1c1nccc2ccccc12 (nonaromatic ring conformer: 67.92733207019938 kcal/mol)

>  <smiles>  (33) 
O=C(NCC(=O)N1C[C@H](O)C[C@H]1c1nccc2ccccc12)c1ccc2cc(F)ccc2n1

>  <score_type>  (33) 
oracle

>  <origin>  (33) 
autodockgpu

>  <m_score__min__energy>  (33) 
-9.0299999999999994

>  <m_primary>  (33) 
energy

>  <meeko>  (33) 
{"free_energy": -8.89, "intermolecular_energy": -11.27, "internal_energy": -1.44, "cluster_size": 6, "cluster_id": 2, "rank_in_cluster": 3}

>  <energy>  (33) 
-7.4

>  <cluster_rmsd>  (33) 
1.03

>  <rmsd>  (33) 
269.51

>  <cluster>  (33) 
4

$$$$
PTHZUPGKXGNJLI-VUCLPHKJNA-N
     RDKit          3D

 54 58  0  0  0  0  0  0  0  0999 V2000
  140.0160   73.3820  219.5220 H   0  0  0  0  0  0  0  0  0  0  0  0
  139.4670   74.0580  220.0350 O   0  0  0  0  0  0  0  0  0  0  0  0
  139.8650   74.6050  221.2580 C   0  0  0  0  0  0  0  0  0  0  0  0
  140.0080   73.8690  222.3250 N   0  0  0  0  0  0  0  0  0  0  0  0
  140.7700   72.6270  222.4240 C   0  0  0  0  0  0  0  0  0  0  0  0
  140.0876   71.8052  222.6868 H   0  0  0  0  0  0  0  0  0  0  0  0
  141.5410   72.7472  223.1993 H   0  0  0  0  0  0  0  0  0  0  0  0
  141.4450   72.3090  221.1180 C   0  0  0  0  0  0  0  0  0  0  0  0
  140.8730   71.5280  220.3110 O   0  0  0  0  0  0  0  0  0  0  0  0
  142.7290   72.8690  220.7810 N   0  0  0  0  0  0  0  0  0  0  0  0
  143.9790   72.1250  220.8050 C   0  0  0  0  0  0  0  0  0  0  0  0
  144.2144   71.8028  221.8301 H   0  0  0  0  0  0  0  0  0  0  0  0
  143.9239   71.2167  220.1869 H   0  0  0  0  0  0  0  0  0  0  0  0
  145.0430   73.0930  220.2930 C   0  0  2  0  0  0  0  0  0  0  0  0
  145.3057   72.8825  219.2458 H   0  0  0  0  0  0  0  0  0  0  0  0
  146.2370   72.9780  221.0210 O   0  0  0  0  0  0  0  0  0  0  0  0
  146.1340   72.1800  221.6020 H   0  0  0  0  0  0  0  0  0  0  0  0
  144.4360   74.4850  220.4680 C   0  0  0  0  0  0  0  0  0  0  0  0
  144.7461   74.9219  221.4287 H   0  0  0  0  0  0  0  0  0  0  0  0
  144.7673   75.1774  219.6800 H   0  0  0  0  0  0  0  0  0  0  0  0
  142.9210   74.2750  220.4400 C   0  0  1  0  0  0  0  0  0  0  0  0
  142.3998   74.9433  221.1413 H   0  0  0  0  0  0  0  0  0  0  0  0
  142.3530   74.5850  219.0640 C   0  0  0  0  0  0  0  0  0  0  0  0
  141.8450   73.5590  218.3250 N   0  0  0  0  0  0  0  0  0  0  0  0
  141.3250   73.7330  217.0840 C   0  0  0  0  0  0  0  0  0  0  0  0
  140.9230   72.8708  216.5317 H   0  0  0  0  0  0  0  0  0  0  0  0
  141.2990   75.0000  216.5080 C   0  0  0  0  0  0  0  0  0  0  0  0
  140.8675   75.1451  215.5066 H   0  0  0  0  0  0  0  0  0  0  0  0
  141.8260   76.0870  217.2130 C   0  0  0  0  0  0  0  0  0  0  0  0
  141.8220   77.3670  216.6370 C   0  0  0  0  0  0  0  0  0  0  0  0
  141.3901   77.5163  215.6364 H   0  0  0  0  0  0  0  0  0  0  0  0
  142.3640   78.4510  217.3290 C   0  0  0  0  0  0  0  0  0  0  0  0
  142.3543   79.4526  216.8744 H   0  0  0  0  0  0  0  0  0  0  0  0
  142.9180   78.2670  218.5960 C   0  0  0  0  0  0  0  0  0  0  0  0
  143.3491   79.1238  219.1346 H   0  0  0  0  0  0  0  0  0  0  0  0
  142.9280   77.0000  219.1840 C   0  0  0  0  0  0  0  0  0  0  0  0
  143.3707   76.8649  220.1819 H   0  0  0  0  0  0  0  0  0  0  0  0
  142.3740   75.8910  218.5070 C   0  0  0  0  0  0  0  0  0  0  0  0
  140.1320   76.0530  221.3490 C   0  0  0  0  0  0  0  0  0  0  0  0
  140.8260   76.5420  222.4160 N   0  0  0  0  0  0  0  0  0  0  0  0
  141.1090   77.8660  222.5480 C   0  0  0  0  0  0  0  0  0  0  0  0
  141.8250   78.3240  223.6590 C   0  0  0  0  0  0  0  0  0  0  0  0
  142.1608   77.6129  224.4281 H   0  0  0  0  0  0  0  0  0  0  0  0
  142.1140   79.6860  223.7920 C   0  0  0  0  0  0  0  0  0  0  0  0
  142.6768   80.0440  224.6667 H   0  0  0  0  0  0  0  0  0  0  0  0
  141.6900   80.5940  222.8170 C   0  0  0  0  0  0  0  0  0  0  0  0
  141.9730   81.9120  222.9520 F   0  0  0  0  0  0  0  0  0  0  0  0
  140.9730   80.1450  221.7020 C   0  0  0  0  0  0  0  0  0  0  0  0
  140.6403   80.8613  220.9363 H   0  0  0  0  0  0  0  0  0  0  0  0
  140.6790   78.7800  221.5620 C   0  0  0  0  0  0  0  0  0  0  0  0
  139.9650   78.3000  220.4580 C   0  0  0  0  0  0  0  0  0  0  0  0
  139.6213   78.9958  219.6784 H   0  0  0  0  0  0  0  0  0  0  0  0
  139.6900   76.9340  220.3490 C   0  0  0  0  0  0  0  0  0  0  0  0
  139.1297   76.5507  219.4835 H   0  0  0  0  0  0  0  0  0  0  0  0
  1  2  1  0
  2  3  1  0
  3  4  2  0
  4  5  1  0
  5  6  1  0
  5  7  1  0
  5  8  1  0
  8  9  2  0
  8 10  1  0
 10 11  1  0
 11 12  1  0
 11 13  1  0
 11 14  1  0
 14 15  1  6
 14 16  1  0
 16 17  1  0
 14 18  1  0
 18 19  1  0
 18 20  1  0
 18 21  1  0
 21 22  1  1
 21 23  1  0
 23 24  2  0
 24 25  1  0
 25 26  1  0
 25 27  2  0
 27 28  1  0
 27 29  1  0
 29 30  2  0
 30 31  1  0
 30 32  1  0
 32 33  1  0
 32 34  2  0
 34 35  1  0
 34 36  1  0
 36 37  1  0
 36 38  2  0
  3 39  1  0
 39 40  2  0
 40 41  1  0
 41 42  2  0
 42 43  1  0
 42 44  1  0
 44 45  1  0
 44 46  2  0
 46 47  1  0
 46 48  1  0
 48 49  1  0
 48 50  2  0
 50 51  1  0
 51 52  1  0
 51 53  2  0
 53 54  1  0
 21 10  1  0
 38 23  1  0
 53 39  1  0
 38 29  1  0
 50 41  1  0
M  END
>  <UniqueID>  (34) 
26

>  <SMILES>  (34) 
O=C(C/N=C(\O)c1ccc2cc(F)ccc2n1)N1C[C@H](O)C[C@H]1c1nccc2ccccc12

>  <Energy>  (34) 
67.92733207019938

>  <Genealogy>  (34) 
O=C(CN=C(O)c1ccc2cc(F)ccc2n1)N1C[C@H](O)C[C@H]1c1nccc2ccccc12 (tautomer)
O=C(C/N=C(\O)c1ccc2cc(F)ccc2n1)N1C[C@H](O)C[C@H]1c1nccc2ccccc12 (cis-trans isomerization)
O=C(C/N=C(\O)c1ccc2cc(F)ccc2n1)N1C[C@H](O)C[C@H]1c1nccc2ccccc12 (3D coordinates assigned)
O=C(C/N=C(\O)c1ccc2cc(F)ccc2n1)N1C[C@H](O)C[C@H]1c1nccc2ccccc12 (nonaromatic ring conformer: 67.92733207019938 kcal/mol)

>  <smiles>  (34) 
O=C(NCC(=O)N1C[C@H](O)C[C@H]1c1nccc2ccccc12)c1ccc2cc(F)ccc2n1

>  <score_type>  (34) 
oracle

>  <origin>  (34) 
autodockgpu

>  <m_score__min__energy>  (34) 
-9.0299999999999994

>  <m_primary>  (34) 
energy

>  <meeko>  (34) 
{"free_energy": -6.35, "intermolecular_energy": -8.73, "internal_energy": -4.14, "cluster_size": 9, "cluster_id": 4, "rank_in_cluster": 7}

>  <energy>  (34) 
-7.25

>  <cluster_rmsd>  (34) 
1.03

>  <rmsd>  (34) 
269.46

>  <cluster>  (34) 
4

$$$$
PTHZUPGKXGNJLI-VUCLPHKJNA-N
     RDKit          3D

 54 58  0  0  0  0  0  0  0  0999 V2000
  141.2220   75.3380  221.9170 H   0  0  0  0  0  0  0  0  0  0  0  0
  140.5760   74.6730  222.3200 O   0  0  0  0  0  0  0  0  0  0  0  0
  140.2950   73.4290  221.7470 C   0  0  0  0  0  0  0  0  0  0  0  0
  140.1970   73.2740  220.4570 N   0  0  0  0  0  0  0  0  0  0  0  0
  141.2380   73.5480  219.4700 C   0  0  0  0  0  0  0  0  0  0  0  0
  140.7665   73.8435  218.5211 H   0  0  0  0  0  0  0  0  0  0  0  0
  141.8405   72.6382  219.3311 H   0  0  0  0  0  0  0  0  0  0  0  0
  142.1400   74.6570  219.9390 C   0  0  0  0  0  0  0  0  0  0  0  0
  142.9200   74.4390  220.9050 O   0  0  0  0  0  0  0  0  0  0  0  0
  142.1200   75.9560  219.3160 N   0  0  0  0  0  0  0  0  0  0  0  0
  141.8780   76.1810  217.8990 C   0  0  0  0  0  0  0  0  0  0  0  0
  142.6805   75.7312  217.2960 H   0  0  0  0  0  0  0  0  0  0  0  0
  140.9337   75.7234  217.5691 H   0  0  0  0  0  0  0  0  0  0  0  0
  141.8640   77.6980  217.7220 C   0  0  2  0  0  0  0  0  0  0  0  0
  140.8369   78.0822  217.6351 H   0  0  0  0  0  0  0  0  0  0  0  0
  142.5220   78.0840  216.5450 O   0  0  0  0  0  0  0  0  0  0  0  0
  143.2960   78.6390  216.8270 H   0  0  0  0  0  0  0  0  0  0  0  0
  142.5850   78.2520  218.9500 C   0  0  0  0  0  0  0  0  0  0  0  0
  143.6517   78.4087  218.7316 H   0  0  0  0  0  0  0  0  0  0  0  0
  142.1756   79.2248  219.2599 H   0  0  0  0  0  0  0  0  0  0  0  0
  142.4120   77.1900  220.0380 C   0  0  1  0  0  0  0  0  0  0  0  0
  143.3087   77.0959  220.6682 H   0  0  0  0  0  0  0  0  0  0  0  0
  141.2740   77.5540  220.9790 C   0  0  0  0  0  0  0  0  0  0  0  0
  140.0990   76.8700  220.8720 N   0  0  0  0  0  0  0  0  0  0  0  0
  139.0240   77.1270  221.6590 C   0  0  0  0  0  0  0  0  0  0  0  0
  138.1009   76.5416  221.5357 H   0  0  0  0  0  0  0  0  0  0  0  0
  139.0870   78.1300  222.6220 C   0  0  0  0  0  0  0  0  0  0  0  0
  138.2202   78.3327  223.2682 H   0  0  0  0  0  0  0  0  0  0  0  0
  140.2600   78.8780  222.7620 C   0  0  0  0  0  0  0  0  0  0  0  0
  140.3310   79.9030  223.7180 C   0  0  0  0  0  0  0  0  0  0  0  0
  139.4673   80.1070  224.3679 H   0  0  0  0  0  0  0  0  0  0  0  0
  141.4930   80.6640  223.8470 C   0  0  0  0  0  0  0  0  0  0  0  0
  141.5436   81.4644  224.5999 H   0  0  0  0  0  0  0  0  0  0  0  0
  142.5910   80.4130  223.0240 C   0  0  0  0  0  0  0  0  0  0  0  0
  143.5031   81.0192  223.1275 H   0  0  0  0  0  0  0  0  0  0  0  0
  142.5370   79.3950  222.0690 C   0  0  0  0  0  0  0  0  0  0  0  0
  143.4064   79.2076  221.4216 H   0  0  0  0  0  0  0  0  0  0  0  0
  141.3760   78.6050  221.9280 C   0  0  0  0  0  0  0  0  0  0  0  0
  140.1040   72.2580  222.6230 C   0  0  0  0  0  0  0  0  0  0  0  0
  140.6670   72.2480  223.8650 N   0  0  0  0  0  0  0  0  0  0  0  0
  140.5180   71.2000  224.7190 C   0  0  0  0  0  0  0  0  0  0  0  0
  141.1120   71.2340  225.9850 C   0  0  0  0  0  0  0  0  0  0  0  0
  141.7012   72.1105  226.2925 H   0  0  0  0  0  0  0  0  0  0  0  0
  140.9570   70.1540  226.8600 C   0  0  0  0  0  0  0  0  0  0  0  0
  141.4262   70.1822  227.8545 H   0  0  0  0  0  0  0  0  0  0  0  0
  140.2070   69.0380  226.4740 C   0  0  0  0  0  0  0  0  0  0  0  0
  140.0610   67.9950  227.3270 F   0  0  0  0  0  0  0  0  0  0  0  0
  139.6090   68.9950  225.2100 C   0  0  0  0  0  0  0  0  0  0  0  0
  139.0209   68.1155  224.9090 H   0  0  0  0  0  0  0  0  0  0  0  0
  139.7600   70.0750  224.3260 C   0  0  0  0  0  0  0  0  0  0  0  0
  139.1730   70.0630  223.0560 C   0  0  0  0  0  0  0  0  0  0  0  0
  138.5791   69.1959  222.7314 H   0  0  0  0  0  0  0  0  0  0  0  0
  139.3430   71.1550  222.2010 C   0  0  0  0  0  0  0  0  0  0  0  0
  138.8830   71.1511  221.2018 H   0  0  0  0  0  0  0  0  0  0  0  0
  1  2  1  0
  2  3  1  0
  3  4  2  0
  4  5  1  0
  5  6  1  0
  5  7  1  0
  5  8  1  0
  8  9  2  0
  8 10  1  0
 10 11  1  0
 11 12  1  0
 11 13  1  0
 11 14  1  0
 14 15  1  6
 14 16  1  0
 16 17  1  0
 14 18  1  0
 18 19  1  0
 18 20  1  0
 18 21  1  0
 21 22  1  1
 21 23  1  0
 23 24  2  0
 24 25  1  0
 25 26  1  0
 25 27  2  0
 27 28  1  0
 27 29  1  0
 29 30  2  0
 30 31  1  0
 30 32  1  0
 32 33  1  0
 32 34  2  0
 34 35  1  0
 34 36  1  0
 36 37  1  0
 36 38  2  0
  3 39  1  0
 39 40  2  0
 40 41  1  0
 41 42  2  0
 42 43  1  0
 42 44  1  0
 44 45  1  0
 44 46  2  0
 46 47  1  0
 46 48  1  0
 48 49  1  0
 48 50  2  0
 50 51  1  0
 51 52  1  0
 51 53  2  0
 53 54  1  0
 21 10  1  0
 38 23  1  0
 53 39  1  0
 38 29  1  0
 50 41  1  0
M  END
>  <UniqueID>  (35) 
26

>  <SMILES>  (35) 
O=C(C/N=C(\O)c1ccc2cc(F)ccc2n1)N1C[C@H](O)C[C@H]1c1nccc2ccccc12

>  <Energy>  (35) 
67.92733207019938

>  <Genealogy>  (35) 
O=C(CN=C(O)c1ccc2cc(F)ccc2n1)N1C[C@H](O)C[C@H]1c1nccc2ccccc12 (tautomer)
O=C(C/N=C(\O)c1ccc2cc(F)ccc2n1)N1C[C@H](O)C[C@H]1c1nccc2ccccc12 (cis-trans isomerization)
O=C(C/N=C(\O)c1ccc2cc(F)ccc2n1)N1C[C@H](O)C[C@H]1c1nccc2ccccc12 (3D coordinates assigned)
O=C(C/N=C(\O)c1ccc2cc(F)ccc2n1)N1C[C@H](O)C[C@H]1c1nccc2ccccc12 (nonaromatic ring conformer: 67.92733207019938 kcal/mol)

>  <smiles>  (35) 
O=C(NCC(=O)N1C[C@H](O)C[C@H]1c1nccc2ccccc12)c1ccc2cc(F)ccc2n1

>  <score_type>  (35) 
oracle

>  <origin>  (35) 
autodockgpu

>  <m_score__min__energy>  (35) 
-9.0299999999999994

>  <m_primary>  (35) 
energy

>  <meeko>  (35) 
{"free_energy": -7.9, "intermolecular_energy": -10.29, "internal_energy": -2.69, "cluster_size": 6, "cluster_id": 2, "rank_in_cluster": 5}

>  <energy>  (35) 
-7.08

>  <cluster_rmsd>  (35) 
1.13

>  <rmsd>  (35) 
269.4

>  <cluster>  (35) 
4

$$$$
PTHZUPGKXGNJLI-VUCLPHKJNA-N
     RDKit          3D

 54 58  0  0  0  0  0  0  0  0999 V2000
  138.7740   74.5900  223.1040 H   0  0  0  0  0  0  0  0  0  0  0  0
  139.1970   74.4520  222.1960 O   0  0  0  0  0  0  0  0  0  0  0  0
  140.0670   75.3720  221.6040 C   0  0  0  0  0  0  0  0  0  0  0  0
  140.7640   75.0730  220.5440 N   0  0  0  0  0  0  0  0  0  0  0  0
  140.5990   73.8890  219.7050 C   0  0  0  0  0  0  0  0  0  0  0  0
  140.6681   74.1840  218.6475 H   0  0  0  0  0  0  0  0  0  0  0  0
  139.6158   73.4427  219.9149 H   0  0  0  0  0  0  0  0  0  0  0  0
  141.6640   72.8700  220.0030 C   0  0  0  0  0  0  0  0  0  0  0  0
  141.3270   71.6660  220.1650 O   0  0  0  0  0  0  0  0  0  0  0  0
  143.0510   73.2440  220.1170 N   0  0  0  0  0  0  0  0  0  0  0  0
  144.1400   72.3000  220.3210 C   0  0  0  0  0  0  0  0  0  0  0  0
  144.0347   71.7962  221.2932 H   0  0  0  0  0  0  0  0  0  0  0  0
  144.1477   71.5142  219.5513 H   0  0  0  0  0  0  0  0  0  0  0  0
  145.4180   73.1360  220.2890 C   0  0  2  0  0  0  0  0  0  0  0  0
  145.9363   73.0398  219.3235 H   0  0  0  0  0  0  0  0  0  0  0  0
  146.3340   72.7120  221.2640 O   0  0  0  0  0  0  0  0  0  0  0  0
  145.9340   71.9110  221.6940 H   0  0  0  0  0  0  0  0  0  0  0  0
  144.9660   74.5700  220.5610 C   0  0  0  0  0  0  0  0  0  0  0  0
  145.0452   74.8012  221.6335 H   0  0  0  0  0  0  0  0  0  0  0  0
  145.5901   75.3028  220.0285 H   0  0  0  0  0  0  0  0  0  0  0  0
  143.5060   74.6310  220.1070 C   0  0  1  0  0  0  0  0  0  0  0  0
  142.8969   75.2694  220.7638 H   0  0  0  0  0  0  0  0  0  0  0  0
  143.3920   75.2320  218.7150 C   0  0  0  0  0  0  0  0  0  0  0  0
  143.7750   74.4750  217.6470 N   0  0  0  0  0  0  0  0  0  0  0  0
  143.7200   74.9260  216.3690 C   0  0  0  0  0  0  0  0  0  0  0  0
  144.0368   74.2726  215.5428 H   0  0  0  0  0  0  0  0  0  0  0  0
  143.2640   76.2130  216.1000 C   0  0  0  0  0  0  0  0  0  0  0  0
  143.2075   76.5757  215.0631 H   0  0  0  0  0  0  0  0  0  0  0  0
  142.8780   77.0420  217.1590 C   0  0  0  0  0  0  0  0  0  0  0  0
  142.4330   78.3480  216.9030 C   0  0  0  0  0  0  0  0  0  0  0  0
  142.3748   78.7141  215.8674 H   0  0  0  0  0  0  0  0  0  0  0  0
  142.0640   79.1840  217.9580 C   0  0  0  0  0  0  0  0  0  0  0  0
  141.7110   80.2051  217.7514 H   0  0  0  0  0  0  0  0  0  0  0  0
  142.1420   78.7270  219.2750 C   0  0  0  0  0  0  0  0  0  0  0  0
  141.8564   79.3923  220.1031 H   0  0  0  0  0  0  0  0  0  0  0  0
  142.5810   77.4290  219.5460 C   0  0  0  0  0  0  0  0  0  0  0  0
  142.6421   77.0795  220.5872 H   0  0  0  0  0  0  0  0  0  0  0  0
  142.9470   76.5620  218.4930 C   0  0  0  0  0  0  0  0  0  0  0  0
  140.2020   76.7190  222.1900 C   0  0  0  0  0  0  0  0  0  0  0  0
  141.4330   77.3030  222.2550 N   0  0  0  0  0  0  0  0  0  0  0  0
  141.6170   78.5450  222.7770 C   0  0  0  0  0  0  0  0  0  0  0  0
  142.8980   79.1060  222.8240 C   0  0  0  0  0  0  0  0  0  0  0  0
  143.7599   78.5416  222.4385 H   0  0  0  0  0  0  0  0  0  0  0  0
  143.0830   80.3840  223.3610 C   0  0  0  0  0  0  0  0  0  0  0  0
  144.0909   80.8230  223.3967 H   0  0  0  0  0  0  0  0  0  0  0  0
  141.9900   81.1060  223.8530 C   0  0  0  0  0  0  0  0  0  0  0  0
  142.1770   82.3440  224.3720 F   0  0  0  0  0  0  0  0  0  0  0  0
  140.7050   80.5530  223.8100 C   0  0  0  0  0  0  0  0  0  0  0  0
  139.8472   81.1228  224.1968 H   0  0  0  0  0  0  0  0  0  0  0  0
  140.5120   79.2710  223.2730 C   0  0  0  0  0  0  0  0  0  0  0  0
  139.2390   78.6920  223.2150 C   0  0  0  0  0  0  0  0  0  0  0  0
  138.3653   79.2415  223.5955 H   0  0  0  0  0  0  0  0  0  0  0  0
  139.0810   77.4130  222.6720 C   0  0  0  0  0  0  0  0  0  0  0  0
  138.0830   76.9530  222.6228 H   0  0  0  0  0  0  0  0  0  0  0  0
  1  2  1  0
  2  3  1  0
  3  4  2  0
  4  5  1  0
  5  6  1  0
  5  7  1  0
  5  8  1  0
  8  9  2  0
  8 10  1  0
 10 11  1  0
 11 12  1  0
 11 13  1  0
 11 14  1  0
 14 15  1  6
 14 16  1  0
 16 17  1  0
 14 18  1  0
 18 19  1  0
 18 20  1  0
 18 21  1  0
 21 22  1  1
 21 23  1  0
 23 24  2  0
 24 25  1  0
 25 26  1  0
 25 27  2  0
 27 28  1  0
 27 29  1  0
 29 30  2  0
 30 31  1  0
 30 32  1  0
 32 33  1  0
 32 34  2  0
 34 35  1  0
 34 36  1  0
 36 37  1  0
 36 38  2  0
  3 39  1  0
 39 40  2  0
 40 41  1  0
 41 42  2  0
 42 43  1  0
 42 44  1  0
 44 45  1  0
 44 46  2  0
 46 47  1  0
 46 48  1  0
 48 49  1  0
 48 50  2  0
 50 51  1  0
 51 52  1  0
 51 53  2  0
 53 54  1  0
 21 10  1  0
 38 23  1  0
 53 39  1  0
 38 29  1  0
 50 41  1  0
M  END
>  <UniqueID>  (36) 
26

>  <SMILES>  (36) 
O=C(C/N=C(\O)c1ccc2cc(F)ccc2n1)N1C[C@H](O)C[C@H]1c1nccc2ccccc12

>  <Energy>  (36) 
67.92733207019938

>  <Genealogy>  (36) 
O=C(CN=C(O)c1ccc2cc(F)ccc2n1)N1C[C@H](O)C[C@H]1c1nccc2ccccc12 (tautomer)
O=C(C/N=C(\O)c1ccc2cc(F)ccc2n1)N1C[C@H](O)C[C@H]1c1nccc2ccccc12 (cis-trans isomerization)
O=C(C/N=C(\O)c1ccc2cc(F)ccc2n1)N1C[C@H](O)C[C@H]1c1nccc2ccccc12 (3D coordinates assigned)
O=C(C/N=C(\O)c1ccc2cc(F)ccc2n1)N1C[C@H](O)C[C@H]1c1nccc2ccccc12 (nonaromatic ring conformer: 67.92733207019938 kcal/mol)

>  <smiles>  (36) 
O=C(NCC(=O)N1C[C@H](O)C[C@H]1c1nccc2ccccc12)c1ccc2cc(F)ccc2n1

>  <score_type>  (36) 
oracle

>  <origin>  (36) 
autodockgpu

>  <m_score__min__energy>  (36) 
-9.0299999999999994

>  <m_primary>  (36) 
energy

>  <meeko>  (36) 
{"free_energy": -7.68, "intermolecular_energy": -10.07, "internal_energy": -2.17, "cluster_size": 9, "cluster_id": 4, "rank_in_cluster": 1}

>  <energy>  (36) 
-6.37

>  <cluster_rmsd>  (36) 
1.56

>  <rmsd>  (36) 
269.04

>  <cluster>  (36) 
4

$$$$
PTHZUPGKXGNJLI-VUCLPHKJNA-N
     RDKit          3D

 54 58  0  0  0  0  0  0  0  0999 V2000
  139.5150   73.3510  219.5590 H   0  0  0  0  0  0  0  0  0  0  0  0
  138.9710   73.8860  220.2220 O   0  0  0  0  0  0  0  0  0  0  0  0
  139.4650   74.3080  221.4600 C   0  0  0  0  0  0  0  0  0  0  0  0
  139.8940   73.4610  222.3520 N   0  0  0  0  0  0  0  0  0  0  0  0
  141.0720   72.6040  222.2380 C   0  0  0  0  0  0  0  0  0  0  0  0
  140.8529   71.6270  222.6934 H   0  0  0  0  0  0  0  0  0  0  0  0
  141.9124   73.0879  222.7572 H   0  0  0  0  0  0  0  0  0  0  0  0
  141.4470   72.4030  220.7950 C   0  0  0  0  0  0  0  0  0  0  0  0
  140.7630   71.6110  220.0930 O   0  0  0  0  0  0  0  0  0  0  0  0
  142.5720   73.0850  220.2090 N   0  0  0  0  0  0  0  0  0  0  0  0
  143.7230   72.4140  219.6240 C   0  0  0  0  0  0  0  0  0  0  0  0
  144.2683   71.8466  220.3925 H   0  0  0  0  0  0  0  0  0  0  0  0
  143.4239   71.6961  218.8461 H   0  0  0  0  0  0  0  0  0  0  0  0
  144.6030   73.5270  219.0580 C   0  0  2  0  0  0  0  0  0  0  0  0
  144.4944   73.6083  217.9664 H   0  0  0  0  0  0  0  0  0  0  0  0
  145.9630   73.2770  219.2930 O   0  0  0  0  0  0  0  0  0  0  0  0
  146.4210   74.1580  219.2510 H   0  0  0  0  0  0  0  0  0  0  0  0
  144.1550   74.7980  219.7790 C   0  0  0  0  0  0  0  0  0  0  0  0
  144.7857   74.9823  220.6612 H   0  0  0  0  0  0  0  0  0  0  0  0
  144.2398   75.6849  219.1339 H   0  0  0  0  0  0  0  0  0  0  0  0
  142.7080   74.5390  220.2010 C   0  0  1  0  0  0  0  0  0  0  0  0
  142.4812   74.9794  221.1832 H   0  0  0  0  0  0  0  0  0  0  0  0
  141.7320   75.1720  219.2220 C   0  0  0  0  0  0  0  0  0  0  0  0
  141.0410   74.3570  218.3750 N   0  0  0  0  0  0  0  0  0  0  0  0
  140.1560   74.8270  217.4610 C   0  0  0  0  0  0  0  0  0  0  0  0
  139.6196   74.1254  216.8052 H   0  0  0  0  0  0  0  0  0  0  0  0
  139.9250   76.1950  217.3510 C   0  0  0  0  0  0  0  0  0  0  0  0
  139.1998   76.5773  216.6176 H   0  0  0  0  0  0  0  0  0  0  0  0
  140.6220   77.0800  218.1800 C   0  0  0  0  0  0  0  0  0  0  0  0
  140.4110   78.4630  218.0680 C   0  0  0  0  0  0  0  0  0  0  0  0
  139.6853   78.8490  217.3370 H   0  0  0  0  0  0  0  0  0  0  0  0
  141.1180   79.3500  218.8800 C   0  0  0  0  0  0  0  0  0  0  0  0
  140.9453   80.4327  218.7903 H   0  0  0  0  0  0  0  0  0  0  0  0
  142.0440   78.8670  219.8060 C   0  0  0  0  0  0  0  0  0  0  0  0
  142.6029   79.5711  220.4400 H   0  0  0  0  0  0  0  0  0  0  0  0
  142.2640   77.4930  219.9310 C   0  0  0  0  0  0  0  0  0  0  0  0
  142.9990   77.1220  220.6605 H   0  0  0  0  0  0  0  0  0  0  0  0
  141.5500   76.5770  219.1280 C   0  0  0  0  0  0  0  0  0  0  0  0
  139.5050   75.7500  221.7680 C   0  0  0  0  0  0  0  0  0  0  0  0
  140.5840   76.2680  222.4210 N   0  0  0  0  0  0  0  0  0  0  0  0
  140.6790   77.5900  222.7240 C   0  0  0  0  0  0  0  0  0  0  0  0
  141.8050   78.0790  223.3950 C   0  0  0  0  0  0  0  0  0  0  0  0
  142.6164   77.3928  223.6790 H   0  0  0  0  0  0  0  0  0  0  0  0
  141.9000   79.4390  223.7050 C   0  0  0  0  0  0  0  0  0  0  0  0
  142.7862   79.8203  224.2335 H   0  0  0  0  0  0  0  0  0  0  0  0
  140.8710   80.3170  223.3450 C   0  0  0  0  0  0  0  0  0  0  0  0
  140.9690   81.6340  223.6490 F   0  0  0  0  0  0  0  0  0  0  0  0
  139.7400   79.8370  222.6740 C   0  0  0  0  0  0  0  0  0  0  0  0
  138.9319   80.5284  222.3931 H   0  0  0  0  0  0  0  0  0  0  0  0
  139.6380   78.4730  222.3600 C   0  0  0  0  0  0  0  0  0  0  0  0
  138.5220   77.9630  221.6880 C   0  0  0  0  0  0  0  0  0  0  0  0
  137.7012   78.6340  221.3947 H   0  0  0  0  0  0  0  0  0  0  0  0
  138.4520   76.5990  221.3900 C   0  0  0  0  0  0  0  0  0  0  0  0
  137.5766   76.1927  220.8621 H   0  0  0  0  0  0  0  0  0  0  0  0
  1  2  1  0
  2  3  1  0
  3  4  2  0
  4  5  1  0
  5  6  1  0
  5  7  1  0
  5  8  1  0
  8  9  2  0
  8 10  1  0
 10 11  1  0
 11 12  1  0
 11 13  1  0
 11 14  1  0
 14 15  1  6
 14 16  1  0
 16 17  1  0
 14 18  1  0
 18 19  1  0
 18 20  1  0
 18 21  1  0
 21 22  1  1
 21 23  1  0
 23 24  2  0
 24 25  1  0
 25 26  1  0
 25 27  2  0
 27 28  1  0
 27 29  1  0
 29 30  2  0
 30 31  1  0
 30 32  1  0
 32 33  1  0
 32 34  2  0
 34 35  1  0
 34 36  1  0
 36 37  1  0
 36 38  2  0
  3 39  1  0
 39 40  2  0
 40 41  1  0
 41 42  2  0
 42 43  1  0
 42 44  1  0
 44 45  1  0
 44 46  2  0
 46 47  1  0
 46 48  1  0
 48 49  1  0
 48 50  2  0
 50 51  1  0
 51 52  1  0
 51 53  2  0
 53 54  1  0
 21 10  1  0
 38 23  1  0
 53 39  1  0
 38 29  1  0
 50 41  1  0
M  END
>  <UniqueID>  (37) 
26

>  <SMILES>  (37) 
O=C(C/N=C(\O)c1ccc2cc(F)ccc2n1)N1C[C@H](O)C[C@H]1c1nccc2ccccc12

>  <Energy>  (37) 
67.92733207019938

>  <Genealogy>  (37) 
O=C(CN=C(O)c1ccc2cc(F)ccc2n1)N1C[C@H](O)C[C@H]1c1nccc2ccccc12 (tautomer)
O=C(C/N=C(\O)c1ccc2cc(F)ccc2n1)N1C[C@H](O)C[C@H]1c1nccc2ccccc12 (cis-trans isomerization)
O=C(C/N=C(\O)c1ccc2cc(F)ccc2n1)N1C[C@H](O)C[C@H]1c1nccc2ccccc12 (3D coordinates assigned)
O=C(C/N=C(\O)c1ccc2cc(F)ccc2n1)N1C[C@H](O)C[C@H]1c1nccc2ccccc12 (nonaromatic ring conformer: 67.92733207019938 kcal/mol)

>  <smiles>  (37) 
O=C(NCC(=O)N1C[C@H](O)C[C@H]1c1nccc2ccccc12)c1ccc2cc(F)ccc2n1

>  <score_type>  (37) 
oracle

>  <origin>  (37) 
autodockgpu

>  <m_score__min__energy>  (37) 
-9.0299999999999994

>  <m_primary>  (37) 
energy

>  <meeko>  (37) 
{"free_energy": -5.7, "intermolecular_energy": -8.09, "internal_energy": -4.6, "cluster_size": 9, "cluster_id": 4, "rank_in_cluster": 9}

>  <energy>  (37) 
-6.35

>  <cluster_rmsd>  (37) 
1.58

>  <rmsd>  (37) 
269.03

>  <cluster>  (37) 
4

$$$$
PTHZUPGKXGNJLI-VUCLPHKJNA-N
     RDKit          3D

 54 58  0  0  0  0  0  0  0  0999 V2000
  138.8920   74.0620  223.0840 H   0  0  0  0  0  0  0  0  0  0  0  0
  139.5970   73.7540  222.4280 O   0  0  0  0  0  0  0  0  0  0  0  0
  139.8960   72.4090  222.1940 C   0  0  0  0  0  0  0  0  0  0  0  0
  140.1340   71.9580  220.9940 N   0  0  0  0  0  0  0  0  0  0  0  0
  140.5360   72.7520  219.8350 C   0  0  0  0  0  0  0  0  0  0  0  0
  140.7365   73.7845  220.1570 H   0  0  0  0  0  0  0  0  0  0  0  0
  139.7223   72.7332  219.0950 H   0  0  0  0  0  0  0  0  0  0  0  0
  141.7760   72.1830  219.2030 C   0  0  0  0  0  0  0  0  0  0  0  0
  141.6580   71.2580  218.3550 O   0  0  0  0  0  0  0  0  0  0  0  0
  143.0880   72.6660  219.5530 N   0  0  0  0  0  0  0  0  0  0  0  0
  144.3310   72.0680  219.0910 C   0  0  0  0  0  0  0  0  0  0  0  0
  144.4331   71.0444  219.4806 H   0  0  0  0  0  0  0  0  0  0  0  0
  144.3671   71.9988  217.9938 H   0  0  0  0  0  0  0  0  0  0  0  0
  145.4430   72.9610  219.6390 C   0  0  2  0  0  0  0  0  0  0  0  0
  145.8426   73.6273  218.8603 H   0  0  0  0  0  0  0  0  0  0  0  0
  146.5320   72.2040  220.0960 O   0  0  0  0  0  0  0  0  0  0  0  0
  146.2730   71.8500  220.9870 H   0  0  0  0  0  0  0  0  0  0  0  0
  144.8040   73.7370  220.7900 C   0  0  0  0  0  0  0  0  0  0  0  0
  144.9811   73.2222  221.7458 H   0  0  0  0  0  0  0  0  0  0  0  0
  145.2286   74.7471  220.8867 H   0  0  0  0  0  0  0  0  0  0  0  0
  143.3080   73.7780  220.4740 C   0  0  1  0  0  0  0  0  0  0  0  0
  142.6926   73.6897  221.3815 H   0  0  0  0  0  0  0  0  0  0  0  0
  142.9220   75.1010  219.8330 C   0  0  0  0  0  0  0  0  0  0  0  0
  143.4940   75.4370  218.6410 N   0  0  0  0  0  0  0  0  0  0  0  0
  143.2210   76.5990  217.9970 C   0  0  0  0  0  0  0  0  0  0  0  0
  143.7061   76.8197  217.0347 H   0  0  0  0  0  0  0  0  0  0  0  0
  142.3290   77.5130  218.5500 C   0  0  0  0  0  0  0  0  0  0  0  0
  142.0984   78.4507  218.0231 H   0  0  0  0  0  0  0  0  0  0  0  0
  141.7280   77.2300  219.7810 C   0  0  0  0  0  0  0  0  0  0  0  0
  140.8400   78.1510  220.3570 C   0  0  0  0  0  0  0  0  0  0  0  0
  140.6058   79.0890  219.8324 H   0  0  0  0  0  0  0  0  0  0  0  0
  140.2530   77.8800  221.5940 C   0  0  0  0  0  0  0  0  0  0  0  0
  139.5540   78.6032  222.0395 H   0  0  0  0  0  0  0  0  0  0  0  0
  140.5500   76.6950  222.2670 C   0  0  0  0  0  0  0  0  0  0  0  0
  140.0888   76.4900  223.2444 H   0  0  0  0  0  0  0  0  0  0  0  0
  141.4310   75.7670  221.7050 C   0  0  0  0  0  0  0  0  0  0  0  0
  141.6616   74.8369  222.2451 H   0  0  0  0  0  0  0  0  0  0  0  0
  142.0270   76.0140  220.4500 C   0  0  0  0  0  0  0  0  0  0  0  0
  139.9440   71.4710  223.3310 C   0  0  0  0  0  0  0  0  0  0  0  0
  140.4310   71.8950  224.5320 N   0  0  0  0  0  0  0  0  0  0  0  0
  140.4920   71.0780  225.6170 C   0  0  0  0  0  0  0  0  0  0  0  0
  140.9980   71.5560  226.8310 C   0  0  0  0  0  0  0  0  0  0  0  0
  141.3473   72.5961  226.9093 H   0  0  0  0  0  0  0  0  0  0  0  0
  141.0600   70.7130  227.9440 C   0  0  0  0  0  0  0  0  0  0  0  0
  141.4590   71.0912  228.8968 H   0  0  0  0  0  0  0  0  0  0  0  0
  140.6160   69.3890  227.8500 C   0  0  0  0  0  0  0  0  0  0  0  0
  140.6780   68.5770  228.9330 F   0  0  0  0  0  0  0  0  0  0  0  0
  140.1080   68.9020  226.6410 C   0  0  0  0  0  0  0  0  0  0  0  0
  139.7598   67.8610  226.5696 H   0  0  0  0  0  0  0  0  0  0  0  0
  140.0430   69.7430  225.5190 C   0  0  0  0  0  0  0  0  0  0  0  0
  139.5400   69.2860  224.2960 C   0  0  0  0  0  0  0  0  0  0  0  0
  139.1853   68.2493  224.1989 H   0  0  0  0  0  0  0  0  0  0  0  0
  139.4890   70.1490  223.1980 C   0  0  0  0  0  0  0  0  0  0  0  0
  139.0944   69.7946  222.2343 H   0  0  0  0  0  0  0  0  0  0  0  0
  1  2  1  0
  2  3  1  0
  3  4  2  0
  4  5  1  0
  5  6  1  0
  5  7  1  0
  5  8  1  0
  8  9  2  0
  8 10  1  0
 10 11  1  0
 11 12  1  0
 11 13  1  0
 11 14  1  0
 14 15  1  6
 14 16  1  0
 16 17  1  0
 14 18  1  0
 18 19  1  0
 18 20  1  0
 18 21  1  0
 21 22  1  1
 21 23  1  0
 23 24  2  0
 24 25  1  0
 25 26  1  0
 25 27  2  0
 27 28  1  0
 27 29  1  0
 29 30  2  0
 30 31  1  0
 30 32  1  0
 32 33  1  0
 32 34  2  0
 34 35  1  0
 34 36  1  0
 36 37  1  0
 36 38  2  0
  3 39  1  0
 39 40  2  0
 40 41  1  0
 41 42  2  0
 42 43  1  0
 42 44  1  0
 44 45  1  0
 44 46  2  0
 46 47  1  0
 46 48  1  0
 48 49  1  0
 48 50  2  0
 50 51  1  0
 51 52  1  0
 51 53  2  0
 53 54  1  0
 21 10  1  0
 38 23  1  0
 53 39  1  0
 38 29  1  0
 50 41  1  0
M  END
>  <UniqueID>  (38) 
26

>  <SMILES>  (38) 
O=C(C/N=C(\O)c1ccc2cc(F)ccc2n1)N1C[C@H](O)C[C@H]1c1nccc2ccccc12

>  <Energy>  (38) 
67.92733207019938

>  <Genealogy>  (38) 
O=C(CN=C(O)c1ccc2cc(F)ccc2n1)N1C[C@H](O)C[C@H]1c1nccc2ccccc12 (tautomer)
O=C(C/N=C(\O)c1ccc2cc(F)ccc2n1)N1C[C@H](O)C[C@H]1c1nccc2ccccc12 (cis-trans isomerization)
O=C(C/N=C(\O)c1ccc2cc(F)ccc2n1)N1C[C@H](O)C[C@H]1c1nccc2ccccc12 (3D coordinates assigned)
O=C(C/N=C(\O)c1ccc2cc(F)ccc2n1)N1C[C@H](O)C[C@H]1c1nccc2ccccc12 (nonaromatic ring conformer: 67.92733207019938 kcal/mol)

>  <smiles>  (38) 
O=C(NCC(=O)N1C[C@H](O)C[C@H]1c1nccc2ccccc12)c1ccc2cc(F)ccc2n1

>  <score_type>  (38) 
oracle

>  <origin>  (38) 
autodockgpu

>  <m_score__min__energy>  (38) 
-9.0299999999999994

>  <m_primary>  (38) 
energy

>  <meeko>  (38) 
{"free_energy": -9.03, "intermolecular_energy": -11.42, "internal_energy": -1.65, "cluster_size": 3, "cluster_id": 1, "rank_in_cluster": 1}

>  <energy>  (38) 
-6.23

>  <cluster_rmsd>  (38) 
1.55

>  <rmsd>  (38) 
269.02

>  <cluster>  (38) 
4

$$$$
PTHZUPGKXGNJLI-VUCLPHKJNA-N
     RDKit          3D

 54 58  0  0  0  0  0  0  0  0999 V2000
  137.8820   73.6210  222.8190 H   0  0  0  0  0  0  0  0  0  0  0  0
  138.0410   72.7200  222.3890 O   0  0  0  0  0  0  0  0  0  0  0  0
  139.2500   72.0260  222.4810 C   0  0  0  0  0  0  0  0  0  0  0  0
  140.2030   72.1880  221.6070 N   0  0  0  0  0  0  0  0  0  0  0  0
  141.1750   73.2780  221.5790 C   0  0  0  0  0  0  0  0  0  0  0  0
  141.7868   73.1921  220.6689 H   0  0  0  0  0  0  0  0  0  0  0  0
  141.8091   73.2076  222.4751 H   0  0  0  0  0  0  0  0  0  0  0  0
  140.4820   74.6130  221.5830 C   0  0  0  0  0  0  0  0  0  0  0  0
  139.6120   74.8440  222.4650 O   0  0  0  0  0  0  0  0  0  0  0  0
  140.7840   75.6190  220.5970 N   0  0  0  0  0  0  0  0  0  0  0  0
  140.4600   75.5040  219.1830 C   0  0  0  0  0  0  0  0  0  0  0  0
  141.0147   74.6700  218.7283 H   0  0  0  0  0  0  0  0  0  0  0  0
  139.3903   75.3020  219.0249 H   0  0  0  0  0  0  0  0  0  0  0  0
  140.8840   76.8310  218.5570 C   0  0  2  0  0  0  0  0  0  0  0  0
  140.0174   77.4844  218.3781 H   0  0  0  0  0  0  0  0  0  0  0  0
  141.4880   76.6400  217.3050 O   0  0  0  0  0  0  0  0  0  0  0  0
  142.1090   75.8710  217.4100 H   0  0  0  0  0  0  0  0  0  0  0  0
  141.8730   77.4440  219.5460 C   0  0  0  0  0  0  0  0  0  0  0  0
  142.9050   77.1813  219.2705 H   0  0  0  0  0  0  0  0  0  0  0  0
  141.8135   78.5424  219.5550 H   0  0  0  0  0  0  0  0  0  0  0  0
  141.5140   76.8450  220.9070 C   0  0  1  0  0  0  0  0  0  0  0  0
  142.4065   76.6493  221.5195 H   0  0  0  0  0  0  0  0  0  0  0  0
  140.6540   77.8030  221.7150 C   0  0  0  0  0  0  0  0  0  0  0  0
  139.3050   77.6010  221.7400 N   0  0  0  0  0  0  0  0  0  0  0  0
  138.4540   78.4070  222.4250 C   0  0  0  0  0  0  0  0  0  0  0  0
  137.3742   78.1973  222.4173 H   0  0  0  0  0  0  0  0  0  0  0  0
  138.9440   79.4980  223.1370 C   0  0  0  0  0  0  0  0  0  0  0  0
  138.2568   80.1453  223.7016 H   0  0  0  0  0  0  0  0  0  0  0  0
  140.3170   79.7650  223.1290 C   0  0  0  0  0  0  0  0  0  0  0  0
  140.8220   80.8720  223.8280 C   0  0  0  0  0  0  0  0  0  0  0  0
  140.1381   81.5212  224.3944 H   0  0  0  0  0  0  0  0  0  0  0  0
  142.1890   81.1520  223.8070 C   0  0  0  0  0  0  0  0  0  0  0  0
  142.5800   82.0185  224.3605 H   0  0  0  0  0  0  0  0  0  0  0  0
  143.0610   80.3360  223.0860 C   0  0  0  0  0  0  0  0  0  0  0  0
  144.1368   80.5650  223.0684 H   0  0  0  0  0  0  0  0  0  0  0  0
  142.5740   79.2290  222.3860 C   0  0  0  0  0  0  0  0  0  0  0  0
  143.2691   78.5937  221.8175 H   0  0  0  0  0  0  0  0  0  0  0  0
  141.1970   78.9200  222.4030 C   0  0  0  0  0  0  0  0  0  0  0  0
  139.4590   71.0830  223.5970 C   0  0  0  0  0  0  0  0  0  0  0  0
  140.0390   71.5240  224.7500 N   0  0  0  0  0  0  0  0  0  0  0  0
  140.2490   70.7030  225.8130 C   0  0  0  0  0  0  0  0  0  0  0  0
  140.8460   71.1980  226.9770 C   0  0  0  0  0  0  0  0  0  0  0  0
  141.1475   72.2544  227.0332 H   0  0  0  0  0  0  0  0  0  0  0  0
  141.0600   70.3520  228.0690 C   0  0  0  0  0  0  0  0  0  0  0  0
  141.5300   70.7444  228.9829 H   0  0  0  0  0  0  0  0  0  0  0  0
  140.6780   69.0070  228.0030 C   0  0  0  0  0  0  0  0  0  0  0  0
  140.8880   68.1920  229.0640 F   0  0  0  0  0  0  0  0  0  0  0  0
  140.0790   68.5030  226.8430 C   0  0  0  0  0  0  0  0  0  0  0  0
  139.7792   67.4458  226.7933 H   0  0  0  0  0  0  0  0  0  0  0  0
  139.8610   69.3470  225.7430 C   0  0  0  0  0  0  0  0  0  0  0  0
  139.2640   68.8730  224.5700 C   0  0  0  0  0  0  0  0  0  0  0  0
  138.9558   67.8197  224.4951 H   0  0  0  0  0  0  0  0  0  0  0  0
  139.0600   69.7410  223.4930 C   0  0  0  0  0  0  0  0  0  0  0  0
  138.5893   69.3743  222.5689 H   0  0  0  0  0  0  0  0  0  0  0  0
  1  2  1  0
  2  3  1  0
  3  4  2  0
  4  5  1  0
  5  6  1  0
  5  7  1  0
  5  8  1  0
  8  9  2  0
  8 10  1  0
 10 11  1  0
 11 12  1  0
 11 13  1  0
 11 14  1  0
 14 15  1  6
 14 16  1  0
 16 17  1  0
 14 18  1  0
 18 19  1  0
 18 20  1  0
 18 21  1  0
 21 22  1  1
 21 23  1  0
 23 24  2  0
 24 25  1  0
 25 26  1  0
 25 27  2  0
 27 28  1  0
 27 29  1  0
 29 30  2  0
 30 31  1  0
 30 32  1  0
 32 33  1  0
 32 34  2  0
 34 35  1  0
 34 36  1  0
 36 37  1  0
 36 38  2  0
  3 39  1  0
 39 40  2  0
 40 41  1  0
 41 42  2  0
 42 43  1  0
 42 44  1  0
 44 45  1  0
 44 46  2  0
 46 47  1  0
 46 48  1  0
 48 49  1  0
 48 50  2  0
 50 51  1  0
 51 52  1  0
 51 53  2  0
 53 54  1  0
 21 10  1  0
 38 23  1  0
 53 39  1  0
 38 29  1  0
 50 41  1  0
M  END
>  <UniqueID>  (39) 
26

>  <SMILES>  (39) 
O=C(C/N=C(\O)c1ccc2cc(F)ccc2n1)N1C[C@H](O)C[C@H]1c1nccc2ccccc12

>  <Energy>  (39) 
67.92733207019938

>  <Genealogy>  (39) 
O=C(CN=C(O)c1ccc2cc(F)ccc2n1)N1C[C@H](O)C[C@H]1c1nccc2ccccc12 (tautomer)
O=C(C/N=C(\O)c1ccc2cc(F)ccc2n1)N1C[C@H](O)C[C@H]1c1nccc2ccccc12 (cis-trans isomerization)
O=C(C/N=C(\O)c1ccc2cc(F)ccc2n1)N1C[C@H](O)C[C@H]1c1nccc2ccccc12 (3D coordinates assigned)
O=C(C/N=C(\O)c1ccc2cc(F)ccc2n1)N1C[C@H](O)C[C@H]1c1nccc2ccccc12 (nonaromatic ring conformer: 67.92733207019938 kcal/mol)

>  <smiles>  (39) 
O=C(NCC(=O)N1C[C@H](O)C[C@H]1c1nccc2ccccc12)c1ccc2cc(F)ccc2n1

>  <score_type>  (39) 
oracle

>  <origin>  (39) 
autodockgpu

>  <m_score__min__energy>  (39) 
-9.0299999999999994

>  <m_primary>  (39) 
energy

>  <meeko>  (39) 
{"free_energy": -8.95, "intermolecular_energy": -11.34, "internal_energy": -1.84, "cluster_size": 6, "cluster_id": 2, "rank_in_cluster": 2}

>  <energy>  (39) 
-5.7

>  <cluster_rmsd>  (39) 
1.8

>  <rmsd>  (39) 
268.89

>  <cluster>  (39) 
4

$$$$
PTHZUPGKXGNJLI-VUCLPHKJNA-N
     RDKit          3D

 54 58  0  0  0  0  0  0  0  0999 V2000
  140.0820   73.4220  219.4850 H   0  0  0  0  0  0  0  0  0  0  0  0
  139.5210   74.0930  219.9910 O   0  0  0  0  0  0  0  0  0  0  0  0
  139.8900   74.6300  221.2270 C   0  0  0  0  0  0  0  0  0  0  0  0
  140.0160   73.8850  222.2890 N   0  0  0  0  0  0  0  0  0  0  0  0
  140.7760   72.6410  222.3880 C   0  0  0  0  0  0  0  0  0  0  0  0
  140.0906   71.8190  222.6420 H   0  0  0  0  0  0  0  0  0  0  0  0
  141.5415   72.7567  223.1695 H   0  0  0  0  0  0  0  0  0  0  0  0
  141.4600   72.3280  221.0860 C   0  0  0  0  0  0  0  0  0  0  0  0
  140.8920   71.5530  220.2710 O   0  0  0  0  0  0  0  0  0  0  0  0
  142.7480   72.8860  220.7610 N   0  0  0  0  0  0  0  0  0  0  0  0
  143.9970   72.1390  220.7970 C   0  0  0  0  0  0  0  0  0  0  0  0
  144.2226   71.8169  221.8243 H   0  0  0  0  0  0  0  0  0  0  0  0
  143.9463   71.2301  220.1794 H   0  0  0  0  0  0  0  0  0  0  0  0
  145.0670   73.1060  220.2940 C   0  0  2  0  0  0  0  0  0  0  0  0
  145.3382   72.8955  219.2490 H   0  0  0  0  0  0  0  0  0  0  0  0
  146.2540   72.9890  221.0330 O   0  0  0  0  0  0  0  0  0  0  0  0
  146.1370   72.2010  221.6260 H   0  0  0  0  0  0  0  0  0  0  0  0
  144.4610   74.4990  220.4640 C   0  0  0  0  0  0  0  0  0  0  0  0
  144.7631   74.9349  221.4277 H   0  0  0  0  0  0  0  0  0  0  0  0
  144.8008   75.1910  219.6793 H   0  0  0  0  0  0  0  0  0  0  0  0
  142.9460   74.2920  220.4220 C   0  0  1  0  0  0  0  0  0  0  0  0
  142.4200   74.9614  221.1186 H   0  0  0  0  0  0  0  0  0  0  0  0
  142.3910   74.6030  219.0410 C   0  0  0  0  0  0  0  0  0  0  0  0
  141.8930   73.5760  218.2940 N   0  0  0  0  0  0  0  0  0  0  0  0
  141.3860   73.7520  217.0480 C   0  0  0  0  0  0  0  0  0  0  0  0
  140.9928   72.8900  216.4891 H   0  0  0  0  0  0  0  0  0  0  0  0
  141.3620   75.0200  216.4750 C   0  0  0  0  0  0  0  0  0  0  0  0
  140.9403   75.1659  215.4696 H   0  0  0  0  0  0  0  0  0  0  0  0
  141.8780   76.1070  217.1870 C   0  0  0  0  0  0  0  0  0  0  0  0
  141.8760   77.3880  216.6140 C   0  0  0  0  0  0  0  0  0  0  0  0
  141.4536   77.5384  215.6095 H   0  0  0  0  0  0  0  0  0  0  0  0
  142.4080   78.4720  217.3140 C   0  0  0  0  0  0  0  0  0  0  0  0
  142.4008   79.4745  216.8612 H   0  0  0  0  0  0  0  0  0  0  0  0
  142.9490   78.2870  218.5870 C   0  0  0  0  0  0  0  0  0  0  0  0
  143.3711   79.1441  219.1322 H   0  0  0  0  0  0  0  0  0  0  0  0
  142.9570   77.0190  219.1720 C   0  0  0  0  0  0  0  0  0  0  0  0
  143.3896   76.8830  220.1742 H   0  0  0  0  0  0  0  0  0  0  0  0
  142.4140   75.9100  218.4870 C   0  0  0  0  0  0  0  0  0  0  0  0
  140.1460   76.0790  221.3380 C   0  0  0  0  0  0  0  0  0  0  0  0
  140.8420   76.5580  222.4080 N   0  0  0  0  0  0  0  0  0  0  0  0
  141.1150   77.8820  222.5590 C   0  0  0  0  0  0  0  0  0  0  0  0
  141.8340   78.3300  223.6720 C   0  0  0  0  0  0  0  0  0  0  0  0
  142.1802   77.6104  224.4285 H   0  0  0  0  0  0  0  0  0  0  0  0
  142.1130   79.6910  223.8240 C   0  0  0  0  0  0  0  0  0  0  0  0
  142.6784   80.0403  224.7005 H   0  0  0  0  0  0  0  0  0  0  0  0
  141.6750   80.6110  222.8640 C   0  0  0  0  0  0  0  0  0  0  0  0
  141.9480   81.9290  223.0180 F   0  0  0  0  0  0  0  0  0  0  0  0
  140.9550   80.1720  221.7480 C   0  0  0  0  0  0  0  0  0  0  0  0
  140.6106   80.8969  220.9957 H   0  0  0  0  0  0  0  0  0  0  0  0
  140.6720   78.8070  221.5880 C   0  0  0  0  0  0  0  0  0  0  0  0
  139.9550   78.3370  220.4820 C   0  0  0  0  0  0  0  0  0  0  0  0
  139.6001   79.0413  219.7152 H   0  0  0  0  0  0  0  0  0  0  0  0
  139.6910   76.9710  220.3540 C   0  0  0  0  0  0  0  0  0  0  0  0
  139.1290   76.5960  219.4859 H   0  0  0  0  0  0  0  0  0  0  0  0
  1  2  1  0
  2  3  1  0
  3  4  2  0
  4  5  1  0
  5  6  1  0
  5  7  1  0
  5  8  1  0
  8  9  2  0
  8 10  1  0
 10 11  1  0
 11 12  1  0
 11 13  1  0
 11 14  1  0
 14 15  1  6
 14 16  1  0
 16 17  1  0
 14 18  1  0
 18 19  1  0
 18 20  1  0
 18 21  1  0
 21 22  1  1
 21 23  1  0
 23 24  2  0
 24 25  1  0
 25 26  1  0
 25 27  2  0
 27 28  1  0
 27 29  1  0
 29 30  2  0
 30 31  1  0
 30 32  1  0
 32 33  1  0
 32 34  2  0
 34 35  1  0
 34 36  1  0
 36 37  1  0
 36 38  2  0
  3 39  1  0
 39 40  2  0
 40 41  1  0
 41 42  2  0
 42 43  1  0
 42 44  1  0
 44 45  1  0
 44 46  2  0
 46 47  1  0
 46 48  1  0
 48 49  1  0
 48 50  2  0
 50 51  1  0
 51 52  1  0
 51 53  2  0
 53 54  1  0
 21 10  1  0
 38 23  1  0
 53 39  1  0
 38 29  1  0
 50 41  1  0
M  END
>  <UniqueID>  (40) 
26

>  <SMILES>  (40) 
O=C(C/N=C(\O)c1ccc2cc(F)ccc2n1)N1C[C@H](O)C[C@H]1c1nccc2ccccc12

>  <Energy>  (40) 
67.92733207019938

>  <Genealogy>  (40) 
O=C(CN=C(O)c1ccc2cc(F)ccc2n1)N1C[C@H](O)C[C@H]1c1nccc2ccccc12 (tautomer)
O=C(C/N=C(\O)c1ccc2cc(F)ccc2n1)N1C[C@H](O)C[C@H]1c1nccc2ccccc12 (cis-trans isomerization)
O=C(C/N=C(\O)c1ccc2cc(F)ccc2n1)N1C[C@H](O)C[C@H]1c1nccc2ccccc12 (3D coordinates assigned)
O=C(C/N=C(\O)c1ccc2cc(F)ccc2n1)N1C[C@H](O)C[C@H]1c1nccc2ccccc12 (nonaromatic ring conformer: 67.92733207019938 kcal/mol)

>  <smiles>  (40) 
O=C(NCC(=O)N1C[C@H](O)C[C@H]1c1nccc2ccccc12)c1ccc2cc(F)ccc2n1

>  <score_type>  (40) 
oracle

>  <origin>  (40) 
autodockgpu

>  <m_score__min__energy>  (40) 
-9.0299999999999994

>  <m_primary>  (40) 
energy

>  <meeko>  (40) 
{"free_energy": -6.37, "intermolecular_energy": -8.75, "internal_energy": -4.14, "cluster_size": 9, "cluster_id": 4, "rank_in_cluster": 6}

>  <energy>  (40) 
-7.46

>  <cluster_rmsd>  (40) 
0.0

>  <rmsd>  (40) 
269.27

>  <cluster>  (40) 
5

$$$$
PTHZUPGKXGNJLI-NCDVCWAKNA-N
     RDKit          3D

 54 58  0  0  0  0  0  0  0  0999 V2000
  139.9770   70.7420  221.2110 O   0  0  0  0  0  0  0  0  0  0  0  0
  139.8700   71.3230  222.3270 C   0  0  0  0  0  0  0  0  0  0  0  0
  139.8070   72.7570  222.3840 N   0  0  0  0  0  0  0  0  0  0  0  0
  139.8820   73.5960  221.1890 C   0  0  0  0  0  0  0  0  0  0  0  0
  139.9720   75.0410  221.5840 C   0  0  0  0  0  0  0  0  0  0  0  0
  139.5630   75.3880  222.7250 O   0  0  0  0  0  0  0  0  0  0  0  0
  140.5380   76.0270  220.6980 N   0  0  0  0  0  0  0  0  0  0  0  0
  140.3460   76.0280  219.2550 C   0  0  0  0  0  0  0  0  0  0  0  0
  141.0840   77.2680  218.7490 C   0  0  2  0  0  0  0  0  0  0  0  0
  141.7480   77.0370  217.5310 O   0  0  0  0  0  0  0  0  0  0  0  0
  142.0470   77.6670  219.8720 C   0  0  0  0  0  0  0  0  0  0  0  0
  141.4400   77.0810  221.1510 C   0  0  1  0  0  0  0  0  0  0  0  0
  140.6850   78.1440  221.9330 C   0  0  0  0  0  0  0  0  0  0  0  0
  139.3230   78.0820  221.9640 N   0  0  0  0  0  0  0  0  0  0  0  0
  138.5610   78.9870  222.6270 C   0  0  0  0  0  0  0  0  0  0  0  0
  139.1610   80.0410  223.3110 C   0  0  0  0  0  0  0  0  0  0  0  0
  140.5540   80.1660  223.2950 C   0  0  0  0  0  0  0  0  0  0  0  0
  141.1720   81.2330  223.9650 C   0  0  0  0  0  0  0  0  0  0  0  0
  142.5610   81.3730  223.9360 C   0  0  0  0  0  0  0  0  0  0  0  0
  143.3420   80.4540  223.2360 C   0  0  0  0  0  0  0  0  0  0  0  0
  142.7440   79.3850  222.5650 C   0  0  0  0  0  0  0  0  0  0  0  0
  141.3410   79.2170  222.5910 C   0  0  0  0  0  0  0  0  0  0  0  0
  139.8180   70.5200  223.5680 C   0  0  0  0  0  0  0  0  0  0  0  0
  139.1890   69.2630  223.5940 C   0  0  0  0  0  0  0  0  0  0  0  0
  139.1600   68.5260  224.7790 C   0  0  0  0  0  0  0  0  0  0  0  0
  139.7560   69.0410  225.9360 C   0  0  0  0  0  0  0  0  0  0  0  0
  139.7450   68.3280  227.1430 C   0  0  0  0  0  0  0  0  0  0  0  0
  140.3500   68.8720  228.2820 C   0  0  0  0  0  0  0  0  0  0  0  0
  140.3390   68.1810  229.4490 F   0  0  0  0  0  0  0  0  0  0  0  0
  140.9660   70.1260  228.2190 C   0  0  0  0  0  0  0  0  0  0  0  0
  140.9820   70.8440  227.0180 C   0  0  0  0  0  0  0  0  0  0  0  0
  140.3800   70.3070  225.8750 C   0  0  0  0  0  0  0  0  0  0  0  0
  140.3920   71.0010  224.7060 N   0  0  0  0  0  0  0  0  0  0  0  0
  139.5850   73.2220  223.2930 H   0  0  0  0  0  0  0  0  0  0  0  0
  140.7733   73.3212  220.6058 H   0  0  0  0  0  0  0  0  0  0  0  0
  138.9780   73.4424  220.5814 H   0  0  0  0  0  0  0  0  0  0  0  0
  140.7726   75.1174  218.8092 H   0  0  0  0  0  0  0  0  0  0  0  0
  139.2801   76.0467  218.9838 H   0  0  0  0  0  0  0  0  0  0  0  0
  140.3798   78.0824  218.5237 H   0  0  0  0  0  0  0  0  0  0  0  0
  141.0660   77.0100  216.8100 H   0  0  0  0  0  0  0  0  0  0  0  0
  143.0464   77.2446  219.6910 H   0  0  0  0  0  0  0  0  0  0  0  0
  142.1704   78.7580  219.9386 H   0  0  0  0  0  0  0  0  0  0  0  0
  142.2138   76.6940  221.8303 H   0  0  0  0  0  0  0  0  0  0  0  0
  137.4655   78.8881  222.6244 H   0  0  0  0  0  0  0  0  0  0  0  0
  138.5449   80.7690  223.8591 H   0  0  0  0  0  0  0  0  0  0  0  0
  140.5595   81.9623  224.5154 H   0  0  0  0  0  0  0  0  0  0  0  0
  143.0399   82.2095  224.4661 H   0  0  0  0  0  0  0  0  0  0  0  0
  144.4354   80.5717  223.2121 H   0  0  0  0  0  0  0  0  0  0  0  0
  143.3696   78.6686  222.0123 H   0  0  0  0  0  0  0  0  0  0  0  0
  138.7210   68.8614  222.6831 H   0  0  0  0  0  0  0  0  0  0  0  0
  138.6694   67.5418  224.8036 H   0  0  0  0  0  0  0  0  0  0  0  0
  139.2611   67.3415  227.1950 H   0  0  0  0  0  0  0  0  0  0  0  0
  141.4397   70.5495  229.1169 H   0  0  0  0  0  0  0  0  0  0  0  0
  141.4676   71.8300  226.9727 H   0  0  0  0  0  0  0  0  0  0  0  0
  1  2  2  0
  2  3  1  0
  3  4  1  0
  4  5  1  0
  5  6  2  0
  5  7  1  0
  7  8  1  0
  8  9  1  0
  9 10  1  0
  9 11  1  0
 11 12  1  0
 12 13  1  0
 13 14  2  0
 14 15  1  0
 15 16  2  0
 16 17  1  0
 17 18  2  0
 18 19  1  0
 19 20  2  0
 20 21  1  0
 21 22  2  0
  2 23  1  0
 23 24  2  0
 24 25  1  0
 25 26  2  0
 26 27  1  0
 27 28  2  0
 28 29  1  0
 28 30  1  0
 30 31  2  0
 31 32  1  0
 32 33  2  0
 12  7  1  0
 22 13  1  0
 33 23  1  0
 22 17  1  0
 32 26  1  0
  3 34  1  0
  4 35  1  0
  4 36  1  0
  8 37  1  0
  8 38  1  0
  9 39  1  6
 10 40  1  0
 11 41  1  0
 11 42  1  0
 12 43  1  1
 15 44  1  0
 16 45  1  0
 18 46  1  0
 19 47  1  0
 20 48  1  0
 21 49  1  0
 24 50  1  0
 25 51  1  0
 27 52  1  0
 30 53  1  0
 31 54  1  0
M  END
>  <UniqueID>  (41) 
27

>  <SMILES>  (41) 
O=C(NCC(=O)N1C[C@H](O)C[C@H]1c1nccc2ccccc12)c1ccc2cc(F)ccc2n1

>  <Energy>  (41) 
68.07013114954229

>  <Genealogy>  (41) 
O=C(NCC(=O)N1C[C@H](O)C[C@H]1c1nccc2ccccc12)c1ccc2cc(F)ccc2n1 (3D coordinates assigned)
O=C(NCC(=O)N1C[C@H](O)C[C@H]1c1nccc2ccccc12)c1ccc2cc(F)ccc2n1 (nonaromatic ring conformer: 68.07013114954229 kcal/mol)

>  <smiles>  (41) 
O=C(NCC(=O)N1C[C@H](O)C[C@H]1c1nccc2ccccc12)c1ccc2cc(F)ccc2n1

>  <score_type>  (41) 
oracle

>  <origin>  (41) 
autodockgpu

>  <m_score__min__energy>  (41) 
-9.3699999999999992

>  <m_primary>  (41) 
energy

>  <meeko>  (41) 
{"free_energy": -9.32, "intermolecular_energy": -11.11, "internal_energy": -1.93, "cluster_size": 10, "cluster_id": 1, "rank_in_cluster": 3}

>  <energy>  (41) 
-9.37

>  <cluster_rmsd>  (41) 
0.0

>  <rmsd>  (41) 
270.43

>  <cluster>  (41) 
1

$$$$
PTHZUPGKXGNJLI-NCDVCWAKNA-N
     RDKit          3D

 54 58  0  0  0  0  0  0  0  0999 V2000
  141.1920   72.1600  221.4220 O   0  0  0  0  0  0  0  0  0  0  0  0
  140.4200   72.4750  222.3700 C   0  0  0  0  0  0  0  0  0  0  0  0
  139.7440   73.7420  222.3520 N   0  0  0  0  0  0  0  0  0  0  0  0
  139.9230   74.7150  221.2750 C   0  0  0  0  0  0  0  0  0  0  0  0
  139.0720   75.9240  221.5310 C   0  0  0  0  0  0  0  0  0  0  0  0
  138.4260   75.9980  222.6110 O   0  0  0  0  0  0  0  0  0  0  0  0
  139.0030   77.0070  220.5820 N   0  0  0  0  0  0  0  0  0  0  0  0
  138.0110   77.0940  219.5200 C   0  0  0  0  0  0  0  0  0  0  0  0
  138.2980   78.4160  218.8070 C   0  0  2  0  0  0  0  0  0  0  0  0
  138.1380   78.3190  217.4130 O   0  0  0  0  0  0  0  0  0  0  0  0
  139.7250   78.8040  219.2060 C   0  0  0  0  0  0  0  0  0  0  0  0
  139.9810   78.0890  220.5360 C   0  0  1  0  0  0  0  0  0  0  0  0
  139.7990   79.0380  221.7090 C   0  0  0  0  0  0  0  0  0  0  0  0
  138.5300   79.3640  222.0900 N   0  0  0  0  0  0  0  0  0  0  0  0
  138.2650   80.2070  223.1180 C   0  0  0  0  0  0  0  0  0  0  0  0
  139.3080   80.7880  223.8330 C   0  0  0  0  0  0  0  0  0  0  0  0
  140.6300   80.5070  223.4730 C   0  0  0  0  0  0  0  0  0  0  0  0
  141.6920   81.1000  224.1740 C   0  0  0  0  0  0  0  0  0  0  0  0
  143.0120   80.8370  223.8060 C   0  0  0  0  0  0  0  0  0  0  0  0
  143.2830   79.9870  222.7350 C   0  0  0  0  0  0  0  0  0  0  0  0
  142.2390   79.3870  222.0270 C   0  0  0  0  0  0  0  0  0  0  0  0
  140.8960   79.6290  222.3900 C   0  0  0  0  0  0  0  0  0  0  0  0
  140.2260   71.5380  223.4980 C   0  0  0  0  0  0  0  0  0  0  0  0
  139.5780   70.3040  223.3130 C   0  0  0  0  0  0  0  0  0  0  0  0
  139.4140   69.4370  224.3950 C   0  0  0  0  0  0  0  0  0  0  0  0
  139.8930   69.8010  225.6590 C   0  0  0  0  0  0  0  0  0  0  0  0
  139.7450   68.9540  226.7670 C   0  0  0  0  0  0  0  0  0  0  0  0
  140.2350   69.3480  228.0170 C   0  0  0  0  0  0  0  0  0  0  0  0
  140.0920   68.5290  229.0880 F   0  0  0  0  0  0  0  0  0  0  0  0
  140.8750   70.5840  228.1650 C   0  0  0  0  0  0  0  0  0  0  0  0
  141.0270   71.4330  227.0630 C   0  0  0  0  0  0  0  0  0  0  0  0
  140.5400   71.0470  225.8100 C   0  0  0  0  0  0  0  0  0  0  0  0
  140.6850   71.8700  224.7370 N   0  0  0  0  0  0  0  0  0  0  0  0
  139.0080   73.9380  223.0680 H   0  0  0  0  0  0  0  0  0  0  0  0
  140.9799   75.0164  221.2279 H   0  0  0  0  0  0  0  0  0  0  0  0
  139.6235   74.2574  220.3206 H   0  0  0  0  0  0  0  0  0  0  0  0
  138.1174   76.2495  218.8233 H   0  0  0  0  0  0  0  0  0  0  0  0
  136.9845   77.0547  219.9134 H   0  0  0  0  0  0  0  0  0  0  0  0
  137.5790   79.1920  219.1086 H   0  0  0  0  0  0  0  0  0  0  0  0
  138.6210   77.5080  217.1050 H   0  0  0  0  0  0  0  0  0  0  0  0
  140.4432   78.4681  218.4435 H   0  0  0  0  0  0  0  0  0  0  0  0
  139.8437   79.8938  219.2966 H   0  0  0  0  0  0  0  0  0  0  0  0
  141.0121   77.7122  220.6061 H   0  0  0  0  0  0  0  0  0  0  0  0
  137.2227   80.4324  223.3877 H   0  0  0  0  0  0  0  0  0  0  0  0
  139.0944   81.4631  224.6748 H   0  0  0  0  0  0  0  0  0  0  0  0
  141.4826   81.7749  225.0170 H   0  0  0  0  0  0  0  0  0  0  0  0
  143.8400   81.3011  224.3619 H   0  0  0  0  0  0  0  0  0  0  0  0
  144.3253   79.7875  222.4456 H   0  0  0  0  0  0  0  0  0  0  0  0
  142.4646   78.7214  221.1808 H   0  0  0  0  0  0  0  0  0  0  0  0
  139.2013   70.0225  222.3186 H   0  0  0  0  0  0  0  0  0  0  0  0
  138.9094   68.4697  224.2545 H   0  0  0  0  0  0  0  0  0  0  0  0
  139.2443   67.9812  226.6535 H   0  0  0  0  0  0  0  0  0  0  0  0
  141.2593   70.8886  229.1496 H   0  0  0  0  0  0  0  0  0  0  0  0
  141.5296   72.4042  227.1823 H   0  0  0  0  0  0  0  0  0  0  0  0
  1  2  2  0
  2  3  1  0
  3  4  1  0
  4  5  1  0
  5  6  2  0
  5  7  1  0
  7  8  1  0
  8  9  1  0
  9 10  1  0
  9 11  1  0
 11 12  1  0
 12 13  1  0
 13 14  2  0
 14 15  1  0
 15 16  2  0
 16 17  1  0
 17 18  2  0
 18 19  1  0
 19 20  2  0
 20 21  1  0
 21 22  2  0
  2 23  1  0
 23 24  2  0
 24 25  1  0
 25 26  2  0
 26 27  1  0
 27 28  2  0
 28 29  1  0
 28 30  1  0
 30 31  2  0
 31 32  1  0
 32 33  2  0
 12  7  1  0
 22 13  1  0
 33 23  1  0
 22 17  1  0
 32 26  1  0
  3 34  1  0
  4 35  1  0
  4 36  1  0
  8 37  1  0
  8 38  1  0
  9 39  1  1
 10 40  1  0
 11 41  1  0
 11 42  1  0
 12 43  1  6
 15 44  1  0
 16 45  1  0
 18 46  1  0
 19 47  1  0
 20 48  1  0
 21 49  1  0
 24 50  1  0
 25 51  1  0
 27 52  1  0
 30 53  1  0
 31 54  1  0
M  END
>  <UniqueID>  (42) 
27

>  <SMILES>  (42) 
O=C(NCC(=O)N1C[C@H](O)C[C@H]1c1nccc2ccccc12)c1ccc2cc(F)ccc2n1

>  <Energy>  (42) 
68.07013114954229

>  <Genealogy>  (42) 
O=C(NCC(=O)N1C[C@H](O)C[C@H]1c1nccc2ccccc12)c1ccc2cc(F)ccc2n1 (3D coordinates assigned)
O=C(NCC(=O)N1C[C@H](O)C[C@H]1c1nccc2ccccc12)c1ccc2cc(F)ccc2n1 (nonaromatic ring conformer: 68.07013114954229 kcal/mol)

>  <smiles>  (42) 
O=C(NCC(=O)N1C[C@H](O)C[C@H]1c1nccc2ccccc12)c1ccc2cc(F)ccc2n1

>  <score_type>  (42) 
oracle

>  <origin>  (42) 
autodockgpu

>  <m_score__min__energy>  (42) 
-9.3699999999999992

>  <m_primary>  (42) 
energy

>  <meeko>  (42) 
{"free_energy": -8.75, "intermolecular_energy": -10.54, "internal_energy": -1.94, "cluster_size": 10, "cluster_id": 1, "rank_in_cluster": 9}

>  <energy>  (42) 
-9.32

>  <cluster_rmsd>  (42) 
0.82

>  <rmsd>  (42) 
270.36

>  <cluster>  (42) 
1

$$$$
PTHZUPGKXGNJLI-NCDVCWAKNA-N
     RDKit          3D

 54 58  0  0  0  0  0  0  0  0999 V2000
  140.0640   71.7780  220.9970 O   0  0  0  0  0  0  0  0  0  0  0  0
  139.9270   72.2870  222.1440 C   0  0  0  0  0  0  0  0  0  0  0  0
  139.7610   73.7070  222.2810 N   0  0  0  0  0  0  0  0  0  0  0  0
  139.7610   74.6140  221.1350 C   0  0  0  0  0  0  0  0  0  0  0  0
  141.1720   74.9300  220.7320 C   0  0  0  0  0  0  0  0  0  0  0  0
  142.0970   74.1540  221.0930 O   0  0  0  0  0  0  0  0  0  0  0  0
  141.4800   76.0830  219.9240 N   0  0  0  0  0  0  0  0  0  0  0  0
  141.3210   76.1260  218.4770 C   0  0  0  0  0  0  0  0  0  0  0  0
  141.7210   77.5440  218.0690 C   0  0  2  0  0  0  0  0  0  0  0  0
  142.4450   77.5700  216.8630 O   0  0  0  0  0  0  0  0  0  0  0  0
  142.5270   78.1050  219.2450 C   0  0  0  0  0  0  0  0  0  0  0  0
  142.0680   77.3030  220.4670 C   0  0  1  0  0  0  0  0  0  0  0  0
  141.0500   78.0840  221.2810 C   0  0  0  0  0  0  0  0  0  0  0  0
  139.7260   77.8060  221.1030 N   0  0  0  0  0  0  0  0  0  0  0  0
  138.7430   78.4530  221.7770 C   0  0  0  0  0  0  0  0  0  0  0  0
  139.0610   79.4520  222.6920 C   0  0  0  0  0  0  0  0  0  0  0  0
  140.4020   79.7930  222.8990 C   0  0  0  0  0  0  0  0  0  0  0  0
  140.7360   80.8110  223.8050 C   0  0  0  0  0  0  0  0  0  0  0  0
  142.0720   81.1680  224.0010 C   0  0  0  0  0  0  0  0  0  0  0  0
  143.0810   80.5170  223.2920 C   0  0  0  0  0  0  0  0  0  0  0  0
  142.7660   79.5010  222.3870 C   0  0  0  0  0  0  0  0  0  0  0  0
  141.4220   79.1150  222.1820 C   0  0  0  0  0  0  0  0  0  0  0  0
  139.9480   71.4150  223.3390 C   0  0  0  0  0  0  0  0  0  0  0  0
  139.4630   70.0970  223.2840 C   0  0  0  0  0  0  0  0  0  0  0  0
  139.4990   69.2960  224.4270 C   0  0  0  0  0  0  0  0  0  0  0  0
  140.0180   69.8090  225.6220 C   0  0  0  0  0  0  0  0  0  0  0  0
  140.0700   69.0320  226.7880 C   0  0  0  0  0  0  0  0  0  0  0  0
  140.5940   69.5760  227.9670 C   0  0  0  0  0  0  0  0  0  0  0  0
  140.6440   68.8240  229.0940 F   0  0  0  0  0  0  0  0  0  0  0  0
  141.0670   70.8920  227.9850 C   0  0  0  0  0  0  0  0  0  0  0  0
  141.0190   71.6720  226.8240 C   0  0  0  0  0  0  0  0  0  0  0  0
  140.4970   71.1370  225.6420 C   0  0  0  0  0  0  0  0  0  0  0  0
  140.4480   71.8920  224.5130 N   0  0  0  0  0  0  0  0  0  0  0  0
  139.5160   74.1040  223.2170 H   0  0  0  0  0  0  0  0  0  0  0  0
  139.2395   74.1366  220.2923 H   0  0  0  0  0  0  0  0  0  0  0  0
  139.2465   75.5461  221.4115 H   0  0  0  0  0  0  0  0  0  0  0  0
  141.9777   75.3867  217.9951 H   0  0  0  0  0  0  0  0  0  0  0  0
  140.2923   75.8858  218.1702 H   0  0  0  0  0  0  0  0  0  0  0  0
  140.8338   78.1622  217.8672 H   0  0  0  0  0  0  0  0  0  0  0  0
  143.0580   78.3510  216.8900 H   0  0  0  0  0  0  0  0  0  0  0  0
  143.6048   77.9657  219.0750 H   0  0  0  0  0  0  0  0  0  0  0  0
  142.3632   79.1847  219.3772 H   0  0  0  0  0  0  0  0  0  0  0  0
  142.9019   77.0859  221.1507 H   0  0  0  0  0  0  0  0  0  0  0  0
  137.6904   78.1871  221.5997 H   0  0  0  0  0  0  0  0  0  0  0  0
  138.2649   79.9691  223.2477 H   0  0  0  0  0  0  0  0  0  0  0  0
  139.9427   81.3299  224.3630 H   0  0  0  0  0  0  0  0  0  0  0  0
  142.3287   81.9638  224.7157 H   0  0  0  0  0  0  0  0  0  0  0  0
  144.1312   80.8054  223.4464 H   0  0  0  0  0  0  0  0  0  0  0  0
  143.5698   78.9976  221.8297 H   0  0  0  0  0  0  0  0  0  0  0  0
  139.0562   69.6977  222.3432 H   0  0  0  0  0  0  0  0  0  0  0  0
  139.1204   68.2639  224.3888 H   0  0  0  0  0  0  0  0  0  0  0  0
  139.6996   67.9963  226.7765 H   0  0  0  0  0  0  0  0  0  0  0  0
  141.4777   71.3149  228.9137 H   0  0  0  0  0  0  0  0  0  0  0  0
  141.3921   72.7066  226.8412 H   0  0  0  0  0  0  0  0  0  0  0  0
  1  2  2  0
  2  3  1  0
  3  4  1  0
  4  5  1  0
  5  6  2  0
  5  7  1  0
  7  8  1  0
  8  9  1  0
  9 10  1  0
  9 11  1  0
 11 12  1  0
 12 13  1  0
 13 14  2  0
 14 15  1  0
 15 16  2  0
 16 17  1  0
 17 18  2  0
 18 19  1  0
 19 20  2  0
 20 21  1  0
 21 22  2  0
  2 23  1  0
 23 24  2  0
 24 25  1  0
 25 26  2  0
 26 27  1  0
 27 28  2  0
 28 29  1  0
 28 30  1  0
 30 31  2  0
 31 32  1  0
 32 33  2  0
 12  7  1  0
 22 13  1  0
 33 23  1  0
 22 17  1  0
 32 26  1  0
  3 34  1  0
  4 35  1  0
  4 36  1  0
  8 37  1  0
  8 38  1  0
  9 39  1  6
 10 40  1  0
 11 41  1  0
 11 42  1  0
 12 43  1  1
 15 44  1  0
 16 45  1  0
 18 46  1  0
 19 47  1  0
 20 48  1  0
 21 49  1  0
 24 50  1  0
 25 51  1  0
 27 52  1  0
 30 53  1  0
 31 54  1  0
M  END
>  <UniqueID>  (43) 
27

>  <SMILES>  (43) 
O=C(NCC(=O)N1C[C@H](O)C[C@H]1c1nccc2ccccc12)c1ccc2cc(F)ccc2n1

>  <Energy>  (43) 
68.07013114954229

>  <Genealogy>  (43) 
O=C(NCC(=O)N1C[C@H](O)C[C@H]1c1nccc2ccccc12)c1ccc2cc(F)ccc2n1 (3D coordinates assigned)
O=C(NCC(=O)N1C[C@H](O)C[C@H]1c1nccc2ccccc12)c1ccc2cc(F)ccc2n1 (nonaromatic ring conformer: 68.07013114954229 kcal/mol)

>  <smiles>  (43) 
O=C(NCC(=O)N1C[C@H](O)C[C@H]1c1nccc2ccccc12)c1ccc2cc(F)ccc2n1

>  <score_type>  (43) 
oracle

>  <origin>  (43) 
autodockgpu

>  <m_score__min__energy>  (43) 
-9.3699999999999992

>  <m_primary>  (43) 
energy

>  <meeko>  (43) 
{"free_energy": -9.08, "intermolecular_energy": -10.87, "internal_energy": -1.55, "cluster_size": 10, "cluster_id": 1, "rank_in_cluster": 7}

>  <energy>  (43) 
-9.32

>  <cluster_rmsd>  (43) 
0.85

>  <rmsd>  (43) 
270.35

>  <cluster>  (43) 
1

$$$$
PTHZUPGKXGNJLI-NCDVCWAKNA-N
     RDKit          3D

 54 58  0  0  0  0  0  0  0  0999 V2000
  139.7980   70.8390  221.1650 O   0  0  0  0  0  0  0  0  0  0  0  0
  139.7590   71.4130  222.2880 C   0  0  0  0  0  0  0  0  0  0  0  0
  139.7320   72.8480  222.3570 N   0  0  0  0  0  0  0  0  0  0  0  0
  139.7660   73.6940  221.1660 C   0  0  0  0  0  0  0  0  0  0  0  0
  139.9620   75.1280  221.5630 C   0  0  0  0  0  0  0  0  0  0  0  0
  139.6250   75.4920  222.7220 O   0  0  0  0  0  0  0  0  0  0  0  0
  140.5500   76.0830  220.6570 N   0  0  0  0  0  0  0  0  0  0  0  0
  140.3840   76.0390  219.2110 C   0  0  0  0  0  0  0  0  0  0  0  0
  141.1380   77.2600  218.6810 C   0  0  2  0  0  0  0  0  0  0  0  0
  141.8240   76.9880  217.4830 O   0  0  0  0  0  0  0  0  0  0  0  0
  142.0810   77.6900  219.8090 C   0  0  0  0  0  0  0  0  0  0  0  0
  141.4470   77.1480  221.0940 C   0  0  1  0  0  0  0  0  0  0  0  0
  140.6830   78.2380  221.8270 C   0  0  0  0  0  0  0  0  0  0  0  0
  139.3200   78.2340  221.7580 N   0  0  0  0  0  0  0  0  0  0  0  0
  138.5510   79.1680  222.3710 C   0  0  0  0  0  0  0  0  0  0  0  0
  139.1430   80.1900  223.1050 C   0  0  0  0  0  0  0  0  0  0  0  0
  140.5380   80.2560  223.1930 C   0  0  0  0  0  0  0  0  0  0  0  0
  141.1490   81.2920  223.9160 C   0  0  0  0  0  0  0  0  0  0  0  0
  142.5410   81.3720  223.9900 C   0  0  0  0  0  0  0  0  0  0  0  0
  143.3310   80.4240  223.3420 C   0  0  0  0  0  0  0  0  0  0  0  0
  142.7400   79.3850  222.6190 C   0  0  0  0  0  0  0  0  0  0  0  0
  141.3330   79.2780  222.5400 C   0  0  0  0  0  0  0  0  0  0  0  0
  139.7510   70.6030  223.5250 C   0  0  0  0  0  0  0  0  0  0  0  0
  139.1880   69.3140  223.5450 C   0  0  0  0  0  0  0  0  0  0  0  0
  139.2000   68.5700  224.7260 C   0  0  0  0  0  0  0  0  0  0  0  0
  139.7690   69.1100  225.8850 C   0  0  0  0  0  0  0  0  0  0  0  0
  139.7980   68.3910  227.0890 C   0  0  0  0  0  0  0  0  0  0  0  0
  140.3740   68.9600  228.2300 C   0  0  0  0  0  0  0  0  0  0  0  0
  140.4010   68.2640  229.3930 F   0  0  0  0  0  0  0  0  0  0  0  0
  140.9240   70.2450  228.1730 C   0  0  0  0  0  0  0  0  0  0  0  0
  140.9000   70.9690  226.9760 C   0  0  0  0  0  0  0  0  0  0  0  0
  140.3260   70.4070  225.8310 C   0  0  0  0  0  0  0  0  0  0  0  0
  140.3000   71.1070  224.6660 N   0  0  0  0  0  0  0  0  0  0  0  0
  139.5650   73.3110  223.2790 H   0  0  0  0  0  0  0  0  0  0  0  0
  140.5969   73.3782  220.5180 H   0  0  0  0  0  0  0  0  0  0  0  0
  138.8136   73.5952  220.6245 H   0  0  0  0  0  0  0  0  0  0  0  0
  140.8141   75.1130  218.8018 H   0  0  0  0  0  0  0  0  0  0  0  0
  139.3235   76.0533  218.9192 H   0  0  0  0  0  0  0  0  0  0  0  0
  140.4423   78.0702  218.4172 H   0  0  0  0  0  0  0  0  0  0  0  0
  142.5700   77.6370  217.4030 H   0  0  0  0  0  0  0  0  0  0  0  0
  143.0815   77.2575  219.6608 H   0  0  0  0  0  0  0  0  0  0  0  0
  142.2084   78.7821  219.8434 H   0  0  0  0  0  0  0  0  0  0  0  0
  142.2053   76.7801  221.8008 H   0  0  0  0  0  0  0  0  0  0  0  0
  137.4554   79.1169  222.2873 H   0  0  0  0  0  0  0  0  0  0  0  0
  138.5195   80.9408  223.6125 H   0  0  0  0  0  0  0  0  0  0  0  0
  140.5290   82.0438  224.4263 H   0  0  0  0  0  0  0  0  0  0  0  0
  143.0149   82.1844  224.5605 H   0  0  0  0  0  0  0  0  0  0  0  0
  144.4272   80.4944  223.4003 H   0  0  0  0  0  0  0  0  0  0  0  0
  143.3738   78.6454  222.1079 H   0  0  0  0  0  0  0  0  0  0  0  0
  138.7397   68.8936  222.6327 H   0  0  0  0  0  0  0  0  0  0  0  0
  138.7629   67.5608  224.7457 H   0  0  0  0  0  0  0  0  0  0  0  0
  139.3679   67.3797  227.1361 H   0  0  0  0  0  0  0  0  0  0  0  0
  141.3769   70.6877  229.0724 H   0  0  0  0  0  0  0  0  0  0  0  0
  141.3323   71.9797  226.9354 H   0  0  0  0  0  0  0  0  0  0  0  0
  1  2  2  0
  2  3  1  0
  3  4  1  0
  4  5  1  0
  5  6  2  0
  5  7  1  0
  7  8  1  0
  8  9  1  0
  9 10  1  0
  9 11  1  0
 11 12  1  0
 12 13  1  0
 13 14  2  0
 14 15  1  0
 15 16  2  0
 16 17  1  0
 17 18  2  0
 18 19  1  0
 19 20  2  0
 20 21  1  0
 21 22  2  0
  2 23  1  0
 23 24  2  0
 24 25  1  0
 25 26  2  0
 26 27  1  0
 27 28  2  0
 28 29  1  0
 28 30  1  0
 30 31  2  0
 31 32  1  0
 32 33  2  0
 12  7  1  0
 22 13  1  0
 33 23  1  0
 22 17  1  0
 32 26  1  0
  3 34  1  0
  4 35  1  0
  4 36  1  0
  8 37  1  0
  8 38  1  0
  9 39  1  6
 10 40  1  0
 11 41  1  0
 11 42  1  0
 12 43  1  1
 15 44  1  0
 16 45  1  0
 18 46  1  0
 19 47  1  0
 20 48  1  0
 21 49  1  0
 24 50  1  0
 25 51  1  0
 27 52  1  0
 30 53  1  0
 31 54  1  0
M  END
>  <UniqueID>  (44) 
27

>  <SMILES>  (44) 
O=C(NCC(=O)N1C[C@H](O)C[C@H]1c1nccc2ccccc12)c1ccc2cc(F)ccc2n1

>  <Energy>  (44) 
68.07013114954229

>  <Genealogy>  (44) 
O=C(NCC(=O)N1C[C@H](O)C[C@H]1c1nccc2ccccc12)c1ccc2cc(F)ccc2n1 (3D coordinates assigned)
O=C(NCC(=O)N1C[C@H](O)C[C@H]1c1nccc2ccccc12)c1ccc2cc(F)ccc2n1 (nonaromatic ring conformer: 68.07013114954229 kcal/mol)

>  <smiles>  (44) 
O=C(NCC(=O)N1C[C@H](O)C[C@H]1c1nccc2ccccc12)c1ccc2cc(F)ccc2n1

>  <score_type>  (44) 
oracle

>  <origin>  (44) 
autodockgpu

>  <m_score__min__energy>  (44) 
-9.3699999999999992

>  <m_primary>  (44) 
energy

>  <meeko>  (44) 
{"free_energy": -9.29, "intermolecular_energy": -11.08, "internal_energy": -1.96, "cluster_size": 10, "cluster_id": 1, "rank_in_cluster": 4}

>  <energy>  (44) 
-9.29

>  <cluster_rmsd>  (44) 
0.79

>  <rmsd>  (44) 
270.36

>  <cluster>  (44) 
1

$$$$
PTHZUPGKXGNJLI-NCDVCWAKNA-N
     RDKit          3D

 54 58  0  0  0  0  0  0  0  0999 V2000
  136.2030   72.2560  221.5020 O   0  0  0  0  0  0  0  0  0  0  0  0
  137.1290   72.4320  222.3410 C   0  0  0  0  0  0  0  0  0  0  0  0
  137.0060   71.8880  223.6650 N   0  0  0  0  0  0  0  0  0  0  0  0
  135.8280   71.1410  224.1040 C   0  0  0  0  0  0  0  0  0  0  0  0
  136.0910   69.6670  224.0060 C   0  0  0  0  0  0  0  0  0  0  0  0
  135.3020   68.8670  224.5780 O   0  0  0  0  0  0  0  0  0  0  0  0
  137.2070   69.1530  223.2530 N   0  0  0  0  0  0  0  0  0  0  0  0
  137.2570   69.1150  221.7980 C   0  0  0  0  0  0  0  0  0  0  0  0
  138.6310   68.5390  221.4550 C   0  0  2  0  0  0  0  0  0  0  0  0
  138.5860   67.6630  220.3560 O   0  0  0  0  0  0  0  0  0  0  0  0
  139.1240   67.8490  222.7310 C   0  0  0  0  0  0  0  0  0  0  0  0
  138.3730   68.5350  223.8770 C   0  0  1  0  0  0  0  0  0  0  0  0
  139.2460   69.5780  224.5550 C   0  0  0  0  0  0  0  0  0  0  0  0
  139.5660   70.7070  223.8590 N   0  0  0  0  0  0  0  0  0  0  0  0
  140.3450   71.6910  224.3740 C   0  0  0  0  0  0  0  0  0  0  0  0
  140.8600   71.5740  225.6610 C   0  0  0  0  0  0  0  0  0  0  0  0
  140.5820   70.4280  226.4120 C   0  0  0  0  0  0  0  0  0  0  0  0
  141.1100   70.2880  227.7060 C   0  0  0  0  0  0  0  0  0  0  0  0
  140.8500   69.1380  228.4510 C   0  0  0  0  0  0  0  0  0  0  0  0
  140.0670   68.1170  227.9130 C   0  0  0  0  0  0  0  0  0  0  0  0
  139.5320   68.2390  226.6280 C   0  0  0  0  0  0  0  0  0  0  0  0
  139.7720   69.4000  225.8600 C   0  0  0  0  0  0  0  0  0  0  0  0
  138.3300   73.2040  221.9570 C   0  0  0  0  0  0  0  0  0  0  0  0
  138.3240   74.6090  221.9690 C   0  0  0  0  0  0  0  0  0  0  0  0
  139.4750   75.3110  221.6050 C   0  0  0  0  0  0  0  0  0  0  0  0
  140.6290   74.6130  221.2300 C   0  0  0  0  0  0  0  0  0  0  0  0
  141.8010   75.2860  220.8590 C   0  0  0  0  0  0  0  0  0  0  0  0
  142.9380   74.5580  220.4890 C   0  0  0  0  0  0  0  0  0  0  0  0
  144.0720   75.2090  220.1300 F   0  0  0  0  0  0  0  0  0  0  0  0
  142.9070   73.1590  220.4880 C   0  0  0  0  0  0  0  0  0  0  0  0
  141.7400   72.4810  220.8570 C   0  0  0  0  0  0  0  0  0  0  0  0
  140.6000   73.2010  221.2290 C   0  0  0  0  0  0  0  0  0  0  0  0
  139.4650   72.5450  221.5880 N   0  0  0  0  0  0  0  0  0  0  0  0
  137.8290   71.9220  224.3090 H   0  0  0  0  0  0  0  0  0  0  0  0
  135.5991   71.4018  225.1478 H   0  0  0  0  0  0  0  0  0  0  0  0
  134.9748   71.3998  223.4598 H   0  0  0  0  0  0  0  0  0  0  0  0
  136.4591   68.4695  221.4020 H   0  0  0  0  0  0  0  0  0  0  0  0
  137.1091   70.1118  221.3570 H   0  0  0  0  0  0  0  0  0  0  0  0
  139.3248   69.3327  221.1410 H   0  0  0  0  0  0  0  0  0  0  0  0
  137.7070   67.7780  219.9080 H   0  0  0  0  0  0  0  0  0  0  0  0
  138.8881   66.7749  222.7041 H   0  0  0  0  0  0  0  0  0  0  0  0
  140.2147   67.9323  222.8473 H   0  0  0  0  0  0  0  0  0  0  0  0
  138.0864   67.8212  224.6634 H   0  0  0  0  0  0  0  0  0  0  0  0
  140.5701   72.5839  223.7723 H   0  0  0  0  0  0  0  0  0  0  0  0
  141.4812   72.3770  226.0845 H   0  0  0  0  0  0  0  0  0  0  0  0
  141.7312   71.0888  228.1336 H   0  0  0  0  0  0  0  0  0  0  0  0
  141.2635   69.0361  229.4652 H   0  0  0  0  0  0  0  0  0  0  0  0
  139.8694   67.2103  228.5037 H   0  0  0  0  0  0  0  0  0  0  0  0
  138.9198   67.4255  226.2116 H   0  0  0  0  0  0  0  0  0  0  0  0
  137.4154   75.1543  222.2642 H   0  0  0  0  0  0  0  0  0  0  0  0
  139.4748   76.4110  221.6129 H   0  0  0  0  0  0  0  0  0  0  0  0
  141.8274   76.3857  220.8585 H   0  0  0  0  0  0  0  0  0  0  0  0
  143.8025   72.5907  220.1963 H   0  0  0  0  0  0  0  0  0  0  0  0
  141.7191   71.3812  220.8545 H   0  0  0  0  0  0  0  0  0  0  0  0
  1  2  2  0
  2  3  1  0
  3  4  1  0
  4  5  1  0
  5  6  2  0
  5  7  1  0
  7  8  1  0
  8  9  1  0
  9 10  1  0
  9 11  1  0
 11 12  1  0
 12 13  1  0
 13 14  2  0
 14 15  1  0
 15 16  2  0
 16 17  1  0
 17 18  2  0
 18 19  1  0
 19 20  2  0
 20 21  1  0
 21 22  2  0
  2 23  1  0
 23 24  2  0
 24 25  1  0
 25 26  2  0
 26 27  1  0
 27 28  2  0
 28 29  1  0
 28 30  1  0
 30 31  2  0
 31 32  1  0
 32 33  2  0
 12  7  1  0
 22 13  1  0
 33 23  1  0
 22 17  1  0
 32 26  1  0
  3 34  1  0
  4 35  1  0
  4 36  1  0
  8 37  1  0
  8 38  1  0
  9 39  1  6
 10 40  1  0
 11 41  1  0
 11 42  1  0
 12 43  1  1
 15 44  1  0
 16 45  1  0
 18 46  1  0
 19 47  1  0
 20 48  1  0
 21 49  1  0
 24 50  1  0
 25 51  1  0
 27 52  1  0
 30 53  1  0
 31 54  1  0
M  END
>  <UniqueID>  (45) 
27

>  <SMILES>  (45) 
O=C(NCC(=O)N1C[C@H](O)C[C@H]1c1nccc2ccccc12)c1ccc2cc(F)ccc2n1

>  <Energy>  (45) 
68.07013114954229

>  <Genealogy>  (45) 
O=C(NCC(=O)N1C[C@H](O)C[C@H]1c1nccc2ccccc12)c1ccc2cc(F)ccc2n1 (3D coordinates assigned)
O=C(NCC(=O)N1C[C@H](O)C[C@H]1c1nccc2ccccc12)c1ccc2cc(F)ccc2n1 (nonaromatic ring conformer: 68.07013114954229 kcal/mol)

>  <smiles>  (45) 
O=C(NCC(=O)N1C[C@H](O)C[C@H]1c1nccc2ccccc12)c1ccc2cc(F)ccc2n1

>  <score_type>  (45) 
oracle

>  <origin>  (45) 
autodockgpu

>  <m_score__min__energy>  (45) 
-9.3699999999999992

>  <m_primary>  (45) 
energy

>  <meeko>  (45) 
{"free_energy": -7.41, "intermolecular_energy": -9.2, "internal_energy": -3.16, "cluster_size": 4, "cluster_id": 5, "rank_in_cluster": 1}

>  <energy>  (45) 
-9.11

>  <cluster_rmsd>  (45) 
1.55

>  <rmsd>  (45) 
270.1

>  <cluster>  (45) 
1

$$$$
PTHZUPGKXGNJLI-NCDVCWAKNA-N
     RDKit          3D

 54 58  0  0  0  0  0  0  0  0999 V2000
  139.8110   71.6680  220.9130 O   0  0  0  0  0  0  0  0  0  0  0  0
  139.7800   72.2090  222.0520 C   0  0  0  0  0  0  0  0  0  0  0  0
  139.7370   73.6410  222.1630 N   0  0  0  0  0  0  0  0  0  0  0  0
  139.7460   74.5220  220.9970 C   0  0  0  0  0  0  0  0  0  0  0  0
  140.6970   75.6600  221.2220 C   0  0  0  0  0  0  0  0  0  0  0  0
  140.7330   76.2090  222.3570 O   0  0  0  0  0  0  0  0  0  0  0  0
  141.5810   76.1160  220.1800 N   0  0  0  0  0  0  0  0  0  0  0  0
  141.9640   77.5070  219.9900 C   0  0  0  0  0  0  0  0  0  0  0  0
  142.9370   77.5020  218.8100 C   0  0  2  0  0  0  0  0  0  0  0  0
  142.7540   78.6080  217.9590 O   0  0  0  0  0  0  0  0  0  0  0  0
  142.7110   76.1680  218.0900 C   0  0  0  0  0  0  0  0  0  0  0  0
  142.1180   75.2330  219.1490 C   0  0  1  0  0  0  0  0  0  0  0  0
  143.1830   74.3120  219.7200 C   0  0  0  0  0  0  0  0  0  0  0  0
  144.2840   74.8740  220.2990 N   0  0  0  0  0  0  0  0  0  0  0  0
  145.2910   74.1370  220.8300 C   0  0  0  0  0  0  0  0  0  0  0  0
  145.2360   72.7470  220.7940 C   0  0  0  0  0  0  0  0  0  0  0  0
  144.1410   72.1170  220.1930 C   0  0  0  0  0  0  0  0  0  0  0  0
  144.0800   70.7160  220.1340 C   0  0  0  0  0  0  0  0  0  0  0  0
  142.9990   70.0840  219.5180 C   0  0  0  0  0  0  0  0  0  0  0  0
  141.9740   70.8420  218.9540 C   0  0  0  0  0  0  0  0  0  0  0  0
  142.0170   72.2380  219.0050 C   0  0  0  0  0  0  0  0  0  0  0  0
  143.0960   72.8980  219.6330 C   0  0  0  0  0  0  0  0  0  0  0  0
  139.7970   71.3630  223.2660 C   0  0  0  0  0  0  0  0  0  0  0  0
  139.2770   70.0580  223.2470 C   0  0  0  0  0  0  0  0  0  0  0  0
  139.3110   69.2800  224.4070 C   0  0  0  0  0  0  0  0  0  0  0  0
  139.8630   69.8050  225.5820 C   0  0  0  0  0  0  0  0  0  0  0  0
  139.9130   69.0520  226.7640 C   0  0  0  0  0  0  0  0  0  0  0  0
  140.4700   69.6060  227.9210 C   0  0  0  0  0  0  0  0  0  0  0  0
  140.5190   68.8780  229.0640 F   0  0  0  0  0  0  0  0  0  0  0  0
  140.9790   70.9090  227.9030 C   0  0  0  0  0  0  0  0  0  0  0  0
  140.9320   71.6660  226.7270 C   0  0  0  0  0  0  0  0  0  0  0  0
  140.3770   71.1200  225.5650 C   0  0  0  0  0  0  0  0  0  0  0  0
  140.3300   71.8520  224.4210 N   0  0  0  0  0  0  0  0  0  0  0  0
  139.5770   74.0750  223.1000 H   0  0  0  0  0  0  0  0  0  0  0  0
  140.0634   73.9515  220.1117 H   0  0  0  0  0  0  0  0  0  0  0  0
  138.7338   74.9227  220.8390 H   0  0  0  0  0  0  0  0  0  0  0  0
  141.0813   78.1212  219.7585 H   0  0  0  0  0  0  0  0  0  0  0  0
  142.4207   77.9332  220.8954 H   0  0  0  0  0  0  0  0  0  0  0  0
  143.9774   77.5946  219.1549 H   0  0  0  0  0  0  0  0  0  0  0  0
  143.6190   78.7960  217.5120 H   0  0  0  0  0  0  0  0  0  0  0  0
  142.0093   76.2961  217.2526 H   0  0  0  0  0  0  0  0  0  0  0  0
  143.6435   75.7679  217.6652 H   0  0  0  0  0  0  0  0  0  0  0  0
  141.3421   74.5768  218.7279 H   0  0  0  0  0  0  0  0  0  0  0  0
  146.1542   74.6397  221.2907 H   0  0  0  0  0  0  0  0  0  0  0  0
  146.0469   72.1484  221.2346 H   0  0  0  0  0  0  0  0  0  0  0  0
  144.8877   70.1136  220.5752 H   0  0  0  0  0  0  0  0  0  0  0  0
  142.9556   68.9856  219.4774 H   0  0  0  0  0  0  0  0  0  0  0  0
  141.1265   70.3385  218.4660 H   0  0  0  0  0  0  0  0  0  0  0  0
  141.2050   72.8265  218.5530 H   0  0  0  0  0  0  0  0  0  0  0  0
  138.8444   69.6500  222.3216 H   0  0  0  0  0  0  0  0  0  0  0  0
  138.9052   68.2576  224.3973 H   0  0  0  0  0  0  0  0  0  0  0  0
  139.5146   68.0268  226.7811 H   0  0  0  0  0  0  0  0  0  0  0  0
  141.4172   71.3395  228.8155 H   0  0  0  0  0  0  0  0  0  0  0  0
  141.3317   72.6908  226.7164 H   0  0  0  0  0  0  0  0  0  0  0  0
  1  2  2  0
  2  3  1  0
  3  4  1  0
  4  5  1  0
  5  6  2  0
  5  7  1  0
  7  8  1  0
  8  9  1  0
  9 10  1  0
  9 11  1  0
 11 12  1  0
 12 13  1  0
 13 14  2  0
 14 15  1  0
 15 16  2  0
 16 17  1  0
 17 18  2  0
 18 19  1  0
 19 20  2  0
 20 21  1  0
 21 22  2  0
  2 23  1  0
 23 24  2  0
 24 25  1  0
 25 26  2  0
 26 27  1  0
 27 28  2  0
 28 29  1  0
 28 30  1  0
 30 31  2  0
 31 32  1  0
 32 33  2  0
 12  7  1  0
 22 13  1  0
 33 23  1  0
 22 17  1  0
 32 26  1  0
  3 34  1  0
  4 35  1  0
  4 36  1  0
  8 37  1  0
  8 38  1  0
  9 39  1  1
 10 40  1  0
 11 41  1  0
 11 42  1  0
 12 43  1  6
 15 44  1  0
 16 45  1  0
 18 46  1  0
 19 47  1  0
 20 48  1  0
 21 49  1  0
 24 50  1  0
 25 51  1  0
 27 52  1  0
 30 53  1  0
 31 54  1  0
M  END
>  <UniqueID>  (46) 
27

>  <SMILES>  (46) 
O=C(NCC(=O)N1C[C@H](O)C[C@H]1c1nccc2ccccc12)c1ccc2cc(F)ccc2n1

>  <Energy>  (46) 
68.07013114954229

>  <Genealogy>  (46) 
O=C(NCC(=O)N1C[C@H](O)C[C@H]1c1nccc2ccccc12)c1ccc2cc(F)ccc2n1 (3D coordinates assigned)
O=C(NCC(=O)N1C[C@H](O)C[C@H]1c1nccc2ccccc12)c1ccc2cc(F)ccc2n1 (nonaromatic ring conformer: 68.07013114954229 kcal/mol)

>  <smiles>  (46) 
O=C(NCC(=O)N1C[C@H](O)C[C@H]1c1nccc2ccccc12)c1ccc2cc(F)ccc2n1

>  <score_type>  (46) 
oracle

>  <origin>  (46) 
autodockgpu

>  <m_score__min__energy>  (46) 
-9.3699999999999992

>  <m_primary>  (46) 
energy

>  <meeko>  (46) 
{"free_energy": -8.69, "intermolecular_energy": -10.48, "internal_energy": -2.39, "cluster_size": 3, "cluster_id": 3, "rank_in_cluster": 3}

>  <energy>  (46) 
-9.08

>  <cluster_rmsd>  (46) 
1.6

>  <rmsd>  (46) 
269.95

>  <cluster>  (46) 
1

$$$$
PTHZUPGKXGNJLI-NCDVCWAKNA-N
     RDKit          3D

 54 58  0  0  0  0  0  0  0  0999 V2000
  139.8140   71.6590  220.9180 O   0  0  0  0  0  0  0  0  0  0  0  0
  139.7840   72.2090  222.0540 C   0  0  0  0  0  0  0  0  0  0  0  0
  139.7490   73.6420  222.1540 N   0  0  0  0  0  0  0  0  0  0  0  0
  139.7650   74.5140  220.9810 C   0  0  0  0  0  0  0  0  0  0  0  0
  140.7100   75.6580  221.2070 C   0  0  0  0  0  0  0  0  0  0  0  0
  140.7410   76.2080  222.3400 O   0  0  0  0  0  0  0  0  0  0  0  0
  141.5940   76.1170  220.1650 N   0  0  0  0  0  0  0  0  0  0  0  0
  141.9780   77.5090  219.9800 C   0  0  0  0  0  0  0  0  0  0  0  0
  142.9500   77.5070  218.7990 C   0  0  2  0  0  0  0  0  0  0  0  0
  142.7670   78.6160  217.9530 O   0  0  0  0  0  0  0  0  0  0  0  0
  142.7230   76.1760  218.0750 C   0  0  0  0  0  0  0  0  0  0  0  0
  142.1310   75.2370  219.1310 C   0  0  1  0  0  0  0  0  0  0  0  0
  143.1960   74.3140  219.6990 C   0  0  0  0  0  0  0  0  0  0  0  0
  144.3040   74.8730  220.2650 N   0  0  0  0  0  0  0  0  0  0  0  0
  145.3120   74.1340  220.7910 C   0  0  0  0  0  0  0  0  0  0  0  0
  145.2490   72.7440  220.7640 C   0  0  0  0  0  0  0  0  0  0  0  0
  144.1450   72.1170  220.1770 C   0  0  0  0  0  0  0  0  0  0  0  0
  144.0760   70.7160  220.1280 C   0  0  0  0  0  0  0  0  0  0  0  0
  142.9860   70.0860  219.5260 C   0  0  0  0  0  0  0  0  0  0  0  0
  141.9600   70.8460  218.9650 C   0  0  0  0  0  0  0  0  0  0  0  0
  142.0120   72.2420  219.0070 C   0  0  0  0  0  0  0  0  0  0  0  0
  143.1000   72.9000  219.6220 C   0  0  0  0  0  0  0  0  0  0  0  0
  139.7930   71.3720  223.2730 C   0  0  0  0  0  0  0  0  0  0  0  0
  139.2600   70.0720  223.2650 C   0  0  0  0  0  0  0  0  0  0  0  0
  139.2870   69.3030  224.4300 C   0  0  0  0  0  0  0  0  0  0  0  0
  139.8450   69.8300  225.6010 C   0  0  0  0  0  0  0  0  0  0  0  0
  139.8890   69.0860  226.7880 C   0  0  0  0  0  0  0  0  0  0  0  0
  140.4530   69.6430  227.9410 C   0  0  0  0  0  0  0  0  0  0  0  0
  140.4960   68.9230  229.0900 F   0  0  0  0  0  0  0  0  0  0  0  0
  140.9750   70.9410  227.9130 C   0  0  0  0  0  0  0  0  0  0  0  0
  140.9350   71.6890  226.7310 C   0  0  0  0  0  0  0  0  0  0  0  0
  140.3730   71.1400  225.5740 C   0  0  0  0  0  0  0  0  0  0  0  0
  140.3320   71.8640  224.4240 N   0  0  0  0  0  0  0  0  0  0  0  0
  139.5900   74.0840  223.0870 H   0  0  0  0  0  0  0  0  0  0  0  0
  140.0930   73.9381  220.1030 H   0  0  0  0  0  0  0  0  0  0  0  0
  138.7528   74.9091  220.8100 H   0  0  0  0  0  0  0  0  0  0  0  0
  141.0956   78.1248  219.7515 H   0  0  0  0  0  0  0  0  0  0  0  0
  142.4356   77.9317  220.8866 H   0  0  0  0  0  0  0  0  0  0  0  0
  143.9910   77.5972  219.1428 H   0  0  0  0  0  0  0  0  0  0  0  0
  143.6260   78.7900  217.4870 H   0  0  0  0  0  0  0  0  0  0  0  0
  142.0204   76.3072  217.2388 H   0  0  0  0  0  0  0  0  0  0  0  0
  143.6551   75.7773  217.6481 H   0  0  0  0  0  0  0  0  0  0  0  0
  141.3556   74.5816  218.7077 H   0  0  0  0  0  0  0  0  0  0  0  0
  146.1822   74.6348  221.2404 H   0  0  0  0  0  0  0  0  0  0  0  0
  146.0606   72.1435  221.2006 H   0  0  0  0  0  0  0  0  0  0  0  0
  144.8844   70.1121  220.5659 H   0  0  0  0  0  0  0  0  0  0  0  0
  142.9359   68.9876  219.4939 H   0  0  0  0  0  0  0  0  0  0  0  0
  141.1057   70.3443  218.4871 H   0  0  0  0  0  0  0  0  0  0  0  0
  141.1998   72.8325  218.5579 H   0  0  0  0  0  0  0  0  0  0  0  0
  138.8225   69.6611  222.3432 H   0  0  0  0  0  0  0  0  0  0  0  0
  138.8706   68.2849  224.4279 H   0  0  0  0  0  0  0  0  0  0  0  0
  139.4805   68.0650  226.8131 H   0  0  0  0  0  0  0  0  0  0  0  0
  141.4177   71.3743  228.8220 H   0  0  0  0  0  0  0  0  0  0  0  0
  141.3458   72.7093  226.7119 H   0  0  0  0  0  0  0  0  0  0  0  0
  1  2  2  0
  2  3  1  0
  3  4  1  0
  4  5  1  0
  5  6  2  0
  5  7  1  0
  7  8  1  0
  8  9  1  0
  9 10  1  0
  9 11  1  0
 11 12  1  0
 12 13  1  0
 13 14  2  0
 14 15  1  0
 15 16  2  0
 16 17  1  0
 17 18  2  0
 18 19  1  0
 19 20  2  0
 20 21  1  0
 21 22  2  0
  2 23  1  0
 23 24  2  0
 24 25  1  0
 25 26  2  0
 26 27  1  0
 27 28  2  0
 28 29  1  0
 28 30  1  0
 30 31  2  0
 31 32  1  0
 32 33  2  0
 12  7  1  0
 22 13  1  0
 33 23  1  0
 22 17  1  0
 32 26  1  0
  3 34  1  0
  4 35  1  0
  4 36  1  0
  8 37  1  0
  8 38  1  0
  9 39  1  1
 10 40  1  0
 11 41  1  0
 11 42  1  0
 12 43  1  6
 15 44  1  0
 16 45  1  0
 18 46  1  0
 19 47  1  0
 20 48  1  0
 21 49  1  0
 24 50  1  0
 25 51  1  0
 27 52  1  0
 30 53  1  0
 31 54  1  0
M  END
>  <UniqueID>  (47) 
27

>  <SMILES>  (47) 
O=C(NCC(=O)N1C[C@H](O)C[C@H]1c1nccc2ccccc12)c1ccc2cc(F)ccc2n1

>  <Energy>  (47) 
68.07013114954229

>  <Genealogy>  (47) 
O=C(NCC(=O)N1C[C@H](O)C[C@H]1c1nccc2ccccc12)c1ccc2cc(F)ccc2n1 (3D coordinates assigned)
O=C(NCC(=O)N1C[C@H](O)C[C@H]1c1nccc2ccccc12)c1ccc2cc(F)ccc2n1 (nonaromatic ring conformer: 68.07013114954229 kcal/mol)

>  <smiles>  (47) 
O=C(NCC(=O)N1C[C@H](O)C[C@H]1c1nccc2ccccc12)c1ccc2cc(F)ccc2n1

>  <score_type>  (47) 
oracle

>  <origin>  (47) 
autodockgpu

>  <m_score__min__energy>  (47) 
-9.3699999999999992

>  <m_primary>  (47) 
energy

>  <meeko>  (47) 
{"free_energy": -8.71, "intermolecular_energy": -10.5, "internal_energy": -2.38, "cluster_size": 3, "cluster_id": 3, "rank_in_cluster": 2}

>  <energy>  (47) 
-9.08

>  <cluster_rmsd>  (47) 
0.84

>  <rmsd>  (47) 
270.28

>  <cluster>  (47) 
1

$$$$
PTHZUPGKXGNJLI-NCDVCWAKNA-N
     RDKit          3D

 54 58  0  0  0  0  0  0  0  0999 V2000
  139.9620   71.6920  220.9460 O   0  0  0  0  0  0  0  0  0  0  0  0
  139.8830   72.2290  222.0850 C   0  0  0  0  0  0  0  0  0  0  0  0
  139.7810   73.6580  222.1960 N   0  0  0  0  0  0  0  0  0  0  0  0
  139.7840   74.5410  221.0310 C   0  0  0  0  0  0  0  0  0  0  0  0
  140.7590   75.6620  221.2410 C   0  0  0  0  0  0  0  0  0  0  0  0
  140.8330   76.2000  222.3790 O   0  0  0  0  0  0  0  0  0  0  0  0
  141.6230   76.1130  220.1800 N   0  0  0  0  0  0  0  0  0  0  0  0
  141.9990   77.5040  219.9740 C   0  0  0  0  0  0  0  0  0  0  0  0
  142.9500   77.4940  218.7770 C   0  0  2  0  0  0  0  0  0  0  0  0
  142.7490   78.5930  217.9220 O   0  0  0  0  0  0  0  0  0  0  0  0
  142.7150   76.1550  218.0700 C   0  0  0  0  0  0  0  0  0  0  0  0
  142.1440   75.2250  219.1460 C   0  0  1  0  0  0  0  0  0  0  0  0
  143.2220   74.3110  219.7040 C   0  0  0  0  0  0  0  0  0  0  0  0
  144.3210   74.8790  220.2800 N   0  0  0  0  0  0  0  0  0  0  0  0
  145.3390   74.1490  220.7990 C   0  0  0  0  0  0  0  0  0  0  0  0
  145.2970   72.7590  220.7540 C   0  0  0  0  0  0  0  0  0  0  0  0
  144.2040   72.1220  220.1560 C   0  0  0  0  0  0  0  0  0  0  0  0
  144.1570   70.7210  220.0890 C   0  0  0  0  0  0  0  0  0  0  0  0
  143.0780   70.0830  219.4760 C   0  0  0  0  0  0  0  0  0  0  0  0
  142.0420   70.8340  218.9230 C   0  0  0  0  0  0  0  0  0  0  0  0
  142.0720   72.2300  218.9830 C   0  0  0  0  0  0  0  0  0  0  0  0
  143.1480   72.8970  219.6090 C   0  0  0  0  0  0  0  0  0  0  0  0
  139.9030   71.3820  223.2970 C   0  0  0  0  0  0  0  0  0  0  0  0
  139.3950   70.0720  223.2750 C   0  0  0  0  0  0  0  0  0  0  0  0
  139.4320   69.2940  224.4340 C   0  0  0  0  0  0  0  0  0  0  0  0
  139.9730   69.8220  225.6120 C   0  0  0  0  0  0  0  0  0  0  0  0
  140.0260   69.0680  226.7930 C   0  0  0  0  0  0  0  0  0  0  0  0
  140.5730   69.6270  227.9540 C   0  0  0  0  0  0  0  0  0  0  0  0
  140.6240   68.8980  229.0960 F   0  0  0  0  0  0  0  0  0  0  0  0
  141.0690   70.9350  227.9390 C   0  0  0  0  0  0  0  0  0  0  0  0
  141.0200   71.6930  226.7640 C   0  0  0  0  0  0  0  0  0  0  0  0
  140.4750   71.1420  225.5990 C   0  0  0  0  0  0  0  0  0  0  0  0
  140.4250   71.8750  224.4550 N   0  0  0  0  0  0  0  0  0  0  0  0
  139.5820   74.0840  223.1290 H   0  0  0  0  0  0  0  0  0  0  0  0
  140.0753   73.9668  220.1391 H   0  0  0  0  0  0  0  0  0  0  0  0
  138.7763   74.9595  220.8918 H   0  0  0  0  0  0  0  0  0  0  0  0
  141.1106   78.1145  219.7547 H   0  0  0  0  0  0  0  0  0  0  0  0
  142.4711   77.9371  220.8682 H   0  0  0  0  0  0  0  0  0  0  0  0
  143.9960   77.5921  219.1030 H   0  0  0  0  0  0  0  0  0  0  0  0
  143.6100   78.7910  217.4710 H   0  0  0  0  0  0  0  0  0  0  0  0
  141.9978   76.2756  217.2447 H   0  0  0  0  0  0  0  0  0  0  0  0
  143.6408   75.7548  217.6309 H   0  0  0  0  0  0  0  0  0  0  0  0
  141.3628   74.5635  218.7433 H   0  0  0  0  0  0  0  0  0  0  0  0
  146.2005   74.6571  221.2569 H   0  0  0  0  0  0  0  0  0  0  0  0
  146.1166   72.1655  221.1852 H   0  0  0  0  0  0  0  0  0  0  0  0
  144.9735   70.1238  220.5212 H   0  0  0  0  0  0  0  0  0  0  0  0
  143.0449   68.9845  219.4290 H   0  0  0  0  0  0  0  0  0  0  0  0
  141.1965   70.3253  218.4369 H   0  0  0  0  0  0  0  0  0  0  0  0
  141.2517   72.8134  218.5395 H   0  0  0  0  0  0  0  0  0  0  0  0
  138.9696   69.6607  222.3477 H   0  0  0  0  0  0  0  0  0  0  0  0
  139.0365   68.2676  224.4212 H   0  0  0  0  0  0  0  0  0  0  0  0
  139.6383   68.0387  226.8072 H   0  0  0  0  0  0  0  0  0  0  0  0
  141.4989   71.3689  228.8538 H   0  0  0  0  0  0  0  0  0  0  0  0
  141.4097   72.7216  226.7561 H   0  0  0  0  0  0  0  0  0  0  0  0
  1  2  2  0
  2  3  1  0
  3  4  1  0
  4  5  1  0
  5  6  2  0
  5  7  1  0
  7  8  1  0
  8  9  1  0
  9 10  1  0
  9 11  1  0
 11 12  1  0
 12 13  1  0
 13 14  2  0
 14 15  1  0
 15 16  2  0
 16 17  1  0
 17 18  2  0
 18 19  1  0
 19 20  2  0
 20 21  1  0
 21 22  2  0
  2 23  1  0
 23 24  2  0
 24 25  1  0
 25 26  2  0
 26 27  1  0
 27 28  2  0
 28 29  1  0
 28 30  1  0
 30 31  2  0
 31 32  1  0
 32 33  2  0
 12  7  1  0
 22 13  1  0
 33 23  1  0
 22 17  1  0
 32 26  1  0
  3 34  1  0
  4 35  1  0
  4 36  1  0
  8 37  1  0
  8 38  1  0
  9 39  1  1
 10 40  1  0
 11 41  1  0
 11 42  1  0
 12 43  1  6
 15 44  1  0
 16 45  1  0
 18 46  1  0
 19 47  1  0
 20 48  1  0
 21 49  1  0
 24 50  1  0
 25 51  1  0
 27 52  1  0
 30 53  1  0
 31 54  1  0
M  END
>  <UniqueID>  (48) 
27

>  <SMILES>  (48) 
O=C(NCC(=O)N1C[C@H](O)C[C@H]1c1nccc2ccccc12)c1ccc2cc(F)ccc2n1

>  <Energy>  (48) 
68.07013114954229

>  <Genealogy>  (48) 
O=C(NCC(=O)N1C[C@H](O)C[C@H]1c1nccc2ccccc12)c1ccc2cc(F)ccc2n1 (3D coordinates assigned)
O=C(NCC(=O)N1C[C@H](O)C[C@H]1c1nccc2ccccc12)c1ccc2cc(F)ccc2n1 (nonaromatic ring conformer: 68.07013114954229 kcal/mol)

>  <smiles>  (48) 
O=C(NCC(=O)N1C[C@H](O)C[C@H]1c1nccc2ccccc12)c1ccc2cc(F)ccc2n1

>  <score_type>  (48) 
oracle

>  <origin>  (48) 
autodockgpu

>  <m_score__min__energy>  (48) 
-9.3699999999999992

>  <m_primary>  (48) 
energy

>  <meeko>  (48) 
{"free_energy": -8.75, "intermolecular_energy": -10.54, "internal_energy": -2.35, "cluster_size": 3, "cluster_id": 3, "rank_in_cluster": 1}

>  <energy>  (48) 
-8.89

>  <cluster_rmsd>  (48) 
0.66

>  <rmsd>  (48) 
270.45

>  <cluster>  (48) 
1

$$$$
PTHZUPGKXGNJLI-NCDVCWAKNA-N
     RDKit          3D

 54 58  0  0  0  0  0  0  0  0999 V2000
  136.2010   72.2250  221.5330 O   0  0  0  0  0  0  0  0  0  0  0  0
  137.1290   72.4150  222.3680 C   0  0  0  0  0  0  0  0  0  0  0  0
  137.0150   71.8850  223.6980 N   0  0  0  0  0  0  0  0  0  0  0  0
  135.8430   71.1360  224.1490 C   0  0  0  0  0  0  0  0  0  0  0  0
  136.0740   69.6640  223.9640 C   0  0  0  0  0  0  0  0  0  0  0  0
  135.2600   68.8500  224.4770 O   0  0  0  0  0  0  0  0  0  0  0  0
  137.1870   69.1710  223.1930 N   0  0  0  0  0  0  0  0  0  0  0  0
  137.2270   69.1620  221.7380 C   0  0  0  0  0  0  0  0  0  0  0  0
  138.6020   68.6000  221.3740 C   0  0  2  0  0  0  0  0  0  0  0  0
  138.5530   67.7450  220.2580 O   0  0  0  0  0  0  0  0  0  0  0  0
  139.1080   67.8890  222.6330 C   0  0  0  0  0  0  0  0  0  0  0  0
  138.3610   68.5480  223.7970 C   0  0  1  0  0  0  0  0  0  0  0  0
  139.2330   69.5830  224.4890 C   0  0  0  0  0  0  0  0  0  0  0  0
  139.5550   70.7200  223.8060 N   0  0  0  0  0  0  0  0  0  0  0  0
  140.3330   71.6970  224.3340 C   0  0  0  0  0  0  0  0  0  0  0  0
  140.8460   71.5660  225.6210 C   0  0  0  0  0  0  0  0  0  0  0  0
  140.5650   70.4110  226.3590 C   0  0  0  0  0  0  0  0  0  0  0  0
  141.0900   70.2570  227.6510 C   0  0  0  0  0  0  0  0  0  0  0  0
  140.8280   69.0980  228.3840 C   0  0  0  0  0  0  0  0  0  0  0  0
  140.0470   68.0840  227.8320 C   0  0  0  0  0  0  0  0  0  0  0  0
  139.5140   68.2210  226.5470 C   0  0  0  0  0  0  0  0  0  0  0  0
  139.7570   69.3900  225.7930 C   0  0  0  0  0  0  0  0  0  0  0  0
  138.3240   73.1900  221.9700 C   0  0  0  0  0  0  0  0  0  0  0  0
  138.3100   74.5950  221.9670 C   0  0  0  0  0  0  0  0  0  0  0  0
  139.4550   75.3000  221.5920 C   0  0  0  0  0  0  0  0  0  0  0  0
  140.6120   74.6050  221.2190 C   0  0  0  0  0  0  0  0  0  0  0  0
  141.7790   75.2810  220.8360 C   0  0  0  0  0  0  0  0  0  0  0  0
  142.9180   74.5550  220.4680 C   0  0  0  0  0  0  0  0  0  0  0  0
  144.0460   75.2100  220.0980 F   0  0  0  0  0  0  0  0  0  0  0  0
  142.8950   73.1570  220.4820 C   0  0  0  0  0  0  0  0  0  0  0  0
  141.7340   72.4750  220.8640 C   0  0  0  0  0  0  0  0  0  0  0  0
  140.5910   73.1930  221.2330 C   0  0  0  0  0  0  0  0  0  0  0  0
  139.4620   72.5350  221.6040 N   0  0  0  0  0  0  0  0  0  0  0  0
  137.8400   71.9300  224.3370 H   0  0  0  0  0  0  0  0  0  0  0  0
  135.6637   71.3459  225.2138 H   0  0  0  0  0  0  0  0  0  0  0  0
  134.9680   71.4422  223.5568 H   0  0  0  0  0  0  0  0  0  0  0  0
  136.4297   68.5203  221.3349 H   0  0  0  0  0  0  0  0  0  0  0  0
  137.0709   70.1666  221.3179 H   0  0  0  0  0  0  0  0  0  0  0  0
  139.2899   69.4028  221.0702 H   0  0  0  0  0  0  0  0  0  0  0  0
  139.2710   68.0190  219.6310 H   0  0  0  0  0  0  0  0  0  0  0  0
  138.8786   66.8142  222.5871 H   0  0  0  0  0  0  0  0  0  0  0  0
  140.1989   67.9770  222.7434 H   0  0  0  0  0  0  0  0  0  0  0  0
  138.0838   67.8175  224.5714 H   0  0  0  0  0  0  0  0  0  0  0  0
  140.5595   72.5965  223.7428 H   0  0  0  0  0  0  0  0  0  0  0  0
  141.4671   72.3637  226.0544 H   0  0  0  0  0  0  0  0  0  0  0  0
  141.7107   71.0529  228.0883 H   0  0  0  0  0  0  0  0  0  0  0  0
  141.2384   68.9849  229.3983 H   0  0  0  0  0  0  0  0  0  0  0  0
  139.8488   67.1701  228.4113 H   0  0  0  0  0  0  0  0  0  0  0  0
  138.9014   67.4131  226.1204 H   0  0  0  0  0  0  0  0  0  0  0  0
  137.3991   75.1380  222.2594 H   0  0  0  0  0  0  0  0  0  0  0  0
  139.4484   76.4000  221.5895 H   0  0  0  0  0  0  0  0  0  0  0  0
  141.7997   76.3807  220.8247 H   0  0  0  0  0  0  0  0  0  0  0  0
  143.7926   72.5912  220.1917 H   0  0  0  0  0  0  0  0  0  0  0  0
  141.7200   71.3751  220.8741 H   0  0  0  0  0  0  0  0  0  0  0  0
  1  2  2  0
  2  3  1  0
  3  4  1  0
  4  5  1  0
  5  6  2  0
  5  7  1  0
  7  8  1  0
  8  9  1  0
  9 10  1  0
  9 11  1  0
 11 12  1  0
 12 13  1  0
 13 14  2  0
 14 15  1  0
 15 16  2  0
 16 17  1  0
 17 18  2  0
 18 19  1  0
 19 20  2  0
 20 21  1  0
 21 22  2  0
  2 23  1  0
 23 24  2  0
 24 25  1  0
 25 26  2  0
 26 27  1  0
 27 28  2  0
 28 29  1  0
 28 30  1  0
 30 31  2  0
 31 32  1  0
 32 33  2  0
 12  7  1  0
 22 13  1  0
 33 23  1  0
 22 17  1  0
 32 26  1  0
  3 34  1  0
  4 35  1  0
  4 36  1  0
  8 37  1  0
  8 38  1  0
  9 39  1  6
 10 40  1  0
 11 41  1  0
 11 42  1  0
 12 43  1  1
 15 44  1  0
 16 45  1  0
 18 46  1  0
 19 47  1  0
 20 48  1  0
 21 49  1  0
 24 50  1  0
 25 51  1  0
 27 52  1  0
 30 53  1  0
 31 54  1  0
M  END
>  <UniqueID>  (49) 
27

>  <SMILES>  (49) 
O=C(NCC(=O)N1C[C@H](O)C[C@H]1c1nccc2ccccc12)c1ccc2cc(F)ccc2n1

>  <Energy>  (49) 
68.07013114954229

>  <Genealogy>  (49) 
O=C(NCC(=O)N1C[C@H](O)C[C@H]1c1nccc2ccccc12)c1ccc2cc(F)ccc2n1 (3D coordinates assigned)
O=C(NCC(=O)N1C[C@H](O)C[C@H]1c1nccc2ccccc12)c1ccc2cc(F)ccc2n1 (nonaromatic ring conformer: 68.07013114954229 kcal/mol)

>  <smiles>  (49) 
O=C(NCC(=O)N1C[C@H](O)C[C@H]1c1nccc2ccccc12)c1ccc2cc(F)ccc2n1

>  <score_type>  (49) 
oracle

>  <origin>  (49) 
autodockgpu

>  <m_score__min__energy>  (49) 
-9.3699999999999992

>  <m_primary>  (49) 
energy

>  <meeko>  (49) 
{"free_energy": -7.41, "intermolecular_energy": -9.2, "internal_energy": -3.13, "cluster_size": 4, "cluster_id": 5, "rank_in_cluster": 2}

>  <energy>  (49) 
-8.75

>  <cluster_rmsd>  (49) 
1.29

>  <rmsd>  (49) 
270.2

>  <cluster>  (49) 
1

$$$$
PTHZUPGKXGNJLI-NCDVCWAKNA-N
     RDKit          3D

 54 58  0  0  0  0  0  0  0  0999 V2000
  141.1710   71.3620  221.3900 O   0  0  0  0  0  0  0  0  0  0  0  0
  140.5390   71.9140  222.3330 C   0  0  0  0  0  0  0  0  0  0  0  0
  140.1370   73.2880  222.2170 N   0  0  0  0  0  0  0  0  0  0  0  0
  140.4450   74.1020  221.0430 C   0  0  0  0  0  0  0  0  0  0  0  0
  140.0420   75.5270  221.2880 C   0  0  0  0  0  0  0  0  0  0  0  0
  139.3280   75.7950  222.2920 O   0  0  0  0  0  0  0  0  0  0  0  0
  140.4780   76.5890  220.4170 N   0  0  0  0  0  0  0  0  0  0  0  0
  140.1080   76.6910  219.0130 C   0  0  0  0  0  0  0  0  0  0  0  0
  140.7560   77.9850  218.5170 C   0  0  2  0  0  0  0  0  0  0  0  0
  141.2680   77.8620  217.2120 O   0  0  0  0  0  0  0  0  0  0  0  0
  141.8430   78.3260  219.5410 C   0  0  0  0  0  0  0  0  0  0  0  0
  141.4090   77.6320  220.8360 C   0  0  1  0  0  0  0  0  0  0  0  0
  140.7400   78.6140  221.7830 C   0  0  0  0  0  0  0  0  0  0  0  0
  139.3760   78.6430  221.8290 N   0  0  0  0  0  0  0  0  0  0  0  0
  138.6870   79.4880  222.6350 C   0  0  0  0  0  0  0  0  0  0  0  0
  139.3660   80.3810  223.4580 C   0  0  0  0  0  0  0  0  0  0  0  0
  140.7650   80.4100  223.4360 C   0  0  0  0  0  0  0  0  0  0  0  0
  141.4630   81.3170  224.2480 C   0  0  0  0  0  0  0  0  0  0  0  0
  142.8570   81.3620  224.2140 C   0  0  0  0  0  0  0  0  0  0  0  0
  143.5650   80.5080  223.3700 C   0  0  0  0  0  0  0  0  0  0  0  0
  142.8860   79.5970  222.5560 C   0  0  0  0  0  0  0  0  0  0  0  0
  141.4760   79.5260  222.5820 C   0  0  0  0  0  0  0  0  0  0  0  0
  140.2250   71.1410  223.5550 C   0  0  0  0  0  0  0  0  0  0  0  0
  139.5160   69.9300  223.4850 C   0  0  0  0  0  0  0  0  0  0  0  0
  139.2380   69.2190  224.6540 C   0  0  0  0  0  0  0  0  0  0  0  0
  139.6670   69.7170  225.8910 C   0  0  0  0  0  0  0  0  0  0  0  0
  139.4050   69.0300  227.0850 C   0  0  0  0  0  0  0  0  0  0  0  0
  139.8470   69.5550  228.3040 C   0  0  0  0  0  0  0  0  0  0  0  0
  139.5940   68.8900  229.4590 F   0  0  0  0  0  0  0  0  0  0  0  0
  140.5500   70.7640  228.3360 C   0  0  0  0  0  0  0  0  0  0  0  0
  140.8150   71.4550  227.1490 C   0  0  0  0  0  0  0  0  0  0  0  0
  140.3770   70.9370  225.9250 C   0  0  0  0  0  0  0  0  0  0  0  0
  140.6320   71.6050  224.7690 N   0  0  0  0  0  0  0  0  0  0  0  0
  139.5010   73.6960  222.9400 H   0  0  0  0  0  0  0  0  0  0  0  0
  141.5257   74.0581  220.8423 H   0  0  0  0  0  0  0  0  0  0  0  0
  139.8894   73.7128  220.1771 H   0  0  0  0  0  0  0  0  0  0  0  0
  140.4918   75.8276  218.4498 H   0  0  0  0  0  0  0  0  0  0  0  0
  139.0165   76.7008  218.8765 H   0  0  0  0  0  0  0  0  0  0  0  0
  140.0154   78.7949  218.4425 H   0  0  0  0  0  0  0  0  0  0  0  0
  140.6650   77.2600  216.7020 H   0  0  0  0  0  0  0  0  0  0  0  0
  142.8196   77.9447  219.2079 H   0  0  0  0  0  0  0  0  0  0  0  0
  141.9547   79.4121  219.6748 H   0  0  0  0  0  0  0  0  0  0  0  0
  142.2668   77.2169  221.3854 H   0  0  0  0  0  0  0  0  0  0  0  0
  137.5872   79.4674  222.6382 H   0  0  0  0  0  0  0  0  0  0  0  0
  138.8077   81.0587  224.1206 H   0  0  0  0  0  0  0  0  0  0  0  0
  140.9090   81.9950  224.9138 H   0  0  0  0  0  0  0  0  0  0  0  0
  143.3987   82.0732  224.8549 H   0  0  0  0  0  0  0  0  0  0  0  0
  144.6639   80.5513  223.3444 H   0  0  0  0  0  0  0  0  0  0  0  0
  143.4541   78.9306  221.8903 H   0  0  0  0  0  0  0  0  0  0  0  0
  139.1807   69.5430  222.5115 H   0  0  0  0  0  0  0  0  0  0  0  0
  138.6836   68.2703  224.6038 H   0  0  0  0  0  0  0  0  0  0  0  0
  138.8524   68.0791  227.0631 H   0  0  0  0  0  0  0  0  0  0  0  0
  140.8953   71.1724  229.2972 H   0  0  0  0  0  0  0  0  0  0  0  0
  141.3677   72.4056  227.1777 H   0  0  0  0  0  0  0  0  0  0  0  0
  1  2  2  0
  2  3  1  0
  3  4  1  0
  4  5  1  0
  5  6  2  0
  5  7  1  0
  7  8  1  0
  8  9  1  0
  9 10  1  0
  9 11  1  0
 11 12  1  0
 12 13  1  0
 13 14  2  0
 14 15  1  0
 15 16  2  0
 16 17  1  0
 17 18  2  0
 18 19  1  0
 19 20  2  0
 20 21  1  0
 21 22  2  0
  2 23  1  0
 23 24  2  0
 24 25  1  0
 25 26  2  0
 26 27  1  0
 27 28  2  0
 28 29  1  0
 28 30  1  0
 30 31  2  0
 31 32  1  0
 32 33  2  0
 12  7  1  0
 22 13  1  0
 33 23  1  0
 22 17  1  0
 32 26  1  0
  3 34  1  0
  4 35  1  0
  4 36  1  0
  8 37  1  0
  8 38  1  0
  9 39  1  6
 10 40  1  0
 11 41  1  0
 11 42  1  0
 12 43  1  1
 15 44  1  0
 16 45  1  0
 18 46  1  0
 19 47  1  0
 20 48  1  0
 21 49  1  0
 24 50  1  0
 25 51  1  0
 27 52  1  0
 30 53  1  0
 31 54  1  0
M  END
>  <UniqueID>  (50) 
27

>  <SMILES>  (50) 
O=C(NCC(=O)N1C[C@H](O)C[C@H]1c1nccc2ccccc12)c1ccc2cc(F)ccc2n1

>  <Energy>  (50) 
68.07013114954229

>  <Genealogy>  (50) 
O=C(NCC(=O)N1C[C@H](O)C[C@H]1c1nccc2ccccc12)c1ccc2cc(F)ccc2n1 (3D coordinates assigned)
O=C(NCC(=O)N1C[C@H](O)C[C@H]1c1nccc2ccccc12)c1ccc2cc(F)ccc2n1 (nonaromatic ring conformer: 68.07013114954229 kcal/mol)

>  <smiles>  (50) 
O=C(NCC(=O)N1C[C@H](O)C[C@H]1c1nccc2ccccc12)c1ccc2cc(F)ccc2n1

>  <score_type>  (50) 
oracle

>  <origin>  (50) 
autodockgpu

>  <m_score__min__energy>  (50) 
-9.3699999999999992

>  <m_primary>  (50) 
energy

>  <meeko>  (50) 
{"free_energy": -8.89, "intermolecular_energy": -10.68, "internal_energy": -1.93, "cluster_size": 10, "cluster_id": 1, "rank_in_cluster": 8}

>  <energy>  (50) 
-8.72

>  <cluster_rmsd>  (50) 
1.25

>  <rmsd>  (50) 
269.99

>  <cluster>  (50) 
1

$$$$
PTHZUPGKXGNJLI-NCDVCWAKNA-N
     RDKit          3D

 54 58  0  0  0  0  0  0  0  0999 V2000
  141.0860   72.4080  221.6210 O   0  0  0  0  0  0  0  0  0  0  0  0
  140.1030   72.4910  222.4080 C   0  0  0  0  0  0  0  0  0  0  0  0
  139.1040   73.5020  222.2020 N   0  0  0  0  0  0  0  0  0  0  0  0
  139.1810   74.4740  221.1130 C   0  0  0  0  0  0  0  0  0  0  0  0
  140.3350   75.4060  221.3380 C   0  0  0  0  0  0  0  0  0  0  0  0
  141.0770   75.2270  222.3420 O   0  0  0  0  0  0  0  0  0  0  0  0
  140.6250   76.4770  220.4190 N   0  0  0  0  0  0  0  0  0  0  0  0
  140.1710   76.5050  219.0360 C   0  0  0  0  0  0  0  0  0  0  0  0
  140.6720   77.8360  218.4730 C   0  0  2  0  0  0  0  0  0  0  0  0
  141.1200   77.7210  217.1440 O   0  0  0  0  0  0  0  0  0  0  0  0
  141.7790   78.3010  219.4250 C   0  0  0  0  0  0  0  0  0  0  0  0
  141.4810   77.6090  220.7580 C   0  0  1  0  0  0  0  0  0  0  0  0
  140.7780   78.5550  221.7180 C   0  0  0  0  0  0  0  0  0  0  0  0
  139.4150   78.5350  221.7670 N   0  0  0  0  0  0  0  0  0  0  0  0
  138.6980   79.3460  222.5850 C   0  0  0  0  0  0  0  0  0  0  0  0
  139.3470   80.2520  223.4180 C   0  0  0  0  0  0  0  0  0  0  0  0
  140.7430   80.3300  223.3940 C   0  0  0  0  0  0  0  0  0  0  0  0
  141.4100   81.2520  224.2160 C   0  0  0  0  0  0  0  0  0  0  0  0
  142.8020   81.3460  224.1810 C   0  0  0  0  0  0  0  0  0  0  0  0
  143.5380   80.5280  223.3250 C   0  0  0  0  0  0  0  0  0  0  0  0
  142.8910   79.6040  222.5010 C   0  0  0  0  0  0  0  0  0  0  0  0
  141.4840   79.4830  222.5280 C   0  0  0  0  0  0  0  0  0  0  0  0
  139.9930   71.5480  223.5430 C   0  0  0  0  0  0  0  0  0  0  0  0
  139.3290   70.3170  223.4020 C   0  0  0  0  0  0  0  0  0  0  0  0
  139.2450   69.4450  224.4890 C   0  0  0  0  0  0  0  0  0  0  0  0
  139.8210   69.8010  225.7140 C   0  0  0  0  0  0  0  0  0  0  0  0
  139.7560   68.9500  226.8260 C   0  0  0  0  0  0  0  0  0  0  0  0
  140.3410   69.3360  228.0370 C   0  0  0  0  0  0  0  0  0  0  0  0
  140.2780   68.5120  229.1130 F   0  0  0  0  0  0  0  0  0  0  0  0
  140.9940   70.5690  228.1420 C   0  0  0  0  0  0  0  0  0  0  0  0
  141.0640   71.4230  227.0360 C   0  0  0  0  0  0  0  0  0  0  0  0
  140.4810   71.0450  225.8210 C   0  0  0  0  0  0  0  0  0  0  0  0
  140.5460   71.8730  224.7450 N   0  0  0  0  0  0  0  0  0  0  0  0
  138.2300   73.4800  222.7740 H   0  0  0  0  0  0  0  0  0  0  0  0
  139.3220   73.9430  220.1600 H   0  0  0  0  0  0  0  0  0  0  0  0
  138.2479   75.0556  221.0814 H   0  0  0  0  0  0  0  0  0  0  0  0
  140.5995   75.6628  218.4728 H   0  0  0  0  0  0  0  0  0  0  0  0
  139.0773   76.4143  218.9617 H   0  0  0  0  0  0  0  0  0  0  0  0
  139.8590   78.5752  218.4218 H   0  0  0  0  0  0  0  0  0  0  0  0
  141.9430   78.2680  217.0500 H   0  0  0  0  0  0  0  0  0  0  0  0
  142.7661   77.9981  219.0456 H   0  0  0  0  0  0  0  0  0  0  0  0
  141.8000   79.3961  219.5266 H   0  0  0  0  0  0  0  0  0  0  0  0
  142.4021   77.2873  221.2661 H   0  0  0  0  0  0  0  0  0  0  0  0
  137.5996   79.2870  222.5897 H   0  0  0  0  0  0  0  0  0  0  0  0
  138.7668   80.9015  224.0899 H   0  0  0  0  0  0  0  0  0  0  0  0
  140.8335   81.9026  224.8900 H   0  0  0  0  0  0  0  0  0  0  0  0
  143.3197   82.0673  224.8304 H   0  0  0  0  0  0  0  0  0  0  0  0
  144.6346   80.6107  223.2983 H   0  0  0  0  0  0  0  0  0  0  0  0
  143.4813   78.9663  221.8266 H   0  0  0  0  0  0  0  0  0  0  0  0
  138.8768   70.0416  222.4378 H   0  0  0  0  0  0  0  0  0  0  0  0
  138.7273   68.4803  224.3830 H   0  0  0  0  0  0  0  0  0  0  0  0
  139.2452   67.9790  226.7466 H   0  0  0  0  0  0  0  0  0  0  0  0
  141.4532   70.8675  229.0959 H   0  0  0  0  0  0  0  0  0  0  0  0
  141.5775   72.3920  227.1214 H   0  0  0  0  0  0  0  0  0  0  0  0
  1  2  2  0
  2  3  1  0
  3  4  1  0
  4  5  1  0
  5  6  2  0
  5  7  1  0
  7  8  1  0
  8  9  1  0
  9 10  1  0
  9 11  1  0
 11 12  1  0
 12 13  1  0
 13 14  2  0
 14 15  1  0
 15 16  2  0
 16 17  1  0
 17 18  2  0
 18 19  1  0
 19 20  2  0
 20 21  1  0
 21 22  2  0
  2 23  1  0
 23 24  2  0
 24 25  1  0
 25 26  2  0
 26 27  1  0
 27 28  2  0
 28 29  1  0
 28 30  1  0
 30 31  2  0
 31 32  1  0
 32 33  2  0
 12  7  1  0
 22 13  1  0
 33 23  1  0
 22 17  1  0
 32 26  1  0
  3 34  1  0
  4 35  1  0
  4 36  1  0
  8 37  1  0
  8 38  1  0
  9 39  1  6
 10 40  1  0
 11 41  1  0
 11 42  1  0
 12 43  1  1
 15 44  1  0
 16 45  1  0
 18 46  1  0
 19 47  1  0
 20 48  1  0
 21 49  1  0
 24 50  1  0
 25 51  1  0
 27 52  1  0
 30 53  1  0
 31 54  1  0
M  END
>  <UniqueID>  (51) 
27

>  <SMILES>  (51) 
O=C(NCC(=O)N1C[C@H](O)C[C@H]1c1nccc2ccccc12)c1ccc2cc(F)ccc2n1

>  <Energy>  (51) 
68.07013114954229

>  <Genealogy>  (51) 
O=C(NCC(=O)N1C[C@H](O)C[C@H]1c1nccc2ccccc12)c1ccc2cc(F)ccc2n1 (3D coordinates assigned)
O=C(NCC(=O)N1C[C@H](O)C[C@H]1c1nccc2ccccc12)c1ccc2cc(F)ccc2n1 (nonaromatic ring conformer: 68.07013114954229 kcal/mol)

>  <smiles>  (51) 
O=C(NCC(=O)N1C[C@H](O)C[C@H]1c1nccc2ccccc12)c1ccc2cc(F)ccc2n1

>  <score_type>  (51) 
oracle

>  <origin>  (51) 
autodockgpu

>  <m_score__min__energy>  (51) 
-9.3699999999999992

>  <m_primary>  (51) 
energy

>  <meeko>  (51) 
{"free_energy": -9.37, "intermolecular_energy": -11.16, "internal_energy": -1.39, "cluster_size": 10, "cluster_id": 1, "rank_in_cluster": 1}

>  <energy>  (51) 
-9.2

>  <cluster_rmsd>  (51) 
0.0

>  <rmsd>  (51) 
269.7

>  <cluster>  (51) 
2

$$$$
PTHZUPGKXGNJLI-NCDVCWAKNA-N
     RDKit          3D

 54 58  0  0  0  0  0  0  0  0999 V2000
  136.1990   72.2480  221.4970 O   0  0  0  0  0  0  0  0  0  0  0  0
  137.1290   72.4250  222.3320 C   0  0  0  0  0  0  0  0  0  0  0  0
  137.0130   71.8820  223.6570 N   0  0  0  0  0  0  0  0  0  0  0  0
  135.8390   71.1340  224.1030 C   0  0  0  0  0  0  0  0  0  0  0  0
  136.0930   69.6610  223.9800 C   0  0  0  0  0  0  0  0  0  0  0  0
  135.2970   68.8560  224.5360 O   0  0  0  0  0  0  0  0  0  0  0  0
  137.2080   69.1530  223.2210 N   0  0  0  0  0  0  0  0  0  0  0  0
  137.2530   69.1220  221.7670 C   0  0  0  0  0  0  0  0  0  0  0  0
  138.6280   68.5500  221.4170 C   0  0  2  0  0  0  0  0  0  0  0  0
  138.5810   67.6800  220.3130 O   0  0  0  0  0  0  0  0  0  0  0  0
  139.1260   67.8560  222.6880 C   0  0  0  0  0  0  0  0  0  0  0  0
  138.3770   68.5340  223.8390 C   0  0  1  0  0  0  0  0  0  0  0  0
  139.2490   69.5760  224.5190 C   0  0  0  0  0  0  0  0  0  0  0  0
  139.5730   70.7050  223.8250 N   0  0  0  0  0  0  0  0  0  0  0  0
  140.3520   71.6870  224.3420 C   0  0  0  0  0  0  0  0  0  0  0  0
  140.8640   71.5690  225.6310 C   0  0  0  0  0  0  0  0  0  0  0  0
  140.5820   70.4230  226.3810 C   0  0  0  0  0  0  0  0  0  0  0  0
  141.1060   70.2830  227.6750 C   0  0  0  0  0  0  0  0  0  0  0  0
  140.8420   69.1330  228.4200 C   0  0  0  0  0  0  0  0  0  0  0  0
  140.0600   68.1130  227.8800 C   0  0  0  0  0  0  0  0  0  0  0  0
  139.5280   68.2370  226.5940 C   0  0  0  0  0  0  0  0  0  0  0  0
  139.7720   69.3970  225.8260 C   0  0  0  0  0  0  0  0  0  0  0  0
  138.3270   73.1970  221.9400 C   0  0  0  0  0  0  0  0  0  0  0  0
  138.3170   74.6030  221.9410 C   0  0  0  0  0  0  0  0  0  0  0  0
  139.4660   75.3050  221.5720 C   0  0  0  0  0  0  0  0  0  0  0  0
  140.6210   74.6080  221.2010 C   0  0  0  0  0  0  0  0  0  0  0  0
  141.7920   75.2810  220.8240 C   0  0  0  0  0  0  0  0  0  0  0  0
  142.9300   74.5530  220.4580 C   0  0  0  0  0  0  0  0  0  0  0  0
  144.0610   75.2060  220.0930 F   0  0  0  0  0  0  0  0  0  0  0  0
  142.9030   73.1550  220.4680 C   0  0  0  0  0  0  0  0  0  0  0  0
  141.7390   72.4760  220.8440 C   0  0  0  0  0  0  0  0  0  0  0  0
  140.5970   73.1960  221.2110 C   0  0  0  0  0  0  0  0  0  0  0  0
  139.4640   72.5400  221.5760 N   0  0  0  0  0  0  0  0  0  0  0  0
  137.8400   71.9170  224.2960 H   0  0  0  0  0  0  0  0  0  0  0  0
  135.6273   71.3808  225.1538 H   0  0  0  0  0  0  0  0  0  0  0  0
  134.9775   71.4058  223.4754 H   0  0  0  0  0  0  0  0  0  0  0  0
  136.4552   68.4768  221.3706 H   0  0  0  0  0  0  0  0  0  0  0  0
  137.1014   70.1204  221.3309 H   0  0  0  0  0  0  0  0  0  0  0  0
  139.3202   69.3458  221.1048 H   0  0  0  0  0  0  0  0  0  0  0  0
  137.8560   67.0210  220.4730 H   0  0  0  0  0  0  0  0  0  0  0  0
  138.8929   66.7814  222.6567 H   0  0  0  0  0  0  0  0  0  0  0  0
  140.2167   67.9421  222.8016 H   0  0  0  0  0  0  0  0  0  0  0  0
  138.0944   67.8154  224.6225 H   0  0  0  0  0  0  0  0  0  0  0  0
  140.5801   72.5796  223.7410 H   0  0  0  0  0  0  0  0  0  0  0  0
  141.4855   72.3708  226.0562 H   0  0  0  0  0  0  0  0  0  0  0  0
  141.7274   71.0829  228.1039 H   0  0  0  0  0  0  0  0  0  0  0  0
  141.2519   69.0311  229.4357 H   0  0  0  0  0  0  0  0  0  0  0  0
  139.8608   67.2059  228.4694 H   0  0  0  0  0  0  0  0  0  0  0  0
  138.9145   67.4250  226.1765 H   0  0  0  0  0  0  0  0  0  0  0  0
  137.4068   75.1481  222.2316 H   0  0  0  0  0  0  0  0  0  0  0  0
  139.4632   76.4050  221.5730 H   0  0  0  0  0  0  0  0  0  0  0  0
  141.8162   76.3807  220.8159 H   0  0  0  0  0  0  0  0  0  0  0  0
  143.7999   72.5873  220.1793 H   0  0  0  0  0  0  0  0  0  0  0  0
  141.7217   71.3762  220.8511 H   0  0  0  0  0  0  0  0  0  0  0  0
  1  2  2  0
  2  3  1  0
  3  4  1  0
  4  5  1  0
  5  6  2  0
  5  7  1  0
  7  8  1  0
  8  9  1  0
  9 10  1  0
  9 11  1  0
 11 12  1  0
 12 13  1  0
 13 14  2  0
 14 15  1  0
 15 16  2  0
 16 17  1  0
 17 18  2  0
 18 19  1  0
 19 20  2  0
 20 21  1  0
 21 22  2  0
  2 23  1  0
 23 24  2  0
 24 25  1  0
 25 26  2  0
 26 27  1  0
 27 28  2  0
 28 29  1  0
 28 30  1  0
 30 31  2  0
 31 32  1  0
 32 33  2  0
 12  7  1  0
 22 13  1  0
 33 23  1  0
 22 17  1  0
 32 26  1  0
  3 34  1  0
  4 35  1  0
  4 36  1  0
  8 37  1  0
  8 38  1  0
  9 39  1  6
 10 40  1  0
 11 41  1  0
 11 42  1  0
 12 43  1  1
 15 44  1  0
 16 45  1  0
 18 46  1  0
 19 47  1  0
 20 48  1  0
 21 49  1  0
 24 50  1  0
 25 51  1  0
 27 52  1  0
 30 53  1  0
 31 54  1  0
M  END
>  <UniqueID>  (52) 
27

>  <SMILES>  (52) 
O=C(NCC(=O)N1C[C@H](O)C[C@H]1c1nccc2ccccc12)c1ccc2cc(F)ccc2n1

>  <Energy>  (52) 
68.07013114954229

>  <Genealogy>  (52) 
O=C(NCC(=O)N1C[C@H](O)C[C@H]1c1nccc2ccccc12)c1ccc2cc(F)ccc2n1 (3D coordinates assigned)
O=C(NCC(=O)N1C[C@H](O)C[C@H]1c1nccc2ccccc12)c1ccc2cc(F)ccc2n1 (nonaromatic ring conformer: 68.07013114954229 kcal/mol)

>  <smiles>  (52) 
O=C(NCC(=O)N1C[C@H](O)C[C@H]1c1nccc2ccccc12)c1ccc2cc(F)ccc2n1

>  <score_type>  (52) 
oracle

>  <origin>  (52) 
autodockgpu

>  <m_score__min__energy>  (52) 
-9.3699999999999992

>  <m_primary>  (52) 
energy

>  <meeko>  (52) 
{"free_energy": -7.39, "intermolecular_energy": -9.18, "internal_energy": -3.16, "cluster_size": 4, "cluster_id": 5, "rank_in_cluster": 4}

>  <energy>  (52) 
-8.75

>  <cluster_rmsd>  (52) 
0.0

>  <rmsd>  (52) 
269.64

>  <cluster>  (52) 
3

$$$$
PTHZUPGKXGNJLI-NCDVCWAKNA-N
     RDKit          3D

 54 58  0  0  0  0  0  0  0  0999 V2000
  138.0190   70.8460  221.8120 O   0  0  0  0  0  0  0  0  0  0  0  0
  138.7620   71.3080  222.7220 C   0  0  0  0  0  0  0  0  0  0  0  0
  139.2630   72.6500  222.6240 N   0  0  0  0  0  0  0  0  0  0  0  0
  138.9630   73.5210  221.4880 C   0  0  0  0  0  0  0  0  0  0  0  0
  139.9140   74.6820  221.4690 C   0  0  0  0  0  0  0  0  0  0  0  0
  140.8260   74.7380  222.3380 O   0  0  0  0  0  0  0  0  0  0  0  0
  139.8200   75.7120  220.4650 N   0  0  0  0  0  0  0  0  0  0  0  0
  139.0220   75.5940  219.2530 C   0  0  0  0  0  0  0  0  0  0  0  0
  139.1910   76.9280  218.5260 C   0  0  2  0  0  0  0  0  0  0  0  0
  139.2900   76.7700  217.1310 O   0  0  0  0  0  0  0  0  0  0  0  0
  140.4410   77.5770  219.1300 C   0  0  0  0  0  0  0  0  0  0  0  0
  140.5880   76.9510  220.5200 C   0  0  1  0  0  0  0  0  0  0  0  0
  140.0480   77.8800  221.5950 C   0  0  0  0  0  0  0  0  0  0  0  0
  138.7340   77.7710  221.9470 N   0  0  0  0  0  0  0  0  0  0  0  0
  138.1580   78.5580  222.8890 C   0  0  0  0  0  0  0  0  0  0  0  0
  138.9070   79.5330  223.5400 C   0  0  0  0  0  0  0  0  0  0  0  0
  140.2540   79.7040  223.2040 C   0  0  0  0  0  0  0  0  0  0  0  0
  141.0170   80.6950  223.8410 C   0  0  0  0  0  0  0  0  0  0  0  0
  142.3570   80.8820  223.4960 C   0  0  0  0  0  0  0  0  0  0  0  0
  142.9430   80.0870  222.5120 C   0  0  0  0  0  0  0  0  0  0  0  0
  142.1980   79.0940  221.8690 C   0  0  0  0  0  0  0  0  0  0  0  0
  140.8450   78.8800  222.2110 C   0  0  0  0  0  0  0  0  0  0  0  0
  139.1170   70.4580  223.8790 C   0  0  0  0  0  0  0  0  0  0  0  0
  138.8290   69.0820  223.8850 C   0  0  0  0  0  0  0  0  0  0  0  0
  139.1810   68.3040  224.9890 C   0  0  0  0  0  0  0  0  0  0  0  0
  139.8180   68.8970  226.0850 C   0  0  0  0  0  0  0  0  0  0  0  0
  140.1860   68.1450  227.2100 C   0  0  0  0  0  0  0  0  0  0  0  0
  140.8210   68.7680  228.2900 C   0  0  0  0  0  0  0  0  0  0  0  0
  141.1770   68.0410  229.3780 F   0  0  0  0  0  0  0  0  0  0  0  0
  141.0920   70.1400  228.2500 C   0  0  0  0  0  0  0  0  0  0  0  0
  140.7290   70.8970  227.1300 C   0  0  0  0  0  0  0  0  0  0  0  0
  140.0940   70.2810  226.0470 C   0  0  0  0  0  0  0  0  0  0  0  0
  139.7390   71.0130  224.9570 N   0  0  0  0  0  0  0  0  0  0  0  0
  139.7630   73.0690  223.4400 H   0  0  0  0  0  0  0  0  0  0  0  0
  139.0659   72.9500  220.5535 H   0  0  0  0  0  0  0  0  0  0  0  0
  137.9338   73.8976  221.5824 H   0  0  0  0  0  0  0  0  0  0  0  0
  139.3896   74.7661  218.6290 H   0  0  0  0  0  0  0  0  0  0  0  0
  137.9664   75.3802  219.4767 H   0  0  0  0  0  0  0  0  0  0  0  0
  138.3071   77.5680  218.6644 H   0  0  0  0  0  0  0  0  0  0  0  0
  140.1960   76.4210  216.9260 H   0  0  0  0  0  0  0  0  0  0  0  0
  141.3252   77.3584  218.5132 H   0  0  0  0  0  0  0  0  0  0  0  0
  140.3516   78.6722  219.1802 H   0  0  0  0  0  0  0  0  0  0  0  0
  141.6417   76.7671  220.7766 H   0  0  0  0  0  0  0  0  0  0  0  0
  137.0951   78.4251  223.1393 H   0  0  0  0  0  0  0  0  0  0  0  0
  138.4437   80.1642  224.3126 H   0  0  0  0  0  0  0  0  0  0  0  0
  140.5574   81.3269  224.6152 H   0  0  0  0  0  0  0  0  0  0  0  0
  142.9511   81.6577  224.0013 H   0  0  0  0  0  0  0  0  0  0  0  0
  143.9975   80.2419  222.2400 H   0  0  0  0  0  0  0  0  0  0  0  0
  142.6692   78.4751  221.0912 H   0  0  0  0  0  0  0  0  0  0  0  0
  138.3276   68.6198  223.0219 H   0  0  0  0  0  0  0  0  0  0  0  0
  138.9582   67.2268  224.9976 H   0  0  0  0  0  0  0  0  0  0  0  0
  139.9756   67.0658  227.2434 H   0  0  0  0  0  0  0  0  0  0  0  0
  141.5918   70.6253  229.1013 H   0  0  0  0  0  0  0  0  0  0  0  0
  140.9431   71.9756  227.1017 H   0  0  0  0  0  0  0  0  0  0  0  0
  1  2  2  0
  2  3  1  0
  3  4  1  0
  4  5  1  0
  5  6  2  0
  5  7  1  0
  7  8  1  0
  8  9  1  0
  9 10  1  0
  9 11  1  0
 11 12  1  0
 12 13  1  0
 13 14  2  0
 14 15  1  0
 15 16  2  0
 16 17  1  0
 17 18  2  0
 18 19  1  0
 19 20  2  0
 20 21  1  0
 21 22  2  0
  2 23  1  0
 23 24  2  0
 24 25  1  0
 25 26  2  0
 26 27  1  0
 27 28  2  0
 28 29  1  0
 28 30  1  0
 30 31  2  0
 31 32  1  0
 32 33  2  0
 12  7  1  0
 22 13  1  0
 33 23  1  0
 22 17  1  0
 32 26  1  0
  3 34  1  0
  4 35  1  0
  4 36  1  0
  8 37  1  0
  8 38  1  0
  9 39  1  6
 10 40  1  0
 11 41  1  0
 11 42  1  0
 12 43  1  1
 15 44  1  0
 16 45  1  0
 18 46  1  0
 19 47  1  0
 20 48  1  0
 21 49  1  0
 24 50  1  0
 25 51  1  0
 27 52  1  0
 30 53  1  0
 31 54  1  0
M  END
>  <UniqueID>  (53) 
27

>  <SMILES>  (53) 
O=C(NCC(=O)N1C[C@H](O)C[C@H]1c1nccc2ccccc12)c1ccc2cc(F)ccc2n1

>  <Energy>  (53) 
68.07013114954229

>  <Genealogy>  (53) 
O=C(NCC(=O)N1C[C@H](O)C[C@H]1c1nccc2ccccc12)c1ccc2cc(F)ccc2n1 (3D coordinates assigned)
O=C(NCC(=O)N1C[C@H](O)C[C@H]1c1nccc2ccccc12)c1ccc2cc(F)ccc2n1 (nonaromatic ring conformer: 68.07013114954229 kcal/mol)

>  <smiles>  (53) 
O=C(NCC(=O)N1C[C@H](O)C[C@H]1c1nccc2ccccc12)c1ccc2cc(F)ccc2n1

>  <score_type>  (53) 
oracle

>  <origin>  (53) 
autodockgpu

>  <m_score__min__energy>  (53) 
-9.3699999999999992

>  <m_primary>  (53) 
energy

>  <meeko>  (53) 
{"free_energy": -8.72, "intermolecular_energy": -10.51, "internal_energy": -2.12, "cluster_size": 10, "cluster_id": 1, "rank_in_cluster": 10}

>  <energy>  (53) 
-8.71

>  <cluster_rmsd>  (53) 
0.09

>  <rmsd>  (53) 
269.6

>  <cluster>  (53) 
3

$$$$
PTHZUPGKXGNJLI-NCDVCWAKNA-N
     RDKit          3D

 54 58  0  0  0  0  0  0  0  0999 V2000
  140.6280   77.5050  218.7140 O   0  0  0  0  0  0  0  0  0  0  0  0
  141.8900   77.4740  218.7430 C   0  0  0  0  0  0  0  0  0  0  0  0
  142.6340   78.7020  218.7960 N   0  0  0  0  0  0  0  0  0  0  0  0
  141.9900   80.0140  218.7990 C   0  0  0  0  0  0  0  0  0  0  0  0
  140.9530   80.0720  219.8830 C   0  0  0  0  0  0  0  0  0  0  0  0
  139.7410   80.2020  219.5600 O   0  0  0  0  0  0  0  0  0  0  0  0
  141.3140   79.9560  221.2730 N   0  0  0  0  0  0  0  0  0  0  0  0
  141.5470   81.0940  222.1500 C   0  0  0  0  0  0  0  0  0  0  0  0
  141.8530   80.4910  223.5220 C   0  0  2  0  0  0  0  0  0  0  0  0
  142.8650   81.1930  224.2020 O   0  0  0  0  0  0  0  0  0  0  0  0
  142.2300   79.0290  223.2610 C   0  0  0  0  0  0  0  0  0  0  0  0
  141.5680   78.6750  221.9250 C   0  0  1  0  0  0  0  0  0  0  0  0
  140.2750   77.9080  222.1440 C   0  0  0  0  0  0  0  0  0  0  0  0
  139.1740   78.5980  222.5610 N   0  0  0  0  0  0  0  0  0  0  0  0
  137.9780   78.0020  222.7920 C   0  0  0  0  0  0  0  0  0  0  0  0
  137.8320   76.6300  222.6100 C   0  0  0  0  0  0  0  0  0  0  0  0
  138.9330   75.8690  222.2040 C   0  0  0  0  0  0  0  0  0  0  0  0
  138.8050   74.4820  222.0340 C   0  0  0  0  0  0  0  0  0  0  0  0
  139.9060   73.7160  221.6460 C   0  0  0  0  0  0  0  0  0  0  0  0
  141.1410   74.3260  221.4310 C   0  0  0  0  0  0  0  0  0  0  0  0
  141.2860   75.7060  221.5940 C   0  0  0  0  0  0  0  0  0  0  0  0
  140.1830   76.5020  221.9740 C   0  0  0  0  0  0  0  0  0  0  0  0
  142.5910   76.1730  218.7130 C   0  0  0  0  0  0  0  0  0  0  0  0
  142.3000   75.2130  217.7280 C   0  0  0  0  0  0  0  0  0  0  0  0
  142.9820   73.9950  217.7230 C   0  0  0  0  0  0  0  0  0  0  0  0
  143.9520   73.7350  218.6970 C   0  0  0  0  0  0  0  0  0  0  0  0
  144.6560   72.5220  218.7210 C   0  0  0  0  0  0  0  0  0  0  0  0
  145.6200   72.2930  219.7100 C   0  0  0  0  0  0  0  0  0  0  0  0
  146.3000   71.1200  219.7320 F   0  0  0  0  0  0  0  0  0  0  0  0
  145.8840   73.2710  220.6750 C   0  0  0  0  0  0  0  0  0  0  0  0
  145.1860   74.4830  220.6570 C   0  0  0  0  0  0  0  0  0  0  0  0
  144.2210   74.7210  219.6720 C   0  0  0  0  0  0  0  0  0  0  0  0
  143.5400   75.8970  219.6510 N   0  0  0  0  0  0  0  0  0  0  0  0
  143.6670   78.6660  218.9540 H   0  0  0  0  0  0  0  0  0  0  0  0
  142.7474   80.7916  218.9769 H   0  0  0  0  0  0  0  0  0  0  0  0
  141.5060   80.1819  217.8256 H   0  0  0  0  0  0  0  0  0  0  0  0
  142.4004   81.6883  221.7914 H   0  0  0  0  0  0  0  0  0  0  0  0
  140.6798   81.7699  222.1835 H   0  0  0  0  0  0  0  0  0  0  0  0
  140.9803   80.5605  224.1880 H   0  0  0  0  0  0  0  0  0  0  0  0
  142.5840   82.1420  224.2750 H   0  0  0  0  0  0  0  0  0  0  0  0
  143.3223   78.9190  223.1913 H   0  0  0  0  0  0  0  0  0  0  0  0
  141.8955   78.3671  224.0734 H   0  0  0  0  0  0  0  0  0  0  0  0
  142.2076   78.0239  221.3111 H   0  0  0  0  0  0  0  0  0  0  0  0
  137.1202   78.6051  223.1244 H   0  0  0  0  0  0  0  0  0  0  0  0
  136.8586   76.1480  222.7840 H   0  0  0  0  0  0  0  0  0  0  0  0
  137.8334   73.9963  222.2071 H   0  0  0  0  0  0  0  0  0  0  0  0
  139.7988   72.6297  221.5098 H   0  0  0  0  0  0  0  0  0  0  0  0
  142.0066   73.7171  221.1312 H   0  0  0  0  0  0  0  0  0  0  0  0
  142.2662   76.1759  221.4252 H   0  0  0  0  0  0  0  0  0  0  0  0
  141.5371   75.4211  216.9634 H   0  0  0  0  0  0  0  0  0  0  0  0
  142.7571   73.2409  216.9545 H   0  0  0  0  0  0  0  0  0  0  0  0
  144.4508   71.7514  217.9633 H   0  0  0  0  0  0  0  0  0  0  0  0
  146.6425   73.0863  221.4499 H   0  0  0  0  0  0  0  0  0  0  0  0
  145.3958   75.2495  221.4176 H   0  0  0  0  0  0  0  0  0  0  0  0
  1  2  2  0
  2  3  1  0
  3  4  1  0
  4  5  1  0
  5  6  2  0
  5  7  1  0
  7  8  1  0
  8  9  1  0
  9 10  1  0
  9 11  1  0
 11 12  1  0
 12 13  1  0
 13 14  2  0
 14 15  1  0
 15 16  2  0
 16 17  1  0
 17 18  2  0
 18 19  1  0
 19 20  2  0
 20 21  1  0
 21 22  2  0
  2 23  1  0
 23 24  2  0
 24 25  1  0
 25 26  2  0
 26 27  1  0
 27 28  2  0
 28 29  1  0
 28 30  1  0
 30 31  2  0
 31 32  1  0
 32 33  2  0
 12  7  1  0
 22 13  1  0
 33 23  1  0
 22 17  1  0
 32 26  1  0
  3 34  1  0
  4 35  1  0
  4 36  1  0
  8 37  1  0
  8 38  1  0
  9 39  1  1
 10 40  1  0
 11 41  1  0
 11 42  1  0
 12 43  1  6
 15 44  1  0
 16 45  1  0
 18 46  1  0
 19 47  1  0
 20 48  1  0
 21 49  1  0
 24 50  1  0
 25 51  1  0
 27 52  1  0
 30 53  1  0
 31 54  1  0
M  END
>  <UniqueID>  (54) 
27

>  <SMILES>  (54) 
O=C(NCC(=O)N1C[C@H](O)C[C@H]1c1nccc2ccccc12)c1ccc2cc(F)ccc2n1

>  <Energy>  (54) 
68.07013114954229

>  <Genealogy>  (54) 
O=C(NCC(=O)N1C[C@H](O)C[C@H]1c1nccc2ccccc12)c1ccc2cc(F)ccc2n1 (3D coordinates assigned)
O=C(NCC(=O)N1C[C@H](O)C[C@H]1c1nccc2ccccc12)c1ccc2cc(F)ccc2n1 (nonaromatic ring conformer: 68.07013114954229 kcal/mol)

>  <smiles>  (54) 
O=C(NCC(=O)N1C[C@H](O)C[C@H]1c1nccc2ccccc12)c1ccc2cc(F)ccc2n1

>  <score_type>  (54) 
oracle

>  <origin>  (54) 
autodockgpu

>  <m_score__min__energy>  (54) 
-9.3699999999999992

>  <m_primary>  (54) 
energy

>  <meeko>  (54) 
{"free_energy": -7.09, "intermolecular_energy": -8.88, "internal_energy": -2.77, "cluster_size": 1, "cluster_id": 6, "rank_in_cluster": 1}

>  <energy>  (54) 
-8.69

>  <cluster_rmsd>  (54) 
0.08

>  <rmsd>  (54) 
269.6

>  <cluster>  (54) 
3

$$$$
PTHZUPGKXGNJLI-NCDVCWAKNA-N
     RDKit          3D

 54 58  0  0  0  0  0  0  0  0999 V2000
  139.8970   73.6170  222.4200 O   0  0  0  0  0  0  0  0  0  0  0  0
  140.1220   72.3870  222.2490 C   0  0  0  0  0  0  0  0  0  0  0  0
  140.4030   71.8880  220.9310 N   0  0  0  0  0  0  0  0  0  0  0  0
  140.4240   72.7490  219.7510 C   0  0  0  0  0  0  0  0  0  0  0  0
  141.6440   72.4580  218.9270 C   0  0  0  0  0  0  0  0  0  0  0  0
  141.5070   71.8700  217.8210 O   0  0  0  0  0  0  0  0  0  0  0  0
  142.9570   72.8620  219.3630 N   0  0  0  0  0  0  0  0  0  0  0  0
  144.1910   72.2270  218.9210 C   0  0  0  0  0  0  0  0  0  0  0  0
  145.3150   73.0100  219.6010 C   0  0  2  0  0  0  0  0  0  0  0  0
  146.3620   72.1770  220.0340 O   0  0  0  0  0  0  0  0  0  0  0  0
  144.6550   73.7670  220.7580 C   0  0  0  0  0  0  0  0  0  0  0  0
  143.1800   73.9000  220.3640 C   0  0  1  0  0  0  0  0  0  0  0  0
  142.8900   75.2790  219.7940 C   0  0  0  0  0  0  0  0  0  0  0  0
  143.5130   75.6470  218.6380 N   0  0  0  0  0  0  0  0  0  0  0  0
  143.3260   76.8580  218.0560 C   0  0  0  0  0  0  0  0  0  0  0  0
  142.4730   77.7900  218.6390 C   0  0  0  0  0  0  0  0  0  0  0  0
  141.8240   77.4740  219.8370 C   0  0  0  0  0  0  0  0  0  0  0  0
  140.9740   78.4120  220.4450 C   0  0  0  0  0  0  0  0  0  0  0  0
  140.3390   78.1080  221.6500 C   0  0  0  0  0  0  0  0  0  0  0  0
  140.5500   76.8720  222.2590 C   0  0  0  0  0  0  0  0  0  0  0  0
  141.3900   75.9260  221.6670 C   0  0  0  0  0  0  0  0  0  0  0  0
  142.0340   76.2070  220.4410 C   0  0  0  0  0  0  0  0  0  0  0  0
  140.0850   71.4680  223.4070 C   0  0  0  0  0  0  0  0  0  0  0  0
  139.5650   70.1680  223.2850 C   0  0  0  0  0  0  0  0  0  0  0  0
  139.5480   69.3200  224.3940 C   0  0  0  0  0  0  0  0  0  0  0  0
  140.0480   69.7690  225.6230 C   0  0  0  0  0  0  0  0  0  0  0  0
  140.0470   68.9440  226.7570 C   0  0  0  0  0  0  0  0  0  0  0  0
  140.5530   69.4240  227.9700 C   0  0  0  0  0  0  0  0  0  0  0  0
  140.5510   68.6260  229.0660 F   0  0  0  0  0  0  0  0  0  0  0  0
  141.0620   70.7240  228.0550 C   0  0  0  0  0  0  0  0  0  0  0  0
  141.0680   71.5530  226.9270 C   0  0  0  0  0  0  0  0  0  0  0  0
  140.5640   71.0810  225.7100 C   0  0  0  0  0  0  0  0  0  0  0  0
  140.5670   71.8820  224.6120 N   0  0  0  0  0  0  0  0  0  0  0  0
  140.7180   70.8980  220.8180 H   0  0  0  0  0  0  0  0  0  0  0  0
  139.5234   72.5625  219.1475 H   0  0  0  0  0  0  0  0  0  0  0  0
  140.4462   73.8011  220.0712 H   0  0  0  0  0  0  0  0  0  0  0  0
  144.2140   71.1720  219.2317 H   0  0  0  0  0  0  0  0  0  0  0  0
  144.2882   72.2388  217.8254 H   0  0  0  0  0  0  0  0  0  0  0  0
  145.7949   73.7052  218.8964 H   0  0  0  0  0  0  0  0  0  0  0  0
  146.1380   71.8500  220.9440 H   0  0  0  0  0  0  0  0  0  0  0  0
  144.7539   73.2003  221.6956 H   0  0  0  0  0  0  0  0  0  0  0  0
  145.1244   74.7472  220.9279 H   0  0  0  0  0  0  0  0  0  0  0  0
  142.5128   73.7825  221.2306 H   0  0  0  0  0  0  0  0  0  0  0  0
  143.8501   77.1039  217.1207 H   0  0  0  0  0  0  0  0  0  0  0  0
  142.3104   78.7675  218.1615 H   0  0  0  0  0  0  0  0  0  0  0  0
  140.8081   79.3900  219.9697 H   0  0  0  0  0  0  0  0  0  0  0  0
  139.6710   78.8449  222.1199 H   0  0  0  0  0  0  0  0  0  0  0  0
  140.0518   76.6402  223.2119 H   0  0  0  0  0  0  0  0  0  0  0  0
  141.5514   74.9553  222.1587 H   0  0  0  0  0  0  0  0  0  0  0  0
  139.1724   69.8196  222.3183 H   0  0  0  0  0  0  0  0  0  0  0  0
  139.1428   68.3014  224.3028 H   0  0  0  0  0  0  0  0  0  0  0  0
  139.6488   67.9206  226.6930 H   0  0  0  0  0  0  0  0  0  0  0  0
  141.4588   71.0961  229.0111 H   0  0  0  0  0  0  0  0  0  0  0  0
  141.4687   72.5750  226.9973 H   0  0  0  0  0  0  0  0  0  0  0  0
  1  2  2  0
  2  3  1  0
  3  4  1  0
  4  5  1  0
  5  6  2  0
  5  7  1  0
  7  8  1  0
  8  9  1  0
  9 10  1  0
  9 11  1  0
 11 12  1  0
 12 13  1  0
 13 14  2  0
 14 15  1  0
 15 16  2  0
 16 17  1  0
 17 18  2  0
 18 19  1  0
 19 20  2  0
 20 21  1  0
 21 22  2  0
  2 23  1  0
 23 24  2  0
 24 25  1  0
 25 26  2  0
 26 27  1  0
 27 28  2  0
 28 29  1  0
 28 30  1  0
 30 31  2  0
 31 32  1  0
 32 33  2  0
 12  7  1  0
 22 13  1  0
 33 23  1  0
 22 17  1  0
 32 26  1  0
  3 34  1  0
  4 35  1  0
  4 36  1  0
  8 37  1  0
  8 38  1  0
  9 39  1  6
 10 40  1  0
 11 41  1  0
 11 42  1  0
 12 43  1  1
 15 44  1  0
 16 45  1  0
 18 46  1  0
 19 47  1  0
 20 48  1  0
 21 49  1  0
 24 50  1  0
 25 51  1  0
 27 52  1  0
 30 53  1  0
 31 54  1  0
M  END
>  <UniqueID>  (55) 
27

>  <SMILES>  (55) 
O=C(NCC(=O)N1C[C@H](O)C[C@H]1c1nccc2ccccc12)c1ccc2cc(F)ccc2n1

>  <Energy>  (55) 
68.07013114954229

>  <Genealogy>  (55) 
O=C(NCC(=O)N1C[C@H](O)C[C@H]1c1nccc2ccccc12)c1ccc2cc(F)ccc2n1 (3D coordinates assigned)
O=C(NCC(=O)N1C[C@H](O)C[C@H]1c1nccc2ccccc12)c1ccc2cc(F)ccc2n1 (nonaromatic ring conformer: 68.07013114954229 kcal/mol)

>  <smiles>  (55) 
O=C(NCC(=O)N1C[C@H](O)C[C@H]1c1nccc2ccccc12)c1ccc2cc(F)ccc2n1

>  <score_type>  (55) 
oracle

>  <origin>  (55) 
autodockgpu

>  <m_score__min__energy>  (55) 
-9.3699999999999992

>  <m_primary>  (55) 
energy

>  <meeko>  (55) 
{"free_energy": -9.2, "intermolecular_energy": -10.99, "internal_energy": -1.81, "cluster_size": 1, "cluster_id": 2, "rank_in_cluster": 1}

>  <energy>  (55) 
-8.57

>  <cluster_rmsd>  (55) 
0.0

>  <rmsd>  (55) 
269.53

>  <cluster>  (55) 
4

$$$$
PTHZUPGKXGNJLI-NCDVCWAKNA-N
     RDKit          3D

 54 58  0  0  0  0  0  0  0  0999 V2000
  133.3350   70.1450  226.7350 O   0  0  0  0  0  0  0  0  0  0  0  0
  133.6680   71.2440  226.2120 C   0  0  0  0  0  0  0  0  0  0  0  0
  134.6250   71.2660  225.1400 N   0  0  0  0  0  0  0  0  0  0  0  0
  135.2600   70.0530  224.6270 C   0  0  0  0  0  0  0  0  0  0  0  0
  136.2920   70.4120  223.5980 C   0  0  0  0  0  0  0  0  0  0  0  0
  136.2540   71.5560  223.0700 O   0  0  0  0  0  0  0  0  0  0  0  0
  137.3340   69.4880  223.2270 N   0  0  0  0  0  0  0  0  0  0  0  0
  137.6080   69.0800  221.8570 C   0  0  0  0  0  0  0  0  0  0  0  0
  138.8110   68.1400  221.9480 C   0  0  2  0  0  0  0  0  0  0  0  0
  138.7100   67.0530  221.0610 O   0  0  0  0  0  0  0  0  0  0  0  0
  138.8840   67.6950  223.4120 C   0  0  0  0  0  0  0  0  0  0  0  0
  138.1700   68.7960  224.2040 C   0  0  1  0  0  0  0  0  0  0  0  0
  139.1700   69.7480  224.8370 C   0  0  0  0  0  0  0  0  0  0  0  0
  139.5400   70.8600  224.1380 N   0  0  0  0  0  0  0  0  0  0  0  0
  140.4310   71.7650  224.6140 C   0  0  0  0  0  0  0  0  0  0  0  0
  141.0170   71.5800  225.8630 C   0  0  0  0  0  0  0  0  0  0  0  0
  140.6910   70.4460  226.6140 C   0  0  0  0  0  0  0  0  0  0  0  0
  141.2880   70.2370  227.8670 C   0  0  0  0  0  0  0  0  0  0  0  0
  140.9800   69.0970  228.6120 C   0  0  0  0  0  0  0  0  0  0  0  0
  140.0810   68.1570  228.1120 C   0  0  0  0  0  0  0  0  0  0  0  0
  139.4760   68.3490  226.8680 C   0  0  0  0  0  0  0  0  0  0  0  0
  139.7640   69.5010  226.1020 C   0  0  0  0  0  0  0  0  0  0  0  0
  133.0750   72.5030  226.7130 C   0  0  0  0  0  0  0  0  0  0  0  0
  131.8810   72.4980  227.4540 C   0  0  0  0  0  0  0  0  0  0  0  0
  131.3470   73.7010  227.9180 C   0  0  0  0  0  0  0  0  0  0  0  0
  132.0030   74.9070  227.6440 C   0  0  0  0  0  0  0  0  0  0  0  0
  131.4950   76.1340  228.0950 C   0  0  0  0  0  0  0  0  0  0  0  0
  132.1750   77.3210  227.8020 C   0  0  0  0  0  0  0  0  0  0  0  0
  131.6840   78.5070  228.2390 F   0  0  0  0  0  0  0  0  0  0  0  0
  133.3620   77.2890  227.0620 C   0  0  0  0  0  0  0  0  0  0  0  0
  133.8750   76.0680  226.6090 C   0  0  0  0  0  0  0  0  0  0  0  0
  133.2010   74.8760  226.8970 C   0  0  0  0  0  0  0  0  0  0  0  0
  133.6960   73.6890  226.4590 N   0  0  0  0  0  0  0  0  0  0  0  0
  134.7940   72.1590  224.6250 H   0  0  0  0  0  0  0  0  0  0  0  0
  135.7434   69.5158  225.4563 H   0  0  0  0  0  0  0  0  0  0  0  0
  134.4951   69.4121  224.1642 H   0  0  0  0  0  0  0  0  0  0  0  0
  136.7404   68.5551  221.4306 H   0  0  0  0  0  0  0  0  0  0  0  0
  137.8104   69.9427  221.2052 H   0  0  0  0  0  0  0  0  0  0  0  0
  139.7362   68.6520  221.6449 H   0  0  0  0  0  0  0  0  0  0  0  0
  139.0560   66.2460  221.5250 H   0  0  0  0  0  0  0  0  0  0  0  0
  138.3738   66.7299  223.5475 H   0  0  0  0  0  0  0  0  0  0  0  0
  139.9222   67.5553  223.7475 H   0  0  0  0  0  0  0  0  0  0  0  0
  137.5755   68.3840  225.0327 H   0  0  0  0  0  0  0  0  0  0  0  0
  140.6913   72.6477  224.0114 H   0  0  0  0  0  0  0  0  0  0  0  0
  141.7304   72.3194  226.2560 H   0  0  0  0  0  0  0  0  0  0  0  0
  142.0014   70.9743  228.2637 H   0  0  0  0  0  0  0  0  0  0  0  0
  141.4478   68.9406  229.5952 H   0  0  0  0  0  0  0  0  0  0  0  0
  139.8464   67.2580  228.7009 H   0  0  0  0  0  0  0  0  0  0  0  0
  138.7706   67.5985  226.4819 H   0  0  0  0  0  0  0  0  0  0  0  0
  131.3686   71.5484  227.6677 H   0  0  0  0  0  0  0  0  0  0  0  0
  130.4123   73.7016  228.4980 H   0  0  0  0  0  0  0  0  0  0  0  0
  130.5629   76.1630  228.6785 H   0  0  0  0  0  0  0  0  0  0  0  0
  133.8932   78.2253  226.8357 H   0  0  0  0  0  0  0  0  0  0  0  0
  134.8079   76.0455  226.0266 H   0  0  0  0  0  0  0  0  0  0  0  0
  1  2  2  0
  2  3  1  0
  3  4  1  0
  4  5  1  0
  5  6  2  0
  5  7  1  0
  7  8  1  0
  8  9  1  0
  9 10  1  0
  9 11  1  0
 11 12  1  0
 12 13  1  0
 13 14  2  0
 14 15  1  0
 15 16  2  0
 16 17  1  0
 17 18  2  0
 18 19  1  0
 19 20  2  0
 20 21  1  0
 21 22  2  0
  2 23  1  0
 23 24  2  0
 24 25  1  0
 25 26  2  0
 26 27  1  0
 27 28  2  0
 28 29  1  0
 28 30  1  0
 30 31  2  0
 31 32  1  0
 32 33  2  0
 12  7  1  0
 22 13  1  0
 33 23  1  0
 22 17  1  0
 32 26  1  0
  3 34  1  0
  4 35  1  0
  4 36  1  0
  8 37  1  0
  8 38  1  0
  9 39  1  6
 10 40  1  0
 11 41  1  0
 11 42  1  0
 12 43  1  1
 15 44  1  0
 16 45  1  0
 18 46  1  0
 19 47  1  0
 20 48  1  0
 21 49  1  0
 24 50  1  0
 25 51  1  0
 27 52  1  0
 30 53  1  0
 31 54  1  0
M  END
>  <UniqueID>  (56) 
27

>  <SMILES>  (56) 
O=C(NCC(=O)N1C[C@H](O)C[C@H]1c1nccc2ccccc12)c1ccc2cc(F)ccc2n1

>  <Energy>  (56) 
68.07013114954229

>  <Genealogy>  (56) 
O=C(NCC(=O)N1C[C@H](O)C[C@H]1c1nccc2ccccc12)c1ccc2cc(F)ccc2n1 (3D coordinates assigned)
O=C(NCC(=O)N1C[C@H](O)C[C@H]1c1nccc2ccccc12)c1ccc2cc(F)ccc2n1 (nonaromatic ring conformer: 68.07013114954229 kcal/mol)

>  <smiles>  (56) 
O=C(NCC(=O)N1C[C@H](O)C[C@H]1c1nccc2ccccc12)c1ccc2cc(F)ccc2n1

>  <score_type>  (56) 
oracle

>  <origin>  (56) 
autodockgpu

>  <m_score__min__energy>  (56) 
-9.3699999999999992

>  <m_primary>  (56) 
energy

>  <meeko>  (56) 
{"free_energy": -8.57, "intermolecular_energy": -10.36, "internal_energy": -2.13, "cluster_size": 1, "cluster_id": 4, "rank_in_cluster": 1}

>  <energy>  (56) 
-7.41

>  <cluster_rmsd>  (56) 
0.0

>  <rmsd>  (56) 
268.88

>  <cluster>  (56) 
5

$$$$
PTHZUPGKXGNJLI-NCDVCWAKNA-N
     RDKit          3D

 54 58  0  0  0  0  0  0  0  0999 V2000
  136.1830   72.2750  221.5570 O   0  0  0  0  0  0  0  0  0  0  0  0
  137.1290   72.4520  222.3740 C   0  0  0  0  0  0  0  0  0  0  0  0
  137.0400   71.9090  223.7010 N   0  0  0  0  0  0  0  0  0  0  0  0
  135.8750   71.1600  224.1680 C   0  0  0  0  0  0  0  0  0  0  0  0
  136.0900   69.6910  223.9540 C   0  0  0  0  0  0  0  0  0  0  0  0
  135.2620   68.8750  224.4420 O   0  0  0  0  0  0  0  0  0  0  0  0
  137.2050   69.2010  223.1810 N   0  0  0  0  0  0  0  0  0  0  0  0
  137.2450   69.1970  221.7260 C   0  0  0  0  0  0  0  0  0  0  0  0
  138.6210   68.6380  221.3620 C   0  0  2  0  0  0  0  0  0  0  0  0
  138.5740   67.7870  220.2430 O   0  0  0  0  0  0  0  0  0  0  0  0
  139.1270   67.9230  222.6190 C   0  0  0  0  0  0  0  0  0  0  0  0
  138.3790   68.5780  223.7840 C   0  0  1  0  0  0  0  0  0  0  0  0
  139.2490   69.6110  224.4800 C   0  0  0  0  0  0  0  0  0  0  0  0
  139.5900   70.7400  223.7930 N   0  0  0  0  0  0  0  0  0  0  0  0
  140.3680   71.7160  224.3240 C   0  0  0  0  0  0  0  0  0  0  0  0
  140.8620   71.5900  225.6190 C   0  0  0  0  0  0  0  0  0  0  0  0
  140.5620   70.4430  226.3620 C   0  0  0  0  0  0  0  0  0  0  0  0
  141.0670   70.2960  227.6630 C   0  0  0  0  0  0  0  0  0  0  0  0
  140.7860   69.1440  228.4000 C   0  0  0  0  0  0  0  0  0  0  0  0
  140.0040   68.1320  227.8460 C   0  0  0  0  0  0  0  0  0  0  0  0
  139.4910   68.2630  226.5530 C   0  0  0  0  0  0  0  0  0  0  0  0
  139.7530   69.4250  225.7930 C   0  0  0  0  0  0  0  0  0  0  0  0
  138.3190   73.2260  221.9590 C   0  0  0  0  0  0  0  0  0  0  0  0
  138.2920   74.6300  221.9120 C   0  0  0  0  0  0  0  0  0  0  0  0
  139.4320   75.3340  221.5220 C   0  0  0  0  0  0  0  0  0  0  0  0
  140.5980   74.6390  221.1780 C   0  0  0  0  0  0  0  0  0  0  0  0
  141.7610   75.3140  220.7820 C   0  0  0  0  0  0  0  0  0  0  0  0
  142.9090   74.5890  220.4440 C   0  0  0  0  0  0  0  0  0  0  0  0
  144.0330   75.2420  220.0600 F   0  0  0  0  0  0  0  0  0  0  0  0
  142.9000   73.1910  220.5010 C   0  0  0  0  0  0  0  0  0  0  0  0
  141.7430   72.5110  220.8970 C   0  0  0  0  0  0  0  0  0  0  0  0
  140.5910   73.2280  221.2360 C   0  0  0  0  0  0  0  0  0  0  0  0
  139.4650   72.5710  221.6210 N   0  0  0  0  0  0  0  0  0  0  0  0
  137.8780   71.9440  224.3230 H   0  0  0  0  0  0  0  0  0  0  0  0
  135.7233   71.3536  225.2402 H   0  0  0  0  0  0  0  0  0  0  0  0
  134.9884   71.4814  223.6018 H   0  0  0  0  0  0  0  0  0  0  0  0
  136.4488   68.5554  221.3204 H   0  0  0  0  0  0  0  0  0  0  0  0
  137.0871   70.2024  221.3085 H   0  0  0  0  0  0  0  0  0  0  0  0
  139.3083   69.4429  221.0623 H   0  0  0  0  0  0  0  0  0  0  0  0
  138.0060   68.2180  219.5530 H   0  0  0  0  0  0  0  0  0  0  0  0
  138.8982   66.8482  222.5696 H   0  0  0  0  0  0  0  0  0  0  0  0
  140.2178   68.0109  222.7303 H   0  0  0  0  0  0  0  0  0  0  0  0
  138.1021   67.8452  224.5563 H   0  0  0  0  0  0  0  0  0  0  0  0
  140.6091   72.6095  223.7295 H   0  0  0  0  0  0  0  0  0  0  0  0
  141.4835   72.3860  226.0550 H   0  0  0  0  0  0  0  0  0  0  0  0
  141.6864   71.0911  228.1036 H   0  0  0  0  0  0  0  0  0  0  0  0
  141.1827   69.0348  229.4202 H   0  0  0  0  0  0  0  0  0  0  0  0
  139.7895   67.2249  228.4301 H   0  0  0  0  0  0  0  0  0  0  0  0
  138.8790   67.4560  226.1238 H   0  0  0  0  0  0  0  0  0  0  0  0
  137.3743   75.1730  222.1820 H   0  0  0  0  0  0  0  0  0  0  0  0
  139.4147   76.4332  221.4849 H   0  0  0  0  0  0  0  0  0  0  0  0
  141.7711   76.4130  220.7370 H   0  0  0  0  0  0  0  0  0  0  0  0
  143.8047   72.6251  220.2339 H   0  0  0  0  0  0  0  0  0  0  0  0
  141.7395   71.4119  220.9417 H   0  0  0  0  0  0  0  0  0  0  0  0
  1  2  2  0
  2  3  1  0
  3  4  1  0
  4  5  1  0
  5  6  2  0
  5  7  1  0
  7  8  1  0
  8  9  1  0
  9 10  1  0
  9 11  1  0
 11 12  1  0
 12 13  1  0
 13 14  2  0
 14 15  1  0
 15 16  2  0
 16 17  1  0
 17 18  2  0
 18 19  1  0
 19 20  2  0
 20 21  1  0
 21 22  2  0
  2 23  1  0
 23 24  2  0
 24 25  1  0
 25 26  2  0
 26 27  1  0
 27 28  2  0
 28 29  1  0
 28 30  1  0
 30 31  2  0
 31 32  1  0
 32 33  2  0
 12  7  1  0
 22 13  1  0
 33 23  1  0
 22 17  1  0
 32 26  1  0
  3 34  1  0
  4 35  1  0
  4 36  1  0
  8 37  1  0
  8 38  1  0
  9 39  1  6
 10 40  1  0
 11 41  1  0
 11 42  1  0
 12 43  1  1
 15 44  1  0
 16 45  1  0
 18 46  1  0
 19 47  1  0
 20 48  1  0
 21 49  1  0
 24 50  1  0
 25 51  1  0
 27 52  1  0
 30 53  1  0
 31 54  1  0
M  END
>  <UniqueID>  (57) 
27

>  <SMILES>  (57) 
O=C(NCC(=O)N1C[C@H](O)C[C@H]1c1nccc2ccccc12)c1ccc2cc(F)ccc2n1

>  <Energy>  (57) 
68.07013114954229

>  <Genealogy>  (57) 
O=C(NCC(=O)N1C[C@H](O)C[C@H]1c1nccc2ccccc12)c1ccc2cc(F)ccc2n1 (3D coordinates assigned)
O=C(NCC(=O)N1C[C@H](O)C[C@H]1c1nccc2ccccc12)c1ccc2cc(F)ccc2n1 (nonaromatic ring conformer: 68.07013114954229 kcal/mol)

>  <smiles>  (57) 
O=C(NCC(=O)N1C[C@H](O)C[C@H]1c1nccc2ccccc12)c1ccc2cc(F)ccc2n1

>  <score_type>  (57) 
oracle

>  <origin>  (57) 
autodockgpu

>  <m_score__min__energy>  (57) 
-9.3699999999999992

>  <m_primary>  (57) 
energy

>  <meeko>  (57) 
{"free_energy": -7.4, "intermolecular_energy": -9.18, "internal_energy": -3.15, "cluster_size": 4, "cluster_id": 5, "rank_in_cluster": 3}

>  <energy>  (57) 
-7.41

>  <cluster_rmsd>  (57) 
0.28

>  <rmsd>  (57) 
268.87

>  <cluster>  (57) 
5

$$$$
PTHZUPGKXGNJLI-NCDVCWAKNA-N
     RDKit          3D

 54 58  0  0  0  0  0  0  0  0999 V2000
  139.7480   71.5520  220.9260 O   0  0  0  0  0  0  0  0  0  0  0  0
  139.7280   72.0930  222.0660 C   0  0  0  0  0  0  0  0  0  0  0  0
  139.6910   73.5250  222.1780 N   0  0  0  0  0  0  0  0  0  0  0  0
  139.6950   74.4060  221.0120 C   0  0  0  0  0  0  0  0  0  0  0  0
  140.6660   75.5310  221.2230 C   0  0  0  0  0  0  0  0  0  0  0  0
  140.7600   76.0480  222.3680 O   0  0  0  0  0  0  0  0  0  0  0  0
  141.5060   76.0060  220.1530 N   0  0  0  0  0  0  0  0  0  0  0  0
  141.6250   75.3480  218.8600 C   0  0  0  0  0  0  0  0  0  0  0  0
  142.5770   76.2250  218.0450 C   0  0  2  0  0  0  0  0  0  0  0  0
  143.4570   75.4670  217.2520 O   0  0  0  0  0  0  0  0  0  0  0  0
  143.3150   77.0980  219.0660 C   0  0  0  0  0  0  0  0  0  0  0  0
  142.3940   77.1570  220.2880 C   0  0  1  0  0  0  0  0  0  0  0  0
  141.6040   78.4550  220.3140 C   0  0  0  0  0  0  0  0  0  0  0  0
  140.8090   78.7520  219.2450 N   0  0  0  0  0  0  0  0  0  0  0  0
  140.0730   79.8890  219.1710 C   0  0  0  0  0  0  0  0  0  0  0  0
  140.1100   80.8160  220.2080 C   0  0  0  0  0  0  0  0  0  0  0  0
  140.9240   80.5730  221.3190 C   0  0  0  0  0  0  0  0  0  0  0  0
  140.9850   81.5080  222.3640 C   0  0  0  0  0  0  0  0  0  0  0  0
  141.8110   81.2790  223.4660 C   0  0  0  0  0  0  0  0  0  0  0  0
  142.5840   80.1200  223.5310 C   0  0  0  0  0  0  0  0  0  0  0  0
  142.5350   79.1780  222.5010 C   0  0  0  0  0  0  0  0  0  0  0  0
  141.6970   79.3840  221.3820 C   0  0  0  0  0  0  0  0  0  0  0  0
  139.7510   71.2460  223.2780 C   0  0  0  0  0  0  0  0  0  0  0  0
  139.2180   69.9460  223.2660 C   0  0  0  0  0  0  0  0  0  0  0  0
  139.2590   69.1680  224.4240 C   0  0  0  0  0  0  0  0  0  0  0  0
  139.8290   69.6860  225.5930 C   0  0  0  0  0  0  0  0  0  0  0  0
  139.8860   68.9320  226.7740 C   0  0  0  0  0  0  0  0  0  0  0  0
  140.4620   69.4810  227.9250 C   0  0  0  0  0  0  0  0  0  0  0  0
  140.5170   68.7510  229.0670 F   0  0  0  0  0  0  0  0  0  0  0  0
  140.9830   70.7790  227.9020 C   0  0  0  0  0  0  0  0  0  0  0  0
  140.9300   71.5370  226.7270 C   0  0  0  0  0  0  0  0  0  0  0  0
  140.3560   70.9960  225.5710 C   0  0  0  0  0  0  0  0  0  0  0  0
  140.3020   71.7290  224.4280 N   0  0  0  0  0  0  0  0  0  0  0  0
  139.5400   73.9590  223.1170 H   0  0  0  0  0  0  0  0  0  0  0  0
  139.9910   73.8313  220.1220 H   0  0  0  0  0  0  0  0  0  0  0  0
  138.6864   74.8211  220.8691 H   0  0  0  0  0  0  0  0  0  0  0  0
  142.0405   74.3365  218.9795 H   0  0  0  0  0  0  0  0  0  0  0  0
  140.6484   75.2354  218.3665 H   0  0  0  0  0  0  0  0  0  0  0  0
  142.0248   76.8431  217.3218 H   0  0  0  0  0  0  0  0  0  0  0  0
  144.3830   75.6550  217.5560 H   0  0  0  0  0  0  0  0  0  0  0  0
  144.2812   76.6451  219.3332 H   0  0  0  0  0  0  0  0  0  0  0  0
  143.5325   78.1000  218.6676 H   0  0  0  0  0  0  0  0  0  0  0  0
  142.9618   77.1277  221.2297 H   0  0  0  0  0  0  0  0  0  0  0  0
  139.4448   80.0788  218.2882 H   0  0  0  0  0  0  0  0  0  0  0  0
  139.5040   81.7325  220.1544 H   0  0  0  0  0  0  0  0  0  0  0  0
  140.3795   82.4250  222.3145 H   0  0  0  0  0  0  0  0  0  0  0  0
  141.8522   82.0135  224.2838 H   0  0  0  0  0  0  0  0  0  0  0  0
  143.2367   79.9466  224.3993 H   0  0  0  0  0  0  0  0  0  0  0  0
  143.1527   78.2698  222.5612 H   0  0  0  0  0  0  0  0  0  0  0  0
  138.7695   69.5424  222.3462 H   0  0  0  0  0  0  0  0  0  0  0  0
  138.8440   68.1493  224.4181 H   0  0  0  0  0  0  0  0  0  0  0  0
  139.4785   67.9105  226.7955 H   0  0  0  0  0  0  0  0  0  0  0  0
  141.4354   71.2048  228.8097 H   0  0  0  0  0  0  0  0  0  0  0  0
  141.3394   72.5579  226.7120 H   0  0  0  0  0  0  0  0  0  0  0  0
  1  2  2  0
  2  3  1  0
  3  4  1  0
  4  5  1  0
  5  6  2  0
  5  7  1  0
  7  8  1  0
  8  9  1  0
  9 10  1  0
  9 11  1  0
 11 12  1  0
 12 13  1  0
 13 14  2  0
 14 15  1  0
 15 16  2  0
 16 17  1  0
 17 18  2  0
 18 19  1  0
 19 20  2  0
 20 21  1  0
 21 22  2  0
  2 23  1  0
 23 24  2  0
 24 25  1  0
 25 26  2  0
 26 27  1  0
 27 28  2  0
 28 29  1  0
 28 30  1  0
 30 31  2  0
 31 32  1  0
 32 33  2  0
 12  7  1  0
 22 13  1  0
 33 23  1  0
 22 17  1  0
 32 26  1  0
  3 34  1  0
  4 35  1  0
  4 36  1  0
  8 37  1  0
  8 38  1  0
  9 39  1  6
 10 40  1  0
 11 41  1  0
 11 42  1  0
 12 43  1  1
 15 44  1  0
 16 45  1  0
 18 46  1  0
 19 47  1  0
 20 48  1  0
 21 49  1  0
 24 50  1  0
 25 51  1  0
 27 52  1  0
 30 53  1  0
 31 54  1  0
M  END
>  <UniqueID>  (58) 
27

>  <SMILES>  (58) 
O=C(NCC(=O)N1C[C@H](O)C[C@H]1c1nccc2ccccc12)c1ccc2cc(F)ccc2n1

>  <Energy>  (58) 
68.07013114954229

>  <Genealogy>  (58) 
O=C(NCC(=O)N1C[C@H](O)C[C@H]1c1nccc2ccccc12)c1ccc2cc(F)ccc2n1 (3D coordinates assigned)
O=C(NCC(=O)N1C[C@H](O)C[C@H]1c1nccc2ccccc12)c1ccc2cc(F)ccc2n1 (nonaromatic ring conformer: 68.07013114954229 kcal/mol)

>  <smiles>  (58) 
O=C(NCC(=O)N1C[C@H](O)C[C@H]1c1nccc2ccccc12)c1ccc2cc(F)ccc2n1

>  <score_type>  (58) 
oracle

>  <origin>  (58) 
autodockgpu

>  <m_score__min__energy>  (58) 
-9.3699999999999992

>  <m_primary>  (58) 
energy

>  <meeko>  (58) 
{"free_energy": -9.11, "intermolecular_energy": -10.9, "internal_energy": -1.78, "cluster_size": 10, "cluster_id": 1, "rank_in_cluster": 5}

>  <energy>  (58) 
-7.4

>  <cluster_rmsd>  (58) 
0.14

>  <rmsd>  (58) 
268.85

>  <cluster>  (58) 
5

$$$$
PTHZUPGKXGNJLI-NCDVCWAKNA-N
     RDKit          3D

 54 58  0  0  0  0  0  0  0  0999 V2000
  139.8250   70.7990  221.1330 O   0  0  0  0  0  0  0  0  0  0  0  0
  139.7900   71.3650  222.2600 C   0  0  0  0  0  0  0  0  0  0  0  0
  139.7770   72.7990  222.3400 N   0  0  0  0  0  0  0  0  0  0  0  0
  139.8220   73.6540  221.1560 C   0  0  0  0  0  0  0  0  0  0  0  0
  139.9560   75.0910  221.5670 C   0  0  0  0  0  0  0  0  0  0  0  0
  139.5720   75.4350  222.7180 O   0  0  0  0  0  0  0  0  0  0  0  0
  140.5360   76.0730  220.6860 N   0  0  0  0  0  0  0  0  0  0  0  0
  140.3640   76.0690  219.2400 C   0  0  0  0  0  0  0  0  0  0  0  0
  141.1120   77.3060  218.7400 C   0  0  2  0  0  0  0  0  0  0  0  0
  141.7920   77.0700  217.5320 O   0  0  0  0  0  0  0  0  0  0  0  0
  142.0590   77.7080  219.8760 C   0  0  0  0  0  0  0  0  0  0  0  0
  141.4330   77.1280  221.1480 C   0  0  1  0  0  0  0  0  0  0  0  0
  140.6700   78.1940  221.9150 C   0  0  0  0  0  0  0  0  0  0  0  0
  139.3060   78.1530  221.9020 N   0  0  0  0  0  0  0  0  0  0  0  0
  138.5370   79.0630  222.5490 C   0  0  0  0  0  0  0  0  0  0  0  0
  139.1300   80.1010  223.2610 C   0  0  0  0  0  0  0  0  0  0  0  0
  140.5250   80.2050  223.2910 C   0  0  0  0  0  0  0  0  0  0  0  0
  141.1360   81.2570  223.9920 C   0  0  0  0  0  0  0  0  0  0  0  0
  142.5270   81.3750  224.0090 C   0  0  0  0  0  0  0  0  0  0  0  0
  143.3160   80.4520  223.3250 C   0  0  0  0  0  0  0  0  0  0  0  0
  142.7240   79.3980  222.6250 C   0  0  0  0  0  0  0  0  0  0  0  0
  141.3200   79.2510  222.6040 C   0  0  0  0  0  0  0  0  0  0  0  0
  139.7710   70.5450  223.4910 C   0  0  0  0  0  0  0  0  0  0  0  0
  139.2050   69.2580  223.4970 C   0  0  0  0  0  0  0  0  0  0  0  0
  139.2060   68.5050  224.6720 C   0  0  0  0  0  0  0  0  0  0  0  0
  139.7690   69.0340  225.8390 C   0  0  0  0  0  0  0  0  0  0  0  0
  139.7870   68.3050  227.0370 C   0  0  0  0  0  0  0  0  0  0  0  0
  140.3570   68.8640  228.1870 C   0  0  0  0  0  0  0  0  0  0  0  0
  140.3740   68.1590  229.3450 F   0  0  0  0  0  0  0  0  0  0  0  0
  140.9100   70.1480  228.1440 C   0  0  0  0  0  0  0  0  0  0  0  0
  140.8970   70.8810  226.9520 C   0  0  0  0  0  0  0  0  0  0  0  0
  140.3290   70.3300  225.7980 C   0  0  0  0  0  0  0  0  0  0  0  0
  140.3140   71.0390  224.6390 N   0  0  0  0  0  0  0  0  0  0  0  0
  139.6140   73.2560  223.2660 H   0  0  0  0  0  0  0  0  0  0  0  0
  140.6842   73.3707  220.5344 H   0  0  0  0  0  0  0  0  0  0  0  0
  138.8918   73.5271  220.5827 H   0  0  0  0  0  0  0  0  0  0  0  0
  140.7948   75.1559  218.8035 H   0  0  0  0  0  0  0  0  0  0  0  0
  139.3021   76.0889  218.9537 H   0  0  0  0  0  0  0  0  0  0  0  0
  140.4130   78.1212  218.5014 H   0  0  0  0  0  0  0  0  0  0  0  0
  142.5260   77.7340  217.4590 H   0  0  0  0  0  0  0  0  0  0  0  0
  143.0604   77.2836  219.7113 H   0  0  0  0  0  0  0  0  0  0  0  0
  142.1825   78.7991  219.9403 H   0  0  0  0  0  0  0  0  0  0  0  0
  142.1963   76.7423  221.8399 H   0  0  0  0  0  0  0  0  0  0  0  0
  137.4408   78.9805  222.5109 H   0  0  0  0  0  0  0  0  0  0  0  0
  138.5075   80.8335  223.7957 H   0  0  0  0  0  0  0  0  0  0  0  0
  140.5169   81.9904  224.5294 H   0  0  0  0  0  0  0  0  0  0  0  0
  143.0012   82.1982  224.5634 H   0  0  0  0  0  0  0  0  0  0  0  0
  144.4112   80.5541  223.3364 H   0  0  0  0  0  0  0  0  0  0  0  0
  143.3565   78.6772  222.0861 H   0  0  0  0  0  0  0  0  0  0  0  0
  138.7626   68.8458  222.5781 H   0  0  0  0  0  0  0  0  0  0  0  0
  138.7650   67.4973  224.6809 H   0  0  0  0  0  0  0  0  0  0  0  0
  139.3535   67.2946  227.0730 H   0  0  0  0  0  0  0  0  0  0  0  0
  141.3566   70.5831  229.0502 H   0  0  0  0  0  0  0  0  0  0  0  0
  141.3333   71.8903  226.9222 H   0  0  0  0  0  0  0  0  0  0  0  0
  1  2  2  0
  2  3  1  0
  3  4  1  0
  4  5  1  0
  5  6  2  0
  5  7  1  0
  7  8  1  0
  8  9  1  0
  9 10  1  0
  9 11  1  0
 11 12  1  0
 12 13  1  0
 13 14  2  0
 14 15  1  0
 15 16  2  0
 16 17  1  0
 17 18  2  0
 18 19  1  0
 19 20  2  0
 20 21  1  0
 21 22  2  0
  2 23  1  0
 23 24  2  0
 24 25  1  0
 25 26  2  0
 26 27  1  0
 27 28  2  0
 28 29  1  0
 28 30  1  0
 30 31  2  0
 31 32  1  0
 32 33  2  0
 12  7  1  0
 22 13  1  0
 33 23  1  0
 22 17  1  0
 32 26  1  0
  3 34  1  0
  4 35  1  0
  4 36  1  0
  8 37  1  0
  8 38  1  0
  9 39  1  6
 10 40  1  0
 11 41  1  0
 11 42  1  0
 12 43  1  1
 15 44  1  0
 16 45  1  0
 18 46  1  0
 19 47  1  0
 20 48  1  0
 21 49  1  0
 24 50  1  0
 25 51  1  0
 27 52  1  0
 30 53  1  0
 31 54  1  0
M  END
>  <UniqueID>  (59) 
27

>  <SMILES>  (59) 
O=C(NCC(=O)N1C[C@H](O)C[C@H]1c1nccc2ccccc12)c1ccc2cc(F)ccc2n1

>  <Energy>  (59) 
68.07013114954229

>  <Genealogy>  (59) 
O=C(NCC(=O)N1C[C@H](O)C[C@H]1c1nccc2ccccc12)c1ccc2cc(F)ccc2n1 (3D coordinates assigned)
O=C(NCC(=O)N1C[C@H](O)C[C@H]1c1nccc2ccccc12)c1ccc2cc(F)ccc2n1 (nonaromatic ring conformer: 68.07013114954229 kcal/mol)

>  <smiles>  (59) 
O=C(NCC(=O)N1C[C@H](O)C[C@H]1c1nccc2ccccc12)c1ccc2cc(F)ccc2n1

>  <score_type>  (59) 
oracle

>  <origin>  (59) 
autodockgpu

>  <m_score__min__energy>  (59) 
-9.3699999999999992

>  <m_primary>  (59) 
energy

>  <meeko>  (59) 
{"free_energy": -9.32, "intermolecular_energy": -11.11, "internal_energy": -1.95, "cluster_size": 10, "cluster_id": 1, "rank_in_cluster": 2}

>  <energy>  (59) 
-7.39

>  <cluster_rmsd>  (59) 
0.16

>  <rmsd>  (59) 
268.87

>  <cluster>  (59) 
5

$$$$
PTHZUPGKXGNJLI-NCDVCWAKNA-N
     RDKit          3D

 54 58  0  0  0  0  0  0  0  0999 V2000
  139.7060   73.8590  222.3500 O   0  0  0  0  0  0  0  0  0  0  0  0
  140.1970   72.7080  222.1840 C   0  0  0  0  0  0  0  0  0  0  0  0
  140.8110   72.3670  220.9310 N   0  0  0  0  0  0  0  0  0  0  0  0
  140.8810   73.3000  219.8080 C   0  0  0  0  0  0  0  0  0  0  0  0
  142.0460   74.2300  219.9870 C   0  0  0  0  0  0  0  0  0  0  0  0
  143.0320   73.8470  220.6720 O   0  0  0  0  0  0  0  0  0  0  0  0
  142.0660   75.5320  219.3710 N   0  0  0  0  0  0  0  0  0  0  0  0
  141.9360   75.7560  217.9380 C   0  0  0  0  0  0  0  0  0  0  0  0
  141.9680   77.2740  217.7610 C   0  0  2  0  0  0  0  0  0  0  0  0
  142.6900   77.6660  216.6180 O   0  0  0  0  0  0  0  0  0  0  0  0
  142.5730   77.8320  219.0530 C   0  0  0  0  0  0  0  0  0  0  0  0
  142.3070   76.7630  220.1180 C   0  0  1  0  0  0  0  0  0  0  0  0
  141.1030   77.1290  220.9690 C   0  0  0  0  0  0  0  0  0  0  0  0
  139.9530   76.4130  220.8080 N   0  0  0  0  0  0  0  0  0  0  0  0
  138.8240   76.6680  221.5150 C   0  0  0  0  0  0  0  0  0  0  0  0
  138.8000   77.7000  222.4480 C   0  0  0  0  0  0  0  0  0  0  0  0
  139.9450   78.4810  222.6400 C   0  0  0  0  0  0  0  0  0  0  0  0
  139.9300   79.5360  223.5650 C   0  0  0  0  0  0  0  0  0  0  0  0
  141.0640   80.3290  223.7460 C   0  0  0  0  0  0  0  0  0  0  0  0
  142.2170   80.0810  223.0030 C   0  0  0  0  0  0  0  0  0  0  0  0
  142.2500   79.0330  222.0790 C   0  0  0  0  0  0  0  0  0  0  0  0
  141.1180   78.2100  221.8880 C   0  0  0  0  0  0  0  0  0  0  0  0
  140.1280   71.7170  223.2800 C   0  0  0  0  0  0  0  0  0  0  0  0
  139.5920   70.4350  223.0660 C   0  0  0  0  0  0  0  0  0  0  0  0
  139.5450   69.5190  224.1180 C   0  0  0  0  0  0  0  0  0  0  0  0
  140.0300   69.8800  225.3810 C   0  0  0  0  0  0  0  0  0  0  0  0
  139.9980   68.9850  226.4590 C   0  0  0  0  0  0  0  0  0  0  0  0
  140.4910   69.3780  227.7080 C   0  0  0  0  0  0  0  0  0  0  0  0
  140.4600   68.5110  228.7510 F   0  0  0  0  0  0  0  0  0  0  0  0
  141.0180   70.6620  227.8850 C   0  0  0  0  0  0  0  0  0  0  0  0
  141.0540   71.5610  226.8120 C   0  0  0  0  0  0  0  0  0  0  0  0
  140.5630   71.1760  225.5600 C   0  0  0  0  0  0  0  0  0  0  0  0
  140.5950   72.0460  224.5170 N   0  0  0  0  0  0  0  0  0  0  0  0
  141.3320   71.4640  220.8470 H   0  0  0  0  0  0  0  0  0  0  0  0
  141.0056   72.7354  218.8722 H   0  0  0  0  0  0  0  0  0  0  0  0
  139.9520   73.8876  219.7674 H   0  0  0  0  0  0  0  0  0  0  0  0
  142.7719   75.2876  217.3977 H   0  0  0  0  0  0  0  0  0  0  0  0
  141.0108   75.3164  217.5371 H   0  0  0  0  0  0  0  0  0  0  0  0
  140.9569   77.6734  217.5932 H   0  0  0  0  0  0  0  0  0  0  0  0
  143.2270   78.4660  216.8550 H   0  0  0  0  0  0  0  0  0  0  0  0
  143.6541   77.9958  218.9330 H   0  0  0  0  0  0  0  0  0  0  0  0
  142.1328   78.8022  219.3266 H   0  0  0  0  0  0  0  0  0  0  0  0
  143.1520   76.6602  220.8148 H   0  0  0  0  0  0  0  0  0  0  0  0
  137.9243   76.0569  221.3503 H   0  0  0  0  0  0  0  0  0  0  0  0
  137.8883   77.9002  223.0299 H   0  0  0  0  0  0  0  0  0  0  0  0
  139.0207   79.7388  224.1499 H   0  0  0  0  0  0  0  0  0  0  0  0
  141.0479   81.1513  224.4764 H   0  0  0  0  0  0  0  0  0  0  0  0
  143.1057   80.7136  223.1447 H   0  0  0  0  0  0  0  0  0  0  0  0
  143.1643   78.8477  221.4961 H   0  0  0  0  0  0  0  0  0  0  0  0
  139.2110   70.1549  222.0728 H   0  0  0  0  0  0  0  0  0  0  0  0
  139.1274   68.5145  223.9551 H   0  0  0  0  0  0  0  0  0  0  0  0
  139.5856   67.9743  226.3232 H   0  0  0  0  0  0  0  0  0  0  0  0
  141.4048   70.9658  228.8689 H   0  0  0  0  0  0  0  0  0  0  0  0
  141.4684   72.5701  226.9536 H   0  0  0  0  0  0  0  0  0  0  0  0
  1  2  2  0
  2  3  1  0
  3  4  1  0
  4  5  1  0
  5  6  2  0
  5  7  1  0
  7  8  1  0
  8  9  1  0
  9 10  1  0
  9 11  1  0
 11 12  1  0
 12 13  1  0
 13 14  2  0
 14 15  1  0
 15 16  2  0
 16 17  1  0
 17 18  2  0
 18 19  1  0
 19 20  2  0
 20 21  1  0
 21 22  2  0
  2 23  1  0
 23 24  2  0
 24 25  1  0
 25 26  2  0
 26 27  1  0
 27 28  2  0
 28 29  1  0
 28 30  1  0
 30 31  2  0
 31 32  1  0
 32 33  2  0
 12  7  1  0
 22 13  1  0
 33 23  1  0
 22 17  1  0
 32 26  1  0
  3 34  1  0
  4 35  1  0
  4 36  1  0
  8 37  1  0
  8 38  1  0
  9 39  1  6
 10 40  1  0
 11 41  1  0
 11 42  1  0
 12 43  1  1
 15 44  1  0
 16 45  1  0
 18 46  1  0
 19 47  1  0
 20 48  1  0
 21 49  1  0
 24 50  1  0
 25 51  1  0
 27 52  1  0
 30 53  1  0
 31 54  1  0
M  END
>  <UniqueID>  (60) 
27

>  <SMILES>  (60) 
O=C(NCC(=O)N1C[C@H](O)C[C@H]1c1nccc2ccccc12)c1ccc2cc(F)ccc2n1

>  <Energy>  (60) 
68.07013114954229

>  <Genealogy>  (60) 
O=C(NCC(=O)N1C[C@H](O)C[C@H]1c1nccc2ccccc12)c1ccc2cc(F)ccc2n1 (3D coordinates assigned)
O=C(NCC(=O)N1C[C@H](O)C[C@H]1c1nccc2ccccc12)c1ccc2cc(F)ccc2n1 (nonaromatic ring conformer: 68.07013114954229 kcal/mol)

>  <smiles>  (60) 
O=C(NCC(=O)N1C[C@H](O)C[C@H]1c1nccc2ccccc12)c1ccc2cc(F)ccc2n1

>  <score_type>  (60) 
oracle

>  <origin>  (60) 
autodockgpu

>  <m_score__min__energy>  (60) 
-9.3699999999999992

>  <m_primary>  (60) 
energy

>  <meeko>  (60) 
{"free_energy": -9.08, "intermolecular_energy": -10.87, "internal_energy": -1.72, "cluster_size": 10, "cluster_id": 1, "rank_in_cluster": 6}

>  <energy>  (60) 
-7.09

>  <cluster_rmsd>  (60) 
0.0

>  <rmsd>  (60) 
269.82

>  <cluster>  (60) 
6

$$$$
PTHZUPGKXGNJLI-NCDVCWAKNA-N
     RDKit          3D

 54 58  0  0  0  0  0  0  0  0999 V2000
  139.9770   70.7420  221.2110 O   0  0  0  0  0  0  0  0  0  0  0  0
  139.8700   71.3230  222.3270 C   0  0  0  0  0  0  0  0  0  0  0  0
  139.8070   72.7570  222.3840 N   0  0  0  0  0  0  0  0  0  0  0  0
  139.8820   73.5960  221.1890 C   0  0  0  0  0  0  0  0  0  0  0  0
  139.9720   75.0410  221.5840 C   0  0  0  0  0  0  0  0  0  0  0  0
  139.5630   75.3880  222.7250 O   0  0  0  0  0  0  0  0  0  0  0  0
  140.5380   76.0270  220.6980 N   0  0  0  0  0  0  0  0  0  0  0  0
  140.3460   76.0280  219.2550 C   0  0  0  0  0  0  0  0  0  0  0  0
  141.0840   77.2680  218.7490 C   0  0  2  0  0  0  0  0  0  0  0  0
  141.7480   77.0370  217.5310 O   0  0  0  0  0  0  0  0  0  0  0  0
  142.0470   77.6670  219.8720 C   0  0  0  0  0  0  0  0  0  0  0  0
  141.4400   77.0810  221.1510 C   0  0  1  0  0  0  0  0  0  0  0  0
  140.6850   78.1440  221.9330 C   0  0  0  0  0  0  0  0  0  0  0  0
  139.3230   78.0820  221.9640 N   0  0  0  0  0  0  0  0  0  0  0  0
  138.5610   78.9870  222.6270 C   0  0  0  0  0  0  0  0  0  0  0  0
  139.1610   80.0410  223.3110 C   0  0  0  0  0  0  0  0  0  0  0  0
  140.5540   80.1660  223.2950 C   0  0  0  0  0  0  0  0  0  0  0  0
  141.1720   81.2330  223.9650 C   0  0  0  0  0  0  0  0  0  0  0  0
  142.5610   81.3730  223.9360 C   0  0  0  0  0  0  0  0  0  0  0  0
  143.3420   80.4540  223.2360 C   0  0  0  0  0  0  0  0  0  0  0  0
  142.7440   79.3850  222.5650 C   0  0  0  0  0  0  0  0  0  0  0  0
  141.3410   79.2170  222.5910 C   0  0  0  0  0  0  0  0  0  0  0  0
  139.8180   70.5200  223.5680 C   0  0  0  0  0  0  0  0  0  0  0  0
  139.1890   69.2630  223.5940 C   0  0  0  0  0  0  0  0  0  0  0  0
  139.1600   68.5260  224.7790 C   0  0  0  0  0  0  0  0  0  0  0  0
  139.7560   69.0410  225.9360 C   0  0  0  0  0  0  0  0  0  0  0  0
  139.7450   68.3280  227.1430 C   0  0  0  0  0  0  0  0  0  0  0  0
  140.3500   68.8720  228.2820 C   0  0  0  0  0  0  0  0  0  0  0  0
  140.3390   68.1810  229.4490 F   0  0  0  0  0  0  0  0  0  0  0  0
  140.9660   70.1260  228.2190 C   0  0  0  0  0  0  0  0  0  0  0  0
  140.9820   70.8440  227.0180 C   0  0  0  0  0  0  0  0  0  0  0  0
  140.3800   70.3070  225.8750 C   0  0  0  0  0  0  0  0  0  0  0  0
  140.3920   71.0010  224.7060 N   0  0  0  0  0  0  0  0  0  0  0  0
  139.5850   73.2220  223.2930 H   0  0  0  0  0  0  0  0  0  0  0  0
  140.7733   73.3212  220.6058 H   0  0  0  0  0  0  0  0  0  0  0  0
  138.9780   73.4424  220.5814 H   0  0  0  0  0  0  0  0  0  0  0  0
  140.7726   75.1174  218.8092 H   0  0  0  0  0  0  0  0  0  0  0  0
  139.2801   76.0467  218.9838 H   0  0  0  0  0  0  0  0  0  0  0  0
  140.3798   78.0824  218.5237 H   0  0  0  0  0  0  0  0  0  0  0  0
  141.0660   77.0100  216.8100 H   0  0  0  0  0  0  0  0  0  0  0  0
  143.0464   77.2446  219.6910 H   0  0  0  0  0  0  0  0  0  0  0  0
  142.1704   78.7580  219.9386 H   0  0  0  0  0  0  0  0  0  0  0  0
  142.2138   76.6940  221.8303 H   0  0  0  0  0  0  0  0  0  0  0  0
  137.4655   78.8881  222.6244 H   0  0  0  0  0  0  0  0  0  0  0  0
  138.5449   80.7690  223.8591 H   0  0  0  0  0  0  0  0  0  0  0  0
  140.5595   81.9623  224.5154 H   0  0  0  0  0  0  0  0  0  0  0  0
  143.0399   82.2095  224.4661 H   0  0  0  0  0  0  0  0  0  0  0  0
  144.4354   80.5717  223.2121 H   0  0  0  0  0  0  0  0  0  0  0  0
  143.3696   78.6686  222.0123 H   0  0  0  0  0  0  0  0  0  0  0  0
  138.7210   68.8614  222.6831 H   0  0  0  0  0  0  0  0  0  0  0  0
  138.6694   67.5418  224.8036 H   0  0  0  0  0  0  0  0  0  0  0  0
  139.2611   67.3415  227.1950 H   0  0  0  0  0  0  0  0  0  0  0  0
  141.4397   70.5495  229.1169 H   0  0  0  0  0  0  0  0  0  0  0  0
  141.4676   71.8300  226.9727 H   0  0  0  0  0  0  0  0  0  0  0  0
  1  2  2  0
  2  3  1  0
  3  4  1  0
  4  5  1  0
  5  6  2  0
  5  7  1  0
  7  8  1  0
  8  9  1  0
  9 10  1  0
  9 11  1  0
 11 12  1  0
 12 13  1  0
 13 14  2  0
 14 15  1  0
 15 16  2  0
 16 17  1  0
 17 18  2  0
 18 19  1  0
 19 20  2  0
 20 21  1  0
 21 22  2  0
  2 23  1  0
 23 24  2  0
 24 25  1  0
 25 26  2  0
 26 27  1  0
 27 28  2  0
 28 29  1  0
 28 30  1  0
 30 31  2  0
 31 32  1  0
 32 33  2  0
 12  7  1  0
 22 13  1  0
 33 23  1  0
 22 17  1  0
 32 26  1  0
  3 34  1  0
  4 35  1  0
  4 36  1  0
  8 37  1  0
  8 38  1  0
  9 39  1  6
 10 40  1  0
 11 41  1  0
 11 42  1  0
 12 43  1  1
 15 44  1  0
 16 45  1  0
 18 46  1  0
 19 47  1  0
 20 48  1  0
 21 49  1  0
 24 50  1  0
 25 51  1  0
 27 52  1  0
 30 53  1  0
 31 54  1  0
M  END
>  <UniqueID>  (61) 
28

>  <SMILES>  (61) 
O=C(NCC(=O)N1C[C@H](O)C[C@H]1c1nccc2ccccc12)c1ccc2cc(F)ccc2n1

>  <Energy>  (61) 
68.44888388834336

>  <Genealogy>  (61) 
O=C(NCC(=O)N1C[C@H](O)C[C@H]1c1nccc2ccccc12)c1ccc2cc(F)ccc2n1 (3D coordinates assigned)
O=C(NCC(=O)N1C[C@H](O)C[C@H]1c1nccc2ccccc12)c1ccc2cc(F)ccc2n1 (nonaromatic ring conformer: 68.44888388834336 kcal/mol)

>  <smiles>  (61) 
O=C(NCC(=O)N1C[C@H](O)C[C@H]1c1nccc2ccccc12)c1ccc2cc(F)ccc2n1

>  <score_type>  (61) 
oracle

>  <origin>  (61) 
autodockgpu

>  <m_score__min__energy>  (61) 
-9.3699999999999992

>  <m_primary>  (61) 
energy

>  <meeko>  (61) 
{"free_energy": -9.32, "intermolecular_energy": -11.11, "internal_energy": -1.93, "cluster_size": 10, "cluster_id": 1, "rank_in_cluster": 3}

>  <energy>  (61) 
-9.37

>  <cluster_rmsd>  (61) 
0.0

>  <rmsd>  (61) 
270.43

>  <cluster>  (61) 
1

$$$$
PTHZUPGKXGNJLI-NCDVCWAKNA-N
     RDKit          3D

 54 58  0  0  0  0  0  0  0  0999 V2000
  141.1920   72.1600  221.4220 O   0  0  0  0  0  0  0  0  0  0  0  0
  140.4200   72.4750  222.3700 C   0  0  0  0  0  0  0  0  0  0  0  0
  139.7440   73.7420  222.3520 N   0  0  0  0  0  0  0  0  0  0  0  0
  139.9230   74.7150  221.2750 C   0  0  0  0  0  0  0  0  0  0  0  0
  139.0720   75.9240  221.5310 C   0  0  0  0  0  0  0  0  0  0  0  0
  138.4260   75.9980  222.6110 O   0  0  0  0  0  0  0  0  0  0  0  0
  139.0030   77.0070  220.5820 N   0  0  0  0  0  0  0  0  0  0  0  0
  138.0110   77.0940  219.5200 C   0  0  0  0  0  0  0  0  0  0  0  0
  138.2980   78.4160  218.8070 C   0  0  2  0  0  0  0  0  0  0  0  0
  138.1380   78.3190  217.4130 O   0  0  0  0  0  0  0  0  0  0  0  0
  139.7250   78.8040  219.2060 C   0  0  0  0  0  0  0  0  0  0  0  0
  139.9810   78.0890  220.5360 C   0  0  1  0  0  0  0  0  0  0  0  0
  139.7990   79.0380  221.7090 C   0  0  0  0  0  0  0  0  0  0  0  0
  138.5300   79.3640  222.0900 N   0  0  0  0  0  0  0  0  0  0  0  0
  138.2650   80.2070  223.1180 C   0  0  0  0  0  0  0  0  0  0  0  0
  139.3080   80.7880  223.8330 C   0  0  0  0  0  0  0  0  0  0  0  0
  140.6300   80.5070  223.4730 C   0  0  0  0  0  0  0  0  0  0  0  0
  141.6920   81.1000  224.1740 C   0  0  0  0  0  0  0  0  0  0  0  0
  143.0120   80.8370  223.8060 C   0  0  0  0  0  0  0  0  0  0  0  0
  143.2830   79.9870  222.7350 C   0  0  0  0  0  0  0  0  0  0  0  0
  142.2390   79.3870  222.0270 C   0  0  0  0  0  0  0  0  0  0  0  0
  140.8960   79.6290  222.3900 C   0  0  0  0  0  0  0  0  0  0  0  0
  140.2260   71.5380  223.4980 C   0  0  0  0  0  0  0  0  0  0  0  0
  139.5780   70.3040  223.3130 C   0  0  0  0  0  0  0  0  0  0  0  0
  139.4140   69.4370  224.3950 C   0  0  0  0  0  0  0  0  0  0  0  0
  139.8930   69.8010  225.6590 C   0  0  0  0  0  0  0  0  0  0  0  0
  139.7450   68.9540  226.7670 C   0  0  0  0  0  0  0  0  0  0  0  0
  140.2350   69.3480  228.0170 C   0  0  0  0  0  0  0  0  0  0  0  0
  140.0920   68.5290  229.0880 F   0  0  0  0  0  0  0  0  0  0  0  0
  140.8750   70.5840  228.1650 C   0  0  0  0  0  0  0  0  0  0  0  0
  141.0270   71.4330  227.0630 C   0  0  0  0  0  0  0  0  0  0  0  0
  140.5400   71.0470  225.8100 C   0  0  0  0  0  0  0  0  0  0  0  0
  140.6850   71.8700  224.7370 N   0  0  0  0  0  0  0  0  0  0  0  0
  139.0080   73.9380  223.0680 H   0  0  0  0  0  0  0  0  0  0  0  0
  140.9799   75.0164  221.2279 H   0  0  0  0  0  0  0  0  0  0  0  0
  139.6235   74.2574  220.3206 H   0  0  0  0  0  0  0  0  0  0  0  0
  138.1174   76.2495  218.8233 H   0  0  0  0  0  0  0  0  0  0  0  0
  136.9845   77.0547  219.9134 H   0  0  0  0  0  0  0  0  0  0  0  0
  137.5790   79.1920  219.1086 H   0  0  0  0  0  0  0  0  0  0  0  0
  138.6210   77.5080  217.1050 H   0  0  0  0  0  0  0  0  0  0  0  0
  140.4432   78.4681  218.4435 H   0  0  0  0  0  0  0  0  0  0  0  0
  139.8437   79.8938  219.2966 H   0  0  0  0  0  0  0  0  0  0  0  0
  141.0121   77.7122  220.6061 H   0  0  0  0  0  0  0  0  0  0  0  0
  137.2227   80.4324  223.3877 H   0  0  0  0  0  0  0  0  0  0  0  0
  139.0944   81.4631  224.6748 H   0  0  0  0  0  0  0  0  0  0  0  0
  141.4826   81.7749  225.0170 H   0  0  0  0  0  0  0  0  0  0  0  0
  143.8400   81.3011  224.3619 H   0  0  0  0  0  0  0  0  0  0  0  0
  144.3253   79.7875  222.4456 H   0  0  0  0  0  0  0  0  0  0  0  0
  142.4646   78.7214  221.1808 H   0  0  0  0  0  0  0  0  0  0  0  0
  139.2013   70.0225  222.3186 H   0  0  0  0  0  0  0  0  0  0  0  0
  138.9094   68.4697  224.2545 H   0  0  0  0  0  0  0  0  0  0  0  0
  139.2443   67.9812  226.6535 H   0  0  0  0  0  0  0  0  0  0  0  0
  141.2593   70.8886  229.1496 H   0  0  0  0  0  0  0  0  0  0  0  0
  141.5296   72.4042  227.1823 H   0  0  0  0  0  0  0  0  0  0  0  0
  1  2  2  0
  2  3  1  0
  3  4  1  0
  4  5  1  0
  5  6  2  0
  5  7  1  0
  7  8  1  0
  8  9  1  0
  9 10  1  0
  9 11  1  0
 11 12  1  0
 12 13  1  0
 13 14  2  0
 14 15  1  0
 15 16  2  0
 16 17  1  0
 17 18  2  0
 18 19  1  0
 19 20  2  0
 20 21  1  0
 21 22  2  0
  2 23  1  0
 23 24  2  0
 24 25  1  0
 25 26  2  0
 26 27  1  0
 27 28  2  0
 28 29  1  0
 28 30  1  0
 30 31  2  0
 31 32  1  0
 32 33  2  0
 12  7  1  0
 22 13  1  0
 33 23  1  0
 22 17  1  0
 32 26  1  0
  3 34  1  0
  4 35  1  0
  4 36  1  0
  8 37  1  0
  8 38  1  0
  9 39  1  1
 10 40  1  0
 11 41  1  0
 11 42  1  0
 12 43  1  6
 15 44  1  0
 16 45  1  0
 18 46  1  0
 19 47  1  0
 20 48  1  0
 21 49  1  0
 24 50  1  0
 25 51  1  0
 27 52  1  0
 30 53  1  0
 31 54  1  0
M  END
>  <UniqueID>  (62) 
28

>  <SMILES>  (62) 
O=C(NCC(=O)N1C[C@H](O)C[C@H]1c1nccc2ccccc12)c1ccc2cc(F)ccc2n1

>  <Energy>  (62) 
68.44888388834336

>  <Genealogy>  (62) 
O=C(NCC(=O)N1C[C@H](O)C[C@H]1c1nccc2ccccc12)c1ccc2cc(F)ccc2n1 (3D coordinates assigned)
O=C(NCC(=O)N1C[C@H](O)C[C@H]1c1nccc2ccccc12)c1ccc2cc(F)ccc2n1 (nonaromatic ring conformer: 68.44888388834336 kcal/mol)

>  <smiles>  (62) 
O=C(NCC(=O)N1C[C@H](O)C[C@H]1c1nccc2ccccc12)c1ccc2cc(F)ccc2n1

>  <score_type>  (62) 
oracle

>  <origin>  (62) 
autodockgpu

>  <m_score__min__energy>  (62) 
-9.3699999999999992

>  <m_primary>  (62) 
energy

>  <meeko>  (62) 
{"free_energy": -8.75, "intermolecular_energy": -10.54, "internal_energy": -1.94, "cluster_size": 10, "cluster_id": 1, "rank_in_cluster": 9}

>  <energy>  (62) 
-9.32

>  <cluster_rmsd>  (62) 
0.82

>  <rmsd>  (62) 
270.36

>  <cluster>  (62) 
1

$$$$
PTHZUPGKXGNJLI-NCDVCWAKNA-N
     RDKit          3D

 54 58  0  0  0  0  0  0  0  0999 V2000
  140.0640   71.7780  220.9970 O   0  0  0  0  0  0  0  0  0  0  0  0
  139.9270   72.2870  222.1440 C   0  0  0  0  0  0  0  0  0  0  0  0
  139.7610   73.7070  222.2810 N   0  0  0  0  0  0  0  0  0  0  0  0
  139.7610   74.6140  221.1350 C   0  0  0  0  0  0  0  0  0  0  0  0
  141.1720   74.9300  220.7320 C   0  0  0  0  0  0  0  0  0  0  0  0
  142.0970   74.1540  221.0930 O   0  0  0  0  0  0  0  0  0  0  0  0
  141.4800   76.0830  219.9240 N   0  0  0  0  0  0  0  0  0  0  0  0
  141.3210   76.1260  218.4770 C   0  0  0  0  0  0  0  0  0  0  0  0
  141.7210   77.5440  218.0690 C   0  0  2  0  0  0  0  0  0  0  0  0
  142.4450   77.5700  216.8630 O   0  0  0  0  0  0  0  0  0  0  0  0
  142.5270   78.1050  219.2450 C   0  0  0  0  0  0  0  0  0  0  0  0
  142.0680   77.3030  220.4670 C   0  0  1  0  0  0  0  0  0  0  0  0
  141.0500   78.0840  221.2810 C   0  0  0  0  0  0  0  0  0  0  0  0
  139.7260   77.8060  221.1030 N   0  0  0  0  0  0  0  0  0  0  0  0
  138.7430   78.4530  221.7770 C   0  0  0  0  0  0  0  0  0  0  0  0
  139.0610   79.4520  222.6920 C   0  0  0  0  0  0  0  0  0  0  0  0
  140.4020   79.7930  222.8990 C   0  0  0  0  0  0  0  0  0  0  0  0
  140.7360   80.8110  223.8050 C   0  0  0  0  0  0  0  0  0  0  0  0
  142.0720   81.1680  224.0010 C   0  0  0  0  0  0  0  0  0  0  0  0
  143.0810   80.5170  223.2920 C   0  0  0  0  0  0  0  0  0  0  0  0
  142.7660   79.5010  222.3870 C   0  0  0  0  0  0  0  0  0  0  0  0
  141.4220   79.1150  222.1820 C   0  0  0  0  0  0  0  0  0  0  0  0
  139.9480   71.4150  223.3390 C   0  0  0  0  0  0  0  0  0  0  0  0
  139.4630   70.0970  223.2840 C   0  0  0  0  0  0  0  0  0  0  0  0
  139.4990   69.2960  224.4270 C   0  0  0  0  0  0  0  0  0  0  0  0
  140.0180   69.8090  225.6220 C   0  0  0  0  0  0  0  0  0  0  0  0
  140.0700   69.0320  226.7880 C   0  0  0  0  0  0  0  0  0  0  0  0
  140.5940   69.5760  227.9670 C   0  0  0  0  0  0  0  0  0  0  0  0
  140.6440   68.8240  229.0940 F   0  0  0  0  0  0  0  0  0  0  0  0
  141.0670   70.8920  227.9850 C   0  0  0  0  0  0  0  0  0  0  0  0
  141.0190   71.6720  226.8240 C   0  0  0  0  0  0  0  0  0  0  0  0
  140.4970   71.1370  225.6420 C   0  0  0  0  0  0  0  0  0  0  0  0
  140.4480   71.8920  224.5130 N   0  0  0  0  0  0  0  0  0  0  0  0
  139.5160   74.1040  223.2170 H   0  0  0  0  0  0  0  0  0  0  0  0
  139.2395   74.1366  220.2923 H   0  0  0  0  0  0  0  0  0  0  0  0
  139.2465   75.5461  221.4115 H   0  0  0  0  0  0  0  0  0  0  0  0
  141.9777   75.3867  217.9951 H   0  0  0  0  0  0  0  0  0  0  0  0
  140.2923   75.8858  218.1702 H   0  0  0  0  0  0  0  0  0  0  0  0
  140.8338   78.1622  217.8672 H   0  0  0  0  0  0  0  0  0  0  0  0
  143.0580   78.3510  216.8900 H   0  0  0  0  0  0  0  0  0  0  0  0
  143.6048   77.9657  219.0750 H   0  0  0  0  0  0  0  0  0  0  0  0
  142.3632   79.1847  219.3772 H   0  0  0  0  0  0  0  0  0  0  0  0
  142.9019   77.0859  221.1507 H   0  0  0  0  0  0  0  0  0  0  0  0
  137.6904   78.1871  221.5997 H   0  0  0  0  0  0  0  0  0  0  0  0
  138.2649   79.9691  223.2477 H   0  0  0  0  0  0  0  0  0  0  0  0
  139.9427   81.3299  224.3630 H   0  0  0  0  0  0  0  0  0  0  0  0
  142.3287   81.9638  224.7157 H   0  0  0  0  0  0  0  0  0  0  0  0
  144.1312   80.8054  223.4464 H   0  0  0  0  0  0  0  0  0  0  0  0
  143.5698   78.9976  221.8297 H   0  0  0  0  0  0  0  0  0  0  0  0
  139.0562   69.6977  222.3432 H   0  0  0  0  0  0  0  0  0  0  0  0
  139.1204   68.2639  224.3888 H   0  0  0  0  0  0  0  0  0  0  0  0
  139.6996   67.9963  226.7765 H   0  0  0  0  0  0  0  0  0  0  0  0
  141.4777   71.3149  228.9137 H   0  0  0  0  0  0  0  0  0  0  0  0
  141.3921   72.7066  226.8412 H   0  0  0  0  0  0  0  0  0  0  0  0
  1  2  2  0
  2  3  1  0
  3  4  1  0
  4  5  1  0
  5  6  2  0
  5  7  1  0
  7  8  1  0
  8  9  1  0
  9 10  1  0
  9 11  1  0
 11 12  1  0
 12 13  1  0
 13 14  2  0
 14 15  1  0
 15 16  2  0
 16 17  1  0
 17 18  2  0
 18 19  1  0
 19 20  2  0
 20 21  1  0
 21 22  2  0
  2 23  1  0
 23 24  2  0
 24 25  1  0
 25 26  2  0
 26 27  1  0
 27 28  2  0
 28 29  1  0
 28 30  1  0
 30 31  2  0
 31 32  1  0
 32 33  2  0
 12  7  1  0
 22 13  1  0
 33 23  1  0
 22 17  1  0
 32 26  1  0
  3 34  1  0
  4 35  1  0
  4 36  1  0
  8 37  1  0
  8 38  1  0
  9 39  1  6
 10 40  1  0
 11 41  1  0
 11 42  1  0
 12 43  1  1
 15 44  1  0
 16 45  1  0
 18 46  1  0
 19 47  1  0
 20 48  1  0
 21 49  1  0
 24 50  1  0
 25 51  1  0
 27 52  1  0
 30 53  1  0
 31 54  1  0
M  END
>  <UniqueID>  (63) 
28

>  <SMILES>  (63) 
O=C(NCC(=O)N1C[C@H](O)C[C@H]1c1nccc2ccccc12)c1ccc2cc(F)ccc2n1

>  <Energy>  (63) 
68.44888388834336

>  <Genealogy>  (63) 
O=C(NCC(=O)N1C[C@H](O)C[C@H]1c1nccc2ccccc12)c1ccc2cc(F)ccc2n1 (3D coordinates assigned)
O=C(NCC(=O)N1C[C@H](O)C[C@H]1c1nccc2ccccc12)c1ccc2cc(F)ccc2n1 (nonaromatic ring conformer: 68.44888388834336 kcal/mol)

>  <smiles>  (63) 
O=C(NCC(=O)N1C[C@H](O)C[C@H]1c1nccc2ccccc12)c1ccc2cc(F)ccc2n1

>  <score_type>  (63) 
oracle

>  <origin>  (63) 
autodockgpu

>  <m_score__min__energy>  (63) 
-9.3699999999999992

>  <m_primary>  (63) 
energy

>  <meeko>  (63) 
{"free_energy": -9.08, "intermolecular_energy": -10.87, "internal_energy": -1.55, "cluster_size": 10, "cluster_id": 1, "rank_in_cluster": 7}

>  <energy>  (63) 
-9.32

>  <cluster_rmsd>  (63) 
0.85

>  <rmsd>  (63) 
270.35

>  <cluster>  (63) 
1

$$$$
PTHZUPGKXGNJLI-NCDVCWAKNA-N
     RDKit          3D

 54 58  0  0  0  0  0  0  0  0999 V2000
  139.7980   70.8390  221.1650 O   0  0  0  0  0  0  0  0  0  0  0  0
  139.7590   71.4130  222.2880 C   0  0  0  0  0  0  0  0  0  0  0  0
  139.7320   72.8480  222.3570 N   0  0  0  0  0  0  0  0  0  0  0  0
  139.7660   73.6940  221.1660 C   0  0  0  0  0  0  0  0  0  0  0  0
  139.9620   75.1280  221.5630 C   0  0  0  0  0  0  0  0  0  0  0  0
  139.6250   75.4920  222.7220 O   0  0  0  0  0  0  0  0  0  0  0  0
  140.5500   76.0830  220.6570 N   0  0  0  0  0  0  0  0  0  0  0  0
  140.3840   76.0390  219.2110 C   0  0  0  0  0  0  0  0  0  0  0  0
  141.1380   77.2600  218.6810 C   0  0  2  0  0  0  0  0  0  0  0  0
  141.8240   76.9880  217.4830 O   0  0  0  0  0  0  0  0  0  0  0  0
  142.0810   77.6900  219.8090 C   0  0  0  0  0  0  0  0  0  0  0  0
  141.4470   77.1480  221.0940 C   0  0  1  0  0  0  0  0  0  0  0  0
  140.6830   78.2380  221.8270 C   0  0  0  0  0  0  0  0  0  0  0  0
  139.3200   78.2340  221.7580 N   0  0  0  0  0  0  0  0  0  0  0  0
  138.5510   79.1680  222.3710 C   0  0  0  0  0  0  0  0  0  0  0  0
  139.1430   80.1900  223.1050 C   0  0  0  0  0  0  0  0  0  0  0  0
  140.5380   80.2560  223.1930 C   0  0  0  0  0  0  0  0  0  0  0  0
  141.1490   81.2920  223.9160 C   0  0  0  0  0  0  0  0  0  0  0  0
  142.5410   81.3720  223.9900 C   0  0  0  0  0  0  0  0  0  0  0  0
  143.3310   80.4240  223.3420 C   0  0  0  0  0  0  0  0  0  0  0  0
  142.7400   79.3850  222.6190 C   0  0  0  0  0  0  0  0  0  0  0  0
  141.3330   79.2780  222.5400 C   0  0  0  0  0  0  0  0  0  0  0  0
  139.7510   70.6030  223.5250 C   0  0  0  0  0  0  0  0  0  0  0  0
  139.1880   69.3140  223.5450 C   0  0  0  0  0  0  0  0  0  0  0  0
  139.2000   68.5700  224.7260 C   0  0  0  0  0  0  0  0  0  0  0  0
  139.7690   69.1100  225.8850 C   0  0  0  0  0  0  0  0  0  0  0  0
  139.7980   68.3910  227.0890 C   0  0  0  0  0  0  0  0  0  0  0  0
  140.3740   68.9600  228.2300 C   0  0  0  0  0  0  0  0  0  0  0  0
  140.4010   68.2640  229.3930 F   0  0  0  0  0  0  0  0  0  0  0  0
  140.9240   70.2450  228.1730 C   0  0  0  0  0  0  0  0  0  0  0  0
  140.9000   70.9690  226.9760 C   0  0  0  0  0  0  0  0  0  0  0  0
  140.3260   70.4070  225.8310 C   0  0  0  0  0  0  0  0  0  0  0  0
  140.3000   71.1070  224.6660 N   0  0  0  0  0  0  0  0  0  0  0  0
  139.5650   73.3110  223.2790 H   0  0  0  0  0  0  0  0  0  0  0  0
  140.5969   73.3782  220.5180 H   0  0  0  0  0  0  0  0  0  0  0  0
  138.8136   73.5952  220.6245 H   0  0  0  0  0  0  0  0  0  0  0  0
  140.8141   75.1130  218.8018 H   0  0  0  0  0  0  0  0  0  0  0  0
  139.3235   76.0533  218.9192 H   0  0  0  0  0  0  0  0  0  0  0  0
  140.4423   78.0702  218.4172 H   0  0  0  0  0  0  0  0  0  0  0  0
  142.5700   77.6370  217.4030 H   0  0  0  0  0  0  0  0  0  0  0  0
  143.0815   77.2575  219.6608 H   0  0  0  0  0  0  0  0  0  0  0  0
  142.2084   78.7821  219.8434 H   0  0  0  0  0  0  0  0  0  0  0  0
  142.2053   76.7801  221.8008 H   0  0  0  0  0  0  0  0  0  0  0  0
  137.4554   79.1169  222.2873 H   0  0  0  0  0  0  0  0  0  0  0  0
  138.5195   80.9408  223.6125 H   0  0  0  0  0  0  0  0  0  0  0  0
  140.5290   82.0438  224.4263 H   0  0  0  0  0  0  0  0  0  0  0  0
  143.0149   82.1844  224.5605 H   0  0  0  0  0  0  0  0  0  0  0  0
  144.4272   80.4944  223.4003 H   0  0  0  0  0  0  0  0  0  0  0  0
  143.3738   78.6454  222.1079 H   0  0  0  0  0  0  0  0  0  0  0  0
  138.7397   68.8936  222.6327 H   0  0  0  0  0  0  0  0  0  0  0  0
  138.7629   67.5608  224.7457 H   0  0  0  0  0  0  0  0  0  0  0  0
  139.3679   67.3797  227.1361 H   0  0  0  0  0  0  0  0  0  0  0  0
  141.3769   70.6877  229.0724 H   0  0  0  0  0  0  0  0  0  0  0  0
  141.3323   71.9797  226.9354 H   0  0  0  0  0  0  0  0  0  0  0  0
  1  2  2  0
  2  3  1  0
  3  4  1  0
  4  5  1  0
  5  6  2  0
  5  7  1  0
  7  8  1  0
  8  9  1  0
  9 10  1  0
  9 11  1  0
 11 12  1  0
 12 13  1  0
 13 14  2  0
 14 15  1  0
 15 16  2  0
 16 17  1  0
 17 18  2  0
 18 19  1  0
 19 20  2  0
 20 21  1  0
 21 22  2  0
  2 23  1  0
 23 24  2  0
 24 25  1  0
 25 26  2  0
 26 27  1  0
 27 28  2  0
 28 29  1  0
 28 30  1  0
 30 31  2  0
 31 32  1  0
 32 33  2  0
 12  7  1  0
 22 13  1  0
 33 23  1  0
 22 17  1  0
 32 26  1  0
  3 34  1  0
  4 35  1  0
  4 36  1  0
  8 37  1  0
  8 38  1  0
  9 39  1  6
 10 40  1  0
 11 41  1  0
 11 42  1  0
 12 43  1  1
 15 44  1  0
 16 45  1  0
 18 46  1  0
 19 47  1  0
 20 48  1  0
 21 49  1  0
 24 50  1  0
 25 51  1  0
 27 52  1  0
 30 53  1  0
 31 54  1  0
M  END
>  <UniqueID>  (64) 
28

>  <SMILES>  (64) 
O=C(NCC(=O)N1C[C@H](O)C[C@H]1c1nccc2ccccc12)c1ccc2cc(F)ccc2n1

>  <Energy>  (64) 
68.44888388834336

>  <Genealogy>  (64) 
O=C(NCC(=O)N1C[C@H](O)C[C@H]1c1nccc2ccccc12)c1ccc2cc(F)ccc2n1 (3D coordinates assigned)
O=C(NCC(=O)N1C[C@H](O)C[C@H]1c1nccc2ccccc12)c1ccc2cc(F)ccc2n1 (nonaromatic ring conformer: 68.44888388834336 kcal/mol)

>  <smiles>  (64) 
O=C(NCC(=O)N1C[C@H](O)C[C@H]1c1nccc2ccccc12)c1ccc2cc(F)ccc2n1

>  <score_type>  (64) 
oracle

>  <origin>  (64) 
autodockgpu

>  <m_score__min__energy>  (64) 
-9.3699999999999992

>  <m_primary>  (64) 
energy

>  <meeko>  (64) 
{"free_energy": -9.29, "intermolecular_energy": -11.08, "internal_energy": -1.96, "cluster_size": 10, "cluster_id": 1, "rank_in_cluster": 4}

>  <energy>  (64) 
-9.29

>  <cluster_rmsd>  (64) 
0.79

>  <rmsd>  (64) 
270.36

>  <cluster>  (64) 
1

$$$$
PTHZUPGKXGNJLI-NCDVCWAKNA-N
     RDKit          3D

 54 58  0  0  0  0  0  0  0  0999 V2000
  136.2030   72.2560  221.5020 O   0  0  0  0  0  0  0  0  0  0  0  0
  137.1290   72.4320  222.3410 C   0  0  0  0  0  0  0  0  0  0  0  0
  137.0060   71.8880  223.6650 N   0  0  0  0  0  0  0  0  0  0  0  0
  135.8280   71.1410  224.1040 C   0  0  0  0  0  0  0  0  0  0  0  0
  136.0910   69.6670  224.0060 C   0  0  0  0  0  0  0  0  0  0  0  0
  135.3020   68.8670  224.5780 O   0  0  0  0  0  0  0  0  0  0  0  0
  137.2070   69.1530  223.2530 N   0  0  0  0  0  0  0  0  0  0  0  0
  137.2570   69.1150  221.7980 C   0  0  0  0  0  0  0  0  0  0  0  0
  138.6310   68.5390  221.4550 C   0  0  2  0  0  0  0  0  0  0  0  0
  138.5860   67.6630  220.3560 O   0  0  0  0  0  0  0  0  0  0  0  0
  139.1240   67.8490  222.7310 C   0  0  0  0  0  0  0  0  0  0  0  0
  138.3730   68.5350  223.8770 C   0  0  1  0  0  0  0  0  0  0  0  0
  139.2460   69.5780  224.5550 C   0  0  0  0  0  0  0  0  0  0  0  0
  139.5660   70.7070  223.8590 N   0  0  0  0  0  0  0  0  0  0  0  0
  140.3450   71.6910  224.3740 C   0  0  0  0  0  0  0  0  0  0  0  0
  140.8600   71.5740  225.6610 C   0  0  0  0  0  0  0  0  0  0  0  0
  140.5820   70.4280  226.4120 C   0  0  0  0  0  0  0  0  0  0  0  0
  141.1100   70.2880  227.7060 C   0  0  0  0  0  0  0  0  0  0  0  0
  140.8500   69.1380  228.4510 C   0  0  0  0  0  0  0  0  0  0  0  0
  140.0670   68.1170  227.9130 C   0  0  0  0  0  0  0  0  0  0  0  0
  139.5320   68.2390  226.6280 C   0  0  0  0  0  0  0  0  0  0  0  0
  139.7720   69.4000  225.8600 C   0  0  0  0  0  0  0  0  0  0  0  0
  138.3300   73.2040  221.9570 C   0  0  0  0  0  0  0  0  0  0  0  0
  138.3240   74.6090  221.9690 C   0  0  0  0  0  0  0  0  0  0  0  0
  139.4750   75.3110  221.6050 C   0  0  0  0  0  0  0  0  0  0  0  0
  140.6290   74.6130  221.2300 C   0  0  0  0  0  0  0  0  0  0  0  0
  141.8010   75.2860  220.8590 C   0  0  0  0  0  0  0  0  0  0  0  0
  142.9380   74.5580  220.4890 C   0  0  0  0  0  0  0  0  0  0  0  0
  144.0720   75.2090  220.1300 F   0  0  0  0  0  0  0  0  0  0  0  0
  142.9070   73.1590  220.4880 C   0  0  0  0  0  0  0  0  0  0  0  0
  141.7400   72.4810  220.8570 C   0  0  0  0  0  0  0  0  0  0  0  0
  140.6000   73.2010  221.2290 C   0  0  0  0  0  0  0  0  0  0  0  0
  139.4650   72.5450  221.5880 N   0  0  0  0  0  0  0  0  0  0  0  0
  137.8290   71.9220  224.3090 H   0  0  0  0  0  0  0  0  0  0  0  0
  135.5991   71.4018  225.1478 H   0  0  0  0  0  0  0  0  0  0  0  0
  134.9748   71.3998  223.4598 H   0  0  0  0  0  0  0  0  0  0  0  0
  136.4591   68.4695  221.4020 H   0  0  0  0  0  0  0  0  0  0  0  0
  137.1091   70.1118  221.3570 H   0  0  0  0  0  0  0  0  0  0  0  0
  139.3248   69.3327  221.1410 H   0  0  0  0  0  0  0  0  0  0  0  0
  137.7070   67.7780  219.9080 H   0  0  0  0  0  0  0  0  0  0  0  0
  138.8881   66.7749  222.7041 H   0  0  0  0  0  0  0  0  0  0  0  0
  140.2147   67.9323  222.8473 H   0  0  0  0  0  0  0  0  0  0  0  0
  138.0864   67.8212  224.6634 H   0  0  0  0  0  0  0  0  0  0  0  0
  140.5701   72.5839  223.7723 H   0  0  0  0  0  0  0  0  0  0  0  0
  141.4812   72.3770  226.0845 H   0  0  0  0  0  0  0  0  0  0  0  0
  141.7312   71.0888  228.1336 H   0  0  0  0  0  0  0  0  0  0  0  0
  141.2635   69.0361  229.4652 H   0  0  0  0  0  0  0  0  0  0  0  0
  139.8694   67.2103  228.5037 H   0  0  0  0  0  0  0  0  0  0  0  0
  138.9198   67.4255  226.2116 H   0  0  0  0  0  0  0  0  0  0  0  0
  137.4154   75.1543  222.2642 H   0  0  0  0  0  0  0  0  0  0  0  0
  139.4748   76.4110  221.6129 H   0  0  0  0  0  0  0  0  0  0  0  0
  141.8274   76.3857  220.8585 H   0  0  0  0  0  0  0  0  0  0  0  0
  143.8025   72.5907  220.1963 H   0  0  0  0  0  0  0  0  0  0  0  0
  141.7191   71.3812  220.8545 H   0  0  0  0  0  0  0  0  0  0  0  0
  1  2  2  0
  2  3  1  0
  3  4  1  0
  4  5  1  0
  5  6  2  0
  5  7  1  0
  7  8  1  0
  8  9  1  0
  9 10  1  0
  9 11  1  0
 11 12  1  0
 12 13  1  0
 13 14  2  0
 14 15  1  0
 15 16  2  0
 16 17  1  0
 17 18  2  0
 18 19  1  0
 19 20  2  0
 20 21  1  0
 21 22  2  0
  2 23  1  0
 23 24  2  0
 24 25  1  0
 25 26  2  0
 26 27  1  0
 27 28  2  0
 28 29  1  0
 28 30  1  0
 30 31  2  0
 31 32  1  0
 32 33  2  0
 12  7  1  0
 22 13  1  0
 33 23  1  0
 22 17  1  0
 32 26  1  0
  3 34  1  0
  4 35  1  0
  4 36  1  0
  8 37  1  0
  8 38  1  0
  9 39  1  6
 10 40  1  0
 11 41  1  0
 11 42  1  0
 12 43  1  1
 15 44  1  0
 16 45  1  0
 18 46  1  0
 19 47  1  0
 20 48  1  0
 21 49  1  0
 24 50  1  0
 25 51  1  0
 27 52  1  0
 30 53  1  0
 31 54  1  0
M  END
>  <UniqueID>  (65) 
28

>  <SMILES>  (65) 
O=C(NCC(=O)N1C[C@H](O)C[C@H]1c1nccc2ccccc12)c1ccc2cc(F)ccc2n1

>  <Energy>  (65) 
68.44888388834336

>  <Genealogy>  (65) 
O=C(NCC(=O)N1C[C@H](O)C[C@H]1c1nccc2ccccc12)c1ccc2cc(F)ccc2n1 (3D coordinates assigned)
O=C(NCC(=O)N1C[C@H](O)C[C@H]1c1nccc2ccccc12)c1ccc2cc(F)ccc2n1 (nonaromatic ring conformer: 68.44888388834336 kcal/mol)

>  <smiles>  (65) 
O=C(NCC(=O)N1C[C@H](O)C[C@H]1c1nccc2ccccc12)c1ccc2cc(F)ccc2n1

>  <score_type>  (65) 
oracle

>  <origin>  (65) 
autodockgpu

>  <m_score__min__energy>  (65) 
-9.3699999999999992

>  <m_primary>  (65) 
energy

>  <meeko>  (65) 
{"free_energy": -7.41, "intermolecular_energy": -9.2, "internal_energy": -3.16, "cluster_size": 4, "cluster_id": 5, "rank_in_cluster": 1}

>  <energy>  (65) 
-9.11

>  <cluster_rmsd>  (65) 
1.55

>  <rmsd>  (65) 
270.1

>  <cluster>  (65) 
1

$$$$
PTHZUPGKXGNJLI-NCDVCWAKNA-N
     RDKit          3D

 54 58  0  0  0  0  0  0  0  0999 V2000
  139.8110   71.6680  220.9130 O   0  0  0  0  0  0  0  0  0  0  0  0
  139.7800   72.2090  222.0520 C   0  0  0  0  0  0  0  0  0  0  0  0
  139.7370   73.6410  222.1630 N   0  0  0  0  0  0  0  0  0  0  0  0
  139.7460   74.5220  220.9970 C   0  0  0  0  0  0  0  0  0  0  0  0
  140.6970   75.6600  221.2220 C   0  0  0  0  0  0  0  0  0  0  0  0
  140.7330   76.2090  222.3570 O   0  0  0  0  0  0  0  0  0  0  0  0
  141.5810   76.1160  220.1800 N   0  0  0  0  0  0  0  0  0  0  0  0
  141.9640   77.5070  219.9900 C   0  0  0  0  0  0  0  0  0  0  0  0
  142.9370   77.5020  218.8100 C   0  0  2  0  0  0  0  0  0  0  0  0
  142.7540   78.6080  217.9590 O   0  0  0  0  0  0  0  0  0  0  0  0
  142.7110   76.1680  218.0900 C   0  0  0  0  0  0  0  0  0  0  0  0
  142.1180   75.2330  219.1490 C   0  0  1  0  0  0  0  0  0  0  0  0
  143.1830   74.3120  219.7200 C   0  0  0  0  0  0  0  0  0  0  0  0
  144.2840   74.8740  220.2990 N   0  0  0  0  0  0  0  0  0  0  0  0
  145.2910   74.1370  220.8300 C   0  0  0  0  0  0  0  0  0  0  0  0
  145.2360   72.7470  220.7940 C   0  0  0  0  0  0  0  0  0  0  0  0
  144.1410   72.1170  220.1930 C   0  0  0  0  0  0  0  0  0  0  0  0
  144.0800   70.7160  220.1340 C   0  0  0  0  0  0  0  0  0  0  0  0
  142.9990   70.0840  219.5180 C   0  0  0  0  0  0  0  0  0  0  0  0
  141.9740   70.8420  218.9540 C   0  0  0  0  0  0  0  0  0  0  0  0
  142.0170   72.2380  219.0050 C   0  0  0  0  0  0  0  0  0  0  0  0
  143.0960   72.8980  219.6330 C   0  0  0  0  0  0  0  0  0  0  0  0
  139.7970   71.3630  223.2660 C   0  0  0  0  0  0  0  0  0  0  0  0
  139.2770   70.0580  223.2470 C   0  0  0  0  0  0  0  0  0  0  0  0
  139.3110   69.2800  224.4070 C   0  0  0  0  0  0  0  0  0  0  0  0
  139.8630   69.8050  225.5820 C   0  0  0  0  0  0  0  0  0  0  0  0
  139.9130   69.0520  226.7640 C   0  0  0  0  0  0  0  0  0  0  0  0
  140.4700   69.6060  227.9210 C   0  0  0  0  0  0  0  0  0  0  0  0
  140.5190   68.8780  229.0640 F   0  0  0  0  0  0  0  0  0  0  0  0
  140.9790   70.9090  227.9030 C   0  0  0  0  0  0  0  0  0  0  0  0
  140.9320   71.6660  226.7270 C   0  0  0  0  0  0  0  0  0  0  0  0
  140.3770   71.1200  225.5650 C   0  0  0  0  0  0  0  0  0  0  0  0
  140.3300   71.8520  224.4210 N   0  0  0  0  0  0  0  0  0  0  0  0
  139.5770   74.0750  223.1000 H   0  0  0  0  0  0  0  0  0  0  0  0
  140.0634   73.9515  220.1117 H   0  0  0  0  0  0  0  0  0  0  0  0
  138.7338   74.9227  220.8390 H   0  0  0  0  0  0  0  0  0  0  0  0
  141.0813   78.1212  219.7585 H   0  0  0  0  0  0  0  0  0  0  0  0
  142.4207   77.9332  220.8954 H   0  0  0  0  0  0  0  0  0  0  0  0
  143.9774   77.5946  219.1549 H   0  0  0  0  0  0  0  0  0  0  0  0
  143.6190   78.7960  217.5120 H   0  0  0  0  0  0  0  0  0  0  0  0
  142.0093   76.2961  217.2526 H   0  0  0  0  0  0  0  0  0  0  0  0
  143.6435   75.7679  217.6652 H   0  0  0  0  0  0  0  0  0  0  0  0
  141.3421   74.5768  218.7279 H   0  0  0  0  0  0  0  0  0  0  0  0
  146.1542   74.6397  221.2907 H   0  0  0  0  0  0  0  0  0  0  0  0
  146.0469   72.1484  221.2346 H   0  0  0  0  0  0  0  0  0  0  0  0
  144.8877   70.1136  220.5752 H   0  0  0  0  0  0  0  0  0  0  0  0
  142.9556   68.9856  219.4774 H   0  0  0  0  0  0  0  0  0  0  0  0
  141.1265   70.3385  218.4660 H   0  0  0  0  0  0  0  0  0  0  0  0
  141.2050   72.8265  218.5530 H   0  0  0  0  0  0  0  0  0  0  0  0
  138.8444   69.6500  222.3216 H   0  0  0  0  0  0  0  0  0  0  0  0
  138.9052   68.2576  224.3973 H   0  0  0  0  0  0  0  0  0  0  0  0
  139.5146   68.0268  226.7811 H   0  0  0  0  0  0  0  0  0  0  0  0
  141.4172   71.3395  228.8155 H   0  0  0  0  0  0  0  0  0  0  0  0
  141.3317   72.6908  226.7164 H   0  0  0  0  0  0  0  0  0  0  0  0
  1  2  2  0
  2  3  1  0
  3  4  1  0
  4  5  1  0
  5  6  2  0
  5  7  1  0
  7  8  1  0
  8  9  1  0
  9 10  1  0
  9 11  1  0
 11 12  1  0
 12 13  1  0
 13 14  2  0
 14 15  1  0
 15 16  2  0
 16 17  1  0
 17 18  2  0
 18 19  1  0
 19 20  2  0
 20 21  1  0
 21 22  2  0
  2 23  1  0
 23 24  2  0
 24 25  1  0
 25 26  2  0
 26 27  1  0
 27 28  2  0
 28 29  1  0
 28 30  1  0
 30 31  2  0
 31 32  1  0
 32 33  2  0
 12  7  1  0
 22 13  1  0
 33 23  1  0
 22 17  1  0
 32 26  1  0
  3 34  1  0
  4 35  1  0
  4 36  1  0
  8 37  1  0
  8 38  1  0
  9 39  1  1
 10 40  1  0
 11 41  1  0
 11 42  1  0
 12 43  1  6
 15 44  1  0
 16 45  1  0
 18 46  1  0
 19 47  1  0
 20 48  1  0
 21 49  1  0
 24 50  1  0
 25 51  1  0
 27 52  1  0
 30 53  1  0
 31 54  1  0
M  END
>  <UniqueID>  (66) 
28

>  <SMILES>  (66) 
O=C(NCC(=O)N1C[C@H](O)C[C@H]1c1nccc2ccccc12)c1ccc2cc(F)ccc2n1

>  <Energy>  (66) 
68.44888388834336

>  <Genealogy>  (66) 
O=C(NCC(=O)N1C[C@H](O)C[C@H]1c1nccc2ccccc12)c1ccc2cc(F)ccc2n1 (3D coordinates assigned)
O=C(NCC(=O)N1C[C@H](O)C[C@H]1c1nccc2ccccc12)c1ccc2cc(F)ccc2n1 (nonaromatic ring conformer: 68.44888388834336 kcal/mol)

>  <smiles>  (66) 
O=C(NCC(=O)N1C[C@H](O)C[C@H]1c1nccc2ccccc12)c1ccc2cc(F)ccc2n1

>  <score_type>  (66) 
oracle

>  <origin>  (66) 
autodockgpu

>  <m_score__min__energy>  (66) 
-9.3699999999999992

>  <m_primary>  (66) 
energy

>  <meeko>  (66) 
{"free_energy": -8.69, "intermolecular_energy": -10.48, "internal_energy": -2.39, "cluster_size": 3, "cluster_id": 3, "rank_in_cluster": 3}

>  <energy>  (66) 
-9.08

>  <cluster_rmsd>  (66) 
1.6

>  <rmsd>  (66) 
269.95

>  <cluster>  (66) 
1

$$$$
PTHZUPGKXGNJLI-NCDVCWAKNA-N
     RDKit          3D

 54 58  0  0  0  0  0  0  0  0999 V2000
  139.8140   71.6590  220.9180 O   0  0  0  0  0  0  0  0  0  0  0  0
  139.7840   72.2090  222.0540 C   0  0  0  0  0  0  0  0  0  0  0  0
  139.7490   73.6420  222.1540 N   0  0  0  0  0  0  0  0  0  0  0  0
  139.7650   74.5140  220.9810 C   0  0  0  0  0  0  0  0  0  0  0  0
  140.7100   75.6580  221.2070 C   0  0  0  0  0  0  0  0  0  0  0  0
  140.7410   76.2080  222.3400 O   0  0  0  0  0  0  0  0  0  0  0  0
  141.5940   76.1170  220.1650 N   0  0  0  0  0  0  0  0  0  0  0  0
  141.9780   77.5090  219.9800 C   0  0  0  0  0  0  0  0  0  0  0  0
  142.9500   77.5070  218.7990 C   0  0  2  0  0  0  0  0  0  0  0  0
  142.7670   78.6160  217.9530 O   0  0  0  0  0  0  0  0  0  0  0  0
  142.7230   76.1760  218.0750 C   0  0  0  0  0  0  0  0  0  0  0  0
  142.1310   75.2370  219.1310 C   0  0  1  0  0  0  0  0  0  0  0  0
  143.1960   74.3140  219.6990 C   0  0  0  0  0  0  0  0  0  0  0  0
  144.3040   74.8730  220.2650 N   0  0  0  0  0  0  0  0  0  0  0  0
  145.3120   74.1340  220.7910 C   0  0  0  0  0  0  0  0  0  0  0  0
  145.2490   72.7440  220.7640 C   0  0  0  0  0  0  0  0  0  0  0  0
  144.1450   72.1170  220.1770 C   0  0  0  0  0  0  0  0  0  0  0  0
  144.0760   70.7160  220.1280 C   0  0  0  0  0  0  0  0  0  0  0  0
  142.9860   70.0860  219.5260 C   0  0  0  0  0  0  0  0  0  0  0  0
  141.9600   70.8460  218.9650 C   0  0  0  0  0  0  0  0  0  0  0  0
  142.0120   72.2420  219.0070 C   0  0  0  0  0  0  0  0  0  0  0  0
  143.1000   72.9000  219.6220 C   0  0  0  0  0  0  0  0  0  0  0  0
  139.7930   71.3720  223.2730 C   0  0  0  0  0  0  0  0  0  0  0  0
  139.2600   70.0720  223.2650 C   0  0  0  0  0  0  0  0  0  0  0  0
  139.2870   69.3030  224.4300 C   0  0  0  0  0  0  0  0  0  0  0  0
  139.8450   69.8300  225.6010 C   0  0  0  0  0  0  0  0  0  0  0  0
  139.8890   69.0860  226.7880 C   0  0  0  0  0  0  0  0  0  0  0  0
  140.4530   69.6430  227.9410 C   0  0  0  0  0  0  0  0  0  0  0  0
  140.4960   68.9230  229.0900 F   0  0  0  0  0  0  0  0  0  0  0  0
  140.9750   70.9410  227.9130 C   0  0  0  0  0  0  0  0  0  0  0  0
  140.9350   71.6890  226.7310 C   0  0  0  0  0  0  0  0  0  0  0  0
  140.3730   71.1400  225.5740 C   0  0  0  0  0  0  0  0  0  0  0  0
  140.3320   71.8640  224.4240 N   0  0  0  0  0  0  0  0  0  0  0  0
  139.5900   74.0840  223.0870 H   0  0  0  0  0  0  0  0  0  0  0  0
  140.0930   73.9381  220.1030 H   0  0  0  0  0  0  0  0  0  0  0  0
  138.7528   74.9091  220.8100 H   0  0  0  0  0  0  0  0  0  0  0  0
  141.0956   78.1248  219.7515 H   0  0  0  0  0  0  0  0  0  0  0  0
  142.4356   77.9317  220.8866 H   0  0  0  0  0  0  0  0  0  0  0  0
  143.9910   77.5972  219.1428 H   0  0  0  0  0  0  0  0  0  0  0  0
  143.6260   78.7900  217.4870 H   0  0  0  0  0  0  0  0  0  0  0  0
  142.0204   76.3072  217.2388 H   0  0  0  0  0  0  0  0  0  0  0  0
  143.6551   75.7773  217.6481 H   0  0  0  0  0  0  0  0  0  0  0  0
  141.3556   74.5816  218.7077 H   0  0  0  0  0  0  0  0  0  0  0  0
  146.1822   74.6348  221.2404 H   0  0  0  0  0  0  0  0  0  0  0  0
  146.0606   72.1435  221.2006 H   0  0  0  0  0  0  0  0  0  0  0  0
  144.8844   70.1121  220.5659 H   0  0  0  0  0  0  0  0  0  0  0  0
  142.9359   68.9876  219.4939 H   0  0  0  0  0  0  0  0  0  0  0  0
  141.1057   70.3443  218.4871 H   0  0  0  0  0  0  0  0  0  0  0  0
  141.1998   72.8325  218.5579 H   0  0  0  0  0  0  0  0  0  0  0  0
  138.8225   69.6611  222.3432 H   0  0  0  0  0  0  0  0  0  0  0  0
  138.8706   68.2849  224.4279 H   0  0  0  0  0  0  0  0  0  0  0  0
  139.4805   68.0650  226.8131 H   0  0  0  0  0  0  0  0  0  0  0  0
  141.4177   71.3743  228.8220 H   0  0  0  0  0  0  0  0  0  0  0  0
  141.3458   72.7093  226.7119 H   0  0  0  0  0  0  0  0  0  0  0  0
  1  2  2  0
  2  3  1  0
  3  4  1  0
  4  5  1  0
  5  6  2  0
  5  7  1  0
  7  8  1  0
  8  9  1  0
  9 10  1  0
  9 11  1  0
 11 12  1  0
 12 13  1  0
 13 14  2  0
 14 15  1  0
 15 16  2  0
 16 17  1  0
 17 18  2  0
 18 19  1  0
 19 20  2  0
 20 21  1  0
 21 22  2  0
  2 23  1  0
 23 24  2  0
 24 25  1  0
 25 26  2  0
 26 27  1  0
 27 28  2  0
 28 29  1  0
 28 30  1  0
 30 31  2  0
 31 32  1  0
 32 33  2  0
 12  7  1  0
 22 13  1  0
 33 23  1  0
 22 17  1  0
 32 26  1  0
  3 34  1  0
  4 35  1  0
  4 36  1  0
  8 37  1  0
  8 38  1  0
  9 39  1  1
 10 40  1  0
 11 41  1  0
 11 42  1  0
 12 43  1  6
 15 44  1  0
 16 45  1  0
 18 46  1  0
 19 47  1  0
 20 48  1  0
 21 49  1  0
 24 50  1  0
 25 51  1  0
 27 52  1  0
 30 53  1  0
 31 54  1  0
M  END
>  <UniqueID>  (67) 
28

>  <SMILES>  (67) 
O=C(NCC(=O)N1C[C@H](O)C[C@H]1c1nccc2ccccc12)c1ccc2cc(F)ccc2n1

>  <Energy>  (67) 
68.44888388834336

>  <Genealogy>  (67) 
O=C(NCC(=O)N1C[C@H](O)C[C@H]1c1nccc2ccccc12)c1ccc2cc(F)ccc2n1 (3D coordinates assigned)
O=C(NCC(=O)N1C[C@H](O)C[C@H]1c1nccc2ccccc12)c1ccc2cc(F)ccc2n1 (nonaromatic ring conformer: 68.44888388834336 kcal/mol)

>  <smiles>  (67) 
O=C(NCC(=O)N1C[C@H](O)C[C@H]1c1nccc2ccccc12)c1ccc2cc(F)ccc2n1

>  <score_type>  (67) 
oracle

>  <origin>  (67) 
autodockgpu

>  <m_score__min__energy>  (67) 
-9.3699999999999992

>  <m_primary>  (67) 
energy

>  <meeko>  (67) 
{"free_energy": -8.71, "intermolecular_energy": -10.5, "internal_energy": -2.38, "cluster_size": 3, "cluster_id": 3, "rank_in_cluster": 2}

>  <energy>  (67) 
-9.08

>  <cluster_rmsd>  (67) 
0.84

>  <rmsd>  (67) 
270.28

>  <cluster>  (67) 
1

$$$$
PTHZUPGKXGNJLI-NCDVCWAKNA-N
     RDKit          3D

 54 58  0  0  0  0  0  0  0  0999 V2000
  139.9620   71.6920  220.9460 O   0  0  0  0  0  0  0  0  0  0  0  0
  139.8830   72.2290  222.0850 C   0  0  0  0  0  0  0  0  0  0  0  0
  139.7810   73.6580  222.1960 N   0  0  0  0  0  0  0  0  0  0  0  0
  139.7840   74.5410  221.0310 C   0  0  0  0  0  0  0  0  0  0  0  0
  140.7590   75.6620  221.2410 C   0  0  0  0  0  0  0  0  0  0  0  0
  140.8330   76.2000  222.3790 O   0  0  0  0  0  0  0  0  0  0  0  0
  141.6230   76.1130  220.1800 N   0  0  0  0  0  0  0  0  0  0  0  0
  141.9990   77.5040  219.9740 C   0  0  0  0  0  0  0  0  0  0  0  0
  142.9500   77.4940  218.7770 C   0  0  2  0  0  0  0  0  0  0  0  0
  142.7490   78.5930  217.9220 O   0  0  0  0  0  0  0  0  0  0  0  0
  142.7150   76.1550  218.0700 C   0  0  0  0  0  0  0  0  0  0  0  0
  142.1440   75.2250  219.1460 C   0  0  1  0  0  0  0  0  0  0  0  0
  143.2220   74.3110  219.7040 C   0  0  0  0  0  0  0  0  0  0  0  0
  144.3210   74.8790  220.2800 N   0  0  0  0  0  0  0  0  0  0  0  0
  145.3390   74.1490  220.7990 C   0  0  0  0  0  0  0  0  0  0  0  0
  145.2970   72.7590  220.7540 C   0  0  0  0  0  0  0  0  0  0  0  0
  144.2040   72.1220  220.1560 C   0  0  0  0  0  0  0  0  0  0  0  0
  144.1570   70.7210  220.0890 C   0  0  0  0  0  0  0  0  0  0  0  0
  143.0780   70.0830  219.4760 C   0  0  0  0  0  0  0  0  0  0  0  0
  142.0420   70.8340  218.9230 C   0  0  0  0  0  0  0  0  0  0  0  0
  142.0720   72.2300  218.9830 C   0  0  0  0  0  0  0  0  0  0  0  0
  143.1480   72.8970  219.6090 C   0  0  0  0  0  0  0  0  0  0  0  0
  139.9030   71.3820  223.2970 C   0  0  0  0  0  0  0  0  0  0  0  0
  139.3950   70.0720  223.2750 C   0  0  0  0  0  0  0  0  0  0  0  0
  139.4320   69.2940  224.4340 C   0  0  0  0  0  0  0  0  0  0  0  0
  139.9730   69.8220  225.6120 C   0  0  0  0  0  0  0  0  0  0  0  0
  140.0260   69.0680  226.7930 C   0  0  0  0  0  0  0  0  0  0  0  0
  140.5730   69.6270  227.9540 C   0  0  0  0  0  0  0  0  0  0  0  0
  140.6240   68.8980  229.0960 F   0  0  0  0  0  0  0  0  0  0  0  0
  141.0690   70.9350  227.9390 C   0  0  0  0  0  0  0  0  0  0  0  0
  141.0200   71.6930  226.7640 C   0  0  0  0  0  0  0  0  0  0  0  0
  140.4750   71.1420  225.5990 C   0  0  0  0  0  0  0  0  0  0  0  0
  140.4250   71.8750  224.4550 N   0  0  0  0  0  0  0  0  0  0  0  0
  139.5820   74.0840  223.1290 H   0  0  0  0  0  0  0  0  0  0  0  0
  140.0753   73.9668  220.1391 H   0  0  0  0  0  0  0  0  0  0  0  0
  138.7763   74.9595  220.8918 H   0  0  0  0  0  0  0  0  0  0  0  0
  141.1106   78.1145  219.7547 H   0  0  0  0  0  0  0  0  0  0  0  0
  142.4711   77.9371  220.8682 H   0  0  0  0  0  0  0  0  0  0  0  0
  143.9960   77.5921  219.1030 H   0  0  0  0  0  0  0  0  0  0  0  0
  143.6100   78.7910  217.4710 H   0  0  0  0  0  0  0  0  0  0  0  0
  141.9978   76.2756  217.2447 H   0  0  0  0  0  0  0  0  0  0  0  0
  143.6408   75.7548  217.6309 H   0  0  0  0  0  0  0  0  0  0  0  0
  141.3628   74.5635  218.7433 H   0  0  0  0  0  0  0  0  0  0  0  0
  146.2005   74.6571  221.2569 H   0  0  0  0  0  0  0  0  0  0  0  0
  146.1166   72.1655  221.1852 H   0  0  0  0  0  0  0  0  0  0  0  0
  144.9735   70.1238  220.5212 H   0  0  0  0  0  0  0  0  0  0  0  0
  143.0449   68.9845  219.4290 H   0  0  0  0  0  0  0  0  0  0  0  0
  141.1965   70.3253  218.4369 H   0  0  0  0  0  0  0  0  0  0  0  0
  141.2517   72.8134  218.5395 H   0  0  0  0  0  0  0  0  0  0  0  0
  138.9696   69.6607  222.3477 H   0  0  0  0  0  0  0  0  0  0  0  0
  139.0365   68.2676  224.4212 H   0  0  0  0  0  0  0  0  0  0  0  0
  139.6383   68.0387  226.8072 H   0  0  0  0  0  0  0  0  0  0  0  0
  141.4989   71.3689  228.8538 H   0  0  0  0  0  0  0  0  0  0  0  0
  141.4097   72.7216  226.7561 H   0  0  0  0  0  0  0  0  0  0  0  0
  1  2  2  0
  2  3  1  0
  3  4  1  0
  4  5  1  0
  5  6  2  0
  5  7  1  0
  7  8  1  0
  8  9  1  0
  9 10  1  0
  9 11  1  0
 11 12  1  0
 12 13  1  0
 13 14  2  0
 14 15  1  0
 15 16  2  0
 16 17  1  0
 17 18  2  0
 18 19  1  0
 19 20  2  0
 20 21  1  0
 21 22  2  0
  2 23  1  0
 23 24  2  0
 24 25  1  0
 25 26  2  0
 26 27  1  0
 27 28  2  0
 28 29  1  0
 28 30  1  0
 30 31  2  0
 31 32  1  0
 32 33  2  0
 12  7  1  0
 22 13  1  0
 33 23  1  0
 22 17  1  0
 32 26  1  0
  3 34  1  0
  4 35  1  0
  4 36  1  0
  8 37  1  0
  8 38  1  0
  9 39  1  1
 10 40  1  0
 11 41  1  0
 11 42  1  0
 12 43  1  6
 15 44  1  0
 16 45  1  0
 18 46  1  0
 19 47  1  0
 20 48  1  0
 21 49  1  0
 24 50  1  0
 25 51  1  0
 27 52  1  0
 30 53  1  0
 31 54  1  0
M  END
>  <UniqueID>  (68) 
28

>  <SMILES>  (68) 
O=C(NCC(=O)N1C[C@H](O)C[C@H]1c1nccc2ccccc12)c1ccc2cc(F)ccc2n1

>  <Energy>  (68) 
68.44888388834336

>  <Genealogy>  (68) 
O=C(NCC(=O)N1C[C@H](O)C[C@H]1c1nccc2ccccc12)c1ccc2cc(F)ccc2n1 (3D coordinates assigned)
O=C(NCC(=O)N1C[C@H](O)C[C@H]1c1nccc2ccccc12)c1ccc2cc(F)ccc2n1 (nonaromatic ring conformer: 68.44888388834336 kcal/mol)

>  <smiles>  (68) 
O=C(NCC(=O)N1C[C@H](O)C[C@H]1c1nccc2ccccc12)c1ccc2cc(F)ccc2n1

>  <score_type>  (68) 
oracle

>  <origin>  (68) 
autodockgpu

>  <m_score__min__energy>  (68) 
-9.3699999999999992

>  <m_primary>  (68) 
energy

>  <meeko>  (68) 
{"free_energy": -8.75, "intermolecular_energy": -10.54, "internal_energy": -2.35, "cluster_size": 3, "cluster_id": 3, "rank_in_cluster": 1}

>  <energy>  (68) 
-8.89

>  <cluster_rmsd>  (68) 
0.66

>  <rmsd>  (68) 
270.45

>  <cluster>  (68) 
1

$$$$
PTHZUPGKXGNJLI-NCDVCWAKNA-N
     RDKit          3D

 54 58  0  0  0  0  0  0  0  0999 V2000
  136.2010   72.2250  221.5330 O   0  0  0  0  0  0  0  0  0  0  0  0
  137.1290   72.4150  222.3680 C   0  0  0  0  0  0  0  0  0  0  0  0
  137.0150   71.8850  223.6980 N   0  0  0  0  0  0  0  0  0  0  0  0
  135.8430   71.1360  224.1490 C   0  0  0  0  0  0  0  0  0  0  0  0
  136.0740   69.6640  223.9640 C   0  0  0  0  0  0  0  0  0  0  0  0
  135.2600   68.8500  224.4770 O   0  0  0  0  0  0  0  0  0  0  0  0
  137.1870   69.1710  223.1930 N   0  0  0  0  0  0  0  0  0  0  0  0
  137.2270   69.1620  221.7380 C   0  0  0  0  0  0  0  0  0  0  0  0
  138.6020   68.6000  221.3740 C   0  0  2  0  0  0  0  0  0  0  0  0
  138.5530   67.7450  220.2580 O   0  0  0  0  0  0  0  0  0  0  0  0
  139.1080   67.8890  222.6330 C   0  0  0  0  0  0  0  0  0  0  0  0
  138.3610   68.5480  223.7970 C   0  0  1  0  0  0  0  0  0  0  0  0
  139.2330   69.5830  224.4890 C   0  0  0  0  0  0  0  0  0  0  0  0
  139.5550   70.7200  223.8060 N   0  0  0  0  0  0  0  0  0  0  0  0
  140.3330   71.6970  224.3340 C   0  0  0  0  0  0  0  0  0  0  0  0
  140.8460   71.5660  225.6210 C   0  0  0  0  0  0  0  0  0  0  0  0
  140.5650   70.4110  226.3590 C   0  0  0  0  0  0  0  0  0  0  0  0
  141.0900   70.2570  227.6510 C   0  0  0  0  0  0  0  0  0  0  0  0
  140.8280   69.0980  228.3840 C   0  0  0  0  0  0  0  0  0  0  0  0
  140.0470   68.0840  227.8320 C   0  0  0  0  0  0  0  0  0  0  0  0
  139.5140   68.2210  226.5470 C   0  0  0  0  0  0  0  0  0  0  0  0
  139.7570   69.3900  225.7930 C   0  0  0  0  0  0  0  0  0  0  0  0
  138.3240   73.1900  221.9700 C   0  0  0  0  0  0  0  0  0  0  0  0
  138.3100   74.5950  221.9670 C   0  0  0  0  0  0  0  0  0  0  0  0
  139.4550   75.3000  221.5920 C   0  0  0  0  0  0  0  0  0  0  0  0
  140.6120   74.6050  221.2190 C   0  0  0  0  0  0  0  0  0  0  0  0
  141.7790   75.2810  220.8360 C   0  0  0  0  0  0  0  0  0  0  0  0
  142.9180   74.5550  220.4680 C   0  0  0  0  0  0  0  0  0  0  0  0
  144.0460   75.2100  220.0980 F   0  0  0  0  0  0  0  0  0  0  0  0
  142.8950   73.1570  220.4820 C   0  0  0  0  0  0  0  0  0  0  0  0
  141.7340   72.4750  220.8640 C   0  0  0  0  0  0  0  0  0  0  0  0
  140.5910   73.1930  221.2330 C   0  0  0  0  0  0  0  0  0  0  0  0
  139.4620   72.5350  221.6040 N   0  0  0  0  0  0  0  0  0  0  0  0
  137.8400   71.9300  224.3370 H   0  0  0  0  0  0  0  0  0  0  0  0
  135.6637   71.3459  225.2138 H   0  0  0  0  0  0  0  0  0  0  0  0
  134.9680   71.4422  223.5568 H   0  0  0  0  0  0  0  0  0  0  0  0
  136.4297   68.5203  221.3349 H   0  0  0  0  0  0  0  0  0  0  0  0
  137.0709   70.1666  221.3179 H   0  0  0  0  0  0  0  0  0  0  0  0
  139.2899   69.4028  221.0702 H   0  0  0  0  0  0  0  0  0  0  0  0
  139.2710   68.0190  219.6310 H   0  0  0  0  0  0  0  0  0  0  0  0
  138.8786   66.8142  222.5871 H   0  0  0  0  0  0  0  0  0  0  0  0
  140.1989   67.9770  222.7434 H   0  0  0  0  0  0  0  0  0  0  0  0
  138.0838   67.8175  224.5714 H   0  0  0  0  0  0  0  0  0  0  0  0
  140.5595   72.5965  223.7428 H   0  0  0  0  0  0  0  0  0  0  0  0
  141.4671   72.3637  226.0544 H   0  0  0  0  0  0  0  0  0  0  0  0
  141.7107   71.0529  228.0883 H   0  0  0  0  0  0  0  0  0  0  0  0
  141.2384   68.9849  229.3983 H   0  0  0  0  0  0  0  0  0  0  0  0
  139.8488   67.1701  228.4113 H   0  0  0  0  0  0  0  0  0  0  0  0
  138.9014   67.4131  226.1204 H   0  0  0  0  0  0  0  0  0  0  0  0
  137.3991   75.1380  222.2594 H   0  0  0  0  0  0  0  0  0  0  0  0
  139.4484   76.4000  221.5895 H   0  0  0  0  0  0  0  0  0  0  0  0
  141.7997   76.3807  220.8247 H   0  0  0  0  0  0  0  0  0  0  0  0
  143.7926   72.5912  220.1917 H   0  0  0  0  0  0  0  0  0  0  0  0
  141.7200   71.3751  220.8741 H   0  0  0  0  0  0  0  0  0  0  0  0
  1  2  2  0
  2  3  1  0
  3  4  1  0
  4  5  1  0
  5  6  2  0
  5  7  1  0
  7  8  1  0
  8  9  1  0
  9 10  1  0
  9 11  1  0
 11 12  1  0
 12 13  1  0
 13 14  2  0
 14 15  1  0
 15 16  2  0
 16 17  1  0
 17 18  2  0
 18 19  1  0
 19 20  2  0
 20 21  1  0
 21 22  2  0
  2 23  1  0
 23 24  2  0
 24 25  1  0
 25 26  2  0
 26 27  1  0
 27 28  2  0
 28 29  1  0
 28 30  1  0
 30 31  2  0
 31 32  1  0
 32 33  2  0
 12  7  1  0
 22 13  1  0
 33 23  1  0
 22 17  1  0
 32 26  1  0
  3 34  1  0
  4 35  1  0
  4 36  1  0
  8 37  1  0
  8 38  1  0
  9 39  1  6
 10 40  1  0
 11 41  1  0
 11 42  1  0
 12 43  1  1
 15 44  1  0
 16 45  1  0
 18 46  1  0
 19 47  1  0
 20 48  1  0
 21 49  1  0
 24 50  1  0
 25 51  1  0
 27 52  1  0
 30 53  1  0
 31 54  1  0
M  END
>  <UniqueID>  (69) 
28

>  <SMILES>  (69) 
O=C(NCC(=O)N1C[C@H](O)C[C@H]1c1nccc2ccccc12)c1ccc2cc(F)ccc2n1

>  <Energy>  (69) 
68.44888388834336

>  <Genealogy>  (69) 
O=C(NCC(=O)N1C[C@H](O)C[C@H]1c1nccc2ccccc12)c1ccc2cc(F)ccc2n1 (3D coordinates assigned)
O=C(NCC(=O)N1C[C@H](O)C[C@H]1c1nccc2ccccc12)c1ccc2cc(F)ccc2n1 (nonaromatic ring conformer: 68.44888388834336 kcal/mol)

>  <smiles>  (69) 
O=C(NCC(=O)N1C[C@H](O)C[C@H]1c1nccc2ccccc12)c1ccc2cc(F)ccc2n1

>  <score_type>  (69) 
oracle

>  <origin>  (69) 
autodockgpu

>  <m_score__min__energy>  (69) 
-9.3699999999999992

>  <m_primary>  (69) 
energy

>  <meeko>  (69) 
{"free_energy": -7.41, "intermolecular_energy": -9.2, "internal_energy": -3.13, "cluster_size": 4, "cluster_id": 5, "rank_in_cluster": 2}

>  <energy>  (69) 
-8.75

>  <cluster_rmsd>  (69) 
1.29

>  <rmsd>  (69) 
270.2

>  <cluster>  (69) 
1

$$$$
PTHZUPGKXGNJLI-NCDVCWAKNA-N
     RDKit          3D

 54 58  0  0  0  0  0  0  0  0999 V2000
  141.1710   71.3620  221.3900 O   0  0  0  0  0  0  0  0  0  0  0  0
  140.5390   71.9140  222.3330 C   0  0  0  0  0  0  0  0  0  0  0  0
  140.1370   73.2880  222.2170 N   0  0  0  0  0  0  0  0  0  0  0  0
  140.4450   74.1020  221.0430 C   0  0  0  0  0  0  0  0  0  0  0  0
  140.0420   75.5270  221.2880 C   0  0  0  0  0  0  0  0  0  0  0  0
  139.3280   75.7950  222.2920 O   0  0  0  0  0  0  0  0  0  0  0  0
  140.4780   76.5890  220.4170 N   0  0  0  0  0  0  0  0  0  0  0  0
  140.1080   76.6910  219.0130 C   0  0  0  0  0  0  0  0  0  0  0  0
  140.7560   77.9850  218.5170 C   0  0  2  0  0  0  0  0  0  0  0  0
  141.2680   77.8620  217.2120 O   0  0  0  0  0  0  0  0  0  0  0  0
  141.8430   78.3260  219.5410 C   0  0  0  0  0  0  0  0  0  0  0  0
  141.4090   77.6320  220.8360 C   0  0  1  0  0  0  0  0  0  0  0  0
  140.7400   78.6140  221.7830 C   0  0  0  0  0  0  0  0  0  0  0  0
  139.3760   78.6430  221.8290 N   0  0  0  0  0  0  0  0  0  0  0  0
  138.6870   79.4880  222.6350 C   0  0  0  0  0  0  0  0  0  0  0  0
  139.3660   80.3810  223.4580 C   0  0  0  0  0  0  0  0  0  0  0  0
  140.7650   80.4100  223.4360 C   0  0  0  0  0  0  0  0  0  0  0  0
  141.4630   81.3170  224.2480 C   0  0  0  0  0  0  0  0  0  0  0  0
  142.8570   81.3620  224.2140 C   0  0  0  0  0  0  0  0  0  0  0  0
  143.5650   80.5080  223.3700 C   0  0  0  0  0  0  0  0  0  0  0  0
  142.8860   79.5970  222.5560 C   0  0  0  0  0  0  0  0  0  0  0  0
  141.4760   79.5260  222.5820 C   0  0  0  0  0  0  0  0  0  0  0  0
  140.2250   71.1410  223.5550 C   0  0  0  0  0  0  0  0  0  0  0  0
  139.5160   69.9300  223.4850 C   0  0  0  0  0  0  0  0  0  0  0  0
  139.2380   69.2190  224.6540 C   0  0  0  0  0  0  0  0  0  0  0  0
  139.6670   69.7170  225.8910 C   0  0  0  0  0  0  0  0  0  0  0  0
  139.4050   69.0300  227.0850 C   0  0  0  0  0  0  0  0  0  0  0  0
  139.8470   69.5550  228.3040 C   0  0  0  0  0  0  0  0  0  0  0  0
  139.5940   68.8900  229.4590 F   0  0  0  0  0  0  0  0  0  0  0  0
  140.5500   70.7640  228.3360 C   0  0  0  0  0  0  0  0  0  0  0  0
  140.8150   71.4550  227.1490 C   0  0  0  0  0  0  0  0  0  0  0  0
  140.3770   70.9370  225.9250 C   0  0  0  0  0  0  0  0  0  0  0  0
  140.6320   71.6050  224.7690 N   0  0  0  0  0  0  0  0  0  0  0  0
  139.5010   73.6960  222.9400 H   0  0  0  0  0  0  0  0  0  0  0  0
  141.5257   74.0581  220.8423 H   0  0  0  0  0  0  0  0  0  0  0  0
  139.8894   73.7128  220.1771 H   0  0  0  0  0  0  0  0  0  0  0  0
  140.4918   75.8276  218.4498 H   0  0  0  0  0  0  0  0  0  0  0  0
  139.0165   76.7008  218.8765 H   0  0  0  0  0  0  0  0  0  0  0  0
  140.0154   78.7949  218.4425 H   0  0  0  0  0  0  0  0  0  0  0  0
  140.6650   77.2600  216.7020 H   0  0  0  0  0  0  0  0  0  0  0  0
  142.8196   77.9447  219.2079 H   0  0  0  0  0  0  0  0  0  0  0  0
  141.9547   79.4121  219.6748 H   0  0  0  0  0  0  0  0  0  0  0  0
  142.2668   77.2169  221.3854 H   0  0  0  0  0  0  0  0  0  0  0  0
  137.5872   79.4674  222.6382 H   0  0  0  0  0  0  0  0  0  0  0  0
  138.8077   81.0587  224.1206 H   0  0  0  0  0  0  0  0  0  0  0  0
  140.9090   81.9950  224.9138 H   0  0  0  0  0  0  0  0  0  0  0  0
  143.3987   82.0732  224.8549 H   0  0  0  0  0  0  0  0  0  0  0  0
  144.6639   80.5513  223.3444 H   0  0  0  0  0  0  0  0  0  0  0  0
  143.4541   78.9306  221.8903 H   0  0  0  0  0  0  0  0  0  0  0  0
  139.1807   69.5430  222.5115 H   0  0  0  0  0  0  0  0  0  0  0  0
  138.6836   68.2703  224.6038 H   0  0  0  0  0  0  0  0  0  0  0  0
  138.8524   68.0791  227.0631 H   0  0  0  0  0  0  0  0  0  0  0  0
  140.8953   71.1724  229.2972 H   0  0  0  0  0  0  0  0  0  0  0  0
  141.3677   72.4056  227.1777 H   0  0  0  0  0  0  0  0  0  0  0  0
  1  2  2  0
  2  3  1  0
  3  4  1  0
  4  5  1  0
  5  6  2  0
  5  7  1  0
  7  8  1  0
  8  9  1  0
  9 10  1  0
  9 11  1  0
 11 12  1  0
 12 13  1  0
 13 14  2  0
 14 15  1  0
 15 16  2  0
 16 17  1  0
 17 18  2  0
 18 19  1  0
 19 20  2  0
 20 21  1  0
 21 22  2  0
  2 23  1  0
 23 24  2  0
 24 25  1  0
 25 26  2  0
 26 27  1  0
 27 28  2  0
 28 29  1  0
 28 30  1  0
 30 31  2  0
 31 32  1  0
 32 33  2  0
 12  7  1  0
 22 13  1  0
 33 23  1  0
 22 17  1  0
 32 26  1  0
  3 34  1  0
  4 35  1  0
  4 36  1  0
  8 37  1  0
  8 38  1  0
  9 39  1  6
 10 40  1  0
 11 41  1  0
 11 42  1  0
 12 43  1  1
 15 44  1  0
 16 45  1  0
 18 46  1  0
 19 47  1  0
 20 48  1  0
 21 49  1  0
 24 50  1  0
 25 51  1  0
 27 52  1  0
 30 53  1  0
 31 54  1  0
M  END
>  <UniqueID>  (70) 
28

>  <SMILES>  (70) 
O=C(NCC(=O)N1C[C@H](O)C[C@H]1c1nccc2ccccc12)c1ccc2cc(F)ccc2n1

>  <Energy>  (70) 
68.44888388834336

>  <Genealogy>  (70) 
O=C(NCC(=O)N1C[C@H](O)C[C@H]1c1nccc2ccccc12)c1ccc2cc(F)ccc2n1 (3D coordinates assigned)
O=C(NCC(=O)N1C[C@H](O)C[C@H]1c1nccc2ccccc12)c1ccc2cc(F)ccc2n1 (nonaromatic ring conformer: 68.44888388834336 kcal/mol)

>  <smiles>  (70) 
O=C(NCC(=O)N1C[C@H](O)C[C@H]1c1nccc2ccccc12)c1ccc2cc(F)ccc2n1

>  <score_type>  (70) 
oracle

>  <origin>  (70) 
autodockgpu

>  <m_score__min__energy>  (70) 
-9.3699999999999992

>  <m_primary>  (70) 
energy

>  <meeko>  (70) 
{"free_energy": -8.89, "intermolecular_energy": -10.68, "internal_energy": -1.93, "cluster_size": 10, "cluster_id": 1, "rank_in_cluster": 8}

>  <energy>  (70) 
-8.72

>  <cluster_rmsd>  (70) 
1.25

>  <rmsd>  (70) 
269.99

>  <cluster>  (70) 
1

$$$$
PTHZUPGKXGNJLI-NCDVCWAKNA-N
     RDKit          3D

 54 58  0  0  0  0  0  0  0  0999 V2000
  141.0860   72.4080  221.6210 O   0  0  0  0  0  0  0  0  0  0  0  0
  140.1030   72.4910  222.4080 C   0  0  0  0  0  0  0  0  0  0  0  0
  139.1040   73.5020  222.2020 N   0  0  0  0  0  0  0  0  0  0  0  0
  139.1810   74.4740  221.1130 C   0  0  0  0  0  0  0  0  0  0  0  0
  140.3350   75.4060  221.3380 C   0  0  0  0  0  0  0  0  0  0  0  0
  141.0770   75.2270  222.3420 O   0  0  0  0  0  0  0  0  0  0  0  0
  140.6250   76.4770  220.4190 N   0  0  0  0  0  0  0  0  0  0  0  0
  140.1710   76.5050  219.0360 C   0  0  0  0  0  0  0  0  0  0  0  0
  140.6720   77.8360  218.4730 C   0  0  2  0  0  0  0  0  0  0  0  0
  141.1200   77.7210  217.1440 O   0  0  0  0  0  0  0  0  0  0  0  0
  141.7790   78.3010  219.4250 C   0  0  0  0  0  0  0  0  0  0  0  0
  141.4810   77.6090  220.7580 C   0  0  1  0  0  0  0  0  0  0  0  0
  140.7780   78.5550  221.7180 C   0  0  0  0  0  0  0  0  0  0  0  0
  139.4150   78.5350  221.7670 N   0  0  0  0  0  0  0  0  0  0  0  0
  138.6980   79.3460  222.5850 C   0  0  0  0  0  0  0  0  0  0  0  0
  139.3470   80.2520  223.4180 C   0  0  0  0  0  0  0  0  0  0  0  0
  140.7430   80.3300  223.3940 C   0  0  0  0  0  0  0  0  0  0  0  0
  141.4100   81.2520  224.2160 C   0  0  0  0  0  0  0  0  0  0  0  0
  142.8020   81.3460  224.1810 C   0  0  0  0  0  0  0  0  0  0  0  0
  143.5380   80.5280  223.3250 C   0  0  0  0  0  0  0  0  0  0  0  0
  142.8910   79.6040  222.5010 C   0  0  0  0  0  0  0  0  0  0  0  0
  141.4840   79.4830  222.5280 C   0  0  0  0  0  0  0  0  0  0  0  0
  139.9930   71.5480  223.5430 C   0  0  0  0  0  0  0  0  0  0  0  0
  139.3290   70.3170  223.4020 C   0  0  0  0  0  0  0  0  0  0  0  0
  139.2450   69.4450  224.4890 C   0  0  0  0  0  0  0  0  0  0  0  0
  139.8210   69.8010  225.7140 C   0  0  0  0  0  0  0  0  0  0  0  0
  139.7560   68.9500  226.8260 C   0  0  0  0  0  0  0  0  0  0  0  0
  140.3410   69.3360  228.0370 C   0  0  0  0  0  0  0  0  0  0  0  0
  140.2780   68.5120  229.1130 F   0  0  0  0  0  0  0  0  0  0  0  0
  140.9940   70.5690  228.1420 C   0  0  0  0  0  0  0  0  0  0  0  0
  141.0640   71.4230  227.0360 C   0  0  0  0  0  0  0  0  0  0  0  0
  140.4810   71.0450  225.8210 C   0  0  0  0  0  0  0  0  0  0  0  0
  140.5460   71.8730  224.7450 N   0  0  0  0  0  0  0  0  0  0  0  0
  138.2300   73.4800  222.7740 H   0  0  0  0  0  0  0  0  0  0  0  0
  139.3220   73.9430  220.1600 H   0  0  0  0  0  0  0  0  0  0  0  0
  138.2479   75.0556  221.0814 H   0  0  0  0  0  0  0  0  0  0  0  0
  140.5995   75.6628  218.4728 H   0  0  0  0  0  0  0  0  0  0  0  0
  139.0773   76.4143  218.9617 H   0  0  0  0  0  0  0  0  0  0  0  0
  139.8590   78.5752  218.4218 H   0  0  0  0  0  0  0  0  0  0  0  0
  141.9430   78.2680  217.0500 H   0  0  0  0  0  0  0  0  0  0  0  0
  142.7661   77.9981  219.0456 H   0  0  0  0  0  0  0  0  0  0  0  0
  141.8000   79.3961  219.5266 H   0  0  0  0  0  0  0  0  0  0  0  0
  142.4021   77.2873  221.2661 H   0  0  0  0  0  0  0  0  0  0  0  0
  137.5996   79.2870  222.5897 H   0  0  0  0  0  0  0  0  0  0  0  0
  138.7668   80.9015  224.0899 H   0  0  0  0  0  0  0  0  0  0  0  0
  140.8335   81.9026  224.8900 H   0  0  0  0  0  0  0  0  0  0  0  0
  143.3197   82.0673  224.8304 H   0  0  0  0  0  0  0  0  0  0  0  0
  144.6346   80.6107  223.2983 H   0  0  0  0  0  0  0  0  0  0  0  0
  143.4813   78.9663  221.8266 H   0  0  0  0  0  0  0  0  0  0  0  0
  138.8768   70.0416  222.4378 H   0  0  0  0  0  0  0  0  0  0  0  0
  138.7273   68.4803  224.3830 H   0  0  0  0  0  0  0  0  0  0  0  0
  139.2452   67.9790  226.7466 H   0  0  0  0  0  0  0  0  0  0  0  0
  141.4532   70.8675  229.0959 H   0  0  0  0  0  0  0  0  0  0  0  0
  141.5775   72.3920  227.1214 H   0  0  0  0  0  0  0  0  0  0  0  0
  1  2  2  0
  2  3  1  0
  3  4  1  0
  4  5  1  0
  5  6  2  0
  5  7  1  0
  7  8  1  0
  8  9  1  0
  9 10  1  0
  9 11  1  0
 11 12  1  0
 12 13  1  0
 13 14  2  0
 14 15  1  0
 15 16  2  0
 16 17  1  0
 17 18  2  0
 18 19  1  0
 19 20  2  0
 20 21  1  0
 21 22  2  0
  2 23  1  0
 23 24  2  0
 24 25  1  0
 25 26  2  0
 26 27  1  0
 27 28  2  0
 28 29  1  0
 28 30  1  0
 30 31  2  0
 31 32  1  0
 32 33  2  0
 12  7  1  0
 22 13  1  0
 33 23  1  0
 22 17  1  0
 32 26  1  0
  3 34  1  0
  4 35  1  0
  4 36  1  0
  8 37  1  0
  8 38  1  0
  9 39  1  6
 10 40  1  0
 11 41  1  0
 11 42  1  0
 12 43  1  1
 15 44  1  0
 16 45  1  0
 18 46  1  0
 19 47  1  0
 20 48  1  0
 21 49  1  0
 24 50  1  0
 25 51  1  0
 27 52  1  0
 30 53  1  0
 31 54  1  0
M  END
>  <UniqueID>  (71) 
28

>  <SMILES>  (71) 
O=C(NCC(=O)N1C[C@H](O)C[C@H]1c1nccc2ccccc12)c1ccc2cc(F)ccc2n1

>  <Energy>  (71) 
68.44888388834336

>  <Genealogy>  (71) 
O=C(NCC(=O)N1C[C@H](O)C[C@H]1c1nccc2ccccc12)c1ccc2cc(F)ccc2n1 (3D coordinates assigned)
O=C(NCC(=O)N1C[C@H](O)C[C@H]1c1nccc2ccccc12)c1ccc2cc(F)ccc2n1 (nonaromatic ring conformer: 68.44888388834336 kcal/mol)

>  <smiles>  (71) 
O=C(NCC(=O)N1C[C@H](O)C[C@H]1c1nccc2ccccc12)c1ccc2cc(F)ccc2n1

>  <score_type>  (71) 
oracle

>  <origin>  (71) 
autodockgpu

>  <m_score__min__energy>  (71) 
-9.3699999999999992

>  <m_primary>  (71) 
energy

>  <meeko>  (71) 
{"free_energy": -9.37, "intermolecular_energy": -11.16, "internal_energy": -1.39, "cluster_size": 10, "cluster_id": 1, "rank_in_cluster": 1}

>  <energy>  (71) 
-9.2

>  <cluster_rmsd>  (71) 
0.0

>  <rmsd>  (71) 
269.7

>  <cluster>  (71) 
2

$$$$
PTHZUPGKXGNJLI-NCDVCWAKNA-N
     RDKit          3D

 54 58  0  0  0  0  0  0  0  0999 V2000
  136.1990   72.2480  221.4970 O   0  0  0  0  0  0  0  0  0  0  0  0
  137.1290   72.4250  222.3320 C   0  0  0  0  0  0  0  0  0  0  0  0
  137.0130   71.8820  223.6570 N   0  0  0  0  0  0  0  0  0  0  0  0
  135.8390   71.1340  224.1030 C   0  0  0  0  0  0  0  0  0  0  0  0
  136.0930   69.6610  223.9800 C   0  0  0  0  0  0  0  0  0  0  0  0
  135.2970   68.8560  224.5360 O   0  0  0  0  0  0  0  0  0  0  0  0
  137.2080   69.1530  223.2210 N   0  0  0  0  0  0  0  0  0  0  0  0
  137.2530   69.1220  221.7670 C   0  0  0  0  0  0  0  0  0  0  0  0
  138.6280   68.5500  221.4170 C   0  0  2  0  0  0  0  0  0  0  0  0
  138.5810   67.6800  220.3130 O   0  0  0  0  0  0  0  0  0  0  0  0
  139.1260   67.8560  222.6880 C   0  0  0  0  0  0  0  0  0  0  0  0
  138.3770   68.5340  223.8390 C   0  0  1  0  0  0  0  0  0  0  0  0
  139.2490   69.5760  224.5190 C   0  0  0  0  0  0  0  0  0  0  0  0
  139.5730   70.7050  223.8250 N   0  0  0  0  0  0  0  0  0  0  0  0
  140.3520   71.6870  224.3420 C   0  0  0  0  0  0  0  0  0  0  0  0
  140.8640   71.5690  225.6310 C   0  0  0  0  0  0  0  0  0  0  0  0
  140.5820   70.4230  226.3810 C   0  0  0  0  0  0  0  0  0  0  0  0
  141.1060   70.2830  227.6750 C   0  0  0  0  0  0  0  0  0  0  0  0
  140.8420   69.1330  228.4200 C   0  0  0  0  0  0  0  0  0  0  0  0
  140.0600   68.1130  227.8800 C   0  0  0  0  0  0  0  0  0  0  0  0
  139.5280   68.2370  226.5940 C   0  0  0  0  0  0  0  0  0  0  0  0
  139.7720   69.3970  225.8260 C   0  0  0  0  0  0  0  0  0  0  0  0
  138.3270   73.1970  221.9400 C   0  0  0  0  0  0  0  0  0  0  0  0
  138.3170   74.6030  221.9410 C   0  0  0  0  0  0  0  0  0  0  0  0
  139.4660   75.3050  221.5720 C   0  0  0  0  0  0  0  0  0  0  0  0
  140.6210   74.6080  221.2010 C   0  0  0  0  0  0  0  0  0  0  0  0
  141.7920   75.2810  220.8240 C   0  0  0  0  0  0  0  0  0  0  0  0
  142.9300   74.5530  220.4580 C   0  0  0  0  0  0  0  0  0  0  0  0
  144.0610   75.2060  220.0930 F   0  0  0  0  0  0  0  0  0  0  0  0
  142.9030   73.1550  220.4680 C   0  0  0  0  0  0  0  0  0  0  0  0
  141.7390   72.4760  220.8440 C   0  0  0  0  0  0  0  0  0  0  0  0
  140.5970   73.1960  221.2110 C   0  0  0  0  0  0  0  0  0  0  0  0
  139.4640   72.5400  221.5760 N   0  0  0  0  0  0  0  0  0  0  0  0
  137.8400   71.9170  224.2960 H   0  0  0  0  0  0  0  0  0  0  0  0
  135.6273   71.3808  225.1538 H   0  0  0  0  0  0  0  0  0  0  0  0
  134.9775   71.4058  223.4754 H   0  0  0  0  0  0  0  0  0  0  0  0
  136.4552   68.4768  221.3706 H   0  0  0  0  0  0  0  0  0  0  0  0
  137.1014   70.1204  221.3309 H   0  0  0  0  0  0  0  0  0  0  0  0
  139.3202   69.3458  221.1048 H   0  0  0  0  0  0  0  0  0  0  0  0
  137.8560   67.0210  220.4730 H   0  0  0  0  0  0  0  0  0  0  0  0
  138.8929   66.7814  222.6567 H   0  0  0  0  0  0  0  0  0  0  0  0
  140.2167   67.9421  222.8016 H   0  0  0  0  0  0  0  0  0  0  0  0
  138.0944   67.8154  224.6225 H   0  0  0  0  0  0  0  0  0  0  0  0
  140.5801   72.5796  223.7410 H   0  0  0  0  0  0  0  0  0  0  0  0
  141.4855   72.3708  226.0562 H   0  0  0  0  0  0  0  0  0  0  0  0
  141.7274   71.0829  228.1039 H   0  0  0  0  0  0  0  0  0  0  0  0
  141.2519   69.0311  229.4357 H   0  0  0  0  0  0  0  0  0  0  0  0
  139.8608   67.2059  228.4694 H   0  0  0  0  0  0  0  0  0  0  0  0
  138.9145   67.4250  226.1765 H   0  0  0  0  0  0  0  0  0  0  0  0
  137.4068   75.1481  222.2316 H   0  0  0  0  0  0  0  0  0  0  0  0
  139.4632   76.4050  221.5730 H   0  0  0  0  0  0  0  0  0  0  0  0
  141.8162   76.3807  220.8159 H   0  0  0  0  0  0  0  0  0  0  0  0
  143.7999   72.5873  220.1793 H   0  0  0  0  0  0  0  0  0  0  0  0
  141.7217   71.3762  220.8511 H   0  0  0  0  0  0  0  0  0  0  0  0
  1  2  2  0
  2  3  1  0
  3  4  1  0
  4  5  1  0
  5  6  2  0
  5  7  1  0
  7  8  1  0
  8  9  1  0
  9 10  1  0
  9 11  1  0
 11 12  1  0
 12 13  1  0
 13 14  2  0
 14 15  1  0
 15 16  2  0
 16 17  1  0
 17 18  2  0
 18 19  1  0
 19 20  2  0
 20 21  1  0
 21 22  2  0
  2 23  1  0
 23 24  2  0
 24 25  1  0
 25 26  2  0
 26 27  1  0
 27 28  2  0
 28 29  1  0
 28 30  1  0
 30 31  2  0
 31 32  1  0
 32 33  2  0
 12  7  1  0
 22 13  1  0
 33 23  1  0
 22 17  1  0
 32 26  1  0
  3 34  1  0
  4 35  1  0
  4 36  1  0
  8 37  1  0
  8 38  1  0
  9 39  1  6
 10 40  1  0
 11 41  1  0
 11 42  1  0
 12 43  1  1
 15 44  1  0
 16 45  1  0
 18 46  1  0
 19 47  1  0
 20 48  1  0
 21 49  1  0
 24 50  1  0
 25 51  1  0
 27 52  1  0
 30 53  1  0
 31 54  1  0
M  END
>  <UniqueID>  (72) 
28

>  <SMILES>  (72) 
O=C(NCC(=O)N1C[C@H](O)C[C@H]1c1nccc2ccccc12)c1ccc2cc(F)ccc2n1

>  <Energy>  (72) 
68.44888388834336

>  <Genealogy>  (72) 
O=C(NCC(=O)N1C[C@H](O)C[C@H]1c1nccc2ccccc12)c1ccc2cc(F)ccc2n1 (3D coordinates assigned)
O=C(NCC(=O)N1C[C@H](O)C[C@H]1c1nccc2ccccc12)c1ccc2cc(F)ccc2n1 (nonaromatic ring conformer: 68.44888388834336 kcal/mol)

>  <smiles>  (72) 
O=C(NCC(=O)N1C[C@H](O)C[C@H]1c1nccc2ccccc12)c1ccc2cc(F)ccc2n1

>  <score_type>  (72) 
oracle

>  <origin>  (72) 
autodockgpu

>  <m_score__min__energy>  (72) 
-9.3699999999999992

>  <m_primary>  (72) 
energy

>  <meeko>  (72) 
{"free_energy": -7.39, "intermolecular_energy": -9.18, "internal_energy": -3.16, "cluster_size": 4, "cluster_id": 5, "rank_in_cluster": 4}

>  <energy>  (72) 
-8.75

>  <cluster_rmsd>  (72) 
0.0

>  <rmsd>  (72) 
269.64

>  <cluster>  (72) 
3

$$$$
PTHZUPGKXGNJLI-NCDVCWAKNA-N
     RDKit          3D

 54 58  0  0  0  0  0  0  0  0999 V2000
  138.0190   70.8460  221.8120 O   0  0  0  0  0  0  0  0  0  0  0  0
  138.7620   71.3080  222.7220 C   0  0  0  0  0  0  0  0  0  0  0  0
  139.2630   72.6500  222.6240 N   0  0  0  0  0  0  0  0  0  0  0  0
  138.9630   73.5210  221.4880 C   0  0  0  0  0  0  0  0  0  0  0  0
  139.9140   74.6820  221.4690 C   0  0  0  0  0  0  0  0  0  0  0  0
  140.8260   74.7380  222.3380 O   0  0  0  0  0  0  0  0  0  0  0  0
  139.8200   75.7120  220.4650 N   0  0  0  0  0  0  0  0  0  0  0  0
  139.0220   75.5940  219.2530 C   0  0  0  0  0  0  0  0  0  0  0  0
  139.1910   76.9280  218.5260 C   0  0  2  0  0  0  0  0  0  0  0  0
  139.2900   76.7700  217.1310 O   0  0  0  0  0  0  0  0  0  0  0  0
  140.4410   77.5770  219.1300 C   0  0  0  0  0  0  0  0  0  0  0  0
  140.5880   76.9510  220.5200 C   0  0  1  0  0  0  0  0  0  0  0  0
  140.0480   77.8800  221.5950 C   0  0  0  0  0  0  0  0  0  0  0  0
  138.7340   77.7710  221.9470 N   0  0  0  0  0  0  0  0  0  0  0  0
  138.1580   78.5580  222.8890 C   0  0  0  0  0  0  0  0  0  0  0  0
  138.9070   79.5330  223.5400 C   0  0  0  0  0  0  0  0  0  0  0  0
  140.2540   79.7040  223.2040 C   0  0  0  0  0  0  0  0  0  0  0  0
  141.0170   80.6950  223.8410 C   0  0  0  0  0  0  0  0  0  0  0  0
  142.3570   80.8820  223.4960 C   0  0  0  0  0  0  0  0  0  0  0  0
  142.9430   80.0870  222.5120 C   0  0  0  0  0  0  0  0  0  0  0  0
  142.1980   79.0940  221.8690 C   0  0  0  0  0  0  0  0  0  0  0  0
  140.8450   78.8800  222.2110 C   0  0  0  0  0  0  0  0  0  0  0  0
  139.1170   70.4580  223.8790 C   0  0  0  0  0  0  0  0  0  0  0  0
  138.8290   69.0820  223.8850 C   0  0  0  0  0  0  0  0  0  0  0  0
  139.1810   68.3040  224.9890 C   0  0  0  0  0  0  0  0  0  0  0  0
  139.8180   68.8970  226.0850 C   0  0  0  0  0  0  0  0  0  0  0  0
  140.1860   68.1450  227.2100 C   0  0  0  0  0  0  0  0  0  0  0  0
  140.8210   68.7680  228.2900 C   0  0  0  0  0  0  0  0  0  0  0  0
  141.1770   68.0410  229.3780 F   0  0  0  0  0  0  0  0  0  0  0  0
  141.0920   70.1400  228.2500 C   0  0  0  0  0  0  0  0  0  0  0  0
  140.7290   70.8970  227.1300 C   0  0  0  0  0  0  0  0  0  0  0  0
  140.0940   70.2810  226.0470 C   0  0  0  0  0  0  0  0  0  0  0  0
  139.7390   71.0130  224.9570 N   0  0  0  0  0  0  0  0  0  0  0  0
  139.7630   73.0690  223.4400 H   0  0  0  0  0  0  0  0  0  0  0  0
  139.0659   72.9500  220.5535 H   0  0  0  0  0  0  0  0  0  0  0  0
  137.9338   73.8976  221.5824 H   0  0  0  0  0  0  0  0  0  0  0  0
  139.3896   74.7661  218.6290 H   0  0  0  0  0  0  0  0  0  0  0  0
  137.9664   75.3802  219.4767 H   0  0  0  0  0  0  0  0  0  0  0  0
  138.3071   77.5680  218.6644 H   0  0  0  0  0  0  0  0  0  0  0  0
  140.1960   76.4210  216.9260 H   0  0  0  0  0  0  0  0  0  0  0  0
  141.3252   77.3584  218.5132 H   0  0  0  0  0  0  0  0  0  0  0  0
  140.3516   78.6722  219.1802 H   0  0  0  0  0  0  0  0  0  0  0  0
  141.6417   76.7671  220.7766 H   0  0  0  0  0  0  0  0  0  0  0  0
  137.0951   78.4251  223.1393 H   0  0  0  0  0  0  0  0  0  0  0  0
  138.4437   80.1642  224.3126 H   0  0  0  0  0  0  0  0  0  0  0  0
  140.5574   81.3269  224.6152 H   0  0  0  0  0  0  0  0  0  0  0  0
  142.9511   81.6577  224.0013 H   0  0  0  0  0  0  0  0  0  0  0  0
  143.9975   80.2419  222.2400 H   0  0  0  0  0  0  0  0  0  0  0  0
  142.6692   78.4751  221.0912 H   0  0  0  0  0  0  0  0  0  0  0  0
  138.3276   68.6198  223.0219 H   0  0  0  0  0  0  0  0  0  0  0  0
  138.9582   67.2268  224.9976 H   0  0  0  0  0  0  0  0  0  0  0  0
  139.9756   67.0658  227.2434 H   0  0  0  0  0  0  0  0  0  0  0  0
  141.5918   70.6253  229.1013 H   0  0  0  0  0  0  0  0  0  0  0  0
  140.9431   71.9756  227.1017 H   0  0  0  0  0  0  0  0  0  0  0  0
  1  2  2  0
  2  3  1  0
  3  4  1  0
  4  5  1  0
  5  6  2  0
  5  7  1  0
  7  8  1  0
  8  9  1  0
  9 10  1  0
  9 11  1  0
 11 12  1  0
 12 13  1  0
 13 14  2  0
 14 15  1  0
 15 16  2  0
 16 17  1  0
 17 18  2  0
 18 19  1  0
 19 20  2  0
 20 21  1  0
 21 22  2  0
  2 23  1  0
 23 24  2  0
 24 25  1  0
 25 26  2  0
 26 27  1  0
 27 28  2  0
 28 29  1  0
 28 30  1  0
 30 31  2  0
 31 32  1  0
 32 33  2  0
 12  7  1  0
 22 13  1  0
 33 23  1  0
 22 17  1  0
 32 26  1  0
  3 34  1  0
  4 35  1  0
  4 36  1  0
  8 37  1  0
  8 38  1  0
  9 39  1  6
 10 40  1  0
 11 41  1  0
 11 42  1  0
 12 43  1  1
 15 44  1  0
 16 45  1  0
 18 46  1  0
 19 47  1  0
 20 48  1  0
 21 49  1  0
 24 50  1  0
 25 51  1  0
 27 52  1  0
 30 53  1  0
 31 54  1  0
M  END
>  <UniqueID>  (73) 
28

>  <SMILES>  (73) 
O=C(NCC(=O)N1C[C@H](O)C[C@H]1c1nccc2ccccc12)c1ccc2cc(F)ccc2n1

>  <Energy>  (73) 
68.44888388834336

>  <Genealogy>  (73) 
O=C(NCC(=O)N1C[C@H](O)C[C@H]1c1nccc2ccccc12)c1ccc2cc(F)ccc2n1 (3D coordinates assigned)
O=C(NCC(=O)N1C[C@H](O)C[C@H]1c1nccc2ccccc12)c1ccc2cc(F)ccc2n1 (nonaromatic ring conformer: 68.44888388834336 kcal/mol)

>  <smiles>  (73) 
O=C(NCC(=O)N1C[C@H](O)C[C@H]1c1nccc2ccccc12)c1ccc2cc(F)ccc2n1

>  <score_type>  (73) 
oracle

>  <origin>  (73) 
autodockgpu

>  <m_score__min__energy>  (73) 
-9.3699999999999992

>  <m_primary>  (73) 
energy

>  <meeko>  (73) 
{"free_energy": -8.72, "intermolecular_energy": -10.51, "internal_energy": -2.12, "cluster_size": 10, "cluster_id": 1, "rank_in_cluster": 10}

>  <energy>  (73) 
-8.71

>  <cluster_rmsd>  (73) 
0.09

>  <rmsd>  (73) 
269.6

>  <cluster>  (73) 
3

$$$$
PTHZUPGKXGNJLI-NCDVCWAKNA-N
     RDKit          3D

 54 58  0  0  0  0  0  0  0  0999 V2000
  140.6280   77.5050  218.7140 O   0  0  0  0  0  0  0  0  0  0  0  0
  141.8900   77.4740  218.7430 C   0  0  0  0  0  0  0  0  0  0  0  0
  142.6340   78.7020  218.7960 N   0  0  0  0  0  0  0  0  0  0  0  0
  141.9900   80.0140  218.7990 C   0  0  0  0  0  0  0  0  0  0  0  0
  140.9530   80.0720  219.8830 C   0  0  0  0  0  0  0  0  0  0  0  0
  139.7410   80.2020  219.5600 O   0  0  0  0  0  0  0  0  0  0  0  0
  141.3140   79.9560  221.2730 N   0  0  0  0  0  0  0  0  0  0  0  0
  141.5470   81.0940  222.1500 C   0  0  0  0  0  0  0  0  0  0  0  0
  141.8530   80.4910  223.5220 C   0  0  2  0  0  0  0  0  0  0  0  0
  142.8650   81.1930  224.2020 O   0  0  0  0  0  0  0  0  0  0  0  0
  142.2300   79.0290  223.2610 C   0  0  0  0  0  0  0  0  0  0  0  0
  141.5680   78.6750  221.9250 C   0  0  1  0  0  0  0  0  0  0  0  0
  140.2750   77.9080  222.1440 C   0  0  0  0  0  0  0  0  0  0  0  0
  139.1740   78.5980  222.5610 N   0  0  0  0  0  0  0  0  0  0  0  0
  137.9780   78.0020  222.7920 C   0  0  0  0  0  0  0  0  0  0  0  0
  137.8320   76.6300  222.6100 C   0  0  0  0  0  0  0  0  0  0  0  0
  138.9330   75.8690  222.2040 C   0  0  0  0  0  0  0  0  0  0  0  0
  138.8050   74.4820  222.0340 C   0  0  0  0  0  0  0  0  0  0  0  0
  139.9060   73.7160  221.6460 C   0  0  0  0  0  0  0  0  0  0  0  0
  141.1410   74.3260  221.4310 C   0  0  0  0  0  0  0  0  0  0  0  0
  141.2860   75.7060  221.5940 C   0  0  0  0  0  0  0  0  0  0  0  0
  140.1830   76.5020  221.9740 C   0  0  0  0  0  0  0  0  0  0  0  0
  142.5910   76.1730  218.7130 C   0  0  0  0  0  0  0  0  0  0  0  0
  142.3000   75.2130  217.7280 C   0  0  0  0  0  0  0  0  0  0  0  0
  142.9820   73.9950  217.7230 C   0  0  0  0  0  0  0  0  0  0  0  0
  143.9520   73.7350  218.6970 C   0  0  0  0  0  0  0  0  0  0  0  0
  144.6560   72.5220  218.7210 C   0  0  0  0  0  0  0  0  0  0  0  0
  145.6200   72.2930  219.7100 C   0  0  0  0  0  0  0  0  0  0  0  0
  146.3000   71.1200  219.7320 F   0  0  0  0  0  0  0  0  0  0  0  0
  145.8840   73.2710  220.6750 C   0  0  0  0  0  0  0  0  0  0  0  0
  145.1860   74.4830  220.6570 C   0  0  0  0  0  0  0  0  0  0  0  0
  144.2210   74.7210  219.6720 C   0  0  0  0  0  0  0  0  0  0  0  0
  143.5400   75.8970  219.6510 N   0  0  0  0  0  0  0  0  0  0  0  0
  143.6670   78.6660  218.9540 H   0  0  0  0  0  0  0  0  0  0  0  0
  142.7474   80.7916  218.9769 H   0  0  0  0  0  0  0  0  0  0  0  0
  141.5060   80.1819  217.8256 H   0  0  0  0  0  0  0  0  0  0  0  0
  142.4004   81.6883  221.7914 H   0  0  0  0  0  0  0  0  0  0  0  0
  140.6798   81.7699  222.1835 H   0  0  0  0  0  0  0  0  0  0  0  0
  140.9803   80.5605  224.1880 H   0  0  0  0  0  0  0  0  0  0  0  0
  142.5840   82.1420  224.2750 H   0  0  0  0  0  0  0  0  0  0  0  0
  143.3223   78.9190  223.1913 H   0  0  0  0  0  0  0  0  0  0  0  0
  141.8955   78.3671  224.0734 H   0  0  0  0  0  0  0  0  0  0  0  0
  142.2076   78.0239  221.3111 H   0  0  0  0  0  0  0  0  0  0  0  0
  137.1202   78.6051  223.1244 H   0  0  0  0  0  0  0  0  0  0  0  0
  136.8586   76.1480  222.7840 H   0  0  0  0  0  0  0  0  0  0  0  0
  137.8334   73.9963  222.2071 H   0  0  0  0  0  0  0  0  0  0  0  0
  139.7988   72.6297  221.5098 H   0  0  0  0  0  0  0  0  0  0  0  0
  142.0066   73.7171  221.1312 H   0  0  0  0  0  0  0  0  0  0  0  0
  142.2662   76.1759  221.4252 H   0  0  0  0  0  0  0  0  0  0  0  0
  141.5371   75.4211  216.9634 H   0  0  0  0  0  0  0  0  0  0  0  0
  142.7571   73.2409  216.9545 H   0  0  0  0  0  0  0  0  0  0  0  0
  144.4508   71.7514  217.9633 H   0  0  0  0  0  0  0  0  0  0  0  0
  146.6425   73.0863  221.4499 H   0  0  0  0  0  0  0  0  0  0  0  0
  145.3958   75.2495  221.4176 H   0  0  0  0  0  0  0  0  0  0  0  0
  1  2  2  0
  2  3  1  0
  3  4  1  0
  4  5  1  0
  5  6  2  0
  5  7  1  0
  7  8  1  0
  8  9  1  0
  9 10  1  0
  9 11  1  0
 11 12  1  0
 12 13  1  0
 13 14  2  0
 14 15  1  0
 15 16  2  0
 16 17  1  0
 17 18  2  0
 18 19  1  0
 19 20  2  0
 20 21  1  0
 21 22  2  0
  2 23  1  0
 23 24  2  0
 24 25  1  0
 25 26  2  0
 26 27  1  0
 27 28  2  0
 28 29  1  0
 28 30  1  0
 30 31  2  0
 31 32  1  0
 32 33  2  0
 12  7  1  0
 22 13  1  0
 33 23  1  0
 22 17  1  0
 32 26  1  0
  3 34  1  0
  4 35  1  0
  4 36  1  0
  8 37  1  0
  8 38  1  0
  9 39  1  1
 10 40  1  0
 11 41  1  0
 11 42  1  0
 12 43  1  6
 15 44  1  0
 16 45  1  0
 18 46  1  0
 19 47  1  0
 20 48  1  0
 21 49  1  0
 24 50  1  0
 25 51  1  0
 27 52  1  0
 30 53  1  0
 31 54  1  0
M  END
>  <UniqueID>  (74) 
28

>  <SMILES>  (74) 
O=C(NCC(=O)N1C[C@H](O)C[C@H]1c1nccc2ccccc12)c1ccc2cc(F)ccc2n1

>  <Energy>  (74) 
68.44888388834336

>  <Genealogy>  (74) 
O=C(NCC(=O)N1C[C@H](O)C[C@H]1c1nccc2ccccc12)c1ccc2cc(F)ccc2n1 (3D coordinates assigned)
O=C(NCC(=O)N1C[C@H](O)C[C@H]1c1nccc2ccccc12)c1ccc2cc(F)ccc2n1 (nonaromatic ring conformer: 68.44888388834336 kcal/mol)

>  <smiles>  (74) 
O=C(NCC(=O)N1C[C@H](O)C[C@H]1c1nccc2ccccc12)c1ccc2cc(F)ccc2n1

>  <score_type>  (74) 
oracle

>  <origin>  (74) 
autodockgpu

>  <m_score__min__energy>  (74) 
-9.3699999999999992

>  <m_primary>  (74) 
energy

>  <meeko>  (74) 
{"free_energy": -7.09, "intermolecular_energy": -8.88, "internal_energy": -2.77, "cluster_size": 1, "cluster_id": 6, "rank_in_cluster": 1}

>  <energy>  (74) 
-8.69

>  <cluster_rmsd>  (74) 
0.08

>  <rmsd>  (74) 
269.6

>  <cluster>  (74) 
3

$$$$
PTHZUPGKXGNJLI-NCDVCWAKNA-N
     RDKit          3D

 54 58  0  0  0  0  0  0  0  0999 V2000
  139.8970   73.6170  222.4200 O   0  0  0  0  0  0  0  0  0  0  0  0
  140.1220   72.3870  222.2490 C   0  0  0  0  0  0  0  0  0  0  0  0
  140.4030   71.8880  220.9310 N   0  0  0  0  0  0  0  0  0  0  0  0
  140.4240   72.7490  219.7510 C   0  0  0  0  0  0  0  0  0  0  0  0
  141.6440   72.4580  218.9270 C   0  0  0  0  0  0  0  0  0  0  0  0
  141.5070   71.8700  217.8210 O   0  0  0  0  0  0  0  0  0  0  0  0
  142.9570   72.8620  219.3630 N   0  0  0  0  0  0  0  0  0  0  0  0
  144.1910   72.2270  218.9210 C   0  0  0  0  0  0  0  0  0  0  0  0
  145.3150   73.0100  219.6010 C   0  0  2  0  0  0  0  0  0  0  0  0
  146.3620   72.1770  220.0340 O   0  0  0  0  0  0  0  0  0  0  0  0
  144.6550   73.7670  220.7580 C   0  0  0  0  0  0  0  0  0  0  0  0
  143.1800   73.9000  220.3640 C   0  0  1  0  0  0  0  0  0  0  0  0
  142.8900   75.2790  219.7940 C   0  0  0  0  0  0  0  0  0  0  0  0
  143.5130   75.6470  218.6380 N   0  0  0  0  0  0  0  0  0  0  0  0
  143.3260   76.8580  218.0560 C   0  0  0  0  0  0  0  0  0  0  0  0
  142.4730   77.7900  218.6390 C   0  0  0  0  0  0  0  0  0  0  0  0
  141.8240   77.4740  219.8370 C   0  0  0  0  0  0  0  0  0  0  0  0
  140.9740   78.4120  220.4450 C   0  0  0  0  0  0  0  0  0  0  0  0
  140.3390   78.1080  221.6500 C   0  0  0  0  0  0  0  0  0  0  0  0
  140.5500   76.8720  222.2590 C   0  0  0  0  0  0  0  0  0  0  0  0
  141.3900   75.9260  221.6670 C   0  0  0  0  0  0  0  0  0  0  0  0
  142.0340   76.2070  220.4410 C   0  0  0  0  0  0  0  0  0  0  0  0
  140.0850   71.4680  223.4070 C   0  0  0  0  0  0  0  0  0  0  0  0
  139.5650   70.1680  223.2850 C   0  0  0  0  0  0  0  0  0  0  0  0
  139.5480   69.3200  224.3940 C   0  0  0  0  0  0  0  0  0  0  0  0
  140.0480   69.7690  225.6230 C   0  0  0  0  0  0  0  0  0  0  0  0
  140.0470   68.9440  226.7570 C   0  0  0  0  0  0  0  0  0  0  0  0
  140.5530   69.4240  227.9700 C   0  0  0  0  0  0  0  0  0  0  0  0
  140.5510   68.6260  229.0660 F   0  0  0  0  0  0  0  0  0  0  0  0
  141.0620   70.7240  228.0550 C   0  0  0  0  0  0  0  0  0  0  0  0
  141.0680   71.5530  226.9270 C   0  0  0  0  0  0  0  0  0  0  0  0
  140.5640   71.0810  225.7100 C   0  0  0  0  0  0  0  0  0  0  0  0
  140.5670   71.8820  224.6120 N   0  0  0  0  0  0  0  0  0  0  0  0
  140.7180   70.8980  220.8180 H   0  0  0  0  0  0  0  0  0  0  0  0
  139.5234   72.5625  219.1475 H   0  0  0  0  0  0  0  0  0  0  0  0
  140.4462   73.8011  220.0712 H   0  0  0  0  0  0  0  0  0  0  0  0
  144.2140   71.1720  219.2317 H   0  0  0  0  0  0  0  0  0  0  0  0
  144.2882   72.2388  217.8254 H   0  0  0  0  0  0  0  0  0  0  0  0
  145.7949   73.7052  218.8964 H   0  0  0  0  0  0  0  0  0  0  0  0
  146.1380   71.8500  220.9440 H   0  0  0  0  0  0  0  0  0  0  0  0
  144.7539   73.2003  221.6956 H   0  0  0  0  0  0  0  0  0  0  0  0
  145.1244   74.7472  220.9279 H   0  0  0  0  0  0  0  0  0  0  0  0
  142.5128   73.7825  221.2306 H   0  0  0  0  0  0  0  0  0  0  0  0
  143.8501   77.1039  217.1207 H   0  0  0  0  0  0  0  0  0  0  0  0
  142.3104   78.7675  218.1615 H   0  0  0  0  0  0  0  0  0  0  0  0
  140.8081   79.3900  219.9697 H   0  0  0  0  0  0  0  0  0  0  0  0
  139.6710   78.8449  222.1199 H   0  0  0  0  0  0  0  0  0  0  0  0
  140.0518   76.6402  223.2119 H   0  0  0  0  0  0  0  0  0  0  0  0
  141.5514   74.9553  222.1587 H   0  0  0  0  0  0  0  0  0  0  0  0
  139.1724   69.8196  222.3183 H   0  0  0  0  0  0  0  0  0  0  0  0
  139.1428   68.3014  224.3028 H   0  0  0  0  0  0  0  0  0  0  0  0
  139.6488   67.9206  226.6930 H   0  0  0  0  0  0  0  0  0  0  0  0
  141.4588   71.0961  229.0111 H   0  0  0  0  0  0  0  0  0  0  0  0
  141.4687   72.5750  226.9973 H   0  0  0  0  0  0  0  0  0  0  0  0
  1  2  2  0
  2  3  1  0
  3  4  1  0
  4  5  1  0
  5  6  2  0
  5  7  1  0
  7  8  1  0
  8  9  1  0
  9 10  1  0
  9 11  1  0
 11 12  1  0
 12 13  1  0
 13 14  2  0
 14 15  1  0
 15 16  2  0
 16 17  1  0
 17 18  2  0
 18 19  1  0
 19 20  2  0
 20 21  1  0
 21 22  2  0
  2 23  1  0
 23 24  2  0
 24 25  1  0
 25 26  2  0
 26 27  1  0
 27 28  2  0
 28 29  1  0
 28 30  1  0
 30 31  2  0
 31 32  1  0
 32 33  2  0
 12  7  1  0
 22 13  1  0
 33 23  1  0
 22 17  1  0
 32 26  1  0
  3 34  1  0
  4 35  1  0
  4 36  1  0
  8 37  1  0
  8 38  1  0
  9 39  1  6
 10 40  1  0
 11 41  1  0
 11 42  1  0
 12 43  1  1
 15 44  1  0
 16 45  1  0
 18 46  1  0
 19 47  1  0
 20 48  1  0
 21 49  1  0
 24 50  1  0
 25 51  1  0
 27 52  1  0
 30 53  1  0
 31 54  1  0
M  END
>  <UniqueID>  (75) 
28

>  <SMILES>  (75) 
O=C(NCC(=O)N1C[C@H](O)C[C@H]1c1nccc2ccccc12)c1ccc2cc(F)ccc2n1

>  <Energy>  (75) 
68.44888388834336

>  <Genealogy>  (75) 
O=C(NCC(=O)N1C[C@H](O)C[C@H]1c1nccc2ccccc12)c1ccc2cc(F)ccc2n1 (3D coordinates assigned)
O=C(NCC(=O)N1C[C@H](O)C[C@H]1c1nccc2ccccc12)c1ccc2cc(F)ccc2n1 (nonaromatic ring conformer: 68.44888388834336 kcal/mol)

>  <smiles>  (75) 
O=C(NCC(=O)N1C[C@H](O)C[C@H]1c1nccc2ccccc12)c1ccc2cc(F)ccc2n1

>  <score_type>  (75) 
oracle

>  <origin>  (75) 
autodockgpu

>  <m_score__min__energy>  (75) 
-9.3699999999999992

>  <m_primary>  (75) 
energy

>  <meeko>  (75) 
{"free_energy": -9.2, "intermolecular_energy": -10.99, "internal_energy": -1.81, "cluster_size": 1, "cluster_id": 2, "rank_in_cluster": 1}

>  <energy>  (75) 
-8.57

>  <cluster_rmsd>  (75) 
0.0

>  <rmsd>  (75) 
269.53

>  <cluster>  (75) 
4

$$$$
PTHZUPGKXGNJLI-NCDVCWAKNA-N
     RDKit          3D

 54 58  0  0  0  0  0  0  0  0999 V2000
  133.3350   70.1450  226.7350 O   0  0  0  0  0  0  0  0  0  0  0  0
  133.6680   71.2440  226.2120 C   0  0  0  0  0  0  0  0  0  0  0  0
  134.6250   71.2660  225.1400 N   0  0  0  0  0  0  0  0  0  0  0  0
  135.2600   70.0530  224.6270 C   0  0  0  0  0  0  0  0  0  0  0  0
  136.2920   70.4120  223.5980 C   0  0  0  0  0  0  0  0  0  0  0  0
  136.2540   71.5560  223.0700 O   0  0  0  0  0  0  0  0  0  0  0  0
  137.3340   69.4880  223.2270 N   0  0  0  0  0  0  0  0  0  0  0  0
  137.6080   69.0800  221.8570 C   0  0  0  0  0  0  0  0  0  0  0  0
  138.8110   68.1400  221.9480 C   0  0  2  0  0  0  0  0  0  0  0  0
  138.7100   67.0530  221.0610 O   0  0  0  0  0  0  0  0  0  0  0  0
  138.8840   67.6950  223.4120 C   0  0  0  0  0  0  0  0  0  0  0  0
  138.1700   68.7960  224.2040 C   0  0  1  0  0  0  0  0  0  0  0  0
  139.1700   69.7480  224.8370 C   0  0  0  0  0  0  0  0  0  0  0  0
  139.5400   70.8600  224.1380 N   0  0  0  0  0  0  0  0  0  0  0  0
  140.4310   71.7650  224.6140 C   0  0  0  0  0  0  0  0  0  0  0  0
  141.0170   71.5800  225.8630 C   0  0  0  0  0  0  0  0  0  0  0  0
  140.6910   70.4460  226.6140 C   0  0  0  0  0  0  0  0  0  0  0  0
  141.2880   70.2370  227.8670 C   0  0  0  0  0  0  0  0  0  0  0  0
  140.9800   69.0970  228.6120 C   0  0  0  0  0  0  0  0  0  0  0  0
  140.0810   68.1570  228.1120 C   0  0  0  0  0  0  0  0  0  0  0  0
  139.4760   68.3490  226.8680 C   0  0  0  0  0  0  0  0  0  0  0  0
  139.7640   69.5010  226.1020 C   0  0  0  0  0  0  0  0  0  0  0  0
  133.0750   72.5030  226.7130 C   0  0  0  0  0  0  0  0  0  0  0  0
  131.8810   72.4980  227.4540 C   0  0  0  0  0  0  0  0  0  0  0  0
  131.3470   73.7010  227.9180 C   0  0  0  0  0  0  0  0  0  0  0  0
  132.0030   74.9070  227.6440 C   0  0  0  0  0  0  0  0  0  0  0  0
  131.4950   76.1340  228.0950 C   0  0  0  0  0  0  0  0  0  0  0  0
  132.1750   77.3210  227.8020 C   0  0  0  0  0  0  0  0  0  0  0  0
  131.6840   78.5070  228.2390 F   0  0  0  0  0  0  0  0  0  0  0  0
  133.3620   77.2890  227.0620 C   0  0  0  0  0  0  0  0  0  0  0  0
  133.8750   76.0680  226.6090 C   0  0  0  0  0  0  0  0  0  0  0  0
  133.2010   74.8760  226.8970 C   0  0  0  0  0  0  0  0  0  0  0  0
  133.6960   73.6890  226.4590 N   0  0  0  0  0  0  0  0  0  0  0  0
  134.7940   72.1590  224.6250 H   0  0  0  0  0  0  0  0  0  0  0  0
  135.7434   69.5158  225.4563 H   0  0  0  0  0  0  0  0  0  0  0  0
  134.4951   69.4121  224.1642 H   0  0  0  0  0  0  0  0  0  0  0  0
  136.7404   68.5551  221.4306 H   0  0  0  0  0  0  0  0  0  0  0  0
  137.8104   69.9427  221.2052 H   0  0  0  0  0  0  0  0  0  0  0  0
  139.7362   68.6520  221.6449 H   0  0  0  0  0  0  0  0  0  0  0  0
  139.0560   66.2460  221.5250 H   0  0  0  0  0  0  0  0  0  0  0  0
  138.3738   66.7299  223.5475 H   0  0  0  0  0  0  0  0  0  0  0  0
  139.9222   67.5553  223.7475 H   0  0  0  0  0  0  0  0  0  0  0  0
  137.5755   68.3840  225.0327 H   0  0  0  0  0  0  0  0  0  0  0  0
  140.6913   72.6477  224.0114 H   0  0  0  0  0  0  0  0  0  0  0  0
  141.7304   72.3194  226.2560 H   0  0  0  0  0  0  0  0  0  0  0  0
  142.0014   70.9743  228.2637 H   0  0  0  0  0  0  0  0  0  0  0  0
  141.4478   68.9406  229.5952 H   0  0  0  0  0  0  0  0  0  0  0  0
  139.8464   67.2580  228.7009 H   0  0  0  0  0  0  0  0  0  0  0  0
  138.7706   67.5985  226.4819 H   0  0  0  0  0  0  0  0  0  0  0  0
  131.3686   71.5484  227.6677 H   0  0  0  0  0  0  0  0  0  0  0  0
  130.4123   73.7016  228.4980 H   0  0  0  0  0  0  0  0  0  0  0  0
  130.5629   76.1630  228.6785 H   0  0  0  0  0  0  0  0  0  0  0  0
  133.8932   78.2253  226.8357 H   0  0  0  0  0  0  0  0  0  0  0  0
  134.8079   76.0455  226.0266 H   0  0  0  0  0  0  0  0  0  0  0  0
  1  2  2  0
  2  3  1  0
  3  4  1  0
  4  5  1  0
  5  6  2  0
  5  7  1  0
  7  8  1  0
  8  9  1  0
  9 10  1  0
  9 11  1  0
 11 12  1  0
 12 13  1  0
 13 14  2  0
 14 15  1  0
 15 16  2  0
 16 17  1  0
 17 18  2  0
 18 19  1  0
 19 20  2  0
 20 21  1  0
 21 22  2  0
  2 23  1  0
 23 24  2  0
 24 25  1  0
 25 26  2  0
 26 27  1  0
 27 28  2  0
 28 29  1  0
 28 30  1  0
 30 31  2  0
 31 32  1  0
 32 33  2  0
 12  7  1  0
 22 13  1  0
 33 23  1  0
 22 17  1  0
 32 26  1  0
  3 34  1  0
  4 35  1  0
  4 36  1  0
  8 37  1  0
  8 38  1  0
  9 39  1  6
 10 40  1  0
 11 41  1  0
 11 42  1  0
 12 43  1  1
 15 44  1  0
 16 45  1  0
 18 46  1  0
 19 47  1  0
 20 48  1  0
 21 49  1  0
 24 50  1  0
 25 51  1  0
 27 52  1  0
 30 53  1  0
 31 54  1  0
M  END
>  <UniqueID>  (76) 
28

>  <SMILES>  (76) 
O=C(NCC(=O)N1C[C@H](O)C[C@H]1c1nccc2ccccc12)c1ccc2cc(F)ccc2n1

>  <Energy>  (76) 
68.44888388834336

>  <Genealogy>  (76) 
O=C(NCC(=O)N1C[C@H](O)C[C@H]1c1nccc2ccccc12)c1ccc2cc(F)ccc2n1 (3D coordinates assigned)
O=C(NCC(=O)N1C[C@H](O)C[C@H]1c1nccc2ccccc12)c1ccc2cc(F)ccc2n1 (nonaromatic ring conformer: 68.44888388834336 kcal/mol)

>  <smiles>  (76) 
O=C(NCC(=O)N1C[C@H](O)C[C@H]1c1nccc2ccccc12)c1ccc2cc(F)ccc2n1

>  <score_type>  (76) 
oracle

>  <origin>  (76) 
autodockgpu

>  <m_score__min__energy>  (76) 
-9.3699999999999992

>  <m_primary>  (76) 
energy

>  <meeko>  (76) 
{"free_energy": -8.57, "intermolecular_energy": -10.36, "internal_energy": -2.13, "cluster_size": 1, "cluster_id": 4, "rank_in_cluster": 1}

>  <energy>  (76) 
-7.41

>  <cluster_rmsd>  (76) 
0.0

>  <rmsd>  (76) 
268.88

>  <cluster>  (76) 
5

$$$$
PTHZUPGKXGNJLI-NCDVCWAKNA-N
     RDKit          3D

 54 58  0  0  0  0  0  0  0  0999 V2000
  136.1830   72.2750  221.5570 O   0  0  0  0  0  0  0  0  0  0  0  0
  137.1290   72.4520  222.3740 C   0  0  0  0  0  0  0  0  0  0  0  0
  137.0400   71.9090  223.7010 N   0  0  0  0  0  0  0  0  0  0  0  0
  135.8750   71.1600  224.1680 C   0  0  0  0  0  0  0  0  0  0  0  0
  136.0900   69.6910  223.9540 C   0  0  0  0  0  0  0  0  0  0  0  0
  135.2620   68.8750  224.4420 O   0  0  0  0  0  0  0  0  0  0  0  0
  137.2050   69.2010  223.1810 N   0  0  0  0  0  0  0  0  0  0  0  0
  137.2450   69.1970  221.7260 C   0  0  0  0  0  0  0  0  0  0  0  0
  138.6210   68.6380  221.3620 C   0  0  2  0  0  0  0  0  0  0  0  0
  138.5740   67.7870  220.2430 O   0  0  0  0  0  0  0  0  0  0  0  0
  139.1270   67.9230  222.6190 C   0  0  0  0  0  0  0  0  0  0  0  0
  138.3790   68.5780  223.7840 C   0  0  1  0  0  0  0  0  0  0  0  0
  139.2490   69.6110  224.4800 C   0  0  0  0  0  0  0  0  0  0  0  0
  139.5900   70.7400  223.7930 N   0  0  0  0  0  0  0  0  0  0  0  0
  140.3680   71.7160  224.3240 C   0  0  0  0  0  0  0  0  0  0  0  0
  140.8620   71.5900  225.6190 C   0  0  0  0  0  0  0  0  0  0  0  0
  140.5620   70.4430  226.3620 C   0  0  0  0  0  0  0  0  0  0  0  0
  141.0670   70.2960  227.6630 C   0  0  0  0  0  0  0  0  0  0  0  0
  140.7860   69.1440  228.4000 C   0  0  0  0  0  0  0  0  0  0  0  0
  140.0040   68.1320  227.8460 C   0  0  0  0  0  0  0  0  0  0  0  0
  139.4910   68.2630  226.5530 C   0  0  0  0  0  0  0  0  0  0  0  0
  139.7530   69.4250  225.7930 C   0  0  0  0  0  0  0  0  0  0  0  0
  138.3190   73.2260  221.9590 C   0  0  0  0  0  0  0  0  0  0  0  0
  138.2920   74.6300  221.9120 C   0  0  0  0  0  0  0  0  0  0  0  0
  139.4320   75.3340  221.5220 C   0  0  0  0  0  0  0  0  0  0  0  0
  140.5980   74.6390  221.1780 C   0  0  0  0  0  0  0  0  0  0  0  0
  141.7610   75.3140  220.7820 C   0  0  0  0  0  0  0  0  0  0  0  0
  142.9090   74.5890  220.4440 C   0  0  0  0  0  0  0  0  0  0  0  0
  144.0330   75.2420  220.0600 F   0  0  0  0  0  0  0  0  0  0  0  0
  142.9000   73.1910  220.5010 C   0  0  0  0  0  0  0  0  0  0  0  0
  141.7430   72.5110  220.8970 C   0  0  0  0  0  0  0  0  0  0  0  0
  140.5910   73.2280  221.2360 C   0  0  0  0  0  0  0  0  0  0  0  0
  139.4650   72.5710  221.6210 N   0  0  0  0  0  0  0  0  0  0  0  0
  137.8780   71.9440  224.3230 H   0  0  0  0  0  0  0  0  0  0  0  0
  135.7233   71.3536  225.2402 H   0  0  0  0  0  0  0  0  0  0  0  0
  134.9884   71.4814  223.6018 H   0  0  0  0  0  0  0  0  0  0  0  0
  136.4488   68.5554  221.3204 H   0  0  0  0  0  0  0  0  0  0  0  0
  137.0871   70.2024  221.3085 H   0  0  0  0  0  0  0  0  0  0  0  0
  139.3083   69.4429  221.0623 H   0  0  0  0  0  0  0  0  0  0  0  0
  138.0060   68.2180  219.5530 H   0  0  0  0  0  0  0  0  0  0  0  0
  138.8982   66.8482  222.5696 H   0  0  0  0  0  0  0  0  0  0  0  0
  140.2178   68.0109  222.7303 H   0  0  0  0  0  0  0  0  0  0  0  0
  138.1021   67.8452  224.5563 H   0  0  0  0  0  0  0  0  0  0  0  0
  140.6091   72.6095  223.7295 H   0  0  0  0  0  0  0  0  0  0  0  0
  141.4835   72.3860  226.0550 H   0  0  0  0  0  0  0  0  0  0  0  0
  141.6864   71.0911  228.1036 H   0  0  0  0  0  0  0  0  0  0  0  0
  141.1827   69.0348  229.4202 H   0  0  0  0  0  0  0  0  0  0  0  0
  139.7895   67.2249  228.4301 H   0  0  0  0  0  0  0  0  0  0  0  0
  138.8790   67.4560  226.1238 H   0  0  0  0  0  0  0  0  0  0  0  0
  137.3743   75.1730  222.1820 H   0  0  0  0  0  0  0  0  0  0  0  0
  139.4147   76.4332  221.4849 H   0  0  0  0  0  0  0  0  0  0  0  0
  141.7711   76.4130  220.7370 H   0  0  0  0  0  0  0  0  0  0  0  0
  143.8047   72.6251  220.2339 H   0  0  0  0  0  0  0  0  0  0  0  0
  141.7395   71.4119  220.9417 H   0  0  0  0  0  0  0  0  0  0  0  0
  1  2  2  0
  2  3  1  0
  3  4  1  0
  4  5  1  0
  5  6  2  0
  5  7  1  0
  7  8  1  0
  8  9  1  0
  9 10  1  0
  9 11  1  0
 11 12  1  0
 12 13  1  0
 13 14  2  0
 14 15  1  0
 15 16  2  0
 16 17  1  0
 17 18  2  0
 18 19  1  0
 19 20  2  0
 20 21  1  0
 21 22  2  0
  2 23  1  0
 23 24  2  0
 24 25  1  0
 25 26  2  0
 26 27  1  0
 27 28  2  0
 28 29  1  0
 28 30  1  0
 30 31  2  0
 31 32  1  0
 32 33  2  0
 12  7  1  0
 22 13  1  0
 33 23  1  0
 22 17  1  0
 32 26  1  0
  3 34  1  0
  4 35  1  0
  4 36  1  0
  8 37  1  0
  8 38  1  0
  9 39  1  6
 10 40  1  0
 11 41  1  0
 11 42  1  0
 12 43  1  1
 15 44  1  0
 16 45  1  0
 18 46  1  0
 19 47  1  0
 20 48  1  0
 21 49  1  0
 24 50  1  0
 25 51  1  0
 27 52  1  0
 30 53  1  0
 31 54  1  0
M  END
>  <UniqueID>  (77) 
28

>  <SMILES>  (77) 
O=C(NCC(=O)N1C[C@H](O)C[C@H]1c1nccc2ccccc12)c1ccc2cc(F)ccc2n1

>  <Energy>  (77) 
68.44888388834336

>  <Genealogy>  (77) 
O=C(NCC(=O)N1C[C@H](O)C[C@H]1c1nccc2ccccc12)c1ccc2cc(F)ccc2n1 (3D coordinates assigned)
O=C(NCC(=O)N1C[C@H](O)C[C@H]1c1nccc2ccccc12)c1ccc2cc(F)ccc2n1 (nonaromatic ring conformer: 68.44888388834336 kcal/mol)

>  <smiles>  (77) 
O=C(NCC(=O)N1C[C@H](O)C[C@H]1c1nccc2ccccc12)c1ccc2cc(F)ccc2n1

>  <score_type>  (77) 
oracle

>  <origin>  (77) 
autodockgpu

>  <m_score__min__energy>  (77) 
-9.3699999999999992

>  <m_primary>  (77) 
energy

>  <meeko>  (77) 
{"free_energy": -7.4, "intermolecular_energy": -9.18, "internal_energy": -3.15, "cluster_size": 4, "cluster_id": 5, "rank_in_cluster": 3}

>  <energy>  (77) 
-7.41

>  <cluster_rmsd>  (77) 
0.28

>  <rmsd>  (77) 
268.87

>  <cluster>  (77) 
5

$$$$
PTHZUPGKXGNJLI-NCDVCWAKNA-N
     RDKit          3D

 54 58  0  0  0  0  0  0  0  0999 V2000
  139.7480   71.5520  220.9260 O   0  0  0  0  0  0  0  0  0  0  0  0
  139.7280   72.0930  222.0660 C   0  0  0  0  0  0  0  0  0  0  0  0
  139.6910   73.5250  222.1780 N   0  0  0  0  0  0  0  0  0  0  0  0
  139.6950   74.4060  221.0120 C   0  0  0  0  0  0  0  0  0  0  0  0
  140.6660   75.5310  221.2230 C   0  0  0  0  0  0  0  0  0  0  0  0
  140.7600   76.0480  222.3680 O   0  0  0  0  0  0  0  0  0  0  0  0
  141.5060   76.0060  220.1530 N   0  0  0  0  0  0  0  0  0  0  0  0
  141.6250   75.3480  218.8600 C   0  0  0  0  0  0  0  0  0  0  0  0
  142.5770   76.2250  218.0450 C   0  0  2  0  0  0  0  0  0  0  0  0
  143.4570   75.4670  217.2520 O   0  0  0  0  0  0  0  0  0  0  0  0
  143.3150   77.0980  219.0660 C   0  0  0  0  0  0  0  0  0  0  0  0
  142.3940   77.1570  220.2880 C   0  0  1  0  0  0  0  0  0  0  0  0
  141.6040   78.4550  220.3140 C   0  0  0  0  0  0  0  0  0  0  0  0
  140.8090   78.7520  219.2450 N   0  0  0  0  0  0  0  0  0  0  0  0
  140.0730   79.8890  219.1710 C   0  0  0  0  0  0  0  0  0  0  0  0
  140.1100   80.8160  220.2080 C   0  0  0  0  0  0  0  0  0  0  0  0
  140.9240   80.5730  221.3190 C   0  0  0  0  0  0  0  0  0  0  0  0
  140.9850   81.5080  222.3640 C   0  0  0  0  0  0  0  0  0  0  0  0
  141.8110   81.2790  223.4660 C   0  0  0  0  0  0  0  0  0  0  0  0
  142.5840   80.1200  223.5310 C   0  0  0  0  0  0  0  0  0  0  0  0
  142.5350   79.1780  222.5010 C   0  0  0  0  0  0  0  0  0  0  0  0
  141.6970   79.3840  221.3820 C   0  0  0  0  0  0  0  0  0  0  0  0
  139.7510   71.2460  223.2780 C   0  0  0  0  0  0  0  0  0  0  0  0
  139.2180   69.9460  223.2660 C   0  0  0  0  0  0  0  0  0  0  0  0
  139.2590   69.1680  224.4240 C   0  0  0  0  0  0  0  0  0  0  0  0
  139.8290   69.6860  225.5930 C   0  0  0  0  0  0  0  0  0  0  0  0
  139.8860   68.9320  226.7740 C   0  0  0  0  0  0  0  0  0  0  0  0
  140.4620   69.4810  227.9250 C   0  0  0  0  0  0  0  0  0  0  0  0
  140.5170   68.7510  229.0670 F   0  0  0  0  0  0  0  0  0  0  0  0
  140.9830   70.7790  227.9020 C   0  0  0  0  0  0  0  0  0  0  0  0
  140.9300   71.5370  226.7270 C   0  0  0  0  0  0  0  0  0  0  0  0
  140.3560   70.9960  225.5710 C   0  0  0  0  0  0  0  0  0  0  0  0
  140.3020   71.7290  224.4280 N   0  0  0  0  0  0  0  0  0  0  0  0
  139.5400   73.9590  223.1170 H   0  0  0  0  0  0  0  0  0  0  0  0
  139.9910   73.8313  220.1220 H   0  0  0  0  0  0  0  0  0  0  0  0
  138.6864   74.8211  220.8691 H   0  0  0  0  0  0  0  0  0  0  0  0
  142.0405   74.3365  218.9795 H   0  0  0  0  0  0  0  0  0  0  0  0
  140.6484   75.2354  218.3665 H   0  0  0  0  0  0  0  0  0  0  0  0
  142.0248   76.8431  217.3218 H   0  0  0  0  0  0  0  0  0  0  0  0
  144.3830   75.6550  217.5560 H   0  0  0  0  0  0  0  0  0  0  0  0
  144.2812   76.6451  219.3332 H   0  0  0  0  0  0  0  0  0  0  0  0
  143.5325   78.1000  218.6676 H   0  0  0  0  0  0  0  0  0  0  0  0
  142.9618   77.1277  221.2297 H   0  0  0  0  0  0  0  0  0  0  0  0
  139.4448   80.0788  218.2882 H   0  0  0  0  0  0  0  0  0  0  0  0
  139.5040   81.7325  220.1544 H   0  0  0  0  0  0  0  0  0  0  0  0
  140.3795   82.4250  222.3145 H   0  0  0  0  0  0  0  0  0  0  0  0
  141.8522   82.0135  224.2838 H   0  0  0  0  0  0  0  0  0  0  0  0
  143.2367   79.9466  224.3993 H   0  0  0  0  0  0  0  0  0  0  0  0
  143.1527   78.2698  222.5612 H   0  0  0  0  0  0  0  0  0  0  0  0
  138.7695   69.5424  222.3462 H   0  0  0  0  0  0  0  0  0  0  0  0
  138.8440   68.1493  224.4181 H   0  0  0  0  0  0  0  0  0  0  0  0
  139.4785   67.9105  226.7955 H   0  0  0  0  0  0  0  0  0  0  0  0
  141.4354   71.2048  228.8097 H   0  0  0  0  0  0  0  0  0  0  0  0
  141.3394   72.5579  226.7120 H   0  0  0  0  0  0  0  0  0  0  0  0
  1  2  2  0
  2  3  1  0
  3  4  1  0
  4  5  1  0
  5  6  2  0
  5  7  1  0
  7  8  1  0
  8  9  1  0
  9 10  1  0
  9 11  1  0
 11 12  1  0
 12 13  1  0
 13 14  2  0
 14 15  1  0
 15 16  2  0
 16 17  1  0
 17 18  2  0
 18 19  1  0
 19 20  2  0
 20 21  1  0
 21 22  2  0
  2 23  1  0
 23 24  2  0
 24 25  1  0
 25 26  2  0
 26 27  1  0
 27 28  2  0
 28 29  1  0
 28 30  1  0
 30 31  2  0
 31 32  1  0
 32 33  2  0
 12  7  1  0
 22 13  1  0
 33 23  1  0
 22 17  1  0
 32 26  1  0
  3 34  1  0
  4 35  1  0
  4 36  1  0
  8 37  1  0
  8 38  1  0
  9 39  1  6
 10 40  1  0
 11 41  1  0
 11 42  1  0
 12 43  1  1
 15 44  1  0
 16 45  1  0
 18 46  1  0
 19 47  1  0
 20 48  1  0
 21 49  1  0
 24 50  1  0
 25 51  1  0
 27 52  1  0
 30 53  1  0
 31 54  1  0
M  END
>  <UniqueID>  (78) 
28

>  <SMILES>  (78) 
O=C(NCC(=O)N1C[C@H](O)C[C@H]1c1nccc2ccccc12)c1ccc2cc(F)ccc2n1

>  <Energy>  (78) 
68.44888388834336

>  <Genealogy>  (78) 
O=C(NCC(=O)N1C[C@H](O)C[C@H]1c1nccc2ccccc12)c1ccc2cc(F)ccc2n1 (3D coordinates assigned)
O=C(NCC(=O)N1C[C@H](O)C[C@H]1c1nccc2ccccc12)c1ccc2cc(F)ccc2n1 (nonaromatic ring conformer: 68.44888388834336 kcal/mol)

>  <smiles>  (78) 
O=C(NCC(=O)N1C[C@H](O)C[C@H]1c1nccc2ccccc12)c1ccc2cc(F)ccc2n1

>  <score_type>  (78) 
oracle

>  <origin>  (78) 
autodockgpu

>  <m_score__min__energy>  (78) 
-9.3699999999999992

>  <m_primary>  (78) 
energy

>  <meeko>  (78) 
{"free_energy": -9.11, "intermolecular_energy": -10.9, "internal_energy": -1.78, "cluster_size": 10, "cluster_id": 1, "rank_in_cluster": 5}

>  <energy>  (78) 
-7.4

>  <cluster_rmsd>  (78) 
0.14

>  <rmsd>  (78) 
268.85

>  <cluster>  (78) 
5

$$$$
PTHZUPGKXGNJLI-NCDVCWAKNA-N
     RDKit          3D

 54 58  0  0  0  0  0  0  0  0999 V2000
  139.8250   70.7990  221.1330 O   0  0  0  0  0  0  0  0  0  0  0  0
  139.7900   71.3650  222.2600 C   0  0  0  0  0  0  0  0  0  0  0  0
  139.7770   72.7990  222.3400 N   0  0  0  0  0  0  0  0  0  0  0  0
  139.8220   73.6540  221.1560 C   0  0  0  0  0  0  0  0  0  0  0  0
  139.9560   75.0910  221.5670 C   0  0  0  0  0  0  0  0  0  0  0  0
  139.5720   75.4350  222.7180 O   0  0  0  0  0  0  0  0  0  0  0  0
  140.5360   76.0730  220.6860 N   0  0  0  0  0  0  0  0  0  0  0  0
  140.3640   76.0690  219.2400 C   0  0  0  0  0  0  0  0  0  0  0  0
  141.1120   77.3060  218.7400 C   0  0  2  0  0  0  0  0  0  0  0  0
  141.7920   77.0700  217.5320 O   0  0  0  0  0  0  0  0  0  0  0  0
  142.0590   77.7080  219.8760 C   0  0  0  0  0  0  0  0  0  0  0  0
  141.4330   77.1280  221.1480 C   0  0  1  0  0  0  0  0  0  0  0  0
  140.6700   78.1940  221.9150 C   0  0  0  0  0  0  0  0  0  0  0  0
  139.3060   78.1530  221.9020 N   0  0  0  0  0  0  0  0  0  0  0  0
  138.5370   79.0630  222.5490 C   0  0  0  0  0  0  0  0  0  0  0  0
  139.1300   80.1010  223.2610 C   0  0  0  0  0  0  0  0  0  0  0  0
  140.5250   80.2050  223.2910 C   0  0  0  0  0  0  0  0  0  0  0  0
  141.1360   81.2570  223.9920 C   0  0  0  0  0  0  0  0  0  0  0  0
  142.5270   81.3750  224.0090 C   0  0  0  0  0  0  0  0  0  0  0  0
  143.3160   80.4520  223.3250 C   0  0  0  0  0  0  0  0  0  0  0  0
  142.7240   79.3980  222.6250 C   0  0  0  0  0  0  0  0  0  0  0  0
  141.3200   79.2510  222.6040 C   0  0  0  0  0  0  0  0  0  0  0  0
  139.7710   70.5450  223.4910 C   0  0  0  0  0  0  0  0  0  0  0  0
  139.2050   69.2580  223.4970 C   0  0  0  0  0  0  0  0  0  0  0  0
  139.2060   68.5050  224.6720 C   0  0  0  0  0  0  0  0  0  0  0  0
  139.7690   69.0340  225.8390 C   0  0  0  0  0  0  0  0  0  0  0  0
  139.7870   68.3050  227.0370 C   0  0  0  0  0  0  0  0  0  0  0  0
  140.3570   68.8640  228.1870 C   0  0  0  0  0  0  0  0  0  0  0  0
  140.3740   68.1590  229.3450 F   0  0  0  0  0  0  0  0  0  0  0  0
  140.9100   70.1480  228.1440 C   0  0  0  0  0  0  0  0  0  0  0  0
  140.8970   70.8810  226.9520 C   0  0  0  0  0  0  0  0  0  0  0  0
  140.3290   70.3300  225.7980 C   0  0  0  0  0  0  0  0  0  0  0  0
  140.3140   71.0390  224.6390 N   0  0  0  0  0  0  0  0  0  0  0  0
  139.6140   73.2560  223.2660 H   0  0  0  0  0  0  0  0  0  0  0  0
  140.6842   73.3707  220.5344 H   0  0  0  0  0  0  0  0  0  0  0  0
  138.8918   73.5271  220.5827 H   0  0  0  0  0  0  0  0  0  0  0  0
  140.7948   75.1559  218.8035 H   0  0  0  0  0  0  0  0  0  0  0  0
  139.3021   76.0889  218.9537 H   0  0  0  0  0  0  0  0  0  0  0  0
  140.4130   78.1212  218.5014 H   0  0  0  0  0  0  0  0  0  0  0  0
  142.5260   77.7340  217.4590 H   0  0  0  0  0  0  0  0  0  0  0  0
  143.0604   77.2836  219.7113 H   0  0  0  0  0  0  0  0  0  0  0  0
  142.1825   78.7991  219.9403 H   0  0  0  0  0  0  0  0  0  0  0  0
  142.1963   76.7423  221.8399 H   0  0  0  0  0  0  0  0  0  0  0  0
  137.4408   78.9805  222.5109 H   0  0  0  0  0  0  0  0  0  0  0  0
  138.5075   80.8335  223.7957 H   0  0  0  0  0  0  0  0  0  0  0  0
  140.5169   81.9904  224.5294 H   0  0  0  0  0  0  0  0  0  0  0  0
  143.0012   82.1982  224.5634 H   0  0  0  0  0  0  0  0  0  0  0  0
  144.4112   80.5541  223.3364 H   0  0  0  0  0  0  0  0  0  0  0  0
  143.3565   78.6772  222.0861 H   0  0  0  0  0  0  0  0  0  0  0  0
  138.7626   68.8458  222.5781 H   0  0  0  0  0  0  0  0  0  0  0  0
  138.7650   67.4973  224.6809 H   0  0  0  0  0  0  0  0  0  0  0  0
  139.3535   67.2946  227.0730 H   0  0  0  0  0  0  0  0  0  0  0  0
  141.3566   70.5831  229.0502 H   0  0  0  0  0  0  0  0  0  0  0  0
  141.3333   71.8903  226.9222 H   0  0  0  0  0  0  0  0  0  0  0  0
  1  2  2  0
  2  3  1  0
  3  4  1  0
  4  5  1  0
  5  6  2  0
  5  7  1  0
  7  8  1  0
  8  9  1  0
  9 10  1  0
  9 11  1  0
 11 12  1  0
 12 13  1  0
 13 14  2  0
 14 15  1  0
 15 16  2  0
 16 17  1  0
 17 18  2  0
 18 19  1  0
 19 20  2  0
 20 21  1  0
 21 22  2  0
  2 23  1  0
 23 24  2  0
 24 25  1  0
 25 26  2  0
 26 27  1  0
 27 28  2  0
 28 29  1  0
 28 30  1  0
 30 31  2  0
 31 32  1  0
 32 33  2  0
 12  7  1  0
 22 13  1  0
 33 23  1  0
 22 17  1  0
 32 26  1  0
  3 34  1  0
  4 35  1  0
  4 36  1  0
  8 37  1  0
  8 38  1  0
  9 39  1  6
 10 40  1  0
 11 41  1  0
 11 42  1  0
 12 43  1  1
 15 44  1  0
 16 45  1  0
 18 46  1  0
 19 47  1  0
 20 48  1  0
 21 49  1  0
 24 50  1  0
 25 51  1  0
 27 52  1  0
 30 53  1  0
 31 54  1  0
M  END
>  <UniqueID>  (79) 
28

>  <SMILES>  (79) 
O=C(NCC(=O)N1C[C@H](O)C[C@H]1c1nccc2ccccc12)c1ccc2cc(F)ccc2n1

>  <Energy>  (79) 
68.44888388834336

>  <Genealogy>  (79) 
O=C(NCC(=O)N1C[C@H](O)C[C@H]1c1nccc2ccccc12)c1ccc2cc(F)ccc2n1 (3D coordinates assigned)
O=C(NCC(=O)N1C[C@H](O)C[C@H]1c1nccc2ccccc12)c1ccc2cc(F)ccc2n1 (nonaromatic ring conformer: 68.44888388834336 kcal/mol)

>  <smiles>  (79) 
O=C(NCC(=O)N1C[C@H](O)C[C@H]1c1nccc2ccccc12)c1ccc2cc(F)ccc2n1

>  <score_type>  (79) 
oracle

>  <origin>  (79) 
autodockgpu

>  <m_score__min__energy>  (79) 
-9.3699999999999992

>  <m_primary>  (79) 
energy

>  <meeko>  (79) 
{"free_energy": -9.32, "intermolecular_energy": -11.11, "internal_energy": -1.95, "cluster_size": 10, "cluster_id": 1, "rank_in_cluster": 2}

>  <energy>  (79) 
-7.39

>  <cluster_rmsd>  (79) 
0.16

>  <rmsd>  (79) 
268.87

>  <cluster>  (79) 
5

$$$$
PTHZUPGKXGNJLI-NCDVCWAKNA-N
     RDKit          3D

 54 58  0  0  0  0  0  0  0  0999 V2000
  139.7060   73.8590  222.3500 O   0  0  0  0  0  0  0  0  0  0  0  0
  140.1970   72.7080  222.1840 C   0  0  0  0  0  0  0  0  0  0  0  0
  140.8110   72.3670  220.9310 N   0  0  0  0  0  0  0  0  0  0  0  0
  140.8810   73.3000  219.8080 C   0  0  0  0  0  0  0  0  0  0  0  0
  142.0460   74.2300  219.9870 C   0  0  0  0  0  0  0  0  0  0  0  0
  143.0320   73.8470  220.6720 O   0  0  0  0  0  0  0  0  0  0  0  0
  142.0660   75.5320  219.3710 N   0  0  0  0  0  0  0  0  0  0  0  0
  141.9360   75.7560  217.9380 C   0  0  0  0  0  0  0  0  0  0  0  0
  141.9680   77.2740  217.7610 C   0  0  2  0  0  0  0  0  0  0  0  0
  142.6900   77.6660  216.6180 O   0  0  0  0  0  0  0  0  0  0  0  0
  142.5730   77.8320  219.0530 C   0  0  0  0  0  0  0  0  0  0  0  0
  142.3070   76.7630  220.1180 C   0  0  1  0  0  0  0  0  0  0  0  0
  141.1030   77.1290  220.9690 C   0  0  0  0  0  0  0  0  0  0  0  0
  139.9530   76.4130  220.8080 N   0  0  0  0  0  0  0  0  0  0  0  0
  138.8240   76.6680  221.5150 C   0  0  0  0  0  0  0  0  0  0  0  0
  138.8000   77.7000  222.4480 C   0  0  0  0  0  0  0  0  0  0  0  0
  139.9450   78.4810  222.6400 C   0  0  0  0  0  0  0  0  0  0  0  0
  139.9300   79.5360  223.5650 C   0  0  0  0  0  0  0  0  0  0  0  0
  141.0640   80.3290  223.7460 C   0  0  0  0  0  0  0  0  0  0  0  0
  142.2170   80.0810  223.0030 C   0  0  0  0  0  0  0  0  0  0  0  0
  142.2500   79.0330  222.0790 C   0  0  0  0  0  0  0  0  0  0  0  0
  141.1180   78.2100  221.8880 C   0  0  0  0  0  0  0  0  0  0  0  0
  140.1280   71.7170  223.2800 C   0  0  0  0  0  0  0  0  0  0  0  0
  139.5920   70.4350  223.0660 C   0  0  0  0  0  0  0  0  0  0  0  0
  139.5450   69.5190  224.1180 C   0  0  0  0  0  0  0  0  0  0  0  0
  140.0300   69.8800  225.3810 C   0  0  0  0  0  0  0  0  0  0  0  0
  139.9980   68.9850  226.4590 C   0  0  0  0  0  0  0  0  0  0  0  0
  140.4910   69.3780  227.7080 C   0  0  0  0  0  0  0  0  0  0  0  0
  140.4600   68.5110  228.7510 F   0  0  0  0  0  0  0  0  0  0  0  0
  141.0180   70.6620  227.8850 C   0  0  0  0  0  0  0  0  0  0  0  0
  141.0540   71.5610  226.8120 C   0  0  0  0  0  0  0  0  0  0  0  0
  140.5630   71.1760  225.5600 C   0  0  0  0  0  0  0  0  0  0  0  0
  140.5950   72.0460  224.5170 N   0  0  0  0  0  0  0  0  0  0  0  0
  141.3320   71.4640  220.8470 H   0  0  0  0  0  0  0  0  0  0  0  0
  141.0056   72.7354  218.8722 H   0  0  0  0  0  0  0  0  0  0  0  0
  139.9520   73.8876  219.7674 H   0  0  0  0  0  0  0  0  0  0  0  0
  142.7719   75.2876  217.3977 H   0  0  0  0  0  0  0  0  0  0  0  0
  141.0108   75.3164  217.5371 H   0  0  0  0  0  0  0  0  0  0  0  0
  140.9569   77.6734  217.5932 H   0  0  0  0  0  0  0  0  0  0  0  0
  143.2270   78.4660  216.8550 H   0  0  0  0  0  0  0  0  0  0  0  0
  143.6541   77.9958  218.9330 H   0  0  0  0  0  0  0  0  0  0  0  0
  142.1328   78.8022  219.3266 H   0  0  0  0  0  0  0  0  0  0  0  0
  143.1520   76.6602  220.8148 H   0  0  0  0  0  0  0  0  0  0  0  0
  137.9243   76.0569  221.3503 H   0  0  0  0  0  0  0  0  0  0  0  0
  137.8883   77.9002  223.0299 H   0  0  0  0  0  0  0  0  0  0  0  0
  139.0207   79.7388  224.1499 H   0  0  0  0  0  0  0  0  0  0  0  0
  141.0479   81.1513  224.4764 H   0  0  0  0  0  0  0  0  0  0  0  0
  143.1057   80.7136  223.1447 H   0  0  0  0  0  0  0  0  0  0  0  0
  143.1643   78.8477  221.4961 H   0  0  0  0  0  0  0  0  0  0  0  0
  139.2110   70.1549  222.0728 H   0  0  0  0  0  0  0  0  0  0  0  0
  139.1274   68.5145  223.9551 H   0  0  0  0  0  0  0  0  0  0  0  0
  139.5856   67.9743  226.3232 H   0  0  0  0  0  0  0  0  0  0  0  0
  141.4048   70.9658  228.8689 H   0  0  0  0  0  0  0  0  0  0  0  0
  141.4684   72.5701  226.9536 H   0  0  0  0  0  0  0  0  0  0  0  0
  1  2  2  0
  2  3  1  0
  3  4  1  0
  4  5  1  0
  5  6  2  0
  5  7  1  0
  7  8  1  0
  8  9  1  0
  9 10  1  0
  9 11  1  0
 11 12  1  0
 12 13  1  0
 13 14  2  0
 14 15  1  0
 15 16  2  0
 16 17  1  0
 17 18  2  0
 18 19  1  0
 19 20  2  0
 20 21  1  0
 21 22  2  0
  2 23  1  0
 23 24  2  0
 24 25  1  0
 25 26  2  0
 26 27  1  0
 27 28  2  0
 28 29  1  0
 28 30  1  0
 30 31  2  0
 31 32  1  0
 32 33  2  0
 12  7  1  0
 22 13  1  0
 33 23  1  0
 22 17  1  0
 32 26  1  0
  3 34  1  0
  4 35  1  0
  4 36  1  0
  8 37  1  0
  8 38  1  0
  9 39  1  6
 10 40  1  0
 11 41  1  0
 11 42  1  0
 12 43  1  1
 15 44  1  0
 16 45  1  0
 18 46  1  0
 19 47  1  0
 20 48  1  0
 21 49  1  0
 24 50  1  0
 25 51  1  0
 27 52  1  0
 30 53  1  0
 31 54  1  0
M  END
>  <UniqueID>  (80) 
28

>  <SMILES>  (80) 
O=C(NCC(=O)N1C[C@H](O)C[C@H]1c1nccc2ccccc12)c1ccc2cc(F)ccc2n1

>  <Energy>  (80) 
68.44888388834336

>  <Genealogy>  (80) 
O=C(NCC(=O)N1C[C@H](O)C[C@H]1c1nccc2ccccc12)c1ccc2cc(F)ccc2n1 (3D coordinates assigned)
O=C(NCC(=O)N1C[C@H](O)C[C@H]1c1nccc2ccccc12)c1ccc2cc(F)ccc2n1 (nonaromatic ring conformer: 68.44888388834336 kcal/mol)

>  <smiles>  (80) 
O=C(NCC(=O)N1C[C@H](O)C[C@H]1c1nccc2ccccc12)c1ccc2cc(F)ccc2n1

>  <score_type>  (80) 
oracle

>  <origin>  (80) 
autodockgpu

>  <m_score__min__energy>  (80) 
-9.3699999999999992

>  <m_primary>  (80) 
energy

>  <meeko>  (80) 
{"free_energy": -9.08, "intermolecular_energy": -10.87, "internal_energy": -1.72, "cluster_size": 10, "cluster_id": 1, "rank_in_cluster": 6}

>  <energy>  (80) 
-7.09

>  <cluster_rmsd>  (80) 
0.0

>  <rmsd>  (80) 
269.82

>  <cluster>  (80) 
6

$$$$
