
     RDKit          3D

 48 51  0  0  0  0  0  0  0  0999 V2000
  143.2830   77.4100  219.3090 O   0  0  0  0  0  0  0  0  0  0  0  0
  142.4490   76.6670  219.8890 C   0  0  0  0  0  0  0  0  0  0  0  0
  142.8280   75.3550  220.1090 C   0  0  0  0  0  0  0  0  0  0  0  0
  144.0580   74.8610  219.7210 C   0  0  0  0  0  0  0  0  0  0  0  0
  144.4250   73.5420  219.9490 C   0  0  0  0  0  0  0  0  0  0  0  0
  145.7110   73.0880  219.5250 N   0  0  0  0  0  0  0  0  0  0  0  0
  146.7000   73.3980  220.2190 O   0  0  0  0  0  0  0  0  0  0  0  0
  145.8590   72.3310  218.3870 O   0  0  0  0  0  0  0  0  0  0  0  0
  143.5350   72.7180  220.5770 C   0  0  0  0  0  0  0  0  0  0  0  0
  142.3040   73.1510  220.9830 C   0  0  0  0  0  0  0  0  0  0  0  0
  141.9760   74.4700  220.7380 C   0  0  0  0  0  0  0  0  0  0  0  0
  140.7720   74.9720  221.1120 N   0  0  0  0  0  0  0  0  0  0  0  0
  140.4170   76.2620  220.8880 C   0  0  0  0  0  0  0  0  0  0  0  0
  139.0880   76.6520  221.3500 C   0  0  0  0  0  0  0  0  0  0  0  0
  138.8990   76.9130  222.6240 C   0  0  0  0  0  0  0  0  0  0  0  0
  138.5630   78.2760  223.0500 C   0  0  0  0  0  0  0  0  0  0  0  0
  137.4590   79.0310  222.7150 C   0  0  0  0  0  0  0  0  0  0  0  0
  137.5470   80.2640  223.3430 C   0  0  0  0  0  0  0  0  0  0  0  0
  138.7470   80.1930  224.0560 C   0  0  0  0  0  0  0  0  0  0  0  0
  139.2970   79.0320  223.8560 O   0  0  0  0  0  0  0  0  0  0  0  0
  141.2340   77.1400  220.2770 N   0  0  0  0  0  0  0  0  0  0  0  0
  140.8460   78.4960  220.0500 C   0  0  0  0  0  0  0  0  0  0  0  0
  140.9040   79.3910  221.2480 C   0  0  0  0  0  0  0  0  0  0  0  0
  141.3980   80.7740  220.9580 C   0  0  0  0  0  0  0  0  0  0  0  0
  141.4380   81.5690  222.2440 C   0  0  0  0  0  0  0  0  0  0  0  0
  142.2760   80.9830  223.2380 N   0  0  0  0  0  0  0  0  0  0  0  0
  142.8170   79.7020  222.8640 C   0  0  0  0  0  0  0  0  0  0  0  0
  141.8090   78.7660  222.2790 C   0  0  0  0  0  0  0  0  0  0  0  0
  144.7679   75.5328  219.2163 H   0  0  0  0  0  0  0  0  0  0  0  0
  143.8184   71.6714  220.7621 H   0  0  0  0  0  0  0  0  0  0  0  0
  141.5995   72.4731  221.4870 H   0  0  0  0  0  0  0  0  0  0  0  0
  138.2527   76.7267  220.6382 H   0  0  0  0  0  0  0  0  0  0  0  0
  138.9926   76.1103  223.3702 H   0  0  0  0  0  0  0  0  0  0  0  0
  136.6402   78.7072  222.0556 H   0  0  0  0  0  0  0  0  0  0  0  0
  136.8374   81.1030  223.2919 H   0  0  0  0  0  0  0  0  0  0  0  0
  139.1609   80.9933  224.6870 H   0  0  0  0  0  0  0  0  0  0  0  0
  141.5118   78.9150  219.2812 H   0  0  0  0  0  0  0  0  0  0  0  0
  139.7885   78.4616  219.7492 H   0  0  0  0  0  0  0  0  0  0  0  0
  139.8697   79.4940  221.6080 H   0  0  0  0  0  0  0  0  0  0  0  0
  142.4087   80.7206  220.5271 H   0  0  0  0  0  0  0  0  0  0  0  0
  140.7224   81.2645  220.2417 H   0  0  0  0  0  0  0  0  0  0  0  0
  141.8136   82.5783  222.0201 H   0  0  0  0  0  0  0  0  0  0  0  0
  140.4152   81.5905  222.6483 H   0  0  0  0  0  0  0  0  0  0  0  0
  143.0790   81.6190  223.4360 H   0  0  0  0  0  0  0  0  0  0  0  0
  143.6108   79.8651  222.1201 H   0  0  0  0  0  0  0  0  0  0  0  0
  143.1916   79.2324  223.7855 H   0  0  0  0  0  0  0  0  0  0  0  0
  142.3479   77.9329  221.8041 H   0  0  0  0  0  0  0  0  0  0  0  0
  141.1633   78.4415  223.1083 H   0  0  0  0  0  0  0  0  0  0  0  0
  1  2  2  0
  2  3  1  0
  3  4  2  0
  4  5  1  0
  5  6  1  0
  6  7  2  0
  6  8  1  0
  5  9  2  0
  9 10  1  0
 10 11  2  0
 11 12  1  0
 12 13  2  0
 13 14  1  0
 14 15  2  0
 15 16  1  0
 16 17  2  0
 17 18  1  0
 18 19  2  0
 19 20  1  0
 13 21  1  0
 21 22  1  0
 22 23  1  0
 23 24  1  0
 24 25  1  0
 25 26  1  0
 26 27  1  0
 27 28  1  0
 21  2  1  0
 28 23  1  0
 11  3  1  0
 20 16  1  0
  4 29  1  0
  9 30  1  0
 10 31  1  0
 14 32  1  0
 15 33  1  0
 17 34  1  0
 18 35  1  0
 19 36  1  0
 22 37  1  0
 22 38  1  0
 23 39  1  0
 24 40  1  0
 24 41  1  0
 25 42  1  0
 25 43  1  0
 26 44  1  0
 27 45  1  0
 27 46  1  0
 28 47  1  0
 28 48  1  0
M  CHG  2   6   1   8  -1
M  END
>  <smiles>  (1) 
O=c1c2cc([N+](=O)[O-])ccc2nc(/C=C/c2ccco2)n1CC1CCNCC1

>  <score_type>  (1) 
oracle

>  <origin>  (1) 
autodockgpu

>  <m_score__min__energy>  (1) 
-7.6299999999999999

>  <m_primary>  (1) 
energy

>  <meeko>  (1) 
{"free_energy": -6.78, "intermolecular_energy": -8.57, "internal_energy": -1.75, "cluster_size": 10, "cluster_id": 2, "rank_in_cluster": 7}

>  <energy>  (1) 
-7.63

>  <cluster_rmsd>  (1) 
0.0

>  <rmsd>  (1) 
272.35

>  <cluster>  (1) 
1

$$$$

     RDKit          3D

 48 51  0  0  0  0  0  0  0  0999 V2000
  143.3800   77.1410  219.3540 O   0  0  0  0  0  0  0  0  0  0  0  0
  142.5430   76.4210  219.9590 C   0  0  0  0  0  0  0  0  0  0  0  0
  142.8830   75.0940  220.1490 C   0  0  0  0  0  0  0  0  0  0  0  0
  144.0790   74.5620  219.7070 C   0  0  0  0  0  0  0  0  0  0  0  0
  144.4070   73.2280  219.9060 C   0  0  0  0  0  0  0  0  0  0  0  0
  145.6580   72.7330  219.4260 N   0  0  0  0  0  0  0  0  0  0  0  0
  146.6900   73.3700  219.7180 O   0  0  0  0  0  0  0  0  0  0  0  0
  145.7270   71.5920  218.6640 O   0  0  0  0  0  0  0  0  0  0  0  0
  143.5130   72.4280  220.5600 C   0  0  0  0  0  0  0  0  0  0  0  0
  142.3160   72.9000  221.0200 C   0  0  0  0  0  0  0  0  0  0  0  0
  142.0260   74.2320  220.8030 C   0  0  0  0  0  0  0  0  0  0  0  0
  140.8560   74.7720  221.2300 N   0  0  0  0  0  0  0  0  0  0  0  0
  140.5390   76.0760  221.0340 C   0  0  0  0  0  0  0  0  0  0  0  0
  139.2450   76.5070  221.5520 C   0  0  0  0  0  0  0  0  0  0  0  0
  139.1850   77.1080  222.7200 C   0  0  0  0  0  0  0  0  0  0  0  0
  138.6700   78.4790  222.8130 C   0  0  0  0  0  0  0  0  0  0  0  0
  138.8720   79.4040  223.8160 C   0  0  0  0  0  0  0  0  0  0  0  0
  138.1980   80.5720  223.4950 C   0  0  0  0  0  0  0  0  0  0  0  0
  137.5980   80.2870  222.2660 C   0  0  0  0  0  0  0  0  0  0  0  0
  137.8960   79.0720  221.9140 O   0  0  0  0  0  0  0  0  0  0  0  0
  141.3620   76.9320  220.4000 N   0  0  0  0  0  0  0  0  0  0  0  0
  141.0150   78.3030  220.2030 C   0  0  0  0  0  0  0  0  0  0  0  0
  141.8280   79.2910  220.9800 C   0  0  0  0  0  0  0  0  0  0  0  0
  141.9340   78.9840  222.4410 C   0  0  0  0  0  0  0  0  0  0  0  0
  142.7510   80.0620  223.1190 C   0  0  0  0  0  0  0  0  0  0  0  0
  142.1960   81.3660  222.9640 N   0  0  0  0  0  0  0  0  0  0  0  0
  141.0430   81.4110  222.1010 C   0  0  0  0  0  0  0  0  0  0  0  0
  141.2160   80.6580  220.8210 C   0  0  0  0  0  0  0  0  0  0  0  0
  144.7921   75.2146  219.1821 H   0  0  0  0  0  0  0  0  0  0  0  0
  143.7651   71.3695  220.7215 H   0  0  0  0  0  0  0  0  0  0  0  0
  141.6082   72.2415  221.5449 H   0  0  0  0  0  0  0  0  0  0  0  0
  138.3279   76.3308  220.9707 H   0  0  0  0  0  0  0  0  0  0  0  0
  139.5206   76.5835  223.6268 H   0  0  0  0  0  0  0  0  0  0  0  0
  139.4712   79.2411  224.7240 H   0  0  0  0  0  0  0  0  0  0  0  0
  138.1474   81.5062  224.0735 H   0  0  0  0  0  0  0  0  0  0  0  0
  136.9718   80.9818  221.6872 H   0  0  0  0  0  0  0  0  0  0  0  0
  141.1338   78.5325  219.1338 H   0  0  0  0  0  0  0  0  0  0  0  0
  139.9823   78.4087  220.5668 H   0  0  0  0  0  0  0  0  0  0  0  0
  142.8483   79.2417  220.5718 H   0  0  0  0  0  0  0  0  0  0  0  0
  140.9277   78.9520  222.8840 H   0  0  0  0  0  0  0  0  0  0  0  0
  142.4234   78.0085  222.5786 H   0  0  0  0  0  0  0  0  0  0  0  0
  142.8106   79.8324  224.1931 H   0  0  0  0  0  0  0  0  0  0  0  0
  143.7428   80.0694  222.6434 H   0  0  0  0  0  0  0  0  0  0  0  0
  141.9060   81.7350  223.8960 H   0  0  0  0  0  0  0  0  0  0  0  0
  140.1875   80.9814  222.6429 H   0  0  0  0  0  0  0  0  0  0  0  0
  140.8854   82.4660  221.8326 H   0  0  0  0  0  0  0  0  0  0  0  0
  140.2265   80.5397  220.3552 H   0  0  0  0  0  0  0  0  0  0  0  0
  141.9135   81.2439  220.2044 H   0  0  0  0  0  0  0  0  0  0  0  0
  1  2  2  0
  2  3  1  0
  3  4  2  0
  4  5  1  0
  5  6  1  0
  6  7  2  0
  6  8  1  0
  5  9  2  0
  9 10  1  0
 10 11  2  0
 11 12  1  0
 12 13  2  0
 13 14  1  0
 14 15  2  0
 15 16  1  0
 16 17  2  0
 17 18  1  0
 18 19  2  0
 19 20  1  0
 13 21  1  0
 21 22  1  0
 22 23  1  0
 23 24  1  0
 24 25  1  0
 25 26  1  0
 26 27  1  0
 27 28  1  0
 21  2  1  0
 28 23  1  0
 11  3  1  0
 20 16  1  0
  4 29  1  0
  9 30  1  0
 10 31  1  0
 14 32  1  0
 15 33  1  0
 17 34  1  0
 18 35  1  0
 19 36  1  0
 22 37  1  0
 22 38  1  0
 23 39  1  0
 24 40  1  0
 24 41  1  0
 25 42  1  0
 25 43  1  0
 26 44  1  0
 27 45  1  0
 27 46  1  0
 28 47  1  0
 28 48  1  0
M  CHG  2   6   1   8  -1
M  END
>  <smiles>  (2) 
O=c1c2cc([N+](=O)[O-])ccc2nc(/C=C/c2ccco2)n1CC1CCNCC1

>  <score_type>  (2) 
oracle

>  <origin>  (2) 
autodockgpu

>  <m_score__min__energy>  (2) 
-7.6299999999999999

>  <m_primary>  (2) 
energy

>  <meeko>  (2) 
{"free_energy": -6.82, "intermolecular_energy": -8.61, "internal_energy": -1.81, "cluster_size": 10, "cluster_id": 2, "rank_in_cluster": 5}

>  <energy>  (2) 
-7.28

>  <cluster_rmsd>  (2) 
0.65

>  <rmsd>  (2) 
272.34

>  <cluster>  (2) 
1

$$$$

     RDKit          3D

 48 51  0  0  0  0  0  0  0  0999 V2000
  143.3990   77.1430  219.3260 O   0  0  0  0  0  0  0  0  0  0  0  0
  142.5680   76.4050  219.9170 C   0  0  0  0  0  0  0  0  0  0  0  0
  142.9250   75.0800  220.0950 C   0  0  0  0  0  0  0  0  0  0  0  0
  144.1300   74.5690  219.6550 C   0  0  0  0  0  0  0  0  0  0  0  0
  144.4750   73.2380  219.8420 C   0  0  0  0  0  0  0  0  0  0  0  0
  145.7360   72.7660  219.3650 N   0  0  0  0  0  0  0  0  0  0  0  0
  146.3310   71.9020  220.0390 O   0  0  0  0  0  0  0  0  0  0  0  0
  146.2810   73.2460  218.1980 O   0  0  0  0  0  0  0  0  0  0  0  0
  143.5880   72.4190  220.4810 C   0  0  0  0  0  0  0  0  0  0  0  0
  142.3810   72.8700  220.9380 C   0  0  0  0  0  0  0  0  0  0  0  0
  142.0750   74.2000  220.7330 C   0  0  0  0  0  0  0  0  0  0  0  0
  140.8950   74.7190  221.1590 N   0  0  0  0  0  0  0  0  0  0  0  0
  140.5620   76.0220  220.9750 C   0  0  0  0  0  0  0  0  0  0  0  0
  139.2580   76.4300  221.4890 C   0  0  0  0  0  0  0  0  0  0  0  0
  139.1630   76.8780  222.7210 C   0  0  0  0  0  0  0  0  0  0  0  0
  138.7160   78.2540  222.9670 C   0  0  0  0  0  0  0  0  0  0  0  0
  137.6970   78.9470  222.3480 C   0  0  0  0  0  0  0  0  0  0  0  0
  137.6220   80.2200  222.8900 C   0  0  0  0  0  0  0  0  0  0  0  0
  138.6390   80.2380  223.8480 C   0  0  0  0  0  0  0  0  0  0  0  0
  139.2420   79.0860  223.8560 O   0  0  0  0  0  0  0  0  0  0  0  0
  141.3770   76.8950  220.3560 N   0  0  0  0  0  0  0  0  0  0  0  0
  141.0130   78.2640  220.1720 C   0  0  0  0  0  0  0  0  0  0  0  0
  141.8280   79.2560  220.9410 C   0  0  0  0  0  0  0  0  0  0  0  0
  141.9030   78.9810  222.4110 C   0  0  0  0  0  0  0  0  0  0  0  0
  142.7240   80.0600  223.0780 C   0  0  0  0  0  0  0  0  0  0  0  0
  142.1930   81.3700  222.8850 N   0  0  0  0  0  0  0  0  0  0  0  0
  141.0570   81.4120  222.0000 C   0  0  0  0  0  0  0  0  0  0  0  0
  141.2400   80.6290  220.7400 C   0  0  0  0  0  0  0  0  0  0  0  0
  144.8372   75.2367  219.1411 H   0  0  0  0  0  0  0  0  0  0  0  0
  143.8534   71.3624  220.6328 H   0  0  0  0  0  0  0  0  0  0  0  0
  141.6786   72.1966  221.4510 H   0  0  0  0  0  0  0  0  0  0  0  0
  138.3639   76.3632  220.8517 H   0  0  0  0  0  0  0  0  0  0  0  0
  139.4182   76.2224  223.5666 H   0  0  0  0  0  0  0  0  0  0  0  0
  137.0482   78.5526  221.5521 H   0  0  0  0  0  0  0  0  0  0  0  0
  136.9240   81.0285  222.6272 H   0  0  0  0  0  0  0  0  0  0  0  0
  138.8900   81.0923  224.4938 H   0  0  0  0  0  0  0  0  0  0  0  0
  141.1123   78.5003  219.1023 H   0  0  0  0  0  0  0  0  0  0  0  0
  139.9853   78.3572  220.5530 H   0  0  0  0  0  0  0  0  0  0  0  0
  142.8545   79.1811  220.5529 H   0  0  0  0  0  0  0  0  0  0  0  0
  140.8885   78.9751  222.8362 H   0  0  0  0  0  0  0  0  0  0  0  0
  142.3740   78.0014  222.5797 H   0  0  0  0  0  0  0  0  0  0  0  0
  142.7616   79.8535  224.1578 H   0  0  0  0  0  0  0  0  0  0  0  0
  143.7234   80.0413  222.6188 H   0  0  0  0  0  0  0  0  0  0  0  0
  141.8930   81.7640  223.8030 H   0  0  0  0  0  0  0  0  0  0  0  0
  140.1858   81.0070  222.5357 H   0  0  0  0  0  0  0  0  0  0  0  0
  140.9213   82.4630  221.7052 H   0  0  0  0  0  0  0  0  0  0  0  0
  140.2570   80.5155  220.2595 H   0  0  0  0  0  0  0  0  0  0  0  0
  141.9565   81.1904  220.1224 H   0  0  0  0  0  0  0  0  0  0  0  0
  1  2  2  0
  2  3  1  0
  3  4  2  0
  4  5  1  0
  5  6  1  0
  6  7  2  0
  6  8  1  0
  5  9  2  0
  9 10  1  0
 10 11  2  0
 11 12  1  0
 12 13  2  0
 13 14  1  0
 14 15  2  0
 15 16  1  0
 16 17  2  0
 17 18  1  0
 18 19  2  0
 19 20  1  0
 13 21  1  0
 21 22  1  0
 22 23  1  0
 23 24  1  0
 24 25  1  0
 25 26  1  0
 26 27  1  0
 27 28  1  0
 21  2  1  0
 28 23  1  0
 11  3  1  0
 20 16  1  0
  4 29  1  0
  9 30  1  0
 10 31  1  0
 14 32  1  0
 15 33  1  0
 17 34  1  0
 18 35  1  0
 19 36  1  0
 22 37  1  0
 22 38  1  0
 23 39  1  0
 24 40  1  0
 24 41  1  0
 25 42  1  0
 25 43  1  0
 26 44  1  0
 27 45  1  0
 27 46  1  0
 28 47  1  0
 28 48  1  0
M  CHG  2   6   1   8  -1
M  END
>  <smiles>  (3) 
O=c1c2cc([N+](=O)[O-])ccc2nc(/C=C/c2ccco2)n1CC1CCNCC1

>  <score_type>  (3) 
oracle

>  <origin>  (3) 
autodockgpu

>  <m_score__min__energy>  (3) 
-7.6299999999999999

>  <m_primary>  (3) 
energy

>  <meeko>  (3) 
{"free_energy": -6.8, "intermolecular_energy": -8.59, "internal_energy": -1.82, "cluster_size": 10, "cluster_id": 2, "rank_in_cluster": 6}

>  <energy>  (3) 
-7.16

>  <cluster_rmsd>  (3) 
0.0

>  <rmsd>  (3) 
272.47

>  <cluster>  (3) 
2

$$$$

     RDKit          3D

 48 51  0  0  0  0  0  0  0  0999 V2000
  142.6340   75.4370  219.1910 O   0  0  0  0  0  0  0  0  0  0  0  0
  141.8690   75.2660  220.1760 C   0  0  0  0  0  0  0  0  0  0  0  0
  141.4840   76.3980  220.8710 C   0  0  0  0  0  0  0  0  0  0  0  0
  141.9040   77.6660  220.5200 C   0  0  0  0  0  0  0  0  0  0  0  0
  141.5080   78.7930  221.2270 C   0  0  0  0  0  0  0  0  0  0  0  0
  141.9760   80.0790  220.8170 N   0  0  0  0  0  0  0  0  0  0  0  0
  142.1690   80.2710  219.6000 O   0  0  0  0  0  0  0  0  0  0  0  0
  142.2070   81.0770  221.7330 O   0  0  0  0  0  0  0  0  0  0  0  0
  140.6780   78.6300  222.2990 C   0  0  0  0  0  0  0  0  0  0  0  0
  140.2300   77.4000  222.6920 C   0  0  0  0  0  0  0  0  0  0  0  0
  140.6460   76.3040  221.9640 C   0  0  0  0  0  0  0  0  0  0  0  0
  140.2430   75.0510  222.2940 N   0  0  0  0  0  0  0  0  0  0  0  0
  140.6310   73.9520  221.6000 C   0  0  0  0  0  0  0  0  0  0  0  0
  140.1140   72.6740  222.0790 C   0  0  0  0  0  0  0  0  0  0  0  0
  140.9170   71.8500  222.7150 C   0  0  0  0  0  0  0  0  0  0  0  0
  140.5690   71.3810  224.0610 C   0  0  0  0  0  0  0  0  0  0  0  0
  139.6950   70.3760  224.4180 C   0  0  0  0  0  0  0  0  0  0  0  0
  139.6700   70.2700  225.8000 C   0  0  0  0  0  0  0  0  0  0  0  0
  140.5640   71.2540  226.2290 C   0  0  0  0  0  0  0  0  0  0  0  0
  141.0550   71.8680  225.1940 O   0  0  0  0  0  0  0  0  0  0  0  0
  141.4470   74.0230  220.5330 N   0  0  0  0  0  0  0  0  0  0  0  0
  141.8460   72.8570  219.8110 C   0  0  0  0  0  0  0  0  0  0  0  0
  143.3100   72.5470  219.8450 C   0  0  0  0  0  0  0  0  0  0  0  0
  144.1140   73.4780  220.6990 C   0  0  0  0  0  0  0  0  0  0  0  0
  145.5720   73.0830  220.6300 C   0  0  0  0  0  0  0  0  0  0  0  0
  146.0980   73.1090  219.3050 N   0  0  0  0  0  0  0  0  0  0  0  0
  145.1120   73.3880  218.2920 C   0  0  0  0  0  0  0  0  0  0  0  0
  143.8510   72.5990  218.4400 C   0  0  0  0  0  0  0  0  0  0  0  0
  142.5722   77.7864  219.6545 H   0  0  0  0  0  0  0  0  0  0  0  0
  140.3594   79.5179  222.8649 H   0  0  0  0  0  0  0  0  0  0  0  0
  139.5613   77.2877  223.5582 H   0  0  0  0  0  0  0  0  0  0  0  0
  139.0616   72.4026  221.9093 H   0  0  0  0  0  0  0  0  0  0  0  0
  141.8491   71.5124  222.2384 H   0  0  0  0  0  0  0  0  0  0  0  0
  139.1119   69.7582  223.7192 H   0  0  0  0  0  0  0  0  0  0  0  0
  139.0826   69.5730  226.4158 H   0  0  0  0  0  0  0  0  0  0  0  0
  140.8131   71.4744  227.2775 H   0  0  0  0  0  0  0  0  0  0  0  0
  141.3075   71.9960  220.2337 H   0  0  0  0  0  0  0  0  0  0  0  0
  141.6044   73.0574  218.7568 H   0  0  0  0  0  0  0  0  0  0  0  0
  143.4051   71.5462  220.2914 H   0  0  0  0  0  0  0  0  0  0  0  0
  143.9944   74.5085  220.3331 H   0  0  0  0  0  0  0  0  0  0  0  0
  143.7643   73.4189  221.7403 H   0  0  0  0  0  0  0  0  0  0  0  0
  146.1532   73.7807  221.2508 H   0  0  0  0  0  0  0  0  0  0  0  0
  145.6479   72.0470  220.9920 H   0  0  0  0  0  0  0  0  0  0  0  0
  146.8370   73.8420  219.2370 H   0  0  0  0  0  0  0  0  0  0  0  0
  144.8590   74.4574  218.3403 H   0  0  0  0  0  0  0  0  0  0  0  0
  145.5560   73.1020  217.3271 H   0  0  0  0  0  0  0  0  0  0  0  0
  143.0847   73.0507  217.7929 H   0  0  0  0  0  0  0  0  0  0  0  0
  144.0940   71.5636  218.1590 H   0  0  0  0  0  0  0  0  0  0  0  0
  1  2  2  0
  2  3  1  0
  3  4  2  0
  4  5  1  0
  5  6  1  0
  6  7  2  0
  6  8  1  0
  5  9  2  0
  9 10  1  0
 10 11  2  0
 11 12  1  0
 12 13  2  0
 13 14  1  0
 14 15  2  0
 15 16  1  0
 16 17  2  0
 17 18  1  0
 18 19  2  0
 19 20  1  0
 13 21  1  0
 21 22  1  0
 22 23  1  0
 23 24  1  0
 24 25  1  0
 25 26  1  0
 26 27  1  0
 27 28  1  0
 21  2  1  0
 28 23  1  0
 11  3  1  0
 20 16  1  0
  4 29  1  0
  9 30  1  0
 10 31  1  0
 14 32  1  0
 15 33  1  0
 17 34  1  0
 18 35  1  0
 19 36  1  0
 22 37  1  0
 22 38  1  0
 23 39  1  0
 24 40  1  0
 24 41  1  0
 25 42  1  0
 25 43  1  0
 26 44  1  0
 27 45  1  0
 27 46  1  0
 28 47  1  0
 28 48  1  0
M  CHG  2   6   1   8  -1
M  END
>  <smiles>  (4) 
O=c1c2cc([N+](=O)[O-])ccc2nc(/C=C/c2ccco2)n1CC1CCNCC1

>  <score_type>  (4) 
oracle

>  <origin>  (4) 
autodockgpu

>  <m_score__min__energy>  (4) 
-7.6299999999999999

>  <m_primary>  (4) 
energy

>  <meeko>  (4) 
{"free_energy": -7.28, "intermolecular_energy": -9.07, "internal_energy": -1.04, "cluster_size": 2, "cluster_id": 1, "rank_in_cluster": 2}

>  <energy>  (4) 
-6.91

>  <cluster_rmsd>  (4) 
1.92

>  <rmsd>  (4) 
272.74

>  <cluster>  (4) 
2

$$$$

     RDKit          3D

 48 51  0  0  0  0  0  0  0  0999 V2000
  143.4030   77.4440  219.0520 O   0  0  0  0  0  0  0  0  0  0  0  0
  142.5830   76.7660  219.7240 C   0  0  0  0  0  0  0  0  0  0  0  0
  142.9130   75.4430  219.9620 C   0  0  0  0  0  0  0  0  0  0  0  0
  144.0810   74.8730  219.4950 C   0  0  0  0  0  0  0  0  0  0  0  0
  144.3990   73.5450  219.7420 C   0  0  0  0  0  0  0  0  0  0  0  0
  145.6220   73.0100  219.2330 N   0  0  0  0  0  0  0  0  0  0  0  0
  146.6890   73.3930  219.7520 O   0  0  0  0  0  0  0  0  0  0  0  0
  145.6270   72.1000  218.2030 O   0  0  0  0  0  0  0  0  0  0  0  0
  143.5240   72.7900  220.4690 C   0  0  0  0  0  0  0  0  0  0  0  0
  142.3540   73.3010  220.9570 C   0  0  0  0  0  0  0  0  0  0  0  0
  142.0730   74.6260  220.6900 C   0  0  0  0  0  0  0  0  0  0  0  0
  140.9300   75.2030  221.1400 N   0  0  0  0  0  0  0  0  0  0  0  0
  140.6220   76.5020  220.8970 C   0  0  0  0  0  0  0  0  0  0  0  0
  139.3570   76.9770  221.4490 C   0  0  0  0  0  0  0  0  0  0  0  0
  139.2920   77.3120  222.7180 C   0  0  0  0  0  0  0  0  0  0  0  0
  138.7980   78.6400  223.1010 C   0  0  0  0  0  0  0  0  0  0  0  0
  137.7510   79.3530  222.5560 C   0  0  0  0  0  0  0  0  0  0  0  0
  137.6340   80.5630  223.2230 C   0  0  0  0  0  0  0  0  0  0  0  0
  138.6560   80.5220  224.1750 C   0  0  0  0  0  0  0  0  0  0  0  0
  139.2990   79.3980  224.0670 O   0  0  0  0  0  0  0  0  0  0  0  0
  141.4290   77.3140  220.1900 N   0  0  0  0  0  0  0  0  0  0  0  0
  141.0920   78.6810  219.9440 C   0  0  0  0  0  0  0  0  0  0  0  0
  141.8060   79.6830  220.7960 C   0  0  0  0  0  0  0  0  0  0  0  0
  141.9510   79.2770  222.2300 C   0  0  0  0  0  0  0  0  0  0  0  0
  142.6580   80.3770  222.9900 C   0  0  0  0  0  0  0  0  0  0  0  0
  141.9740   81.6270  222.9340 N   0  0  0  0  0  0  0  0  0  0  0  0
  140.8180   81.6210  222.0750 C   0  0  0  0  0  0  0  0  0  0  0  0
  141.0580   80.9900  220.7410 C   0  0  0  0  0  0  0  0  0  0  0  0
  144.7795   75.4896  218.9102 H   0  0  0  0  0  0  0  0  0  0  0  0
  143.7686   71.7362  220.6684 H   0  0  0  0  0  0  0  0  0  0  0  0
  141.6608   72.6785  221.5418 H   0  0  0  0  0  0  0  0  0  0  0  0
  138.4660   77.0539  220.8085 H   0  0  0  0  0  0  0  0  0  0  0  0
  139.6076   76.5977  223.4927 H   0  0  0  0  0  0  0  0  0  0  0  0
  137.1120   79.0163  221.7263 H   0  0  0  0  0  0  0  0  0  0  0  0
  136.9059   81.3680  223.0443 H   0  0  0  0  0  0  0  0  0  0  0  0
  138.8809   81.3165  224.9018 H   0  0  0  0  0  0  0  0  0  0  0  0
  141.3243   78.9035  218.8921 H   0  0  0  0  0  0  0  0  0  0  0  0
  140.0248   78.7788  220.1921 H   0  0  0  0  0  0  0  0  0  0  0  0
  142.8238   79.7681  220.3875 H   0  0  0  0  0  0  0  0  0  0  0  0
  140.9557   79.1090  222.6671 H   0  0  0  0  0  0  0  0  0  0  0  0
  142.5375   78.3485  222.2934 H   0  0  0  0  0  0  0  0  0  0  0  0
  142.7459   80.0734  224.0436 H   0  0  0  0  0  0  0  0  0  0  0  0
  143.6413   80.5207  222.5183 H   0  0  0  0  0  0  0  0  0  0  0  0
  141.6540   81.8920  223.8910 H   0  0  0  0  0  0  0  0  0  0  0  0
  140.0136   81.0667  222.5807 H   0  0  0  0  0  0  0  0  0  0  0  0
  140.5535   82.6723  221.8881 H   0  0  0  0  0  0  0  0  0  0  0  0
  140.0827   80.8084  220.2658 H   0  0  0  0  0  0  0  0  0  0  0  0
  141.6888   81.6889  220.1721 H   0  0  0  0  0  0  0  0  0  0  0  0
  1  2  2  0
  2  3  1  0
  3  4  2  0
  4  5  1  0
  5  6  1  0
  6  7  2  0
  6  8  1  0
  5  9  2  0
  9 10  1  0
 10 11  2  0
 11 12  1  0
 12 13  2  0
 13 14  1  0
 14 15  2  0
 15 16  1  0
 16 17  2  0
 17 18  1  0
 18 19  2  0
 19 20  1  0
 13 21  1  0
 21 22  1  0
 22 23  1  0
 23 24  1  0
 24 25  1  0
 25 26  1  0
 26 27  1  0
 27 28  1  0
 21  2  1  0
 28 23  1  0
 11  3  1  0
 20 16  1  0
  4 29  1  0
  9 30  1  0
 10 31  1  0
 14 32  1  0
 15 33  1  0
 17 34  1  0
 18 35  1  0
 19 36  1  0
 22 37  1  0
 22 38  1  0
 23 39  1  0
 24 40  1  0
 24 41  1  0
 25 42  1  0
 25 43  1  0
 26 44  1  0
 27 45  1  0
 27 46  1  0
 28 47  1  0
 28 48  1  0
M  CHG  2   6   1   8  -1
M  END
>  <smiles>  (5) 
O=c1c2cc([N+](=O)[O-])ccc2nc(/C=C/c2ccco2)n1CC1CCNCC1

>  <score_type>  (5) 
oracle

>  <origin>  (5) 
autodockgpu

>  <m_score__min__energy>  (5) 
-7.6299999999999999

>  <m_primary>  (5) 
energy

>  <meeko>  (5) 
{"free_energy": -6.83, "intermolecular_energy": -8.62, "internal_energy": -1.86, "cluster_size": 8, "cluster_id": 3, "rank_in_cluster": 2}

>  <energy>  (5) 
-6.91

>  <cluster_rmsd>  (5) 
1.8

>  <rmsd>  (5) 
272.66

>  <cluster>  (5) 
2

$$$$

     RDKit          3D

 48 51  0  0  0  0  0  0  0  0999 V2000
  143.3310   77.2240  219.3220 O   0  0  0  0  0  0  0  0  0  0  0  0
  142.4860   76.5100  219.9230 C   0  0  0  0  0  0  0  0  0  0  0  0
  142.8150   75.1790  220.1110 C   0  0  0  0  0  0  0  0  0  0  0  0
  144.0070   74.6380  219.6720 C   0  0  0  0  0  0  0  0  0  0  0  0
  144.3230   73.3010  219.8690 C   0  0  0  0  0  0  0  0  0  0  0  0
  145.5710   72.7970  219.3920 N   0  0  0  0  0  0  0  0  0  0  0  0
  145.5550   71.7790  218.6710 O   0  0  0  0  0  0  0  0  0  0  0  0
  146.7570   73.4110  219.7150 O   0  0  0  0  0  0  0  0  0  0  0  0
  143.4200   72.5070  220.5180 C   0  0  0  0  0  0  0  0  0  0  0  0
  142.2250   72.9880  220.9750 C   0  0  0  0  0  0  0  0  0  0  0  0
  141.9480   74.3230  220.7600 C   0  0  0  0  0  0  0  0  0  0  0  0
  140.7810   74.8720  221.1840 N   0  0  0  0  0  0  0  0  0  0  0  0
  140.4760   76.1800  220.9900 C   0  0  0  0  0  0  0  0  0  0  0  0
  139.1830   76.6200  221.5050 C   0  0  0  0  0  0  0  0  0  0  0  0
  139.1090   77.1240  222.7170 C   0  0  0  0  0  0  0  0  0  0  0  0
  138.6330   78.4980  222.9110 C   0  0  0  0  0  0  0  0  0  0  0  0
  139.0260   79.4140  223.8650 C   0  0  0  0  0  0  0  0  0  0  0  0
  138.3160   80.5900  223.6810 C   0  0  0  0  0  0  0  0  0  0  0  0
  137.4950   80.3190  222.5840 C   0  0  0  0  0  0  0  0  0  0  0  0
  137.7110   79.1040  222.1750 O   0  0  0  0  0  0  0  0  0  0  0  0
  141.3080   77.0290  220.3610 N   0  0  0  0  0  0  0  0  0  0  0  0
  140.9730   78.4040  220.1660 C   0  0  0  0  0  0  0  0  0  0  0  0
  141.7950   79.3840  220.9450 C   0  0  0  0  0  0  0  0  0  0  0  0
  141.9330   79.0500  222.3970 C   0  0  0  0  0  0  0  0  0  0  0  0
  142.7560   80.1210  223.0780 C   0  0  0  0  0  0  0  0  0  0  0  0
  142.1880   81.4240  222.9600 N   0  0  0  0  0  0  0  0  0  0  0  0
  141.0170   81.4750  222.1220 C   0  0  0  0  0  0  0  0  0  0  0  0
  141.1690   80.7490  220.8240 C   0  0  0  0  0  0  0  0  0  0  0  0
  144.7274   75.2856  219.1508 H   0  0  0  0  0  0  0  0  0  0  0  0
  143.6627   71.4461  220.6779 H   0  0  0  0  0  0  0  0  0  0  0  0
  141.5095   72.3345  221.4956 H   0  0  0  0  0  0  0  0  0  0  0  0
  138.2789   76.5307  220.8848 H   0  0  0  0  0  0  0  0  0  0  0  0
  139.4038   76.5159  223.5849 H   0  0  0  0  0  0  0  0  0  0  0  0
  139.7810   79.2392  224.6457 H   0  0  0  0  0  0  0  0  0  0  0  0
  138.3834   81.5206  224.2636 H   0  0  0  0  0  0  0  0  0  0  0  0
  136.7782   81.0231  222.1364 H   0  0  0  0  0  0  0  0  0  0  0  0
  141.0939   78.6341  219.0972 H   0  0  0  0  0  0  0  0  0  0  0  0
  139.9412   78.5183  220.5299 H   0  0  0  0  0  0  0  0  0  0  0  0
  142.8072   79.3510  220.5157 H   0  0  0  0  0  0  0  0  0  0  0  0
  140.9362   79.0021  222.8598 H   0  0  0  0  0  0  0  0  0  0  0  0
  142.4316   78.0756  222.5062 H   0  0  0  0  0  0  0  0  0  0  0  0
  142.8402   79.8714  224.1460 H   0  0  0  0  0  0  0  0  0  0  0  0
  143.7373   80.1452  222.5816 H   0  0  0  0  0  0  0  0  0  0  0  0
  141.9150   81.7720  223.9040 H   0  0  0  0  0  0  0  0  0  0  0  0
  140.1769   81.0271  222.6731 H   0  0  0  0  0  0  0  0  0  0  0  0
  140.8451   82.5336  221.8775 H   0  0  0  0  0  0  0  0  0  0  0  0
  140.1711   80.6316  220.3764 H   0  0  0  0  0  0  0  0  0  0  0  0
  141.8483   81.3525  220.2040 H   0  0  0  0  0  0  0  0  0  0  0  0
  1  2  2  0
  2  3  1  0
  3  4  2  0
  4  5  1  0
  5  6  1  0
  6  7  2  0
  6  8  1  0
  5  9  2  0
  9 10  1  0
 10 11  2  0
 11 12  1  0
 12 13  2  0
 13 14  1  0
 14 15  2  0
 15 16  1  0
 16 17  2  0
 17 18  1  0
 18 19  2  0
 19 20  1  0
 13 21  1  0
 21 22  1  0
 22 23  1  0
 23 24  1  0
 24 25  1  0
 25 26  1  0
 26 27  1  0
 27 28  1  0
 21  2  1  0
 28 23  1  0
 11  3  1  0
 20 16  1  0
  4 29  1  0
  9 30  1  0
 10 31  1  0
 14 32  1  0
 15 33  1  0
 17 34  1  0
 18 35  1  0
 19 36  1  0
 22 37  1  0
 22 38  1  0
 23 39  1  0
 24 40  1  0
 24 41  1  0
 25 42  1  0
 25 43  1  0
 26 44  1  0
 27 45  1  0
 27 46  1  0
 28 47  1  0
 28 48  1  0
M  CHG  2   6   1   8  -1
M  END
>  <smiles>  (6) 
O=c1c2cc([N+](=O)[O-])ccc2nc(/C=C/c2ccco2)n1CC1CCNCC1

>  <score_type>  (6) 
oracle

>  <origin>  (6) 
autodockgpu

>  <m_score__min__energy>  (6) 
-7.6299999999999999

>  <m_primary>  (6) 
energy

>  <meeko>  (6) 
{"free_energy": -6.77, "intermolecular_energy": -8.56, "internal_energy": -1.79, "cluster_size": 10, "cluster_id": 2, "rank_in_cluster": 9}

>  <energy>  (6) 
-6.85

>  <cluster_rmsd>  (6) 
1.93

>  <rmsd>  (6) 
272.74

>  <cluster>  (6) 
2

$$$$

     RDKit          3D

 48 51  0  0  0  0  0  0  0  0999 V2000
  143.2710   77.1090  219.4100 O   0  0  0  0  0  0  0  0  0  0  0  0
  142.5670   76.3330  220.1080 C   0  0  0  0  0  0  0  0  0  0  0  0
  142.9620   75.0080  220.1600 C   0  0  0  0  0  0  0  0  0  0  0  0
  144.0730   74.5370  219.4890 C   0  0  0  0  0  0  0  0  0  0  0  0
  144.4580   73.2050  219.5510 C   0  0  0  0  0  0  0  0  0  0  0  0
  145.6160   72.7740  218.8350 N   0  0  0  0  0  0  0  0  0  0  0  0
  146.6840   73.3910  219.0240 O   0  0  0  0  0  0  0  0  0  0  0  0
  145.5610   71.7140  217.9630 O   0  0  0  0  0  0  0  0  0  0  0  0
  143.7090   72.3450  220.3030 C   0  0  0  0  0  0  0  0  0  0  0  0
  142.6000   72.7560  220.9890 C   0  0  0  0  0  0  0  0  0  0  0  0
  142.2500   74.0880  220.9020 C   0  0  0  0  0  0  0  0  0  0  0  0
  141.1610   74.5690  221.5550 N   0  0  0  0  0  0  0  0  0  0  0  0
  140.7880   75.8720  221.4910 C   0  0  0  0  0  0  0  0  0  0  0  0
  139.5950   76.2360  222.2490 C   0  0  0  0  0  0  0  0  0  0  0  0
  138.6250   76.8900  221.6490 C   0  0  0  0  0  0  0  0  0  0  0  0
  138.2340   78.2210  222.1280 C   0  0  0  0  0  0  0  0  0  0  0  0
  137.4930   79.1820  221.4740 C   0  0  0  0  0  0  0  0  0  0  0  0
  137.3630   80.2900  222.2970 C   0  0  0  0  0  0  0  0  0  0  0  0
  138.0600   79.9320  223.4540 C   0  0  0  0  0  0  0  0  0  0  0  0
  138.5440   78.7340  223.3110 O   0  0  0  0  0  0  0  0  0  0  0  0
  141.4700   76.7840  220.7740 N   0  0  0  0  0  0  0  0  0  0  0  0
  141.0660   78.1530  220.7190 C   0  0  0  0  0  0  0  0  0  0  0  0
  141.8440   79.0890  221.5910 C   0  0  0  0  0  0  0  0  0  0  0  0
  141.6010   78.9070  223.0570 C   0  0  0  0  0  0  0  0  0  0  0  0
  142.4160   79.9220  223.8260 C   0  0  0  0  0  0  0  0  0  0  0  0
  142.1070   81.2700  223.4760 N   0  0  0  0  0  0  0  0  0  0  0  0
  141.1750   81.3890  222.3840 C   0  0  0  0  0  0  0  0  0  0  0  0
  141.4900   80.5060  221.2200 C   0  0  0  0  0  0  0  0  0  0  0  0
  144.6705   75.2380  218.8877 H   0  0  0  0  0  0  0  0  0  0  0  0
  144.0077   71.2878  220.3584 H   0  0  0  0  0  0  0  0  0  0  0  0
  142.0076   72.0497  221.5892 H   0  0  0  0  0  0  0  0  0  0  0  0
  139.5083   75.9658  223.3118 H   0  0  0  0  0  0  0  0  0  0  0  0
  138.1072   76.4401  220.7891 H   0  0  0  0  0  0  0  0  0  0  0  0
  137.0726   79.0853  220.4621 H   0  0  0  0  0  0  0  0  0  0  0  0
  136.8343   81.2317  222.0879 H   0  0  0  0  0  0  0  0  0  0  0  0
  138.1802   80.5646  224.3458 H   0  0  0  0  0  0  0  0  0  0  0  0
  141.1679   78.4951  219.6785 H   0  0  0  0  0  0  0  0  0  0  0  0
  140.0323   78.1787  221.0943 H   0  0  0  0  0  0  0  0  0  0  0  0
  142.9066   78.8646  221.4164 H   0  0  0  0  0  0  0  0  0  0  0  0
  140.5325   79.0529  223.2737 H   0  0  0  0  0  0  0  0  0  0  0  0
  141.8974   77.8911  223.3573 H   0  0  0  0  0  0  0  0  0  0  0  0
  142.2212   79.7859  224.9000 H   0  0  0  0  0  0  0  0  0  0  0  0
  143.4732   79.7522  223.5739 H   0  0  0  0  0  0  0  0  0  0  0  0
  141.6930   81.7580  224.2990 H   0  0  0  0  0  0  0  0  0  0  0  0
  140.1724   81.1292  222.7545 H   0  0  0  0  0  0  0  0  0  0  0  0
  141.2363   82.4265  222.0236 H   0  0  0  0  0  0  0  0  0  0  0  0
  140.6101   80.4793  220.5605 H   0  0  0  0  0  0  0  0  0  0  0  0
  142.3785   80.9341  220.7328 H   0  0  0  0  0  0  0  0  0  0  0  0
  1  2  2  0
  2  3  1  0
  3  4  2  0
  4  5  1  0
  5  6  1  0
  6  7  2  0
  6  8  1  0
  5  9  2  0
  9 10  1  0
 10 11  2  0
 11 12  1  0
 12 13  2  0
 13 14  1  0
 14 15  2  0
 15 16  1  0
 16 17  2  0
 17 18  1  0
 18 19  2  0
 19 20  1  0
 13 21  1  0
 21 22  1  0
 22 23  1  0
 23 24  1  0
 24 25  1  0
 25 26  1  0
 26 27  1  0
 27 28  1  0
 21  2  1  0
 28 23  1  0
 11  3  1  0
 20 16  1  0
  4 29  1  0
  9 30  1  0
 10 31  1  0
 14 32  1  0
 15 33  1  0
 17 34  1  0
 18 35  1  0
 19 36  1  0
 22 37  1  0
 22 38  1  0
 23 39  1  0
 24 40  1  0
 24 41  1  0
 25 42  1  0
 25 43  1  0
 26 44  1  0
 27 45  1  0
 27 46  1  0
 28 47  1  0
 28 48  1  0
M  CHG  2   6   1   8  -1
M  END
>  <smiles>  (7) 
O=c1c2cc([N+](=O)[O-])ccc2nc(/C=C/c2ccco2)n1CC1CCNCC1

>  <score_type>  (7) 
oracle

>  <origin>  (7) 
autodockgpu

>  <m_score__min__energy>  (7) 
-7.6299999999999999

>  <m_primary>  (7) 
energy

>  <meeko>  (7) 
{"free_energy": -6.91, "intermolecular_energy": -8.69, "internal_energy": -1.51, "cluster_size": 10, "cluster_id": 2, "rank_in_cluster": 3}

>  <energy>  (7) 
-6.82

>  <cluster_rmsd>  (7) 
1.97

>  <rmsd>  (7) 
272.7

>  <cluster>  (7) 
2

$$$$

     RDKit          3D

 48 51  0  0  0  0  0  0  0  0999 V2000
  142.7440   74.9330  219.2700 O   0  0  0  0  0  0  0  0  0  0  0  0
  141.9860   74.6980  220.2470 C   0  0  0  0  0  0  0  0  0  0  0  0
  141.4330   75.7930  220.8870 C   0  0  0  0  0  0  0  0  0  0  0  0
  141.6850   77.0920  220.4890 C   0  0  0  0  0  0  0  0  0  0  0  0
  141.1220   78.1810  221.1400 C   0  0  0  0  0  0  0  0  0  0  0  0
  141.4180   79.5010  220.6840 N   0  0  0  0  0  0  0  0  0  0  0  0
  141.0490   79.8210  219.5360 O   0  0  0  0  0  0  0  0  0  0  0  0
  142.0900   80.3960  221.4820 O   0  0  0  0  0  0  0  0  0  0  0  0
  140.2970   77.9480  222.2030 C   0  0  0  0  0  0  0  0  0  0  0  0
  140.0120   76.6850  222.6410 C   0  0  0  0  0  0  0  0  0  0  0  0
  140.5910   75.6280  221.9670 C   0  0  0  0  0  0  0  0  0  0  0  0
  140.3560   74.3460  222.3440 N   0  0  0  0  0  0  0  0  0  0  0  0
  140.9070   73.2840  221.7050 C   0  0  0  0  0  0  0  0  0  0  0  0
  140.5580   71.9670  222.2290 C   0  0  0  0  0  0  0  0  0  0  0  0
  139.6780   71.8720  223.2010 C   0  0  0  0  0  0  0  0  0  0  0  0
  140.0880   71.3550  224.5120 C   0  0  0  0  0  0  0  0  0  0  0  0
  139.6450   70.2230  225.1630 C   0  0  0  0  0  0  0  0  0  0  0  0
  140.3000   70.1170  226.3800 C   0  0  0  0  0  0  0  0  0  0  0  0
  141.1410   71.2330  226.4080 C   0  0  0  0  0  0  0  0  0  0  0  0
  140.9840   71.9160  225.3140 O   0  0  0  0  0  0  0  0  0  0  0  0
  141.7300   73.4240  220.6500 N   0  0  0  0  0  0  0  0  0  0  0  0
  142.3020   72.2950  219.9860 C   0  0  0  0  0  0  0  0  0  0  0  0
  143.7980   72.2420  219.9790 C   0  0  0  0  0  0  0  0  0  0  0  0
  144.4520   73.2790  220.8370 C   0  0  0  0  0  0  0  0  0  0  0  0
  145.9540   73.1420  220.7250 C   0  0  0  0  0  0  0  0  0  0  0  0
  146.4320   73.2850  219.3890 N   0  0  0  0  0  0  0  0  0  0  0  0
  145.3870   73.4120  218.4060 C   0  0  0  0  0  0  0  0  0  0  0  0
  144.2840   72.4150  218.5630 C   0  0  0  0  0  0  0  0  0  0  0  0
  142.3510   77.2682  219.6315 H   0  0  0  0  0  0  0  0  0  0  0  0
  139.8467   78.8056  222.7243 H   0  0  0  0  0  0  0  0  0  0  0  0
  139.3453   76.5166  223.4996 H   0  0  0  0  0  0  0  0  0  0  0  0
  141.0270   71.0625  221.8144 H   0  0  0  0  0  0  0  0  0  0  0  0
  138.6355   72.1797  223.0319 H   0  0  0  0  0  0  0  0  0  0  0  0
  138.8932   69.5180  224.7786 H   0  0  0  0  0  0  0  0  0  0  0  0
  140.1847   69.3359  227.1459 H   0  0  0  0  0  0  0  0  0  0  0  0
  141.8277   71.4922  227.2273 H   0  0  0  0  0  0  0  0  0  0  0  0
  141.9329   71.3861  220.4837 H   0  0  0  0  0  0  0  0  0  0  0  0
  141.9975   72.3778  218.9322 H   0  0  0  0  0  0  0  0  0  0  0  0
  144.0762   71.2639  220.3984 H   0  0  0  0  0  0  0  0  0  0  0  0
  144.1478   74.2808  220.4997 H   0  0  0  0  0  0  0  0  0  0  0  0
  144.1452   73.1394  221.8841 H   0  0  0  0  0  0  0  0  0  0  0  0
  146.4234   73.9165  221.3493 H   0  0  0  0  0  0  0  0  0  0  0  0
  146.2161   72.1274  221.0597 H   0  0  0  0  0  0  0  0  0  0  0  0
  147.0320   74.1350  219.3230 H   0  0  0  0  0  0  0  0  0  0  0  0
  144.9562   74.4209  218.4867 H   0  0  0  0  0  0  0  0  0  0  0  0
  145.8475   73.2271  217.4243 H   0  0  0  0  0  0  0  0  0  0  0  0
  143.4345   72.7416  217.9452 H   0  0  0  0  0  0  0  0  0  0  0  0
  144.6928   71.4428  218.2504 H   0  0  0  0  0  0  0  0  0  0  0  0
  1  2  2  0
  2  3  1  0
  3  4  2  0
  4  5  1  0
  5  6  1  0
  6  7  2  0
  6  8  1  0
  5  9  2  0
  9 10  1  0
 10 11  2  0
 11 12  1  0
 12 13  2  0
 13 14  1  0
 14 15  2  0
 15 16  1  0
 16 17  2  0
 17 18  1  0
 18 19  2  0
 19 20  1  0
 13 21  1  0
 21 22  1  0
 22 23  1  0
 23 24  1  0
 24 25  1  0
 25 26  1  0
 26 27  1  0
 27 28  1  0
 21  2  1  0
 28 23  1  0
 11  3  1  0
 20 16  1  0
  4 29  1  0
  9 30  1  0
 10 31  1  0
 14 32  1  0
 15 33  1  0
 17 34  1  0
 18 35  1  0
 19 36  1  0
 22 37  1  0
 22 38  1  0
 23 39  1  0
 24 40  1  0
 24 41  1  0
 25 42  1  0
 25 43  1  0
 26 44  1  0
 27 45  1  0
 27 46  1  0
 28 47  1  0
 28 48  1  0
M  CHG  2   6   1   8  -1
M  END
>  <smiles>  (8) 
O=c1c2cc([N+](=O)[O-])ccc2nc(/C=C/c2ccco2)n1CC1CCNCC1

>  <score_type>  (8) 
oracle

>  <origin>  (8) 
autodockgpu

>  <m_score__min__energy>  (8) 
-7.6299999999999999

>  <m_primary>  (8) 
energy

>  <meeko>  (8) 
{"free_energy": -7.63, "intermolecular_energy": -9.42, "internal_energy": -1.02, "cluster_size": 2, "cluster_id": 1, "rank_in_cluster": 1}

>  <energy>  (8) 
-6.8

>  <cluster_rmsd>  (8) 
1.95

>  <rmsd>  (8) 
272.72

>  <cluster>  (8) 
2

$$$$

     RDKit          3D

 48 51  0  0  0  0  0  0  0  0999 V2000
  143.3900   77.4540  219.0380 O   0  0  0  0  0  0  0  0  0  0  0  0
  142.5760   76.7710  219.7120 C   0  0  0  0  0  0  0  0  0  0  0  0
  142.9110   75.4490  219.9440 C   0  0  0  0  0  0  0  0  0  0  0  0
  144.0790   74.8840  219.4700 C   0  0  0  0  0  0  0  0  0  0  0  0
  144.4030   73.5560  219.7120 C   0  0  0  0  0  0  0  0  0  0  0  0
  145.6250   73.0270  219.1960 N   0  0  0  0  0  0  0  0  0  0  0  0
  146.6930   73.4050  219.7180 O   0  0  0  0  0  0  0  0  0  0  0  0
  145.6290   72.1280  218.1570 O   0  0  0  0  0  0  0  0  0  0  0  0
  143.5330   72.7970  220.4410 C   0  0  0  0  0  0  0  0  0  0  0  0
  142.3630   73.3020  220.9350 C   0  0  0  0  0  0  0  0  0  0  0  0
  142.0770   74.6270  220.6730 C   0  0  0  0  0  0  0  0  0  0  0  0
  140.9340   75.1990  221.1300 N   0  0  0  0  0  0  0  0  0  0  0  0
  140.6210   76.4970  220.8930 C   0  0  0  0  0  0  0  0  0  0  0  0
  139.3570   76.9660  221.4510 C   0  0  0  0  0  0  0  0  0  0  0  0
  139.2950   77.2930  222.7230 C   0  0  0  0  0  0  0  0  0  0  0  0
  138.7950   78.6160  223.1150 C   0  0  0  0  0  0  0  0  0  0  0  0
  137.7110   79.3050  222.6140 C   0  0  0  0  0  0  0  0  0  0  0  0
  137.6020   80.5180  223.2740 C   0  0  0  0  0  0  0  0  0  0  0  0
  138.6680   80.5060  224.1780 C   0  0  0  0  0  0  0  0  0  0  0  0
  139.3260   79.3920  224.0500 O   0  0  0  0  0  0  0  0  0  0  0  0
  141.4220   77.3150  220.1840 N   0  0  0  0  0  0  0  0  0  0  0  0
  141.0790   78.6810  219.9440 C   0  0  0  0  0  0  0  0  0  0  0  0
  141.8040   79.6840  220.7870 C   0  0  0  0  0  0  0  0  0  0  0  0
  141.9610   79.2810  222.2200 C   0  0  0  0  0  0  0  0  0  0  0  0
  142.6780   80.3810  222.9700 C   0  0  0  0  0  0  0  0  0  0  0  0
  141.9960   81.6320  222.9190 N   0  0  0  0  0  0  0  0  0  0  0  0
  140.8320   81.6260  222.0700 C   0  0  0  0  0  0  0  0  0  0  0  0
  141.0580   80.9920  220.7360 C   0  0  0  0  0  0  0  0  0  0  0  0
  144.7726   75.5045  218.8836 H   0  0  0  0  0  0  0  0  0  0  0  0
  143.7822   71.7437  220.6373 H   0  0  0  0  0  0  0  0  0  0  0  0
  141.6740   72.6753  221.5203 H   0  0  0  0  0  0  0  0  0  0  0  0
  138.4642   77.0453  220.8134 H   0  0  0  0  0  0  0  0  0  0  0  0
  139.6174   76.5760  223.4923 H   0  0  0  0  0  0  0  0  0  0  0  0
  137.0405   78.9488  221.8181 H   0  0  0  0  0  0  0  0  0  0  0  0
  136.8510   81.3073  223.1220 H   0  0  0  0  0  0  0  0  0  0  0  0
  138.9117   81.3119  224.8859 H   0  0  0  0  0  0  0  0  0  0  0  0
  141.2956   78.9048  218.8890 H   0  0  0  0  0  0  0  0  0  0  0  0
  140.0153   78.7767  220.2074 H   0  0  0  0  0  0  0  0  0  0  0  0
  142.8181   79.7662  220.3689 H   0  0  0  0  0  0  0  0  0  0  0  0
  140.9693   79.1169  222.6668 H   0  0  0  0  0  0  0  0  0  0  0  0
  142.5451   78.3509  222.2805 H   0  0  0  0  0  0  0  0  0  0  0  0
  142.7767   80.0792  224.0232 H   0  0  0  0  0  0  0  0  0  0  0  0
  143.6563   80.5220  222.4873 H   0  0  0  0  0  0  0  0  0  0  0  0
  141.6860   81.9000  223.8780 H   0  0  0  0  0  0  0  0  0  0  0  0
  140.0312   81.0744  222.5843 H   0  0  0  0  0  0  0  0  0  0  0  0
  140.5682   82.6774  221.8829 H   0  0  0  0  0  0  0  0  0  0  0  0
  140.0779   80.8111  220.2705 H   0  0  0  0  0  0  0  0  0  0  0  0
  141.6845   81.6885  220.1594 H   0  0  0  0  0  0  0  0  0  0  0  0
  1  2  2  0
  2  3  1  0
  3  4  2  0
  4  5  1  0
  5  6  1  0
  6  7  2  0
  6  8  1  0
  5  9  2  0
  9 10  1  0
 10 11  2  0
 11 12  1  0
 12 13  2  0
 13 14  1  0
 14 15  2  0
 15 16  1  0
 16 17  2  0
 17 18  1  0
 18 19  2  0
 19 20  1  0
 13 21  1  0
 21 22  1  0
 22 23  1  0
 23 24  1  0
 24 25  1  0
 25 26  1  0
 26 27  1  0
 27 28  1  0
 21  2  1  0
 28 23  1  0
 11  3  1  0
 20 16  1  0
  4 29  1  0
  9 30  1  0
 10 31  1  0
 14 32  1  0
 15 33  1  0
 17 34  1  0
 18 35  1  0
 19 36  1  0
 22 37  1  0
 22 38  1  0
 23 39  1  0
 24 40  1  0
 24 41  1  0
 25 42  1  0
 25 43  1  0
 26 44  1  0
 27 45  1  0
 27 46  1  0
 28 47  1  0
 28 48  1  0
M  CHG  2   6   1   8  -1
M  END
>  <smiles>  (9) 
O=c1c2cc([N+](=O)[O-])ccc2nc(/C=C/c2ccco2)n1CC1CCNCC1

>  <score_type>  (9) 
oracle

>  <origin>  (9) 
autodockgpu

>  <m_score__min__energy>  (9) 
-7.6299999999999999

>  <m_primary>  (9) 
energy

>  <meeko>  (9) 
{"free_energy": -6.83, "intermolecular_energy": -8.62, "internal_energy": -1.86, "cluster_size": 8, "cluster_id": 3, "rank_in_cluster": 5}

>  <energy>  (9) 
-6.78

>  <cluster_rmsd>  (9) 
1.98

>  <rmsd>  (9) 
272.78

>  <cluster>  (9) 
2

$$$$

     RDKit          3D

 48 51  0  0  0  0  0  0  0  0999 V2000
  143.3230   77.2580  219.3160 O   0  0  0  0  0  0  0  0  0  0  0  0
  142.4850   76.5430  219.9250 C   0  0  0  0  0  0  0  0  0  0  0  0
  142.8150   75.2120  220.1080 C   0  0  0  0  0  0  0  0  0  0  0  0
  144.0010   74.6710  219.6540 C   0  0  0  0  0  0  0  0  0  0  0  0
  144.3190   73.3330  219.8450 C   0  0  0  0  0  0  0  0  0  0  0  0
  145.5610   72.8300  219.3530 N   0  0  0  0  0  0  0  0  0  0  0  0
  145.5310   71.8510  218.5800 O   0  0  0  0  0  0  0  0  0  0  0  0
  146.7560   73.4020  219.7170 O   0  0  0  0  0  0  0  0  0  0  0  0
  143.4240   72.5400  220.5040 C   0  0  0  0  0  0  0  0  0  0  0  0
  142.2340   73.0200  220.9750 C   0  0  0  0  0  0  0  0  0  0  0  0
  141.9550   74.3560  220.7660 C   0  0  0  0  0  0  0  0  0  0  0  0
  140.7940   74.9040  221.2050 N   0  0  0  0  0  0  0  0  0  0  0  0
  140.4870   76.2130  221.0160 C   0  0  0  0  0  0  0  0  0  0  0  0
  139.2010   76.6530  221.5470 C   0  0  0  0  0  0  0  0  0  0  0  0
  139.1550   77.2400  222.7220 C   0  0  0  0  0  0  0  0  0  0  0  0
  138.6480   78.6120  222.8370 C   0  0  0  0  0  0  0  0  0  0  0  0
  138.8370   79.5120  223.8640 C   0  0  0  0  0  0  0  0  0  0  0  0
  138.1780   80.6930  223.5580 C   0  0  0  0  0  0  0  0  0  0  0  0
  137.5990   80.4400  222.3120 C   0  0  0  0  0  0  0  0  0  0  0  0
  137.8950   79.2310  221.9380 O   0  0  0  0  0  0  0  0  0  0  0  0
  141.3120   77.0630  220.3780 N   0  0  0  0  0  0  0  0  0  0  0  0
  140.9760   78.4380  220.1890 C   0  0  0  0  0  0  0  0  0  0  0  0
  141.7990   79.4150  220.9700 C   0  0  0  0  0  0  0  0  0  0  0  0
  141.9580   79.0660  222.4170 C   0  0  0  0  0  0  0  0  0  0  0  0
  142.7790   80.1360  223.1000 C   0  0  0  0  0  0  0  0  0  0  0  0
  142.1990   81.4350  223.0040 N   0  0  0  0  0  0  0  0  0  0  0  0
  141.0180   81.4860  222.1810 C   0  0  0  0  0  0  0  0  0  0  0  0
  141.1590   80.7760  220.8730 C   0  0  0  0  0  0  0  0  0  0  0  0
  144.7154   75.3191  219.1252 H   0  0  0  0  0  0  0  0  0  0  0  0
  143.6688   71.4792  220.6612 H   0  0  0  0  0  0  0  0  0  0  0  0
  141.5240   72.3654  221.5017 H   0  0  0  0  0  0  0  0  0  0  0  0
  138.2785   76.4948  220.9691 H   0  0  0  0  0  0  0  0  0  0  0  0
  139.4966   76.7028  223.6191 H   0  0  0  0  0  0  0  0  0  0  0  0
  139.4174   79.3235  224.7792 H   0  0  0  0  0  0  0  0  0  0  0  0
  138.1237   81.6142  224.1567 H   0  0  0  0  0  0  0  0  0  0  0  0
  136.9884   81.1523  221.7376 H   0  0  0  0  0  0  0  0  0  0  0  0
  141.0947   78.6723  219.1208 H   0  0  0  0  0  0  0  0  0  0  0  0
  139.9449   78.5504  220.5552 H   0  0  0  0  0  0  0  0  0  0  0  0
  142.8062   79.3948  220.5284 H   0  0  0  0  0  0  0  0  0  0  0  0
  140.9674   79.0037  222.8913 H   0  0  0  0  0  0  0  0  0  0  0  0
  142.4670   78.0952  222.5089 H   0  0  0  0  0  0  0  0  0  0  0  0
  142.8781   79.8750  224.1640 H   0  0  0  0  0  0  0  0  0  0  0  0
  143.7539   80.1746  222.5919 H   0  0  0  0  0  0  0  0  0  0  0  0
  141.9350   81.7700  223.9560 H   0  0  0  0  0  0  0  0  0  0  0  0
  140.1883   81.0254  222.7372 H   0  0  0  0  0  0  0  0  0  0  0  0
  140.8355   82.5460  221.9504 H   0  0  0  0  0  0  0  0  0  0  0  0
  140.1562   80.6545  220.4375 H   0  0  0  0  0  0  0  0  0  0  0  0
  141.8245   81.3926  220.2509 H   0  0  0  0  0  0  0  0  0  0  0  0
  1  2  2  0
  2  3  1  0
  3  4  2  0
  4  5  1  0
  5  6  1  0
  6  7  2  0
  6  8  1  0
  5  9  2  0
  9 10  1  0
 10 11  2  0
 11 12  1  0
 12 13  2  0
 13 14  1  0
 14 15  2  0
 15 16  1  0
 16 17  2  0
 17 18  1  0
 18 19  2  0
 19 20  1  0
 13 21  1  0
 21 22  1  0
 22 23  1  0
 23 24  1  0
 24 25  1  0
 25 26  1  0
 26 27  1  0
 27 28  1  0
 21  2  1  0
 28 23  1  0
 11  3  1  0
 20 16  1  0
  4 29  1  0
  9 30  1  0
 10 31  1  0
 14 32  1  0
 15 33  1  0
 17 34  1  0
 18 35  1  0
 19 36  1  0
 22 37  1  0
 22 38  1  0
 23 39  1  0
 24 40  1  0
 24 41  1  0
 25 42  1  0
 25 43  1  0
 26 44  1  0
 27 45  1  0
 27 46  1  0
 28 47  1  0
 28 48  1  0
M  CHG  2   6   1   8  -1
M  END
>  <smiles>  (10) 
O=c1c2cc([N+](=O)[O-])ccc2nc(/C=C/c2ccco2)n1CC1CCNCC1

>  <score_type>  (10) 
oracle

>  <origin>  (10) 
autodockgpu

>  <m_score__min__energy>  (10) 
-7.6299999999999999

>  <m_primary>  (10) 
energy

>  <meeko>  (10) 
{"free_energy": -6.72, "intermolecular_energy": -8.51, "internal_energy": -1.83, "cluster_size": 8, "cluster_id": 3, "rank_in_cluster": 8}

>  <energy>  (10) 
-6.78

>  <cluster_rmsd>  (10) 
1.96

>  <rmsd>  (10) 
272.72

>  <cluster>  (10) 
2

$$$$

     RDKit          3D

 48 51  0  0  0  0  0  0  0  0999 V2000
  142.9920   77.1170  219.8180 O   0  0  0  0  0  0  0  0  0  0  0  0
  142.2770   76.2850  220.4340 C   0  0  0  0  0  0  0  0  0  0  0  0
  142.7280   74.9770  220.4670 C   0  0  0  0  0  0  0  0  0  0  0  0
  143.9040   74.5810  219.8600 C   0  0  0  0  0  0  0  0  0  0  0  0
  144.3440   73.2650  219.9020 C   0  0  0  0  0  0  0  0  0  0  0  0
  145.5680   72.9130  219.2560 N   0  0  0  0  0  0  0  0  0  0  0  0
  146.6300   73.3640  219.7290 O   0  0  0  0  0  0  0  0  0  0  0  0
  145.5800   72.1040  218.1460 O   0  0  0  0  0  0  0  0  0  0  0  0
  143.5830   72.3450  220.5660 C   0  0  0  0  0  0  0  0  0  0  0  0
  142.4110   72.6800  221.1840 C   0  0  0  0  0  0  0  0  0  0  0  0
  142.0080   73.9980  221.1210 C   0  0  0  0  0  0  0  0  0  0  0  0
  140.8550   74.4060  221.7100 N   0  0  0  0  0  0  0  0  0  0  0  0
  140.4280   75.6930  221.6680 C   0  0  0  0  0  0  0  0  0  0  0  0
  139.1690   75.9750  222.3500 C   0  0  0  0  0  0  0  0  0  0  0  0
  138.0460   75.5180  221.8450 C   0  0  0  0  0  0  0  0  0  0  0  0
  136.8960   75.2680  222.7220 C   0  0  0  0  0  0  0  0  0  0  0  0
  136.1590   74.1100  222.8590 C   0  0  0  0  0  0  0  0  0  0  0  0
  135.1630   74.3180  223.8000 C   0  0  0  0  0  0  0  0  0  0  0  0
  135.3520   75.6420  224.2030 C   0  0  0  0  0  0  0  0  0  0  0  0
  136.3590   76.1480  223.5560 O   0  0  0  0  0  0  0  0  0  0  0  0
  141.1170   76.6610  221.0360 N   0  0  0  0  0  0  0  0  0  0  0  0
  140.6560   78.0130  221.0020 C   0  0  0  0  0  0  0  0  0  0  0  0
  141.5160   79.0050  221.7200 C   0  0  0  0  0  0  0  0  0  0  0  0
  141.5380   78.8360  223.2070 C   0  0  0  0  0  0  0  0  0  0  0  0
  142.4130   79.9070  223.8180 C   0  0  0  0  0  0  0  0  0  0  0  0
  141.9740   81.2300  223.5140 N   0  0  0  0  0  0  0  0  0  0  0  0
  140.8650   81.2800  222.5970 C   0  0  0  0  0  0  0  0  0  0  0  0
  141.0250   80.3940  221.4030 C   0  0  0  0  0  0  0  0  0  0  0  0
  144.5092   75.3299  219.3281 H   0  0  0  0  0  0  0  0  0  0  0  0
  143.9248   71.3002  220.6045 H   0  0  0  0  0  0  0  0  0  0  0  0
  141.8102   71.9255  221.7130 H   0  0  0  0  0  0  0  0  0  0  0  0
  139.1606   76.5649  223.2784 H   0  0  0  0  0  0  0  0  0  0  0  0
  137.9674   75.3227  220.7653 H   0  0  0  0  0  0  0  0  0  0  0  0
  136.3336   73.1729  222.3100 H   0  0  0  0  0  0  0  0  0  0  0  0
  134.4006   73.6058  224.1486 H   0  0  0  0  0  0  0  0  0  0  0  0
  134.7441   76.1728  224.9505 H   0  0  0  0  0  0  0  0  0  0  0  0
  140.5895   78.3220  219.9484 H   0  0  0  0  0  0  0  0  0  0  0  0
  139.6892   78.0158  221.5267 H   0  0  0  0  0  0  0  0  0  0  0  0
  142.5443   78.8357  221.3679 H   0  0  0  0  0  0  0  0  0  0  0  0
  140.5156   78.9268  223.6024 H   0  0  0  0  0  0  0  0  0  0  0  0
  141.9393   77.8434  223.4595 H   0  0  0  0  0  0  0  0  0  0  0  0
  142.4104   79.7798  224.9106 H   0  0  0  0  0  0  0  0  0  0  0  0
  143.4203   79.7899  223.3917 H   0  0  0  0  0  0  0  0  0  0  0  0
  141.6790   81.7100  224.3920 H   0  0  0  0  0  0  0  0  0  0  0  0
  139.9561   80.9741  223.1358 H   0  0  0  0  0  0  0  0  0  0  0  0
  140.8069   82.3127  222.2225 H   0  0  0  0  0  0  0  0  0  0  0  0
  140.0480   80.3082  220.9048 H   0  0  0  0  0  0  0  0  0  0  0  0
  141.7914   80.8603  220.7664 H   0  0  0  0  0  0  0  0  0  0  0  0
  1  2  2  0
  2  3  1  0
  3  4  2  0
  4  5  1  0
  5  6  1  0
  6  7  2  0
  6  8  1  0
  5  9  2  0
  9 10  1  0
 10 11  2  0
 11 12  1  0
 12 13  2  0
 13 14  1  0
 14 15  2  0
 15 16  1  0
 16 17  2  0
 17 18  1  0
 18 19  2  0
 19 20  1  0
 13 21  1  0
 21 22  1  0
 22 23  1  0
 23 24  1  0
 24 25  1  0
 25 26  1  0
 26 27  1  0
 27 28  1  0
 21  2  1  0
 28 23  1  0
 11  3  1  0
 20 16  1  0
  4 29  1  0
  9 30  1  0
 10 31  1  0
 14 32  1  0
 15 33  1  0
 17 34  1  0
 18 35  1  0
 19 36  1  0
 22 37  1  0
 22 38  1  0
 23 39  1  0
 24 40  1  0
 24 41  1  0
 25 42  1  0
 25 43  1  0
 26 44  1  0
 27 45  1  0
 27 46  1  0
 28 47  1  0
 28 48  1  0
M  CHG  2   6   1   8  -1
M  END
>  <smiles>  (11) 
O=c1c2cc([N+](=O)[O-])ccc2nc(/C=C/c2ccco2)n1CC1CCNCC1

>  <score_type>  (11) 
oracle

>  <origin>  (11) 
autodockgpu

>  <m_score__min__energy>  (11) 
-7.6299999999999999

>  <m_primary>  (11) 
energy

>  <meeko>  (11) 
{"free_energy": -7.16, "intermolecular_energy": -8.95, "internal_energy": -1.11, "cluster_size": 10, "cluster_id": 2, "rank_in_cluster": 1}

>  <energy>  (11) 
-6.77

>  <cluster_rmsd>  (11) 
1.98

>  <rmsd>  (11) 
272.7

>  <cluster>  (11) 
2

$$$$

     RDKit          3D

 48 51  0  0  0  0  0  0  0  0999 V2000
  143.3260   77.3230  219.3310 O   0  0  0  0  0  0  0  0  0  0  0  0
  142.4750   76.6070  219.9210 C   0  0  0  0  0  0  0  0  0  0  0  0
  142.7980   75.2750  220.1030 C   0  0  0  0  0  0  0  0  0  0  0  0
  143.9920   74.7330  219.6680 C   0  0  0  0  0  0  0  0  0  0  0  0
  144.3030   73.3930  219.8580 C   0  0  0  0  0  0  0  0  0  0  0  0
  145.5530   72.8890  219.3870 N   0  0  0  0  0  0  0  0  0  0  0  0
  145.5730   72.3190  218.2780 O   0  0  0  0  0  0  0  0  0  0  0  0
  146.7020   73.0260  220.1280 O   0  0  0  0  0  0  0  0  0  0  0  0
  143.3940   72.5990  220.4960 C   0  0  0  0  0  0  0  0  0  0  0  0
  142.1970   73.0800  220.9480 C   0  0  0  0  0  0  0  0  0  0  0  0
  141.9250   74.4170  220.7400 C   0  0  0  0  0  0  0  0  0  0  0  0
  140.7570   74.9660  221.1600 N   0  0  0  0  0  0  0  0  0  0  0  0
  140.4570   76.2760  220.9730 C   0  0  0  0  0  0  0  0  0  0  0  0
  139.1620   76.7170  221.4820 C   0  0  0  0  0  0  0  0  0  0  0  0
  139.0650   77.1330  222.7250 C   0  0  0  0  0  0  0  0  0  0  0  0
  138.6110   78.5000  223.0070 C   0  0  0  0  0  0  0  0  0  0  0  0
  139.1060   79.3920  223.9350 C   0  0  0  0  0  0  0  0  0  0  0  0
  138.3770   80.5690  223.8620 C   0  0  0  0  0  0  0  0  0  0  0  0
  137.4400   80.3220  222.8560 C   0  0  0  0  0  0  0  0  0  0  0  0
  137.6120   79.1200  222.3950 O   0  0  0  0  0  0  0  0  0  0  0  0
  141.2950   77.1270  220.3550 N   0  0  0  0  0  0  0  0  0  0  0  0
  140.9660   78.5050  220.1670 C   0  0  0  0  0  0  0  0  0  0  0  0
  141.7820   79.4760  220.9610 C   0  0  0  0  0  0  0  0  0  0  0  0
  141.9380   79.1100  222.4040 C   0  0  0  0  0  0  0  0  0  0  0  0
  142.7520   80.1760  223.1030 C   0  0  0  0  0  0  0  0  0  0  0  0
  142.1660   81.4730  223.0210 N   0  0  0  0  0  0  0  0  0  0  0  0
  140.9880   81.5290  222.1950 C   0  0  0  0  0  0  0  0  0  0  0  0
  141.1370   80.8350  220.8790 C   0  0  0  0  0  0  0  0  0  0  0  0
  144.7177   75.3820  219.1561 H   0  0  0  0  0  0  0  0  0  0  0  0
  143.6328   71.5366  220.6515 H   0  0  0  0  0  0  0  0  0  0  0  0
  141.4763   72.4249  221.4592 H   0  0  0  0  0  0  0  0  0  0  0  0
  138.2753   76.7013  220.8312 H   0  0  0  0  0  0  0  0  0  0  0  0
  139.3239   76.4571  223.5534 H   0  0  0  0  0  0  0  0  0  0  0  0
  139.9436   79.2006  224.6219 H   0  0  0  0  0  0  0  0  0  0  0  0
  138.5064   81.4846  224.4578 H   0  0  0  0  0  0  0  0  0  0  0  0
  136.6764   81.0336  222.5088 H   0  0  0  0  0  0  0  0  0  0  0  0
  141.0986   78.7428  219.1012 H   0  0  0  0  0  0  0  0  0  0  0  0
  139.9310   78.6195  220.5213 H   0  0  0  0  0  0  0  0  0  0  0  0
  142.7903   79.4660  220.5214 H   0  0  0  0  0  0  0  0  0  0  0  0
  140.9463   79.0371  222.8742 H   0  0  0  0  0  0  0  0  0  0  0  0
  142.4513   78.1406  222.4857 H   0  0  0  0  0  0  0  0  0  0  0  0
  142.8490   79.9025  224.1640 H   0  0  0  0  0  0  0  0  0  0  0  0
  143.7283   80.2255  222.5986 H   0  0  0  0  0  0  0  0  0  0  0  0
  141.8980   81.7960  223.9760 H   0  0  0  0  0  0  0  0  0  0  0  0
  140.1583   81.0583  222.7428 H   0  0  0  0  0  0  0  0  0  0  0  0
  140.8015   82.5908  221.9766 H   0  0  0  0  0  0  0  0  0  0  0  0
  140.1363   80.7147  220.4384 H   0  0  0  0  0  0  0  0  0  0  0  0
  141.8027   81.4618  220.2674 H   0  0  0  0  0  0  0  0  0  0  0  0
  1  2  2  0
  2  3  1  0
  3  4  2  0
  4  5  1  0
  5  6  1  0
  6  7  2  0
  6  8  1  0
  5  9  2  0
  9 10  1  0
 10 11  2  0
 11 12  1  0
 12 13  2  0
 13 14  1  0
 14 15  2  0
 15 16  1  0
 16 17  2  0
 17 18  1  0
 18 19  2  0
 19 20  1  0
 13 21  1  0
 21 22  1  0
 22 23  1  0
 23 24  1  0
 24 25  1  0
 25 26  1  0
 26 27  1  0
 27 28  1  0
 21  2  1  0
 28 23  1  0
 11  3  1  0
 20 16  1  0
  4 29  1  0
  9 30  1  0
 10 31  1  0
 14 32  1  0
 15 33  1  0
 17 34  1  0
 18 35  1  0
 19 36  1  0
 22 37  1  0
 22 38  1  0
 23 39  1  0
 24 40  1  0
 24 41  1  0
 25 42  1  0
 25 43  1  0
 26 44  1  0
 27 45  1  0
 27 46  1  0
 28 47  1  0
 28 48  1  0
M  CHG  2   6   1   8  -1
M  END
>  <smiles>  (12) 
O=c1c2cc([N+](=O)[O-])ccc2nc(/C=C/c2ccco2)n1CC1CCNCC1

>  <score_type>  (12) 
oracle

>  <origin>  (12) 
autodockgpu

>  <m_score__min__energy>  (12) 
-7.6299999999999999

>  <m_primary>  (12) 
energy

>  <meeko>  (12) 
{"free_energy": -6.74, "intermolecular_energy": -8.53, "internal_energy": -1.79, "cluster_size": 10, "cluster_id": 2, "rank_in_cluster": 10}

>  <energy>  (12) 
-6.74

>  <cluster_rmsd>  (12) 
1.99

>  <rmsd>  (12) 
272.74

>  <cluster>  (12) 
2

$$$$

     RDKit          3D

 48 51  0  0  0  0  0  0  0  0999 V2000
  143.3080   77.0590  219.3520 O   0  0  0  0  0  0  0  0  0  0  0  0
  142.5990   76.3370  220.1000 C   0  0  0  0  0  0  0  0  0  0  0  0
  142.9440   75.0000  220.1870 C   0  0  0  0  0  0  0  0  0  0  0  0
  144.0120   74.4610  219.4960 C   0  0  0  0  0  0  0  0  0  0  0  0
  144.3460   73.1180  219.5940 C   0  0  0  0  0  0  0  0  0  0  0  0
  145.4610   72.6170  218.8550 N   0  0  0  0  0  0  0  0  0  0  0  0
  145.9940   73.3700  218.0170 O   0  0  0  0  0  0  0  0  0  0  0  0
  145.9360   71.3430  219.0590 O   0  0  0  0  0  0  0  0  0  0  0  0
  143.5900   72.3160  220.4000 C   0  0  0  0  0  0  0  0  0  0  0  0
  142.5230   72.7940  221.1070 C   0  0  0  0  0  0  0  0  0  0  0  0
  142.2220   74.1360  220.9840 C   0  0  0  0  0  0  0  0  0  0  0  0
  141.1760   74.6820  221.6550 N   0  0  0  0  0  0  0  0  0  0  0  0
  140.8530   75.9960  221.5570 C   0  0  0  0  0  0  0  0  0  0  0  0
  139.7020   76.4340  222.3410 C   0  0  0  0  0  0  0  0  0  0  0  0
  138.7310   77.0930  221.7470 C   0  0  0  0  0  0  0  0  0  0  0  0
  138.3460   78.4230  222.2330 C   0  0  0  0  0  0  0  0  0  0  0  0
  137.6600   79.4140  221.5620 C   0  0  0  0  0  0  0  0  0  0  0  0
  137.5140   80.5080  222.4000 C   0  0  0  0  0  0  0  0  0  0  0  0
  138.1430   80.1120  223.5830 C   0  0  0  0  0  0  0  0  0  0  0  0
  138.6070   78.9070  223.4400 O   0  0  0  0  0  0  0  0  0  0  0  0
  141.5450   76.8550  220.7860 N   0  0  0  0  0  0  0  0  0  0  0  0
  141.1930   78.2360  220.6960 C   0  0  0  0  0  0  0  0  0  0  0  0
  141.9530   79.1550  221.6000 C   0  0  0  0  0  0  0  0  0  0  0  0
  141.6650   78.9600  223.0560 C   0  0  0  0  0  0  0  0  0  0  0  0
  142.4670   79.9580  223.8610 C   0  0  0  0  0  0  0  0  0  0  0  0
  142.1830   81.3130  223.5160 N   0  0  0  0  0  0  0  0  0  0  0  0
  141.2850   81.4540  222.3980 C   0  0  0  0  0  0  0  0  0  0  0  0
  141.6260   80.5800  221.2340 C   0  0  0  0  0  0  0  0  0  0  0  0
  144.6149   75.1155  218.8495 H   0  0  0  0  0  0  0  0  0  0  0  0
  143.8485   71.2500  220.4828 H   0  0  0  0  0  0  0  0  0  0  0  0
  141.9248   72.1330  221.7515 H   0  0  0  0  0  0  0  0  0  0  0  0
  139.6474   76.2151  223.4176 H   0  0  0  0  0  0  0  0  0  0  0  0
  138.2085   76.6479  220.8874 H   0  0  0  0  0  0  0  0  0  0  0  0
  137.2888   79.3467  220.5287 H   0  0  0  0  0  0  0  0  0  0  0  0
  137.0181   81.4658  222.1839 H   0  0  0  0  0  0  0  0  0  0  0  0
  138.2315   80.7243  224.4925 H   0  0  0  0  0  0  0  0  0  0  0  0
  141.3639   78.5624  219.6595 H   0  0  0  0  0  0  0  0  0  0  0  0
  140.1419   78.3010  221.0138 H   0  0  0  0  0  0  0  0  0  0  0  0
  143.0180   78.9215  221.4541 H   0  0  0  0  0  0  0  0  0  0  0  0
  140.5920   79.1147  223.2425 H   0  0  0  0  0  0  0  0  0  0  0  0
  141.9425   77.9380  223.3534 H   0  0  0  0  0  0  0  0  0  0  0  0
  142.2378   79.8128  224.9270 H   0  0  0  0  0  0  0  0  0  0  0  0
  143.5296   79.7792  223.6400 H   0  0  0  0  0  0  0  0  0  0  0  0
  141.7490   81.7970  224.3320 H   0  0  0  0  0  0  0  0  0  0  0  0
  140.2691   81.2008  222.7355 H   0  0  0  0  0  0  0  0  0  0  0  0
  141.3673   82.4947  222.0512 H   0  0  0  0  0  0  0  0  0  0  0  0
  140.7665   80.5703  220.5476 H   0  0  0  0  0  0  0  0  0  0  0  0
  142.5336   81.0033  220.7789 H   0  0  0  0  0  0  0  0  0  0  0  0
  1  2  2  0
  2  3  1  0
  3  4  2  0
  4  5  1  0
  5  6  1  0
  6  7  2  0
  6  8  1  0
  5  9  2  0
  9 10  1  0
 10 11  2  0
 11 12  1  0
 12 13  2  0
 13 14  1  0
 14 15  2  0
 15 16  1  0
 16 17  2  0
 17 18  1  0
 18 19  2  0
 19 20  1  0
 13 21  1  0
 21 22  1  0
 22 23  1  0
 23 24  1  0
 24 25  1  0
 25 26  1  0
 26 27  1  0
 27 28  1  0
 21  2  1  0
 28 23  1  0
 11  3  1  0
 20 16  1  0
  4 29  1  0
  9 30  1  0
 10 31  1  0
 14 32  1  0
 15 33  1  0
 17 34  1  0
 18 35  1  0
 19 36  1  0
 22 37  1  0
 22 38  1  0
 23 39  1  0
 24 40  1  0
 24 41  1  0
 25 42  1  0
 25 43  1  0
 26 44  1  0
 27 45  1  0
 27 46  1  0
 28 47  1  0
 28 48  1  0
M  CHG  2   6   1   8  -1
M  END
>  <smiles>  (13) 
O=c1c2cc([N+](=O)[O-])ccc2nc(/C=C/c2ccco2)n1CC1CCNCC1

>  <score_type>  (13) 
oracle

>  <origin>  (13) 
autodockgpu

>  <m_score__min__energy>  (13) 
-7.6299999999999999

>  <m_primary>  (13) 
energy

>  <meeko>  (13) 
{"free_energy": -6.91, "intermolecular_energy": -8.7, "internal_energy": -1.49, "cluster_size": 10, "cluster_id": 2, "rank_in_cluster": 2}

>  <energy>  (13) 
-6.84

>  <cluster_rmsd>  (13) 
0.0

>  <rmsd>  (13) 
272.77

>  <cluster>  (13) 
3

$$$$

     RDKit          3D

 48 51  0  0  0  0  0  0  0  0999 V2000
  143.3860   77.4320  219.0140 O   0  0  0  0  0  0  0  0  0  0  0  0
  142.5670   76.7600  219.6930 C   0  0  0  0  0  0  0  0  0  0  0  0
  142.8950   75.4370  219.9350 C   0  0  0  0  0  0  0  0  0  0  0  0
  144.0580   74.8610  219.4640 C   0  0  0  0  0  0  0  0  0  0  0  0
  144.3730   73.5330  219.7150 C   0  0  0  0  0  0  0  0  0  0  0  0
  145.5910   72.9910  219.2010 N   0  0  0  0  0  0  0  0  0  0  0  0
  146.6630   73.3820  219.7040 O   0  0  0  0  0  0  0  0  0  0  0  0
  145.5860   72.0670  218.1840 O   0  0  0  0  0  0  0  0  0  0  0  0
  143.4990   72.7840  220.4500 C   0  0  0  0  0  0  0  0  0  0  0  0
  142.3340   73.3010  220.9420 C   0  0  0  0  0  0  0  0  0  0  0  0
  142.0560   74.6260  220.6710 C   0  0  0  0  0  0  0  0  0  0  0  0
  140.9170   75.2080  221.1260 N   0  0  0  0  0  0  0  0  0  0  0  0
  140.6130   76.5070  220.8790 C   0  0  0  0  0  0  0  0  0  0  0  0
  139.3520   76.9880  221.4350 C   0  0  0  0  0  0  0  0  0  0  0  0
  139.2900   77.3070  222.7090 C   0  0  0  0  0  0  0  0  0  0  0  0
  138.8030   78.6330  223.1090 C   0  0  0  0  0  0  0  0  0  0  0  0
  137.7250   79.3350  222.6120 C   0  0  0  0  0  0  0  0  0  0  0  0
  137.6290   80.5460  223.2790 C   0  0  0  0  0  0  0  0  0  0  0  0
  138.6950   80.5180  224.1820 C   0  0  0  0  0  0  0  0  0  0  0  0
  139.3420   79.3990  224.0480 O   0  0  0  0  0  0  0  0  0  0  0  0
  141.4180   77.3140  220.1630 N   0  0  0  0  0  0  0  0  0  0  0  0
  141.0840   78.6810  219.9140 C   0  0  0  0  0  0  0  0  0  0  0  0
  141.8060   79.6840  220.7580 C   0  0  0  0  0  0  0  0  0  0  0  0
  141.9720   79.2760  222.1890 C   0  0  0  0  0  0  0  0  0  0  0  0
  142.6850   80.3770  222.9410 C   0  0  0  0  0  0  0  0  0  0  0  0
  141.9950   81.6240  222.8980 N   0  0  0  0  0  0  0  0  0  0  0  0
  140.8280   81.6150  222.0540 C   0  0  0  0  0  0  0  0  0  0  0  0
  141.0520   80.9880  220.7160 C   0  0  0  0  0  0  0  0  0  0  0  0
  144.7552   75.4726  218.8725 H   0  0  0  0  0  0  0  0  0  0  0  0
  143.7409   71.7302  220.6525 H   0  0  0  0  0  0  0  0  0  0  0  0
  141.6419   72.6834  221.5332 H   0  0  0  0  0  0  0  0  0  0  0  0
  138.4626   77.0826  220.7946 H   0  0  0  0  0  0  0  0  0  0  0  0
  139.6026   76.5813  223.4742 H   0  0  0  0  0  0  0  0  0  0  0  0
  137.0503   78.9895  221.8149 H   0  0  0  0  0  0  0  0  0  0  0  0
  136.8862   81.3439  223.1318 H   0  0  0  0  0  0  0  0  0  0  0  0
  138.9469   81.3175  224.8943 H   0  0  0  0  0  0  0  0  0  0  0  0
  141.3109   78.8988  218.8599 H   0  0  0  0  0  0  0  0  0  0  0  0
  140.0186   78.7830  220.1682 H   0  0  0  0  0  0  0  0  0  0  0  0
  142.8178   79.7737  220.3357 H   0  0  0  0  0  0  0  0  0  0  0  0
  140.9833   79.1036  222.6393 H   0  0  0  0  0  0  0  0  0  0  0  0
  142.5627   78.3496  222.2428 H   0  0  0  0  0  0  0  0  0  0  0  0
  142.7896   80.0713  223.9925 H   0  0  0  0  0  0  0  0  0  0  0  0
  143.6606   80.5261  222.4553 H   0  0  0  0  0  0  0  0  0  0  0  0
  141.6880   81.8860  223.8590 H   0  0  0  0  0  0  0  0  0  0  0  0
  140.0325   81.0566  222.5692 H   0  0  0  0  0  0  0  0  0  0  0  0
  140.5576   82.6657  221.8725 H   0  0  0  0  0  0  0  0  0  0  0  0
  140.0709   80.8034  220.2540 H   0  0  0  0  0  0  0  0  0  0  0  0
  141.6719   81.6907  220.1399 H   0  0  0  0  0  0  0  0  0  0  0  0
  1  2  2  0
  2  3  1  0
  3  4  2  0
  4  5  1  0
  5  6  1  0
  6  7  2  0
  6  8  1  0
  5  9  2  0
  9 10  1  0
 10 11  2  0
 11 12  1  0
 12 13  2  0
 13 14  1  0
 14 15  2  0
 15 16  1  0
 16 17  2  0
 17 18  1  0
 18 19  2  0
 19 20  1  0
 13 21  1  0
 21 22  1  0
 22 23  1  0
 23 24  1  0
 24 25  1  0
 25 26  1  0
 26 27  1  0
 27 28  1  0
 21  2  1  0
 28 23  1  0
 11  3  1  0
 20 16  1  0
  4 29  1  0
  9 30  1  0
 10 31  1  0
 14 32  1  0
 15 33  1  0
 17 34  1  0
 18 35  1  0
 19 36  1  0
 22 37  1  0
 22 38  1  0
 23 39  1  0
 24 40  1  0
 24 41  1  0
 25 42  1  0
 25 43  1  0
 26 44  1  0
 27 45  1  0
 27 46  1  0
 28 47  1  0
 28 48  1  0
M  CHG  2   6   1   8  -1
M  END
>  <smiles>  (14) 
O=c1c2cc([N+](=O)[O-])ccc2nc(/C=C/c2ccco2)n1CC1CCNCC1

>  <score_type>  (14) 
oracle

>  <origin>  (14) 
autodockgpu

>  <m_score__min__energy>  (14) 
-7.6299999999999999

>  <m_primary>  (14) 
energy

>  <meeko>  (14) 
{"free_energy": -6.83, "intermolecular_energy": -8.62, "internal_energy": -1.86, "cluster_size": 8, "cluster_id": 3, "rank_in_cluster": 4}

>  <energy>  (14) 
-6.83

>  <cluster_rmsd>  (14) 
0.03

>  <rmsd>  (14) 
272.77

>  <cluster>  (14) 
3

$$$$

     RDKit          3D

 48 51  0  0  0  0  0  0  0  0999 V2000
  143.3450   77.3130  219.1990 O   0  0  0  0  0  0  0  0  0  0  0  0
  142.4980   76.6340  219.8340 C   0  0  0  0  0  0  0  0  0  0  0  0
  142.7970   75.2990  220.0430 C   0  0  0  0  0  0  0  0  0  0  0  0
  143.9640   74.7180  219.5870 C   0  0  0  0  0  0  0  0  0  0  0  0
  144.2510   73.3780  219.8050 C   0  0  0  0  0  0  0  0  0  0  0  0
  145.4740   72.8320  219.3090 N   0  0  0  0  0  0  0  0  0  0  0  0
  146.3680   72.5540  220.1330 O   0  0  0  0  0  0  0  0  0  0  0  0
  145.6650   72.6190  217.9650 O   0  0  0  0  0  0  0  0  0  0  0  0
  143.3460   72.6220  220.4930 C   0  0  0  0  0  0  0  0  0  0  0  0
  142.1750   73.1420  220.9680 C   0  0  0  0  0  0  0  0  0  0  0  0
  141.9250   74.4800  220.7310 C   0  0  0  0  0  0  0  0  0  0  0  0
  140.7840   75.0670  221.1720 N   0  0  0  0  0  0  0  0  0  0  0  0
  140.5070   76.3780  220.9570 C   0  0  0  0  0  0  0  0  0  0  0  0
  139.2390   76.8620  221.4930 C   0  0  0  0  0  0  0  0  0  0  0  0
  139.1960   77.3370  222.7180 C   0  0  0  0  0  0  0  0  0  0  0  0
  138.6950   78.6950  222.9600 C   0  0  0  0  0  0  0  0  0  0  0  0
  139.0400   79.5680  223.9710 C   0  0  0  0  0  0  0  0  0  0  0  0
  138.3220   80.7430  223.8160 C   0  0  0  0  0  0  0  0  0  0  0  0
  137.5470   80.5170  222.6770 C   0  0  0  0  0  0  0  0  0  0  0  0
  137.7940   79.3260  222.2190 O   0  0  0  0  0  0  0  0  0  0  0  0
  141.3440   77.1920  220.2890 N   0  0  0  0  0  0  0  0  0  0  0  0
  141.0390   78.5710  220.0730 C   0  0  0  0  0  0  0  0  0  0  0  0
  141.8270   79.5410  220.8980 C   0  0  0  0  0  0  0  0  0  0  0  0
  141.9520   79.1600  222.3400 C   0  0  0  0  0  0  0  0  0  0  0  0
  142.7380   80.2260  223.0700 C   0  0  0  0  0  0  0  0  0  0  0  0
  142.1420   81.5180  222.9880 N   0  0  0  0  0  0  0  0  0  0  0  0
  140.9830   81.5720  222.1350 C   0  0  0  0  0  0  0  0  0  0  0  0
  141.1700   80.8950  220.8150 C   0  0  0  0  0  0  0  0  0  0  0  0
  144.6874   75.3358  219.0347 H   0  0  0  0  0  0  0  0  0  0  0  0
  143.5668   71.5592  220.6708 H   0  0  0  0  0  0  0  0  0  0  0  0
  141.4568   72.5175  221.5195 H   0  0  0  0  0  0  0  0  0  0  0  0
  138.3277   76.8297  220.8778 H   0  0  0  0  0  0  0  0  0  0  0  0
  139.5353   76.7171  223.5610 H   0  0  0  0  0  0  0  0  0  0  0  0
  139.7673   79.3643  224.7707 H   0  0  0  0  0  0  0  0  0  0  0  0
  138.3550   81.6450  224.4448 H   0  0  0  0  0  0  0  0  0  0  0  0
  136.8387   81.2341  222.2365 H   0  0  0  0  0  0  0  0  0  0  0  0
  141.2255   78.7976  219.0129 H   0  0  0  0  0  0  0  0  0  0  0  0
  139.9892   78.6997  220.3751 H   0  0  0  0  0  0  0  0  0  0  0  0
  142.8459   79.5456  220.4835 H   0  0  0  0  0  0  0  0  0  0  0  0
  140.9501   79.0719  222.7854 H   0  0  0  0  0  0  0  0  0  0  0  0
  142.4730   78.1948  222.4232 H   0  0  0  0  0  0  0  0  0  0  0  0
  142.8118   79.9417  224.1301 H   0  0  0  0  0  0  0  0  0  0  0  0
  143.7256   80.2905  222.5898 H   0  0  0  0  0  0  0  0  0  0  0  0
  141.8470   81.8280  223.9400 H   0  0  0  0  0  0  0  0  0  0  0  0
  140.1455   81.0867  222.6575 H   0  0  0  0  0  0  0  0  0  0  0  0
  140.7908   82.6344  221.9245 H   0  0  0  0  0  0  0  0  0  0  0  0
  140.1813   80.7699  220.3493 H   0  0  0  0  0  0  0  0  0  0  0  0
  141.8431   81.5353  220.2260 H   0  0  0  0  0  0  0  0  0  0  0  0
  1  2  2  0
  2  3  1  0
  3  4  2  0
  4  5  1  0
  5  6  1  0
  6  7  2  0
  6  8  1  0
  5  9  2  0
  9 10  1  0
 10 11  2  0
 11 12  1  0
 12 13  2  0
 13 14  1  0
 14 15  2  0
 15 16  1  0
 16 17  2  0
 17 18  1  0
 18 19  2  0
 19 20  1  0
 13 21  1  0
 21 22  1  0
 22 23  1  0
 23 24  1  0
 24 25  1  0
 25 26  1  0
 26 27  1  0
 27 28  1  0
 21  2  1  0
 28 23  1  0
 11  3  1  0
 20 16  1  0
  4 29  1  0
  9 30  1  0
 10 31  1  0
 14 32  1  0
 15 33  1  0
 17 34  1  0
 18 35  1  0
 19 36  1  0
 22 37  1  0
 22 38  1  0
 23 39  1  0
 24 40  1  0
 24 41  1  0
 25 42  1  0
 25 43  1  0
 26 44  1  0
 27 45  1  0
 27 46  1  0
 28 47  1  0
 28 48  1  0
M  CHG  2   6   1   8  -1
M  END
>  <smiles>  (15) 
O=c1c2cc([N+](=O)[O-])ccc2nc(/C=C/c2ccco2)n1CC1CCNCC1

>  <score_type>  (15) 
oracle

>  <origin>  (15) 
autodockgpu

>  <m_score__min__energy>  (15) 
-7.6299999999999999

>  <m_primary>  (15) 
energy

>  <meeko>  (15) 
{"free_energy": -6.72, "intermolecular_energy": -8.51, "internal_energy": -1.81, "cluster_size": 8, "cluster_id": 3, "rank_in_cluster": 7}

>  <energy>  (15) 
-6.83

>  <cluster_rmsd>  (15) 
0.03

>  <rmsd>  (15) 
272.77

>  <cluster>  (15) 
3

$$$$

     RDKit          3D

 48 51  0  0  0  0  0  0  0  0999 V2000
  143.3220   77.2190  219.3460 O   0  0  0  0  0  0  0  0  0  0  0  0
  142.4740   76.4890  219.9220 C   0  0  0  0  0  0  0  0  0  0  0  0
  142.8070   75.1570  220.0890 C   0  0  0  0  0  0  0  0  0  0  0  0
  144.0070   74.6300  219.6540 C   0  0  0  0  0  0  0  0  0  0  0  0
  144.3280   73.2910  219.8300 C   0  0  0  0  0  0  0  0  0  0  0  0
  145.5840   72.8030  219.3590 N   0  0  0  0  0  0  0  0  0  0  0  0
  146.3220   72.2080  220.1700 O   0  0  0  0  0  0  0  0  0  0  0  0
  145.9730   72.9800  218.0530 O   0  0  0  0  0  0  0  0  0  0  0  0
  143.4220   72.4810  220.4530 C   0  0  0  0  0  0  0  0  0  0  0  0
  142.2190   72.9470  220.9050 C   0  0  0  0  0  0  0  0  0  0  0  0
  141.9370   74.2850  220.7110 C   0  0  0  0  0  0  0  0  0  0  0  0
  140.7620   74.8200  221.1320 N   0  0  0  0  0  0  0  0  0  0  0  0
  140.4530   76.1290  220.9590 C   0  0  0  0  0  0  0  0  0  0  0  0
  139.1510   76.5540  221.4660 C   0  0  0  0  0  0  0  0  0  0  0  0
  139.0410   76.9340  222.7190 C   0  0  0  0  0  0  0  0  0  0  0  0
  138.6420   78.3100  223.0350 C   0  0  0  0  0  0  0  0  0  0  0  0
  137.6180   79.0530  222.4850 C   0  0  0  0  0  0  0  0  0  0  0  0
  137.6000   80.3050  223.0790 C   0  0  0  0  0  0  0  0  0  0  0  0
  138.6540   80.2580  223.9950 C   0  0  0  0  0  0  0  0  0  0  0  0
  139.2250   79.0920  223.9340 O   0  0  0  0  0  0  0  0  0  0  0  0
  141.2880   76.9950  220.3550 N   0  0  0  0  0  0  0  0  0  0  0  0
  140.9480   78.3720  220.1820 C   0  0  0  0  0  0  0  0  0  0  0  0
  141.7680   79.3420  220.9750 C   0  0  0  0  0  0  0  0  0  0  0  0
  141.8820   79.0040  222.4290 C   0  0  0  0  0  0  0  0  0  0  0  0
  142.7050   80.0660  223.1240 C   0  0  0  0  0  0  0  0  0  0  0  0
  142.1510   81.3740  223.0000 N   0  0  0  0  0  0  0  0  0  0  0  0
  140.9930   81.4380  222.1450 C   0  0  0  0  0  0  0  0  0  0  0  0
  141.1570   80.7130  220.8480 C   0  0  0  0  0  0  0  0  0  0  0  0
  144.7299   75.2908  219.1532 H   0  0  0  0  0  0  0  0  0  0  0  0
  143.6684   71.4185  220.5958 H   0  0  0  0  0  0  0  0  0  0  0  0
  141.5013   72.2802  221.4053 H   0  0  0  0  0  0  0  0  0  0  0  0
  138.2713   76.5560  220.8056 H   0  0  0  0  0  0  0  0  0  0  0  0
  139.2479   76.2209  223.5305 H   0  0  0  0  0  0  0  0  0  0  0  0
  136.9274   78.7075  221.7016 H   0  0  0  0  0  0  0  0  0  0  0  0
  136.9150   81.1415  222.8764 H   0  0  0  0  0  0  0  0  0  0  0  0
  138.9536   81.0790  224.6630 H   0  0  0  0  0  0  0  0  0  0  0  0
  141.0665   78.6193  219.1167 H   0  0  0  0  0  0  0  0  0  0  0  0
  139.9164   78.4772  220.5490 H   0  0  0  0  0  0  0  0  0  0  0  0
  142.7860   79.2996  220.5603 H   0  0  0  0  0  0  0  0  0  0  0  0
  140.8783   78.9646  222.8773 H   0  0  0  0  0  0  0  0  0  0  0  0
  142.3700   78.0248  222.5434 H   0  0  0  0  0  0  0  0  0  0  0  0
  142.7712   79.8138  224.1927 H   0  0  0  0  0  0  0  0  0  0  0  0
  143.6938   80.0819  222.6422 H   0  0  0  0  0  0  0  0  0  0  0  0
  141.8680   81.7230  223.9410 H   0  0  0  0  0  0  0  0  0  0  0  0
  140.1406   80.9973  222.6828 H   0  0  0  0  0  0  0  0  0  0  0  0
  140.8350   82.4987  221.9002 H   0  0  0  0  0  0  0  0  0  0  0  0
  140.1646   80.6060  220.3857 H   0  0  0  0  0  0  0  0  0  0  0  0
  141.8511   81.3111  220.2393 H   0  0  0  0  0  0  0  0  0  0  0  0
  1  2  2  0
  2  3  1  0
  3  4  2  0
  4  5  1  0
  5  6  1  0
  6  7  2  0
  6  8  1  0
  5  9  2  0
  9 10  1  0
 10 11  2  0
 11 12  1  0
 12 13  2  0
 13 14  1  0
 14 15  2  0
 15 16  1  0
 16 17  2  0
 17 18  1  0
 18 19  2  0
 19 20  1  0
 13 21  1  0
 21 22  1  0
 22 23  1  0
 23 24  1  0
 24 25  1  0
 25 26  1  0
 26 27  1  0
 27 28  1  0
 21  2  1  0
 28 23  1  0
 11  3  1  0
 20 16  1  0
  4 29  1  0
  9 30  1  0
 10 31  1  0
 14 32  1  0
 15 33  1  0
 17 34  1  0
 18 35  1  0
 19 36  1  0
 22 37  1  0
 22 38  1  0
 23 39  1  0
 24 40  1  0
 24 41  1  0
 25 42  1  0
 25 43  1  0
 26 44  1  0
 27 45  1  0
 27 46  1  0
 28 47  1  0
 28 48  1  0
M  CHG  2   6   1   8  -1
M  END
>  <smiles>  (16) 
O=c1c2cc([N+](=O)[O-])ccc2nc(/C=C/c2ccco2)n1CC1CCNCC1

>  <score_type>  (16) 
oracle

>  <origin>  (16) 
autodockgpu

>  <m_score__min__energy>  (16) 
-7.6299999999999999

>  <m_primary>  (16) 
energy

>  <meeko>  (16) 
{"free_energy": -6.78, "intermolecular_energy": -8.57, "internal_energy": -1.85, "cluster_size": 10, "cluster_id": 2, "rank_in_cluster": 8}

>  <energy>  (16) 
-6.83

>  <cluster_rmsd>  (16) 
0.04

>  <rmsd>  (16) 
272.75

>  <cluster>  (16) 
3

$$$$

     RDKit          3D

 48 51  0  0  0  0  0  0  0  0999 V2000
  143.3580   77.3070  219.1380 O   0  0  0  0  0  0  0  0  0  0  0  0
  142.5450   76.6050  219.7940 C   0  0  0  0  0  0  0  0  0  0  0  0
  142.8850   75.2790  219.9940 C   0  0  0  0  0  0  0  0  0  0  0  0
  144.0550   74.7300  219.5090 C   0  0  0  0  0  0  0  0  0  0  0  0
  144.3830   73.3970  219.7190 C   0  0  0  0  0  0  0  0  0  0  0  0
  145.6080   72.8850  219.1920 N   0  0  0  0  0  0  0  0  0  0  0  0
  146.0260   73.3580  218.1170 O   0  0  0  0  0  0  0  0  0  0  0  0
  146.3080   71.9000  219.8470 O   0  0  0  0  0  0  0  0  0  0  0  0
  143.5150   72.6170  220.4280 C   0  0  0  0  0  0  0  0  0  0  0  0
  142.3430   73.1060  220.9320 C   0  0  0  0  0  0  0  0  0  0  0  0
  142.0520   74.4360  220.7020 C   0  0  0  0  0  0  0  0  0  0  0  0
  140.9070   74.9930  221.1710 N   0  0  0  0  0  0  0  0  0  0  0  0
  140.5890   76.2960  220.9650 C   0  0  0  0  0  0  0  0  0  0  0  0
  139.3220   76.7460  221.5320 C   0  0  0  0  0  0  0  0  0  0  0  0
  139.3110   77.3030  222.7230 C   0  0  0  0  0  0  0  0  0  0  0  0
  138.7370   78.6420  222.9000 C   0  0  0  0  0  0  0  0  0  0  0  0
  138.9790   79.5510  223.9080 C   0  0  0  0  0  0  0  0  0  0  0  0
  138.2210   80.6890  223.6810 C   0  0  0  0  0  0  0  0  0  0  0  0
  137.5300   80.4030  222.5010 C   0  0  0  0  0  0  0  0  0  0  0  0
  137.8580   79.2150  222.0890 O   0  0  0  0  0  0  0  0  0  0  0  0
  141.3880   77.1320  220.2780 N   0  0  0  0  0  0  0  0  0  0  0  0
  141.0410   78.5030  220.0700 C   0  0  0  0  0  0  0  0  0  0  0  0
  141.8270   79.4940  220.8710 C   0  0  0  0  0  0  0  0  0  0  0  0
  141.9930   79.1250  222.3120 C   0  0  0  0  0  0  0  0  0  0  0  0
  142.7740   80.2110  223.0170 C   0  0  0  0  0  0  0  0  0  0  0  0
  142.1500   81.4910  222.9410 N   0  0  0  0  0  0  0  0  0  0  0  0
  140.9710   81.5150  222.1140 C   0  0  0  0  0  0  0  0  0  0  0  0
  141.1410   80.8340  220.7950 C   0  0  0  0  0  0  0  0  0  0  0  0
  144.7478   75.3670  218.9395 H   0  0  0  0  0  0  0  0  0  0  0  0
  143.7677   71.5602  220.5990 H   0  0  0  0  0  0  0  0  0  0  0  0
  141.6555   72.4628  221.5010 H   0  0  0  0  0  0  0  0  0  0  0  0
  138.3855   76.6205  220.9687 H   0  0  0  0  0  0  0  0  0  0  0  0
  139.7316   76.7659  223.5859 H   0  0  0  0  0  0  0  0  0  0  0  0
  139.6632   79.3978  224.7556 H   0  0  0  0  0  0  0  0  0  0  0  0
  138.1743   81.6047  224.2888 H   0  0  0  0  0  0  0  0  0  0  0  0
  136.8201   81.0772  221.9996 H   0  0  0  0  0  0  0  0  0  0  0  0
  141.1907   78.7329  219.0048 H   0  0  0  0  0  0  0  0  0  0  0  0
  139.9974   78.6048  220.4024 H   0  0  0  0  0  0  0  0  0  0  0  0
  142.8358   79.5166  220.4331 H   0  0  0  0  0  0  0  0  0  0  0  0
  141.0036   79.0199  222.7811 H   0  0  0  0  0  0  0  0  0  0  0  0
  142.5351   78.1709  222.3889 H   0  0  0  0  0  0  0  0  0  0  0  0
  142.8780   79.9351  224.0767 H   0  0  0  0  0  0  0  0  0  0  0  0
  143.7487   80.2920  222.5137 H   0  0  0  0  0  0  0  0  0  0  0  0
  141.8710   81.8000  223.8970 H   0  0  0  0  0  0  0  0  0  0  0  0
  140.1560   81.0159  222.6587 H   0  0  0  0  0  0  0  0  0  0  0  0
  140.7525   82.5719  221.9011 H   0  0  0  0  0  0  0  0  0  0  0  0
  140.1446   80.6860  220.3530 H   0  0  0  0  0  0  0  0  0  0  0  0
  141.7872   81.4839  220.1867 H   0  0  0  0  0  0  0  0  0  0  0  0
  1  2  2  0
  2  3  1  0
  3  4  2  0
  4  5  1  0
  5  6  1  0
  6  7  2  0
  6  8  1  0
  5  9  2  0
  9 10  1  0
 10 11  2  0
 11 12  1  0
 12 13  2  0
 13 14  1  0
 14 15  2  0
 15 16  1  0
 16 17  2  0
 17 18  1  0
 18 19  2  0
 19 20  1  0
 13 21  1  0
 21 22  1  0
 22 23  1  0
 23 24  1  0
 24 25  1  0
 25 26  1  0
 26 27  1  0
 27 28  1  0
 21  2  1  0
 28 23  1  0
 11  3  1  0
 20 16  1  0
  4 29  1  0
  9 30  1  0
 10 31  1  0
 14 32  1  0
 15 33  1  0
 17 34  1  0
 18 35  1  0
 19 36  1  0
 22 37  1  0
 22 38  1  0
 23 39  1  0
 24 40  1  0
 24 41  1  0
 25 42  1  0
 25 43  1  0
 26 44  1  0
 27 45  1  0
 27 46  1  0
 28 47  1  0
 28 48  1  0
M  CHG  2   6   1   8  -1
M  END
>  <smiles>  (17) 
O=c1c2cc([N+](=O)[O-])ccc2nc(/C=C/c2ccco2)n1CC1CCNCC1

>  <score_type>  (17) 
oracle

>  <origin>  (17) 
autodockgpu

>  <m_score__min__energy>  (17) 
-7.6299999999999999

>  <m_primary>  (17) 
energy

>  <meeko>  (17) 
{"free_energy": -6.73, "intermolecular_energy": -8.52, "internal_energy": -1.79, "cluster_size": 8, "cluster_id": 3, "rank_in_cluster": 6}

>  <energy>  (17) 
-6.83

>  <cluster_rmsd>  (17) 
0.04

>  <rmsd>  (17) 
272.76

>  <cluster>  (17) 
3

$$$$

     RDKit          3D

 48 51  0  0  0  0  0  0  0  0999 V2000
  143.4000   77.4360  219.0440 O   0  0  0  0  0  0  0  0  0  0  0  0
  142.5770   76.7630  219.7180 C   0  0  0  0  0  0  0  0  0  0  0  0
  142.9010   75.4390  219.9570 C   0  0  0  0  0  0  0  0  0  0  0  0
  144.0660   74.8620  219.4900 C   0  0  0  0  0  0  0  0  0  0  0  0
  144.3770   73.5320  219.7390 C   0  0  0  0  0  0  0  0  0  0  0  0
  145.5960   72.9900  219.2300 N   0  0  0  0  0  0  0  0  0  0  0  0
  146.6670   73.3910  219.7270 O   0  0  0  0  0  0  0  0  0  0  0  0
  145.5940   72.0550  218.2240 O   0  0  0  0  0  0  0  0  0  0  0  0
  143.4980   72.7840  220.4680 C   0  0  0  0  0  0  0  0  0  0  0  0
  142.3310   73.3010  220.9550 C   0  0  0  0  0  0  0  0  0  0  0  0
  142.0570   74.6270  220.6870 C   0  0  0  0  0  0  0  0  0  0  0  0
  140.9170   75.2110  221.1370 N   0  0  0  0  0  0  0  0  0  0  0  0
  140.6160   76.5110  220.8930 C   0  0  0  0  0  0  0  0  0  0  0  0
  139.3540   76.9930  221.4440 C   0  0  0  0  0  0  0  0  0  0  0  0
  139.2870   77.3150  222.7170 C   0  0  0  0  0  0  0  0  0  0  0  0
  138.7790   78.6330  223.1130 C   0  0  0  0  0  0  0  0  0  0  0  0
  137.7220   79.3390  222.5800 C   0  0  0  0  0  0  0  0  0  0  0  0
  137.5930   80.5410  223.2580 C   0  0  0  0  0  0  0  0  0  0  0  0
  138.6200   80.5040  224.2060 C   0  0  0  0  0  0  0  0  0  0  0  0
  139.2760   79.3890  224.0840 O   0  0  0  0  0  0  0  0  0  0  0  0
  141.4260   77.3180  220.1830 N   0  0  0  0  0  0  0  0  0  0  0  0
  141.0970   78.6860  219.9360 C   0  0  0  0  0  0  0  0  0  0  0  0
  141.8040   79.6850  220.7980 C   0  0  0  0  0  0  0  0  0  0  0  0
  141.9630   79.2600  222.2250 C   0  0  0  0  0  0  0  0  0  0  0  0
  142.6620   80.3570  222.9960 C   0  0  0  0  0  0  0  0  0  0  0  0
  141.9610   81.5990  222.9630 N   0  0  0  0  0  0  0  0  0  0  0  0
  140.8000   81.5910  222.1120 C   0  0  0  0  0  0  0  0  0  0  0  0
  141.0390   80.9830  220.7670 C   0  0  0  0  0  0  0  0  0  0  0  0
  144.7675   75.4739  218.9040 H   0  0  0  0  0  0  0  0  0  0  0  0
  143.7374   71.7296  220.6701 H   0  0  0  0  0  0  0  0  0  0  0  0
  141.6344   72.6825  221.5400 H   0  0  0  0  0  0  0  0  0  0  0  0
  138.4668   77.0861  220.8004 H   0  0  0  0  0  0  0  0  0  0  0  0
  139.6116   76.5968  223.4843 H   0  0  0  0  0  0  0  0  0  0  0  0
  137.0834   79.0026  221.7499 H   0  0  0  0  0  0  0  0  0  0  0  0
  136.8544   81.3385  223.0894 H   0  0  0  0  0  0  0  0  0  0  0  0
  138.8382   81.2942  224.9395 H   0  0  0  0  0  0  0  0  0  0  0  0
  141.3424   78.9095  218.8873 H   0  0  0  0  0  0  0  0  0  0  0  0
  140.0274   78.7866  220.1724 H   0  0  0  0  0  0  0  0  0  0  0  0
  142.8179   79.7893  220.3842 H   0  0  0  0  0  0  0  0  0  0  0  0
  140.9725   79.0742  222.6660 H   0  0  0  0  0  0  0  0  0  0  0  0
  142.5605   78.3376  222.2713 H   0  0  0  0  0  0  0  0  0  0  0  0
  142.7616   80.0391  224.0443 H   0  0  0  0  0  0  0  0  0  0  0  0
  143.6402   80.5200  222.5200 H   0  0  0  0  0  0  0  0  0  0  0  0
  141.6450   81.8460  223.9260 H   0  0  0  0  0  0  0  0  0  0  0  0
  140.0061   81.0190  222.6146 H   0  0  0  0  0  0  0  0  0  0  0  0
  140.5210   82.6415  221.9426 H   0  0  0  0  0  0  0  0  0  0  0  0
  140.0629   80.7960  220.2956 H   0  0  0  0  0  0  0  0  0  0  0  0
  141.6568   81.6983  220.2042 H   0  0  0  0  0  0  0  0  0  0  0  0
  1  2  2  0
  2  3  1  0
  3  4  2  0
  4  5  1  0
  5  6  1  0
  6  7  2  0
  6  8  1  0
  5  9  2  0
  9 10  1  0
 10 11  2  0
 11 12  1  0
 12 13  2  0
 13 14  1  0
 14 15  2  0
 15 16  1  0
 16 17  2  0
 17 18  1  0
 18 19  2  0
 19 20  1  0
 13 21  1  0
 21 22  1  0
 22 23  1  0
 23 24  1  0
 24 25  1  0
 25 26  1  0
 26 27  1  0
 27 28  1  0
 21  2  1  0
 28 23  1  0
 11  3  1  0
 20 16  1  0
  4 29  1  0
  9 30  1  0
 10 31  1  0
 14 32  1  0
 15 33  1  0
 17 34  1  0
 18 35  1  0
 19 36  1  0
 22 37  1  0
 22 38  1  0
 23 39  1  0
 24 40  1  0
 24 41  1  0
 25 42  1  0
 25 43  1  0
 26 44  1  0
 27 45  1  0
 27 46  1  0
 28 47  1  0
 28 48  1  0
M  CHG  2   6   1   8  -1
M  END
>  <smiles>  (18) 
O=c1c2cc([N+](=O)[O-])ccc2nc(/C=C/c2ccco2)n1CC1CCNCC1

>  <score_type>  (18) 
oracle

>  <origin>  (18) 
autodockgpu

>  <m_score__min__energy>  (18) 
-7.6299999999999999

>  <m_primary>  (18) 
energy

>  <meeko>  (18) 
{"free_energy": -6.84, "intermolecular_energy": -8.63, "internal_energy": -1.86, "cluster_size": 8, "cluster_id": 3, "rank_in_cluster": 1}

>  <energy>  (18) 
-6.73

>  <cluster_rmsd>  (18) 
0.68

>  <rmsd>  (18) 
272.69

>  <cluster>  (18) 
3

$$$$

     RDKit          3D

 48 51  0  0  0  0  0  0  0  0999 V2000
  143.4100   77.1840  219.3060 O   0  0  0  0  0  0  0  0  0  0  0  0
  142.5610   76.4700  219.9010 C   0  0  0  0  0  0  0  0  0  0  0  0
  142.8910   75.1410  220.0970 C   0  0  0  0  0  0  0  0  0  0  0  0
  144.0890   74.6020  219.6710 C   0  0  0  0  0  0  0  0  0  0  0  0
  144.4070   73.2660  219.8750 C   0  0  0  0  0  0  0  0  0  0  0  0
  145.6610   72.7640  219.4120 N   0  0  0  0  0  0  0  0  0  0  0  0
  146.6940   73.3920  219.7210 O   0  0  0  0  0  0  0  0  0  0  0  0
  145.7340   71.6250  218.6480 O   0  0  0  0  0  0  0  0  0  0  0  0
  143.5010   72.4730  220.5190 C   0  0  0  0  0  0  0  0  0  0  0  0
  142.3000   72.9520  220.9620 C   0  0  0  0  0  0  0  0  0  0  0  0
  142.0210   74.2850  220.7400 C   0  0  0  0  0  0  0  0  0  0  0  0
  140.8490   74.8320  221.1520 N   0  0  0  0  0  0  0  0  0  0  0  0
  140.5420   76.1380  220.9500 C   0  0  0  0  0  0  0  0  0  0  0  0
  139.2430   76.5770  221.4510 C   0  0  0  0  0  0  0  0  0  0  0  0
  139.1230   76.9280  222.7120 C   0  0  0  0  0  0  0  0  0  0  0  0
  138.6880   78.2860  223.0570 C   0  0  0  0  0  0  0  0  0  0  0  0
  137.5820   78.9720  222.6030 C   0  0  0  0  0  0  0  0  0  0  0  0
  137.5580   80.2280  223.1880 C   0  0  0  0  0  0  0  0  0  0  0  0
  138.6950   80.2430  223.9990 C   0  0  0  0  0  0  0  0  0  0  0  0
  139.3150   79.1060  223.8900 O   0  0  0  0  0  0  0  0  0  0  0  0
  141.3770   76.9880  220.3260 N   0  0  0  0  0  0  0  0  0  0  0  0
  141.0400   78.3620  220.1230 C   0  0  0  0  0  0  0  0  0  0  0  0
  141.8250   79.3440  220.9360 C   0  0  0  0  0  0  0  0  0  0  0  0
  141.9050   79.0090  222.3930 C   0  0  0  0  0  0  0  0  0  0  0  0
  142.6940   80.0830  223.1080 C   0  0  0  0  0  0  0  0  0  0  0  0
  142.1260   81.3830  222.9670 N   0  0  0  0  0  0  0  0  0  0  0  0
  140.9900   81.4310  222.0820 C   0  0  0  0  0  0  0  0  0  0  0  0
  141.1990   80.7060  220.7910 C   0  0  0  0  0  0  0  0  0  0  0  0
  144.8125   75.2502  219.1549 H   0  0  0  0  0  0  0  0  0  0  0  0
  143.7458   71.4138  220.6868 H   0  0  0  0  0  0  0  0  0  0  0  0
  141.5812   72.2979  221.4773 H   0  0  0  0  0  0  0  0  0  0  0  0
  138.3726   76.6137  220.7794 H   0  0  0  0  0  0  0  0  0  0  0  0
  139.3487   76.2037  223.5085 H   0  0  0  0  0  0  0  0  0  0  0  0
  136.8382   78.5848  221.8910 H   0  0  0  0  0  0  0  0  0  0  0  0
  136.8158   81.0275  223.0465 H   0  0  0  0  0  0  0  0  0  0  0  0
  139.0153   81.0847  224.6306 H   0  0  0  0  0  0  0  0  0  0  0  0
  141.1999   78.5969  219.0603 H   0  0  0  0  0  0  0  0  0  0  0  0
  139.9943   78.4681  220.4475 H   0  0  0  0  0  0  0  0  0  0  0  0
  142.8541   79.3153  220.5485 H   0  0  0  0  0  0  0  0  0  0  0  0
  140.8903   78.9559  222.8145 H   0  0  0  0  0  0  0  0  0  0  0  0
  142.4035   78.0369  222.5217 H   0  0  0  0  0  0  0  0  0  0  0  0
  142.7347   79.8332  224.1785 H   0  0  0  0  0  0  0  0  0  0  0  0
  143.6950   80.1118  222.6529 H   0  0  0  0  0  0  0  0  0  0  0  0
  141.8130   81.7300  223.9000 H   0  0  0  0  0  0  0  0  0  0  0  0
  140.1295   80.9798  222.5977 H   0  0  0  0  0  0  0  0  0  0  0  0
  140.8237   82.4891  221.8317 H   0  0  0  0  0  0  0  0  0  0  0  0
  140.2210   80.5847  220.3024 H   0  0  0  0  0  0  0  0  0  0  0  0
  141.9013   81.3128  220.2006 H   0  0  0  0  0  0  0  0  0  0  0  0
  1  2  2  0
  2  3  1  0
  3  4  2  0
  4  5  1  0
  5  6  1  0
  6  7  2  0
  6  8  1  0
  5  9  2  0
  9 10  1  0
 10 11  2  0
 11 12  1  0
 12 13  2  0
 13 14  1  0
 14 15  2  0
 15 16  1  0
 16 17  2  0
 17 18  1  0
 18 19  2  0
 19 20  1  0
 13 21  1  0
 21 22  1  0
 22 23  1  0
 23 24  1  0
 24 25  1  0
 25 26  1  0
 26 27  1  0
 27 28  1  0
 21  2  1  0
 28 23  1  0
 11  3  1  0
 20 16  1  0
  4 29  1  0
  9 30  1  0
 10 31  1  0
 14 32  1  0
 15 33  1  0
 17 34  1  0
 18 35  1  0
 19 36  1  0
 22 37  1  0
 22 38  1  0
 23 39  1  0
 24 40  1  0
 24 41  1  0
 25 42  1  0
 25 43  1  0
 26 44  1  0
 27 45  1  0
 27 46  1  0
 28 47  1  0
 28 48  1  0
M  CHG  2   6   1   8  -1
M  END
>  <smiles>  (19) 
O=c1c2cc([N+](=O)[O-])ccc2nc(/C=C/c2ccco2)n1CC1CCNCC1

>  <score_type>  (19) 
oracle

>  <origin>  (19) 
autodockgpu

>  <m_score__min__energy>  (19) 
-7.6299999999999999

>  <m_primary>  (19) 
energy

>  <meeko>  (19) 
{"free_energy": -6.85, "intermolecular_energy": -8.64, "internal_energy": -1.83, "cluster_size": 10, "cluster_id": 2, "rank_in_cluster": 4}

>  <energy>  (19) 
-6.72

>  <cluster_rmsd>  (19) 
0.58

>  <rmsd>  (19) 
272.72

>  <cluster>  (19) 
3

$$$$

     RDKit          3D

 48 51  0  0  0  0  0  0  0  0999 V2000
  143.4070   77.4310  219.0170 O   0  0  0  0  0  0  0  0  0  0  0  0
  142.5870   76.7660  219.7030 C   0  0  0  0  0  0  0  0  0  0  0  0
  142.9100   75.4440  219.9520 C   0  0  0  0  0  0  0  0  0  0  0  0
  144.0710   74.8610  219.4830 C   0  0  0  0  0  0  0  0  0  0  0  0
  144.3810   73.5330  219.7410 C   0  0  0  0  0  0  0  0  0  0  0  0
  145.5960   72.9840  219.2300 N   0  0  0  0  0  0  0  0  0  0  0  0
  146.6700   73.3710  219.7310 O   0  0  0  0  0  0  0  0  0  0  0  0
  145.5870   72.0570  218.2150 O   0  0  0  0  0  0  0  0  0  0  0  0
  143.5060   72.7920  220.4830 C   0  0  0  0  0  0  0  0  0  0  0  0
  142.3420   73.3160  220.9730 C   0  0  0  0  0  0  0  0  0  0  0  0
  142.0690   74.6400  220.6950 C   0  0  0  0  0  0  0  0  0  0  0  0
  140.9330   75.2300  221.1470 N   0  0  0  0  0  0  0  0  0  0  0  0
  140.6330   76.5280  220.8930 C   0  0  0  0  0  0  0  0  0  0  0  0
  139.3750   77.0170  221.4480 C   0  0  0  0  0  0  0  0  0  0  0  0
  139.3120   77.3300  222.7230 C   0  0  0  0  0  0  0  0  0  0  0  0
  138.7980   78.6430  223.1300 C   0  0  0  0  0  0  0  0  0  0  0  0
  137.7110   79.3300  222.6310 C   0  0  0  0  0  0  0  0  0  0  0  0
  137.5890   80.5340  223.3070 C   0  0  0  0  0  0  0  0  0  0  0  0
  138.6490   80.5170  224.2170 C   0  0  0  0  0  0  0  0  0  0  0  0
  139.3170   79.4120  224.0780 O   0  0  0  0  0  0  0  0  0  0  0  0
  141.4400   77.3270  220.1710 N   0  0  0  0  0  0  0  0  0  0  0  0
  141.1110   78.6940  219.9130 C   0  0  0  0  0  0  0  0  0  0  0  0
  141.8140   79.6980  220.7730 C   0  0  0  0  0  0  0  0  0  0  0  0
  141.9790   79.2760  222.1990 C   0  0  0  0  0  0  0  0  0  0  0  0
  142.6720   80.3790  222.9680 C   0  0  0  0  0  0  0  0  0  0  0  0
  141.9630   81.6160  222.9350 N   0  0  0  0  0  0  0  0  0  0  0  0
  140.8000   81.5990  222.0860 C   0  0  0  0  0  0  0  0  0  0  0  0
  141.0400   80.9910  220.7420 C   0  0  0  0  0  0  0  0  0  0  0  0
  144.7701   75.4668  218.8878 H   0  0  0  0  0  0  0  0  0  0  0  0
  143.7455   71.7392  220.6933 H   0  0  0  0  0  0  0  0  0  0  0  0
  141.6478   72.7040  221.5677 H   0  0  0  0  0  0  0  0  0  0  0  0
  138.4883   77.1226  220.8057 H   0  0  0  0  0  0  0  0  0  0  0  0
  139.6441   76.6086  223.4841 H   0  0  0  0  0  0  0  0  0  0  0  0
  137.0480   78.9791  221.8265 H   0  0  0  0  0  0  0  0  0  0  0  0
  136.8334   81.3200  223.1610 H   0  0  0  0  0  0  0  0  0  0  0  0
  138.8813   81.3145  224.9381 H   0  0  0  0  0  0  0  0  0  0  0  0
  141.3616   78.9111  218.8642 H   0  0  0  0  0  0  0  0  0  0  0  0
  140.0400   78.7961  220.1423 H   0  0  0  0  0  0  0  0  0  0  0  0
  142.8266   79.8079  220.3575 H   0  0  0  0  0  0  0  0  0  0  0  0
  140.9908   79.0835  222.6422 H   0  0  0  0  0  0  0  0  0  0  0  0
  142.5833   78.3580  222.2448 H   0  0  0  0  0  0  0  0  0  0  0  0
  142.7754   80.0629  224.0165 H   0  0  0  0  0  0  0  0  0  0  0  0
  143.6482   80.5481  222.4900 H   0  0  0  0  0  0  0  0  0  0  0  0
  141.6470   81.8620  223.8980 H   0  0  0  0  0  0  0  0  0  0  0  0
  140.0110   81.0225  222.5910 H   0  0  0  0  0  0  0  0  0  0  0  0
  140.5138   82.6474  221.9156 H   0  0  0  0  0  0  0  0  0  0  0  0
  140.0641   80.7967  220.2730 H   0  0  0  0  0  0  0  0  0  0  0  0
  141.6517   81.7097  220.1769 H   0  0  0  0  0  0  0  0  0  0  0  0
  1  2  2  0
  2  3  1  0
  3  4  2  0
  4  5  1  0
  5  6  1  0
  6  7  2  0
  6  8  1  0
  5  9  2  0
  9 10  1  0
 10 11  2  0
 11 12  1  0
 12 13  2  0
 13 14  1  0
 14 15  2  0
 15 16  1  0
 16 17  2  0
 17 18  1  0
 18 19  2  0
 19 20  1  0
 13 21  1  0
 21 22  1  0
 22 23  1  0
 23 24  1  0
 24 25  1  0
 25 26  1  0
 26 27  1  0
 27 28  1  0
 21  2  1  0
 28 23  1  0
 11  3  1  0
 20 16  1  0
  4 29  1  0
  9 30  1  0
 10 31  1  0
 14 32  1  0
 15 33  1  0
 17 34  1  0
 18 35  1  0
 19 36  1  0
 22 37  1  0
 22 38  1  0
 23 39  1  0
 24 40  1  0
 24 41  1  0
 25 42  1  0
 25 43  1  0
 26 44  1  0
 27 45  1  0
 27 46  1  0
 28 47  1  0
 28 48  1  0
M  CHG  2   6   1   8  -1
M  END
>  <smiles>  (20) 
O=c1c2cc([N+](=O)[O-])ccc2nc(/C=C/c2ccco2)n1CC1CCNCC1

>  <score_type>  (20) 
oracle

>  <origin>  (20) 
autodockgpu

>  <m_score__min__energy>  (20) 
-7.6299999999999999

>  <m_primary>  (20) 
energy

>  <meeko>  (20) 
{"free_energy": -6.83, "intermolecular_energy": -8.62, "internal_energy": -1.86, "cluster_size": 8, "cluster_id": 3, "rank_in_cluster": 3}

>  <energy>  (20) 
-6.72

>  <cluster_rmsd>  (20) 
0.62

>  <rmsd>  (20) 
272.7

>  <cluster>  (20) 
3

$$$$
