
     RDKit          3D

 53 56  0  0  0  0  0  0  0  0999 V2000
  139.1390   74.9080  222.3560 O   0  0  0  0  0  0  0  0  0  0  0  0
  140.1840   75.6070  222.1490 C   0  0  0  0  0  0  0  0  0  0  0  0
  141.2940   74.9360  221.5730 N   0  0  0  0  0  0  0  0  0  0  0  0
  141.2470   73.5310  221.2370 C   0  0  0  0  0  0  0  0  0  0  0  0
  141.7190   73.2690  219.8650 C   0  0  0  0  0  0  0  0  0  0  0  0
  140.9020   72.7970  219.0430 O   0  0  0  0  0  0  0  0  0  0  0  0
  143.0740   73.5700  219.5620 N   0  0  0  0  0  0  0  0  0  0  0  0
  144.2700   72.7730  219.8370 C   0  0  0  0  0  0  0  0  0  0  0  0
  144.9610   72.8550  218.4930 C   0  0  2  0  0  0  0  0  0  0  0  0
  146.2990   73.1200  218.6890 O   0  0  0  0  0  0  0  0  0  0  0  0
  144.3780   74.0730  217.7740 C   0  0  0  0  0  0  0  0  0  0  0  0
  143.6090   74.7680  218.8900 C   0  0  1  0  0  0  0  0  0  0  0  0
  142.5290   75.6470  218.3780 C   0  0  0  0  0  0  0  0  0  0  0  0
  141.7840   76.2900  219.3610 O   0  0  0  0  0  0  0  0  0  0  0  0
  141.2750   77.5450  219.4140 C   0  0  0  0  0  0  0  0  0  0  0  0
  142.1910   78.5890  219.6090 C   0  0  0  0  0  0  0  0  0  0  0  0
  141.7980   79.9040  219.6790 C   0  0  0  0  0  0  0  0  0  0  0  0
  140.4680   80.2390  219.5570 C   0  0  0  0  0  0  0  0  0  0  0  0
  139.9350   81.9050  219.6420 Cl  0  0  0  0  0  0  0  0  0  0  0  0
  139.5370   79.2430  219.3650 C   0  0  0  0  0  0  0  0  0  0  0  0
  139.9630   77.9190  219.2980 C   0  0  0  0  0  0  0  0  0  0  0  0
  140.2450   77.0230  222.4830 C   0  0  0  0  0  0  0  0  0  0  0  0
  139.0580   77.7160  222.6050 C   0  0  0  0  0  0  0  0  0  0  0  0
  139.1100   79.0710  222.9240 C   0  0  0  0  0  0  0  0  0  0  0  0
  140.3290   79.6830  223.1090 C   0  0  0  0  0  0  0  0  0  0  0  0
  140.4440   81.0230  223.4280 C   0  0  0  0  0  0  0  0  0  0  0  0
  141.6640   81.6360  223.6130 C   0  0  0  0  0  0  0  0  0  0  0  0
  142.7930   80.8620  223.4700 C   0  0  0  0  0  0  0  0  0  0  0  0
  142.7130   79.5040  223.1480 C   0  0  0  0  0  0  0  0  0  0  0  0
  141.4620   78.9190  222.9690 C   0  0  0  0  0  0  0  0  0  0  0  0
  141.4510   77.6130  222.6620 N   0  0  0  0  0  0  0  0  0  0  0  0
  142.1750   75.4580  221.3820 H   0  0  0  0  0  0  0  0  0  0  0  0
  141.8838   72.9769  221.9423 H   0  0  0  0  0  0  0  0  0  0  0  0
  140.1987   73.2040  221.3011 H   0  0  0  0  0  0  0  0  0  0  0  0
  144.8806   73.2172  220.6369 H   0  0  0  0  0  0  0  0  0  0  0  0
  144.0719   71.7511  220.1925 H   0  0  0  0  0  0  0  0  0  0  0  0
  144.8274   71.9186  217.9315 H   0  0  0  0  0  0  0  0  0  0  0  0
  146.4030   74.1030  218.6960 H   0  0  0  0  0  0  0  0  0  0  0  0
  145.1737   74.7195  217.3754 H   0  0  0  0  0  0  0  0  0  0  0  0
  143.7568   73.8162  216.9033 H   0  0  0  0  0  0  0  0  0  0  0  0
  144.2004   75.4508  219.5177 H   0  0  0  0  0  0  0  0  0  0  0  0
  142.9878   76.4158  217.7389 H   0  0  0  0  0  0  0  0  0  0  0  0
  141.8287   74.9936  217.8371 H   0  0  0  0  0  0  0  0  0  0  0  0
  143.2594   78.3472  219.7092 H   0  0  0  0  0  0  0  0  0  0  0  0
  142.5493   80.6925  219.8332 H   0  0  0  0  0  0  0  0  0  0  0  0
  138.4697   79.4901  219.2658 H   0  0  0  0  0  0  0  0  0  0  0  0
  139.2077   77.1343  219.1442 H   0  0  0  0  0  0  0  0  0  0  0  0
  138.0930   77.2101  222.4538 H   0  0  0  0  0  0  0  0  0  0  0  0
  138.1803   79.6498  223.0277 H   0  0  0  0  0  0  0  0  0  0  0  0
  139.5280   81.6219  223.5382 H   0  0  0  0  0  0  0  0  0  0  0  0
  141.7331   82.7044  223.8656 H   0  0  0  0  0  0  0  0  0  0  0  0
  143.7816   81.3228  223.6124 H   0  0  0  0  0  0  0  0  0  0  0  0
  143.6283   78.9040  223.0372 H   0  0  0  0  0  0  0  0  0  0  0  0
  1  2  2  0
  2  3  1  0
  3  4  1  0
  4  5  1  0
  5  6  2  0
  5  7  1  0
  7  8  1  0
  8  9  1  0
  9 10  1  0
  9 11  1  0
 11 12  1  0
 12 13  1  0
 13 14  1  0
 14 15  1  0
 15 16  2  0
 16 17  1  0
 17 18  2  0
 18 19  1  0
 18 20  1  0
 20 21  2  0
  2 22  1  0
 22 23  2  0
 23 24  1  0
 24 25  2  0
 25 26  1  0
 26 27  2  0
 27 28  1  0
 28 29  2  0
 29 30  1  0
 30 31  2  0
 12  7  1  0
 21 15  1  0
 31 22  1  0
 30 25  1  0
  3 32  1  0
  4 33  1  0
  4 34  1  0
  8 35  1  0
  8 36  1  0
  9 37  1  6
 10 38  1  0
 11 39  1  0
 11 40  1  0
 12 41  1  1
 13 42  1  0
 13 43  1  0
 16 44  1  0
 17 45  1  0
 20 46  1  0
 21 47  1  0
 23 48  1  0
 24 49  1  0
 26 50  1  0
 27 51  1  0
 28 52  1  0
 29 53  1  0
M  END
>  <smiles>  (1) 
O=C(NCC(=O)N1C[C@H](O)C[C@H]1COc1ccc(Cl)cc1)c1ccc2ccccc2n1

>  <score_type>  (1) 
oracle

>  <origin>  (1) 
autodockgpu

>  <m_score__min__energy>  (1) 
-9.2599999999999998

>  <m_primary>  (1) 
energy

>  <meeko>  (1) 
{"free_energy": -6.86, "intermolecular_energy": -9.25, "internal_energy": -3.88, "cluster_size": 10, "cluster_id": 3, "rank_in_cluster": 7}

>  <energy>  (1) 
-9.26

>  <cluster_rmsd>  (1) 
0.0

>  <rmsd>  (1) 
270.35

>  <cluster>  (1) 
1

$$$$

     RDKit          3D

 53 56  0  0  0  0  0  0  0  0999 V2000
  138.9700   75.0640  221.7770 O   0  0  0  0  0  0  0  0  0  0  0  0
  140.0940   75.6190  222.0040 C   0  0  0  0  0  0  0  0  0  0  0  0
  141.2450   74.8020  221.8670 N   0  0  0  0  0  0  0  0  0  0  0  0
  141.1540   73.4090  221.4900 C   0  0  0  0  0  0  0  0  0  0  0  0
  141.6720   73.1640  220.1320 C   0  0  0  0  0  0  0  0  0  0  0  0
  141.4040   72.0670  219.5910 O   0  0  0  0  0  0  0  0  0  0  0  0
  142.4440   74.1890  219.5210 N   0  0  0  0  0  0  0  0  0  0  0  0
  141.9790   75.3980  218.8400 C   0  0  0  0  0  0  0  0  0  0  0  0
  142.8870   76.4280  219.4760 C   0  0  2  0  0  0  0  0  0  0  0  0
  143.3830   77.2590  218.4950 O   0  0  0  0  0  0  0  0  0  0  0  0
  144.0840   75.6660  220.0460 C   0  0  0  0  0  0  0  0  0  0  0  0
  143.9110   74.2850  219.4260 C   0  0  1  0  0  0  0  0  0  0  0  0
  144.5900   73.2200  220.2050 C   0  0  0  0  0  0  0  0  0  0  0  0
  145.2800   72.2860  219.4390 O   0  0  0  0  0  0  0  0  0  0  0  0
  145.1580   70.9390  219.3580 C   0  0  0  0  0  0  0  0  0  0  0  0
  146.2990   70.2250  218.9590 C   0  0  0  0  0  0  0  0  0  0  0  0
  146.3020   68.8560  218.8410 C   0  0  0  0  0  0  0  0  0  0  0  0
  145.1630   68.1330  219.1160 C   0  0  0  0  0  0  0  0  0  0  0  0
  145.1340   66.3880  218.9740 Cl  0  0  0  0  0  0  0  0  0  0  0  0
  144.0220   68.7960  219.5100 C   0  0  0  0  0  0  0  0  0  0  0  0
  144.0470   70.1830  219.6220 C   0  0  0  0  0  0  0  0  0  0  0  0
  140.2000   77.0210  222.3850 C   0  0  0  0  0  0  0  0  0  0  0  0
  139.0350   77.7360  222.5700 C   0  0  0  0  0  0  0  0  0  0  0  0
  139.1300   79.0770  222.9350 C   0  0  0  0  0  0  0  0  0  0  0  0
  140.3690   79.6540  223.1000 C   0  0  0  0  0  0  0  0  0  0  0  0
  140.5270   80.9790  223.4610 C   0  0  0  0  0  0  0  0  0  0  0  0
  141.7660   81.5570  223.6260 C   0  0  0  0  0  0  0  0  0  0  0  0
  142.8710   80.7630  223.4190 C   0  0  0  0  0  0  0  0  0  0  0  0
  142.7470   79.4180  223.0530 C   0  0  0  0  0  0  0  0  0  0  0  0
  141.4780   78.8690  222.8960 C   0  0  0  0  0  0  0  0  0  0  0  0
  141.4250   77.5750  222.5440 N   0  0  0  0  0  0  0  0  0  0  0  0
  142.1920   75.2030  222.0410 H   0  0  0  0  0  0  0  0  0  0  0  0
  141.7371   72.8099  222.2049 H   0  0  0  0  0  0  0  0  0  0  0  0
  140.0914   73.1249  221.5021 H   0  0  0  0  0  0  0  0  0  0  0  0
  142.1307   75.3371  217.7522 H   0  0  0  0  0  0  0  0  0  0  0  0
  140.9033   75.6027  218.9452 H   0  0  0  0  0  0  0  0  0  0  0  0
  142.3427   77.0056  220.2377 H   0  0  0  0  0  0  0  0  0  0  0  0
  143.8690   77.9890  218.9500 H   0  0  0  0  0  0  0  0  0  0  0  0
  145.0339   76.1261  219.7363 H   0  0  0  0  0  0  0  0  0  0  0  0
  144.1179   75.6554  221.1454 H   0  0  0  0  0  0  0  0  0  0  0  0
  144.3395   74.1603  218.4206 H   0  0  0  0  0  0  0  0  0  0  0  0
  145.3071   73.6997  220.8874 H   0  0  0  0  0  0  0  0  0  0  0  0
  143.7968   72.6658  220.7281 H   0  0  0  0  0  0  0  0  0  0  0  0
  147.2215   70.7800  218.7333 H   0  0  0  0  0  0  0  0  0  0  0  0
  147.2183   68.3355  218.5255 H   0  0  0  0  0  0  0  0  0  0  0  0
  143.1020   68.2360  219.7335 H   0  0  0  0  0  0  0  0  0  0  0  0
  143.1280   70.6980  219.9385 H   0  0  0  0  0  0  0  0  0  0  0  0
  138.0537   77.2583  222.4325 H   0  0  0  0  0  0  0  0  0  0  0  0
  138.2185   79.6727  223.0908 H   0  0  0  0  0  0  0  0  0  0  0  0
  139.6297   81.5945  223.6224 H   0  0  0  0  0  0  0  0  0  0  0  0
  141.8687   82.6140  223.9126 H   0  0  0  0  0  0  0  0  0  0  0  0
  143.8746   81.1956  223.5441 H   0  0  0  0  0  0  0  0  0  0  0  0
  143.6433   78.8012  222.8911 H   0  0  0  0  0  0  0  0  0  0  0  0
  1  2  2  0
  2  3  1  0
  3  4  1  0
  4  5  1  0
  5  6  2  0
  5  7  1  0
  7  8  1  0
  8  9  1  0
  9 10  1  0
  9 11  1  0
 11 12  1  0
 12 13  1  0
 13 14  1  0
 14 15  1  0
 15 16  2  0
 16 17  1  0
 17 18  2  0
 18 19  1  0
 18 20  1  0
 20 21  2  0
  2 22  1  0
 22 23  2  0
 23 24  1  0
 24 25  2  0
 25 26  1  0
 26 27  2  0
 27 28  1  0
 28 29  2  0
 29 30  1  0
 30 31  2  0
 12  7  1  0
 21 15  1  0
 31 22  1  0
 30 25  1  0
  3 32  1  0
  4 33  1  0
  4 34  1  0
  8 35  1  0
  8 36  1  0
  9 37  1  1
 10 38  1  0
 11 39  1  0
 11 40  1  0
 12 41  1  6
 13 42  1  0
 13 43  1  0
 16 44  1  0
 17 45  1  0
 20 46  1  0
 21 47  1  0
 23 48  1  0
 24 49  1  0
 26 50  1  0
 27 51  1  0
 28 52  1  0
 29 53  1  0
M  END
>  <smiles>  (2) 
O=C(NCC(=O)N1C[C@H](O)C[C@H]1COc1ccc(Cl)cc1)c1ccc2ccccc2n1

>  <score_type>  (2) 
oracle

>  <origin>  (2) 
autodockgpu

>  <m_score__min__energy>  (2) 
-9.2599999999999998

>  <m_primary>  (2) 
energy

>  <meeko>  (2) 
{"free_energy": -7.58, "intermolecular_energy": -9.97, "internal_energy": -2.06, "cluster_size": 1, "cluster_id": 4, "rank_in_cluster": 1}

>  <energy>  (2) 
-9.08

>  <cluster_rmsd>  (2) 
1.49

>  <rmsd>  (2) 
270.54

>  <cluster>  (2) 
1

$$$$

     RDKit          3D

 53 56  0  0  0  0  0  0  0  0999 V2000
  138.9070   75.1180  222.3530 O   0  0  0  0  0  0  0  0  0  0  0  0
  139.9190   75.7980  221.9840 C   0  0  0  0  0  0  0  0  0  0  0  0
  140.8070   75.1720  221.0710 N   0  0  0  0  0  0  0  0  0  0  0  0
  140.5790   73.8310  220.5810 C   0  0  0  0  0  0  0  0  0  0  0  0
  141.5930   73.4180  219.5950 C   0  0  0  0  0  0  0  0  0  0  0  0
  141.1950   72.9860  218.4890 O   0  0  0  0  0  0  0  0  0  0  0  0
  142.9610   73.5350  219.9610 N   0  0  0  0  0  0  0  0  0  0  0  0
  143.7440   72.6790  220.8540 C   0  0  0  0  0  0  0  0  0  0  0  0
  144.9870   72.4830  220.0130 C   0  0  2  0  0  0  0  0  0  0  0  0
  146.1000   72.6450  220.8090 O   0  0  0  0  0  0  0  0  0  0  0  0
  145.0120   73.6240  218.9940 C   0  0  0  0  0  0  0  0  0  0  0  0
  143.9310   74.5560  219.5280 C   0  0  1  0  0  0  0  0  0  0  0  0
  143.3740   75.4450  218.4790 C   0  0  0  0  0  0  0  0  0  0  0  0
  142.3270   76.2590  218.8990 O   0  0  0  0  0  0  0  0  0  0  0  0
  142.1830   77.6060  218.8750 C   0  0  0  0  0  0  0  0  0  0  0  0
  141.1460   78.1440  219.6530 C   0  0  0  0  0  0  0  0  0  0  0  0
  140.9000   79.4940  219.7110 C   0  0  0  0  0  0  0  0  0  0  0  0
  141.6800   80.3750  218.9950 C   0  0  0  0  0  0  0  0  0  0  0  0
  141.3930   82.1010  219.0480 Cl  0  0  0  0  0  0  0  0  0  0  0  0
  142.7080   79.8860  218.2190 C   0  0  0  0  0  0  0  0  0  0  0  0
  142.9350   78.5140  218.1780 C   0  0  0  0  0  0  0  0  0  0  0  0
  140.1610   77.1490  222.4710 C   0  0  0  0  0  0  0  0  0  0  0  0
  139.0730   77.9120  222.8450 C   0  0  0  0  0  0  0  0  0  0  0  0
  139.2980   79.2040  223.3110 C   0  0  0  0  0  0  0  0  0  0  0  0
  140.5840   79.6900  223.3880 C   0  0  0  0  0  0  0  0  0  0  0  0
  140.8700   80.9630  223.8420 C   0  0  0  0  0  0  0  0  0  0  0  0
  142.1560   81.4490  223.9180 C   0  0  0  0  0  0  0  0  0  0  0  0
  143.1770   80.6140  223.5210 C   0  0  0  0  0  0  0  0  0  0  0  0
  142.9230   79.3190  223.0560 C   0  0  0  0  0  0  0  0  0  0  0  0
  141.6090   78.8630  222.9940 C   0  0  0  0  0  0  0  0  0  0  0  0
  141.4310   77.6130  222.5400 N   0  0  0  0  0  0  0  0  0  0  0  0
  141.6520   75.6810  220.7360 H   0  0  0  0  0  0  0  0  0  0  0  0
  140.6073   73.1337  221.4313 H   0  0  0  0  0  0  0  0  0  0  0  0
  139.5983   73.8160  220.0829 H   0  0  0  0  0  0  0  0  0  0  0  0
  143.9708   73.1820  221.8056 H   0  0  0  0  0  0  0  0  0  0  0  0
  143.2421   71.7493  221.1602 H   0  0  0  0  0  0  0  0  0  0  0  0
  144.9842   71.4878  219.5445 H   0  0  0  0  0  0  0  0  0  0  0  0
  146.0670   71.9410  221.5010 H   0  0  0  0  0  0  0  0  0  0  0  0
  145.9933   74.1207  218.9753 H   0  0  0  0  0  0  0  0  0  0  0  0
  144.8396   73.2952  217.9585 H   0  0  0  0  0  0  0  0  0  0  0  0
  144.2587   75.2685  220.2993 H   0  0  0  0  0  0  0  0  0  0  0  0
  144.1848   76.0921  218.1131 H   0  0  0  0  0  0  0  0  0  0  0  0
  142.9605   74.7853  217.7019 H   0  0  0  0  0  0  0  0  0  0  0  0
  140.5093   77.4619  220.2355 H   0  0  0  0  0  0  0  0  0  0  0  0
  140.0757   79.8737  220.3326 H   0  0  0  0  0  0  0  0  0  0  0  0
  143.3420   80.5724  217.6385 H   0  0  0  0  0  0  0  0  0  0  0  0
  143.7601   78.1396  217.5543 H   0  0  0  0  0  0  0  0  0  0  0  0
  138.0521   77.5083  222.7763 H   0  0  0  0  0  0  0  0  0  0  0  0
  138.4507   79.8352  223.6170 H   0  0  0  0  0  0  0  0  0  0  0  0
  140.0392   81.6127  224.1545 H   0  0  0  0  0  0  0  0  0  0  0  0
  142.3605   82.4666  224.2823 H   0  0  0  0  0  0  0  0  0  0  0  0
  144.2155   80.9734  223.5706 H   0  0  0  0  0  0  0  0  0  0  0  0
  143.7526   78.6681  222.7428 H   0  0  0  0  0  0  0  0  0  0  0  0
  1  2  2  0
  2  3  1  0
  3  4  1  0
  4  5  1  0
  5  6  2  0
  5  7  1  0
  7  8  1  0
  8  9  1  0
  9 10  1  0
  9 11  1  0
 11 12  1  0
 12 13  1  0
 13 14  1  0
 14 15  1  0
 15 16  2  0
 16 17  1  0
 17 18  2  0
 18 19  1  0
 18 20  1  0
 20 21  2  0
  2 22  1  0
 22 23  2  0
 23 24  1  0
 24 25  2  0
 25 26  1  0
 26 27  2  0
 27 28  1  0
 28 29  2  0
 29 30  1  0
 30 31  2  0
 12  7  1  0
 21 15  1  0
 31 22  1  0
 30 25  1  0
  3 32  1  0
  4 33  1  0
  4 34  1  0
  8 35  1  0
  8 36  1  0
  9 37  1  6
 10 38  1  0
 11 39  1  0
 11 40  1  0
 12 41  1  1
 13 42  1  0
 13 43  1  0
 16 44  1  0
 17 45  1  0
 20 46  1  0
 21 47  1  0
 23 48  1  0
 24 49  1  0
 26 50  1  0
 27 51  1  0
 28 52  1  0
 29 53  1  0
M  END
>  <smiles>  (3) 
O=C(NCC(=O)N1C[C@H](O)C[C@H]1COc1ccc(Cl)cc1)c1ccc2ccccc2n1

>  <score_type>  (3) 
oracle

>  <origin>  (3) 
autodockgpu

>  <m_score__min__energy>  (3) 
-9.2599999999999998

>  <m_primary>  (3) 
energy

>  <meeko>  (3) 
{"free_energy": -6.86, "intermolecular_energy": -9.25, "internal_energy": -3.42, "cluster_size": 10, "cluster_id": 3, "rank_in_cluster": 8}

>  <energy>  (3) 
-9.01

>  <cluster_rmsd>  (3) 
1.61

>  <rmsd>  (3) 
270.63

>  <cluster>  (3) 
1

$$$$

     RDKit          3D

 53 56  0  0  0  0  0  0  0  0999 V2000
  138.2830   67.6050  223.0620 O   0  0  0  0  0  0  0  0  0  0  0  0
  139.0470   68.6130  223.2190 C   0  0  0  0  0  0  0  0  0  0  0  0
  139.4340   69.3070  222.0430 N   0  0  0  0  0  0  0  0  0  0  0  0
  138.9860   68.8960  220.7310 C   0  0  0  0  0  0  0  0  0  0  0  0
  137.8420   69.6950  220.2560 C   0  0  0  0  0  0  0  0  0  0  0  0
  137.3030   69.3630  219.1770 O   0  0  0  0  0  0  0  0  0  0  0  0
  137.4240   70.7930  221.0540 N   0  0  0  0  0  0  0  0  0  0  0  0
  136.3560   70.8410  222.0540 C   0  0  0  0  0  0  0  0  0  0  0  0
  137.0800   71.5410  223.1840 C   0  0  2  0  0  0  0  0  0  0  0  0
  136.2610   72.5190  223.7060 O   0  0  0  0  0  0  0  0  0  0  0  0
  138.2750   72.2630  222.5590 C   0  0  0  0  0  0  0  0  0  0  0  0
  137.9690   72.1630  221.0700 C   0  0  1  0  0  0  0  0  0  0  0  0
  139.1840   72.2880  220.2280 C   0  0  0  0  0  0  0  0  0  0  0  0
  140.3570   71.8380  220.8250 O   0  0  0  0  0  0  0  0  0  0  0  0
  141.6090   72.3560  220.8280 C   0  0  0  0  0  0  0  0  0  0  0  0
  142.6710   71.4400  220.8350 C   0  0  0  0  0  0  0  0  0  0  0  0
  143.9850   71.8420  220.8370 C   0  0  0  0  0  0  0  0  0  0  0  0
  144.3020   73.1820  220.8310 C   0  0  0  0  0  0  0  0  0  0  0  0
  145.9660   73.7270  220.8330 Cl  0  0  0  0  0  0  0  0  0  0  0  0
  143.2880   74.1140  220.8230 C   0  0  0  0  0  0  0  0  0  0  0  0
  141.9660   73.6790  220.8220 C   0  0  0  0  0  0  0  0  0  0  0  0
  139.5050   69.0370  224.5350 C   0  0  0  0  0  0  0  0  0  0  0  0
  139.3510   68.1640  225.5920 C   0  0  0  0  0  0  0  0  0  0  0  0
  139.7860   68.5640  226.8530 C   0  0  0  0  0  0  0  0  0  0  0  0
  140.3550   69.8070  227.0170 C   0  0  0  0  0  0  0  0  0  0  0  0
  140.8070   70.2590  228.2420 C   0  0  0  0  0  0  0  0  0  0  0  0
  141.3760   71.5020  228.4060 C   0  0  0  0  0  0  0  0  0  0  0  0
  141.4870   72.3040  227.2920 C   0  0  0  0  0  0  0  0  0  0  0  0
  141.0410   71.8770  226.0370 C   0  0  0  0  0  0  0  0  0  0  0  0
  140.4710   70.6130  225.9100 C   0  0  0  0  0  0  0  0  0  0  0  0
  140.0620   70.2620  224.6810 N   0  0  0  0  0  0  0  0  0  0  0  0
  140.0580   70.1390  222.1120 H   0  0  0  0  0  0  0  0  0  0  0  0
  139.8178   69.0117  220.0206 H   0  0  0  0  0  0  0  0  0  0  0  0
  138.6597   67.8477  220.7994 H   0  0  0  0  0  0  0  0  0  0  0  0
  135.4925   71.4235  221.7005 H   0  0  0  0  0  0  0  0  0  0  0  0
  135.9251   69.8636  222.3169 H   0  0  0  0  0  0  0  0  0  0  0  0
  137.3720   70.8203  223.9621 H   0  0  0  0  0  0  0  0  0  0  0  0
  136.8360   73.1340  224.2240 H   0  0  0  0  0  0  0  0  0  0  0  0
  138.3231   73.3120  222.8867 H   0  0  0  0  0  0  0  0  0  0  0  0
  139.2473   71.8320  222.8398 H   0  0  0  0  0  0  0  0  0  0  0  0
  137.3131   72.9490  220.6675 H   0  0  0  0  0  0  0  0  0  0  0  0
  139.0238   71.7069  219.3078 H   0  0  0  0  0  0  0  0  0  0  0  0
  139.3235   73.3635  220.0439 H   0  0  0  0  0  0  0  0  0  0  0  0
  142.4445   70.3636  220.8390 H   0  0  0  0  0  0  0  0  0  0  0  0
  144.7875   71.0897  220.8434 H   0  0  0  0  0  0  0  0  0  0  0  0
  143.5202   75.1892  220.8175 H   0  0  0  0  0  0  0  0  0  0  0  0
  141.1674   74.4354  220.8161 H   0  0  0  0  0  0  0  0  0  0  0  0
  138.8949   67.1743  225.4422 H   0  0  0  0  0  0  0  0  0  0  0  0
  139.6754   67.8894  227.7148 H   0  0  0  0  0  0  0  0  0  0  0  0
  140.7086   69.6016  229.1184 H   0  0  0  0  0  0  0  0  0  0  0  0
  141.7290   71.8420  229.3908 H   0  0  0  0  0  0  0  0  0  0  0  0
  141.9366   73.3030  227.3915 H   0  0  0  0  0  0  0  0  0  0  0  0
  141.1395   72.5329  225.1595 H   0  0  0  0  0  0  0  0  0  0  0  0
  1  2  2  0
  2  3  1  0
  3  4  1  0
  4  5  1  0
  5  6  2  0
  5  7  1  0
  7  8  1  0
  8  9  1  0
  9 10  1  0
  9 11  1  0
 11 12  1  0
 12 13  1  0
 13 14  1  0
 14 15  1  0
 15 16  2  0
 16 17  1  0
 17 18  2  0
 18 19  1  0
 18 20  1  0
 20 21  2  0
  2 22  1  0
 22 23  2  0
 23 24  1  0
 24 25  2  0
 25 26  1  0
 26 27  2  0
 27 28  1  0
 28 29  2  0
 29 30  1  0
 30 31  2  0
 12  7  1  0
 21 15  1  0
 31 22  1  0
 30 25  1  0
  3 32  1  0
  4 33  1  0
  4 34  1  0
  8 35  1  0
  8 36  1  0
  9 37  1  1
 10 38  1  0
 11 39  1  0
 11 40  1  0
 12 41  1  6
 13 42  1  0
 13 43  1  0
 16 44  1  0
 17 45  1  0
 20 46  1  0
 21 47  1  0
 23 48  1  0
 24 49  1  0
 26 50  1  0
 27 51  1  0
 28 52  1  0
 29 53  1  0
M  END
>  <smiles>  (4) 
O=C(NCC(=O)N1C[C@H](O)C[C@H]1COc1ccc(Cl)cc1)c1ccc2ccccc2n1

>  <score_type>  (4) 
oracle

>  <origin>  (4) 
autodockgpu

>  <m_score__min__energy>  (4) 
-9.2599999999999998

>  <m_primary>  (4) 
energy

>  <meeko>  (4) 
{"free_energy": -6.93, "intermolecular_energy": -9.32, "internal_energy": -3.17, "cluster_size": 1, "cluster_id": 5, "rank_in_cluster": 1}

>  <energy>  (4) 
-8.86

>  <cluster_rmsd>  (4) 
1.73

>  <rmsd>  (4) 
270.48

>  <cluster>  (4) 
1

$$$$

     RDKit          3D

 53 56  0  0  0  0  0  0  0  0999 V2000
  137.4200   76.3650  222.1190 O   0  0  0  0  0  0  0  0  0  0  0  0
  138.6750   76.4510  222.3230 C   0  0  0  0  0  0  0  0  0  0  0  0
  139.4310   75.2640  222.1460 N   0  0  0  0  0  0  0  0  0  0  0  0
  138.8150   74.0170  221.7530 C   0  0  0  0  0  0  0  0  0  0  0  0
  139.7360   72.8730  221.8860 C   0  0  0  0  0  0  0  0  0  0  0  0
  140.8850   73.0940  222.3310 O   0  0  0  0  0  0  0  0  0  0  0  0
  139.2610   71.5910  221.4990 N   0  0  0  0  0  0  0  0  0  0  0  0
  139.4540   70.8910  220.2290 C   0  0  0  0  0  0  0  0  0  0  0  0
  139.8540   69.5220  220.7370 C   0  0  2  0  0  0  0  0  0  0  0  0
  139.1690   68.5600  220.0270 O   0  0  0  0  0  0  0  0  0  0  0  0
  139.3610   69.4300  222.1820 C   0  0  0  0  0  0  0  0  0  0  0  0
  138.4520   70.6480  222.2910 C   0  0  1  0  0  0  0  0  0  0  0  0
  138.2750   71.1050  223.6910 C   0  0  0  0  0  0  0  0  0  0  0  0
  139.4570   71.2670  224.4060 O   0  0  0  0  0  0  0  0  0  0  0  0
  139.9290   70.6250  225.5020 C   0  0  0  0  0  0  0  0  0  0  0  0
  139.7950   69.2280  225.5220 C   0  0  0  0  0  0  0  0  0  0  0  0
  140.2360   68.4660  226.5770 C   0  0  0  0  0  0  0  0  0  0  0  0
  140.8340   69.0630  227.6640 C   0  0  0  0  0  0  0  0  0  0  0  0
  141.4060   68.1200  229.0230 Cl  0  0  0  0  0  0  0  0  0  0  0  0
  140.9840   70.4320  227.6830 C   0  0  0  0  0  0  0  0  0  0  0  0
  140.5280   71.1800  226.6010 C   0  0  0  0  0  0  0  0  0  0  0  0
  139.3080   77.7010  222.7200 C   0  0  0  0  0  0  0  0  0  0  0  0
  138.4970   78.7600  223.0750 C   0  0  0  0  0  0  0  0  0  0  0  0
  139.0970   79.9580  223.4550 C   0  0  0  0  0  0  0  0  0  0  0  0
  140.4700   80.0610  223.4680 C   0  0  0  0  0  0  0  0  0  0  0  0
  141.1220   81.2230  223.8350 C   0  0  0  0  0  0  0  0  0  0  0  0
  142.4950   81.3260  223.8480 C   0  0  0  0  0  0  0  0  0  0  0  0
  143.2210   80.2170  223.4770 C   0  0  0  0  0  0  0  0  0  0  0  0
  142.5930   79.0250  223.0990 C   0  0  0  0  0  0  0  0  0  0  0  0
  141.2020   78.9590  223.0990 C   0  0  0  0  0  0  0  0  0  0  0  0
  140.6600   77.7890  222.7270 N   0  0  0  0  0  0  0  0  0  0  0  0
  140.4620   75.2760  222.3000 H   0  0  0  0  0  0  0  0  0  0  0  0
  137.9362   73.8399  222.3905 H   0  0  0  0  0  0  0  0  0  0  0  0
  138.5316   74.1002  220.6934 H   0  0  0  0  0  0  0  0  0  0  0  0
  138.5258   70.8520  219.6400 H   0  0  0  0  0  0  0  0  0  0  0  0
  140.1790   71.3609  219.5482 H   0  0  0  0  0  0  0  0  0  0  0  0
  140.9402   69.3757  220.6429 H   0  0  0  0  0  0  0  0  0  0  0  0
  138.9480   68.9510  219.1470 H   0  0  0  0  0  0  0  0  0  0  0  0
  138.8018   68.4985  222.3539 H   0  0  0  0  0  0  0  0  0  0  0  0
  140.1721   69.4168  222.9250 H   0  0  0  0  0  0  0  0  0  0  0  0
  137.4160   70.4979  221.9531 H   0  0  0  0  0  0  0  0  0  0  0  0
  137.7516   72.0723  223.6715 H   0  0  0  0  0  0  0  0  0  0  0  0
  137.7082   70.3148  224.2051 H   0  0  0  0  0  0  0  0  0  0  0  0
  139.3214   68.7267  224.6650 H   0  0  0  0  0  0  0  0  0  0  0  0
  140.1106   67.3734  226.5530 H   0  0  0  0  0  0  0  0  0  0  0  0
  141.4583   70.9282  228.5425 H   0  0  0  0  0  0  0  0  0  0  0  0
  140.6554   72.2722  226.6305 H   0  0  0  0  0  0  0  0  0  0  0  0
  137.4017   78.6600  223.0581 H   0  0  0  0  0  0  0  0  0  0  0  0
  138.4762   80.8189  223.7438 H   0  0  0  0  0  0  0  0  0  0  0  0
  140.5222   82.0975  224.1274 H   0  0  0  0  0  0  0  0  0  0  0  0
  142.9936   82.2607  224.1442 H   0  0  0  0  0  0  0  0  0  0  0  0
  144.3198   80.2689  223.4777 H   0  0  0  0  0  0  0  0  0  0  0  0
  143.1914   78.1500  222.8052 H   0  0  0  0  0  0  0  0  0  0  0  0
  1  2  2  0
  2  3  1  0
  3  4  1  0
  4  5  1  0
  5  6  2  0
  5  7  1  0
  7  8  1  0
  8  9  1  0
  9 10  1  0
  9 11  1  0
 11 12  1  0
 12 13  1  0
 13 14  1  0
 14 15  1  0
 15 16  2  0
 16 17  1  0
 17 18  2  0
 18 19  1  0
 18 20  1  0
 20 21  2  0
  2 22  1  0
 22 23  2  0
 23 24  1  0
 24 25  2  0
 25 26  1  0
 26 27  2  0
 27 28  1  0
 28 29  2  0
 29 30  1  0
 30 31  2  0
 12  7  1  0
 21 15  1  0
 31 22  1  0
 30 25  1  0
  3 32  1  0
  4 33  1  0
  4 34  1  0
  8 35  1  0
  8 36  1  0
  9 37  1  1
 10 38  1  0
 11 39  1  0
 11 40  1  0
 12 41  1  6
 13 42  1  0
 13 43  1  0
 16 44  1  0
 17 45  1  0
 20 46  1  0
 21 47  1  0
 23 48  1  0
 24 49  1  0
 26 50  1  0
 27 51  1  0
 28 52  1  0
 29 53  1  0
M  END
>  <smiles>  (5) 
O=C(NCC(=O)N1C[C@H](O)C[C@H]1COc1ccc(Cl)cc1)c1ccc2ccccc2n1

>  <score_type>  (5) 
oracle

>  <origin>  (5) 
autodockgpu

>  <m_score__min__energy>  (5) 
-9.2599999999999998

>  <m_primary>  (5) 
energy

>  <meeko>  (5) 
{"free_energy": -7.86, "intermolecular_energy": -10.24, "internal_energy": -2.14, "cluster_size": 2, "cluster_id": 2, "rank_in_cluster": 1}

>  <energy>  (5) 
-8.62

>  <cluster_rmsd>  (5) 
1.78

>  <rmsd>  (5) 
270.46

>  <cluster>  (5) 
1

$$$$

     RDKit          3D

 53 56  0  0  0  0  0  0  0  0999 V2000
  140.2530   74.4230  222.3310 O   0  0  0  0  0  0  0  0  0  0  0  0
  140.2280   75.4600  221.5910 C   0  0  0  0  0  0  0  0  0  0  0  0
  140.1750   75.2400  220.1910 N   0  0  0  0  0  0  0  0  0  0  0  0
  140.1510   73.9090  219.6260 C   0  0  0  0  0  0  0  0  0  0  0  0
  141.4520   73.5220  219.0530 C   0  0  0  0  0  0  0  0  0  0  0  0
  141.4680   73.0720  217.8850 O   0  0  0  0  0  0  0  0  0  0  0  0
  142.6080   73.6850  219.8620 N   0  0  0  0  0  0  0  0  0  0  0  0
  143.1640   72.7660  220.8570 C   0  0  0  0  0  0  0  0  0  0  0  0
  144.6240   72.7910  220.4570 C   0  0  2  0  0  0  0  0  0  0  0  0
  145.3990   72.9150  221.5900 O   0  0  0  0  0  0  0  0  0  0  0  0
  144.8340   74.0700  219.6450 C   0  0  0  0  0  0  0  0  0  0  0  0
  143.5370   74.8290  219.8970 C   0  0  1  0  0  0  0  0  0  0  0  0
  143.2400   75.8200  218.8340 C   0  0  0  0  0  0  0  0  0  0  0  0
  142.1450   76.6400  219.0910 O   0  0  0  0  0  0  0  0  0  0  0  0
  141.9980   77.9840  218.9930 C   0  0  0  0  0  0  0  0  0  0  0  0
  142.9410   78.6670  218.2110 C   0  0  0  0  0  0  0  0  0  0  0  0
  142.8960   80.0290  218.0350 C   0  0  0  0  0  0  0  0  0  0  0  0
  141.9060   80.7750  218.6330 C   0  0  0  0  0  0  0  0  0  0  0  0
  141.8220   82.5120  218.4290 Cl  0  0  0  0  0  0  0  0  0  0  0  0
  140.9610   80.1420  219.4090 C   0  0  0  0  0  0  0  0  0  0  0  0
  141.0290   78.7610  219.5710 C   0  0  0  0  0  0  0  0  0  0  0  0
  140.2520   76.8060  222.1470 C   0  0  0  0  0  0  0  0  0  0  0  0
  139.0550   77.3740  222.5330 C   0  0  0  0  0  0  0  0  0  0  0  0
  139.0720   78.6610  223.0650 C   0  0  0  0  0  0  0  0  0  0  0  0
  140.2680   79.3330  223.1920 C   0  0  0  0  0  0  0  0  0  0  0  0
  140.3480   80.6110  223.7120 C   0  0  0  0  0  0  0  0  0  0  0  0
  141.5440   81.2820  223.8390 C   0  0  0  0  0  0  0  0  0  0  0  0
  142.6850   80.6340  223.4250 C   0  0  0  0  0  0  0  0  0  0  0  0
  142.6400   79.3410  222.8940 C   0  0  0  0  0  0  0  0  0  0  0  0
  141.4130   78.6930  222.7820 C   0  0  0  0  0  0  0  0  0  0  0  0
  141.4350   77.4550  222.2650 N   0  0  0  0  0  0  0  0  0  0  0  0
  140.1530   76.0520  219.5370 H   0  0  0  0  0  0  0  0  0  0  0  0
  139.8861   73.1931  220.4180 H   0  0  0  0  0  0  0  0  0  0  0  0
  139.4094   73.9013  218.8136 H   0  0  0  0  0  0  0  0  0  0  0  0
  143.0158   73.1367  221.8820 H   0  0  0  0  0  0  0  0  0  0  0  0
  142.7056   71.7661  220.8692 H   0  0  0  0  0  0  0  0  0  0  0  0
  144.8892   71.8798  219.9008 H   0  0  0  0  0  0  0  0  0  0  0  0
  145.6130   72.0000  221.8960 H   0  0  0  0  0  0  0  0  0  0  0  0
  145.7042   74.6355  220.0098 H   0  0  0  0  0  0  0  0  0  0  0  0
  145.0386   73.8877  218.5797 H   0  0  0  0  0  0  0  0  0  0  0  0
  143.5161   75.4406  220.8110 H   0  0  0  0  0  0  0  0  0  0  0  0
  144.1250   76.4607  218.7063 H   0  0  0  0  0  0  0  0  0  0  0  0
  142.9895   75.2418  217.9323 H   0  0  0  0  0  0  0  0  0  0  0  0
  143.7427   78.0936  217.7227 H   0  0  0  0  0  0  0  0  0  0  0  0
  143.6552   80.5257  217.4129 H   0  0  0  0  0  0  0  0  0  0  0  0
  140.1618   80.7207  219.8952 H   0  0  0  0  0  0  0  0  0  0  0  0
  140.2671   78.2695  220.1938 H   0  0  0  0  0  0  0  0  0  0  0  0
  138.1093   76.8230  222.4230 H   0  0  0  0  0  0  0  0  0  0  0  0
  138.1338   79.1393  223.3827 H   0  0  0  0  0  0  0  0  0  0  0  0
  139.4230   81.1103  224.0362 H   0  0  0  0  0  0  0  0  0  0  0  0
  141.5856   82.2990  224.2562 H   0  0  0  0  0  0  0  0  0  0  0  0
  143.6551   81.1448  223.5137 H   0  0  0  0  0  0  0  0  0  0  0  0
  143.5643   78.8414  222.5683 H   0  0  0  0  0  0  0  0  0  0  0  0
  1  2  2  0
  2  3  1  0
  3  4  1  0
  4  5  1  0
  5  6  2  0
  5  7  1  0
  7  8  1  0
  8  9  1  0
  9 10  1  0
  9 11  1  0
 11 12  1  0
 12 13  1  0
 13 14  1  0
 14 15  1  0
 15 16  2  0
 16 17  1  0
 17 18  2  0
 18 19  1  0
 18 20  1  0
 20 21  2  0
  2 22  1  0
 22 23  2  0
 23 24  1  0
 24 25  2  0
 25 26  1  0
 26 27  2  0
 27 28  1  0
 28 29  2  0
 29 30  1  0
 30 31  2  0
 12  7  1  0
 21 15  1  0
 31 22  1  0
 30 25  1  0
  3 32  1  0
  4 33  1  0
  4 34  1  0
  8 35  1  0
  8 36  1  0
  9 37  1  6
 10 38  1  0
 11 39  1  0
 11 40  1  0
 12 41  1  1
 13 42  1  0
 13 43  1  0
 16 44  1  0
 17 45  1  0
 20 46  1  0
 21 47  1  0
 23 48  1  0
 24 49  1  0
 26 50  1  0
 27 51  1  0
 28 52  1  0
 29 53  1  0
M  END
>  <smiles>  (6) 
O=C(NCC(=O)N1C[C@H](O)C[C@H]1COc1ccc(Cl)cc1)c1ccc2ccccc2n1

>  <score_type>  (6) 
oracle

>  <origin>  (6) 
autodockgpu

>  <m_score__min__energy>  (6) 
-9.2599999999999998

>  <m_primary>  (6) 
energy

>  <meeko>  (6) 
{"free_energy": -7.0, "intermolecular_energy": -9.39, "internal_energy": -3.4, "cluster_size": 10, "cluster_id": 3, "rank_in_cluster": 5}

>  <energy>  (6) 
-8.56

>  <cluster_rmsd>  (6) 
1.79

>  <rmsd>  (6) 
270.42

>  <cluster>  (6) 
1

$$$$

     RDKit          3D

 53 56  0  0  0  0  0  0  0  0999 V2000
  139.8050   71.2640  221.2350 O   0  0  0  0  0  0  0  0  0  0  0  0
  139.7970   71.8960  222.3410 C   0  0  0  0  0  0  0  0  0  0  0  0
  139.6890   73.3090  222.2640 N   0  0  0  0  0  0  0  0  0  0  0  0
  139.5920   74.0000  220.9980 C   0  0  0  0  0  0  0  0  0  0  0  0
  140.6500   73.5920  220.0570 C   0  0  0  0  0  0  0  0  0  0  0  0
  140.3240   72.8780  219.0820 O   0  0  0  0  0  0  0  0  0  0  0  0
  141.9750   74.0350  220.3160 N   0  0  0  0  0  0  0  0  0  0  0  0
  143.1170   73.2620  220.8060 C   0  0  0  0  0  0  0  0  0  0  0  0
  144.1860   73.7210  219.8370 C   0  0  2  0  0  0  0  0  0  0  0  0
  145.3390   74.0010  220.5380 O   0  0  0  0  0  0  0  0  0  0  0  0
  143.7020   75.0470  219.2470 C   0  0  0  0  0  0  0  0  0  0  0  0
  142.5260   75.3920  220.1520 C   0  0  1  0  0  0  0  0  0  0  0  0
  141.5580   76.3110  219.5040 C   0  0  0  0  0  0  0  0  0  0  0  0
  140.8020   77.0780  220.3840 O   0  0  0  0  0  0  0  0  0  0  0  0
  141.1740   77.9850  221.3190 C   0  0  0  0  0  0  0  0  0  0  0  0
  141.7220   79.1880  220.8490 C   0  0  0  0  0  0  0  0  0  0  0  0
  142.1360   80.1850  221.6990 C   0  0  0  0  0  0  0  0  0  0  0  0
  142.0220   80.0290  223.0620 C   0  0  0  0  0  0  0  0  0  0  0  0
  142.5400   81.2800  224.1720 Cl  0  0  0  0  0  0  0  0  0  0  0  0
  141.4890   78.8620  223.5640 C   0  0  0  0  0  0  0  0  0  0  0  0
  141.0780   77.8680  222.6810 C   0  0  0  0  0  0  0  0  0  0  0  0
  139.8950   71.2120  223.6230 C   0  0  0  0  0  0  0  0  0  0  0  0
  139.4690   69.9010  223.6970 C   0  0  0  0  0  0  0  0  0  0  0  0
  139.5590   69.2420  224.9200 C   0  0  0  0  0  0  0  0  0  0  0  0
  140.0650   69.9030  226.0170 C   0  0  0  0  0  0  0  0  0  0  0  0
  140.1800   69.3020  227.2570 C   0  0  0  0  0  0  0  0  0  0  0  0
  140.6850   69.9620  228.3540 C   0  0  0  0  0  0  0  0  0  0  0  0
  141.0840   71.2690  228.1820 C   0  0  0  0  0  0  0  0  0  0  0  0
  140.9820   71.9080  226.9420 C   0  0  0  0  0  0  0  0  0  0  0  0
  140.4660   71.2070  225.8560 C   0  0  0  0  0  0  0  0  0  0  0  0
  140.3940   71.8740  224.6940 N   0  0  0  0  0  0  0  0  0  0  0  0
  139.6780   73.8780  223.1380 H   0  0  0  0  0  0  0  0  0  0  0  0
  138.6131   73.7783  220.5478 H   0  0  0  0  0  0  0  0  0  0  0  0
  139.7099   75.0764  221.1916 H   0  0  0  0  0  0  0  0  0  0  0  0
  143.3696   73.5220  221.8446 H   0  0  0  0  0  0  0  0  0  0  0  0
  142.9587   72.1739  220.8373 H   0  0  0  0  0  0  0  0  0  0  0  0
  144.3722   72.9525  219.0723 H   0  0  0  0  0  0  0  0  0  0  0  0
  145.9150   74.5420  219.9450 H   0  0  0  0  0  0  0  0  0  0  0  0
  144.4857   75.8170  219.3005 H   0  0  0  0  0  0  0  0  0  0  0  0
  143.4358   74.9851  218.1815 H   0  0  0  0  0  0  0  0  0  0  0  0
  142.7826   75.9245  221.0796 H   0  0  0  0  0  0  0  0  0  0  0  0
  142.1200   76.9945  218.8506 H   0  0  0  0  0  0  0  0  0  0  0  0
  140.8459   75.6750  218.9577 H   0  0  0  0  0  0  0  0  0  0  0  0
  141.8236   79.3380  219.7640 H   0  0  0  0  0  0  0  0  0  0  0  0
  142.5608   81.1128  221.2882 H   0  0  0  0  0  0  0  0  0  0  0  0
  141.3895   78.7176  224.6499 H   0  0  0  0  0  0  0  0  0  0  0  0
  140.6548   76.9419  223.0972 H   0  0  0  0  0  0  0  0  0  0  0  0
  139.0677   69.3889  222.8101 H   0  0  0  0  0  0  0  0  0  0  0  0
  139.2272   68.1971  225.0097 H   0  0  0  0  0  0  0  0  0  0  0  0
  139.8556   68.2571  227.3709 H   0  0  0  0  0  0  0  0  0  0  0  0
  140.7669   69.4643  229.3316 H   0  0  0  0  0  0  0  0  0  0  0  0
  141.4924   71.8232  229.0399 H   0  0  0  0  0  0  0  0  0  0  0  0
  141.3060   72.9528  226.8264 H   0  0  0  0  0  0  0  0  0  0  0  0
  1  2  2  0
  2  3  1  0
  3  4  1  0
  4  5  1  0
  5  6  2  0
  5  7  1  0
  7  8  1  0
  8  9  1  0
  9 10  1  0
  9 11  1  0
 11 12  1  0
 12 13  1  0
 13 14  1  0
 14 15  1  0
 15 16  2  0
 16 17  1  0
 17 18  2  0
 18 19  1  0
 18 20  1  0
 20 21  2  0
  2 22  1  0
 22 23  2  0
 23 24  1  0
 24 25  2  0
 25 26  1  0
 26 27  2  0
 27 28  1  0
 28 29  2  0
 29 30  1  0
 30 31  2  0
 12  7  1  0
 21 15  1  0
 31 22  1  0
 30 25  1  0
  3 32  1  0
  4 33  1  0
  4 34  1  0
  8 35  1  0
  8 36  1  0
  9 37  1  6
 10 38  1  0
 11 39  1  0
 11 40  1  0
 12 41  1  1
 13 42  1  0
 13 43  1  0
 16 44  1  0
 17 45  1  0
 20 46  1  0
 21 47  1  0
 23 48  1  0
 24 49  1  0
 26 50  1  0
 27 51  1  0
 28 52  1  0
 29 53  1  0
M  END
>  <smiles>  (7) 
O=C(NCC(=O)N1C[C@H](O)C[C@H]1COc1ccc(Cl)cc1)c1ccc2ccccc2n1

>  <score_type>  (7) 
oracle

>  <origin>  (7) 
autodockgpu

>  <m_score__min__energy>  (7) 
-9.2599999999999998

>  <m_primary>  (7) 
energy

>  <meeko>  (7) 
{"free_energy": -9.01, "intermolecular_energy": -11.4, "internal_energy": -1.58, "cluster_size": 6, "cluster_id": 1, "rank_in_cluster": 3}

>  <energy>  (7) 
-7.86

>  <cluster_rmsd>  (7) 
0.0

>  <rmsd>  (7) 
270.48

>  <cluster>  (7) 
2

$$$$

     RDKit          3D

 53 56  0  0  0  0  0  0  0  0999 V2000
  139.0320   74.9790  222.3690 O   0  0  0  0  0  0  0  0  0  0  0  0
  140.1150   75.6280  222.1970 C   0  0  0  0  0  0  0  0  0  0  0  0
  141.2080   74.9070  221.6510 N   0  0  0  0  0  0  0  0  0  0  0  0
  141.1030   73.5070  221.3050 C   0  0  0  0  0  0  0  0  0  0  0  0
  141.6780   73.2150  219.9790 C   0  0  0  0  0  0  0  0  0  0  0  0
  140.9310   72.7020  219.1160 O   0  0  0  0  0  0  0  0  0  0  0  0
  143.0450   73.5360  219.7640 N   0  0  0  0  0  0  0  0  0  0  0  0
  144.2320   72.7470  220.0980 C   0  0  0  0  0  0  0  0  0  0  0  0
  145.0020   72.8600  218.8000 C   0  0  2  0  0  0  0  0  0  0  0  0
  146.3220   73.1360  219.0820 O   0  0  0  0  0  0  0  0  0  0  0  0
  144.4490   74.0830  218.0670 C   0  0  0  0  0  0  0  0  0  0  0  0
  143.6050   74.7510  219.1460 C   0  0  1  0  0  0  0  0  0  0  0  0
  142.5480   75.6270  218.5830 C   0  0  0  0  0  0  0  0  0  0  0  0
  141.7970   76.3170  219.5290 O   0  0  0  0  0  0  0  0  0  0  0  0
  141.2930   77.5750  219.5200 C   0  0  0  0  0  0  0  0  0  0  0  0
  142.2170   78.6260  219.6120 C   0  0  0  0  0  0  0  0  0  0  0  0
  141.8290   79.9440  219.6120 C   0  0  0  0  0  0  0  0  0  0  0  0
  140.4960   80.2760  219.5180 C   0  0  0  0  0  0  0  0  0  0  0  0
  139.9690   81.9450  219.5150 Cl  0  0  0  0  0  0  0  0  0  0  0  0
  139.5570   79.2730  219.4250 C   0  0  0  0  0  0  0  0  0  0  0  0
  139.9770   77.9460  219.4290 C   0  0  0  0  0  0  0  0  0  0  0  0
  140.2340   77.0380  222.5410 C   0  0  0  0  0  0  0  0  0  0  0  0
  139.0750   77.7630  222.7330 C   0  0  0  0  0  0  0  0  0  0  0  0
  139.1820   79.1120  223.0620 C   0  0  0  0  0  0  0  0  0  0  0  0
  140.4260   79.6880  223.1870 C   0  0  0  0  0  0  0  0  0  0  0  0
  140.5960   81.0210  223.5120 C   0  0  0  0  0  0  0  0  0  0  0  0
  141.8400   81.5970  223.6380 C   0  0  0  0  0  0  0  0  0  0  0  0
  142.9380   80.7940  223.4270 C   0  0  0  0  0  0  0  0  0  0  0  0
  142.8020   79.4420  223.0970 C   0  0  0  0  0  0  0  0  0  0  0  0
  141.5280   78.8940  222.9800 C   0  0  0  0  0  0  0  0  0  0  0  0
  141.4640   77.5920  222.6610 N   0  0  0  0  0  0  0  0  0  0  0  0
  142.1190   75.3870  221.4880 H   0  0  0  0  0  0  0  0  0  0  0  0
  141.6384   72.9143  222.0613 H   0  0  0  0  0  0  0  0  0  0  0  0
  140.0347   73.2466  221.2739 H   0  0  0  0  0  0  0  0  0  0  0  0
  144.7877   73.1838  220.9408 H   0  0  0  0  0  0  0  0  0  0  0  0
  144.0249   71.7169  220.4237 H   0  0  0  0  0  0  0  0  0  0  0  0
  144.9140   71.9323  218.2155 H   0  0  0  0  0  0  0  0  0  0  0  0
  146.4410   74.1130  218.9890 H   0  0  0  0  0  0  0  0  0  0  0  0
  145.2595   74.7449  217.7279 H   0  0  0  0  0  0  0  0  0  0  0  0
  143.8847   73.8340  217.1562 H   0  0  0  0  0  0  0  0  0  0  0  0
  144.1484   75.4294  219.8201 H   0  0  0  0  0  0  0  0  0  0  0  0
  143.0298   76.3646  217.9243 H   0  0  0  0  0  0  0  0  0  0  0  0
  141.8467   74.9651  218.0537 H   0  0  0  0  0  0  0  0  0  0  0  0
  143.2882   78.3871  219.6866 H   0  0  0  0  0  0  0  0  0  0  0  0
  142.5868   80.7377  219.6874 H   0  0  0  0  0  0  0  0  0  0  0  0
  138.4873   79.5177  219.3484 H   0  0  0  0  0  0  0  0  0  0  0  0
  139.2150   77.1561  219.3555 H   0  0  0  0  0  0  0  0  0  0  0  0
  138.0893   77.2860  222.6285 H   0  0  0  0  0  0  0  0  0  0  0  0
  138.2759   79.7150  223.2214 H   0  0  0  0  0  0  0  0  0  0  0  0
  139.7045   81.6442  223.6759 H   0  0  0  0  0  0  0  0  0  0  0  0
  141.9525   82.6600  223.8978 H   0  0  0  0  0  0  0  0  0  0  0  0
  143.9454   81.2258  223.5201 H   0  0  0  0  0  0  0  0  0  0  0  0
  143.6927   78.8180  222.9316 H   0  0  0  0  0  0  0  0  0  0  0  0
  1  2  2  0
  2  3  1  0
  3  4  1  0
  4  5  1  0
  5  6  2  0
  5  7  1  0
  7  8  1  0
  8  9  1  0
  9 10  1  0
  9 11  1  0
 11 12  1  0
 12 13  1  0
 13 14  1  0
 14 15  1  0
 15 16  2  0
 16 17  1  0
 17 18  2  0
 18 19  1  0
 18 20  1  0
 20 21  2  0
  2 22  1  0
 22 23  2  0
 23 24  1  0
 24 25  2  0
 25 26  1  0
 26 27  2  0
 27 28  1  0
 28 29  2  0
 29 30  1  0
 30 31  2  0
 12  7  1  0
 21 15  1  0
 31 22  1  0
 30 25  1  0
  3 32  1  0
  4 33  1  0
  4 34  1  0
  8 35  1  0
  8 36  1  0
  9 37  1  6
 10 38  1  0
 11 39  1  0
 11 40  1  0
 12 41  1  1
 13 42  1  0
 13 43  1  0
 16 44  1  0
 17 45  1  0
 20 46  1  0
 21 47  1  0
 23 48  1  0
 24 49  1  0
 26 50  1  0
 27 51  1  0
 28 52  1  0
 29 53  1  0
M  END
>  <smiles>  (8) 
O=C(NCC(=O)N1C[C@H](O)C[C@H]1COc1ccc(Cl)cc1)c1ccc2ccccc2n1

>  <score_type>  (8) 
oracle

>  <origin>  (8) 
autodockgpu

>  <m_score__min__energy>  (8) 
-9.2599999999999998

>  <m_primary>  (8) 
energy

>  <meeko>  (8) 
{"free_energy": -6.82, "intermolecular_energy": -9.21, "internal_energy": -3.88, "cluster_size": 10, "cluster_id": 3, "rank_in_cluster": 9}

>  <energy>  (8) 
-7.78

>  <cluster_rmsd>  (8) 
0.45

>  <rmsd>  (8) 
270.3

>  <cluster>  (8) 
2

$$$$

     RDKit          3D

 53 56  0  0  0  0  0  0  0  0999 V2000
  139.6230   73.4050  222.6970 O   0  0  0  0  0  0  0  0  0  0  0  0
  140.2410   72.2910  222.7190 C   0  0  0  0  0  0  0  0  0  0  0  0
  141.0650   72.0000  221.6020 N   0  0  0  0  0  0  0  0  0  0  0  0
  141.2020   72.9170  220.4930 C   0  0  0  0  0  0  0  0  0  0  0  0
  142.0100   74.0990  220.8430 C   0  0  0  0  0  0  0  0  0  0  0  0
  141.5140   74.9380  221.6280 O   0  0  0  0  0  0  0  0  0  0  0  0
  143.3040   74.2120  220.2660 N   0  0  0  0  0  0  0  0  0  0  0  0
  144.5660   73.6380  220.7350 C   0  0  0  0  0  0  0  0  0  0  0  0
  145.0960   73.0640  219.4390 C   0  0  2  0  0  0  0  0  0  0  0  0
  146.4310   73.3840  219.3170 O   0  0  0  0  0  0  0  0  0  0  0  0
  144.3690   73.7920  218.3070 C   0  0  0  0  0  0  0  0  0  0  0  0
  143.6920   74.9410  219.0450 C   0  0  1  0  0  0  0  0  0  0  0  0
  142.5150   75.4730  218.3170 C   0  0  0  0  0  0  0  0  0  0  0  0
  142.4590   76.8600  218.2310 O   0  0  0  0  0  0  0  0  0  0  0  0
  142.2360   77.8020  219.1800 C   0  0  0  0  0  0  0  0  0  0  0  0
  142.2440   79.1390  218.7560 C   0  0  0  0  0  0  0  0  0  0  0  0
  142.0290   80.1830  219.6230 C   0  0  0  0  0  0  0  0  0  0  0  0
  141.7940   79.9410  220.9570 C   0  0  0  0  0  0  0  0  0  0  0  0
  141.5170   81.2480  222.0880 Cl  0  0  0  0  0  0  0  0  0  0  0  0
  141.7780   78.6420  221.4140 C   0  0  0  0  0  0  0  0  0  0  0  0
  141.9990   77.6030  220.5140 C   0  0  0  0  0  0  0  0  0  0  0  0
  140.1110   71.3580  223.8290 C   0  0  0  0  0  0  0  0  0  0  0  0
  139.4430   70.1700  223.6090 C   0  0  0  0  0  0  0  0  0  0  0  0
  139.3160   69.2740  224.6670 C   0  0  0  0  0  0  0  0  0  0  0  0
  139.8520   69.5860  225.8960 C   0  0  0  0  0  0  0  0  0  0  0  0
  139.7580   68.7380  226.9830 C   0  0  0  0  0  0  0  0  0  0  0  0
  140.2940   69.0500  228.2120 C   0  0  0  0  0  0  0  0  0  0  0  0
  140.9420   70.2580  228.3360 C   0  0  0  0  0  0  0  0  0  0  0  0
  141.0550   71.1410  227.2560 C   0  0  0  0  0  0  0  0  0  0  0  0
  140.5010   70.7900  226.0290 C   0  0  0  0  0  0  0  0  0  0  0  0
  140.6430   71.6780  225.0330 N   0  0  0  0  0  0  0  0  0  0  0  0
  141.5940   71.1020  221.5660 H   0  0  0  0  0  0  0  0  0  0  0  0
  141.6869   72.3916  219.6570 H   0  0  0  0  0  0  0  0  0  0  0  0
  140.1958   73.2659  220.2177 H   0  0  0  0  0  0  0  0  0  0  0  0
  145.2367   74.4078  221.1442 H   0  0  0  0  0  0  0  0  0  0  0  0
  144.4664   72.9117  221.5551 H   0  0  0  0  0  0  0  0  0  0  0  0
  144.9525   71.9738  219.4110 H   0  0  0  0  0  0  0  0  0  0  0  0
  146.5010   74.3680  219.3850 H   0  0  0  0  0  0  0  0  0  0  0  0
  145.0777   74.1650  217.5529 H   0  0  0  0  0  0  0  0  0  0  0  0
  143.6692   73.1527  217.7488 H   0  0  0  0  0  0  0  0  0  0  0  0
  144.3104   75.8386  219.1932 H   0  0  0  0  0  0  0  0  0  0  0  0
  142.5333   75.0675  217.2947 H   0  0  0  0  0  0  0  0  0  0  0  0
  141.6299   75.1630  218.8919 H   0  0  0  0  0  0  0  0  0  0  0  0
  142.4285   79.3590  217.6941 H   0  0  0  0  0  0  0  0  0  0  0  0
  142.0448   81.2173  219.2489 H   0  0  0  0  0  0  0  0  0  0  0  0
  141.5929   78.4280  222.4770 H   0  0  0  0  0  0  0  0  0  0  0  0
  141.9824   76.5706  220.8934 H   0  0  0  0  0  0  0  0  0  0  0  0
  139.0208   69.9367  222.6204 H   0  0  0  0  0  0  0  0  0  0  0  0
  138.7889   68.3196  224.5213 H   0  0  0  0  0  0  0  0  0  0  0  0
  139.2353   67.7777  226.8617 H   0  0  0  0  0  0  0  0  0  0  0  0
  140.2076   68.3593  229.0637 H   0  0  0  0  0  0  0  0  0  0  0  0
  141.3809   70.5357  229.3057 H   0  0  0  0  0  0  0  0  0  0  0  0
  141.5762   72.1022  227.3760 H   0  0  0  0  0  0  0  0  0  0  0  0
  1  2  2  0
  2  3  1  0
  3  4  1  0
  4  5  1  0
  5  6  2  0
  5  7  1  0
  7  8  1  0
  8  9  1  0
  9 10  1  0
  9 11  1  0
 11 12  1  0
 12 13  1  0
 13 14  1  0
 14 15  1  0
 15 16  2  0
 16 17  1  0
 17 18  2  0
 18 19  1  0
 18 20  1  0
 20 21  2  0
  2 22  1  0
 22 23  2  0
 23 24  1  0
 24 25  2  0
 25 26  1  0
 26 27  2  0
 27 28  1  0
 28 29  2  0
 29 30  1  0
 30 31  2  0
 12  7  1  0
 21 15  1  0
 31 22  1  0
 30 25  1  0
  3 32  1  0
  4 33  1  0
  4 34  1  0
  8 35  1  0
  8 36  1  0
  9 37  1  1
 10 38  1  0
 11 39  1  0
 11 40  1  0
 12 41  1  1
 13 42  1  0
 13 43  1  0
 16 44  1  0
 17 45  1  0
 20 46  1  0
 21 47  1  0
 23 48  1  0
 24 49  1  0
 26 50  1  0
 27 51  1  0
 28 52  1  0
 29 53  1  0
M  END
>  <smiles>  (9) 
O=C(NCC(=O)N1C[C@H](O)C[C@H]1COc1ccc(Cl)cc1)c1ccc2ccccc2n1

>  <score_type>  (9) 
oracle

>  <origin>  (9) 
autodockgpu

>  <m_score__min__energy>  (9) 
-9.2599999999999998

>  <m_primary>  (9) 
energy

>  <meeko>  (9) 
{"free_energy": -9.26, "intermolecular_energy": -11.65, "internal_energy": -1.34, "cluster_size": 6, "cluster_id": 1, "rank_in_cluster": 1}

>  <energy>  (9) 
-7.76

>  <cluster_rmsd>  (9) 
0.0

>  <rmsd>  (9) 
270.22

>  <cluster>  (9) 
3

$$$$

     RDKit          3D

 53 56  0  0  0  0  0  0  0  0999 V2000
  140.8700   71.5030  221.3470 O   0  0  0  0  0  0  0  0  0  0  0  0
  140.3740   72.0480  222.3860 C   0  0  0  0  0  0  0  0  0  0  0  0
  139.9990   73.4120  222.2700 N   0  0  0  0  0  0  0  0  0  0  0  0
  140.1680   74.1490  221.0380 C   0  0  0  0  0  0  0  0  0  0  0  0
  140.9560   75.3800  221.2290 C   0  0  0  0  0  0  0  0  0  0  0  0
  140.9260   75.9280  222.3540 O   0  0  0  0  0  0  0  0  0  0  0  0
  141.7000   75.8690  220.1220 N   0  0  0  0  0  0  0  0  0  0  0  0
  143.0670   75.5310  219.7200 C   0  0  0  0  0  0  0  0  0  0  0  0
  142.8590   75.2940  218.2400 C   0  0  2  0  0  0  0  0  0  0  0  0
  143.8650   75.9220  217.5370 O   0  0  0  0  0  0  0  0  0  0  0  0
  141.5570   76.0000  217.8610 C   0  0  0  0  0  0  0  0  0  0  0  0
  141.2740   76.8410  219.1000 C   0  0  1  0  0  0  0  0  0  0  0  0
  139.8400   77.1970  219.2340 C   0  0  0  0  0  0  0  0  0  0  0  0
  139.5750   78.2230  220.1350 O   0  0  0  0  0  0  0  0  0  0  0  0
  140.3860   78.8810  220.9980 C   0  0  0  0  0  0  0  0  0  0  0  0
  140.1430   78.6880  222.3660 C   0  0  0  0  0  0  0  0  0  0  0  0
  140.8990   79.3000  223.3370 C   0  0  0  0  0  0  0  0  0  0  0  0
  141.9360   80.1350  222.9870 C   0  0  0  0  0  0  0  0  0  0  0  0
  142.9170   80.9300  224.2000 Cl  0  0  0  0  0  0  0  0  0  0  0  0
  142.2070   80.3510  221.6540 C   0  0  0  0  0  0  0  0  0  0  0  0
  141.4260   79.7190  220.6910 C   0  0  0  0  0  0  0  0  0  0  0  0
  140.1990   71.3170  223.6340 C   0  0  0  0  0  0  0  0  0  0  0  0
  139.5510   70.0990  223.5900 C   0  0  0  0  0  0  0  0  0  0  0  0
  139.3800   69.3960  224.7800 C   0  0  0  0  0  0  0  0  0  0  0  0
  139.8540   69.9230  225.9600 C   0  0  0  0  0  0  0  0  0  0  0  0
  139.7150   69.2720  227.1710 C   0  0  0  0  0  0  0  0  0  0  0  0
  140.1890   69.7990  228.3520 C   0  0  0  0  0  0  0  0  0  0  0  0
  140.8220   71.0200  228.2950 C   0  0  0  0  0  0  0  0  0  0  0  0
  140.9800   71.7060  227.0860 C   0  0  0  0  0  0  0  0  0  0  0  0
  140.4870   71.1410  225.9130 C   0  0  0  0  0  0  0  0  0  0  0  0
  140.6700   71.8480  224.7870 N   0  0  0  0  0  0  0  0  0  0  0  0
  139.5870   73.9090  223.0890 H   0  0  0  0  0  0  0  0  0  0  0  0
  140.6847   73.5071  220.3093 H   0  0  0  0  0  0  0  0  0  0  0  0
  139.1697   74.4395  220.6787 H   0  0  0  0  0  0  0  0  0  0  0  0
  143.7637   76.3618  219.9058 H   0  0  0  0  0  0  0  0  0  0  0  0
  143.5129   74.6858  220.2648 H   0  0  0  0  0  0  0  0  0  0  0  0
  142.8434   74.2165  218.0191 H   0  0  0  0  0  0  0  0  0  0  0  0
  144.7220   75.5740  217.8830 H   0  0  0  0  0  0  0  0  0  0  0  0
  141.6910   76.6330  216.9714 H   0  0  0  0  0  0  0  0  0  0  0  0
  140.7408   75.3104  217.5997 H   0  0  0  0  0  0  0  0  0  0  0  0
  141.7705   77.8221  219.1293 H   0  0  0  0  0  0  0  0  0  0  0  0
  139.4704   77.5061  218.2451 H   0  0  0  0  0  0  0  0  0  0  0  0
  139.3344   76.3023  219.6264 H   0  0  0  0  0  0  0  0  0  0  0  0
  139.3202   78.0250  222.6717 H   0  0  0  0  0  0  0  0  0  0  0  0
  140.6744   79.1218  224.3990 H   0  0  0  0  0  0  0  0  0  0  0  0
  143.0310   81.0152  221.3541 H   0  0  0  0  0  0  0  0  0  0  0  0
  141.6548   79.9012  219.6306 H   0  0  0  0  0  0  0  0  0  0  0  0
  139.1786   69.6933  222.6378 H   0  0  0  0  0  0  0  0  0  0  0  0
  138.8677   68.4226  224.7770 H   0  0  0  0  0  0  0  0  0  0  0  0
  139.2069   68.2966  227.1926 H   0  0  0  0  0  0  0  0  0  0  0  0
  140.0663   69.2640  229.3053 H   0  0  0  0  0  0  0  0  0  0  0  0
  141.2126   71.4666  229.2213 H   0  0  0  0  0  0  0  0  0  0  0  0
  141.4882   72.6813  227.0625 H   0  0  0  0  0  0  0  0  0  0  0  0
  1  2  2  0
  2  3  1  0
  3  4  1  0
  4  5  1  0
  5  6  2  0
  5  7  1  0
  7  8  1  0
  8  9  1  0
  9 10  1  0
  9 11  1  0
 11 12  1  0
 12 13  1  0
 13 14  1  0
 14 15  1  0
 15 16  2  0
 16 17  1  0
 17 18  2  0
 18 19  1  0
 18 20  1  0
 20 21  2  0
  2 22  1  0
 22 23  2  0
 23 24  1  0
 24 25  2  0
 25 26  1  0
 26 27  2  0
 27 28  1  0
 28 29  2  0
 29 30  1  0
 30 31  2  0
 12  7  1  0
 21 15  1  0
 31 22  1  0
 30 25  1  0
  3 32  1  0
  4 33  1  0
  4 34  1  0
  8 35  1  0
  8 36  1  0
  9 37  1  1
 10 38  1  0
 11 39  1  0
 11 40  1  0
 12 41  1  6
 13 42  1  0
 13 43  1  0
 16 44  1  0
 17 45  1  0
 20 46  1  0
 21 47  1  0
 23 48  1  0
 24 49  1  0
 26 50  1  0
 27 51  1  0
 28 52  1  0
 29 53  1  0
M  END
>  <smiles>  (10) 
O=C(NCC(=O)N1C[C@H](O)C[C@H]1COc1ccc(Cl)cc1)c1ccc2ccccc2n1

>  <score_type>  (10) 
oracle

>  <origin>  (10) 
autodockgpu

>  <m_score__min__energy>  (10) 
-9.2599999999999998

>  <m_primary>  (10) 
energy

>  <meeko>  (10) 
{"free_energy": -8.62, "intermolecular_energy": -11.01, "internal_energy": -1.89, "cluster_size": 6, "cluster_id": 1, "rank_in_cluster": 5}

>  <energy>  (10) 
-7.4

>  <cluster_rmsd>  (10) 
0.59

>  <rmsd>  (10) 
270.13

>  <cluster>  (10) 
3

$$$$

     RDKit          3D

 53 56  0  0  0  0  0  0  0  0999 V2000
  138.9660   75.1660  221.8840 O   0  0  0  0  0  0  0  0  0  0  0  0
  140.0980   75.7260  222.0540 C   0  0  0  0  0  0  0  0  0  0  0  0
  141.2450   74.9260  221.8150 N   0  0  0  0  0  0  0  0  0  0  0  0
  141.1410   73.5450  221.4000 C   0  0  0  0  0  0  0  0  0  0  0  0
  141.6750   73.3290  220.0430 C   0  0  0  0  0  0  0  0  0  0  0  0
  140.8980   72.8760  219.1730 O   0  0  0  0  0  0  0  0  0  0  0  0
  143.0390   73.6480  219.8090 N   0  0  0  0  0  0  0  0  0  0  0  0
  144.2350   73.0130  220.3660 C   0  0  0  0  0  0  0  0  0  0  0  0
  145.0600   72.8490  219.1080 C   0  0  2  0  0  0  0  0  0  0  0  0
  146.3560   73.2400  219.3650 O   0  0  0  0  0  0  0  0  0  0  0  0
  144.5020   73.8390  218.0850 C   0  0  0  0  0  0  0  0  0  0  0  0
  143.5870   74.7060  218.9410 C   0  0  1  0  0  0  0  0  0  0  0  0
  142.5290   75.3780  218.1470 C   0  0  0  0  0  0  0  0  0  0  0  0
  142.8430   76.6670  217.7290 O   0  0  0  0  0  0  0  0  0  0  0  0
  142.4950   77.8760  218.2330 C   0  0  0  0  0  0  0  0  0  0  0  0
  141.5710   77.8770  219.2880 C   0  0  0  0  0  0  0  0  0  0  0  0
  141.1410   79.0380  219.8830 C   0  0  0  0  0  0  0  0  0  0  0  0
  141.6160   80.2570  219.4530 C   0  0  0  0  0  0  0  0  0  0  0  0
  141.0890   81.7550  220.1890 Cl  0  0  0  0  0  0  0  0  0  0  0  0
  142.5250   80.2990  218.4190 C   0  0  0  0  0  0  0  0  0  0  0  0
  142.9430   79.1070  217.8330 C   0  0  0  0  0  0  0  0  0  0  0  0
  140.2170   77.1160  222.4720 C   0  0  0  0  0  0  0  0  0  0  0  0
  139.0570   77.8330  222.6920 C   0  0  0  0  0  0  0  0  0  0  0  0
  139.1640   79.1620  223.0910 C   0  0  0  0  0  0  0  0  0  0  0  0
  140.4090   79.7280  223.2580 C   0  0  0  0  0  0  0  0  0  0  0  0
  140.5790   81.0420  223.6530 C   0  0  0  0  0  0  0  0  0  0  0  0
  141.8230   81.6070  223.8190 C   0  0  0  0  0  0  0  0  0  0  0  0
  142.9210   80.8140  223.5760 C   0  0  0  0  0  0  0  0  0  0  0  0
  142.7850   79.4810  223.1750 C   0  0  0  0  0  0  0  0  0  0  0  0
  141.5110   78.9430  223.0180 C   0  0  0  0  0  0  0  0  0  0  0  0
  141.4460   77.6600  222.6310 N   0  0  0  0  0  0  0  0  0  0  0  0
  142.1970   75.3320  221.9390 H   0  0  0  0  0  0  0  0  0  0  0  0
  141.7060   72.9194  222.1066 H   0  0  0  0  0  0  0  0  0  0  0  0
  140.0747   73.2751  221.3899 H   0  0  0  0  0  0  0  0  0  0  0  0
  144.7360   73.6608  221.1004 H   0  0  0  0  0  0  0  0  0  0  0  0
  144.0478   72.0815  220.9203 H   0  0  0  0  0  0  0  0  0  0  0  0
  145.0294   71.8065  218.7583 H   0  0  0  0  0  0  0  0  0  0  0  0
  146.3760   74.2270  219.3180 H   0  0  0  0  0  0  0  0  0  0  0  0
  145.3053   74.4363  217.6289 H   0  0  0  0  0  0  0  0  0  0  0  0
  143.9894   73.3576  217.2392 H   0  0  0  0  0  0  0  0  0  0  0  0
  144.0758   75.5475  219.4538 H   0  0  0  0  0  0  0  0  0  0  0  0
  142.3316   74.7672  217.2537 H   0  0  0  0  0  0  0  0  0  0  0  0
  141.6566   75.4716  218.8104 H   0  0  0  0  0  0  0  0  0  0  0  0
  141.1775   76.9161  219.6511 H   0  0  0  0  0  0  0  0  0  0  0  0
  140.4137   78.9938  220.7070 H   0  0  0  0  0  0  0  0  0  0  0  0
  142.9160   81.2626  218.0605 H   0  0  0  0  0  0  0  0  0  0  0  0
  143.6689   79.1564  217.0080 H   0  0  0  0  0  0  0  0  0  0  0  0
  138.0713   77.3643  222.5550 H   0  0  0  0  0  0  0  0  0  0  0  0
  138.2577   79.7585  223.2724 H   0  0  0  0  0  0  0  0  0  0  0  0
  139.6876   81.6583  223.8415 H   0  0  0  0  0  0  0  0  0  0  0  0
  141.9354   82.6548  224.1346 H   0  0  0  0  0  0  0  0  0  0  0  0
  143.9284   81.2380  223.6999 H   0  0  0  0  0  0  0  0  0  0  0  0
  143.6758   78.8641  222.9856 H   0  0  0  0  0  0  0  0  0  0  0  0
  1  2  2  0
  2  3  1  0
  3  4  1  0
  4  5  1  0
  5  6  2  0
  5  7  1  0
  7  8  1  0
  8  9  1  0
  9 10  1  0
  9 11  1  0
 11 12  1  0
 12 13  1  0
 13 14  1  0
 14 15  1  0
 15 16  2  0
 16 17  1  0
 17 18  2  0
 18 19  1  0
 18 20  1  0
 20 21  2  0
  2 22  1  0
 22 23  2  0
 23 24  1  0
 24 25  2  0
 25 26  1  0
 26 27  2  0
 27 28  1  0
 28 29  2  0
 29 30  1  0
 30 31  2  0
 12  7  1  0
 21 15  1  0
 31 22  1  0
 30 25  1  0
  3 32  1  0
  4 33  1  0
  4 34  1  0
  8 35  1  0
  8 36  1  0
  9 37  1  6
 10 38  1  0
 11 39  1  0
 11 40  1  0
 12 41  1  1
 13 42  1  0
 13 43  1  0
 16 44  1  0
 17 45  1  0
 20 46  1  0
 21 47  1  0
 23 48  1  0
 24 49  1  0
 26 50  1  0
 27 51  1  0
 28 52  1  0
 29 53  1  0
M  END
>  <smiles>  (11) 
O=C(NCC(=O)N1C[C@H](O)C[C@H]1COc1ccc(Cl)cc1)c1ccc2ccccc2n1

>  <score_type>  (11) 
oracle

>  <origin>  (11) 
autodockgpu

>  <m_score__min__energy>  (11) 
-9.2599999999999998

>  <m_primary>  (11) 
energy

>  <meeko>  (11) 
{"free_energy": -7.76, "intermolecular_energy": -10.14, "internal_energy": -2.82, "cluster_size": 10, "cluster_id": 3, "rank_in_cluster": 1}

>  <energy>  (11) 
-7.34

>  <cluster_rmsd>  (11) 
0.65

>  <rmsd>  (11) 
270.03

>  <cluster>  (11) 
3

$$$$

     RDKit          3D

 53 56  0  0  0  0  0  0  0  0999 V2000
  139.9280   73.5870  222.6970 O   0  0  0  0  0  0  0  0  0  0  0  0
  140.1020   72.3300  222.5920 C   0  0  0  0  0  0  0  0  0  0  0  0
  140.3080   71.8240  221.2830 N   0  0  0  0  0  0  0  0  0  0  0  0
  140.3200   72.6880  220.1230 C   0  0  0  0  0  0  0  0  0  0  0  0
  141.6180   72.6660  219.4250 C   0  0  0  0  0  0  0  0  0  0  0  0
  141.6250   72.3750  218.2080 O   0  0  0  0  0  0  0  0  0  0  0  0
  142.7820   72.9770  220.1790 N   0  0  0  0  0  0  0  0  0  0  0  0
  143.9210   72.1150  220.4980 C   0  0  0  0  0  0  0  0  0  0  0  0
  145.0640   73.0490  220.1630 C   0  0  2  0  0  0  0  0  0  0  0  0
  146.0040   72.9890  221.1700 O   0  0  0  0  0  0  0  0  0  0  0  0
  144.4930   74.4670  220.1870 C   0  0  0  0  0  0  0  0  0  0  0  0
  143.1270   74.2540  220.8280 C   0  0  1  0  0  0  0  0  0  0  0  0
  142.1630   75.3290  220.4890 C   0  0  0  0  0  0  0  0  0  0  0  0
  141.1770   75.5520  221.4450 O   0  0  0  0  0  0  0  0  0  0  0  0
  140.7010   76.7020  221.9820 C   0  0  0  0  0  0  0  0  0  0  0  0
  139.3150   76.7760  222.1880 C   0  0  0  0  0  0  0  0  0  0  0  0
  138.7140   77.8890  222.7260 C   0  0  0  0  0  0  0  0  0  0  0  0
  139.4700   78.9820  223.0860 C   0  0  0  0  0  0  0  0  0  0  0  0
  138.7360   80.4140  223.7740 Cl  0  0  0  0  0  0  0  0  0  0  0  0
  140.8350   78.9480  222.9000 C   0  0  0  0  0  0  0  0  0  0  0  0
  141.4180   77.8090  222.3520 C   0  0  0  0  0  0  0  0  0  0  0  0
  140.0920   71.4490  223.7520 C   0  0  0  0  0  0  0  0  0  0  0  0
  139.5730   70.1780  223.6010 C   0  0  0  0  0  0  0  0  0  0  0  0
  139.5590   69.3310  224.7060 C   0  0  0  0  0  0  0  0  0  0  0  0
  140.0570   69.7720  225.9110 C   0  0  0  0  0  0  0  0  0  0  0  0
  140.0710   68.9780  227.0430 C   0  0  0  0  0  0  0  0  0  0  0  0
  140.5690   69.4190  228.2480 C   0  0  0  0  0  0  0  0  0  0  0  0
  141.0650   70.7030  228.3010 C   0  0  0  0  0  0  0  0  0  0  0  0
  141.0660   71.5330  227.1760 C   0  0  0  0  0  0  0  0  0  0  0  0
  140.5550   71.0510  225.9740 C   0  0  0  0  0  0  0  0  0  0  0  0
  140.5840   71.8960  224.9310 N   0  0  0  0  0  0  0  0  0  0  0  0
  140.4560   70.8030  221.1370 H   0  0  0  0  0  0  0  0  0  0  0  0
  139.5372   72.3553  219.4255 H   0  0  0  0  0  0  0  0  0  0  0  0
  140.1393   73.7171  220.4669 H   0  0  0  0  0  0  0  0  0  0  0  0
  143.9286   71.8257  221.5592 H   0  0  0  0  0  0  0  0  0  0  0  0
  143.9374   71.1542  219.9626 H   0  0  0  0  0  0  0  0  0  0  0  0
  145.5115   72.7817  219.1943 H   0  0  0  0  0  0  0  0  0  0  0  0
  145.9130   72.1040  221.6000 H   0  0  0  0  0  0  0  0  0  0  0  0
  145.1180   75.1383  220.7942 H   0  0  0  0  0  0  0  0  0  0  0  0
  144.4460   74.9406  219.1953 H   0  0  0  0  0  0  0  0  0  0  0  0
  143.1146   74.2561  221.9279 H   0  0  0  0  0  0  0  0  0  0  0  0
  142.7266   76.2640  220.3544 H   0  0  0  0  0  0  0  0  0  0  0  0
  141.6417   75.0010  219.5776 H   0  0  0  0  0  0  0  0  0  0  0  0
  138.6890   75.9153  221.9099 H   0  0  0  0  0  0  0  0  0  0  0  0
  137.6236   77.9066  222.8697 H   0  0  0  0  0  0  0  0  0  0  0  0
  141.4566   79.8108  223.1813 H   0  0  0  0  0  0  0  0  0  0  0  0
  142.5086   77.7972  222.2090 H   0  0  0  0  0  0  0  0  0  0  0  0
  139.1797   69.8426  222.6300 H   0  0  0  0  0  0  0  0  0  0  0  0
  139.1515   68.3132  224.6163 H   0  0  0  0  0  0  0  0  0  0  0  0
  139.6692   67.9560  226.9781 H   0  0  0  0  0  0  0  0  0  0  0  0
  140.5708   68.7699  229.1361 H   0  0  0  0  0  0  0  0  0  0  0  0
  141.4696   71.0840  229.2503 H   0  0  0  0  0  0  0  0  0  0  0  0
  141.4661   72.5556  227.2398 H   0  0  0  0  0  0  0  0  0  0  0  0
  1  2  2  0
  2  3  1  0
  3  4  1  0
  4  5  1  0
  5  6  2  0
  5  7  1  0
  7  8  1  0
  8  9  1  0
  9 10  1  0
  9 11  1  0
 11 12  1  0
 12 13  1  0
 13 14  1  0
 14 15  1  0
 15 16  2  0
 16 17  1  0
 17 18  2  0
 18 19  1  0
 18 20  1  0
 20 21  2  0
  2 22  1  0
 22 23  2  0
 23 24  1  0
 24 25  2  0
 25 26  1  0
 26 27  2  0
 27 28  1  0
 28 29  2  0
 29 30  1  0
 30 31  2  0
 12  7  1  0
 21 15  1  0
 31 22  1  0
 30 25  1  0
  3 32  1  0
  4 33  1  0
  4 34  1  0
  8 35  1  0
  8 36  1  0
  9 37  1  6
 10 38  1  0
 11 39  1  0
 11 40  1  0
 12 41  1  1
 13 42  1  0
 13 43  1  0
 16 44  1  0
 17 45  1  0
 20 46  1  0
 21 47  1  0
 23 48  1  0
 24 49  1  0
 26 50  1  0
 27 51  1  0
 28 52  1  0
 29 53  1  0
M  END
>  <smiles>  (12) 
O=C(NCC(=O)N1C[C@H](O)C[C@H]1COc1ccc(Cl)cc1)c1ccc2ccccc2n1

>  <score_type>  (12) 
oracle

>  <origin>  (12) 
autodockgpu

>  <m_score__min__energy>  (12) 
-9.2599999999999998

>  <m_primary>  (12) 
energy

>  <meeko>  (12) 
{"free_energy": -8.86, "intermolecular_energy": -11.25, "internal_energy": -1.56, "cluster_size": 6, "cluster_id": 1, "rank_in_cluster": 4}

>  <energy>  (12) 
-7.17

>  <cluster_rmsd>  (12) 
0.79

>  <rmsd>  (12) 
270.17

>  <cluster>  (12) 
3

$$$$

     RDKit          3D

 53 56  0  0  0  0  0  0  0  0999 V2000
  140.7870   71.3740  221.3440 O   0  0  0  0  0  0  0  0  0  0  0  0
  140.3270   71.9390  222.3890 C   0  0  0  0  0  0  0  0  0  0  0  0
  139.9890   73.3120  222.2730 N   0  0  0  0  0  0  0  0  0  0  0  0
  140.1560   74.0380  221.0340 C   0  0  0  0  0  0  0  0  0  0  0  0
  140.8700   75.3140  221.2270 C   0  0  0  0  0  0  0  0  0  0  0  0
  140.7820   75.8710  222.3440 O   0  0  0  0  0  0  0  0  0  0  0  0
  141.6130   75.8290  220.1320 N   0  0  0  0  0  0  0  0  0  0  0  0
  142.9800   75.5040  219.7220 C   0  0  0  0  0  0  0  0  0  0  0  0
  142.7720   75.3020  218.2360 C   0  0  2  0  0  0  0  0  0  0  0  0
  143.7760   75.9490  217.5490 O   0  0  0  0  0  0  0  0  0  0  0  0
  141.4680   76.0150  217.8750 C   0  0  0  0  0  0  0  0  0  0  0  0
  141.1850   76.8260  219.1340 C   0  0  1  0  0  0  0  0  0  0  0  0
  139.7500   77.1750  219.2770 C   0  0  0  0  0  0  0  0  0  0  0  0
  139.4960   78.2740  220.0920 O   0  0  0  0  0  0  0  0  0  0  0  0
  140.2280   78.8330  221.0850 C   0  0  0  0  0  0  0  0  0  0  0  0
  141.3160   79.6290  220.6960 C   0  0  0  0  0  0  0  0  0  0  0  0
  142.1320   80.2510  221.6100 C   0  0  0  0  0  0  0  0  0  0  0  0
  141.9000   80.1080  222.9590 C   0  0  0  0  0  0  0  0  0  0  0  0
  142.9220   80.8860  224.1490 Cl  0  0  0  0  0  0  0  0  0  0  0  0
  140.8430   79.3340  223.3830 C   0  0  0  0  0  0  0  0  0  0  0  0
  140.0310   78.7150  222.4360 C   0  0  0  0  0  0  0  0  0  0  0  0
  140.1540   71.2190  223.6430 C   0  0  0  0  0  0  0  0  0  0  0  0
  139.5140   69.9960  223.6100 C   0  0  0  0  0  0  0  0  0  0  0  0
  139.3460   69.3030  224.8060 C   0  0  0  0  0  0  0  0  0  0  0  0
  139.8140   69.8450  225.9820 C   0  0  0  0  0  0  0  0  0  0  0  0
  139.6770   69.2050  227.2000 C   0  0  0  0  0  0  0  0  0  0  0  0
  140.1450   69.7470  228.3760 C   0  0  0  0  0  0  0  0  0  0  0  0
  140.7690   70.9730  228.3080 C   0  0  0  0  0  0  0  0  0  0  0  0
  140.9240   71.6480  227.0930 C   0  0  0  0  0  0  0  0  0  0  0  0
  140.4390   71.0670  225.9250 C   0  0  0  0  0  0  0  0  0  0  0  0
  140.6190   71.7640  224.7920 N   0  0  0  0  0  0  0  0  0  0  0  0
  139.6070   73.8250  223.0960 H   0  0  0  0  0  0  0  0  0  0  0  0
  140.7292   73.4141  220.3325 H   0  0  0  0  0  0  0  0  0  0  0  0
  139.1550   74.2678  220.6401 H   0  0  0  0  0  0  0  0  0  0  0  0
  143.6748   76.3316  219.9275 H   0  0  0  0  0  0  0  0  0  0  0  0
  143.4280   74.6470  220.2463 H   0  0  0  0  0  0  0  0  0  0  0  0
  142.7586   74.2303  217.9885 H   0  0  0  0  0  0  0  0  0  0  0  0
  144.6340   75.6550  217.9420 H   0  0  0  0  0  0  0  0  0  0  0  0
  141.6000   76.6691  217.0005 H   0  0  0  0  0  0  0  0  0  0  0  0
  140.6526   75.3305  217.5982 H   0  0  0  0  0  0  0  0  0  0  0  0
  141.6800   77.8069  219.1871 H   0  0  0  0  0  0  0  0  0  0  0  0
  139.3488   77.3912  218.2758 H   0  0  0  0  0  0  0  0  0  0  0  0
  139.2678   76.3125  219.7603 H   0  0  0  0  0  0  0  0  0  0  0  0
  141.5226   79.7595  219.6235 H   0  0  0  0  0  0  0  0  0  0  0  0
  142.9748   80.8662  221.2618 H   0  0  0  0  0  0  0  0  0  0  0  0
  140.6424   79.2062  224.4570 H   0  0  0  0  0  0  0  0  0  0  0  0
  139.1898   78.1009  222.7900 H   0  0  0  0  0  0  0  0  0  0  0  0
  139.1455   69.5789  222.6612 H   0  0  0  0  0  0  0  0  0  0  0  0
  138.8410   68.3258  224.8113 H   0  0  0  0  0  0  0  0  0  0  0  0
  139.1755   68.2265  227.2306 H   0  0  0  0  0  0  0  0  0  0  0  0
  140.0250   69.2204  229.3343 H   0  0  0  0  0  0  0  0  0  0  0  0
  141.1543   71.4318  229.2305 H   0  0  0  0  0  0  0  0  0  0  0  0
  141.4238   72.6274  227.0609 H   0  0  0  0  0  0  0  0  0  0  0  0
  1  2  2  0
  2  3  1  0
  3  4  1  0
  4  5  1  0
  5  6  2  0
  5  7  1  0
  7  8  1  0
  8  9  1  0
  9 10  1  0
  9 11  1  0
 11 12  1  0
 12 13  1  0
 13 14  1  0
 14 15  1  0
 15 16  2  0
 16 17  1  0
 17 18  2  0
 18 19  1  0
 18 20  1  0
 20 21  2  0
  2 22  1  0
 22 23  2  0
 23 24  1  0
 24 25  2  0
 25 26  1  0
 26 27  2  0
 27 28  1  0
 28 29  2  0
 29 30  1  0
 30 31  2  0
 12  7  1  0
 21 15  1  0
 31 22  1  0
 30 25  1  0
  3 32  1  0
  4 33  1  0
  4 34  1  0
  8 35  1  0
  8 36  1  0
  9 37  1  1
 10 38  1  0
 11 39  1  0
 11 40  1  0
 12 41  1  6
 13 42  1  0
 13 43  1  0
 16 44  1  0
 17 45  1  0
 20 46  1  0
 21 47  1  0
 23 48  1  0
 24 49  1  0
 26 50  1  0
 27 51  1  0
 28 52  1  0
 29 53  1  0
M  END
>  <smiles>  (13) 
O=C(NCC(=O)N1C[C@H](O)C[C@H]1COc1ccc(Cl)cc1)c1ccc2ccccc2n1

>  <score_type>  (13) 
oracle

>  <origin>  (13) 
autodockgpu

>  <m_score__min__energy>  (13) 
-9.2599999999999998

>  <m_primary>  (13) 
energy

>  <meeko>  (13) 
{"free_energy": -8.56, "intermolecular_energy": -10.95, "internal_energy": -1.93, "cluster_size": 6, "cluster_id": 1, "rank_in_cluster": 6}

>  <energy>  (13) 
-7.0

>  <cluster_rmsd>  (13) 
1.32

>  <rmsd>  (13) 
270.09

>  <cluster>  (13) 
3

$$$$

     RDKit          3D

 53 56  0  0  0  0  0  0  0  0999 V2000
  139.1570   74.8660  222.2580 O   0  0  0  0  0  0  0  0  0  0  0  0
  140.2090   75.5600  222.0690 C   0  0  0  0  0  0  0  0  0  0  0  0
  141.3370   74.8740  221.5490 N   0  0  0  0  0  0  0  0  0  0  0  0
  141.3000   73.4610  221.2450 C   0  0  0  0  0  0  0  0  0  0  0  0
  142.0080   73.1410  219.9920 C   0  0  0  0  0  0  0  0  0  0  0  0
  141.3510   73.1590  218.9270 O   0  0  0  0  0  0  0  0  0  0  0  0
  143.3920   72.8320  220.0720 N   0  0  0  0  0  0  0  0  0  0  0  0
  144.0410   71.5220  219.9990 C   0  0  0  0  0  0  0  0  0  0  0  0
  145.1550   71.8310  219.0220 C   0  0  2  0  0  0  0  0  0  0  0  0
  146.3300   71.2850  219.4910 O   0  0  0  0  0  0  0  0  0  0  0  0
  145.3450   73.3490  219.0390 C   0  0  0  0  0  0  0  0  0  0  0  0
  144.5200   73.7630  220.2510 C   0  0  1  0  0  0  0  0  0  0  0  0
  144.0870   75.1810  220.1900 C   0  0  0  0  0  0  0  0  0  0  0  0
  143.0440   75.4340  219.3050 O   0  0  0  0  0  0  0  0  0  0  0  0
  142.2380   76.5140  219.1670 C   0  0  0  0  0  0  0  0  0  0  0  0
  140.8970   76.2630  218.8380 C   0  0  0  0  0  0  0  0  0  0  0  0
  139.9820   77.2750  218.6720 C   0  0  0  0  0  0  0  0  0  0  0  0
  140.3630   78.5890  218.8270 C   0  0  0  0  0  0  0  0  0  0  0  0
  139.2230   79.9010  218.6220 Cl  0  0  0  0  0  0  0  0  0  0  0  0
  141.6710   78.8780  219.1500 C   0  0  0  0  0  0  0  0  0  0  0  0
  142.5770   77.8330  219.3120 C   0  0  0  0  0  0  0  0  0  0  0  0
  140.2600   76.9830  222.3710 C   0  0  0  0  0  0  0  0  0  0  0  0
  139.0680   77.6680  222.4920 C   0  0  0  0  0  0  0  0  0  0  0  0
  139.1100   79.0290  222.7800 C   0  0  0  0  0  0  0  0  0  0  0  0
  140.3250   79.6580  222.9370 C   0  0  0  0  0  0  0  0  0  0  0  0
  140.4310   81.0050  223.2240 C   0  0  0  0  0  0  0  0  0  0  0  0
  141.6460   81.6340  223.3800 C   0  0  0  0  0  0  0  0  0  0  0  0
  142.7820   80.8680  223.2410 C   0  0  0  0  0  0  0  0  0  0  0  0
  142.7110   79.5020  222.9510 C   0  0  0  0  0  0  0  0  0  0  0  0
  141.4640   78.9010  222.8000 C   0  0  0  0  0  0  0  0  0  0  0  0
  141.4620   77.5880  222.5220 N   0  0  0  0  0  0  0  0  0  0  0  0
  142.2250   75.3920  221.3740 H   0  0  0  0  0  0  0  0  0  0  0  0
  141.7735   72.9088  222.0701 H   0  0  0  0  0  0  0  0  0  0  0  0
  140.2464   73.1704  221.1206 H   0  0  0  0  0  0  0  0  0  0  0  0
  144.4326   71.2059  220.9771 H   0  0  0  0  0  0  0  0  0  0  0  0
  143.3802   70.6950  219.6999 H   0  0  0  0  0  0  0  0  0  0  0  0
  144.9136   71.4385  218.0232 H   0  0  0  0  0  0  0  0  0  0  0  0
  146.3300   71.3950  220.4730 H   0  0  0  0  0  0  0  0  0  0  0  0
  146.4041   73.6170  219.1671 H   0  0  0  0  0  0  0  0  0  0  0  0
  145.0371   73.8430  218.1056 H   0  0  0  0  0  0  0  0  0  0  0  0
  145.0408   73.7105  221.2185 H   0  0  0  0  0  0  0  0  0  0  0  0
  143.7629   75.4836  221.1967 H   0  0  0  0  0  0  0  0  0  0  0  0
  144.9513   75.7536  219.8225 H   0  0  0  0  0  0  0  0  0  0  0  0
  140.5673   75.2216  218.7087 H   0  0  0  0  0  0  0  0  0  0  0  0
  138.9402   77.0340  218.4140 H   0  0  0  0  0  0  0  0  0  0  0  0
  141.9955   79.9212  219.2783 H   0  0  0  0  0  0  0  0  0  0  0  0
  143.6177   78.0794  219.5695 H   0  0  0  0  0  0  0  0  0  0  0  0
  138.1062   77.1498  222.3637 H   0  0  0  0  0  0  0  0  0  0  0  0
  138.1756   79.6005  222.8819 H   0  0  0  0  0  0  0  0  0  0  0  0
  139.5104   81.5974  223.3320 H   0  0  0  0  0  0  0  0  0  0  0  0
  141.7069   82.7085  223.6072 H   0  0  0  0  0  0  0  0  0  0  0  0
  143.7676   81.3415  223.3608 H   0  0  0  0  0  0  0  0  0  0  0  0
  143.6307   78.9083  222.8433 H   0  0  0  0  0  0  0  0  0  0  0  0
  1  2  2  0
  2  3  1  0
  3  4  1  0
  4  5  1  0
  5  6  2  0
  5  7  1  0
  7  8  1  0
  8  9  1  0
  9 10  1  0
  9 11  1  0
 11 12  1  0
 12 13  1  0
 13 14  1  0
 14 15  1  0
 15 16  2  0
 16 17  1  0
 17 18  2  0
 18 19  1  0
 18 20  1  0
 20 21  2  0
  2 22  1  0
 22 23  2  0
 23 24  1  0
 24 25  2  0
 25 26  1  0
 26 27  2  0
 27 28  1  0
 28 29  2  0
 29 30  1  0
 30 31  2  0
 12  7  1  0
 21 15  1  0
 31 22  1  0
 30 25  1  0
  3 32  1  0
  4 33  1  0
  4 34  1  0
  8 35  1  0
  8 36  1  0
  9 37  1  6
 10 38  1  0
 11 39  1  0
 11 40  1  0
 12 41  1  1
 13 42  1  0
 13 43  1  0
 16 44  1  0
 17 45  1  0
 20 46  1  0
 21 47  1  0
 23 48  1  0
 24 49  1  0
 26 50  1  0
 27 51  1  0
 28 52  1  0
 29 53  1  0
M  END
>  <smiles>  (14) 
O=C(NCC(=O)N1C[C@H](O)C[C@H]1COc1ccc(Cl)cc1)c1ccc2ccccc2n1

>  <score_type>  (14) 
oracle

>  <origin>  (14) 
autodockgpu

>  <m_score__min__energy>  (14) 
-9.2599999999999998

>  <m_primary>  (14) 
energy

>  <meeko>  (14) 
{"free_energy": -6.55, "intermolecular_energy": -8.94, "internal_energy": -3.54, "cluster_size": 10, "cluster_id": 3, "rank_in_cluster": 10}

>  <energy>  (14) 
-6.88

>  <cluster_rmsd>  (14) 
0.71

>  <rmsd>  (14) 
270.11

>  <cluster>  (14) 
3

$$$$

     RDKit          3D

 53 56  0  0  0  0  0  0  0  0999 V2000
  139.0170   74.9990  222.3410 O   0  0  0  0  0  0  0  0  0  0  0  0
  140.0540   75.6760  222.0430 C   0  0  0  0  0  0  0  0  0  0  0  0
  141.0670   74.9990  221.3160 N   0  0  0  0  0  0  0  0  0  0  0  0
  140.9340   73.6110  220.9310 C   0  0  0  0  0  0  0  0  0  0  0  0
  141.7240   73.2880  219.7290 C   0  0  0  0  0  0  0  0  0  0  0  0
  141.1040   72.9770  218.6860 O   0  0  0  0  0  0  0  0  0  0  0  0
  143.1400   73.3500  219.8290 N   0  0  0  0  0  0  0  0  0  0  0  0
  144.0470   72.4320  220.5180 C   0  0  0  0  0  0  0  0  0  0  0  0
  145.0980   72.2410  219.4450 C   0  0  2  0  0  0  0  0  0  0  0  0
  146.3480   72.3340  220.0170 O   0  0  0  0  0  0  0  0  0  0  0  0
  144.9680   73.4260  218.4880 C   0  0  0  0  0  0  0  0  0  0  0  0
  144.0450   74.3630  219.2580 C   0  0  1  0  0  0  0  0  0  0  0  0
  143.3300   75.3140  218.3730 C   0  0  0  0  0  0  0  0  0  0  0  0
  142.4150   76.1390  219.0210 O   0  0  0  0  0  0  0  0  0  0  0  0
  142.2000   77.4730  218.9290 C   0  0  0  0  0  0  0  0  0  0  0  0
  141.0820   77.9810  219.6090 C   0  0  0  0  0  0  0  0  0  0  0  0
  140.7600   79.3160  219.5930 C   0  0  0  0  0  0  0  0  0  0  0  0
  141.5400   80.2110  218.8960 C   0  0  0  0  0  0  0  0  0  0  0  0
  141.1560   81.9190  218.8550 Cl  0  0  0  0  0  0  0  0  0  0  0  0
  142.6460   79.7530  218.2150 C   0  0  0  0  0  0  0  0  0  0  0  0
  142.9500   78.3950  218.2480 C   0  0  0  0  0  0  0  0  0  0  0  0
  140.2010   77.0730  222.4250 C   0  0  0  0  0  0  0  0  0  0  0  0
  139.0560   77.8120  222.6500 C   0  0  0  0  0  0  0  0  0  0  0  0
  139.1900   79.1490  223.0150 C   0  0  0  0  0  0  0  0  0  0  0  0
  140.4450   79.7000  223.1420 C   0  0  0  0  0  0  0  0  0  0  0  0
  140.6420   81.0210  223.5010 C   0  0  0  0  0  0  0  0  0  0  0  0
  141.8970   81.5720  223.6280 C   0  0  0  0  0  0  0  0  0  0  0  0
  142.9790   80.7570  223.3810 C   0  0  0  0  0  0  0  0  0  0  0  0
  142.8160   79.4170  223.0150 C   0  0  0  0  0  0  0  0  0  0  0  0
  141.5310   78.8940  222.8980 C   0  0  0  0  0  0  0  0  0  0  0  0
  141.4410   77.6030  222.5440 N   0  0  0  0  0  0  0  0  0  0  0  0
  141.9380   75.5030  221.0440 H   0  0  0  0  0  0  0  0  0  0  0  0
  141.2789   72.9783  221.7621 H   0  0  0  0  0  0  0  0  0  0  0  0
  139.8750   73.4251  220.6989 H   0  0  0  0  0  0  0  0  0  0  0  0
  144.4702   72.8832  221.4276 H   0  0  0  0  0  0  0  0  0  0  0  0
  143.5795   71.5034  220.8774 H   0  0  0  0  0  0  0  0  0  0  0  0
  144.9696   71.2693  218.9457 H   0  0  0  0  0  0  0  0  0  0  0  0
  146.3150   71.8370  220.8700 H   0  0  0  0  0  0  0  0  0  0  0  0
  145.9449   73.8950  218.2992 H   0  0  0  0  0  0  0  0  0  0  0  0
  144.5871   73.1503  217.4936 H   0  0  0  0  0  0  0  0  0  0  0  0
  144.5402   75.0300  219.9790 H   0  0  0  0  0  0  0  0  0  0  0  0
  144.0785   75.9528  217.8814 H   0  0  0  0  0  0  0  0  0  0  0  0
  142.7496   74.7028  217.6662 H   0  0  0  0  0  0  0  0  0  0  0  0
  140.4424   77.2866  220.1736 H   0  0  0  0  0  0  0  0  0  0  0  0
  139.8744   79.6719  220.1399 H   0  0  0  0  0  0  0  0  0  0  0  0
  143.2816   80.4520  217.6517 H   0  0  0  0  0  0  0  0  0  0  0  0
  143.8370   78.0447  217.6997 H   0  0  0  0  0  0  0  0  0  0  0  0
  138.0612   77.3548  222.5433 H   0  0  0  0  0  0  0  0  0  0  0  0
  138.2963   79.7627  223.2012 H   0  0  0  0  0  0  0  0  0  0  0  0
  139.7634   81.6547  223.6921 H   0  0  0  0  0  0  0  0  0  0  0  0
  142.0307   82.6251  223.9163 H   0  0  0  0  0  0  0  0  0  0  0  0
  143.9946   81.1692  223.4736 H   0  0  0  0  0  0  0  0  0  0  0  0
  143.6938   78.7830  222.8216 H   0  0  0  0  0  0  0  0  0  0  0  0
  1  2  2  0
  2  3  1  0
  3  4  1  0
  4  5  1  0
  5  6  2  0
  5  7  1  0
  7  8  1  0
  8  9  1  0
  9 10  1  0
  9 11  1  0
 11 12  1  0
 12 13  1  0
 13 14  1  0
 14 15  1  0
 15 16  2  0
 16 17  1  0
 17 18  2  0
 18 19  1  0
 18 20  1  0
 20 21  2  0
  2 22  1  0
 22 23  2  0
 23 24  1  0
 24 25  2  0
 25 26  1  0
 26 27  2  0
 27 28  1  0
 28 29  2  0
 29 30  1  0
 30 31  2  0
 12  7  1  0
 21 15  1  0
 31 22  1  0
 30 25  1  0
  3 32  1  0
  4 33  1  0
  4 34  1  0
  8 35  1  0
  8 36  1  0
  9 37  1  6
 10 38  1  0
 11 39  1  0
 11 40  1  0
 12 41  1  1
 13 42  1  0
 13 43  1  0
 16 44  1  0
 17 45  1  0
 20 46  1  0
 21 47  1  0
 23 48  1  0
 24 49  1  0
 26 50  1  0
 27 51  1  0
 28 52  1  0
 29 53  1  0
M  END
>  <smiles>  (15) 
O=C(NCC(=O)N1C[C@H](O)C[C@H]1COc1ccc(Cl)cc1)c1ccc2ccccc2n1

>  <score_type>  (15) 
oracle

>  <origin>  (15) 
autodockgpu

>  <m_score__min__energy>  (15) 
-9.2599999999999998

>  <m_primary>  (15) 
energy

>  <meeko>  (15) 
{"free_energy": -7.17, "intermolecular_energy": -9.56, "internal_energy": -3.42, "cluster_size": 10, "cluster_id": 3, "rank_in_cluster": 4}

>  <energy>  (15) 
-6.86

>  <cluster_rmsd>  (15) 
0.72

>  <rmsd>  (15) 
270.06

>  <cluster>  (15) 
3

$$$$

     RDKit          3D

 53 56  0  0  0  0  0  0  0  0999 V2000
  137.3850   76.3900  222.1900 O   0  0  0  0  0  0  0  0  0  0  0  0
  138.6470   76.4850  222.3380 C   0  0  0  0  0  0  0  0  0  0  0  0
  139.4040   75.3090  222.1010 N   0  0  0  0  0  0  0  0  0  0  0  0
  138.7810   74.0640  221.7100 C   0  0  0  0  0  0  0  0  0  0  0  0
  139.7150   72.9260  221.7820 C   0  0  0  0  0  0  0  0  0  0  0  0
  140.7960   73.0910  222.3910 O   0  0  0  0  0  0  0  0  0  0  0  0
  139.3290   71.7100  221.1560 N   0  0  0  0  0  0  0  0  0  0  0  0
  139.6610   71.2280  219.8140 C   0  0  0  0  0  0  0  0  0  0  0  0
  140.0710   69.8070  220.1350 C   0  0  2  0  0  0  0  0  0  0  0  0
  139.4900   68.9540  219.2220 O   0  0  0  0  0  0  0  0  0  0  0  0
  139.4570   69.4700  221.4950 C   0  0  0  0  0  0  0  0  0  0  0  0
  138.4920   70.6300  221.7090 C   0  0  1  0  0  0  0  0  0  0  0  0
  138.1740   70.8510  223.1410 C   0  0  0  0  0  0  0  0  0  0  0  0
  139.2740   71.1240  223.9480 O   0  0  0  0  0  0  0  0  0  0  0  0
  139.7170   70.5250  225.0800 C   0  0  0  0  0  0  0  0  0  0  0  0
  139.5000   69.1430  225.1900 C   0  0  0  0  0  0  0  0  0  0  0  0
  139.9040   68.4240  226.2890 C   0  0  0  0  0  0  0  0  0  0  0  0
  140.5470   69.0510  227.3320 C   0  0  0  0  0  0  0  0  0  0  0  0
  141.0730   68.1630  228.7460 Cl  0  0  0  0  0  0  0  0  0  0  0  0
  140.7790   70.4070  227.2630 C   0  0  0  0  0  0  0  0  0  0  0  0
  140.3590   71.1110  226.1390 C   0  0  0  0  0  0  0  0  0  0  0  0
  139.2880   77.7320  222.7330 C   0  0  0  0  0  0  0  0  0  0  0  0
  138.4830   78.7890  223.1060 C   0  0  0  0  0  0  0  0  0  0  0  0
  139.0890   79.9840  223.4840 C   0  0  0  0  0  0  0  0  0  0  0  0
  140.4620   80.0860  223.4770 C   0  0  0  0  0  0  0  0  0  0  0  0
  141.1210   81.2450  223.8410 C   0  0  0  0  0  0  0  0  0  0  0  0
  142.4940   81.3470  223.8340 C   0  0  0  0  0  0  0  0  0  0  0  0
  143.2130   80.2390  223.4450 C   0  0  0  0  0  0  0  0  0  0  0  0
  142.5780   79.0510  223.0700 C   0  0  0  0  0  0  0  0  0  0  0  0
  141.1880   78.9850  223.0910 C   0  0  0  0  0  0  0  0  0  0  0  0
  140.6390   77.8180  222.7200 N   0  0  0  0  0  0  0  0  0  0  0  0
  140.4410   75.3270  222.2080 H   0  0  0  0  0  0  0  0  0  0  0  0
  137.9312   73.8675  222.3803 H   0  0  0  0  0  0  0  0  0  0  0  0
  138.4524   74.1650  220.6651 H   0  0  0  0  0  0  0  0  0  0  0  0
  138.7902   71.2592  219.1427 H   0  0  0  0  0  0  0  0  0  0  0  0
  140.4226   71.8203  219.2858 H   0  0  0  0  0  0  0  0  0  0  0  0
  141.1664   69.7073  220.1206 H   0  0  0  0  0  0  0  0  0  0  0  0
  140.0980   68.1820  219.1170 H   0  0  0  0  0  0  0  0  0  0  0  0
  138.9240   68.5082  221.4646 H   0  0  0  0  0  0  0  0  0  0  0  0
  140.1992   69.3590  222.2992 H   0  0  0  0  0  0  0  0  0  0  0  0
  137.4972   70.5085  221.2555 H   0  0  0  0  0  0  0  0  0  0  0  0
  137.4796   71.7014  223.2100 H   0  0  0  0  0  0  0  0  0  0  0  0
  137.7446   69.9085  223.5117 H   0  0  0  0  0  0  0  0  0  0  0  0
  138.9896   68.6179  224.3692 H   0  0  0  0  0  0  0  0  0  0  0  0
  139.7126   67.3418  226.3355 H   0  0  0  0  0  0  0  0  0  0  0  0
  141.2902   70.9269  228.0866 H   0  0  0  0  0  0  0  0  0  0  0  0
  140.5522   72.1931  226.0985 H   0  0  0  0  0  0  0  0  0  0  0  0
  137.3875   78.6896  223.1047 H   0  0  0  0  0  0  0  0  0  0  0  0
  138.4731   80.8435  223.7871 H   0  0  0  0  0  0  0  0  0  0  0  0
  140.5266   82.1183  224.1477 H   0  0  0  0  0  0  0  0  0  0  0  0
  142.9980   82.2794  224.1283 H   0  0  0  0  0  0  0  0  0  0  0  0
  144.3117   80.2896  223.4289 H   0  0  0  0  0  0  0  0  0  0  0  0
  143.1711   78.1774  222.7615 H   0  0  0  0  0  0  0  0  0  0  0  0
  1  2  2  0
  2  3  1  0
  3  4  1  0
  4  5  1  0
  5  6  2  0
  5  7  1  0
  7  8  1  0
  8  9  1  0
  9 10  1  0
  9 11  1  0
 11 12  1  0
 12 13  1  0
 13 14  1  0
 14 15  1  0
 15 16  2  0
 16 17  1  0
 17 18  2  0
 18 19  1  0
 18 20  1  0
 20 21  2  0
  2 22  1  0
 22 23  2  0
 23 24  1  0
 24 25  2  0
 25 26  1  0
 26 27  2  0
 27 28  1  0
 28 29  2  0
 29 30  1  0
 30 31  2  0
 12  7  1  0
 21 15  1  0
 31 22  1  0
 30 25  1  0
  3 32  1  0
  4 33  1  0
  4 34  1  0
  8 35  1  0
  8 36  1  0
  9 37  1  1
 10 38  1  0
 11 39  1  0
 11 40  1  0
 12 41  1  6
 13 42  1  0
 13 43  1  0
 16 44  1  0
 17 45  1  0
 20 46  1  0
 21 47  1  0
 23 48  1  0
 24 49  1  0
 26 50  1  0
 27 51  1  0
 28 52  1  0
 29 53  1  0
M  END
>  <smiles>  (16) 
O=C(NCC(=O)N1C[C@H](O)C[C@H]1COc1ccc(Cl)cc1)c1ccc2ccccc2n1

>  <score_type>  (16) 
oracle

>  <origin>  (16) 
autodockgpu

>  <m_score__min__energy>  (16) 
-9.2599999999999998

>  <m_primary>  (16) 
energy

>  <meeko>  (16) 
{"free_energy": -7.78, "intermolecular_energy": -10.17, "internal_energy": -2.06, "cluster_size": 2, "cluster_id": 2, "rank_in_cluster": 2}

>  <energy>  (16) 
-6.86

>  <cluster_rmsd>  (16) 
0.9

>  <rmsd>  (16) 
270.28

>  <cluster>  (16) 
3

$$$$

     RDKit          3D

 53 56  0  0  0  0  0  0  0  0999 V2000
  139.9650   73.6240  222.6310 O   0  0  0  0  0  0  0  0  0  0  0  0
  140.0320   72.3600  222.4850 C   0  0  0  0  0  0  0  0  0  0  0  0
  140.0800   71.8750  221.1530 N   0  0  0  0  0  0  0  0  0  0  0  0
  140.0540   72.7660  220.0140 C   0  0  0  0  0  0  0  0  0  0  0  0
  141.3710   72.8730  219.3600 C   0  0  0  0  0  0  0  0  0  0  0  0
  141.4290   72.6780  218.1250 O   0  0  0  0  0  0  0  0  0  0  0  0
  142.4910   73.1910  220.1730 N   0  0  0  0  0  0  0  0  0  0  0  0
  143.4150   72.2810  220.8520 C   0  0  0  0  0  0  0  0  0  0  0  0
  144.7380   72.9060  220.4660 C   0  0  2  0  0  0  0  0  0  0  0  0
  145.5470   72.9720  221.5800 O   0  0  0  0  0  0  0  0  0  0  0  0
  144.4390   74.3500  220.0600 C   0  0  0  0  0  0  0  0  0  0  0  0
  143.0010   74.5260  220.5330 C   0  0  1  0  0  0  0  0  0  0  0  0
  142.2900   75.6070  219.8070 C   0  0  0  0  0  0  0  0  0  0  0  0
  141.3160   76.2670  220.5490 O   0  0  0  0  0  0  0  0  0  0  0  0
  141.3980   77.3430  221.3680 C   0  0  0  0  0  0  0  0  0  0  0  0
  141.8500   78.5400  220.7930 C   0  0  0  0  0  0  0  0  0  0  0  0
  141.9760   79.7000  221.5190 C   0  0  0  0  0  0  0  0  0  0  0  0
  141.6530   79.7200  222.8580 C   0  0  0  0  0  0  0  0  0  0  0  0
  141.8020   81.1800  223.8110 Cl  0  0  0  0  0  0  0  0  0  0  0  0
  141.2060   78.5650  223.4600 C   0  0  0  0  0  0  0  0  0  0  0  0
  141.0890   77.4040  222.7010 C   0  0  0  0  0  0  0  0  0  0  0  0
  140.0580   71.4520  223.6230 C   0  0  0  0  0  0  0  0  0  0  0  0
  139.5640   70.1740  223.4500 C   0  0  0  0  0  0  0  0  0  0  0  0
  139.5860   69.3010  224.5350 C   0  0  0  0  0  0  0  0  0  0  0  0
  140.0930   69.7240  225.7430 C   0  0  0  0  0  0  0  0  0  0  0  0
  140.1420   68.9040  226.8540 C   0  0  0  0  0  0  0  0  0  0  0  0
  140.6490   69.3270  228.0620 C   0  0  0  0  0  0  0  0  0  0  0  0
  141.1180   70.6190  228.1390 C   0  0  0  0  0  0  0  0  0  0  0  0
  141.0840   71.4760  227.0340 C   0  0  0  0  0  0  0  0  0  0  0  0
  140.5650   71.0120  225.8280 C   0  0  0  0  0  0  0  0  0  0  0  0
  140.5590   71.8810  224.8060 N   0  0  0  0  0  0  0  0  0  0  0  0
  140.1350   70.8500  220.9740 H   0  0  0  0  0  0  0  0  0  0  0  0
  139.3255   72.3853  219.2831 H   0  0  0  0  0  0  0  0  0  0  0  0
  139.7739   73.7667  220.3747 H   0  0  0  0  0  0  0  0  0  0  0  0
  143.2646   72.2859  221.9417 H   0  0  0  0  0  0  0  0  0  0  0  0
  143.3066   71.2219  220.5751 H   0  0  0  0  0  0  0  0  0  0  0  0
  145.2219   72.3258  219.6665 H   0  0  0  0  0  0  0  0  0  0  0  0
  145.7850   72.0440  221.8210 H   0  0  0  0  0  0  0  0  0  0  0  0
  145.1146   75.0548  220.5666 H   0  0  0  0  0  0  0  0  0  0  0  0
  144.5777   74.5446  218.9863 H   0  0  0  0  0  0  0  0  0  0  0  0
  142.8817   74.8212  221.5859 H   0  0  0  0  0  0  0  0  0  0  0  0
  143.0348   76.3491  219.4837 H   0  0  0  0  0  0  0  0  0  0  0  0
  141.7658   75.1238  218.9694 H   0  0  0  0  0  0  0  0  0  0  0  0
  142.1125   78.5505  219.7248 H   0  0  0  0  0  0  0  0  0  0  0  0
  142.3363   80.6165  221.0288 H   0  0  0  0  0  0  0  0  0  0  0  0
  140.9444   78.5599  224.5284 H   0  0  0  0  0  0  0  0  0  0  0  0
  140.7305   76.4897  223.1966 H   0  0  0  0  0  0  0  0  0  0  0  0
  139.1624   69.8529  222.4776 H   0  0  0  0  0  0  0  0  0  0  0  0
  139.1995   68.2768  224.4270 H   0  0  0  0  0  0  0  0  0  0  0  0
  139.7618   67.8752  226.7702 H   0  0  0  0  0  0  0  0  0  0  0  0
  140.6783   68.6570  228.9339 H   0  0  0  0  0  0  0  0  0  0  0  0
  141.5288   70.9858  229.0912 H   0  0  0  0  0  0  0  0  0  0  0  0
  141.4631   72.5053  227.1168 H   0  0  0  0  0  0  0  0  0  0  0  0
  1  2  2  0
  2  3  1  0
  3  4  1  0
  4  5  1  0
  5  6  2  0
  5  7  1  0
  7  8  1  0
  8  9  1  0
  9 10  1  0
  9 11  1  0
 11 12  1  0
 12 13  1  0
 13 14  1  0
 14 15  1  0
 15 16  2  0
 16 17  1  0
 17 18  2  0
 18 19  1  0
 18 20  1  0
 20 21  2  0
  2 22  1  0
 22 23  2  0
 23 24  1  0
 24 25  2  0
 25 26  1  0
 26 27  2  0
 27 28  1  0
 28 29  2  0
 29 30  1  0
 30 31  2  0
 12  7  1  0
 21 15  1  0
 31 22  1  0
 30 25  1  0
  3 32  1  0
  4 33  1  0
  4 34  1  0
  8 35  1  0
  8 36  1  0
  9 37  1  6
 10 38  1  0
 11 39  1  0
 11 40  1  0
 12 41  1  1
 13 42  1  0
 13 43  1  0
 16 44  1  0
 17 45  1  0
 20 46  1  0
 21 47  1  0
 23 48  1  0
 24 49  1  0
 26 50  1  0
 27 51  1  0
 28 52  1  0
 29 53  1  0
M  END
>  <smiles>  (17) 
O=C(NCC(=O)N1C[C@H](O)C[C@H]1COc1ccc(Cl)cc1)c1ccc2ccccc2n1

>  <score_type>  (17) 
oracle

>  <origin>  (17) 
autodockgpu

>  <m_score__min__energy>  (17) 
-9.2599999999999998

>  <m_primary>  (17) 
energy

>  <meeko>  (17) 
{"free_energy": -9.08, "intermolecular_energy": -11.47, "internal_energy": -1.6, "cluster_size": 6, "cluster_id": 1, "rank_in_cluster": 2}

>  <energy>  (17) 
-6.82

>  <cluster_rmsd>  (17) 
0.69

>  <rmsd>  (17) 
270.15

>  <cluster>  (17) 
3

$$$$

     RDKit          3D

 53 56  0  0  0  0  0  0  0  0999 V2000
  139.0620   75.0080  222.3950 O   0  0  0  0  0  0  0  0  0  0  0  0
  140.0970   75.6910  222.1050 C   0  0  0  0  0  0  0  0  0  0  0  0
  141.1350   75.0110  221.4170 N   0  0  0  0  0  0  0  0  0  0  0  0
  141.0290   73.6140  221.0610 C   0  0  0  0  0  0  0  0  0  0  0  0
  141.6420   73.3240  219.7520 C   0  0  0  0  0  0  0  0  0  0  0  0
  140.9120   72.8410  218.8570 O   0  0  0  0  0  0  0  0  0  0  0  0
  143.0230   73.6130  219.5880 N   0  0  0  0  0  0  0  0  0  0  0  0
  144.1780   72.8000  219.9730 C   0  0  0  0  0  0  0  0  0  0  0  0
  145.0000   72.8860  218.7050 C   0  0  2  0  0  0  0  0  0  0  0  0
  146.3140   73.1340  219.0370 O   0  0  0  0  0  0  0  0  0  0  0  0
  144.5040   74.1160  217.9440 C   0  0  0  0  0  0  0  0  0  0  0  0
  143.6340   74.8100  218.9850 C   0  0  1  0  0  0  0  0  0  0  0  0
  142.6200   75.7060  218.3760 C   0  0  0  0  0  0  0  0  0  0  0  0
  142.0700   76.6420  219.2460 O   0  0  0  0  0  0  0  0  0  0  0  0
  141.9400   77.9860  219.1400 C   0  0  0  0  0  0  0  0  0  0  0  0
  142.8090   78.6360  218.2510 C   0  0  0  0  0  0  0  0  0  0  0  0
  142.7740   79.9960  218.0550 C   0  0  0  0  0  0  0  0  0  0  0  0
  141.8670   80.7730  218.7400 C   0  0  0  0  0  0  0  0  0  0  0  0
  141.7960   82.5080  218.5140 Cl  0  0  0  0  0  0  0  0  0  0  0  0
  140.9970   80.1730  219.6230 C   0  0  0  0  0  0  0  0  0  0  0  0
  141.0540   78.7940  219.8020 C   0  0  0  0  0  0  0  0  0  0  0  0
  140.2180   77.0990  222.4580 C   0  0  0  0  0  0  0  0  0  0  0  0
  139.0590   77.8280  222.6350 C   0  0  0  0  0  0  0  0  0  0  0  0
  139.1670   79.1750  222.9730 C   0  0  0  0  0  0  0  0  0  0  0  0
  140.4120   79.7440  223.1210 C   0  0  0  0  0  0  0  0  0  0  0  0
  140.5840   81.0750  223.4560 C   0  0  0  0  0  0  0  0  0  0  0  0
  141.8290   81.6440  223.6040 C   0  0  0  0  0  0  0  0  0  0  0  0
  142.9260   80.8370  223.4060 C   0  0  0  0  0  0  0  0  0  0  0  0
  142.7890   79.4870  223.0670 C   0  0  0  0  0  0  0  0  0  0  0  0
  141.5130   78.9460  222.9270 C   0  0  0  0  0  0  0  0  0  0  0  0
  141.4480   77.6460  222.6000 N   0  0  0  0  0  0  0  0  0  0  0  0
  142.0060   75.5210  221.1550 H   0  0  0  0  0  0  0  0  0  0  0  0
  141.5360   73.0131  221.8303 H   0  0  0  0  0  0  0  0  0  0  0  0
  139.9601   73.3626  220.9960 H   0  0  0  0  0  0  0  0  0  0  0  0
  144.7106   73.2305  220.8339 H   0  0  0  0  0  0  0  0  0  0  0  0
  143.9352   71.7773  220.2972 H   0  0  0  0  0  0  0  0  0  0  0  0
  144.9136   71.9567  218.1229 H   0  0  0  0  0  0  0  0  0  0  0  0
  146.4540   74.1090  218.9600 H   0  0  0  0  0  0  0  0  0  0  0  0
  145.3419   74.7572  217.6331 H   0  0  0  0  0  0  0  0  0  0  0  0
  143.9701   73.8736  217.0133 H   0  0  0  0  0  0  0  0  0  0  0  0
  144.1663   75.4805  219.6757 H   0  0  0  0  0  0  0  0  0  0  0  0
  143.0971   76.2488  217.5467 H   0  0  0  0  0  0  0  0  0  0  0  0
  141.7908   75.0598  218.0522 H   0  0  0  0  0  0  0  0  0  0  0  0
  143.5431   78.0372  217.6920 H   0  0  0  0  0  0  0  0  0  0  0  0
  143.4736   80.4656  217.3478 H   0  0  0  0  0  0  0  0  0  0  0  0
  140.2655   80.7766  220.1803 H   0  0  0  0  0  0  0  0  0  0  0  0
  140.3524   78.3297  220.5106 H   0  0  0  0  0  0  0  0  0  0  0  0
  138.0731   77.3560  222.5119 H   0  0  0  0  0  0  0  0  0  0  0  0
  138.2614   79.7816  223.1211 H   0  0  0  0  0  0  0  0  0  0  0  0
  139.6933   81.7019  223.6098 H   0  0  0  0  0  0  0  0  0  0  0  0
  141.9427   82.7051  223.8708 H   0  0  0  0  0  0  0  0  0  0  0  0
  143.9338   81.2635  223.5169 H   0  0  0  0  0  0  0  0  0  0  0  0
  143.6791   78.8594  222.9126 H   0  0  0  0  0  0  0  0  0  0  0  0
  1  2  2  0
  2  3  1  0
  3  4  1  0
  4  5  1  0
  5  6  2  0
  5  7  1  0
  7  8  1  0
  8  9  1  0
  9 10  1  0
  9 11  1  0
 11 12  1  0
 12 13  1  0
 13 14  1  0
 14 15  1  0
 15 16  2  0
 16 17  1  0
 17 18  2  0
 18 19  1  0
 18 20  1  0
 20 21  2  0
  2 22  1  0
 22 23  2  0
 23 24  1  0
 24 25  2  0
 25 26  1  0
 26 27  2  0
 27 28  1  0
 28 29  2  0
 29 30  1  0
 30 31  2  0
 12  7  1  0
 21 15  1  0
 31 22  1  0
 30 25  1  0
  3 32  1  0
  4 33  1  0
  4 34  1  0
  8 35  1  0
  8 36  1  0
  9 37  1  6
 10 38  1  0
 11 39  1  0
 11 40  1  0
 12 41  1  1
 13 42  1  0
 13 43  1  0
 16 44  1  0
 17 45  1  0
 20 46  1  0
 21 47  1  0
 23 48  1  0
 24 49  1  0
 26 50  1  0
 27 51  1  0
 28 52  1  0
 29 53  1  0
M  END
>  <smiles>  (18) 
O=C(NCC(=O)N1C[C@H](O)C[C@H]1COc1ccc(Cl)cc1)c1ccc2ccccc2n1

>  <score_type>  (18) 
oracle

>  <origin>  (18) 
autodockgpu

>  <m_score__min__energy>  (18) 
-9.2599999999999998

>  <m_primary>  (18) 
energy

>  <meeko>  (18) 
{"free_energy": -7.4, "intermolecular_energy": -9.79, "internal_energy": -3.32, "cluster_size": 10, "cluster_id": 3, "rank_in_cluster": 2}

>  <energy>  (18) 
-6.55

>  <cluster_rmsd>  (18) 
1.22

>  <rmsd>  (18) 
270.05

>  <cluster>  (18) 
3

$$$$

     RDKit          3D

 53 56  0  0  0  0  0  0  0  0999 V2000
  139.0450   74.9760  222.3120 O   0  0  0  0  0  0  0  0  0  0  0  0
  140.1230   75.6360  222.1500 C   0  0  0  0  0  0  0  0  0  0  0  0
  141.2290   74.9260  221.6180 N   0  0  0  0  0  0  0  0  0  0  0  0
  141.1440   73.5240  221.2750 C   0  0  0  0  0  0  0  0  0  0  0  0
  141.6890   73.2430  219.9340 C   0  0  0  0  0  0  0  0  0  0  0  0
  140.9190   72.7530  219.0780 O   0  0  0  0  0  0  0  0  0  0  0  0
  143.0570   73.5480  219.6980 N   0  0  0  0  0  0  0  0  0  0  0  0
  144.2390   72.7390  220.0030 C   0  0  0  0  0  0  0  0  0  0  0  0
  144.9870   72.8550  218.6920 C   0  0  2  0  0  0  0  0  0  0  0  0
  146.3160   73.1100  218.9540 O   0  0  0  0  0  0  0  0  0  0  0  0
  144.4380   74.0930  217.9820 C   0  0  0  0  0  0  0  0  0  0  0  0
  143.6230   74.7620  219.0820 C   0  0  1  0  0  0  0  0  0  0  0  0
  142.5680   75.6580  218.5480 C   0  0  0  0  0  0  0  0  0  0  0  0
  141.8580   76.3640  219.5130 O   0  0  0  0  0  0  0  0  0  0  0  0
  141.3130   77.6040  219.4870 C   0  0  0  0  0  0  0  0  0  0  0  0
  142.1990   78.6860  219.6010 C   0  0  0  0  0  0  0  0  0  0  0  0
  141.7680   79.9900  219.5860 C   0  0  0  0  0  0  0  0  0  0  0  0
  140.4280   80.2780  219.4550 C   0  0  0  0  0  0  0  0  0  0  0  0
  139.8460   81.9290  219.4330 Cl  0  0  0  0  0  0  0  0  0  0  0  0
  139.5250   79.2440  219.3410 C   0  0  0  0  0  0  0  0  0  0  0  0
  139.9890   77.9320  219.3590 C   0  0  0  0  0  0  0  0  0  0  0  0
  140.2230   77.0480  222.4920 C   0  0  0  0  0  0  0  0  0  0  0  0
  139.0540   77.7630  222.6610 C   0  0  0  0  0  0  0  0  0  0  0  0
  139.1420   79.1130  222.9880 C   0  0  0  0  0  0  0  0  0  0  0  0
  140.3790   79.7020  223.1340 C   0  0  0  0  0  0  0  0  0  0  0  0
  140.5310   81.0370  223.4570 C   0  0  0  0  0  0  0  0  0  0  0  0
  141.7670   81.6250  223.6030 C   0  0  0  0  0  0  0  0  0  0  0  0
  142.8760   80.8320  223.4140 C   0  0  0  0  0  0  0  0  0  0  0  0
  142.7590   79.4770  223.0850 C   0  0  0  0  0  0  0  0  0  0  0  0
  141.4920   78.9170  222.9480 C   0  0  0  0  0  0  0  0  0  0  0  0
  141.4450   77.6140  222.6320 N   0  0  0  0  0  0  0  0  0  0  0  0
  142.1370   75.4150  221.4640 H   0  0  0  0  0  0  0  0  0  0  0  0
  141.7118   72.9431  222.0167 H   0  0  0  0  0  0  0  0  0  0  0  0
  140.0809   73.2415  221.2727 H   0  0  0  0  0  0  0  0  0  0  0  0
  144.8158   73.1594  220.8400 H   0  0  0  0  0  0  0  0  0  0  0  0
  144.0237   71.7086  220.3223 H   0  0  0  0  0  0  0  0  0  0  0  0
  144.8757   71.9352  218.0991 H   0  0  0  0  0  0  0  0  0  0  0  0
  146.4300   74.0920  218.9460 H   0  0  0  0  0  0  0  0  0  0  0  0
  145.2515   74.7470  217.6349 H   0  0  0  0  0  0  0  0  0  0  0  0
  143.8536   73.8609  217.0794 H   0  0  0  0  0  0  0  0  0  0  0  0
  144.1882   75.4265  219.7520 H   0  0  0  0  0  0  0  0  0  0  0  0
  143.0453   76.3850  217.8745 H   0  0  0  0  0  0  0  0  0  0  0  0
  141.8389   75.0092  218.0406 H   0  0  0  0  0  0  0  0  0  0  0  0
  143.2750   78.4831  219.7059 H   0  0  0  0  0  0  0  0  0  0  0  0
  142.4971   80.8084  219.6791 H   0  0  0  0  0  0  0  0  0  0  0  0
  138.4500   79.4528  219.2370 H   0  0  0  0  0  0  0  0  0  0  0  0
  139.2557   77.1174  219.2657 H   0  0  0  0  0  0  0  0  0  0  0  0
  138.0749   77.2765  222.5399 H   0  0  0  0  0  0  0  0  0  0  0  0
  138.2274   79.7075  223.1294 H   0  0  0  0  0  0  0  0  0  0  0  0
  139.6311   81.6525  223.6028 H   0  0  0  0  0  0  0  0  0  0  0  0
  141.8648   82.6898  223.8613 H   0  0  0  0  0  0  0  0  0  0  0  0
  143.8774   81.2736  223.5241 H   0  0  0  0  0  0  0  0  0  0  0  0
  143.6582   78.8612  222.9363 H   0  0  0  0  0  0  0  0  0  0  0  0
  1  2  2  0
  2  3  1  0
  3  4  1  0
  4  5  1  0
  5  6  2  0
  5  7  1  0
  7  8  1  0
  8  9  1  0
  9 10  1  0
  9 11  1  0
 11 12  1  0
 12 13  1  0
 13 14  1  0
 14 15  1  0
 15 16  2  0
 16 17  1  0
 17 18  2  0
 18 19  1  0
 18 20  1  0
 20 21  2  0
  2 22  1  0
 22 23  2  0
 23 24  1  0
 24 25  2  0
 25 26  1  0
 26 27  2  0
 27 28  1  0
 28 29  2  0
 29 30  1  0
 30 31  2  0
 12  7  1  0
 21 15  1  0
 31 22  1  0
 30 25  1  0
  3 32  1  0
  4 33  1  0
  4 34  1  0
  8 35  1  0
  8 36  1  0
  9 37  1  6
 10 38  1  0
 11 39  1  0
 11 40  1  0
 12 41  1  1
 13 42  1  0
 13 43  1  0
 16 44  1  0
 17 45  1  0
 20 46  1  0
 21 47  1  0
 23 48  1  0
 24 49  1  0
 26 50  1  0
 27 51  1  0
 28 52  1  0
 29 53  1  0
M  END
>  <smiles>  (19) 
O=C(NCC(=O)N1C[C@H](O)C[C@H]1COc1ccc(Cl)cc1)c1ccc2ccccc2n1

>  <score_type>  (19) 
oracle

>  <origin>  (19) 
autodockgpu

>  <m_score__min__energy>  (19) 
-9.2599999999999998

>  <m_primary>  (19) 
energy

>  <meeko>  (19) 
{"free_energy": -6.88, "intermolecular_energy": -9.27, "internal_energy": -3.88, "cluster_size": 10, "cluster_id": 3, "rank_in_cluster": 6}

>  <energy>  (19) 
-7.58

>  <cluster_rmsd>  (19) 
0.0

>  <rmsd>  (19) 
270.02

>  <cluster>  (19) 
4

$$$$

     RDKit          3D

 53 56  0  0  0  0  0  0  0  0999 V2000
  139.1650   74.8590  222.3600 O   0  0  0  0  0  0  0  0  0  0  0  0
  140.1510   75.5880  222.0130 C   0  0  0  0  0  0  0  0  0  0  0  0
  141.1650   74.9610  221.2430 N   0  0  0  0  0  0  0  0  0  0  0  0
  141.0870   73.5660  220.8690 C   0  0  0  0  0  0  0  0  0  0  0  0
  141.6600   73.3150  219.5330 C   0  0  0  0  0  0  0  0  0  0  0  0
  140.8940   72.8940  218.6370 O   0  0  0  0  0  0  0  0  0  0  0  0
  143.0450   73.5680  219.3480 N   0  0  0  0  0  0  0  0  0  0  0  0
  144.1800   72.6880  219.6310 C   0  0  0  0  0  0  0  0  0  0  0  0
  144.9670   72.8460  218.3470 C   0  0  2  0  0  0  0  0  0  0  0  0
  146.2990   73.0220  218.6540 O   0  0  0  0  0  0  0  0  0  0  0  0
  144.4940   74.1490  217.7000 C   0  0  0  0  0  0  0  0  0  0  0  0
  143.6820   74.7880  218.8200 C   0  0  1  0  0  0  0  0  0  0  0  0
  142.6830   75.7630  218.3160 C   0  0  0  0  0  0  0  0  0  0  0  0
  142.3650   76.7850  219.2050 O   0  0  0  0  0  0  0  0  0  0  0  0
  142.2080   78.1160  219.0110 C   0  0  0  0  0  0  0  0  0  0  0  0
  141.1750   78.7410  219.7260 C   0  0  0  0  0  0  0  0  0  0  0  0
  140.9170   80.0860  219.6140 C   0  0  0  0  0  0  0  0  0  0  0  0
  141.6800   80.8740  218.7820 C   0  0  0  0  0  0  0  0  0  0  0  0
  141.3770   82.5900  218.6170 Cl  0  0  0  0  0  0  0  0  0  0  0  0
  142.7040   80.2980  218.0620 C   0  0  0  0  0  0  0  0  0  0  0  0
  142.9430   78.9340  218.1940 C   0  0  0  0  0  0  0  0  0  0  0  0
  140.2420   76.9930  222.3850 C   0  0  0  0  0  0  0  0  0  0  0  0
  139.0690   77.6980  222.5610 C   0  0  0  0  0  0  0  0  0  0  0  0
  139.1480   79.0420  222.9150 C   0  0  0  0  0  0  0  0  0  0  0  0
  140.3810   79.6340  223.0800 C   0  0  0  0  0  0  0  0  0  0  0  0
  140.5240   80.9630  223.4320 C   0  0  0  0  0  0  0  0  0  0  0  0
  141.7570   81.5540  223.5970 C   0  0  0  0  0  0  0  0  0  0  0  0
  142.8710   80.7700  223.3980 C   0  0  0  0  0  0  0  0  0  0  0  0
  142.7620   79.4220  223.0420 C   0  0  0  0  0  0  0  0  0  0  0  0
  141.4990   78.8590  222.8850 C   0  0  0  0  0  0  0  0  0  0  0  0
  141.4610   77.5620  222.5430 N   0  0  0  0  0  0  0  0  0  0  0  0
  141.9950   75.5080  220.9320 H   0  0  0  0  0  0  0  0  0  0  0  0
  141.6397   72.9692  221.6095 H   0  0  0  0  0  0  0  0  0  0  0  0
  140.0245   73.2829  220.8397 H   0  0  0  0  0  0  0  0  0  0  0  0
  144.7532   73.0305  220.5051 H   0  0  0  0  0  0  0  0  0  0  0  0
  143.9095   71.6518  219.8823 H   0  0  0  0  0  0  0  0  0  0  0  0
  144.8291   71.9688  217.6977 H   0  0  0  0  0  0  0  0  0  0  0  0
  146.4520   73.9950  218.7360 H   0  0  0  0  0  0  0  0  0  0  0  0
  145.3453   74.7835  217.4125 H   0  0  0  0  0  0  0  0  0  0  0  0
  143.9240   73.9994  216.7712 H   0  0  0  0  0  0  0  0  0  0  0  0
  144.2594   75.3832  219.5427 H   0  0  0  0  0  0  0  0  0  0  0  0
  143.0831   76.2196  217.3987 H   0  0  0  0  0  0  0  0  0  0  0  0
  141.7545   75.1971  218.1499 H   0  0  0  0  0  0  0  0  0  0  0  0
  140.5510   78.1341  220.3985 H   0  0  0  0  0  0  0  0  0  0  0  0
  140.0963   80.5356  220.1923 H   0  0  0  0  0  0  0  0  0  0  0  0
  143.3250   80.9095  217.3909 H   0  0  0  0  0  0  0  0  0  0  0  0
  143.7642   78.4894  217.6126 H   0  0  0  0  0  0  0  0  0  0  0  0
  138.0932   77.2089  222.4246 H   0  0  0  0  0  0  0  0  0  0  0  0
  138.2295   79.6290  223.0624 H   0  0  0  0  0  0  0  0  0  0  0  0
  139.6201   81.5707  223.5860 H   0  0  0  0  0  0  0  0  0  0  0  0
  141.8483   82.6137  223.8775 H   0  0  0  0  0  0  0  0  0  0  0  0
  143.8697   81.2140  223.5218 H   0  0  0  0  0  0  0  0  0  0  0  0
  143.6650   78.8131  222.8877 H   0  0  0  0  0  0  0  0  0  0  0  0
  1  2  2  0
  2  3  1  0
  3  4  1  0
  4  5  1  0
  5  6  2  0
  5  7  1  0
  7  8  1  0
  8  9  1  0
  9 10  1  0
  9 11  1  0
 11 12  1  0
 12 13  1  0
 13 14  1  0
 14 15  1  0
 15 16  2  0
 16 17  1  0
 17 18  2  0
 18 19  1  0
 18 20  1  0
 20 21  2  0
  2 22  1  0
 22 23  2  0
 23 24  1  0
 24 25  2  0
 25 26  1  0
 26 27  2  0
 27 28  1  0
 28 29  2  0
 29 30  1  0
 30 31  2  0
 12  7  1  0
 21 15  1  0
 31 22  1  0
 30 25  1  0
  3 32  1  0
  4 33  1  0
  4 34  1  0
  8 35  1  0
  8 36  1  0
  9 37  1  6
 10 38  1  0
 11 39  1  0
 11 40  1  0
 12 41  1  1
 13 42  1  0
 13 43  1  0
 16 44  1  0
 17 45  1  0
 20 46  1  0
 21 47  1  0
 23 48  1  0
 24 49  1  0
 26 50  1  0
 27 51  1  0
 28 52  1  0
 29 53  1  0
M  END
>  <smiles>  (20) 
O=C(NCC(=O)N1C[C@H](O)C[C@H]1COc1ccc(Cl)cc1)c1ccc2ccccc2n1

>  <score_type>  (20) 
oracle

>  <origin>  (20) 
autodockgpu

>  <m_score__min__energy>  (20) 
-9.2599999999999998

>  <m_primary>  (20) 
energy

>  <meeko>  (20) 
{"free_energy": -7.34, "intermolecular_energy": -9.72, "internal_energy": -3.31, "cluster_size": 10, "cluster_id": 3, "rank_in_cluster": 3}

>  <energy>  (20) 
-6.93

>  <cluster_rmsd>  (20) 
0.0

>  <rmsd>  (20) 
269.42

>  <cluster>  (20) 
5

$$$$
