YMXDKILJCZTOEU-UDRLWISANA-M
     RDKit          3D

 58 61  0  0  0  0  0  0  0  0999 V2000
  138.8400   71.3810  221.1750 O   0  0  0  0  0  0  0  0  0  0  0  0
  139.2250   71.8980  222.2600 C   0  0  0  0  0  0  0  0  0  0  0  0
  139.4480   73.3170  222.3430 N   0  0  0  0  0  0  0  0  0  0  0  0
  139.2250   74.2270  221.2240 C   0  0  0  0  0  0  0  0  0  0  0  0
  140.1930   73.9340  220.1120 C   0  0  0  0  0  0  0  0  0  0  0  0
  140.0100   72.8960  219.4180 O   0  0  0  0  0  0  0  0  0  0  0  0
  141.3150   74.7910  219.8240 N   0  0  0  0  0  0  0  0  0  0  0  0
  142.3610   74.3890  218.8920 C   0  0  0  0  0  0  0  0  0  0  0  0
  143.5620   75.2800  219.2100 C   0  0  2  0  0  0  0  0  0  0  0  0
  144.4460   74.6110  220.0730 O   0  0  0  0  0  0  0  0  0  0  0  0
  142.9770   76.4940  219.9280 C   0  0  0  0  0  0  0  0  0  0  0  0
  141.6510   76.0230  220.5290 C   0  0  1  0  0  0  0  0  0  0  0  0
  140.5800   77.0570  220.3380 C   0  0  0  0  0  0  0  0  0  0  0  0
  140.2230   77.3780  219.1710 O   0  0  0  0  0  0  0  0  0  0  0  0
  139.9570   77.6600  221.4790 N   0  0  0  0  0  0  0  0  0  0  0  0
  140.2070   79.0360  221.9060 C   0  0  0  0  0  0  0  0  0  0  0  0
  141.4520   79.5690  221.1630 C   0  0  0  0  0  0  0  0  0  0  0  0
  142.1590   80.6720  221.9550 C   0  0  0  0  0  0  0  0  0  0  0  0
  142.6650   80.1550  223.3190 C   0  0  0  0  0  0  0  0  0  0  0  0
  141.8100   79.0070  223.8960 C   0  0  0  0  0  0  0  0  0  0  0  0
  140.3480   79.1060  223.4500 C   0  0  0  0  0  0  0  0  0  0  0  0
  139.4510   71.0410  223.4430 C   0  0  0  0  0  0  0  0  0  0  0  0
  139.1130   69.6760  223.4240 C   0  0  0  0  0  0  0  0  0  0  0  0
  139.3430   68.8890  224.5560 C   0  0  0  0  0  0  0  0  0  0  0  0
  139.9040   69.4660  225.7030 C   0  0  0  0  0  0  0  0  0  0  0  0
  140.1450   68.7070  226.8570 C   0  0  0  0  0  0  0  0  0  0  0  0
  140.7050   69.3120  227.9880 C   0  0  0  0  0  0  0  0  0  0  0  0
  140.9330   68.5780  229.1080 F   0  0  0  0  0  0  0  0  0  0  0  0
  141.0320   70.6730  227.9690 C   0  0  0  0  0  0  0  0  0  0  0  0
  140.8010   71.4360  226.8190 C   0  0  0  0  0  0  0  0  0  0  0  0
  140.2340   70.8390  225.6860 C   0  0  0  0  0  0  0  0  0  0  0  0
  140.0020   71.5780  224.5680 N   0  0  0  0  0  0  0  0  0  0  0  0
  139.7140   73.7340  223.2630 H   0  0  0  0  0  0  0  0  0  0  0  0
  138.1972   74.1008  220.8530 H   0  0  0  0  0  0  0  0  0  0  0  0
  139.3774   75.2607  221.5678 H   0  0  0  0  0  0  0  0  0  0  0  0
  142.6194   73.3299  219.0388 H   0  0  0  0  0  0  0  0  0  0  0  0
  142.0382   74.5001  217.8463 H   0  0  0  0  0  0  0  0  0  0  0  0
  144.1205   75.5532  218.3026 H   0  0  0  0  0  0  0  0  0  0  0  0
  145.3340   74.6180  219.6280 H   0  0  0  0  0  0  0  0  0  0  0  0
  143.6580   76.8346  220.7219 H   0  0  0  0  0  0  0  0  0  0  0  0
  142.8323   77.3404  219.2405 H   0  0  0  0  0  0  0  0  0  0  0  0
  141.7346   75.8586  221.6134 H   0  0  0  0  0  0  0  0  0  0  0  0
  139.3556   79.6821  221.6458 H   0  0  0  0  0  0  0  0  0  0  0  0
  142.1550   78.7379  221.0049 H   0  0  0  0  0  0  0  0  0  0  0  0
  141.1212   79.9953  220.2045 H   0  0  0  0  0  0  0  0  0  0  0  0
  143.0165   81.0375  221.3710 H   0  0  0  0  0  0  0  0  0  0  0  0
  141.4368   81.4810  222.1394 H   0  0  0  0  0  0  0  0  0  0  0  0
  143.6960   79.7926  223.1936 H   0  0  0  0  0  0  0  0  0  0  0  0
  142.6019   80.9941  224.0275 H   0  0  0  0  0  0  0  0  0  0  0  0
  142.2231   78.0476  223.5512 H   0  0  0  0  0  0  0  0  0  0  0  0
  141.8380   79.0785  224.9933 H   0  0  0  0  0  0  0  0  0  0  0  0
  139.7831   78.2745  223.8966 H   0  0  0  0  0  0  0  0  0  0  0  0
  139.9551   80.0776  223.7841 H   0  0  0  0  0  0  0  0  0  0  0  0
  138.6694   69.2295  222.5219 H   0  0  0  0  0  0  0  0  0  0  0  0
  139.0844   67.8199  224.5464 H   0  0  0  0  0  0  0  0  0  0  0  0
  139.8940   67.6362  226.8734 H   0  0  0  0  0  0  0  0  0  0  0  0
  141.4717   71.1439  228.8605 H   0  0  0  0  0  0  0  0  0  0  0  0
  141.0645   72.5039  226.8048 H   0  0  0  0  0  0  0  0  0  0  0  0
  1  2  2  0
  2  3  1  0
  3  4  1  0
  4  5  1  0
  5  6  2  0
  5  7  1  0
  7  8  1  0
  8  9  1  0
  9 10  1  0
  9 11  1  0
 11 12  1  0
 12 13  1  0
 13 14  2  0
 13 15  1  0
 15 16  1  0
 16 17  1  0
 17 18  1  0
 18 19  1  0
 19 20  1  0
 20 21  1  0
  2 22  1  0
 22 23  2  0
 23 24  1  0
 24 25  2  0
 25 26  1  0
 26 27  2  0
 27 28  1  0
 27 29  1  0
 29 30  2  0
 30 31  1  0
 31 32  2  0
 12  7  1  0
 21 16  1  0
 32 22  1  0
 31 25  1  0
  3 33  1  0
  4 34  1  0
  4 35  1  0
  8 36  1  0
  8 37  1  0
  9 38  1  6
 10 39  1  0
 11 40  1  0
 11 41  1  0
 12 42  1  1
 16 43  1  0
 17 44  1  0
 17 45  1  0
 18 46  1  0
 18 47  1  0
 19 48  1  0
 19 49  1  0
 20 50  1  0
 20 51  1  0
 21 52  1  0
 21 53  1  0
 23 54  1  0
 24 55  1  0
 26 56  1  0
 29 57  1  0
 30 58  1  0
M  CHG  1  15  -1
M  END
>  <UniqueID>  (1) 
137

>  <SMILES>  (1) 
O=C(NCC(=O)N1C[C@H](O)C[C@H]1C(=O)[N-]C1CCCCC1)c1ccc2cc(F)ccc2n1

>  <Energy>  (1) 
51.087325513709516

>  <Genealogy>  (1) 
O=C(NCC(=O)N1C[C@H](O)C[C@H]1C(=O)[N-]C1CCCCC1)c1ccc2cc(F)ccc2n1 (protonated)
O=C(NCC(=O)N1C[C@H](O)C[C@H]1C(=O)[N-]C1CCCCC1)c1ccc2cc(F)ccc2n1 (3D coordinates assigned)
O=C(NCC(=O)N1C[C@H](O)C[C@H]1C(=O)[N-]C1CCCCC1)c1ccc2cc(F)ccc2n1 (nonaromatic ring conformer: 51.087325513709516 kcal/mol)

>  <smiles>  (1) 
O=C(NCC(=O)N1C[C@H](O)C[C@H]1C(=O)NC1CCCCC1)c1ccc2cc(F)ccc2n1

>  <score_type>  (1) 
oracle

>  <origin>  (1) 
autodockgpu

>  <m_score__min__energy>  (1) 
-8.7599999999999998

>  <m_primary>  (1) 
energy

>  <meeko>  (1) 
{"free_energy": -7.43, "intermolecular_energy": -9.82, "internal_energy": -1.82, "cluster_size": 9, "cluster_id": 1, "rank_in_cluster": 8}

>  <energy>  (1) 
-8.76

>  <cluster_rmsd>  (1) 
0.0

>  <rmsd>  (1) 
272.84

>  <cluster>  (1) 
1

$$$$
YMXDKILJCZTOEU-UDRLWISANA-M
     RDKit          3D

 58 61  0  0  0  0  0  0  0  0999 V2000
  141.3050   72.3070  221.7150 O   0  0  0  0  0  0  0  0  0  0  0  0
  140.3040   72.3870  222.4800 C   0  0  0  0  0  0  0  0  0  0  0  0
  139.2960   73.3870  222.2460 N   0  0  0  0  0  0  0  0  0  0  0  0
  139.3470   74.3260  221.1300 C   0  0  0  0  0  0  0  0  0  0  0  0
  140.0690   75.5800  221.5360 C   0  0  0  0  0  0  0  0  0  0  0  0
  139.9340   75.9910  222.7220 O   0  0  0  0  0  0  0  0  0  0  0  0
  140.8980   76.3210  220.6200 N   0  0  0  0  0  0  0  0  0  0  0  0
  141.7070   75.6490  219.6100 C   0  0  0  0  0  0  0  0  0  0  0  0
  142.7690   76.6650  219.1890 C   0  0  2  0  0  0  0  0  0  0  0  0
  143.9590   76.4460  219.9020 O   0  0  0  0  0  0  0  0  0  0  0  0
  142.1920   78.0250  219.5730 C   0  0  0  0  0  0  0  0  0  0  0  0
  141.1850   77.7490  220.6920 C   0  0  1  0  0  0  0  0  0  0  0  0
  139.9350   78.5570  220.4980 C   0  0  0  0  0  0  0  0  0  0  0  0
  139.4640   78.7090  219.3370 O   0  0  0  0  0  0  0  0  0  0  0  0
  139.2740   79.1340  221.6310 N   0  0  0  0  0  0  0  0  0  0  0  0
  139.9020   80.1030  222.5280 C   0  0  0  0  0  0  0  0  0  0  0  0
  141.0470   80.8120  221.7720 C   0  0  0  0  0  0  0  0  0  0  0  0
  142.1280   81.3260  222.7270 C   0  0  0  0  0  0  0  0  0  0  0  0
  142.7850   80.1700  223.5130 C   0  0  0  0  0  0  0  0  0  0  0  0
  141.8420   78.9710  223.7450 C   0  0  0  0  0  0  0  0  0  0  0  0
  140.3770   79.4070  223.8310 C   0  0  0  0  0  0  0  0  0  0  0  0
  140.1730   71.4540  223.6190 C   0  0  0  0  0  0  0  0  0  0  0  0
  139.5750   70.1920  223.4570 C   0  0  0  0  0  0  0  0  0  0  0  0
  139.4690   69.3290  224.5510 C   0  0  0  0  0  0  0  0  0  0  0  0
  139.9550   69.7290  225.8020 C   0  0  0  0  0  0  0  0  0  0  0  0
  139.8640   68.8900  226.9230 C   0  0  0  0  0  0  0  0  0  0  0  0
  140.3570   69.3180  228.1600 C   0  0  0  0  0  0  0  0  0  0  0  0
  140.2620   68.5080  229.2460 F   0  0  0  0  0  0  0  0  0  0  0  0
  140.9490   70.5810  228.2830 C   0  0  0  0  0  0  0  0  0  0  0  0
  141.0520   71.4210  227.1690 C   0  0  0  0  0  0  0  0  0  0  0  0
  140.5530   71.0030  225.9290 C   0  0  0  0  0  0  0  0  0  0  0  0
  140.6450   71.8190  224.8450 N   0  0  0  0  0  0  0  0  0  0  0  0
  138.4480   73.4030  222.8550 H   0  0  0  0  0  0  0  0  0  0  0  0
  139.8770   73.8590  220.2868 H   0  0  0  0  0  0  0  0  0  0  0  0
  138.3200   74.5847  220.8329 H   0  0  0  0  0  0  0  0  0  0  0  0
  142.1813   74.7512  220.0332 H   0  0  0  0  0  0  0  0  0  0  0  0
  141.0984   75.3193  218.7551 H   0  0  0  0  0  0  0  0  0  0  0  0
  143.0026   76.5920  218.1166 H   0  0  0  0  0  0  0  0  0  0  0  0
  144.0840   77.2360  220.4920 H   0  0  0  0  0  0  0  0  0  0  0  0
  142.9897   78.6923  219.9314 H   0  0  0  0  0  0  0  0  0  0  0  0
  141.7169   78.5208  218.7136 H   0  0  0  0  0  0  0  0  0  0  0  0
  141.5871   78.0309  221.6763 H   0  0  0  0  0  0  0  0  0  0  0  0
  139.1759   80.8692  222.8373 H   0  0  0  0  0  0  0  0  0  0  0  0
  141.5031   80.1001  221.0683 H   0  0  0  0  0  0  0  0  0  0  0  0
  140.6216   81.6763  221.2410 H   0  0  0  0  0  0  0  0  0  0  0  0
  142.9018   81.8469  222.1439 H   0  0  0  0  0  0  0  0  0  0  0  0
  141.6551   82.0088  223.4482 H   0  0  0  0  0  0  0  0  0  0  0  0
  143.6620   79.8195  222.9491 H   0  0  0  0  0  0  0  0  0  0  0  0
  143.0569   80.5647  224.5031 H   0  0  0  0  0  0  0  0  0  0  0  0
  141.9543   78.2633  222.9104 H   0  0  0  0  0  0  0  0  0  0  0  0
  142.1153   78.5017  224.7016 H   0  0  0  0  0  0  0  0  0  0  0  0
  139.7518   78.5194  224.0081 H   0  0  0  0  0  0  0  0  0  0  0  0
  140.2844   80.1289  224.6558 H   0  0  0  0  0  0  0  0  0  0  0  0
  139.1919   69.8850  222.4726 H   0  0  0  0  0  0  0  0  0  0  0  0
  139.0054   68.3389  224.4299 H   0  0  0  0  0  0  0  0  0  0  0  0
  139.4046   67.8950  226.8289 H   0  0  0  0  0  0  0  0  0  0  0  0
  141.3341   70.9136  229.2582 H   0  0  0  0  0  0  0  0  0  0  0  0
  141.5247   72.4094  227.2670 H   0  0  0  0  0  0  0  0  0  0  0  0
  1  2  2  0
  2  3  1  0
  3  4  1  0
  4  5  1  0
  5  6  2  0
  5  7  1  0
  7  8  1  0
  8  9  1  0
  9 10  1  0
  9 11  1  0
 11 12  1  0
 12 13  1  0
 13 14  2  0
 13 15  1  0
 15 16  1  0
 16 17  1  0
 17 18  1  0
 18 19  1  0
 19 20  1  0
 20 21  1  0
  2 22  1  0
 22 23  2  0
 23 24  1  0
 24 25  2  0
 25 26  1  0
 26 27  2  0
 27 28  1  0
 27 29  1  0
 29 30  2  0
 30 31  1  0
 31 32  2  0
 12  7  1  0
 21 16  1  0
 32 22  1  0
 31 25  1  0
  3 33  1  0
  4 34  1  0
  4 35  1  0
  8 36  1  0
  8 37  1  0
  9 38  1  6
 10 39  1  0
 11 40  1  0
 11 41  1  0
 12 42  1  1
 16 43  1  0
 17 44  1  0
 17 45  1  0
 18 46  1  0
 18 47  1  0
 19 48  1  0
 19 49  1  0
 20 50  1  0
 20 51  1  0
 21 52  1  0
 21 53  1  0
 23 54  1  0
 24 55  1  0
 26 56  1  0
 29 57  1  0
 30 58  1  0
M  CHG  1  15  -1
M  END
>  <UniqueID>  (2) 
137

>  <SMILES>  (2) 
O=C(NCC(=O)N1C[C@H](O)C[C@H]1C(=O)[N-]C1CCCCC1)c1ccc2cc(F)ccc2n1

>  <Energy>  (2) 
51.087325513709516

>  <Genealogy>  (2) 
O=C(NCC(=O)N1C[C@H](O)C[C@H]1C(=O)[N-]C1CCCCC1)c1ccc2cc(F)ccc2n1 (protonated)
O=C(NCC(=O)N1C[C@H](O)C[C@H]1C(=O)[N-]C1CCCCC1)c1ccc2cc(F)ccc2n1 (3D coordinates assigned)
O=C(NCC(=O)N1C[C@H](O)C[C@H]1C(=O)[N-]C1CCCCC1)c1ccc2cc(F)ccc2n1 (nonaromatic ring conformer: 51.087325513709516 kcal/mol)

>  <smiles>  (2) 
O=C(NCC(=O)N1C[C@H](O)C[C@H]1C(=O)NC1CCCCC1)c1ccc2cc(F)ccc2n1

>  <score_type>  (2) 
oracle

>  <origin>  (2) 
autodockgpu

>  <m_score__min__energy>  (2) 
-8.7599999999999998

>  <m_primary>  (2) 
energy

>  <meeko>  (2) 
{"free_energy": -8.76, "intermolecular_energy": -11.15, "internal_energy": -1.86, "cluster_size": 9, "cluster_id": 1, "rank_in_cluster": 1}

>  <energy>  (2) 
-8.54

>  <cluster_rmsd>  (2) 
0.29

>  <rmsd>  (2) 
272.71

>  <cluster>  (2) 
1

$$$$
YMXDKILJCZTOEU-UDRLWISANA-M
     RDKit          3D

 58 61  0  0  0  0  0  0  0  0999 V2000
  140.8210   74.2930  218.9960 O   0  0  0  0  0  0  0  0  0  0  0  0
  141.0290   74.2630  220.2410 C   0  0  0  0  0  0  0  0  0  0  0  0
  141.9330   75.2060  220.8430 N   0  0  0  0  0  0  0  0  0  0  0  0
  142.6250   76.2440  220.0860 C   0  0  0  0  0  0  0  0  0  0  0  0
  141.8040   77.5030  220.0570 C   0  0  0  0  0  0  0  0  0  0  0  0
  141.2610   77.8380  218.9680 O   0  0  0  0  0  0  0  0  0  0  0  0
  141.6260   78.3320  221.2220 N   0  0  0  0  0  0  0  0  0  0  0  0
  141.8400   79.7730  221.1720 C   0  0  0  0  0  0  0  0  0  0  0  0
  142.0380   80.2120  222.6230 C   0  0  2  0  0  0  0  0  0  0  0  0
  143.4080   80.2890  222.9230 O   0  0  0  0  0  0  0  0  0  0  0  0
  141.3990   79.1080  223.4630 C   0  0  0  0  0  0  0  0  0  0  0  0
  141.4150   77.8550  222.5840 C   0  0  1  0  0  0  0  0  0  0  0  0
  140.1170   77.1090  222.6940 C   0  0  0  0  0  0  0  0  0  0  0  0
  140.1170   75.8470  222.6510 O   0  0  0  0  0  0  0  0  0  0  0  0
  138.8910   77.8290  222.8670 N   0  0  0  0  0  0  0  0  0  0  0  0
  137.6000   77.3640  222.3620 C   0  0  0  0  0  0  0  0  0  0  0  0
  137.2290   76.0480  223.0810 C   0  0  0  0  0  0  0  0  0  0  0  0
  136.3010   75.1770  222.2300 C   0  0  0  0  0  0  0  0  0  0  0  0
  136.9720   74.7640  220.9020 C   0  0  0  0  0  0  0  0  0  0  0  0
  138.0000   75.7930  220.3880 C   0  0  0  0  0  0  0  0  0  0  0  0
  137.6440   77.2180  220.8180 C   0  0  0  0  0  0  0  0  0  0  0  0
  140.3460   73.2520  221.0760 C   0  0  0  0  0  0  0  0  0  0  0  0
  139.2470   72.5270  220.5820 C   0  0  0  0  0  0  0  0  0  0  0  0
  138.6240   71.5750  221.3920 C   0  0  0  0  0  0  0  0  0  0  0  0
  139.0950   71.3520  222.6930 C   0  0  0  0  0  0  0  0  0  0  0  0
  138.4930   70.4060  223.5350 C   0  0  0  0  0  0  0  0  0  0  0  0
  138.9850   70.2070  224.8300 C   0  0  0  0  0  0  0  0  0  0  0  0
  138.3970   69.2950  225.6470 F   0  0  0  0  0  0  0  0  0  0  0  0
  140.0840   70.9450  225.2860 C   0  0  0  0  0  0  0  0  0  0  0  0
  140.6950   71.8860  224.4500 C   0  0  0  0  0  0  0  0  0  0  0  0
  140.2030   72.0960  223.1560 C   0  0  0  0  0  0  0  0  0  0  0  0
  140.7910   73.0130  222.3420 N   0  0  0  0  0  0  0  0  0  0  0  0
  142.0510   75.2010  221.8810 H   0  0  0  0  0  0  0  0  0  0  0  0
  143.5948   76.4540  220.5608 H   0  0  0  0  0  0  0  0  0  0  0  0
  142.7786   75.8929  219.0549 H   0  0  0  0  0  0  0  0  0  0  0  0
  142.7335   80.0076  220.5749 H   0  0  0  0  0  0  0  0  0  0  0  0
  140.9924   80.2934  220.7023 H   0  0  0  0  0  0  0  0  0  0  0  0
  141.5955   81.2006  222.8150 H   0  0  0  0  0  0  0  0  0  0  0  0
  143.8670   79.6510  222.3150 H   0  0  0  0  0  0  0  0  0  0  0  0
  141.9809   78.9395  224.3812 H   0  0  0  0  0  0  0  0  0  0  0  0
  140.3772   79.3735  223.7719 H   0  0  0  0  0  0  0  0  0  0  0  0
  142.2043   77.1541  222.8934 H   0  0  0  0  0  0  0  0  0  0  0  0
  136.8125   78.1009  222.5783 H   0  0  0  0  0  0  0  0  0  0  0  0
  138.1505   75.4857  223.2921 H   0  0  0  0  0  0  0  0  0  0  0  0
  136.7000   76.3039  224.0109 H   0  0  0  0  0  0  0  0  0  0  0  0
  136.0425   74.2704  222.7968 H   0  0  0  0  0  0  0  0  0  0  0  0
  135.3997   75.7617  221.9938 H   0  0  0  0  0  0  0  0  0  0  0  0
  137.4866   73.8040  221.0553 H   0  0  0  0  0  0  0  0  0  0  0  0
  136.1770   74.6938  220.1450 H   0  0  0  0  0  0  0  0  0  0  0  0
  138.9912   75.5371  220.7905 H   0  0  0  0  0  0  0  0  0  0  0  0
  137.9976   75.7577  219.2886 H   0  0  0  0  0  0  0  0  0  0  0  0
  138.3997   77.9094  220.4171 H   0  0  0  0  0  0  0  0  0  0  0  0
  136.6434   77.4520  220.4254 H   0  0  0  0  0  0  0  0  0  0  0  0
  138.8794   72.7090  219.5614 H   0  0  0  0  0  0  0  0  0  0  0  0
  137.7663   71.0020  221.0100 H   0  0  0  0  0  0  0  0  0  0  0  0
  137.6335   69.8199  223.1775 H   0  0  0  0  0  0  0  0  0  0  0  0
  140.4681   70.7846  226.3042 H   0  0  0  0  0  0  0  0  0  0  0  0
  141.5615   72.4606  224.8092 H   0  0  0  0  0  0  0  0  0  0  0  0
  1  2  2  0
  2  3  1  0
  3  4  1  0
  4  5  1  0
  5  6  2  0
  5  7  1  0
  7  8  1  0
  8  9  1  0
  9 10  1  0
  9 11  1  0
 11 12  1  0
 12 13  1  0
 13 14  2  0
 13 15  1  0
 15 16  1  0
 16 17  1  0
 17 18  1  0
 18 19  1  0
 19 20  1  0
 20 21  1  0
  2 22  1  0
 22 23  2  0
 23 24  1  0
 24 25  2  0
 25 26  1  0
 26 27  2  0
 27 28  1  0
 27 29  1  0
 29 30  2  0
 30 31  1  0
 31 32  2  0
 12  7  1  0
 21 16  1  0
 32 22  1  0
 31 25  1  0
  3 33  1  0
  4 34  1  0
  4 35  1  0
  8 36  1  0
  8 37  1  0
  9 38  1  6
 10 39  1  0
 11 40  1  0
 11 41  1  0
 12 42  1  1
 16 43  1  0
 17 44  1  0
 17 45  1  0
 18 46  1  0
 18 47  1  0
 19 48  1  0
 19 49  1  0
 20 50  1  0
 20 51  1  0
 21 52  1  0
 21 53  1  0
 23 54  1  0
 24 55  1  0
 26 56  1  0
 29 57  1  0
 30 58  1  0
M  CHG  1  15  -1
M  END
>  <UniqueID>  (3) 
137

>  <SMILES>  (3) 
O=C(NCC(=O)N1C[C@H](O)C[C@H]1C(=O)[N-]C1CCCCC1)c1ccc2cc(F)ccc2n1

>  <Energy>  (3) 
51.087325513709516

>  <Genealogy>  (3) 
O=C(NCC(=O)N1C[C@H](O)C[C@H]1C(=O)[N-]C1CCCCC1)c1ccc2cc(F)ccc2n1 (protonated)
O=C(NCC(=O)N1C[C@H](O)C[C@H]1C(=O)[N-]C1CCCCC1)c1ccc2cc(F)ccc2n1 (3D coordinates assigned)
O=C(NCC(=O)N1C[C@H](O)C[C@H]1C(=O)[N-]C1CCCCC1)c1ccc2cc(F)ccc2n1 (nonaromatic ring conformer: 51.087325513709516 kcal/mol)

>  <smiles>  (3) 
O=C(NCC(=O)N1C[C@H](O)C[C@H]1C(=O)NC1CCCCC1)c1ccc2cc(F)ccc2n1

>  <score_type>  (3) 
oracle

>  <origin>  (3) 
autodockgpu

>  <m_score__min__energy>  (3) 
-8.7599999999999998

>  <m_primary>  (3) 
energy

>  <meeko>  (3) 
{"free_energy": -5.64, "intermolecular_energy": -8.03, "internal_energy": -3.83, "cluster_size": 2, "cluster_id": 5, "rank_in_cluster": 2}

>  <energy>  (3) 
-8.5

>  <cluster_rmsd>  (3) 
0.52

>  <rmsd>  (3) 
272.69

>  <cluster>  (3) 
1

$$$$
YMXDKILJCZTOEU-UDRLWISANA-M
     RDKit          3D

 58 61  0  0  0  0  0  0  0  0999 V2000
  140.3600   73.5710  220.2990 O   0  0  0  0  0  0  0  0  0  0  0  0
  139.9610   74.3670  221.1940 C   0  0  0  0  0  0  0  0  0  0  0  0
  138.9320   73.9610  222.1130 N   0  0  0  0  0  0  0  0  0  0  0  0
  138.3190   72.6360  222.0920 C   0  0  0  0  0  0  0  0  0  0  0  0
  139.2260   71.6320  222.7450 C   0  0  0  0  0  0  0  0  0  0  0  0
  140.0850   72.0480  223.5700 O   0  0  0  0  0  0  0  0  0  0  0  0
  139.1470   70.2230  222.4550 N   0  0  0  0  0  0  0  0  0  0  0  0
  139.9400   69.6170  221.3920 C   0  0  0  0  0  0  0  0  0  0  0  0
  139.2550   68.2900  221.0710 C   0  0  2  0  0  0  0  0  0  0  0  0
  138.3920   68.4430  219.9740 O   0  0  0  0  0  0  0  0  0  0  0  0
  138.4360   67.9530  222.3150 C   0  0  0  0  0  0  0  0  0  0  0  0
  138.1760   69.2890  223.0150 C   0  0  1  0  0  0  0  0  0  0  0  0
  138.3540   69.1580  224.5000 C   0  0  0  0  0  0  0  0  0  0  0  0
  137.7650   69.9630  225.2730 O   0  0  0  0  0  0  0  0  0  0  0  0
  139.1750   68.1110  225.0310 N   0  0  0  0  0  0  0  0  0  0  0  0
  140.3080   68.3440  225.9260 C   0  0  0  0  0  0  0  0  0  0  0  0
  139.8160   68.2470  227.3870 C   0  0  0  0  0  0  0  0  0  0  0  0
  140.6910   69.0690  228.3380 C   0  0  0  0  0  0  0  0  0  0  0  0
  140.6650   70.5700  227.9760 C   0  0  0  0  0  0  0  0  0  0  0  0
  140.4310   70.8360  226.4740 C   0  0  0  0  0  0  0  0  0  0  0  0
  140.9810   69.7040  225.6030 C   0  0  0  0  0  0  0  0  0  0  0  0
  140.5520   75.7190  221.2910 C   0  0  0  0  0  0  0  0  0  0  0  0
  141.5370   76.1460  220.3830 C   0  0  0  0  0  0  0  0  0  0  0  0
  142.0740   77.4310  220.4970 C   0  0  0  0  0  0  0  0  0  0  0  0
  141.6300   78.2830  221.5170 C   0  0  0  0  0  0  0  0  0  0  0  0
  142.1490   79.5780  221.6630 C   0  0  0  0  0  0  0  0  0  0  0  0
  141.6870   80.4060  222.6920 C   0  0  0  0  0  0  0  0  0  0  0  0
  142.1940   81.6580  222.8360 F   0  0  0  0  0  0  0  0  0  0  0  0
  140.7010   79.9470  223.5750 C   0  0  0  0  0  0  0  0  0  0  0  0
  140.1740   78.6600  223.4320 C   0  0  0  0  0  0  0  0  0  0  0  0
  140.6370   77.8230  222.4090 C   0  0  0  0  0  0  0  0  0  0  0  0
  140.1310   76.5680  222.2710 N   0  0  0  0  0  0  0  0  0  0  0  0
  138.6540   74.6120  222.8810 H   0  0  0  0  0  0  0  0  0  0  0  0
  137.3634   72.6695  222.6358 H   0  0  0  0  0  0  0  0  0  0  0  0
  138.1475   72.3374  221.0473 H   0  0  0  0  0  0  0  0  0  0  0  0
  139.9523   70.2668  220.5046 H   0  0  0  0  0  0  0  0  0  0  0  0
  140.9861   69.4703  221.6989 H   0  0  0  0  0  0  0  0  0  0  0  0
  139.9833   67.5052  220.8185 H   0  0  0  0  0  0  0  0  0  0  0  0
  138.2420   69.4190  219.8660 H   0  0  0  0  0  0  0  0  0  0  0  0
  137.4856   67.4775  222.0311 H   0  0  0  0  0  0  0  0  0  0  0  0
  138.9667   67.2476  222.9713 H   0  0  0  0  0  0  0  0  0  0  0  0
  137.1442   69.6351  222.8550 H   0  0  0  0  0  0  0  0  0  0  0  0
  141.0817   67.5761  225.7785 H   0  0  0  0  0  0  0  0  0  0  0  0
  138.7831   68.6215  227.4404 H   0  0  0  0  0  0  0  0  0  0  0  0
  139.8712   67.1930  227.6969 H   0  0  0  0  0  0  0  0  0  0  0  0
  140.3188   68.9426  229.3654 H   0  0  0  0  0  0  0  0  0  0  0  0
  141.7273   68.7107  228.2501 H   0  0  0  0  0  0  0  0  0  0  0  0
  139.8563   71.0517  228.5452 H   0  0  0  0  0  0  0  0  0  0  0  0
  141.6538   70.9811  228.2276 H   0  0  0  0  0  0  0  0  0  0  0  0
  139.3501   70.9309  226.2935 H   0  0  0  0  0  0  0  0  0  0  0  0
  140.9600   71.7621  226.2047 H   0  0  0  0  0  0  0  0  0  0  0  0
  140.7989   69.9484  224.5461 H   0  0  0  0  0  0  0  0  0  0  0  0
  142.0573   69.6084  225.8091 H   0  0  0  0  0  0  0  0  0  0  0  0
  141.8834   75.4713  219.5862 H   0  0  0  0  0  0  0  0  0  0  0  0
  142.8428   77.7726  219.7883 H   0  0  0  0  0  0  0  0  0  0  0  0
  142.9197   79.9428  220.9681 H   0  0  0  0  0  0  0  0  0  0  0  0
  140.3406   80.6008  224.3828 H   0  0  0  0  0  0  0  0  0  0  0  0
  139.3955   78.3047  224.1232 H   0  0  0  0  0  0  0  0  0  0  0  0
  1  2  2  0
  2  3  1  0
  3  4  1  0
  4  5  1  0
  5  6  2  0
  5  7  1  0
  7  8  1  0
  8  9  1  0
  9 10  1  0
  9 11  1  0
 11 12  1  0
 12 13  1  0
 13 14  2  0
 13 15  1  0
 15 16  1  0
 16 17  1  0
 17 18  1  0
 18 19  1  0
 19 20  1  0
 20 21  1  0
  2 22  1  0
 22 23  2  0
 23 24  1  0
 24 25  2  0
 25 26  1  0
 26 27  2  0
 27 28  1  0
 27 29  1  0
 29 30  2  0
 30 31  1  0
 31 32  2  0
 12  7  1  0
 21 16  1  0
 32 22  1  0
 31 25  1  0
  3 33  1  0
  4 34  1  0
  4 35  1  0
  8 36  1  0
  8 37  1  0
  9 38  1  6
 10 39  1  0
 11 40  1  0
 11 41  1  0
 12 42  1  1
 16 43  1  0
 17 44  1  0
 17 45  1  0
 18 46  1  0
 18 47  1  0
 19 48  1  0
 19 49  1  0
 20 50  1  0
 20 51  1  0
 21 52  1  0
 21 53  1  0
 23 54  1  0
 24 55  1  0
 26 56  1  0
 29 57  1  0
 30 58  1  0
M  CHG  1  15  -1
M  END
>  <UniqueID>  (4) 
137

>  <SMILES>  (4) 
O=C(NCC(=O)N1C[C@H](O)C[C@H]1C(=O)[N-]C1CCCCC1)c1ccc2cc(F)ccc2n1

>  <Energy>  (4) 
51.087325513709516

>  <Genealogy>  (4) 
O=C(NCC(=O)N1C[C@H](O)C[C@H]1C(=O)[N-]C1CCCCC1)c1ccc2cc(F)ccc2n1 (protonated)
O=C(NCC(=O)N1C[C@H](O)C[C@H]1C(=O)[N-]C1CCCCC1)c1ccc2cc(F)ccc2n1 (3D coordinates assigned)
O=C(NCC(=O)N1C[C@H](O)C[C@H]1C(=O)[N-]C1CCCCC1)c1ccc2cc(F)ccc2n1 (nonaromatic ring conformer: 51.087325513709516 kcal/mol)

>  <smiles>  (4) 
O=C(NCC(=O)N1C[C@H](O)C[C@H]1C(=O)NC1CCCCC1)c1ccc2cc(F)ccc2n1

>  <score_type>  (4) 
oracle

>  <origin>  (4) 
autodockgpu

>  <m_score__min__energy>  (4) 
-8.7599999999999998

>  <m_primary>  (4) 
energy

>  <meeko>  (4) 
{"free_energy": -7.53, "intermolecular_energy": -9.92, "internal_energy": -2.17, "cluster_size": 3, "cluster_id": 3, "rank_in_cluster": 1}

>  <energy>  (4) 
-8.48

>  <cluster_rmsd>  (4) 
0.61

>  <rmsd>  (4) 
272.68

>  <cluster>  (4) 
1

$$$$
YMXDKILJCZTOEU-UDRLWISANA-M
     RDKit          3D

 58 61  0  0  0  0  0  0  0  0999 V2000
  139.5990   71.4310  221.0050 O   0  0  0  0  0  0  0  0  0  0  0  0
  139.6210   71.9490  222.1570 C   0  0  0  0  0  0  0  0  0  0  0  0
  139.6040   73.3800  222.3040 N   0  0  0  0  0  0  0  0  0  0  0  0
  139.5340   74.2990  221.1710 C   0  0  0  0  0  0  0  0  0  0  0  0
  140.1960   75.6030  221.5170 C   0  0  0  0  0  0  0  0  0  0  0  0
  140.1740   75.9860  222.7190 O   0  0  0  0  0  0  0  0  0  0  0  0
  140.8430   76.4230  220.5240 N   0  0  0  0  0  0  0  0  0  0  0  0
  141.5240   75.8370  219.3770 C   0  0  0  0  0  0  0  0  0  0  0  0
  142.4610   76.9240  218.8520 C   0  0  2  0  0  0  0  0  0  0  0  0
  143.7530   76.7440  219.3730 O   0  0  0  0  0  0  0  0  0  0  0  0
  141.8820   78.2350  219.3790 C   0  0  0  0  0  0  0  0  0  0  0  0
  141.0680   77.8610  220.6200 C   0  0  1  0  0  0  0  0  0  0  0  0
  139.7650   78.6060  220.6480 C   0  0  0  0  0  0  0  0  0  0  0  0
  139.1730   78.8700  219.5650 O   0  0  0  0  0  0  0  0  0  0  0  0
  139.1920   78.9960  221.9020 N   0  0  0  0  0  0  0  0  0  0  0  0
  139.8240   79.9420  222.8220 C   0  0  0  0  0  0  0  0  0  0  0  0
  140.6540   80.9540  222.0020 C   0  0  0  0  0  0  0  0  0  0  0  0
  141.8100   81.5380  222.8200 C   0  0  0  0  0  0  0  0  0  0  0  0
  142.7970   80.4390  223.2680 C   0  0  0  0  0  0  0  0  0  0  0  0
  142.1340   79.0590  223.4610 C   0  0  0  0  0  0  0  0  0  0  0  0
  140.6670   79.1850  223.8810 C   0  0  0  0  0  0  0  0  0  0  0  0
  139.6700   71.0810  223.3520 C   0  0  0  0  0  0  0  0  0  0  0  0
  139.1780   69.7640  223.3120 C   0  0  0  0  0  0  0  0  0  0  0  0
  139.2410   68.9660  224.4560 C   0  0  0  0  0  0  0  0  0  0  0  0
  139.7900   69.4830  225.6370 C   0  0  0  0  0  0  0  0  0  0  0  0
  139.8670   68.7100  226.8050 C   0  0  0  0  0  0  0  0  0  0  0  0
  140.4200   69.2550  227.9690 C   0  0  0  0  0  0  0  0  0  0  0  0
  140.4880   68.5080  229.1020 F   0  0  0  0  0  0  0  0  0  0  0  0
  140.9030   70.5690  227.9710 C   0  0  0  0  0  0  0  0  0  0  0  0
  140.8370   71.3440  226.8080 C   0  0  0  0  0  0  0  0  0  0  0  0
  140.2780   70.8080  225.6410 C   0  0  0  0  0  0  0  0  0  0  0  0
  140.2060   71.5600  224.5100 N   0  0  0  0  0  0  0  0  0  0  0  0
  139.5670   73.7900  223.2630 H   0  0  0  0  0  0  0  0  0  0  0  0
  140.0458   73.8499  220.3071 H   0  0  0  0  0  0  0  0  0  0  0  0
  138.4780   74.4869  220.9268 H   0  0  0  0  0  0  0  0  0  0  0  0
  142.0988   74.9508  219.6840 H   0  0  0  0  0  0  0  0  0  0  0  0
  140.8113   75.5086  218.6062 H   0  0  0  0  0  0  0  0  0  0  0  0
  142.5361   76.9042  217.7548 H   0  0  0  0  0  0  0  0  0  0  0  0
  143.8200   77.3310  220.1710 H   0  0  0  0  0  0  0  0  0  0  0  0
  142.6907   78.9310  219.6465 H   0  0  0  0  0  0  0  0  0  0  0  0
  141.2605   78.7367  218.6226 H   0  0  0  0  0  0  0  0  0  0  0  0
  141.5978   78.1259  221.5469 H   0  0  0  0  0  0  0  0  0  0  0  0
  139.0623   80.5047  223.3817 H   0  0  0  0  0  0  0  0  0  0  0  0
  141.0653   80.4440  221.1184 H   0  0  0  0  0  0  0  0  0  0  0  0
  139.9911   81.7813  221.7085 H   0  0  0  0  0  0  0  0  0  0  0  0
  142.3487   82.2728  222.2037 H   0  0  0  0  0  0  0  0  0  0  0  0
  141.3912   82.0135  223.7192 H   0  0  0  0  0  0  0  0  0  0  0  0
  143.5829   80.3442  222.5042 H   0  0  0  0  0  0  0  0  0  0  0  0
  143.2001   80.7442  224.2449 H   0  0  0  0  0  0  0  0  0  0  0  0
  142.1862   78.5035  222.5130 H   0  0  0  0  0  0  0  0  0  0  0  0
  142.6736   78.5300  224.2604 H   0  0  0  0  0  0  0  0  0  0  0  0
  140.2477   78.1769  224.0146 H   0  0  0  0  0  0  0  0  0  0  0  0
  140.6295   79.7582  224.8191 H   0  0  0  0  0  0  0  0  0  0  0  0
  138.7453   69.3642  222.3831 H   0  0  0  0  0  0  0  0  0  0  0  0
  138.8607   67.9342  224.4302 H   0  0  0  0  0  0  0  0  0  0  0  0
  139.4927   67.6756  226.8058 H   0  0  0  0  0  0  0  0  0  0  0  0
  141.3355   70.9932  228.8892 H   0  0  0  0  0  0  0  0  0  0  0  0
  141.2239   72.3737  226.8102 H   0  0  0  0  0  0  0  0  0  0  0  0
  1  2  2  0
  2  3  1  0
  3  4  1  0
  4  5  1  0
  5  6  2  0
  5  7  1  0
  7  8  1  0
  8  9  1  0
  9 10  1  0
  9 11  1  0
 11 12  1  0
 12 13  1  0
 13 14  2  0
 13 15  1  0
 15 16  1  0
 16 17  1  0
 17 18  1  0
 18 19  1  0
 19 20  1  0
 20 21  1  0
  2 22  1  0
 22 23  2  0
 23 24  1  0
 24 25  2  0
 25 26  1  0
 26 27  2  0
 27 28  1  0
 27 29  1  0
 29 30  2  0
 30 31  1  0
 31 32  2  0
 12  7  1  0
 21 16  1  0
 32 22  1  0
 31 25  1  0
  3 33  1  0
  4 34  1  0
  4 35  1  0
  8 36  1  0
  8 37  1  0
  9 38  1  6
 10 39  1  0
 11 40  1  0
 11 41  1  0
 12 42  1  1
 16 43  1  0
 17 44  1  0
 17 45  1  0
 18 46  1  0
 18 47  1  0
 19 48  1  0
 19 49  1  0
 20 50  1  0
 20 51  1  0
 21 52  1  0
 21 53  1  0
 23 54  1  0
 24 55  1  0
 26 56  1  0
 29 57  1  0
 30 58  1  0
M  CHG  1  15  -1
M  END
>  <UniqueID>  (5) 
137

>  <SMILES>  (5) 
O=C(NCC(=O)N1C[C@H](O)C[C@H]1C(=O)[N-]C1CCCCC1)c1ccc2cc(F)ccc2n1

>  <Energy>  (5) 
51.087325513709516

>  <Genealogy>  (5) 
O=C(NCC(=O)N1C[C@H](O)C[C@H]1C(=O)[N-]C1CCCCC1)c1ccc2cc(F)ccc2n1 (protonated)
O=C(NCC(=O)N1C[C@H](O)C[C@H]1C(=O)[N-]C1CCCCC1)c1ccc2cc(F)ccc2n1 (3D coordinates assigned)
O=C(NCC(=O)N1C[C@H](O)C[C@H]1C(=O)[N-]C1CCCCC1)c1ccc2cc(F)ccc2n1 (nonaromatic ring conformer: 51.087325513709516 kcal/mol)

>  <smiles>  (5) 
O=C(NCC(=O)N1C[C@H](O)C[C@H]1C(=O)NC1CCCCC1)c1ccc2cc(F)ccc2n1

>  <score_type>  (5) 
oracle

>  <origin>  (5) 
autodockgpu

>  <m_score__min__energy>  (5) 
-8.7599999999999998

>  <m_primary>  (5) 
energy

>  <meeko>  (5) 
{"free_energy": -8.42, "intermolecular_energy": -10.81, "internal_energy": -2.34, "cluster_size": 9, "cluster_id": 1, "rank_in_cluster": 6}

>  <energy>  (5) 
-8.44

>  <cluster_rmsd>  (5) 
0.6

>  <rmsd>  (5) 
272.67

>  <cluster>  (5) 
1

$$$$
YMXDKILJCZTOEU-UDRLWISANA-M
     RDKit          3D

 58 61  0  0  0  0  0  0  0  0999 V2000
  136.6990   72.2010  221.3100 O   0  0  0  0  0  0  0  0  0  0  0  0
  136.8840   72.4460  222.5350 C   0  0  0  0  0  0  0  0  0  0  0  0
  136.5070   73.7220  223.0800 N   0  0  0  0  0  0  0  0  0  0  0  0
  135.8800   74.7750  222.2860 C   0  0  0  0  0  0  0  0  0  0  0  0
  136.8230   75.2560  221.2200 C   0  0  0  0  0  0  0  0  0  0  0  0
  136.3380   75.6370  220.1190 O   0  0  0  0  0  0  0  0  0  0  0  0
  138.2500   75.2890  221.4140 N   0  0  0  0  0  0  0  0  0  0  0  0
  139.1260   74.2980  220.8020 C   0  0  0  0  0  0  0  0  0  0  0  0
  140.4310   74.3530  221.5960 C   0  0  2  0  0  0  0  0  0  0  0  0
  140.4390   73.3560  222.5850 O   0  0  0  0  0  0  0  0  0  0  0  0
  140.4330   75.7270  222.2630 C   0  0  0  0  0  0  0  0  0  0  0  0
  138.9640   76.1460  222.3550 C   0  0  1  0  0  0  0  0  0  0  0  0
  138.7980   77.5940  221.9920 C   0  0  0  0  0  0  0  0  0  0  0  0
  138.8000   77.9370  220.7780 O   0  0  0  0  0  0  0  0  0  0  0  0
  138.6190   78.5720  223.0230 N   0  0  0  0  0  0  0  0  0  0  0  0
  139.7040   79.3970  223.5540 C   0  0  0  0  0  0  0  0  0  0  0  0
  139.7230   80.7420  222.7940 C   0  0  0  0  0  0  0  0  0  0  0  0
  141.1180   81.3750  222.7920 C   0  0  0  0  0  0  0  0  0  0  0  0
  142.1490   80.4690  222.0850 C   0  0  0  0  0  0  0  0  0  0  0  0
  141.8180   78.9660  222.1860 C   0  0  0  0  0  0  0  0  0  0  0  0
  141.0530   78.6360  223.4710 C   0  0  0  0  0  0  0  0  0  0  0  0
  137.4950   71.4190  223.4050 C   0  0  0  0  0  0  0  0  0  0  0  0
  136.7750   70.2730  223.7890 C   0  0  0  0  0  0  0  0  0  0  0  0
  137.3800   69.3170  224.6090 C   0  0  0  0  0  0  0  0  0  0  0  0
  138.6970   69.5080  225.0470 C   0  0  0  0  0  0  0  0  0  0  0  0
  139.3340   68.5710  225.8730 C   0  0  0  0  0  0  0  0  0  0  0  0
  140.6500   68.7900  226.2960 C   0  0  0  0  0  0  0  0  0  0  0  0
  141.2640   67.8850  227.1010 F   0  0  0  0  0  0  0  0  0  0  0  0
  141.3370   69.9410  225.8900 C   0  0  0  0  0  0  0  0  0  0  0  0
  140.7110   70.8780  225.0610 C   0  0  0  0  0  0  0  0  0  0  0  0
  139.3910   70.6690  224.6400 C   0  0  0  0  0  0  0  0  0  0  0  0
  138.7770   71.5800  223.8390 N   0  0  0  0  0  0  0  0  0  0  0  0
  136.6170   73.8880  224.1040 H   0  0  0  0  0  0  0  0  0  0  0  0
  134.9692   74.3792  221.8130 H   0  0  0  0  0  0  0  0  0  0  0  0
  135.6263   75.6177  222.9460 H   0  0  0  0  0  0  0  0  0  0  0  0
  138.6777   73.2958  220.8699 H   0  0  0  0  0  0  0  0  0  0  0  0
  139.2911   74.5061  219.7346 H   0  0  0  0  0  0  0  0  0  0  0  0
  141.3084   74.1937  220.9520 H   0  0  0  0  0  0  0  0  0  0  0  0
  139.5810   73.4420  223.0800 H   0  0  0  0  0  0  0  0  0  0  0  0
  140.8776   75.6650  223.2673 H   0  0  0  0  0  0  0  0  0  0  0  0
  141.0272   76.4547  221.6909 H   0  0  0  0  0  0  0  0  0  0  0  0
  138.5749   76.0347  223.3778 H   0  0  0  0  0  0  0  0  0  0  0  0
  139.5394   79.6130  224.6200 H   0  0  0  0  0  0  0  0  0  0  0  0
  139.4097   80.5677  221.7541 H   0  0  0  0  0  0  0  0  0  0  0  0
  139.0351   81.4325  223.3040 H   0  0  0  0  0  0  0  0  0  0  0  0
  141.0716   82.3408  222.2675 H   0  0  0  0  0  0  0  0  0  0  0  0
  141.4367   81.5115  223.8359 H   0  0  0  0  0  0  0  0  0  0  0  0
  142.1853   80.7469  221.0213 H   0  0  0  0  0  0  0  0  0  0  0  0
  143.1145   80.6225  222.5892 H   0  0  0  0  0  0  0  0  0  0  0  0
  141.2019   78.6784  221.3213 H   0  0  0  0  0  0  0  0  0  0  0  0
  142.7658   78.4079  222.2000 H   0  0  0  0  0  0  0  0  0  0  0  0
  140.8533   77.5546  223.4980 H   0  0  0  0  0  0  0  0  0  0  0  0
  141.6723   78.9469  224.3253 H   0  0  0  0  0  0  0  0  0  0  0  0
  135.7399   70.1301  223.4451 H   0  0  0  0  0  0  0  0  0  0  0  0
  136.8238   68.4169  224.9098 H   0  0  0  0  0  0  0  0  0  0  0  0
  138.7990   67.6632  226.1887 H   0  0  0  0  0  0  0  0  0  0  0  0
  142.3716   70.1087  226.2239 H   0  0  0  0  0  0  0  0  0  0  0  0
  141.2549   71.7786  224.7398 H   0  0  0  0  0  0  0  0  0  0  0  0
  1  2  2  0
  2  3  1  0
  3  4  1  0
  4  5  1  0
  5  6  2  0
  5  7  1  0
  7  8  1  0
  8  9  1  0
  9 10  1  0
  9 11  1  0
 11 12  1  0
 12 13  1  0
 13 14  2  0
 13 15  1  0
 15 16  1  0
 16 17  1  0
 17 18  1  0
 18 19  1  0
 19 20  1  0
 20 21  1  0
  2 22  1  0
 22 23  2  0
 23 24  1  0
 24 25  2  0
 25 26  1  0
 26 27  2  0
 27 28  1  0
 27 29  1  0
 29 30  2  0
 30 31  1  0
 31 32  2  0
 12  7  1  0
 21 16  1  0
 32 22  1  0
 31 25  1  0
  3 33  1  0
  4 34  1  0
  4 35  1  0
  8 36  1  0
  8 37  1  0
  9 38  1  6
 10 39  1  0
 11 40  1  0
 11 41  1  0
 12 42  1  1
 16 43  1  0
 17 44  1  0
 17 45  1  0
 18 46  1  0
 18 47  1  0
 19 48  1  0
 19 49  1  0
 20 50  1  0
 20 51  1  0
 21 52  1  0
 21 53  1  0
 23 54  1  0
 24 55  1  0
 26 56  1  0
 29 57  1  0
 30 58  1  0
M  CHG  1  15  -1
M  END
>  <UniqueID>  (6) 
137

>  <SMILES>  (6) 
O=C(NCC(=O)N1C[C@H](O)C[C@H]1C(=O)[N-]C1CCCCC1)c1ccc2cc(F)ccc2n1

>  <Energy>  (6) 
51.087325513709516

>  <Genealogy>  (6) 
O=C(NCC(=O)N1C[C@H](O)C[C@H]1C(=O)[N-]C1CCCCC1)c1ccc2cc(F)ccc2n1 (protonated)
O=C(NCC(=O)N1C[C@H](O)C[C@H]1C(=O)[N-]C1CCCCC1)c1ccc2cc(F)ccc2n1 (3D coordinates assigned)
O=C(NCC(=O)N1C[C@H](O)C[C@H]1C(=O)[N-]C1CCCCC1)c1ccc2cc(F)ccc2n1 (nonaromatic ring conformer: 51.087325513709516 kcal/mol)

>  <smiles>  (6) 
O=C(NCC(=O)N1C[C@H](O)C[C@H]1C(=O)NC1CCCCC1)c1ccc2cc(F)ccc2n1

>  <score_type>  (6) 
oracle

>  <origin>  (6) 
autodockgpu

>  <m_score__min__energy>  (6) 
-8.7599999999999998

>  <m_primary>  (6) 
energy

>  <meeko>  (6) 
{"free_energy": -6.8, "intermolecular_energy": -9.18, "internal_energy": -2.78, "cluster_size": 2, "cluster_id": 4, "rank_in_cluster": 2}

>  <energy>  (6) 
-8.42

>  <cluster_rmsd>  (6) 
0.58

>  <rmsd>  (6) 
272.67

>  <cluster>  (6) 
1

$$$$
YMXDKILJCZTOEU-UDRLWISANA-M
     RDKit          3D

 58 61  0  0  0  0  0  0  0  0999 V2000
  139.6250   71.4020  221.0030 O   0  0  0  0  0  0  0  0  0  0  0  0
  139.6340   71.9240  222.1530 C   0  0  0  0  0  0  0  0  0  0  0  0
  139.6060   73.3560  222.2940 N   0  0  0  0  0  0  0  0  0  0  0  0
  139.5410   74.2700  221.1580 C   0  0  0  0  0  0  0  0  0  0  0  0
  140.1760   75.5860  221.5100 C   0  0  0  0  0  0  0  0  0  0  0  0
  140.1410   75.9640  222.7130 O   0  0  0  0  0  0  0  0  0  0  0  0
  140.8110   76.4210  220.5230 N   0  0  0  0  0  0  0  0  0  0  0  0
  141.4670   75.8530  219.3520 C   0  0  0  0  0  0  0  0  0  0  0  0
  142.4040   76.9430  218.8330 C   0  0  2  0  0  0  0  0  0  0  0  0
  143.7030   76.7420  219.3260 O   0  0  0  0  0  0  0  0  0  0  0  0
  141.8460   78.2480  219.3970 C   0  0  0  0  0  0  0  0  0  0  0  0
  141.0500   77.8550  220.6440 C   0  0  1  0  0  0  0  0  0  0  0  0
  139.7540   78.6090  220.7110 C   0  0  0  0  0  0  0  0  0  0  0  0
  139.1640   78.9320  219.6430 O   0  0  0  0  0  0  0  0  0  0  0  0
  139.1870   78.9420  221.9840 N   0  0  0  0  0  0  0  0  0  0  0  0
  139.8230   79.8440  222.9440 C   0  0  0  0  0  0  0  0  0  0  0  0
  140.5550   80.9610  222.1670 C   0  0  0  0  0  0  0  0  0  0  0  0
  141.7250   81.5380  222.9680 C   0  0  0  0  0  0  0  0  0  0  0  0
  142.7890   80.4610  223.2710 C   0  0  0  0  0  0  0  0  0  0  0  0
  142.2070   79.0370  223.3840 C   0  0  0  0  0  0  0  0  0  0  0  0
  140.7620   79.0510  223.8910 C   0  0  0  0  0  0  0  0  0  0  0  0
  139.6770   71.0610  223.3520 C   0  0  0  0  0  0  0  0  0  0  0  0
  139.1710   69.7500  223.3190 C   0  0  0  0  0  0  0  0  0  0  0  0
  139.2290   68.9550  224.4660 C   0  0  0  0  0  0  0  0  0  0  0  0
  139.7880   69.4710  225.6430 C   0  0  0  0  0  0  0  0  0  0  0  0
  139.8620   68.7030  226.8140 C   0  0  0  0  0  0  0  0  0  0  0  0
  140.4240   69.2470  227.9740 C   0  0  0  0  0  0  0  0  0  0  0  0
  140.4890   68.5040  229.1100 F   0  0  0  0  0  0  0  0  0  0  0  0
  140.9220   70.5550  227.9680 C   0  0  0  0  0  0  0  0  0  0  0  0
  140.8590   71.3260  226.8020 C   0  0  0  0  0  0  0  0  0  0  0  0
  140.2900   70.7920  225.6390 C   0  0  0  0  0  0  0  0  0  0  0  0
  140.2220   71.5390  224.5060 N   0  0  0  0  0  0  0  0  0  0  0  0
  139.5590   73.7690  223.2520 H   0  0  0  0  0  0  0  0  0  0  0  0
  140.0746   73.8264  220.3045 H   0  0  0  0  0  0  0  0  0  0  0  0
  138.4864   74.4404  220.8959 H   0  0  0  0  0  0  0  0  0  0  0  0
  142.0394   74.9559  219.6305 H   0  0  0  0  0  0  0  0  0  0  0  0
  140.7381   75.5464  218.5873 H   0  0  0  0  0  0  0  0  0  0  0  0
  142.4592   76.9450  217.7344 H   0  0  0  0  0  0  0  0  0  0  0  0
  143.7850   77.3020  220.1420 H   0  0  0  0  0  0  0  0  0  0  0  0
  142.6654   78.9312  219.6649 H   0  0  0  0  0  0  0  0  0  0  0  0
  141.2163   78.7709  218.6621 H   0  0  0  0  0  0  0  0  0  0  0  0
  141.5985   78.0971  221.5662 H   0  0  0  0  0  0  0  0  0  0  0  0
  139.0677   80.3187  223.5876 H   0  0  0  0  0  0  0  0  0  0  0  0
  140.9397   80.5454  221.2240 H   0  0  0  0  0  0  0  0  0  0  0  0
  139.8371   81.7726  221.9777 H   0  0  0  0  0  0  0  0  0  0  0  0
  142.1911   82.3475  222.3871 H   0  0  0  0  0  0  0  0  0  0  0  0
  141.3351   81.9167  223.9244 H   0  0  0  0  0  0  0  0  0  0  0  0
  143.5338   80.4697  222.4615 H   0  0  0  0  0  0  0  0  0  0  0  0
  143.2316   80.7085  224.2472 H   0  0  0  0  0  0  0  0  0  0  0  0
  142.2315   78.5627  222.3918 H   0  0  0  0  0  0  0  0  0  0  0  0
  142.8171   78.4750  224.1065 H   0  0  0  0  0  0  0  0  0  0  0  0
  140.4008   78.0145  223.9636 H   0  0  0  0  0  0  0  0  0  0  0  0
  140.7508   79.5452  224.8737 H   0  0  0  0  0  0  0  0  0  0  0  0
  138.7308   69.3515  222.3930 H   0  0  0  0  0  0  0  0  0  0  0  0
  138.8372   67.9273  224.4455 H   0  0  0  0  0  0  0  0  0  0  0  0
  139.4780   67.6722  226.8205 H   0  0  0  0  0  0  0  0  0  0  0  0
  141.3640   70.9780  228.8822 H   0  0  0  0  0  0  0  0  0  0  0  0
  141.2564   72.3517  226.7988 H   0  0  0  0  0  0  0  0  0  0  0  0
  1  2  2  0
  2  3  1  0
  3  4  1  0
  4  5  1  0
  5  6  2  0
  5  7  1  0
  7  8  1  0
  8  9  1  0
  9 10  1  0
  9 11  1  0
 11 12  1  0
 12 13  1  0
 13 14  2  0
 13 15  1  0
 15 16  1  0
 16 17  1  0
 17 18  1  0
 18 19  1  0
 19 20  1  0
 20 21  1  0
  2 22  1  0
 22 23  2  0
 23 24  1  0
 24 25  2  0
 25 26  1  0
 26 27  2  0
 27 28  1  0
 27 29  1  0
 29 30  2  0
 30 31  1  0
 31 32  2  0
 12  7  1  0
 21 16  1  0
 32 22  1  0
 31 25  1  0
  3 33  1  0
  4 34  1  0
  4 35  1  0
  8 36  1  0
  8 37  1  0
  9 38  1  6
 10 39  1  0
 11 40  1  0
 11 41  1  0
 12 42  1  1
 16 43  1  0
 17 44  1  0
 17 45  1  0
 18 46  1  0
 18 47  1  0
 19 48  1  0
 19 49  1  0
 20 50  1  0
 20 51  1  0
 21 52  1  0
 21 53  1  0
 23 54  1  0
 24 55  1  0
 26 56  1  0
 29 57  1  0
 30 58  1  0
M  CHG  1  15  -1
M  END
>  <UniqueID>  (7) 
137

>  <SMILES>  (7) 
O=C(NCC(=O)N1C[C@H](O)C[C@H]1C(=O)[N-]C1CCCCC1)c1ccc2cc(F)ccc2n1

>  <Energy>  (7) 
51.087325513709516

>  <Genealogy>  (7) 
O=C(NCC(=O)N1C[C@H](O)C[C@H]1C(=O)[N-]C1CCCCC1)c1ccc2cc(F)ccc2n1 (protonated)
O=C(NCC(=O)N1C[C@H](O)C[C@H]1C(=O)[N-]C1CCCCC1)c1ccc2cc(F)ccc2n1 (3D coordinates assigned)
O=C(NCC(=O)N1C[C@H](O)C[C@H]1C(=O)[N-]C1CCCCC1)c1ccc2cc(F)ccc2n1 (nonaromatic ring conformer: 51.087325513709516 kcal/mol)

>  <smiles>  (7) 
O=C(NCC(=O)N1C[C@H](O)C[C@H]1C(=O)NC1CCCCC1)c1ccc2cc(F)ccc2n1

>  <score_type>  (7) 
oracle

>  <origin>  (7) 
autodockgpu

>  <m_score__min__energy>  (7) 
-8.7599999999999998

>  <m_primary>  (7) 
energy

>  <meeko>  (7) 
{"free_energy": -8.44, "intermolecular_energy": -10.83, "internal_energy": -2.33, "cluster_size": 9, "cluster_id": 1, "rank_in_cluster": 5}

>  <energy>  (7) 
-7.99

>  <cluster_rmsd>  (7) 
0.89

>  <rmsd>  (7) 
272.63

>  <cluster>  (7) 
1

$$$$
YMXDKILJCZTOEU-UDRLWISANA-M
     RDKit          3D

 58 61  0  0  0  0  0  0  0  0999 V2000
  140.0280   71.5220  220.2480 O   0  0  0  0  0  0  0  0  0  0  0  0
  140.4400   72.0480  221.3200 C   0  0  0  0  0  0  0  0  0  0  0  0
  141.2070   73.2640  221.2780 N   0  0  0  0  0  0  0  0  0  0  0  0
  141.5270   73.9640  220.0370 C   0  0  0  0  0  0  0  0  0  0  0  0
  142.2860   75.2280  220.3320 C   0  0  0  0  0  0  0  0  0  0  0  0
  143.5270   75.2480  220.1050 O   0  0  0  0  0  0  0  0  0  0  0  0
  141.6440   76.4020  220.8670 N   0  0  0  0  0  0  0  0  0  0  0  0
  141.8750   77.7230  220.2960 C   0  0  0  0  0  0  0  0  0  0  0  0
  141.4500   78.7190  221.3750 C   0  0  2  0  0  0  0  0  0  0  0  0
  142.5670   79.1380  222.1150 O   0  0  0  0  0  0  0  0  0  0  0  0
  140.5040   77.9390  222.2850 C   0  0  0  0  0  0  0  0  0  0  0  0
  140.8740   76.4650  222.1040 C   0  0  1  0  0  0  0  0  0  0  0  0
  139.6420   75.6120  222.0110 C   0  0  0  0  0  0  0  0  0  0  0  0
  139.5670   74.5490  222.6870 O   0  0  0  0  0  0  0  0  0  0  0  0
  138.5530   76.0190  221.1740 N   0  0  0  0  0  0  0  0  0  0  0  0
  137.1710   75.5830  221.3730 C   0  0  0  0  0  0  0  0  0  0  0  0
  136.8100   75.7420  222.8660 C   0  0  0  0  0  0  0  0  0  0  0  0
  135.7060   74.7690  223.2910 C   0  0  0  0  0  0  0  0  0  0  0  0
  136.1460   73.3000  223.1120 C   0  0  0  0  0  0  0  0  0  0  0  0
  137.1640   73.0990  221.9700 C   0  0  0  0  0  0  0  0  0  0  0  0
  136.9820   74.1330  220.8550 C   0  0  0  0  0  0  0  0  0  0  0  0
  140.1350   71.4080  222.6170 C   0  0  0  0  0  0  0  0  0  0  0  0
  139.2750   70.2980  222.6930 C   0  0  0  0  0  0  0  0  0  0  0  0
  139.0090   69.7100  223.9320 C   0  0  0  0  0  0  0  0  0  0  0  0
  139.5970   70.2330  225.0910 C   0  0  0  0  0  0  0  0  0  0  0  0
  139.3500   69.6710  226.3520 C   0  0  0  0  0  0  0  0  0  0  0  0
  139.9510   70.2170  227.4920 C   0  0  0  0  0  0  0  0  0  0  0  0
  139.7070   69.6750  228.7130 F   0  0  0  0  0  0  0  0  0  0  0  0
  140.8050   71.3200  227.3780 C   0  0  0  0  0  0  0  0  0  0  0  0
  141.0620   71.8830  226.1230 C   0  0  0  0  0  0  0  0  0  0  0  0
  140.4580   71.3470  224.9780 C   0  0  0  0  0  0  0  0  0  0  0  0
  140.7010   71.8950  223.7580 N   0  0  0  0  0  0  0  0  0  0  0  0
  141.4920   73.7140  222.1760 H   0  0  0  0  0  0  0  0  0  0  0  0
  142.1424   73.3113  219.4005 H   0  0  0  0  0  0  0  0  0  0  0  0
  140.5910   74.2210  219.5194 H   0  0  0  0  0  0  0  0  0  0  0  0
  142.9392   77.8542  220.0505 H   0  0  0  0  0  0  0  0  0  0  0  0
  141.3090   77.8675  219.3639 H   0  0  0  0  0  0  0  0  0  0  0  0
  140.9794   79.6143  220.9426 H   0  0  0  0  0  0  0  0  0  0  0  0
  143.3400   78.6080  221.7850 H   0  0  0  0  0  0  0  0  0  0  0  0
  140.6428   78.2431  223.3330 H   0  0  0  0  0  0  0  0  0  0  0  0
  139.4504   78.1266  222.0306 H   0  0  0  0  0  0  0  0  0  0  0  0
  141.4514   76.0849  222.9596 H   0  0  0  0  0  0  0  0  0  0  0  0
  136.4797   76.2092  220.7900 H   0  0  0  0  0  0  0  0  0  0  0  0
  137.7075   75.5488  223.4719 H   0  0  0  0  0  0  0  0  0  0  0  0
  136.4412   76.7666  223.0213 H   0  0  0  0  0  0  0  0  0  0  0  0
  135.4644   74.9431  224.3499 H   0  0  0  0  0  0  0  0  0  0  0  0
  134.8266   74.9457  222.6542 H   0  0  0  0  0  0  0  0  0  0  0  0
  136.6037   72.9564  224.0514 H   0  0  0  0  0  0  0  0  0  0  0  0
  135.2474   72.7218  222.8509 H   0  0  0  0  0  0  0  0  0  0  0  0
  138.1808   73.1924  222.3793 H   0  0  0  0  0  0  0  0  0  0  0  0
  137.0005   72.1002  221.5391 H   0  0  0  0  0  0  0  0  0  0  0  0
  137.7226   73.9383  220.0653 H   0  0  0  0  0  0  0  0  0  0  0  0
  135.9562   74.0404  220.4688 H   0  0  0  0  0  0  0  0  0  0  0  0
  138.8133   69.8941  221.7799 H   0  0  0  0  0  0  0  0  0  0  0  0
  138.3401   68.8392  223.9973 H   0  0  0  0  0  0  0  0  0  0  0  0
  138.6837   68.8007  226.4451 H   0  0  0  0  0  0  0  0  0  0  0  0
  141.2752   71.7452  228.2769 H   0  0  0  0  0  0  0  0  0  0  0  0
  141.7381   72.7462  226.0354 H   0  0  0  0  0  0  0  0  0  0  0  0
  1  2  2  0
  2  3  1  0
  3  4  1  0
  4  5  1  0
  5  6  2  0
  5  7  1  0
  7  8  1  0
  8  9  1  0
  9 10  1  0
  9 11  1  0
 11 12  1  0
 12 13  1  0
 13 14  2  0
 13 15  1  0
 15 16  1  0
 16 17  1  0
 17 18  1  0
 18 19  1  0
 19 20  1  0
 20 21  1  0
  2 22  1  0
 22 23  2  0
 23 24  1  0
 24 25  2  0
 25 26  1  0
 26 27  2  0
 27 28  1  0
 27 29  1  0
 29 30  2  0
 30 31  1  0
 31 32  2  0
 12  7  1  0
 21 16  1  0
 32 22  1  0
 31 25  1  0
  3 33  1  0
  4 34  1  0
  4 35  1  0
  8 36  1  0
  8 37  1  0
  9 38  1  6
 10 39  1  0
 11 40  1  0
 11 41  1  0
 12 42  1  1
 16 43  1  0
 17 44  1  0
 17 45  1  0
 18 46  1  0
 18 47  1  0
 19 48  1  0
 19 49  1  0
 20 50  1  0
 20 51  1  0
 21 52  1  0
 21 53  1  0
 23 54  1  0
 24 55  1  0
 26 56  1  0
 29 57  1  0
 30 58  1  0
M  CHG  1  15  -1
M  END
>  <UniqueID>  (8) 
137

>  <SMILES>  (8) 
O=C(NCC(=O)N1C[C@H](O)C[C@H]1C(=O)[N-]C1CCCCC1)c1ccc2cc(F)ccc2n1

>  <Energy>  (8) 
51.087325513709516

>  <Genealogy>  (8) 
O=C(NCC(=O)N1C[C@H](O)C[C@H]1C(=O)[N-]C1CCCCC1)c1ccc2cc(F)ccc2n1 (protonated)
O=C(NCC(=O)N1C[C@H](O)C[C@H]1C(=O)[N-]C1CCCCC1)c1ccc2cc(F)ccc2n1 (3D coordinates assigned)
O=C(NCC(=O)N1C[C@H](O)C[C@H]1C(=O)[N-]C1CCCCC1)c1ccc2cc(F)ccc2n1 (nonaromatic ring conformer: 51.087325513709516 kcal/mol)

>  <smiles>  (8) 
O=C(NCC(=O)N1C[C@H](O)C[C@H]1C(=O)NC1CCCCC1)c1ccc2cc(F)ccc2n1

>  <score_type>  (8) 
oracle

>  <origin>  (8) 
autodockgpu

>  <m_score__min__energy>  (8) 
-8.7599999999999998

>  <m_primary>  (8) 
energy

>  <meeko>  (8) 
{"free_energy": -6.46, "intermolecular_energy": -8.85, "internal_energy": -3.32, "cluster_size": 2, "cluster_id": 5, "rank_in_cluster": 1}

>  <energy>  (8) 
-7.43

>  <cluster_rmsd>  (8) 
1.29

>  <rmsd>  (8) 
272.42

>  <cluster>  (8) 
1

$$$$
YMXDKILJCZTOEU-UDRLWISANA-M
     RDKit          3D

 58 61  0  0  0  0  0  0  0  0999 V2000
  136.3640   76.1120  222.0590 O   0  0  0  0  0  0  0  0  0  0  0  0
  137.5060   75.6170  222.2700 C   0  0  0  0  0  0  0  0  0  0  0  0
  137.6700   74.1890  222.3460 N   0  0  0  0  0  0  0  0  0  0  0  0
  136.5680   73.2480  222.1630 C   0  0  0  0  0  0  0  0  0  0  0  0
  136.6010   72.1940  223.2340 C   0  0  0  0  0  0  0  0  0  0  0  0
  135.7440   72.2540  224.1590 O   0  0  0  0  0  0  0  0  0  0  0  0
  137.5750   71.1330  223.2380 N   0  0  0  0  0  0  0  0  0  0  0  0
  137.1860   69.7410  223.0500 C   0  0  0  0  0  0  0  0  0  0  0  0
  138.3510   68.9100  223.5880 C   0  0  2  0  0  0  0  0  0  0  0  0
  138.0980   68.5220  224.9140 O   0  0  0  0  0  0  0  0  0  0  0  0
  139.5550   69.8480  223.5570 C   0  0  0  0  0  0  0  0  0  0  0  0
  138.9800   71.2650  223.6070 C   0  0  1  0  0  0  0  0  0  0  0  0
  139.7010   72.1690  222.6490 C   0  0  0  0  0  0  0  0  0  0  0  0
  140.5730   72.9710  223.0840 O   0  0  0  0  0  0  0  0  0  0  0  0
  139.4110   72.1020  221.2480 N   0  0  0  0  0  0  0  0  0  0  0  0
  140.4360   72.1360  220.2050 C   0  0  0  0  0  0  0  0  0  0  0  0
  141.6070   71.2210  220.6300 C   0  0  0  0  0  0  0  0  0  0  0  0
  142.9290   71.6580  219.9940 C   0  0  0  0  0  0  0  0  0  0  0  0
  143.3230   73.0860  220.4300 C   0  0  0  0  0  0  0  0  0  0  0  0
  142.1120   73.9860  220.7500 C   0  0  0  0  0  0  0  0  0  0  0  0
  140.8790   73.5970  219.9290 C   0  0  0  0  0  0  0  0  0  0  0  0
  138.6730   76.5070  222.4420 C   0  0  0  0  0  0  0  0  0  0  0  0
  139.9740   76.0610  222.1510 C   0  0  0  0  0  0  0  0  0  0  0  0
  141.0580   76.9270  222.3200 C   0  0  0  0  0  0  0  0  0  0  0  0
  140.8410   78.2320  222.7820 C   0  0  0  0  0  0  0  0  0  0  0  0
  141.9060   79.1270  222.9650 C   0  0  0  0  0  0  0  0  0  0  0  0
  141.6580   80.4230  223.4290 C   0  0  0  0  0  0  0  0  0  0  0  0
  142.6900   81.2870  223.6130 F   0  0  0  0  0  0  0  0  0  0  0  0
  140.3480   80.8340  223.7060 C   0  0  0  0  0  0  0  0  0  0  0  0
  139.2800   79.9500  223.5190 C   0  0  0  0  0  0  0  0  0  0  0  0
  139.5210   78.6480  223.0620 C   0  0  0  0  0  0  0  0  0  0  0  0
  138.4860   77.7830  222.8840 N   0  0  0  0  0  0  0  0  0  0  0  0
  138.6290   73.7960  222.4650 H   0  0  0  0  0  0  0  0  0  0  0  0
  135.6133   73.7917  222.2178 H   0  0  0  0  0  0  0  0  0  0  0  0
  136.6692   72.7640  221.1804 H   0  0  0  0  0  0  0  0  0  0  0  0
  136.2661   69.5206  223.6115 H   0  0  0  0  0  0  0  0  0  0  0  0
  136.9806   69.5159  221.9931 H   0  0  0  0  0  0  0  0  0  0  0  0
  138.5099   67.9968  222.9957 H   0  0  0  0  0  0  0  0  0  0  0  0
  137.6540   69.2940  225.3540 H   0  0  0  0  0  0  0  0  0  0  0  0
  140.2042   69.6670  224.4264 H   0  0  0  0  0  0  0  0  0  0  0  0
  140.1678   69.6910  222.6571 H   0  0  0  0  0  0  0  0  0  0  0  0
  139.0959   71.7130  224.6049 H   0  0  0  0  0  0  0  0  0  0  0  0
  140.0345   71.7532  219.2551 H   0  0  0  0  0  0  0  0  0  0  0  0
  141.7089   71.2583  221.7246 H   0  0  0  0  0  0  0  0  0  0  0  0
  141.3842   70.1994  220.2885 H   0  0  0  0  0  0  0  0  0  0  0  0
  143.7213   70.9594  220.3009 H   0  0  0  0  0  0  0  0  0  0  0  0
  142.8040   71.6534  218.9011 H   0  0  0  0  0  0  0  0  0  0  0  0
  143.9516   73.0146  221.3299 H   0  0  0  0  0  0  0  0  0  0  0  0
  143.8558   73.5475  219.5855 H   0  0  0  0  0  0  0  0  0  0  0  0
  141.8715   73.8918  221.8193 H   0  0  0  0  0  0  0  0  0  0  0  0
  142.3796   75.0217  220.4936 H   0  0  0  0  0  0  0  0  0  0  0  0
  140.0516   74.2741  220.1877 H   0  0  0  0  0  0  0  0  0  0  0  0
  141.1401   73.6780  218.8635 H   0  0  0  0  0  0  0  0  0  0  0  0
  140.1383   75.0344  221.7917 H   0  0  0  0  0  0  0  0  0  0  0  0
  142.0782   76.5852  222.0911 H   0  0  0  0  0  0  0  0  0  0  0  0
  142.9357   78.8095  222.7436 H   0  0  0  0  0  0  0  0  0  0  0  0
  140.1585   81.8541  224.0714 H   0  0  0  0  0  0  0  0  0  0  0  0
  138.2514   80.2772  223.7308 H   0  0  0  0  0  0  0  0  0  0  0  0
  1  2  2  0
  2  3  1  0
  3  4  1  0
  4  5  1  0
  5  6  2  0
  5  7  1  0
  7  8  1  0
  8  9  1  0
  9 10  1  0
  9 11  1  0
 11 12  1  0
 12 13  1  0
 13 14  2  0
 13 15  1  0
 15 16  1  0
 16 17  1  0
 17 18  1  0
 18 19  1  0
 19 20  1  0
 20 21  1  0
  2 22  1  0
 22 23  2  0
 23 24  1  0
 24 25  2  0
 25 26  1  0
 26 27  2  0
 27 28  1  0
 27 29  1  0
 29 30  2  0
 30 31  1  0
 31 32  2  0
 12  7  1  0
 21 16  1  0
 32 22  1  0
 31 25  1  0
  3 33  1  0
  4 34  1  0
  4 35  1  0
  8 36  1  0
  8 37  1  0
  9 38  1  6
 10 39  1  0
 11 40  1  0
 11 41  1  0
 12 42  1  1
 16 43  1  0
 17 44  1  0
 17 45  1  0
 18 46  1  0
 18 47  1  0
 19 48  1  0
 19 49  1  0
 20 50  1  0
 20 51  1  0
 21 52  1  0
 21 53  1  0
 23 54  1  0
 24 55  1  0
 26 56  1  0
 29 57  1  0
 30 58  1  0
M  CHG  1  15  -1
M  END
>  <UniqueID>  (9) 
137

>  <SMILES>  (9) 
O=C(NCC(=O)N1C[C@H](O)C[C@H]1C(=O)[N-]C1CCCCC1)c1ccc2cc(F)ccc2n1

>  <Energy>  (9) 
51.087325513709516

>  <Genealogy>  (9) 
O=C(NCC(=O)N1C[C@H](O)C[C@H]1C(=O)[N-]C1CCCCC1)c1ccc2cc(F)ccc2n1 (protonated)
O=C(NCC(=O)N1C[C@H](O)C[C@H]1C(=O)[N-]C1CCCCC1)c1ccc2cc(F)ccc2n1 (3D coordinates assigned)
O=C(NCC(=O)N1C[C@H](O)C[C@H]1C(=O)[N-]C1CCCCC1)c1ccc2cc(F)ccc2n1 (nonaromatic ring conformer: 51.087325513709516 kcal/mol)

>  <smiles>  (9) 
O=C(NCC(=O)N1C[C@H](O)C[C@H]1C(=O)NC1CCCCC1)c1ccc2cc(F)ccc2n1

>  <score_type>  (9) 
oracle

>  <origin>  (9) 
autodockgpu

>  <m_score__min__energy>  (9) 
-8.7599999999999998

>  <m_primary>  (9) 
energy

>  <meeko>  (9) 
{"free_energy": -5.44, "intermolecular_energy": -7.83, "internal_energy": -3.42, "cluster_size": 1, "cluster_id": 6, "rank_in_cluster": 1}

>  <energy>  (9) 
-6.28

>  <cluster_rmsd>  (9) 
1.56

>  <rmsd>  (9) 
272.33

>  <cluster>  (9) 
1

$$$$
YMXDKILJCZTOEU-UDRLWISANA-M
     RDKit          3D

 58 61  0  0  0  0  0  0  0  0999 V2000
  139.6510   71.3580  221.0420 O   0  0  0  0  0  0  0  0  0  0  0  0
  139.6500   71.8890  222.1880 C   0  0  0  0  0  0  0  0  0  0  0  0
  139.6130   73.3210  222.3190 N   0  0  0  0  0  0  0  0  0  0  0  0
  139.5500   74.2260  221.1760 C   0  0  0  0  0  0  0  0  0  0  0  0
  140.1470   75.5590  221.5320 C   0  0  0  0  0  0  0  0  0  0  0  0
  139.9730   75.9990  222.7020 O   0  0  0  0  0  0  0  0  0  0  0  0
  140.8990   76.3410  220.5850 N   0  0  0  0  0  0  0  0  0  0  0  0
  141.6870   75.7130  219.5320 C   0  0  0  0  0  0  0  0  0  0  0  0
  142.6840   76.7760  219.0710 C   0  0  2  0  0  0  0  0  0  0  0  0
  143.9140   76.6020  219.7250 O   0  0  0  0  0  0  0  0  0  0  0  0
  142.0690   78.1080  219.4960 C   0  0  0  0  0  0  0  0  0  0  0  0
  141.1300   77.7800  220.6580 C   0  0  1  0  0  0  0  0  0  0  0  0
  139.8390   78.5360  220.5310 C   0  0  0  0  0  0  0  0  0  0  0  0
  139.3350   78.7240  219.3900 O   0  0  0  0  0  0  0  0  0  0  0  0
  139.1770   79.0210  221.7060 N   0  0  0  0  0  0  0  0  0  0  0  0
  139.7390   80.0440  222.5880 C   0  0  0  0  0  0  0  0  0  0  0  0
  140.7310   80.9080  221.7790 C   0  0  0  0  0  0  0  0  0  0  0  0
  141.8030   81.5350  222.6750 C   0  0  0  0  0  0  0  0  0  0  0  0
  142.6530   80.4560  223.3800 C   0  0  0  0  0  0  0  0  0  0  0  0
  141.8860   79.1420  223.6380 C   0  0  0  0  0  0  0  0  0  0  0  0
  140.3870   79.3860  223.8340 C   0  0  0  0  0  0  0  0  0  0  0  0
  139.6900   71.0340  223.3930 C   0  0  0  0  0  0  0  0  0  0  0  0
  139.1830   69.7230  223.3690 C   0  0  0  0  0  0  0  0  0  0  0  0
  139.2390   68.9370  224.5230 C   0  0  0  0  0  0  0  0  0  0  0  0
  139.7970   69.4610  225.6970 C   0  0  0  0  0  0  0  0  0  0  0  0
  139.8670   68.7020  226.8740 C   0  0  0  0  0  0  0  0  0  0  0  0
  140.4280   69.2540  228.0310 C   0  0  0  0  0  0  0  0  0  0  0  0
  140.4900   68.5200  229.1720 F   0  0  0  0  0  0  0  0  0  0  0  0
  140.9270   70.5620  228.0160 C   0  0  0  0  0  0  0  0  0  0  0  0
  140.8670   71.3240  226.8440 C   0  0  0  0  0  0  0  0  0  0  0  0
  140.3000   70.7810  225.6840 C   0  0  0  0  0  0  0  0  0  0  0  0
  140.2340   71.5200  224.5450 N   0  0  0  0  0  0  0  0  0  0  0  0
  139.5570   73.7400  223.2730 H   0  0  0  0  0  0  0  0  0  0  0  0
  140.1111   73.7897  220.3364 H   0  0  0  0  0  0  0  0  0  0  0  0
  138.4973   74.3701  220.8915 H   0  0  0  0  0  0  0  0  0  0  0  0
  142.2184   74.8331  219.9237 H   0  0  0  0  0  0  0  0  0  0  0  0
  141.0528   75.3649  218.7034 H   0  0  0  0  0  0  0  0  0  0  0  0
  142.8691   76.7214  217.9881 H   0  0  0  0  0  0  0  0  0  0  0  0
  144.0550   77.4130  220.2830 H   0  0  0  0  0  0  0  0  0  0  0  0
  142.8541   78.8057  219.8228 H   0  0  0  0  0  0  0  0  0  0  0  0
  141.5330   78.5904  218.6654 H   0  0  0  0  0  0  0  0  0  0  0  0
  141.5671   78.0699  221.6249 H   0  0  0  0  0  0  0  0  0  0  0  0
  138.9462   80.7055  222.9672 H   0  0  0  0  0  0  0  0  0  0  0  0
  141.2226   80.2745  221.0260 H   0  0  0  0  0  0  0  0  0  0  0  0
  140.1650   81.7223  221.3030 H   0  0  0  0  0  0  0  0  0  0  0  0
  142.4625   82.1627  222.0577 H   0  0  0  0  0  0  0  0  0  0  0  0
  141.2996   82.1364  223.4464 H   0  0  0  0  0  0  0  0  0  0  0  0
  143.5254   80.2321  222.7486 H   0  0  0  0  0  0  0  0  0  0  0  0
  142.9421   80.8608  224.3611 H   0  0  0  0  0  0  0  0  0  0  0  0
  142.0279   78.4723  222.7770 H   0  0  0  0  0  0  0  0  0  0  0  0
  142.2818   78.6911  224.5600 H   0  0  0  0  0  0  0  0  0  0  0  0
  139.8921   78.4224  224.0249 H   0  0  0  0  0  0  0  0  0  0  0  0
  140.2622   80.0720  224.6848 H   0  0  0  0  0  0  0  0  0  0  0  0
  138.7440   69.3176  222.4455 H   0  0  0  0  0  0  0  0  0  0  0  0
  138.8461   67.9096  224.5100 H   0  0  0  0  0  0  0  0  0  0  0  0
  139.4807   67.6721  226.8878 H   0  0  0  0  0  0  0  0  0  0  0  0
  141.3673   70.9917  228.9279 H   0  0  0  0  0  0  0  0  0  0  0  0
  141.2651   72.3494  226.8336 H   0  0  0  0  0  0  0  0  0  0  0  0
  1  2  2  0
  2  3  1  0
  3  4  1  0
  4  5  1  0
  5  6  2  0
  5  7  1  0
  7  8  1  0
  8  9  1  0
  9 10  1  0
  9 11  1  0
 11 12  1  0
 12 13  1  0
 13 14  2  0
 13 15  1  0
 15 16  1  0
 16 17  1  0
 17 18  1  0
 18 19  1  0
 19 20  1  0
 20 21  1  0
  2 22  1  0
 22 23  2  0
 23 24  1  0
 24 25  2  0
 25 26  1  0
 26 27  2  0
 27 28  1  0
 27 29  1  0
 29 30  2  0
 30 31  1  0
 31 32  2  0
 12  7  1  0
 21 16  1  0
 32 22  1  0
 31 25  1  0
  3 33  1  0
  4 34  1  0
  4 35  1  0
  8 36  1  0
  8 37  1  0
  9 38  1  6
 10 39  1  0
 11 40  1  0
 11 41  1  0
 12 42  1  1
 16 43  1  0
 17 44  1  0
 17 45  1  0
 18 46  1  0
 18 47  1  0
 19 48  1  0
 19 49  1  0
 20 50  1  0
 20 51  1  0
 21 52  1  0
 21 53  1  0
 23 54  1  0
 24 55  1  0
 26 56  1  0
 29 57  1  0
 30 58  1  0
M  CHG  1  15  -1
M  END
>  <UniqueID>  (10) 
137

>  <SMILES>  (10) 
O=C(NCC(=O)N1C[C@H](O)C[C@H]1C(=O)[N-]C1CCCCC1)c1ccc2cc(F)ccc2n1

>  <Energy>  (10) 
51.087325513709516

>  <Genealogy>  (10) 
O=C(NCC(=O)N1C[C@H](O)C[C@H]1C(=O)[N-]C1CCCCC1)c1ccc2cc(F)ccc2n1 (protonated)
O=C(NCC(=O)N1C[C@H](O)C[C@H]1C(=O)[N-]C1CCCCC1)c1ccc2cc(F)ccc2n1 (3D coordinates assigned)
O=C(NCC(=O)N1C[C@H](O)C[C@H]1C(=O)[N-]C1CCCCC1)c1ccc2cc(F)ccc2n1 (nonaromatic ring conformer: 51.087325513709516 kcal/mol)

>  <smiles>  (10) 
O=C(NCC(=O)N1C[C@H](O)C[C@H]1C(=O)NC1CCCCC1)c1ccc2cc(F)ccc2n1

>  <score_type>  (10) 
oracle

>  <origin>  (10) 
autodockgpu

>  <m_score__min__energy>  (10) 
-8.7599999999999998

>  <m_primary>  (10) 
energy

>  <meeko>  (10) 
{"free_energy": -8.5, "intermolecular_energy": -10.89, "internal_energy": -2.28, "cluster_size": 9, "cluster_id": 1, "rank_in_cluster": 3}

>  <energy>  (10) 
-8.01

>  <cluster_rmsd>  (10) 
0.0

>  <rmsd>  (10) 
271.73

>  <cluster>  (10) 
2

$$$$
YMXDKILJCZTOEU-UDRLWISANA-M
     RDKit          3D

 58 61  0  0  0  0  0  0  0  0999 V2000
  139.6400   71.3660  220.9820 O   0  0  0  0  0  0  0  0  0  0  0  0
  139.6420   71.8890  222.1320 C   0  0  0  0  0  0  0  0  0  0  0  0
  139.6140   73.3200  222.2730 N   0  0  0  0  0  0  0  0  0  0  0  0
  139.5540   74.2330  221.1350 C   0  0  0  0  0  0  0  0  0  0  0  0
  140.1130   75.5760  221.5150 C   0  0  0  0  0  0  0  0  0  0  0  0
  139.9820   75.9640  222.7080 O   0  0  0  0  0  0  0  0  0  0  0  0
  140.7830   76.4260  220.5630 N   0  0  0  0  0  0  0  0  0  0  0  0
  141.4600   75.8780  219.3950 C   0  0  0  0  0  0  0  0  0  0  0  0
  142.4220   76.9690  218.9250 C   0  0  2  0  0  0  0  0  0  0  0  0
  143.7060   76.7390  219.4440 O   0  0  0  0  0  0  0  0  0  0  0  0
  141.8660   78.2660  219.5070 C   0  0  0  0  0  0  0  0  0  0  0  0
  141.0370   77.8540  220.7250 C   0  0  1  0  0  0  0  0  0  0  0  0
  139.7490   78.6230  220.7800 C   0  0  0  0  0  0  0  0  0  0  0  0
  139.1620   78.9350  219.7080 O   0  0  0  0  0  0  0  0  0  0  0  0
  139.1850   78.9820  222.0470 N   0  0  0  0  0  0  0  0  0  0  0  0
  139.8400   79.8760  223.0020 C   0  0  0  0  0  0  0  0  0  0  0  0
  140.5620   80.9950  222.2200 C   0  0  0  0  0  0  0  0  0  0  0  0
  141.7480   81.5640  223.0050 C   0  0  0  0  0  0  0  0  0  0  0  0
  142.8130   80.4810  223.2830 C   0  0  0  0  0  0  0  0  0  0  0  0
  142.2280   79.0580  223.3970 C   0  0  0  0  0  0  0  0  0  0  0  0
  140.7920   79.0740  223.9280 C   0  0  0  0  0  0  0  0  0  0  0  0
  139.6800   71.0260  223.3320 C   0  0  0  0  0  0  0  0  0  0  0  0
  139.1650   69.7180  223.3000 C   0  0  0  0  0  0  0  0  0  0  0  0
  139.2180   68.9240  224.4480 C   0  0  0  0  0  0  0  0  0  0  0  0
  139.7800   69.4380  225.6250 C   0  0  0  0  0  0  0  0  0  0  0  0
  139.8470   68.6700  226.7970 C   0  0  0  0  0  0  0  0  0  0  0  0
  140.4130   69.2110  227.9560 C   0  0  0  0  0  0  0  0  0  0  0  0
  140.4720   68.4690  229.0930 F   0  0  0  0  0  0  0  0  0  0  0  0
  140.9190   70.5170  227.9500 C   0  0  0  0  0  0  0  0  0  0  0  0
  140.8620   71.2870  226.7830 C   0  0  0  0  0  0  0  0  0  0  0  0
  140.2900   70.7550  225.6200 C   0  0  0  0  0  0  0  0  0  0  0  0
  140.2270   71.5020  224.4860 N   0  0  0  0  0  0  0  0  0  0  0  0
  139.5610   73.7340  223.2300 H   0  0  0  0  0  0  0  0  0  0  0  0
  140.1424   73.8167  220.3041 H   0  0  0  0  0  0  0  0  0  0  0  0
  138.5046   74.3553  220.8287 H   0  0  0  0  0  0  0  0  0  0  0  0
  142.0151   74.9676  219.6654 H   0  0  0  0  0  0  0  0  0  0  0  0
  140.7464   75.5984  218.6060 H   0  0  0  0  0  0  0  0  0  0  0  0
  142.5038   76.9979  217.8284 H   0  0  0  0  0  0  0  0  0  0  0  0
  143.8790   77.4630  220.1010 H   0  0  0  0  0  0  0  0  0  0  0  0
  142.6867   78.9328  219.8099 H   0  0  0  0  0  0  0  0  0  0  0  0
  141.2594   78.8132  218.7704 H   0  0  0  0  0  0  0  0  0  0  0  0
  141.5666   78.0667  221.6654 H   0  0  0  0  0  0  0  0  0  0  0  0
  139.0973   80.3490  223.6613 H   0  0  0  0  0  0  0  0  0  0  0  0
  140.9294   80.5840  221.2681 H   0  0  0  0  0  0  0  0  0  0  0  0
  139.8435   81.8100  222.0479 H   0  0  0  0  0  0  0  0  0  0  0  0
  142.2070   82.3755  222.4212 H   0  0  0  0  0  0  0  0  0  0  0  0
  141.3760   81.9386  223.9700 H   0  0  0  0  0  0  0  0  0  0  0  0
  143.5439   80.4922  222.4610 H   0  0  0  0  0  0  0  0  0  0  0  0
  143.2728   80.7206  224.2532 H   0  0  0  0  0  0  0  0  0  0  0  0
  142.2343   78.5897  222.4017 H   0  0  0  0  0  0  0  0  0  0  0  0
  142.8481   78.4893  224.1056 H   0  0  0  0  0  0  0  0  0  0  0  0
  140.4283   78.0384  224.0003 H   0  0  0  0  0  0  0  0  0  0  0  0
  140.7992   79.5623  224.9136 H   0  0  0  0  0  0  0  0  0  0  0  0
  138.7221   69.3215  222.3745 H   0  0  0  0  0  0  0  0  0  0  0  0
  138.8201   67.8987  224.4286 H   0  0  0  0  0  0  0  0  0  0  0  0
  139.4545   67.6424  226.8045 H   0  0  0  0  0  0  0  0  0  0  0  0
  141.3621   70.9382  228.8645 H   0  0  0  0  0  0  0  0  0  0  0  0
  141.2663   72.3100  226.7788 H   0  0  0  0  0  0  0  0  0  0  0  0
  1  2  2  0
  2  3  1  0
  3  4  1  0
  4  5  1  0
  5  6  2  0
  5  7  1  0
  7  8  1  0
  8  9  1  0
  9 10  1  0
  9 11  1  0
 11 12  1  0
 12 13  1  0
 13 14  2  0
 13 15  1  0
 15 16  1  0
 16 17  1  0
 17 18  1  0
 18 19  1  0
 19 20  1  0
 20 21  1  0
  2 22  1  0
 22 23  2  0
 23 24  1  0
 24 25  2  0
 25 26  1  0
 26 27  2  0
 27 28  1  0
 27 29  1  0
 29 30  2  0
 30 31  1  0
 31 32  2  0
 12  7  1  0
 21 16  1  0
 32 22  1  0
 31 25  1  0
  3 33  1  0
  4 34  1  0
  4 35  1  0
  8 36  1  0
  8 37  1  0
  9 38  1  6
 10 39  1  0
 11 40  1  0
 11 41  1  0
 12 42  1  1
 16 43  1  0
 17 44  1  0
 17 45  1  0
 18 46  1  0
 18 47  1  0
 19 48  1  0
 19 49  1  0
 20 50  1  0
 20 51  1  0
 21 52  1  0
 21 53  1  0
 23 54  1  0
 24 55  1  0
 26 56  1  0
 29 57  1  0
 30 58  1  0
M  CHG  1  15  -1
M  END
>  <UniqueID>  (11) 
137

>  <SMILES>  (11) 
O=C(NCC(=O)N1C[C@H](O)C[C@H]1C(=O)[N-]C1CCCCC1)c1ccc2cc(F)ccc2n1

>  <Energy>  (11) 
51.087325513709516

>  <Genealogy>  (11) 
O=C(NCC(=O)N1C[C@H](O)C[C@H]1C(=O)[N-]C1CCCCC1)c1ccc2cc(F)ccc2n1 (protonated)
O=C(NCC(=O)N1C[C@H](O)C[C@H]1C(=O)[N-]C1CCCCC1)c1ccc2cc(F)ccc2n1 (3D coordinates assigned)
O=C(NCC(=O)N1C[C@H](O)C[C@H]1C(=O)[N-]C1CCCCC1)c1ccc2cc(F)ccc2n1 (nonaromatic ring conformer: 51.087325513709516 kcal/mol)

>  <smiles>  (11) 
O=C(NCC(=O)N1C[C@H](O)C[C@H]1C(=O)NC1CCCCC1)c1ccc2cc(F)ccc2n1

>  <score_type>  (11) 
oracle

>  <origin>  (11) 
autodockgpu

>  <m_score__min__energy>  (11) 
-8.7599999999999998

>  <m_primary>  (11) 
energy

>  <meeko>  (11) 
{"free_energy": -8.48, "intermolecular_energy": -10.87, "internal_energy": -2.29, "cluster_size": 9, "cluster_id": 1, "rank_in_cluster": 4}

>  <energy>  (11) 
-7.98

>  <cluster_rmsd>  (11) 
0.17

>  <rmsd>  (11) 
271.79

>  <cluster>  (11) 
2

$$$$
YMXDKILJCZTOEU-UDRLWISANA-M
     RDKit          3D

 58 61  0  0  0  0  0  0  0  0999 V2000
  139.9090   71.6840  220.9150 O   0  0  0  0  0  0  0  0  0  0  0  0
  139.7980   72.2060  222.0590 C   0  0  0  0  0  0  0  0  0  0  0  0
  139.6870   73.6340  222.1930 N   0  0  0  0  0  0  0  0  0  0  0  0
  139.6690   74.5440  221.0510 C   0  0  0  0  0  0  0  0  0  0  0  0
  140.6410   75.6700  221.2670 C   0  0  0  0  0  0  0  0  0  0  0  0
  141.3030   75.6920  222.3410 O   0  0  0  0  0  0  0  0  0  0  0  0
  140.8320   76.7160  220.2950 N   0  0  0  0  0  0  0  0  0  0  0  0
  141.2840   76.4250  218.9400 C   0  0  0  0  0  0  0  0  0  0  0  0
  141.8230   77.7460  218.3920 C   0  0  2  0  0  0  0  0  0  0  0  0
  143.2160   77.8070  218.5560 O   0  0  0  0  0  0  0  0  0  0  0  0
  141.1650   78.8280  219.2450 C   0  0  0  0  0  0  0  0  0  0  0  0
  140.7960   78.1490  220.5660 C   0  0  1  0  0  0  0  0  0  0  0  0
  139.4300   78.5730  221.0220 C   0  0  0  0  0  0  0  0  0  0  0  0
  138.4960   78.6800  220.1800 O   0  0  0  0  0  0  0  0  0  0  0  0
  139.1900   78.8360  222.4100 N   0  0  0  0  0  0  0  0  0  0  0  0
  139.9860   79.7680  223.2080 C   0  0  0  0  0  0  0  0  0  0  0  0
  140.4800   80.9100  222.2930 C   0  0  0  0  0  0  0  0  0  0  0  0
  141.7750   81.5390  222.8150 C   0  0  0  0  0  0  0  0  0  0  0  0
  142.9230   80.5080  222.8690 C   0  0  0  0  0  0  0  0  0  0  0  0
  142.4400   79.0610  223.1030 C   0  0  0  0  0  0  0  0  0  0  0  0
  141.1440   79.0190  223.9180 C   0  0  0  0  0  0  0  0  0  0  0  0
  139.7860   71.3450  223.2610 C   0  0  0  0  0  0  0  0  0  0  0  0
  139.2330   70.0530  223.2220 C   0  0  0  0  0  0  0  0  0  0  0  0
  139.2400   69.2600  224.3720 C   0  0  0  0  0  0  0  0  0  0  0  0
  139.7940   69.7600  225.5580 C   0  0  0  0  0  0  0  0  0  0  0  0
  139.8160   68.9930  226.7330 C   0  0  0  0  0  0  0  0  0  0  0  0
  140.3750   69.5200  227.9020 C   0  0  0  0  0  0  0  0  0  0  0  0
  140.3900   68.7800  229.0410 F   0  0  0  0  0  0  0  0  0  0  0  0
  140.9200   70.8100  227.9030 C   0  0  0  0  0  0  0  0  0  0  0  0
  140.9090   71.5790  226.7340 C   0  0  0  0  0  0  0  0  0  0  0  0
  140.3440   71.0610  225.5610 C   0  0  0  0  0  0  0  0  0  0  0  0
  140.3250   71.8070  224.4250 N   0  0  0  0  0  0  0  0  0  0  0  0
  139.5410   74.0430  223.1420 H   0  0  0  0  0  0  0  0  0  0  0  0
  139.9496   73.9915  220.1421 H   0  0  0  0  0  0  0  0  0  0  0  0
  138.6569   74.9606  220.9409 H   0  0  0  0  0  0  0  0  0  0  0  0
  142.0778   75.6637  218.9555 H   0  0  0  0  0  0  0  0  0  0  0  0
  140.4693   76.0286  218.3162 H   0  0  0  0  0  0  0  0  0  0  0  0
  141.6067   77.8624  217.3198 H   0  0  0  0  0  0  0  0  0  0  0  0
  143.3900   77.7090  219.5290 H   0  0  0  0  0  0  0  0  0  0  0  0
  141.8672   79.6558  219.4227 H   0  0  0  0  0  0  0  0  0  0  0  0
  140.2813   79.2545  218.7478 H   0  0  0  0  0  0  0  0  0  0  0  0
  141.4922   78.4259  221.3714 H   0  0  0  0  0  0  0  0  0  0  0  0
  139.3739   80.2143  224.0056 H   0  0  0  0  0  0  0  0  0  0  0  0
  140.6614   80.5060  221.2861 H   0  0  0  0  0  0  0  0  0  0  0  0
  139.7053   81.6907  222.2729 H   0  0  0  0  0  0  0  0  0  0  0  0
  142.0662   82.3636  222.1477 H   0  0  0  0  0  0  0  0  0  0  0  0
  141.5931   81.9068  223.8356 H   0  0  0  0  0  0  0  0  0  0  0  0
  143.4678   80.5431  221.9140 H   0  0  0  0  0  0  0  0  0  0  0  0
  143.5610   80.7784  223.7233 H   0  0  0  0  0  0  0  0  0  0  0  0
  142.2634   78.5825  222.1284 H   0  0  0  0  0  0  0  0  0  0  0  0
  143.2178   78.5282  223.6697 H   0  0  0  0  0  0  0  0  0  0  0  0
  140.8506   77.9690  224.0646 H   0  0  0  0  0  0  0  0  0  0  0  0
  141.3316   79.5180  224.8802 H   0  0  0  0  0  0  0  0  0  0  0  0
  138.7962   69.6678  222.2888 H   0  0  0  0  0  0  0  0  0  0  0  0
  138.8122   68.2469  224.3466 H   0  0  0  0  0  0  0  0  0  0  0  0
  139.3936   67.9773  226.7348 H   0  0  0  0  0  0  0  0  0  0  0  0
  141.3579   71.2198  228.8251 H   0  0  0  0  0  0  0  0  0  0  0  0
  141.3436   72.5895  226.7359 H   0  0  0  0  0  0  0  0  0  0  0  0
  1  2  2  0
  2  3  1  0
  3  4  1  0
  4  5  1  0
  5  6  2  0
  5  7  1  0
  7  8  1  0
  8  9  1  0
  9 10  1  0
  9 11  1  0
 11 12  1  0
 12 13  1  0
 13 14  2  0
 13 15  1  0
 15 16  1  0
 16 17  1  0
 17 18  1  0
 18 19  1  0
 19 20  1  0
 20 21  1  0
  2 22  1  0
 22 23  2  0
 23 24  1  0
 24 25  2  0
 25 26  1  0
 26 27  2  0
 27 28  1  0
 27 29  1  0
 29 30  2  0
 30 31  1  0
 31 32  2  0
 12  7  1  0
 21 16  1  0
 32 22  1  0
 31 25  1  0
  3 33  1  0
  4 34  1  0
  4 35  1  0
  8 36  1  0
  8 37  1  0
  9 38  1  6
 10 39  1  0
 11 40  1  0
 11 41  1  0
 12 42  1  1
 16 43  1  0
 17 44  1  0
 17 45  1  0
 18 46  1  0
 18 47  1  0
 19 48  1  0
 19 49  1  0
 20 50  1  0
 20 51  1  0
 21 52  1  0
 21 53  1  0
 23 54  1  0
 24 55  1  0
 26 56  1  0
 29 57  1  0
 30 58  1  0
M  CHG  1  15  -1
M  END
>  <UniqueID>  (12) 
137

>  <SMILES>  (12) 
O=C(NCC(=O)N1C[C@H](O)C[C@H]1C(=O)[N-]C1CCCCC1)c1ccc2cc(F)ccc2n1

>  <Energy>  (12) 
51.087325513709516

>  <Genealogy>  (12) 
O=C(NCC(=O)N1C[C@H](O)C[C@H]1C(=O)[N-]C1CCCCC1)c1ccc2cc(F)ccc2n1 (protonated)
O=C(NCC(=O)N1C[C@H](O)C[C@H]1C(=O)[N-]C1CCCCC1)c1ccc2cc(F)ccc2n1 (3D coordinates assigned)
O=C(NCC(=O)N1C[C@H](O)C[C@H]1C(=O)[N-]C1CCCCC1)c1ccc2cc(F)ccc2n1 (nonaromatic ring conformer: 51.087325513709516 kcal/mol)

>  <smiles>  (12) 
O=C(NCC(=O)N1C[C@H](O)C[C@H]1C(=O)NC1CCCCC1)c1ccc2cc(F)ccc2n1

>  <score_type>  (12) 
oracle

>  <origin>  (12) 
autodockgpu

>  <m_score__min__energy>  (12) 
-8.7599999999999998

>  <m_primary>  (12) 
energy

>  <meeko>  (12) 
{"free_energy": -7.99, "intermolecular_energy": -10.38, "internal_energy": -2.18, "cluster_size": 9, "cluster_id": 1, "rank_in_cluster": 7}

>  <energy>  (12) 
-7.46

>  <cluster_rmsd>  (12) 
0.83

>  <rmsd>  (12) 
271.61

>  <cluster>  (12) 
2

$$$$
YMXDKILJCZTOEU-UDRLWISANA-M
     RDKit          3D

 58 61  0  0  0  0  0  0  0  0999 V2000
  135.6320   71.6520  221.7060 O   0  0  0  0  0  0  0  0  0  0  0  0
  136.3020   72.0630  222.6950 C   0  0  0  0  0  0  0  0  0  0  0  0
  136.2380   73.4470  223.0830 N   0  0  0  0  0  0  0  0  0  0  0  0
  135.4030   74.4310  222.4000 C   0  0  0  0  0  0  0  0  0  0  0  0
  136.2450   75.3000  221.5080 C   0  0  0  0  0  0  0  0  0  0  0  0
  135.6630   76.0090  220.6410 O   0  0  0  0  0  0  0  0  0  0  0  0
  137.6810   75.3420  221.6100 N   0  0  0  0  0  0  0  0  0  0  0  0
  138.5240   74.3890  220.8980 C   0  0  0  0  0  0  0  0  0  0  0  0
  139.8780   74.4250  221.6070 C   0  0  2  0  0  0  0  0  0  0  0  0
  139.9600   73.3860  222.5480 O   0  0  0  0  0  0  0  0  0  0  0  0
  139.9110   75.7680  222.3320 C   0  0  0  0  0  0  0  0  0  0  0  0
  138.4480   76.1660  222.5380 C   0  0  1  0  0  0  0  0  0  0  0  0
  138.2440   77.6250  222.2510 C   0  0  0  0  0  0  0  0  0  0  0  0
  137.1260   78.1590  222.4910 O   0  0  0  0  0  0  0  0  0  0  0  0
  139.3240   78.4070  221.7250 N   0  0  0  0  0  0  0  0  0  0  0  0
  139.8510   79.6040  222.3790 C   0  0  0  0  0  0  0  0  0  0  0  0
  140.9710   80.1990  221.4980 C   0  0  0  0  0  0  0  0  0  0  0  0
  141.9800   81.0020  222.3240 C   0  0  0  0  0  0  0  0  0  0  0  0
  142.6870   80.1150  223.3720 C   0  0  0  0  0  0  0  0  0  0  0  0
  141.8210   78.9360  223.8630 C   0  0  0  0  0  0  0  0  0  0  0  0
  140.3270   79.2690  223.8180 C   0  0  0  0  0  0  0  0  0  0  0  0
  137.1530   71.1200  223.4490 C   0  0  0  0  0  0  0  0  0  0  0  0
  136.7270   69.8040  223.7050 C   0  0  0  0  0  0  0  0  0  0  0  0
  137.5560   68.9330  224.4160 C   0  0  0  0  0  0  0  0  0  0  0  0
  138.8040   69.3770  224.8740 C   0  0  0  0  0  0  0  0  0  0  0  0
  139.6600   68.5310  225.5940 C   0  0  0  0  0  0  0  0  0  0  0  0
  140.8990   69.0030  226.0390 C   0  0  0  0  0  0  0  0  0  0  0  0
  141.7250   68.1850  226.7420 F   0  0  0  0  0  0  0  0  0  0  0  0
  141.2910   70.3190  225.7630 C   0  0  0  0  0  0  0  0  0  0  0  0
  140.4460   71.1670  225.0400 C   0  0  0  0  0  0  0  0  0  0  0  0
  139.2010   70.7040  224.5970 C   0  0  0  0  0  0  0  0  0  0  0  0
  138.3740   71.5270  223.8990 N   0  0  0  0  0  0  0  0  0  0  0  0
  136.7550   73.7580  223.9360 H   0  0  0  0  0  0  0  0  0  0  0  0
  134.6500   73.9084  221.7918 H   0  0  0  0  0  0  0  0  0  0  0  0
  134.9075   75.0633  223.1515 H   0  0  0  0  0  0  0  0  0  0  0  0
  138.0903   73.3794  220.9502 H   0  0  0  0  0  0  0  0  0  0  0  0
  138.6165   74.6455  219.8323 H   0  0  0  0  0  0  0  0  0  0  0  0
  140.7129   74.3045  220.9010 H   0  0  0  0  0  0  0  0  0  0  0  0
  139.1100   73.4020  223.0620 H   0  0  0  0  0  0  0  0  0  0  0  0
  140.4209   75.6676  223.3015 H   0  0  0  0  0  0  0  0  0  0  0  0
  140.4597   76.5266  221.7546 H   0  0  0  0  0  0  0  0  0  0  0  0
  138.1294   76.0068  223.5787 H   0  0  0  0  0  0  0  0  0  0  0  0
  139.0638   80.3649  222.4854 H   0  0  0  0  0  0  0  0  0  0  0  0
  141.4992   79.3779  220.9913 H   0  0  0  0  0  0  0  0  0  0  0  0
  140.5068   80.8803  220.7697 H   0  0  0  0  0  0  0  0  0  0  0  0
  142.7360   81.4287  221.6484 H   0  0  0  0  0  0  0  0  0  0  0  0
  141.4362   81.7970  222.8552 H   0  0  0  0  0  0  0  0  0  0  0  0
  143.6054   79.7093  222.9226 H   0  0  0  0  0  0  0  0  0  0  0  0
  142.8962   80.7496  224.2458 H   0  0  0  0  0  0  0  0  0  0  0  0
  142.0106   78.0634  223.2206 H   0  0  0  0  0  0  0  0  0  0  0  0
  142.0925   78.7248  224.9079 H   0  0  0  0  0  0  0  0  0  0  0  0
  139.7585   78.4030  224.1879 H   0  0  0  0  0  0  0  0  0  0  0  0
  140.1563   80.1544  224.4480 H   0  0  0  0  0  0  0  0  0  0  0  0
  135.7448   69.4621  223.3467 H   0  0  0  0  0  0  0  0  0  0  0  0
  137.2302   67.9015  224.6159 H   0  0  0  0  0  0  0  0  0  0  0  0
  139.3567   67.4957  225.8088 H   0  0  0  0  0  0  0  0  0  0  0  0
  142.2659   70.6865  226.1158 H   0  0  0  0  0  0  0  0  0  0  0  0
  140.7595   72.1980  224.8193 H   0  0  0  0  0  0  0  0  0  0  0  0
  1  2  2  0
  2  3  1  0
  3  4  1  0
  4  5  1  0
  5  6  2  0
  5  7  1  0
  7  8  1  0
  8  9  1  0
  9 10  1  0
  9 11  1  0
 11 12  1  0
 12 13  1  0
 13 14  2  0
 13 15  1  0
 15 16  1  0
 16 17  1  0
 17 18  1  0
 18 19  1  0
 19 20  1  0
 20 21  1  0
  2 22  1  0
 22 23  2  0
 23 24  1  0
 24 25  2  0
 25 26  1  0
 26 27  2  0
 27 28  1  0
 27 29  1  0
 29 30  2  0
 30 31  1  0
 31 32  2  0
 12  7  1  0
 21 16  1  0
 32 22  1  0
 31 25  1  0
  3 33  1  0
  4 34  1  0
  4 35  1  0
  8 36  1  0
  8 37  1  0
  9 38  1  6
 10 39  1  0
 11 40  1  0
 11 41  1  0
 12 42  1  1
 16 43  1  0
 17 44  1  0
 17 45  1  0
 18 46  1  0
 18 47  1  0
 19 48  1  0
 19 49  1  0
 20 50  1  0
 20 51  1  0
 21 52  1  0
 21 53  1  0
 23 54  1  0
 24 55  1  0
 26 56  1  0
 29 57  1  0
 30 58  1  0
M  CHG  1  15  -1
M  END
>  <UniqueID>  (13) 
137

>  <SMILES>  (13) 
O=C(NCC(=O)N1C[C@H](O)C[C@H]1C(=O)[N-]C1CCCCC1)c1ccc2cc(F)ccc2n1

>  <Energy>  (13) 
51.087325513709516

>  <Genealogy>  (13) 
O=C(NCC(=O)N1C[C@H](O)C[C@H]1C(=O)[N-]C1CCCCC1)c1ccc2cc(F)ccc2n1 (protonated)
O=C(NCC(=O)N1C[C@H](O)C[C@H]1C(=O)[N-]C1CCCCC1)c1ccc2cc(F)ccc2n1 (3D coordinates assigned)
O=C(NCC(=O)N1C[C@H](O)C[C@H]1C(=O)[N-]C1CCCCC1)c1ccc2cc(F)ccc2n1 (nonaromatic ring conformer: 51.087325513709516 kcal/mol)

>  <smiles>  (13) 
O=C(NCC(=O)N1C[C@H](O)C[C@H]1C(=O)NC1CCCCC1)c1ccc2cc(F)ccc2n1

>  <score_type>  (13) 
oracle

>  <origin>  (13) 
autodockgpu

>  <m_score__min__energy>  (13) 
-8.7599999999999998

>  <m_primary>  (13) 
energy

>  <meeko>  (13) 
{"free_energy": -7.03, "intermolecular_energy": -9.42, "internal_energy": -2.79, "cluster_size": 2, "cluster_id": 4, "rank_in_cluster": 1}

>  <energy>  (13) 
-7.53

>  <cluster_rmsd>  (13) 
0.0

>  <rmsd>  (13) 
272.09

>  <cluster>  (13) 
3

$$$$
YMXDKILJCZTOEU-UDRLWISANA-M
     RDKit          3D

 58 61  0  0  0  0  0  0  0  0999 V2000
  137.0930   76.0890  221.7400 O   0  0  0  0  0  0  0  0  0  0  0  0
  138.2700   76.1430  222.1960 C   0  0  0  0  0  0  0  0  0  0  0  0
  139.0460   74.9390  222.3290 N   0  0  0  0  0  0  0  0  0  0  0  0
  138.5540   73.6230  221.9330 C   0  0  0  0  0  0  0  0  0  0  0  0
  139.5770   72.5680  222.2470 C   0  0  0  0  0  0  0  0  0  0  0  0
  140.7220   72.9380  222.6260 O   0  0  0  0  0  0  0  0  0  0  0  0
  139.2920   71.1610  222.1240 N   0  0  0  0  0  0  0  0  0  0  0  0
  140.0280   70.3120  221.1950 C   0  0  0  0  0  0  0  0  0  0  0  0
  139.1600   69.0710  220.9910 C   0  0  2  0  0  0  0  0  0  0  0  0
  138.3830   69.2090  219.8290 O   0  0  0  0  0  0  0  0  0  0  0  0
  138.2420   69.0240  222.2100 C   0  0  0  0  0  0  0  0  0  0  0  0
  138.1620   70.4630  222.7260 C   0  0  1  0  0  0  0  0  0  0  0  0
  138.2480   70.4990  224.2250 C   0  0  0  0  0  0  0  0  0  0  0  0
  137.3390   69.9610  224.9160 O   0  0  0  0  0  0  0  0  0  0  0  0
  139.3680   71.1250  224.8610 N   0  0  0  0  0  0  0  0  0  0  0  0
  140.4710   70.3850  225.4720 C   0  0  0  0  0  0  0  0  0  0  0  0
  139.9740   68.9710  225.8460 C   0  0  0  0  0  0  0  0  0  0  0  0
  140.7730   68.3750  227.0090 C   0  0  0  0  0  0  0  0  0  0  0  0
  140.6350   69.2290  228.2870 C   0  0  0  0  0  0  0  0  0  0  0  0
  140.3960   70.7270  228.0030 C   0  0  0  0  0  0  0  0  0  0  0  0
  141.0410   71.1660  226.6850 C   0  0  0  0  0  0  0  0  0  0  0  0
  138.8440   77.4440  222.5980 C   0  0  0  0  0  0  0  0  0  0  0  0
  138.0180   78.5530  222.8520 C   0  0  0  0  0  0  0  0  0  0  0  0
  138.5880   79.7700  223.2340 C   0  0  0  0  0  0  0  0  0  0  0  0
  139.9800   79.8780  223.3580 C   0  0  0  0  0  0  0  0  0  0  0  0
  140.5870   81.0840  223.7370 C   0  0  0  0  0  0  0  0  0  0  0  0
  141.9800   81.1610  223.8510 C   0  0  0  0  0  0  0  0  0  0  0  0
  142.5670   82.3310  224.2120 F   0  0  0  0  0  0  0  0  0  0  0  0
  142.7700   80.0350  223.5940 C   0  0  0  0  0  0  0  0  0  0  0  0
  142.1720   78.8260  223.2220 C   0  0  0  0  0  0  0  0  0  0  0  0
  140.7790   78.7430  223.0980 C   0  0  0  0  0  0  0  0  0  0  0  0
  140.1950   77.5720  222.7310 N   0  0  0  0  0  0  0  0  0  0  0  0
  140.0350   75.0090  222.6560 H   0  0  0  0  0  0  0  0  0  0  0  0
  137.6257   73.4028  222.4805 H   0  0  0  0  0  0  0  0  0  0  0  0
  138.3614   73.6238  220.8500 H   0  0  0  0  0  0  0  0  0  0  0  0
  140.1820   70.8335  220.2388 H   0  0  0  0  0  0  0  0  0  0  0  0
  141.0230   70.0514  221.5850 H   0  0  0  0  0  0  0  0  0  0  0  0
  139.7672   68.1602  220.8826 H   0  0  0  0  0  0  0  0  0  0  0  0
  138.5810   70.1110  219.4620 H   0  0  0  0  0  0  0  0  0  0  0  0
  137.2430   68.6634  221.9238 H   0  0  0  0  0  0  0  0  0  0  0  0
  138.6252   68.3380  222.9798 H   0  0  0  0  0  0  0  0  0  0  0  0
  137.2058   70.9359  222.4577 H   0  0  0  0  0  0  0  0  0  0  0  0
  141.3027   70.2744  224.7606 H   0  0  0  0  0  0  0  0  0  0  0  0
  138.9146   69.0313  226.1361 H   0  0  0  0  0  0  0  0  0  0  0  0
  140.1082   68.3192  224.9701 H   0  0  0  0  0  0  0  0  0  0  0  0
  140.4011   67.3605  227.2152 H   0  0  0  0  0  0  0  0  0  0  0  0
  141.8347   68.3524  226.7223 H   0  0  0  0  0  0  0  0  0  0  0  0
  139.7860   68.8457  228.8720 H   0  0  0  0  0  0  0  0  0  0  0  0
  141.5867   69.1508  228.8330 H   0  0  0  0  0  0  0  0  0  0  0  0
  139.3128   70.9106  227.9478 H   0  0  0  0  0  0  0  0  0  0  0  0
  140.8543   71.3068  228.8177 H   0  0  0  0  0  0  0  0  0  0  0  0
  140.8519   72.2395  226.5371 H   0  0  0  0  0  0  0  0  0  0  0  0
  142.1192   70.9574  226.7478 H   0  0  0  0  0  0  0  0  0  0  0  0
  136.9264   78.4628  222.7503 H   0  0  0  0  0  0  0  0  0  0  0  0
  137.9466   80.6404  223.4367 H   0  0  0  0  0  0  0  0  0  0  0  0
  139.9684   81.9696  223.9447 H   0  0  0  0  0  0  0  0  0  0  0  0
  143.8643   80.1005  223.6847 H   0  0  0  0  0  0  0  0  0  0  0  0
  142.7954   77.9409  223.0270 H   0  0  0  0  0  0  0  0  0  0  0  0
  1  2  2  0
  2  3  1  0
  3  4  1  0
  4  5  1  0
  5  6  2  0
  5  7  1  0
  7  8  1  0
  8  9  1  0
  9 10  1  0
  9 11  1  0
 11 12  1  0
 12 13  1  0
 13 14  2  0
 13 15  1  0
 15 16  1  0
 16 17  1  0
 17 18  1  0
 18 19  1  0
 19 20  1  0
 20 21  1  0
  2 22  1  0
 22 23  2  0
 23 24  1  0
 24 25  2  0
 25 26  1  0
 26 27  2  0
 27 28  1  0
 27 29  1  0
 29 30  2  0
 30 31  1  0
 31 32  2  0
 12  7  1  0
 21 16  1  0
 32 22  1  0
 31 25  1  0
  3 33  1  0
  4 34  1  0
  4 35  1  0
  8 36  1  0
  8 37  1  0
  9 38  1  6
 10 39  1  0
 11 40  1  0
 11 41  1  0
 12 42  1  1
 16 43  1  0
 17 44  1  0
 17 45  1  0
 18 46  1  0
 18 47  1  0
 19 48  1  0
 19 49  1  0
 20 50  1  0
 20 51  1  0
 21 52  1  0
 21 53  1  0
 23 54  1  0
 24 55  1  0
 26 56  1  0
 29 57  1  0
 30 58  1  0
M  CHG  1  15  -1
M  END
>  <UniqueID>  (14) 
137

>  <SMILES>  (14) 
O=C(NCC(=O)N1C[C@H](O)C[C@H]1C(=O)[N-]C1CCCCC1)c1ccc2cc(F)ccc2n1

>  <Energy>  (14) 
51.087325513709516

>  <Genealogy>  (14) 
O=C(NCC(=O)N1C[C@H](O)C[C@H]1C(=O)[N-]C1CCCCC1)c1ccc2cc(F)ccc2n1 (protonated)
O=C(NCC(=O)N1C[C@H](O)C[C@H]1C(=O)[N-]C1CCCCC1)c1ccc2cc(F)ccc2n1 (3D coordinates assigned)
O=C(NCC(=O)N1C[C@H](O)C[C@H]1C(=O)[N-]C1CCCCC1)c1ccc2cc(F)ccc2n1 (nonaromatic ring conformer: 51.087325513709516 kcal/mol)

>  <smiles>  (14) 
O=C(NCC(=O)N1C[C@H](O)C[C@H]1C(=O)NC1CCCCC1)c1ccc2cc(F)ccc2n1

>  <score_type>  (14) 
oracle

>  <origin>  (14) 
autodockgpu

>  <m_score__min__energy>  (14) 
-8.7599999999999998

>  <m_primary>  (14) 
energy

>  <meeko>  (14) 
{"free_energy": -7.37, "intermolecular_energy": -9.75, "internal_energy": -2.38, "cluster_size": 3, "cluster_id": 3, "rank_in_cluster": 2}

>  <energy>  (14) 
-7.37

>  <cluster_rmsd>  (14) 
1.53

>  <rmsd>  (14) 
272.52

>  <cluster>  (14) 
3

$$$$
YMXDKILJCZTOEU-UDRLWISANA-M
     RDKit          3D

 58 61  0  0  0  0  0  0  0  0999 V2000
  139.9830   73.6560  222.4310 O   0  0  0  0  0  0  0  0  0  0  0  0
  140.3480   72.4550  222.2890 C   0  0  0  0  0  0  0  0  0  0  0  0
  140.8810   72.0080  221.0300 N   0  0  0  0  0  0  0  0  0  0  0  0
  141.0550   72.8880  219.8780 C   0  0  0  0  0  0  0  0  0  0  0  0
  142.4200   73.5170  219.9050 C   0  0  0  0  0  0  0  0  0  0  0  0
  142.5000   74.7650  220.0770 O   0  0  0  0  0  0  0  0  0  0  0  0
  143.6250   72.7460  219.7360 N   0  0  0  0  0  0  0  0  0  0  0  0
  144.7400   72.8600  220.6680 C   0  0  0  0  0  0  0  0  0  0  0  0
  145.9560   72.3060  219.9280 C   0  0  2  0  0  0  0  0  0  0  0  0
  146.6870   73.3540  219.3440 O   0  0  0  0  0  0  0  0  0  0  0  0
  145.3810   71.4170  218.8280 C   0  0  0  0  0  0  0  0  0  0  0  0
  143.9650   71.9380  218.5710 C   0  0  1  0  0  0  0  0  0  0  0  0
  142.9980   70.8000  218.4080 C   0  0  0  0  0  0  0  0  0  0  0  0
  142.5330   70.5350  217.2660 O   0  0  0  0  0  0  0  0  0  0  0  0
  142.6250   70.0120  219.5450 N   0  0  0  0  0  0  0  0  0  0  0  0
  143.0210   68.6160  219.7280 C   0  0  0  0  0  0  0  0  0  0  0  0
  144.5230   68.5680  220.0850 C   0  0  0  0  0  0  0  0  0  0  0  0
  145.1630   67.2390  219.6740 C   0  0  0  0  0  0  0  0  0  0  0  0
  145.0780   67.0160  218.1490 C   0  0  0  0  0  0  0  0  0  0  0  0
  143.8530   67.6920  217.4970 C   0  0  0  0  0  0  0  0  0  0  0  0
  142.6710   67.7850  218.4660 C   0  0  0  0  0  0  0  0  0  0  0  0
  140.2220   71.5110  223.4190 C   0  0  0  0  0  0  0  0  0  0  0  0
  139.6430   70.2420  223.2410 C   0  0  0  0  0  0  0  0  0  0  0  0
  139.5410   69.3680  224.3270 C   0  0  0  0  0  0  0  0  0  0  0  0
  140.0130   69.7630  225.5850 C   0  0  0  0  0  0  0  0  0  0  0  0
  139.9250   68.9140  226.6980 C   0  0  0  0  0  0  0  0  0  0  0  0
  140.4030   69.3370  227.9420 C   0  0  0  0  0  0  0  0  0  0  0  0
  140.3110   68.5160  229.0200 F   0  0  0  0  0  0  0  0  0  0  0  0
  140.9770   70.6070  228.0810 C   0  0  0  0  0  0  0  0  0  0  0  0
  141.0750   71.4580  226.9750 C   0  0  0  0  0  0  0  0  0  0  0  0
  140.5910   71.0440  225.7270 C   0  0  0  0  0  0  0  0  0  0  0  0
  140.6800   71.8710  224.6520 N   0  0  0  0  0  0  0  0  0  0  0  0
  141.2290   71.0270  220.9480 H   0  0  0  0  0  0  0  0  0  0  0  0
  140.9433   72.3024  218.9536 H   0  0  0  0  0  0  0  0  0  0  0  0
  140.2940   73.6814  219.9150 H   0  0  0  0  0  0  0  0  0  0  0  0
  144.9046   73.9125  220.9421 H   0  0  0  0  0  0  0  0  0  0  0  0
  144.5472   72.3098  221.6008 H   0  0  0  0  0  0  0  0  0  0  0  0
  146.6318   71.7607  220.6032 H   0  0  0  0  0  0  0  0  0  0  0  0
  146.0890   74.1470  219.3400 H   0  0  0  0  0  0  0  0  0  0  0  0
  145.9896   71.4946  217.9150 H   0  0  0  0  0  0  0  0  0  0  0  0
  145.3759   70.3576  219.1239 H   0  0  0  0  0  0  0  0  0  0  0  0
  143.9128   72.5259  217.6428 H   0  0  0  0  0  0  0  0  0  0  0  0
  142.4621   68.1608  220.5589 H   0  0  0  0  0  0  0  0  0  0  0  0
  145.0392   69.3879  219.5641 H   0  0  0  0  0  0  0  0  0  0  0  0
  144.6186   68.6706  221.1760 H   0  0  0  0  0  0  0  0  0  0  0  0
  146.2208   67.2435  219.9759 H   0  0  0  0  0  0  0  0  0  0  0  0
  144.6162   66.4248  220.1721 H   0  0  0  0  0  0  0  0  0  0  0  0
  145.9886   67.4237  217.6859 H   0  0  0  0  0  0  0  0  0  0  0  0
  144.9765   65.9331  217.9847 H   0  0  0  0  0  0  0  0  0  0  0  0
  144.1337   68.7071  217.1795 H   0  0  0  0  0  0  0  0  0  0  0  0
  143.5425   67.0801  216.6372 H   0  0  0  0  0  0  0  0  0  0  0  0
  141.8247   68.2618  217.9498 H   0  0  0  0  0  0  0  0  0  0  0  0
  142.4149   66.7654  218.7897 H   0  0  0  0  0  0  0  0  0  0  0  0
  139.2718   69.9383  222.2510 H   0  0  0  0  0  0  0  0  0  0  0  0
  139.0914   68.3729  224.1940 H   0  0  0  0  0  0  0  0  0  0  0  0
  139.4793   67.9139  226.5920 H   0  0  0  0  0  0  0  0  0  0  0  0
  141.3515   70.9359  229.0616 H   0  0  0  0  0  0  0  0  0  0  0  0
  141.5321   72.4524  227.0852 H   0  0  0  0  0  0  0  0  0  0  0  0
  1  2  2  0
  2  3  1  0
  3  4  1  0
  4  5  1  0
  5  6  2  0
  5  7  1  0
  7  8  1  0
  8  9  1  0
  9 10  1  0
  9 11  1  0
 11 12  1  0
 12 13  1  0
 13 14  2  0
 13 15  1  0
 15 16  1  0
 16 17  1  0
 17 18  1  0
 18 19  1  0
 19 20  1  0
 20 21  1  0
  2 22  1  0
 22 23  2  0
 23 24  1  0
 24 25  2  0
 25 26  1  0
 26 27  2  0
 27 28  1  0
 27 29  1  0
 29 30  2  0
 30 31  1  0
 31 32  2  0
 12  7  1  0
 21 16  1  0
 32 22  1  0
 31 25  1  0
  3 33  1  0
  4 34  1  0
  4 35  1  0
  8 36  1  0
  8 37  1  0
  9 38  1  1
 10 39  1  0
 11 40  1  0
 11 41  1  0
 12 42  1  6
 16 43  1  0
 17 44  1  0
 17 45  1  0
 18 46  1  0
 18 47  1  0
 19 48  1  0
 19 49  1  0
 20 50  1  0
 20 51  1  0
 21 52  1  0
 21 53  1  0
 23 54  1  0
 24 55  1  0
 26 56  1  0
 29 57  1  0
 30 58  1  0
M  CHG  1  15  -1
M  END
>  <UniqueID>  (15) 
137

>  <SMILES>  (15) 
O=C(NCC(=O)N1C[C@H](O)C[C@H]1C(=O)[N-]C1CCCCC1)c1ccc2cc(F)ccc2n1

>  <Energy>  (15) 
51.087325513709516

>  <Genealogy>  (15) 
O=C(NCC(=O)N1C[C@H](O)C[C@H]1C(=O)[N-]C1CCCCC1)c1ccc2cc(F)ccc2n1 (protonated)
O=C(NCC(=O)N1C[C@H](O)C[C@H]1C(=O)[N-]C1CCCCC1)c1ccc2cc(F)ccc2n1 (3D coordinates assigned)
O=C(NCC(=O)N1C[C@H](O)C[C@H]1C(=O)[N-]C1CCCCC1)c1ccc2cc(F)ccc2n1 (nonaromatic ring conformer: 51.087325513709516 kcal/mol)

>  <smiles>  (15) 
O=C(NCC(=O)N1C[C@H](O)C[C@H]1C(=O)NC1CCCCC1)c1ccc2cc(F)ccc2n1

>  <score_type>  (15) 
oracle

>  <origin>  (15) 
autodockgpu

>  <m_score__min__energy>  (15) 
-8.7599999999999998

>  <m_primary>  (15) 
energy

>  <meeko>  (15) 
{"free_energy": -7.46, "intermolecular_energy": -9.85, "internal_energy": -2.74, "cluster_size": 3, "cluster_id": 2, "rank_in_cluster": 3}

>  <energy>  (15) 
-6.74

>  <cluster_rmsd>  (15) 
1.94

>  <rmsd>  (15) 
271.9

>  <cluster>  (15) 
3

$$$$
YMXDKILJCZTOEU-UDRLWISANA-M
     RDKit          3D

 58 61  0  0  0  0  0  0  0  0999 V2000
  138.7460   73.3350  220.9880 O   0  0  0  0  0  0  0  0  0  0  0  0
  139.7410   73.0670  221.7170 C   0  0  0  0  0  0  0  0  0  0  0  0
  141.0200   73.6650  221.4410 N   0  0  0  0  0  0  0  0  0  0  0  0
  141.2390   74.6130  220.3520 C   0  0  0  0  0  0  0  0  0  0  0  0
  141.0120   76.0200  220.8320 C   0  0  0  0  0  0  0  0  0  0  0  0
  141.9520   76.8530  220.7080 O   0  0  0  0  0  0  0  0  0  0  0  0
  139.7680   76.4370  221.4270 N   0  0  0  0  0  0  0  0  0  0  0  0
  139.3420   75.9410  222.7300 C   0  0  0  0  0  0  0  0  0  0  0  0
  137.8370   76.1940  222.7970 C   0  0  2  0  0  0  0  0  0  0  0  0
  137.1330   75.0370  222.4250 O   0  0  0  0  0  0  0  0  0  0  0  0
  137.5740   77.2970  221.7730 C   0  0  0  0  0  0  0  0  0  0  0  0
  138.7240   77.2130  220.7670 C   0  0  1  0  0  0  0  0  0  0  0  0
  139.2220   78.5840  220.4100 C   0  0  0  0  0  0  0  0  0  0  0  0
  139.9780   78.7320  219.4100 O   0  0  0  0  0  0  0  0  0  0  0  0
  138.8220   79.7150  221.1920 N   0  0  0  0  0  0  0  0  0  0  0  0
  139.7050   80.4010  222.1350 C   0  0  0  0  0  0  0  0  0  0  0  0
  141.0160   80.7740  221.4080 C   0  0  0  0  0  0  0  0  0  0  0  0
  142.1940   80.8870  222.3800 C   0  0  0  0  0  0  0  0  0  0  0  0
  142.4680   79.5460  223.0950 C   0  0  0  0  0  0  0  0  0  0  0  0
  141.2070   78.6740  223.2690 C   0  0  0  0  0  0  0  0  0  0  0  0
  139.9390   79.5240  223.3930 C   0  0  0  0  0  0  0  0  0  0  0  0
  139.5900   72.1320  222.8520 C   0  0  0  0  0  0  0  0  0  0  0  0
  138.6350   71.1000  222.8180 C   0  0  0  0  0  0  0  0  0  0  0  0
  138.5180   70.2280  223.9040 C   0  0  0  0  0  0  0  0  0  0  0  0
  139.3480   70.3910  225.0210 C   0  0  0  0  0  0  0  0  0  0  0  0
  139.2570   69.5370  226.1290 C   0  0  0  0  0  0  0  0  0  0  0  0
  140.0990   69.7260  227.2300 C   0  0  0  0  0  0  0  0  0  0  0  0
  140.0050   68.9020  228.3060 F   0  0  0  0  0  0  0  0  0  0  0  0
  141.0400   70.7620  227.2270 C   0  0  0  0  0  0  0  0  0  0  0  0
  141.1430   71.6150  226.1220 C   0  0  0  0  0  0  0  0  0  0  0  0
  140.2980   71.4370  225.0200 C   0  0  0  0  0  0  0  0  0  0  0  0
  140.3910   72.2660  223.9470 N   0  0  0  0  0  0  0  0  0  0  0  0
  141.8170   73.4750  222.0860 H   0  0  0  0  0  0  0  0  0  0  0  0
  142.2727   74.5158  219.9885 H   0  0  0  0  0  0  0  0  0  0  0  0
  140.5316   74.3937  219.5387 H   0  0  0  0  0  0  0  0  0  0  0  0
  139.5544   74.8654  222.8191 H   0  0  0  0  0  0  0  0  0  0  0  0
  139.8751   76.4443  223.5500 H   0  0  0  0  0  0  0  0  0  0  0  0
  137.5139   76.4711  223.8113 H   0  0  0  0  0  0  0  0  0  0  0  0
  137.7020   74.2650  222.6850 H   0  0  0  0  0  0  0  0  0  0  0  0
  136.6107   77.1301  221.2688 H   0  0  0  0  0  0  0  0  0  0  0  0
  137.5228   78.2876  222.2484 H   0  0  0  0  0  0  0  0  0  0  0  0
  138.4046   76.7424  219.8254 H   0  0  0  0  0  0  0  0  0  0  0  0
  139.2403   81.3318  222.4923 H   0  0  0  0  0  0  0  0  0  0  0  0
  141.2429   79.9976  220.6626 H   0  0  0  0  0  0  0  0  0  0  0  0
  140.8738   81.7537  220.9284 H   0  0  0  0  0  0  0  0  0  0  0  0
  143.0928   81.1834  221.8195 H   0  0  0  0  0  0  0  0  0  0  0  0
  141.9420   81.6393  223.1419 H   0  0  0  0  0  0  0  0  0  0  0  0
  143.2040   78.9804  222.5047 H   0  0  0  0  0  0  0  0  0  0  0  0
  142.8380   79.7856  224.1028 H   0  0  0  0  0  0  0  0  0  0  0  0
  141.1082   78.0129  222.3954 H   0  0  0  0  0  0  0  0  0  0  0  0
  141.3197   78.0918  224.1954 H   0  0  0  0  0  0  0  0  0  0  0  0
  139.0750   78.8564  223.5268 H   0  0  0  0  0  0  0  0  0  0  0  0
  140.0606   80.1934  224.2574 H   0  0  0  0  0  0  0  0  0  0  0  0
  137.9829   70.9797  221.9403 H   0  0  0  0  0  0  0  0  0  0  0  0
  137.7763   69.4160  223.8818 H   0  0  0  0  0  0  0  0  0  0  0  0
  138.5230   68.7177  226.1326 H   0  0  0  0  0  0  0  0  0  0  0  0
  141.7001   70.9062  228.0950 H   0  0  0  0  0  0  0  0  0  0  0  0
  141.8875   72.4248  226.1194 H   0  0  0  0  0  0  0  0  0  0  0  0
  1  2  2  0
  2  3  1  0
  3  4  1  0
  4  5  1  0
  5  6  2  0
  5  7  1  0
  7  8  1  0
  8  9  1  0
  9 10  1  0
  9 11  1  0
 11 12  1  0
 12 13  1  0
 13 14  2  0
 13 15  1  0
 15 16  1  0
 16 17  1  0
 17 18  1  0
 18 19  1  0
 19 20  1  0
 20 21  1  0
  2 22  1  0
 22 23  2  0
 23 24  1  0
 24 25  2  0
 25 26  1  0
 26 27  2  0
 27 28  1  0
 27 29  1  0
 29 30  2  0
 30 31  1  0
 31 32  2  0
 12  7  1  0
 21 16  1  0
 32 22  1  0
 31 25  1  0
  3 33  1  0
  4 34  1  0
  4 35  1  0
  8 36  1  0
  8 37  1  0
  9 38  1  1
 10 39  1  0
 11 40  1  0
 11 41  1  0
 12 42  1  6
 16 43  1  0
 17 44  1  0
 17 45  1  0
 18 46  1  0
 18 47  1  0
 19 48  1  0
 19 49  1  0
 20 50  1  0
 20 51  1  0
 21 52  1  0
 21 53  1  0
 23 54  1  0
 24 55  1  0
 26 56  1  0
 29 57  1  0
 30 58  1  0
M  CHG  1  15  -1
M  END
>  <UniqueID>  (16) 
137

>  <SMILES>  (16) 
O=C(NCC(=O)N1C[C@H](O)C[C@H]1C(=O)[N-]C1CCCCC1)c1ccc2cc(F)ccc2n1

>  <Energy>  (16) 
51.087325513709516

>  <Genealogy>  (16) 
O=C(NCC(=O)N1C[C@H](O)C[C@H]1C(=O)[N-]C1CCCCC1)c1ccc2cc(F)ccc2n1 (protonated)
O=C(NCC(=O)N1C[C@H](O)C[C@H]1C(=O)[N-]C1CCCCC1)c1ccc2cc(F)ccc2n1 (3D coordinates assigned)
O=C(NCC(=O)N1C[C@H](O)C[C@H]1C(=O)[N-]C1CCCCC1)c1ccc2cc(F)ccc2n1 (nonaromatic ring conformer: 51.087325513709516 kcal/mol)

>  <smiles>  (16) 
O=C(NCC(=O)N1C[C@H](O)C[C@H]1C(=O)NC1CCCCC1)c1ccc2cc(F)ccc2n1

>  <score_type>  (16) 
oracle

>  <origin>  (16) 
autodockgpu

>  <m_score__min__energy>  (16) 
-8.7599999999999998

>  <m_primary>  (16) 
energy

>  <meeko>  (16) 
{"free_energy": -6.28, "intermolecular_energy": -8.66, "internal_energy": -3.12, "cluster_size": 9, "cluster_id": 1, "rank_in_cluster": 9}

>  <energy>  (16) 
-7.03

>  <cluster_rmsd>  (16) 
0.0

>  <rmsd>  (16) 
271.82

>  <cluster>  (16) 
4

$$$$
YMXDKILJCZTOEU-UDRLWISANA-M
     RDKit          3D

 58 61  0  0  0  0  0  0  0  0999 V2000
  136.6560   75.7330  221.3320 O   0  0  0  0  0  0  0  0  0  0  0  0
  137.7170   75.3980  221.9280 C   0  0  0  0  0  0  0  0  0  0  0  0
  137.9220   74.0290  222.3210 N   0  0  0  0  0  0  0  0  0  0  0  0
  136.9610   72.9650  222.0400 C   0  0  0  0  0  0  0  0  0  0  0  0
  137.5290   72.0010  221.0360 C   0  0  0  0  0  0  0  0  0  0  0  0
  136.7440   71.1860  220.4790 O   0  0  0  0  0  0  0  0  0  0  0  0
  138.9300   71.9780  220.7010 N   0  0  0  0  0  0  0  0  0  0  0  0
  139.4360   72.6150  219.4920 C   0  0  0  0  0  0  0  0  0  0  0  0
  140.8040   71.9850  219.2340 C   0  0  2  0  0  0  0  0  0  0  0  0
  140.6870   70.9340  218.3100 O   0  0  0  0  0  0  0  0  0  0  0  0
  141.2440   71.4240  220.5840 C   0  0  0  0  0  0  0  0  0  0  0  0
  139.9560   71.1920  221.3780 C   0  0  1  0  0  0  0  0  0  0  0  0
  140.1190   71.6370  222.8020 C   0  0  0  0  0  0  0  0  0  0  0  0
  140.2200   72.8670  223.0640 O   0  0  0  0  0  0  0  0  0  0  0  0
  140.1400   70.6660  223.8560 N   0  0  0  0  0  0  0  0  0  0  0  0
  139.6910   70.9410  225.2200 C   0  0  0  0  0  0  0  0  0  0  0  0
  140.8450   71.6140  225.9970 C   0  0  0  0  0  0  0  0  0  0  0  0
  140.7400   71.3610  227.5030 C   0  0  0  0  0  0  0  0  0  0  0  0
  140.8240   69.8550  227.8330 C   0  0  0  0  0  0  0  0  0  0  0  0
  140.2860   68.9490  226.7050 C   0  0  0  0  0  0  0  0  0  0  0  0
  139.1850   69.6400  225.8960 C   0  0  0  0  0  0  0  0  0  0  0  0
  138.7450   76.4160  222.2270 C   0  0  0  0  0  0  0  0  0  0  0  0
  140.1110   76.1460  222.0320 C   0  0  0  0  0  0  0  0  0  0  0  0
  141.0610   77.1300  222.3190 C   0  0  0  0  0  0  0  0  0  0  0  0
  140.6460   78.3770  222.8030 C   0  0  0  0  0  0  0  0  0  0  0  0
  141.5710   79.3880  223.1040 C   0  0  0  0  0  0  0  0  0  0  0  0
  141.1270   80.6230  223.5870 C   0  0  0  0  0  0  0  0  0  0  0  0
  142.0240   81.5980  223.8840 F   0  0  0  0  0  0  0  0  0  0  0  0
  139.7580   80.8580  223.7650 C   0  0  0  0  0  0  0  0  0  0  0  0
  138.8280   79.8580  223.4610 C   0  0  0  0  0  0  0  0  0  0  0  0
  139.2660   78.6160  222.9840 C   0  0  0  0  0  0  0  0  0  0  0  0
  138.3660   77.6400  222.6930 N   0  0  0  0  0  0  0  0  0  0  0  0
  138.8280   73.7590  222.7630 H   0  0  0  0  0  0  0  0  0  0  0  0
  136.7332   72.4264  222.9717 H   0  0  0  0  0  0  0  0  0  0  0  0
  136.0434   73.4109  221.6286 H   0  0  0  0  0  0  0  0  0  0  0  0
  138.7598   72.4234  218.6458 H   0  0  0  0  0  0  0  0  0  0  0  0
  139.5071   73.7066  219.6077 H   0  0  0  0  0  0  0  0  0  0  0  0
  141.5191   72.7138  218.8247 H   0  0  0  0  0  0  0  0  0  0  0  0
  139.9620   70.3420  218.6450 H   0  0  0  0  0  0  0  0  0  0  0  0
  141.7857   70.4765  220.4471 H   0  0  0  0  0  0  0  0  0  0  0  0
  141.9239   72.1128  221.1069 H   0  0  0  0  0  0  0  0  0  0  0  0
  139.6892   70.1255  221.4146 H   0  0  0  0  0  0  0  0  0  0  0  0
  138.8374   71.6348  225.2133 H   0  0  0  0  0  0  0  0  0  0  0  0
  141.8017   71.2102  225.6340 H   0  0  0  0  0  0  0  0  0  0  0  0
  140.7840   72.6992  225.8276 H   0  0  0  0  0  0  0  0  0  0  0  0
  141.5633   71.8844  228.0113 H   0  0  0  0  0  0  0  0  0  0  0  0
  139.7647   71.7351  227.8478 H   0  0  0  0  0  0  0  0  0  0  0  0
  141.8775   69.5963  228.0154 H   0  0  0  0  0  0  0  0  0  0  0  0
  140.1938   69.6809  228.7176 H   0  0  0  0  0  0  0  0  0  0  0  0
  141.1151   68.6909  226.0298 H   0  0  0  0  0  0  0  0  0  0  0  0
  139.8562   68.0477  227.1665 H   0  0  0  0  0  0  0  0  0  0  0  0
  138.8303   68.9495  225.1166 H   0  0  0  0  0  0  0  0  0  0  0  0
  138.3733   69.9097  226.5876 H   0  0  0  0  0  0  0  0  0  0  0  0
  140.4309   75.1635  221.6548 H   0  0  0  0  0  0  0  0  0  0  0  0
  142.1309   76.9258  222.1653 H   0  0  0  0  0  0  0  0  0  0  0  0
  142.6467   79.2090  222.9599 H   0  0  0  0  0  0  0  0  0  0  0  0
  139.4131   81.8311  224.1447 H   0  0  0  0  0  0  0  0  0  0  0  0
  137.7529   80.0471  223.5966 H   0  0  0  0  0  0  0  0  0  0  0  0
  1  2  2  0
  2  3  1  0
  3  4  1  0
  4  5  1  0
  5  6  2  0
  5  7  1  0
  7  8  1  0
  8  9  1  0
  9 10  1  0
  9 11  1  0
 11 12  1  0
 12 13  1  0
 13 14  2  0
 13 15  1  0
 15 16  1  0
 16 17  1  0
 17 18  1  0
 18 19  1  0
 19 20  1  0
 20 21  1  0
  2 22  1  0
 22 23  2  0
 23 24  1  0
 24 25  2  0
 25 26  1  0
 26 27  2  0
 27 28  1  0
 27 29  1  0
 29 30  2  0
 30 31  1  0
 31 32  2  0
 12  7  1  0
 21 16  1  0
 32 22  1  0
 31 25  1  0
  3 33  1  0
  4 34  1  0
  4 35  1  0
  8 36  1  0
  8 37  1  0
  9 38  1  6
 10 39  1  0
 11 40  1  0
 11 41  1  0
 12 42  1  1
 16 43  1  0
 17 44  1  0
 17 45  1  0
 18 46  1  0
 18 47  1  0
 19 48  1  0
 19 49  1  0
 20 50  1  0
 20 51  1  0
 21 52  1  0
 21 53  1  0
 23 54  1  0
 24 55  1  0
 26 56  1  0
 29 57  1  0
 30 58  1  0
M  CHG  1  15  -1
M  END
>  <UniqueID>  (17) 
137

>  <SMILES>  (17) 
O=C(NCC(=O)N1C[C@H](O)C[C@H]1C(=O)[N-]C1CCCCC1)c1ccc2cc(F)ccc2n1

>  <Energy>  (17) 
51.087325513709516

>  <Genealogy>  (17) 
O=C(NCC(=O)N1C[C@H](O)C[C@H]1C(=O)[N-]C1CCCCC1)c1ccc2cc(F)ccc2n1 (protonated)
O=C(NCC(=O)N1C[C@H](O)C[C@H]1C(=O)[N-]C1CCCCC1)c1ccc2cc(F)ccc2n1 (3D coordinates assigned)
O=C(NCC(=O)N1C[C@H](O)C[C@H]1C(=O)[N-]C1CCCCC1)c1ccc2cc(F)ccc2n1 (nonaromatic ring conformer: 51.087325513709516 kcal/mol)

>  <smiles>  (17) 
O=C(NCC(=O)N1C[C@H](O)C[C@H]1C(=O)NC1CCCCC1)c1ccc2cc(F)ccc2n1

>  <score_type>  (17) 
oracle

>  <origin>  (17) 
autodockgpu

>  <m_score__min__energy>  (17) 
-8.7599999999999998

>  <m_primary>  (17) 
energy

>  <meeko>  (17) 
{"free_energy": -6.74, "intermolecular_energy": -9.12, "internal_energy": -2.64, "cluster_size": 3, "cluster_id": 3, "rank_in_cluster": 3}

>  <energy>  (17) 
-6.8

>  <cluster_rmsd>  (17) 
0.83

>  <rmsd>  (17) 
271.9

>  <cluster>  (17) 
4

$$$$
YMXDKILJCZTOEU-UDRLWISANA-M
     RDKit          3D

 58 61  0  0  0  0  0  0  0  0999 V2000
  140.6940   71.9000  221.2180 O   0  0  0  0  0  0  0  0  0  0  0  0
  140.0270   72.2280  222.2390 C   0  0  0  0  0  0  0  0  0  0  0  0
  139.3100   73.4750  222.2620 N   0  0  0  0  0  0  0  0  0  0  0  0
  139.2830   74.4010  221.1340 C   0  0  0  0  0  0  0  0  0  0  0  0
  140.0170   75.6660  221.4810 C   0  0  0  0  0  0  0  0  0  0  0  0
  139.8170   76.1830  222.6140 O   0  0  0  0  0  0  0  0  0  0  0  0
  140.9290   76.3010  220.5630 N   0  0  0  0  0  0  0  0  0  0  0  0
  141.7700   75.5230  219.6630 C   0  0  0  0  0  0  0  0  0  0  0  0
  142.8950   76.4640  219.2310 C   0  0  2  0  0  0  0  0  0  0  0  0
  144.0300   76.2620  220.0330 O   0  0  0  0  0  0  0  0  0  0  0  0
  142.3500   77.8700  219.4700 C   0  0  0  0  0  0  0  0  0  0  0  0
  141.2680   77.7200  220.5420 C   0  0  1  0  0  0  0  0  0  0  0  0
  140.0640   78.5530  220.2060 C   0  0  0  0  0  0  0  0  0  0  0  0
  139.7420   78.7250  218.9980 O   0  0  0  0  0  0  0  0  0  0  0  0
  139.2800   79.1300  221.2570 N   0  0  0  0  0  0  0  0  0  0  0  0
  139.8130   80.0640  222.2470 C   0  0  0  0  0  0  0  0  0  0  0  0
  141.0150   80.8120  221.6280 C   0  0  0  0  0  0  0  0  0  0  0  0
  142.0000   81.2920  222.6980 C   0  0  0  0  0  0  0  0  0  0  0  0
  142.5960   80.1080  223.4900 C   0  0  0  0  0  0  0  0  0  0  0  0
  141.6480   78.8930  223.5850 C   0  0  0  0  0  0  0  0  0  0  0  0
  140.1770   79.3150  223.5560 C   0  0  0  0  0  0  0  0  0  0  0  0
  139.9890   71.3290  223.4120 C   0  0  0  0  0  0  0  0  0  0  0  0
  139.4450   70.0360  223.3170 C   0  0  0  0  0  0  0  0  0  0  0  0
  139.4270   69.2070  224.4420 C   0  0  0  0  0  0  0  0  0  0  0  0
  139.9470   69.6710  225.6570 C   0  0  0  0  0  0  0  0  0  0  0  0
  139.9440   68.8680  226.8070 C   0  0  0  0  0  0  0  0  0  0  0  0
  140.4690   69.3600  228.0070 C   0  0  0  0  0  0  0  0  0  0  0  0
  140.4590   68.5830  229.1210 F   0  0  0  0  0  0  0  0  0  0  0  0
  141.0060   70.6510  228.0630 C   0  0  0  0  0  0  0  0  0  0  0  0
  141.0200   71.4570  226.9190 C   0  0  0  0  0  0  0  0  0  0  0  0
  140.4890   70.9750  225.7160 C   0  0  0  0  0  0  0  0  0  0  0  0
  140.4960   71.7560  224.6040 N   0  0  0  0  0  0  0  0  0  0  0  0
  138.7190   73.7040  223.0920 H   0  0  0  0  0  0  0  0  0  0  0  0
  139.7644   73.9287  220.2650 H   0  0  0  0  0  0  0  0  0  0  0  0
  138.2373   74.6470  220.8975 H   0  0  0  0  0  0  0  0  0  0  0  0
  142.1821   74.6467  220.1848 H   0  0  0  0  0  0  0  0  0  0  0  0
  141.2014   75.1468  218.7997 H   0  0  0  0  0  0  0  0  0  0  0  0
  143.1898   76.2966  218.1845 H   0  0  0  0  0  0  0  0  0  0  0  0
  144.2440   77.1400  220.4450 H   0  0  0  0  0  0  0  0  0  0  0  0
  143.1505   78.5362  219.8240 H   0  0  0  0  0  0  0  0  0  0  0  0
  141.9470   78.3109  218.5463 H   0  0  0  0  0  0  0  0  0  0  0  0
  141.6212   78.0657  221.5248 H   0  0  0  0  0  0  0  0  0  0  0  0
  139.0538   80.8112  222.5214 H   0  0  0  0  0  0  0  0  0  0  0  0
  141.5402   80.1335  220.9396 H   0  0  0  0  0  0  0  0  0  0  0  0
  140.6307   81.6953  221.0969 H   0  0  0  0  0  0  0  0  0  0  0  0
  142.8173   81.8432  222.2100 H   0  0  0  0  0  0  0  0  0  0  0  0
  141.4567   81.9396  223.4018 H   0  0  0  0  0  0  0  0  0  0  0  0
  143.5237   79.7881  222.9930 H   0  0  0  0  0  0  0  0  0  0  0  0
  142.7739   80.4614  224.5164 H   0  0  0  0  0  0  0  0  0  0  0  0
  141.8427   78.2224  222.7351 H   0  0  0  0  0  0  0  0  0  0  0  0
  141.8387   78.3850  224.5418 H   0  0  0  0  0  0  0  0  0  0  0  0
  139.5480   78.4163  223.6376 H   0  0  0  0  0  0  0  0  0  0  0  0
  140.0033   80.0000  224.3990 H   0  0  0  0  0  0  0  0  0  0  0  0
  139.0352   69.6783  222.3609 H   0  0  0  0  0  0  0  0  0  0  0  0
  139.0057   68.1932  224.3735 H   0  0  0  0  0  0  0  0  0  0  0  0
  139.5285   67.8504  226.7654 H   0  0  0  0  0  0  0  0  0  0  0  0
  141.4181   71.0333  229.0085 H   0  0  0  0  0  0  0  0  0  0  0  0
  141.4481   72.4692  226.9647 H   0  0  0  0  0  0  0  0  0  0  0  0
  1  2  2  0
  2  3  1  0
  3  4  1  0
  4  5  1  0
  5  6  2  0
  5  7  1  0
  7  8  1  0
  8  9  1  0
  9 10  1  0
  9 11  1  0
 11 12  1  0
 12 13  1  0
 13 14  2  0
 13 15  1  0
 15 16  1  0
 16 17  1  0
 17 18  1  0
 18 19  1  0
 19 20  1  0
 20 21  1  0
  2 22  1  0
 22 23  2  0
 23 24  1  0
 24 25  2  0
 25 26  1  0
 26 27  2  0
 27 28  1  0
 27 29  1  0
 29 30  2  0
 30 31  1  0
 31 32  2  0
 12  7  1  0
 21 16  1  0
 32 22  1  0
 31 25  1  0
  3 33  1  0
  4 34  1  0
  4 35  1  0
  8 36  1  0
  8 37  1  0
  9 38  1  6
 10 39  1  0
 11 40  1  0
 11 41  1  0
 12 42  1  1
 16 43  1  0
 17 44  1  0
 17 45  1  0
 18 46  1  0
 18 47  1  0
 19 48  1  0
 19 49  1  0
 20 50  1  0
 20 51  1  0
 21 52  1  0
 21 53  1  0
 23 54  1  0
 24 55  1  0
 26 56  1  0
 29 57  1  0
 30 58  1  0
M  CHG  1  15  -1
M  END
>  <UniqueID>  (18) 
137

>  <SMILES>  (18) 
O=C(NCC(=O)N1C[C@H](O)C[C@H]1C(=O)[N-]C1CCCCC1)c1ccc2cc(F)ccc2n1

>  <Energy>  (18) 
51.087325513709516

>  <Genealogy>  (18) 
O=C(NCC(=O)N1C[C@H](O)C[C@H]1C(=O)[N-]C1CCCCC1)c1ccc2cc(F)ccc2n1 (protonated)
O=C(NCC(=O)N1C[C@H](O)C[C@H]1C(=O)[N-]C1CCCCC1)c1ccc2cc(F)ccc2n1 (3D coordinates assigned)
O=C(NCC(=O)N1C[C@H](O)C[C@H]1C(=O)[N-]C1CCCCC1)c1ccc2cc(F)ccc2n1 (nonaromatic ring conformer: 51.087325513709516 kcal/mol)

>  <smiles>  (18) 
O=C(NCC(=O)N1C[C@H](O)C[C@H]1C(=O)NC1CCCCC1)c1ccc2cc(F)ccc2n1

>  <score_type>  (18) 
oracle

>  <origin>  (18) 
autodockgpu

>  <m_score__min__energy>  (18) 
-8.7599999999999998

>  <m_primary>  (18) 
energy

>  <meeko>  (18) 
{"free_energy": -8.54, "intermolecular_energy": -10.93, "internal_energy": -1.94, "cluster_size": 9, "cluster_id": 1, "rank_in_cluster": 2}

>  <energy>  (18) 
-6.46

>  <cluster_rmsd>  (18) 
0.0

>  <rmsd>  (18) 
272.02

>  <cluster>  (18) 
5

$$$$
YMXDKILJCZTOEU-UDRLWISANA-M
     RDKit          3D

 58 61  0  0  0  0  0  0  0  0999 V2000
  139.9110   73.6710  222.3910 O   0  0  0  0  0  0  0  0  0  0  0  0
  140.3360   72.4870  222.2780 C   0  0  0  0  0  0  0  0  0  0  0  0
  140.9510   72.0560  221.0510 N   0  0  0  0  0  0  0  0  0  0  0  0
  141.1440   72.9360  219.9030 C   0  0  0  0  0  0  0  0  0  0  0  0
  142.4550   73.6640  220.0190 C   0  0  0  0  0  0  0  0  0  0  0  0
  142.4360   74.9250  220.0700 O   0  0  0  0  0  0  0  0  0  0  0  0
  143.7170   72.9710  220.0670 N   0  0  0  0  0  0  0  0  0  0  0  0
  144.8010   73.4220  220.9300 C   0  0  0  0  0  0  0  0  0  0  0  0
  146.0700   72.7810  220.3690 C   0  0  2  0  0  0  0  0  0  0  0  0
  146.7320   73.6800  219.5180 O   0  0  0  0  0  0  0  0  0  0  0  0
  145.5840   71.5820  219.5580 C   0  0  0  0  0  0  0  0  0  0  0  0
  144.1380   71.9010  219.1690 C   0  0  1  0  0  0  0  0  0  0  0  0
  143.2620   70.6930  219.3280 C   0  0  0  0  0  0  0  0  0  0  0  0
  142.7990   70.4020  220.4660 O   0  0  0  0  0  0  0  0  0  0  0  0
  142.9420   69.8880  218.1870 N   0  0  0  0  0  0  0  0  0  0  0  0
  143.5120   68.5630  217.9440 C   0  0  0  0  0  0  0  0  0  0  0  0
  143.3700   67.7170  219.2290 C   0  0  0  0  0  0  0  0  0  0  0  0
  144.4430   66.6280  219.3150 C   0  0  0  0  0  0  0  0  0  0  0  0
  145.8620   67.2340  219.3580 C   0  0  0  0  0  0  0  0  0  0  0  0
  145.9760   68.5850  218.6210 C   0  0  0  0  0  0  0  0  0  0  0  0
  144.9810   68.6870  217.4610 C   0  0  0  0  0  0  0  0  0  0  0  0
  140.1940   71.5440  223.4080 C   0  0  0  0  0  0  0  0  0  0  0  0
  139.5820   70.2900  223.2330 C   0  0  0  0  0  0  0  0  0  0  0  0
  139.4660   69.4180  224.3180 C   0  0  0  0  0  0  0  0  0  0  0  0
  139.9560   69.8000  225.5740 C   0  0  0  0  0  0  0  0  0  0  0  0
  139.8540   68.9510  226.6860 C   0  0  0  0  0  0  0  0  0  0  0  0
  140.3520   69.3610  227.9270 C   0  0  0  0  0  0  0  0  0  0  0  0
  140.2470   68.5410  229.0050 F   0  0  0  0  0  0  0  0  0  0  0  0
  140.9590   70.6150  228.0630 C   0  0  0  0  0  0  0  0  0  0  0  0
  141.0710   71.4660  226.9570 C   0  0  0  0  0  0  0  0  0  0  0  0
  140.5680   71.0660  225.7130 C   0  0  0  0  0  0  0  0  0  0  0  0
  140.6690   71.8910  224.6370 N   0  0  0  0  0  0  0  0  0  0  0  0
  141.3450   71.0910  220.9940 H   0  0  0  0  0  0  0  0  0  0  0  0
  141.1424   72.3358  218.9812 H   0  0  0  0  0  0  0  0  0  0  0  0
  140.3269   73.6719  219.8745 H   0  0  0  0  0  0  0  0  0  0  0  0
  144.8813   74.5187  220.9036 H   0  0  0  0  0  0  0  0  0  0  0  0
  144.6310   73.1361  221.9785 H   0  0  0  0  0  0  0  0  0  0  0  0
  146.7715   72.4965  221.1671 H   0  0  0  0  0  0  0  0  0  0  0  0
  146.1050   74.4360  219.3630 H   0  0  0  0  0  0  0  0  0  0  0  0
  146.2031   71.4518  218.6581 H   0  0  0  0  0  0  0  0  0  0  0  0
  145.6517   70.6481  220.1353 H   0  0  0  0  0  0  0  0  0  0  0  0
  144.0600   72.2037  218.1143 H   0  0  0  0  0  0  0  0  0  0  0  0
  142.9663   68.0491  217.1389 H   0  0  0  0  0  0  0  0  0  0  0  0
  143.4634   68.3786  220.1029 H   0  0  0  0  0  0  0  0  0  0  0  0
  142.3859   67.2261  219.2078 H   0  0  0  0  0  0  0  0  0  0  0  0
  144.2793   66.0362  220.2277 H   0  0  0  0  0  0  0  0  0  0  0  0
  144.3650   65.9952  218.4187 H   0  0  0  0  0  0  0  0  0  0  0  0
  146.1440   67.3864  220.4103 H   0  0  0  0  0  0  0  0  0  0  0  0
  146.5315   66.5278  218.8452 H   0  0  0  0  0  0  0  0  0  0  0  0
  145.7752   69.3977  219.3346 H   0  0  0  0  0  0  0  0  0  0  0  0
  146.9922   68.6636  218.2072 H   0  0  0  0  0  0  0  0  0  0  0  0
  145.1112   69.6605  216.9658 H   0  0  0  0  0  0  0  0  0  0  0  0
  145.1819   67.8578  216.7666 H   0  0  0  0  0  0  0  0  0  0  0  0
  139.1961   69.9970  222.2455 H   0  0  0  0  0  0  0  0  0  0  0  0
  138.9914   68.4343  224.1869 H   0  0  0  0  0  0  0  0  0  0  0  0
  139.3823   67.9627  226.5820 H   0  0  0  0  0  0  0  0  0  0  0  0
  141.3490   70.9326  229.0413 H   0  0  0  0  0  0  0  0  0  0  0  0
  141.5539   72.4484  227.0652 H   0  0  0  0  0  0  0  0  0  0  0  0
  1  2  2  0
  2  3  1  0
  3  4  1  0
  4  5  1  0
  5  6  2  0
  5  7  1  0
  7  8  1  0
  8  9  1  0
  9 10  1  0
  9 11  1  0
 11 12  1  0
 12 13  1  0
 13 14  2  0
 13 15  1  0
 15 16  1  0
 16 17  1  0
 17 18  1  0
 18 19  1  0
 19 20  1  0
 20 21  1  0
  2 22  1  0
 22 23  2  0
 23 24  1  0
 24 25  2  0
 25 26  1  0
 26 27  2  0
 27 28  1  0
 27 29  1  0
 29 30  2  0
 30 31  1  0
 31 32  2  0
 12  7  1  0
 21 16  1  0
 32 22  1  0
 31 25  1  0
  3 33  1  0
  4 34  1  0
  4 35  1  0
  8 36  1  0
  8 37  1  0
  9 38  1  1
 10 39  1  0
 11 40  1  0
 11 41  1  0
 12 42  1  6
 16 43  1  0
 17 44  1  0
 17 45  1  0
 18 46  1  0
 18 47  1  0
 19 48  1  0
 19 49  1  0
 20 50  1  0
 20 51  1  0
 21 52  1  0
 21 53  1  0
 23 54  1  0
 24 55  1  0
 26 56  1  0
 29 57  1  0
 30 58  1  0
M  CHG  1  15  -1
M  END
>  <UniqueID>  (19) 
137

>  <SMILES>  (19) 
O=C(NCC(=O)N1C[C@H](O)C[C@H]1C(=O)[N-]C1CCCCC1)c1ccc2cc(F)ccc2n1

>  <Energy>  (19) 
51.087325513709516

>  <Genealogy>  (19) 
O=C(NCC(=O)N1C[C@H](O)C[C@H]1C(=O)[N-]C1CCCCC1)c1ccc2cc(F)ccc2n1 (protonated)
O=C(NCC(=O)N1C[C@H](O)C[C@H]1C(=O)[N-]C1CCCCC1)c1ccc2cc(F)ccc2n1 (3D coordinates assigned)
O=C(NCC(=O)N1C[C@H](O)C[C@H]1C(=O)[N-]C1CCCCC1)c1ccc2cc(F)ccc2n1 (nonaromatic ring conformer: 51.087325513709516 kcal/mol)

>  <smiles>  (19) 
O=C(NCC(=O)N1C[C@H](O)C[C@H]1C(=O)NC1CCCCC1)c1ccc2cc(F)ccc2n1

>  <score_type>  (19) 
oracle

>  <origin>  (19) 
autodockgpu

>  <m_score__min__energy>  (19) 
-8.7599999999999998

>  <m_primary>  (19) 
energy

>  <meeko>  (19) 
{"free_energy": -7.98, "intermolecular_energy": -10.37, "internal_energy": -2.53, "cluster_size": 3, "cluster_id": 2, "rank_in_cluster": 2}

>  <energy>  (19) 
-5.64

>  <cluster_rmsd>  (19) 
1.72

>  <rmsd>  (19) 
271.87

>  <cluster>  (19) 
5

$$$$
YMXDKILJCZTOEU-UDRLWISANA-M
     RDKit          3D

 58 61  0  0  0  0  0  0  0  0999 V2000
  139.9810   73.6540  222.3760 O   0  0  0  0  0  0  0  0  0  0  0  0
  140.3270   72.4440  222.2800 C   0  0  0  0  0  0  0  0  0  0  0  0
  140.8970   71.9530  221.0540 N   0  0  0  0  0  0  0  0  0  0  0  0
  141.1310   72.7990  219.8870 C   0  0  0  0  0  0  0  0  0  0  0  0
  142.4390   73.5270  220.0250 C   0  0  0  0  0  0  0  0  0  0  0  0
  142.4140   74.7820  220.1600 O   0  0  0  0  0  0  0  0  0  0  0  0
  143.7060   72.8420  220.0030 N   0  0  0  0  0  0  0  0  0  0  0  0
  144.8220   73.2760  220.8340 C   0  0  0  0  0  0  0  0  0  0  0  0
  146.0710   72.6600  220.2030 C   0  0  2  0  0  0  0  0  0  0  0  0
  146.6920   73.5890  219.3530 O   0  0  0  0  0  0  0  0  0  0  0  0
  145.5590   71.4820  219.3780 C   0  0  0  0  0  0  0  0  0  0  0  0
  144.0970   71.8020  219.0570 C   0  0  1  0  0  0  0  0  0  0  0  0
  143.2360   70.5830  219.2160 C   0  0  0  0  0  0  0  0  0  0  0  0
  142.7960   70.2740  220.3580 O   0  0  0  0  0  0  0  0  0  0  0  0
  142.9040   69.7890  218.0710 N   0  0  0  0  0  0  0  0  0  0  0  0
  143.4790   68.4720  217.8040 C   0  0  0  0  0  0  0  0  0  0  0  0
  143.2000   67.5520  219.0140 C   0  0  0  0  0  0  0  0  0  0  0  0
  144.2460   66.4410  219.1370 C   0  0  0  0  0  0  0  0  0  0  0  0
  145.6620   67.0170  219.3560 C   0  0  0  0  0  0  0  0  0  0  0  0
  145.8640   68.4080  218.7190 C   0  0  0  0  0  0  0  0  0  0  0  0
  144.9900   68.5980  217.4750 C   0  0  0  0  0  0  0  0  0  0  0  0
  140.1410   71.5320  223.4290 C   0  0  0  0  0  0  0  0  0  0  0  0
  139.4600   70.3110  223.2810 C   0  0  0  0  0  0  0  0  0  0  0  0
  139.3020   69.4680  224.3840 C   0  0  0  0  0  0  0  0  0  0  0  0
  139.8210   69.8460  225.6290 C   0  0  0  0  0  0  0  0  0  0  0  0
  139.6790   69.0250  226.7580 C   0  0  0  0  0  0  0  0  0  0  0  0
  140.2070   69.4310  227.9890 C   0  0  0  0  0  0  0  0  0  0  0  0
  140.0640   68.6390  229.0830 F   0  0  0  0  0  0  0  0  0  0  0  0
  140.8820   70.6520  228.0970 C   0  0  0  0  0  0  0  0  0  0  0  0
  141.0340   71.4740  226.9750 C   0  0  0  0  0  0  0  0  0  0  0  0
  140.5020   71.0780  225.7410 C   0  0  0  0  0  0  0  0  0  0  0  0
  140.6420   71.8760  224.6490 N   0  0  0  0  0  0  0  0  0  0  0  0
  141.2290   70.9640  221.0100 H   0  0  0  0  0  0  0  0  0  0  0  0
  141.1581   72.1719  218.9836 H   0  0  0  0  0  0  0  0  0  0  0  0
  140.3176   73.5355  219.8098 H   0  0  0  0  0  0  0  0  0  0  0  0
  144.8947   74.3736  220.8360 H   0  0  0  0  0  0  0  0  0  0  0  0
  144.6969   72.9592  221.8799 H   0  0  0  0  0  0  0  0  0  0  0  0
  146.8065   72.3565  220.9625 H   0  0  0  0  0  0  0  0  0  0  0  0
  146.2110   74.4490  219.4740 H   0  0  0  0  0  0  0  0  0  0  0  0
  146.1418   71.3819  218.4505 H   0  0  0  0  0  0  0  0  0  0  0  0
  145.6550   70.5325  219.9250 H   0  0  0  0  0  0  0  0  0  0  0  0
  143.9744   72.1353  218.0159 H   0  0  0  0  0  0  0  0  0  0  0  0
  143.0094   68.0176  216.9191 H   0  0  0  0  0  0  0  0  0  0  0  0
  143.2141   68.1575  219.9323 H   0  0  0  0  0  0  0  0  0  0  0  0
  142.2170   67.0811  218.8658 H   0  0  0  0  0  0  0  0  0  0  0  0
  143.9858   65.7983  219.9909 H   0  0  0  0  0  0  0  0  0  0  0  0
  144.2493   65.8654  218.1996 H   0  0  0  0  0  0  0  0  0  0  0  0
  145.8410   67.0999  220.4382 H   0  0  0  0  0  0  0  0  0  0  0  0
  146.3702   66.3310  218.8684 H   0  0  0  0  0  0  0  0  0  0  0  0
  145.6028   69.1793  219.4585 H   0  0  0  0  0  0  0  0  0  0  0  0
  146.9170   68.4934  218.4126 H   0  0  0  0  0  0  0  0  0  0  0  0
  145.1805   69.5970  217.0559 H   0  0  0  0  0  0  0  0  0  0  0  0
  145.2484   67.8090  216.7534 H   0  0  0  0  0  0  0  0  0  0  0  0
  139.0533   70.0206  222.3011 H   0  0  0  0  0  0  0  0  0  0  0  0
  138.7717   68.5105  224.2751 H   0  0  0  0  0  0  0  0  0  0  0  0
  139.1528   68.0625  226.6756 H   0  0  0  0  0  0  0  0  0  0  0  0
  141.2944   70.9666  229.0670 H   0  0  0  0  0  0  0  0  0  0  0  0
  141.5707   72.4303  227.0618 H   0  0  0  0  0  0  0  0  0  0  0  0
  1  2  2  0
  2  3  1  0
  3  4  1  0
  4  5  1  0
  5  6  2  0
  5  7  1  0
  7  8  1  0
  8  9  1  0
  9 10  1  0
  9 11  1  0
 11 12  1  0
 12 13  1  0
 13 14  2  0
 13 15  1  0
 15 16  1  0
 16 17  1  0
 17 18  1  0
 18 19  1  0
 19 20  1  0
 20 21  1  0
  2 22  1  0
 22 23  2  0
 23 24  1  0
 24 25  2  0
 25 26  1  0
 26 27  2  0
 27 28  1  0
 27 29  1  0
 29 30  2  0
 30 31  1  0
 31 32  2  0
 12  7  1  0
 21 16  1  0
 32 22  1  0
 31 25  1  0
  3 33  1  0
  4 34  1  0
  4 35  1  0
  8 36  1  0
  8 37  1  0
  9 38  1  1
 10 39  1  0
 11 40  1  0
 11 41  1  0
 12 42  1  6
 16 43  1  0
 17 44  1  0
 17 45  1  0
 18 46  1  0
 18 47  1  0
 19 48  1  0
 19 49  1  0
 20 50  1  0
 20 51  1  0
 21 52  1  0
 21 53  1  0
 23 54  1  0
 24 55  1  0
 26 56  1  0
 29 57  1  0
 30 58  1  0
M  CHG  1  15  -1
M  END
>  <UniqueID>  (20) 
137

>  <SMILES>  (20) 
O=C(NCC(=O)N1C[C@H](O)C[C@H]1C(=O)[N-]C1CCCCC1)c1ccc2cc(F)ccc2n1

>  <Energy>  (20) 
51.087325513709516

>  <Genealogy>  (20) 
O=C(NCC(=O)N1C[C@H](O)C[C@H]1C(=O)[N-]C1CCCCC1)c1ccc2cc(F)ccc2n1 (protonated)
O=C(NCC(=O)N1C[C@H](O)C[C@H]1C(=O)[N-]C1CCCCC1)c1ccc2cc(F)ccc2n1 (3D coordinates assigned)
O=C(NCC(=O)N1C[C@H](O)C[C@H]1C(=O)[N-]C1CCCCC1)c1ccc2cc(F)ccc2n1 (nonaromatic ring conformer: 51.087325513709516 kcal/mol)

>  <smiles>  (20) 
O=C(NCC(=O)N1C[C@H](O)C[C@H]1C(=O)NC1CCCCC1)c1ccc2cc(F)ccc2n1

>  <score_type>  (20) 
oracle

>  <origin>  (20) 
autodockgpu

>  <m_score__min__energy>  (20) 
-8.7599999999999998

>  <m_primary>  (20) 
energy

>  <meeko>  (20) 
{"free_energy": -8.01, "intermolecular_energy": -10.4, "internal_energy": -2.5, "cluster_size": 3, "cluster_id": 2, "rank_in_cluster": 1}

>  <energy>  (20) 
-5.44

>  <cluster_rmsd>  (20) 
0.0

>  <rmsd>  (20) 
271.76

>  <cluster>  (20) 
6

$$$$
CFVPHIVDXPJTQV-GDOATJJJNA-M
     RDKit          3D

 58 61  0  0  0  0  0  0  0  0999 V2000
  136.7590   68.1560  225.7020 H   0  0  0  0  0  0  0  0  0  0  0  0
  135.9130   68.5670  225.3290 O   0  0  0  0  0  0  0  0  0  0  0  0
  135.8860   69.5350  224.3180 C   0  0  0  0  0  0  0  0  0  0  0  0
  134.7240   70.0680  223.8860 C   0  0  0  0  0  0  0  0  0  0  0  0
  134.2124   69.5892  223.0380 H   0  0  0  0  0  0  0  0  0  0  0  0
  134.1220   71.2300  224.4790 N   0  0  0  0  0  0  0  0  0  0  0  0
  134.1490   72.1460  223.9810 H   0  0  0  0  0  0  0  0  0  0  0  0
  133.5940   71.1980  225.8160 C   0  0  0  0  0  0  0  0  0  0  0  0
  133.5650   70.1080  226.4520 O   0  0  0  0  0  0  0  0  0  0  0  0
  133.0770   72.4310  226.4510 C   0  0  0  0  0  0  0  0  0  0  0  0
  133.7090   73.6180  226.2380 N   0  0  0  0  0  0  0  0  0  0  0  0
  133.2790   74.7800  226.7960 C   0  0  0  0  0  0  0  0  0  0  0  0
  133.9640   75.9760  226.5470 C   0  0  0  0  0  0  0  0  0  0  0  0
  134.8522   75.9768  225.8980 H   0  0  0  0  0  0  0  0  0  0  0  0
  133.5180   77.1690  227.1240 C   0  0  0  0  0  0  0  0  0  0  0  0
  134.0571   78.1075  226.9276 H   0  0  0  0  0  0  0  0  0  0  0  0
  132.3890   77.1740  227.9500 C   0  0  0  0  0  0  0  0  0  0  0  0
  131.9620   78.3340  228.5070 F   0  0  0  0  0  0  0  0  0  0  0  0
  131.6990   75.9830  228.2050 C   0  0  0  0  0  0  0  0  0  0  0  0
  130.8120   75.9892  228.8555 H   0  0  0  0  0  0  0  0  0  0  0  0
  132.1400   74.7810  227.6300 C   0  0  0  0  0  0  0  0  0  0  0  0
  131.4720   73.5740  227.8640 C   0  0  0  0  0  0  0  0  0  0  0  0
  130.5814   73.5527  228.5093 H   0  0  0  0  0  0  0  0  0  0  0  0
  131.9390   72.3960  227.2760 C   0  0  0  0  0  0  0  0  0  0  0  0
  131.4182   71.4443  227.4578 H   0  0  0  0  0  0  0  0  0  0  0  0
  137.1520   69.9570  223.7600 N   0  0  0  0  0  0  0  0  0  0  0  0
  137.6300   71.3230  223.9070 C   0  0  0  0  0  0  0  0  0  0  0  0
  136.9641   72.0206  223.3779 H   0  0  0  0  0  0  0  0  0  0  0  0
  137.6517   71.6324  224.9624 H   0  0  0  0  0  0  0  0  0  0  0  0
  139.0240   71.3460  223.2870 C   0  0  2  0  0  0  0  0  0  0  0  0
  139.8152   71.3312  224.0510 H   0  0  0  0  0  0  0  0  0  0  0  0
  139.2200   72.5220  222.5490 O   0  0  0  0  0  0  0  0  0  0  0  0
  138.8210   73.2580  223.0820 H   0  0  0  0  0  0  0  0  0  0  0  0
  139.0910   70.1080  222.3930 C   0  0  0  0  0  0  0  0  0  0  0  0
  138.8400   70.3702  221.3546 H   0  0  0  0  0  0  0  0  0  0  0  0
  140.0999   69.6700  222.3792 H   0  0  0  0  0  0  0  0  0  0  0  0
  138.0570   69.1320  222.9630 C   0  0  1  0  0  0  0  0  0  0  0  0
  137.5304   68.5862  222.1663 H   0  0  0  0  0  0  0  0  0  0  0  0
  138.7240   68.0910  223.8370 C   0  0  0  0  0  0  0  0  0  0  0  0
  139.1960   67.0540  223.2990 O   0  0  0  0  0  0  0  0  0  0  0  0
  138.8270   68.2260  225.2630 N   0  0  0  0  0  0  0  0  0  0  0  0
  139.9680   68.7470  226.0140 C   0  0  0  0  0  0  0  0  0  0  0  0
  140.9045   68.4422  225.5240 H   0  0  0  0  0  0  0  0  0  0  0  0
  139.9200   68.1790  227.4420 C   0  0  0  0  0  0  0  0  0  0  0  0
  138.9594   68.4502  227.9042 H   0  0  0  0  0  0  0  0  0  0  0  0
  140.0279   67.0857  227.3866 H   0  0  0  0  0  0  0  0  0  0  0  0
  141.0630   68.7380  228.2980 C   0  0  0  0  0  0  0  0  0  0  0  0
  140.9644   68.3553  229.3246 H   0  0  0  0  0  0  0  0  0  0  0  0
  142.0195   68.4184  227.8587 H   0  0  0  0  0  0  0  0  0  0  0  0
  141.0260   70.2700  228.3280 C   0  0  0  0  0  0  0  0  0  0  0  0
  140.1013   70.5977  228.8255 H   0  0  0  0  0  0  0  0  0  0  0  0
  141.9081   70.6309  228.8772 H   0  0  0  0  0  0  0  0  0  0  0  0
  141.0640   70.8490  226.9090 C   0  0  0  0  0  0  0  0  0  0  0  0
  140.9649   71.9431  226.9647 H   0  0  0  0  0  0  0  0  0  0  0  0
  142.0210   70.5705  226.4437 H   0  0  0  0  0  0  0  0  0  0  0  0
  139.9240   70.2860  226.0520 C   0  0  0  0  0  0  0  0  0  0  0  0
  138.9619   70.6077  226.4774 H   0  0  0  0  0  0  0  0  0  0  0  0
  140.0383   70.6646  225.0255 H   0  0  0  0  0  0  0  0  0  0  0  0
  1  2  1  0
  2  3  1  0
  3  4  2  0
  4  5  1  0
  4  6  1  0
  6  7  1  0
  6  8  1  0
  8  9  2  0
  8 10  1  0
 10 11  2  0
 11 12  1  0
 12 13  2  0
 13 14  1  0
 13 15  1  0
 15 16  1  0
 15 17  2  0
 17 18  1  0
 17 19  1  0
 19 20  1  0
 19 21  2  0
 21 22  1  0
 22 23  1  0
 22 24  2  0
 24 25  1  0
  3 26  1  0
 26 27  1  0
 27 28  1  0
 27 29  1  0
 27 30  1  0
 30 31  1  1
 30 32  1  0
 32 33  1  0
 30 34  1  0
 34 35  1  0
 34 36  1  0
 34 37  1  0
 37 38  1  6
 37 39  1  0
 39 40  2  0
 39 41  1  0
 41 42  1  0
 42 43  1  0
 42 44  1  0
 44 45  1  0
 44 46  1  0
 44 47  1  0
 47 48  1  0
 47 49  1  0
 47 50  1  0
 50 51  1  0
 50 52  1  0
 50 53  1  0
 53 54  1  0
 53 55  1  0
 53 56  1  0
 56 57  1  0
 56 58  1  0
 24 10  1  0
 37 26  1  0
 56 42  1  0
 21 12  1  0
M  CHG  1  41  -1
M  END
>  <UniqueID>  (21) 
138

>  <SMILES>  (21) 
O=C(N/C=C(\O)N1C[C@H](O)C[C@H]1C(=O)[N-]C1CCCCC1)c1ccc2cc(F)ccc2n1

>  <Energy>  (21) 
56.97971883532094

>  <Genealogy>  (21) 
O=C(NCC(=O)N1C[C@H](O)C[C@H]1C(=O)[N-]C1CCCCC1)c1ccc2cc(F)ccc2n1 (protonated)
O=C(NC=C(O)N1C[C@H](O)C[C@H]1C(=O)[N-]C1CCCCC1)c1ccc2cc(F)ccc2n1 (tautomer)
O=C(N/C=C(\O)N1C[C@H](O)C[C@H]1C(=O)[N-]C1CCCCC1)c1ccc2cc(F)ccc2n1 (cis-trans isomerization)
O=C(N/C=C(\O)N1C[C@H](O)C[C@H]1C(=O)[N-]C1CCCCC1)c1ccc2cc(F)ccc2n1 (3D coordinates assigned)
O=C(N/C=C(\O)N1C[C@H](O)C[C@H]1C(=O)[N-]C1CCCCC1)c1ccc2cc(F)ccc2n1 (nonaromatic ring conformer: 56.97971883532094 kcal/mol)

>  <smiles>  (21) 
O=C(NCC(=O)N1C[C@H](O)C[C@H]1C(=O)NC1CCCCC1)c1ccc2cc(F)ccc2n1

>  <score_type>  (21) 
oracle

>  <origin>  (21) 
autodockgpu

>  <m_score__min__energy>  (21) 
-8.2699999999999996

>  <m_primary>  (21) 
energy

>  <meeko>  (21) 
{"free_energy": -7.72, "intermolecular_energy": -10.41, "internal_energy": -2.4, "cluster_size": 1, "cluster_id": 3, "rank_in_cluster": 1}

>  <energy>  (21) 
-8.27

>  <cluster_rmsd>  (21) 
0.0

>  <rmsd>  (21) 
273.38

>  <cluster>  (21) 
1

$$$$
CFVPHIVDXPJTQV-GDOATJJJNA-M
     RDKit          3D

 58 61  0  0  0  0  0  0  0  0999 V2000
  136.7320   76.1410  220.1280 H   0  0  0  0  0  0  0  0  0  0  0  0
  136.9740   75.1720  219.9660 O   0  0  0  0  0  0  0  0  0  0  0  0
  138.0160   74.5000  220.6160 C   0  0  0  0  0  0  0  0  0  0  0  0
  137.8970   73.2070  220.9850 C   0  0  0  0  0  0  0  0  0  0  0  0
  137.4574   72.4971  220.2689 H   0  0  0  0  0  0  0  0  0  0  0  0
  138.3160   72.7130  222.2660 N   0  0  0  0  0  0  0  0  0  0  0  0
  138.1220   73.2650  223.1300 H   0  0  0  0  0  0  0  0  0  0  0  0
  139.1240   71.5290  222.3840 C   0  0  0  0  0  0  0  0  0  0  0  0
  139.3930   70.8490  221.3550 O   0  0  0  0  0  0  0  0  0  0  0  0
  139.6390   71.0960  223.7020 C   0  0  0  0  0  0  0  0  0  0  0  0
  139.2480   69.8990  224.2210 N   0  0  0  0  0  0  0  0  0  0  0  0
  139.6880   69.4520  225.4270 C   0  0  0  0  0  0  0  0  0  0  0  0
  139.2570   68.2140  225.9180 C   0  0  0  0  0  0  0  0  0  0  0  0
  138.5610   67.6000  225.3277 H   0  0  0  0  0  0  0  0  0  0  0  0
  139.7120   67.7580  227.1600 C   0  0  0  0  0  0  0  0  0  0  0  0
  139.3724   66.7850  227.5447 H   0  0  0  0  0  0  0  0  0  0  0  0
  140.5970   68.5350  227.9140 C   0  0  0  0  0  0  0  0  0  0  0  0
  141.0340   68.0870  229.1170 F   0  0  0  0  0  0  0  0  0  0  0  0
  141.0330   69.7740  227.4310 C   0  0  0  0  0  0  0  0  0  0  0  0
  141.7292   70.3829  228.0264 H   0  0  0  0  0  0  0  0  0  0  0  0
  140.5810   70.2390  226.1860 C   0  0  0  0  0  0  0  0  0  0  0  0
  140.9980   71.4720  225.6740 C   0  0  0  0  0  0  0  0  0  0  0  0
  141.6947   72.1001  226.2485 H   0  0  0  0  0  0  0  0  0  0  0  0
  140.5280   71.9040  224.4320 C   0  0  0  0  0  0  0  0  0  0  0  0
  140.8524   72.8736  224.0262 H   0  0  0  0  0  0  0  0  0  0  0  0
  139.2350   75.2360  220.8670 N   0  0  0  0  0  0  0  0  0  0  0  0
  140.2870   75.3290  219.8670 C   0  0  0  0  0  0  0  0  0  0  0  0
  140.7193   74.3364  219.6728 H   0  0  0  0  0  0  0  0  0  0  0  0
  139.9018   75.7084  218.9091 H   0  0  0  0  0  0  0  0  0  0  0  0
  141.3410   76.2610  220.4560 C   0  0  2  0  0  0  0  0  0  0  0  0
  141.2865   77.2706  220.0227 H   0  0  0  0  0  0  0  0  0  0  0  0
  142.6330   75.7880  220.1790 O   0  0  0  0  0  0  0  0  0  0  0  0
  143.2380   76.2220  220.8360 H   0  0  0  0  0  0  0  0  0  0  0  0
  141.0670   76.2850  221.9600 C   0  0  0  0  0  0  0  0  0  0  0  0
  141.7058   75.5549  222.4785 H   0  0  0  0  0  0  0  0  0  0  0  0
  141.2844   77.2704  222.3979 H   0  0  0  0  0  0  0  0  0  0  0  0
  139.5910   75.9090  222.1150 C   0  0  1  0  0  0  0  0  0  0  0  0
  139.4250   75.2705  222.9952 H   0  0  0  0  0  0  0  0  0  0  0  0
  138.7370   77.1440  222.3060 C   0  0  0  0  0  0  0  0  0  0  0  0
  137.6060   77.1960  221.7520 O   0  0  0  0  0  0  0  0  0  0  0  0
  139.1680   78.2730  223.0810 N   0  0  0  0  0  0  0  0  0  0  0  0
  140.2590   79.1910  222.7620 C   0  0  0  0  0  0  0  0  0  0  0  0
  140.5785   79.0368  221.7208 H   0  0  0  0  0  0  0  0  0  0  0  0
  141.4340   78.9120  223.7130 C   0  0  0  0  0  0  0  0  0  0  0  0
  141.0891   79.0226  224.7516 H   0  0  0  0  0  0  0  0  0  0  0  0
  141.7942   77.8887  223.5309 H   0  0  0  0  0  0  0  0  0  0  0  0
  142.5920   79.8860  223.4640 C   0  0  0  0  0  0  0  0  0  0  0  0
  143.3885   79.6935  224.1978 H   0  0  0  0  0  0  0  0  0  0  0  0
  142.9664   79.7325  222.4412 H   0  0  0  0  0  0  0  0  0  0  0  0
  142.1240   81.3390  223.6010 C   0  0  0  0  0  0  0  0  0  0  0  0
  141.8088   81.5190  224.6394 H   0  0  0  0  0  0  0  0  0  0  0  0
  142.9585   82.0029  223.3309 H   0  0  0  0  0  0  0  0  0  0  0  0
  140.9460   81.6280  222.6620 C   0  0  0  0  0  0  0  0  0  0  0  0
  140.5915   82.6547  222.8358 H   0  0  0  0  0  0  0  0  0  0  0  0
  141.2891   81.5081  221.6238 H   0  0  0  0  0  0  0  0  0  0  0  0
  139.7910   80.6510  222.9090 C   0  0  0  0  0  0  0  0  0  0  0  0
  139.4031   80.8032  223.9270 H   0  0  0  0  0  0  0  0  0  0  0  0
  139.0054   80.8429  222.1634 H   0  0  0  0  0  0  0  0  0  0  0  0
  1  2  1  0
  2  3  1  0
  3  4  2  0
  4  5  1  0
  4  6  1  0
  6  7  1  0
  6  8  1  0
  8  9  2  0
  8 10  1  0
 10 11  2  0
 11 12  1  0
 12 13  2  0
 13 14  1  0
 13 15  1  0
 15 16  1  0
 15 17  2  0
 17 18  1  0
 17 19  1  0
 19 20  1  0
 19 21  2  0
 21 22  1  0
 22 23  1  0
 22 24  2  0
 24 25  1  0
  3 26  1  0
 26 27  1  0
 27 28  1  0
 27 29  1  0
 27 30  1  0
 30 31  1  6
 30 32  1  0
 32 33  1  0
 30 34  1  0
 34 35  1  0
 34 36  1  0
 34 37  1  0
 37 38  1  1
 37 39  1  0
 39 40  2  0
 39 41  1  0
 41 42  1  0
 42 43  1  0
 42 44  1  0
 44 45  1  0
 44 46  1  0
 44 47  1  0
 47 48  1  0
 47 49  1  0
 47 50  1  0
 50 51  1  0
 50 52  1  0
 50 53  1  0
 53 54  1  0
 53 55  1  0
 53 56  1  0
 56 57  1  0
 56 58  1  0
 24 10  1  0
 37 26  1  0
 56 42  1  0
 21 12  1  0
M  CHG  1  41  -1
M  END
>  <UniqueID>  (22) 
138

>  <SMILES>  (22) 
O=C(N/C=C(\O)N1C[C@H](O)C[C@H]1C(=O)[N-]C1CCCCC1)c1ccc2cc(F)ccc2n1

>  <Energy>  (22) 
56.97971883532094

>  <Genealogy>  (22) 
O=C(NCC(=O)N1C[C@H](O)C[C@H]1C(=O)[N-]C1CCCCC1)c1ccc2cc(F)ccc2n1 (protonated)
O=C(NC=C(O)N1C[C@H](O)C[C@H]1C(=O)[N-]C1CCCCC1)c1ccc2cc(F)ccc2n1 (tautomer)
O=C(N/C=C(\O)N1C[C@H](O)C[C@H]1C(=O)[N-]C1CCCCC1)c1ccc2cc(F)ccc2n1 (cis-trans isomerization)
O=C(N/C=C(\O)N1C[C@H](O)C[C@H]1C(=O)[N-]C1CCCCC1)c1ccc2cc(F)ccc2n1 (3D coordinates assigned)
O=C(N/C=C(\O)N1C[C@H](O)C[C@H]1C(=O)[N-]C1CCCCC1)c1ccc2cc(F)ccc2n1 (nonaromatic ring conformer: 56.97971883532094 kcal/mol)

>  <smiles>  (22) 
O=C(NCC(=O)N1C[C@H](O)C[C@H]1C(=O)NC1CCCCC1)c1ccc2cc(F)ccc2n1

>  <score_type>  (22) 
oracle

>  <origin>  (22) 
autodockgpu

>  <m_score__min__energy>  (22) 
-8.2699999999999996

>  <m_primary>  (22) 
energy

>  <meeko>  (22) 
{"free_energy": -7.55, "intermolecular_energy": -10.23, "internal_energy": -2.1, "cluster_size": 13, "cluster_id": 1, "rank_in_cluster": 6}

>  <energy>  (22) 
-8.2

>  <cluster_rmsd>  (22) 
0.16

>  <rmsd>  (22) 
273.38

>  <cluster>  (22) 
1

$$$$
CFVPHIVDXPJTQV-GDOATJJJNA-M
     RDKit          3D

 58 61  0  0  0  0  0  0  0  0999 V2000
  136.5450   76.2750  220.8770 H   0  0  0  0  0  0  0  0  0  0  0  0
  136.5170   75.2670  220.9480 O   0  0  0  0  0  0  0  0  0  0  0  0
  137.6130   74.4700  221.3000 C   0  0  0  0  0  0  0  0  0  0  0  0
  137.4770   73.1460  221.5230 C   0  0  0  0  0  0  0  0  0  0  0  0
  136.9882   72.5329  220.7515 H   0  0  0  0  0  0  0  0  0  0  0  0
  137.9400   72.4980  222.7200 N   0  0  0  0  0  0  0  0  0  0  0  0
  137.4260   72.6300  223.6180 H   0  0  0  0  0  0  0  0  0  0  0  0
  139.1800   71.7720  222.7460 C   0  0  0  0  0  0  0  0  0  0  0  0
  139.8340   71.6120  221.6780 O   0  0  0  0  0  0  0  0  0  0  0  0
  139.6950   71.2050  224.0120 C   0  0  0  0  0  0  0  0  0  0  0  0
  139.2220   70.0080  224.4580 N   0  0  0  0  0  0  0  0  0  0  0  0
  139.6580   69.4410  225.6140 C   0  0  0  0  0  0  0  0  0  0  0  0
  139.1420   68.2090  226.0320 C   0  0  0  0  0  0  0  0  0  0  0  0
  138.3815   67.6967  225.4244 H   0  0  0  0  0  0  0  0  0  0  0  0
  139.5930   67.6290  227.2220 C   0  0  0  0  0  0  0  0  0  0  0  0
  139.1863   66.6606  227.5487 H   0  0  0  0  0  0  0  0  0  0  0  0
  140.5600   68.2770  227.9980 C   0  0  0  0  0  0  0  0  0  0  0  0
  140.9930   67.7090  229.1510 F   0  0  0  0  0  0  0  0  0  0  0  0
  141.0820   69.5090  227.5890 C   0  0  0  0  0  0  0  0  0  0  0  0
  141.8422   70.0159  228.2015 H   0  0  0  0  0  0  0  0  0  0  0  0
  140.6340   70.0970  226.3960 C   0  0  0  0  0  0  0  0  0  0  0  0
  141.1360   71.3280  225.9580 C   0  0  0  0  0  0  0  0  0  0  0  0
  141.8974   71.8554  226.5513 H   0  0  0  0  0  0  0  0  0  0  0  0
  140.6680   71.8850  224.7660 C   0  0  0  0  0  0  0  0  0  0  0  0
  141.0591   72.8524  224.4180 H   0  0  0  0  0  0  0  0  0  0  0  0
  138.9040   75.1130  221.4010 N   0  0  0  0  0  0  0  0  0  0  0  0
  139.9980   74.7670  220.5070 C   0  0  0  0  0  0  0  0  0  0  0  0
  140.3090   73.7243  220.6684 H   0  0  0  0  0  0  0  0  0  0  0  0
  139.7016   74.8578  219.4516 H   0  0  0  0  0  0  0  0  0  0  0  0
  141.1370   75.7200  220.8530 C   0  0  2  0  0  0  0  0  0  0  0  0
  141.2276   76.5362  220.1211 H   0  0  0  0  0  0  0  0  0  0  0  0
  142.3690   75.0480  220.8400 O   0  0  0  0  0  0  0  0  0  0  0  0
  142.9230   75.4640  221.5500 H   0  0  0  0  0  0  0  0  0  0  0  0
  140.8090   76.2560  222.2470 C   0  0  0  0  0  0  0  0  0  0  0  0
  141.3300   75.6681  223.0170 H   0  0  0  0  0  0  0  0  0  0  0  0
  141.1311   77.3008  222.3681 H   0  0  0  0  0  0  0  0  0  0  0  0
  139.2920   76.1090  222.3970 C   0  0  1  0  0  0  0  0  0  0  0  0
  139.0116   75.8082  223.4173 H   0  0  0  0  0  0  0  0  0  0  0  0
  138.5940   77.4240  222.1240 C   0  0  0  0  0  0  0  0  0  0  0  0
  137.8970   77.5390  221.0800 O   0  0  0  0  0  0  0  0  0  0  0  0
  138.7050   78.5580  222.9970 N   0  0  0  0  0  0  0  0  0  0  0  0
  139.7760   79.5530  223.0110 C   0  0  0  0  0  0  0  0  0  0  0  0
  139.4090   80.4853  223.4649 H   0  0  0  0  0  0  0  0  0  0  0  0
  140.2210   79.8190  221.5630 C   0  0  0  0  0  0  0  0  0  0  0  0
  140.5406   78.8710  221.1056 H   0  0  0  0  0  0  0  0  0  0  0  0
  139.3724   80.2485  221.0103 H   0  0  0  0  0  0  0  0  0  0  0  0
  141.3860   80.8150  221.5170 C   0  0  0  0  0  0  0  0  0  0  0  0
  141.7145   80.9369  220.4743 H   0  0  0  0  0  0  0  0  0  0  0  0
  141.0426   81.7763  221.9268 H   0  0  0  0  0  0  0  0  0  0  0  0
  142.5660   80.3170  222.3600 C   0  0  0  0  0  0  0  0  0  0  0  0
  142.9575   79.3890  221.9179 H   0  0  0  0  0  0  0  0  0  0  0  0
  143.3422   81.0963  222.3709 H   0  0  0  0  0  0  0  0  0  0  0  0
  142.1320   80.0400  223.8040 C   0  0  0  0  0  0  0  0  0  0  0  0
  142.9826   79.6194  224.3603 H   0  0  0  0  0  0  0  0  0  0  0  0
  141.8033   80.9867  224.2576 H   0  0  0  0  0  0  0  0  0  0  0  0
  140.9650   79.0480  223.8490 C   0  0  0  0  0  0  0  0  0  0  0  0
  141.3008   78.0798  223.4493 H   0  0  0  0  0  0  0  0  0  0  0  0
  140.6365   78.9419  224.8934 H   0  0  0  0  0  0  0  0  0  0  0  0
  1  2  1  0
  2  3  1  0
  3  4  2  0
  4  5  1  0
  4  6  1  0
  6  7  1  0
  6  8  1  0
  8  9  2  0
  8 10  1  0
 10 11  2  0
 11 12  1  0
 12 13  2  0
 13 14  1  0
 13 15  1  0
 15 16  1  0
 15 17  2  0
 17 18  1  0
 17 19  1  0
 19 20  1  0
 19 21  2  0
 21 22  1  0
 22 23  1  0
 22 24  2  0
 24 25  1  0
  3 26  1  0
 26 27  1  0
 27 28  1  0
 27 29  1  0
 27 30  1  0
 30 31  1  6
 30 32  1  0
 32 33  1  0
 30 34  1  0
 34 35  1  0
 34 36  1  0
 34 37  1  0
 37 38  1  1
 37 39  1  0
 39 40  2  0
 39 41  1  0
 41 42  1  0
 42 43  1  0
 42 44  1  0
 44 45  1  0
 44 46  1  0
 44 47  1  0
 47 48  1  0
 47 49  1  0
 47 50  1  0
 50 51  1  0
 50 52  1  0
 50 53  1  0
 53 54  1  0
 53 55  1  0
 53 56  1  0
 56 57  1  0
 56 58  1  0
 24 10  1  0
 37 26  1  0
 56 42  1  0
 21 12  1  0
M  CHG  1  41  -1
M  END
>  <UniqueID>  (23) 
138

>  <SMILES>  (23) 
O=C(N/C=C(\O)N1C[C@H](O)C[C@H]1C(=O)[N-]C1CCCCC1)c1ccc2cc(F)ccc2n1

>  <Energy>  (23) 
56.97971883532094

>  <Genealogy>  (23) 
O=C(NCC(=O)N1C[C@H](O)C[C@H]1C(=O)[N-]C1CCCCC1)c1ccc2cc(F)ccc2n1 (protonated)
O=C(NC=C(O)N1C[C@H](O)C[C@H]1C(=O)[N-]C1CCCCC1)c1ccc2cc(F)ccc2n1 (tautomer)
O=C(N/C=C(\O)N1C[C@H](O)C[C@H]1C(=O)[N-]C1CCCCC1)c1ccc2cc(F)ccc2n1 (cis-trans isomerization)
O=C(N/C=C(\O)N1C[C@H](O)C[C@H]1C(=O)[N-]C1CCCCC1)c1ccc2cc(F)ccc2n1 (3D coordinates assigned)
O=C(N/C=C(\O)N1C[C@H](O)C[C@H]1C(=O)[N-]C1CCCCC1)c1ccc2cc(F)ccc2n1 (nonaromatic ring conformer: 56.97971883532094 kcal/mol)

>  <smiles>  (23) 
O=C(NCC(=O)N1C[C@H](O)C[C@H]1C(=O)NC1CCCCC1)c1ccc2cc(F)ccc2n1

>  <score_type>  (23) 
oracle

>  <origin>  (23) 
autodockgpu

>  <m_score__min__energy>  (23) 
-8.2699999999999996

>  <m_primary>  (23) 
energy

>  <meeko>  (23) 
{"free_energy": -7.42, "intermolecular_energy": -10.1, "internal_energy": -2.45, "cluster_size": 13, "cluster_id": 1, "rank_in_cluster": 8}

>  <energy>  (23) 
-7.82

>  <cluster_rmsd>  (23) 
0.98

>  <rmsd>  (23) 
273.39

>  <cluster>  (23) 
1

$$$$
CFVPHIVDXPJTQV-GDOATJJJNA-M
     RDKit          3D

 58 61  0  0  0  0  0  0  0  0999 V2000
  136.6340   76.1870  220.6160 H   0  0  0  0  0  0  0  0  0  0  0  0
  136.6400   75.1770  220.5740 O   0  0  0  0  0  0  0  0  0  0  0  0
  137.6620   74.3710  221.0900 C   0  0  0  0  0  0  0  0  0  0  0  0
  137.4520   73.0720  221.3870 C   0  0  0  0  0  0  0  0  0  0  0  0
  136.8959   72.4541  220.6666 H   0  0  0  0  0  0  0  0  0  0  0  0
  137.9190   72.4560  222.5980 N   0  0  0  0  0  0  0  0  0  0  0  0
  137.4270   72.6360  223.5000 H   0  0  0  0  0  0  0  0  0  0  0  0
  139.1390   71.6960  222.6280 C   0  0  0  0  0  0  0  0  0  0  0  0
  139.7680   71.4760  221.5560 O   0  0  0  0  0  0  0  0  0  0  0  0
  139.6620   71.1610  223.9060 C   0  0  0  0  0  0  0  0  0  0  0  0
  139.2160   69.9610  224.3700 N   0  0  0  0  0  0  0  0  0  0  0  0
  139.6610   69.4230  225.5360 C   0  0  0  0  0  0  0  0  0  0  0  0
  139.1710   68.1860  225.9720 C   0  0  0  0  0  0  0  0  0  0  0  0
  138.4245   67.6469  225.3702 H   0  0  0  0  0  0  0  0  0  0  0  0
  139.6310   67.6360  227.1730 C   0  0  0  0  0  0  0  0  0  0  0  0
  139.2452   66.6639  227.5140 H   0  0  0  0  0  0  0  0  0  0  0  0
  140.5800   68.3180  227.9420 C   0  0  0  0  0  0  0  0  0  0  0  0
  141.0210   67.7800  229.1060 F   0  0  0  0  0  0  0  0  0  0  0  0
  141.0740   69.5560  227.5140 C   0  0  0  0  0  0  0  0  0  0  0  0
  141.8191   70.0909  228.1212 H   0  0  0  0  0  0  0  0  0  0  0  0
  140.6180   70.1140  226.3100 C   0  0  0  0  0  0  0  0  0  0  0  0
  141.0920   71.3490  225.8540 C   0  0  0  0  0  0  0  0  0  0  0  0
  141.8384   71.9037  226.4416 H   0  0  0  0  0  0  0  0  0  0  0  0
  140.6160   71.8760  224.6520 C   0  0  0  0  0  0  0  0  0  0  0  0
  140.9857   72.8467  224.2898 H   0  0  0  0  0  0  0  0  0  0  0  0
  138.9620   74.9770  221.2800 N   0  0  0  0  0  0  0  0  0  0  0  0
  140.0740   74.6860  220.3890 C   0  0  0  0  0  0  0  0  0  0  0  0
  140.3614   73.6272  220.4686 H   0  0  0  0  0  0  0  0  0  0  0  0
  139.8092   74.8722  219.3377 H   0  0  0  0  0  0  0  0  0  0  0  0
  141.2200   75.5830  220.8460 C   0  0  2  0  0  0  0  0  0  0  0  0
  141.3463   76.4565  220.1895 H   0  0  0  0  0  0  0  0  0  0  0  0
  142.4390   74.8900  220.8080 O   0  0  0  0  0  0  0  0  0  0  0  0
  142.9890   75.2490  221.5530 H   0  0  0  0  0  0  0  0  0  0  0  0
  140.8620   76.0060  222.2710 C   0  0  0  0  0  0  0  0  0  0  0  0
  141.3504   75.3450  223.0021 H   0  0  0  0  0  0  0  0  0  0  0  0
  141.1988   77.0302  222.4889 H   0  0  0  0  0  0  0  0  0  0  0  0
  139.3390   75.8770  222.3670 C   0  0  1  0  0  0  0  0  0  0  0  0
  139.0245   75.4965  223.3500 H   0  0  0  0  0  0  0  0  0  0  0  0
  138.6720   77.2250  222.1880 C   0  0  0  0  0  0  0  0  0  0  0  0
  137.7460   77.3390  221.3420 O   0  0  0  0  0  0  0  0  0  0  0  0
  139.0630   78.3890  222.9310 N   0  0  0  0  0  0  0  0  0  0  0  0
  140.2200   79.2450  222.6770 C   0  0  0  0  0  0  0  0  0  0  0  0
  140.5709   79.0962  221.6451 H   0  0  0  0  0  0  0  0  0  0  0  0
  141.3370   78.8710  223.6650 C   0  0  0  0  0  0  0  0  0  0  0  0
  140.9586   78.9782  224.6923 H   0  0  0  0  0  0  0  0  0  0  0  0
  141.6411   77.8318  223.4710 H   0  0  0  0  0  0  0  0  0  0  0  0
  142.5610   79.7780  223.4850 C   0  0  0  0  0  0  0  0  0  0  0  0
  143.3145   79.5202  224.2438 H   0  0  0  0  0  0  0  0  0  0  0  0
  142.9651   79.6250  222.4734 H   0  0  0  0  0  0  0  0  0  0  0  0
  142.1780   81.2540  223.6400 C   0  0  0  0  0  0  0  0  0  0  0  0
  141.8341   81.4302  224.6699 H   0  0  0  0  0  0  0  0  0  0  0  0
  143.0615   81.8706  223.4181 H   0  0  0  0  0  0  0  0  0  0  0  0
  141.0580   81.6360  222.6650 C   0  0  0  0  0  0  0  0  0  0  0  0
  140.7604   82.6786  222.8505 H   0  0  0  0  0  0  0  0  0  0  0  0
  141.4337   81.5179  221.6379 H   0  0  0  0  0  0  0  0  0  0  0  0
  139.8360   80.7270  222.8440 C   0  0  0  0  0  0  0  0  0  0  0  0
  139.4191   80.8792  223.8505 H   0  0  0  0  0  0  0  0  0  0  0  0
  139.0925   80.9847  222.0753 H   0  0  0  0  0  0  0  0  0  0  0  0
  1  2  1  0
  2  3  1  0
  3  4  2  0
  4  5  1  0
  4  6  1  0
  6  7  1  0
  6  8  1  0
  8  9  2  0
  8 10  1  0
 10 11  2  0
 11 12  1  0
 12 13  2  0
 13 14  1  0
 13 15  1  0
 15 16  1  0
 15 17  2  0
 17 18  1  0
 17 19  1  0
 19 20  1  0
 19 21  2  0
 21 22  1  0
 22 23  1  0
 22 24  2  0
 24 25  1  0
  3 26  1  0
 26 27  1  0
 27 28  1  0
 27 29  1  0
 27 30  1  0
 30 31  1  6
 30 32  1  0
 32 33  1  0
 30 34  1  0
 34 35  1  0
 34 36  1  0
 34 37  1  0
 37 38  1  1
 37 39  1  0
 39 40  2  0
 39 41  1  0
 41 42  1  0
 42 43  1  0
 42 44  1  0
 44 45  1  0
 44 46  1  0
 44 47  1  0
 47 48  1  0
 47 49  1  0
 47 50  1  0
 50 51  1  0
 50 52  1  0
 50 53  1  0
 53 54  1  0
 53 55  1  0
 53 56  1  0
 56 57  1  0
 56 58  1  0
 24 10  1  0
 37 26  1  0
 56 42  1  0
 21 12  1  0
M  CHG  1  41  -1
M  END
>  <UniqueID>  (24) 
138

>  <SMILES>  (24) 
O=C(N/C=C(\O)N1C[C@H](O)C[C@H]1C(=O)[N-]C1CCCCC1)c1ccc2cc(F)ccc2n1

>  <Energy>  (24) 
56.97971883532094

>  <Genealogy>  (24) 
O=C(NCC(=O)N1C[C@H](O)C[C@H]1C(=O)[N-]C1CCCCC1)c1ccc2cc(F)ccc2n1 (protonated)
O=C(NC=C(O)N1C[C@H](O)C[C@H]1C(=O)[N-]C1CCCCC1)c1ccc2cc(F)ccc2n1 (tautomer)
O=C(N/C=C(\O)N1C[C@H](O)C[C@H]1C(=O)[N-]C1CCCCC1)c1ccc2cc(F)ccc2n1 (cis-trans isomerization)
O=C(N/C=C(\O)N1C[C@H](O)C[C@H]1C(=O)[N-]C1CCCCC1)c1ccc2cc(F)ccc2n1 (3D coordinates assigned)
O=C(N/C=C(\O)N1C[C@H](O)C[C@H]1C(=O)[N-]C1CCCCC1)c1ccc2cc(F)ccc2n1 (nonaromatic ring conformer: 56.97971883532094 kcal/mol)

>  <smiles>  (24) 
O=C(NCC(=O)N1C[C@H](O)C[C@H]1C(=O)NC1CCCCC1)c1ccc2cc(F)ccc2n1

>  <score_type>  (24) 
oracle

>  <origin>  (24) 
autodockgpu

>  <m_score__min__energy>  (24) 
-8.2699999999999996

>  <m_primary>  (24) 
energy

>  <meeko>  (24) 
{"free_energy": -7.55, "intermolecular_energy": -10.24, "internal_energy": -2.28, "cluster_size": 2, "cluster_id": 4, "rank_in_cluster": 1}

>  <energy>  (24) 
-7.6

>  <cluster_rmsd>  (24) 
1.55

>  <rmsd>  (24) 
273.02

>  <cluster>  (24) 
1

$$$$
CFVPHIVDXPJTQV-GDOATJJJNA-M
     RDKit          3D

 58 61  0  0  0  0  0  0  0  0999 V2000
  142.0120   76.7010  222.7380 H   0  0  0  0  0  0  0  0  0  0  0  0
  141.1300   76.2410  222.5550 O   0  0  0  0  0  0  0  0  0  0  0  0
  140.8020   75.6160  221.3460 C   0  0  0  0  0  0  0  0  0  0  0  0
  139.8330   74.6790  221.2780 C   0  0  0  0  0  0  0  0  0  0  0  0
  139.1879   74.6571  220.3873 H   0  0  0  0  0  0  0  0  0  0  0  0
  139.6030   73.7090  222.3120 N   0  0  0  0  0  0  0  0  0  0  0  0
  138.9240   73.9100  223.0770 H   0  0  0  0  0  0  0  0  0  0  0  0
  140.3880   72.5070  222.3980 C   0  0  0  0  0  0  0  0  0  0  0  0
  141.2320   72.2440  221.4970 O   0  0  0  0  0  0  0  0  0  0  0  0
  140.2120   71.5720  223.5320 C   0  0  0  0  0  0  0  0  0  0  0  0
  140.6910   71.9040  224.7630 N   0  0  0  0  0  0  0  0  0  0  0  0
  140.5580   71.0830  225.8390 C   0  0  0  0  0  0  0  0  0  0  0  0
  141.0690   71.4680  227.0840 C   0  0  0  0  0  0  0  0  0  0  0  0
  141.5793   72.4362  227.1942 H   0  0  0  0  0  0  0  0  0  0  0  0
  140.9300   70.6200  228.1880 C   0  0  0  0  0  0  0  0  0  0  0  0
  141.3319   70.9234  229.1660 H   0  0  0  0  0  0  0  0  0  0  0  0
  140.2820   69.3880  228.0530 C   0  0  0  0  0  0  0  0  0  0  0  0
  140.1510   68.5710  229.1270 F   0  0  0  0  0  0  0  0  0  0  0  0
  139.7690   68.9950  226.8120 C   0  0  0  0  0  0  0  0  0  0  0  0
  139.2605   68.0251  226.7085 H   0  0  0  0  0  0  0  0  0  0  0  0
  139.9040   69.8400  225.6990 C   0  0  0  0  0  0  0  0  0  0  0  0
  139.4020   69.4770  224.4450 C   0  0  0  0  0  0  0  0  0  0  0  0
  138.8885   68.5130  224.3150 H   0  0  0  0  0  0  0  0  0  0  0  0
  139.5540   70.3410  223.3580 C   0  0  0  0  0  0  0  0  0  0  0  0
  139.1607   70.0599  222.3699 H   0  0  0  0  0  0  0  0  0  0  0  0
  141.5300   76.0200  220.1630 N   0  0  0  0  0  0  0  0  0  0  0  0
  141.9710   75.0510  219.1730 C   0  0  0  0  0  0  0  0  0  0  0  0
  142.7150   74.3689  219.6101 H   0  0  0  0  0  0  0  0  0  0  0  0
  141.1356   74.4328  218.8127 H   0  0  0  0  0  0  0  0  0  0  0  0
  142.5950   75.8630  218.0430 C   0  0  2  0  0  0  0  0  0  0  0  0
  141.9201   75.9530  217.1790 H   0  0  0  0  0  0  0  0  0  0  0  0
  143.7570   75.2380  217.5650 O   0  0  0  0  0  0  0  0  0  0  0  0
  144.5210   75.7940  217.8690 H   0  0  0  0  0  0  0  0  0  0  0  0
  142.9070   77.2300  218.6500 C   0  0  0  0  0  0  0  0  0  0  0  0
  143.9522   77.2694  218.9906 H   0  0  0  0  0  0  0  0  0  0  0  0
  142.7768   78.0400  217.9172 H   0  0  0  0  0  0  0  0  0  0  0  0
  141.9520   77.3810  219.8370 C   0  0  1  0  0  0  0  0  0  0  0  0
  142.4368   77.8820  220.6879 H   0  0  0  0  0  0  0  0  0  0  0  0
  140.7530   78.2260  219.4600 C   0  0  0  0  0  0  0  0  0  0  0  0
  139.9020   77.7540  218.6600 O   0  0  0  0  0  0  0  0  0  0  0  0
  140.5510   79.5540  219.9650 N   0  0  0  0  0  0  0  0  0  0  0  0
  140.6930   79.9970  221.3500 C   0  0  0  0  0  0  0  0  0  0  0  0
  140.2081   80.9762  221.4764 H   0  0  0  0  0  0  0  0  0  0  0  0
  142.1900   80.1120  221.6810 C   0  0  0  0  0  0  0  0  0  0  0  0
  142.6725   79.1393  221.5048 H   0  0  0  0  0  0  0  0  0  0  0  0
  142.6318   80.8856  221.0358 H   0  0  0  0  0  0  0  0  0  0  0  0
  142.4030   80.5190  223.1450 C   0  0  0  0  0  0  0  0  0  0  0  0
  143.4815   80.5364  223.3605 H   0  0  0  0  0  0  0  0  0  0  0  0
  141.9636   81.5155  223.2997 H   0  0  0  0  0  0  0  0  0  0  0  0
  141.7180   79.5300  224.0940 C   0  0  0  0  0  0  0  0  0  0  0  0
  142.1956   78.5443  223.9923 H   0  0  0  0  0  0  0  0  0  0  0  0
  141.8208   79.9036  225.1235 H   0  0  0  0  0  0  0  0  0  0  0  0
  140.2250   79.4000  223.7680 C   0  0  0  0  0  0  0  0  0  0  0  0
  139.7807   78.6330  224.4193 H   0  0  0  0  0  0  0  0  0  0  0  0
  139.7449   80.3754  223.9356 H   0  0  0  0  0  0  0  0  0  0  0  0
  140.0120   78.9980  222.3040 C   0  0  0  0  0  0  0  0  0  0  0  0
  140.4385   77.9973  222.1405 H   0  0  0  0  0  0  0  0  0  0  0  0
  138.9319   78.9967  222.0957 H   0  0  0  0  0  0  0  0  0  0  0  0
  1  2  1  0
  2  3  1  0
  3  4  2  0
  4  5  1  0
  4  6  1  0
  6  7  1  0
  6  8  1  0
  8  9  2  0
  8 10  1  0
 10 11  2  0
 11 12  1  0
 12 13  2  0
 13 14  1  0
 13 15  1  0
 15 16  1  0
 15 17  2  0
 17 18  1  0
 17 19  1  0
 19 20  1  0
 19 21  2  0
 21 22  1  0
 22 23  1  0
 22 24  2  0
 24 25  1  0
  3 26  1  0
 26 27  1  0
 27 28  1  0
 27 29  1  0
 27 30  1  0
 30 31  1  6
 30 32  1  0
 32 33  1  0
 30 34  1  0
 34 35  1  0
 34 36  1  0
 34 37  1  0
 37 38  1  1
 37 39  1  0
 39 40  2  0
 39 41  1  0
 41 42  1  0
 42 43  1  0
 42 44  1  0
 44 45  1  0
 44 46  1  0
 44 47  1  0
 47 48  1  0
 47 49  1  0
 47 50  1  0
 50 51  1  0
 50 52  1  0
 50 53  1  0
 53 54  1  0
 53 55  1  0
 53 56  1  0
 56 57  1  0
 56 58  1  0
 24 10  1  0
 37 26  1  0
 56 42  1  0
 21 12  1  0
M  CHG  1  41  -1
M  END
>  <UniqueID>  (25) 
138

>  <SMILES>  (25) 
O=C(N/C=C(\O)N1C[C@H](O)C[C@H]1C(=O)[N-]C1CCCCC1)c1ccc2cc(F)ccc2n1

>  <Energy>  (25) 
56.97971883532094

>  <Genealogy>  (25) 
O=C(NCC(=O)N1C[C@H](O)C[C@H]1C(=O)[N-]C1CCCCC1)c1ccc2cc(F)ccc2n1 (protonated)
O=C(NC=C(O)N1C[C@H](O)C[C@H]1C(=O)[N-]C1CCCCC1)c1ccc2cc(F)ccc2n1 (tautomer)
O=C(N/C=C(\O)N1C[C@H](O)C[C@H]1C(=O)[N-]C1CCCCC1)c1ccc2cc(F)ccc2n1 (cis-trans isomerization)
O=C(N/C=C(\O)N1C[C@H](O)C[C@H]1C(=O)[N-]C1CCCCC1)c1ccc2cc(F)ccc2n1 (3D coordinates assigned)
O=C(N/C=C(\O)N1C[C@H](O)C[C@H]1C(=O)[N-]C1CCCCC1)c1ccc2cc(F)ccc2n1 (nonaromatic ring conformer: 56.97971883532094 kcal/mol)

>  <smiles>  (25) 
O=C(NCC(=O)N1C[C@H](O)C[C@H]1C(=O)NC1CCCCC1)c1ccc2cc(F)ccc2n1

>  <score_type>  (25) 
oracle

>  <origin>  (25) 
autodockgpu

>  <m_score__min__energy>  (25) 
-8.2699999999999996

>  <m_primary>  (25) 
energy

>  <meeko>  (25) 
{"free_energy": -8.2, "intermolecular_energy": -10.89, "internal_energy": -1.72, "cluster_size": 13, "cluster_id": 1, "rank_in_cluster": 2}

>  <energy>  (25) 
-7.56

>  <cluster_rmsd>  (25) 
1.1

>  <rmsd>  (25) 
273.05

>  <cluster>  (25) 
1

$$$$
CFVPHIVDXPJTQV-GDOATJJJNA-M
     RDKit          3D

 58 61  0  0  0  0  0  0  0  0999 V2000
  140.3480   72.0460  219.1240 H   0  0  0  0  0  0  0  0  0  0  0  0
  140.5490   73.0270  218.9890 O   0  0  0  0  0  0  0  0  0  0  0  0
  140.0620   74.0530  219.8070 C   0  0  0  0  0  0  0  0  0  0  0  0
  139.0090   73.8580  220.6280 C   0  0  0  0  0  0  0  0  0  0  0  0
  138.0352   74.2800  220.3387 H   0  0  0  0  0  0  0  0  0  0  0  0
  139.0970   73.1260  221.8620 N   0  0  0  0  0  0  0  0  0  0  0  0
  139.0950   73.6340  222.7730 H   0  0  0  0  0  0  0  0  0  0  0  0
  139.3260   71.7070  221.8750 C   0  0  0  0  0  0  0  0  0  0  0  0
  139.3520   71.0660  220.7880 O   0  0  0  0  0  0  0  0  0  0  0  0
  139.5230   70.9880  223.1530 C   0  0  0  0  0  0  0  0  0  0  0  0
  140.0800   71.6350  224.2150 N   0  0  0  0  0  0  0  0  0  0  0  0
  140.2850   71.0240  225.4110 C   0  0  0  0  0  0  0  0  0  0  0  0
  140.8610   71.7320  226.4730 C   0  0  0  0  0  0  0  0  0  0  0  0
  141.1480   72.7856  226.3409 H   0  0  0  0  0  0  0  0  0  0  0  0
  141.0710   71.0980  227.7020 C   0  0  0  0  0  0  0  0  0  0  0  0
  141.5244   71.6550  228.5352 H   0  0  0  0  0  0  0  0  0  0  0  0
  140.7070   69.7590  227.8760 C   0  0  0  0  0  0  0  0  0  0  0  0
  140.9140   69.1510  229.0700 F   0  0  0  0  0  0  0  0  0  0  0  0
  140.1310   69.0440  226.8200 C   0  0  0  0  0  0  0  0  0  0  0  0
  139.8460   67.9908  226.9595 H   0  0  0  0  0  0  0  0  0  0  0  0
  139.9170   69.6710  225.5830 C   0  0  0  0  0  0  0  0  0  0  0  0
  139.3430   68.9850  224.5080 C   0  0  0  0  0  0  0  0  0  0  0  0
  139.0481   67.9313  224.6207 H   0  0  0  0  0  0  0  0  0  0  0  0
  139.1450   69.6410  223.2910 C   0  0  0  0  0  0  0  0  0  0  0  0
  138.6944   69.1050  222.4426 H   0  0  0  0  0  0  0  0  0  0  0  0
  140.7380   75.3310  219.7560 N   0  0  0  0  0  0  0  0  0  0  0  0
  140.8740   76.0690  218.5100 C   0  0  0  0  0  0  0  0  0  0  0  0
  141.5023   75.5104  217.8007 H   0  0  0  0  0  0  0  0  0  0  0  0
  139.8994   76.2272  218.0250 H   0  0  0  0  0  0  0  0  0  0  0  0
  141.5380   77.3920  218.8800 C   0  0  2  0  0  0  0  0  0  0  0  0
  140.8152   78.2205  218.9142 H   0  0  0  0  0  0  0  0  0  0  0  0
  142.4960   77.7520  217.9210 O   0  0  0  0  0  0  0  0  0  0  0  0
  143.1920   77.0440  217.9390 H   0  0  0  0  0  0  0  0  0  0  0  0
  142.1790   77.1560  220.2480 C   0  0  0  0  0  0  0  0  0  0  0  0
  143.2385   76.8830  220.1338 H   0  0  0  0  0  0  0  0  0  0  0  0
  142.1457   78.0594  220.8747 H   0  0  0  0  0  0  0  0  0  0  0  0
  141.3940   76.0010  220.8760 C   0  0  1  0  0  0  0  0  0  0  0  0
  142.0508   75.3225  221.4401 H   0  0  0  0  0  0  0  0  0  0  0  0
  140.3610   76.5210  221.8540 C   0  0  0  0  0  0  0  0  0  0  0  0
  139.8930   75.7360  222.7210 O   0  0  0  0  0  0  0  0  0  0  0  0
  139.8760   77.8720  221.8250 N   0  0  0  0  0  0  0  0  0  0  0  0
  140.4230   79.0160  222.5530 C   0  0  0  0  0  0  0  0  0  0  0  0
  139.6359   79.4722  223.1714 H   0  0  0  0  0  0  0  0  0  0  0  0
  140.9460   80.0430  221.5360 C   0  0  0  0  0  0  0  0  0  0  0  0
  141.6982   79.5616  220.8938 H   0  0  0  0  0  0  0  0  0  0  0  0
  140.0977   80.4028  220.9352 H   0  0  0  0  0  0  0  0  0  0  0  0
  141.5860   81.2440  222.2430 C   0  0  0  0  0  0  0  0  0  0  0  0
  141.9980   81.9290  221.4874 H   0  0  0  0  0  0  0  0  0  0  0  0
  140.8149   81.7509  222.8418 H   0  0  0  0  0  0  0  0  0  0  0  0
  142.7130   80.7920  223.1780 C   0  0  0  0  0  0  0  0  0  0  0  0
  143.5181   80.3413  222.5791 H   0  0  0  0  0  0  0  0  0  0  0  0
  143.0857   81.6693  223.7270 H   0  0  0  0  0  0  0  0  0  0  0  0
  142.2050   79.7600  224.1930 C   0  0  0  0  0  0  0  0  0  0  0  0
  143.0511   79.4068  224.8007 H   0  0  0  0  0  0  0  0  0  0  0  0
  141.4463   80.2390  224.8293 H   0  0  0  0  0  0  0  0  0  0  0  0
  141.5620   78.5620  223.4850 C   0  0  0  0  0  0  0  0  0  0  0  0
  142.3277   78.0426  222.8902 H   0  0  0  0  0  0  0  0  0  0  0  0
  141.1429   77.8888  224.2473 H   0  0  0  0  0  0  0  0  0  0  0  0
  1  2  1  0
  2  3  1  0
  3  4  2  0
  4  5  1  0
  4  6  1  0
  6  7  1  0
  6  8  1  0
  8  9  2  0
  8 10  1  0
 10 11  2  0
 11 12  1  0
 12 13  2  0
 13 14  1  0
 13 15  1  0
 15 16  1  0
 15 17  2  0
 17 18  1  0
 17 19  1  0
 19 20  1  0
 19 21  2  0
 21 22  1  0
 22 23  1  0
 22 24  2  0
 24 25  1  0
  3 26  1  0
 26 27  1  0
 27 28  1  0
 27 29  1  0
 27 30  1  0
 30 31  1  1
 30 32  1  0
 32 33  1  0
 30 34  1  0
 34 35  1  0
 34 36  1  0
 34 37  1  0
 37 38  1  1
 37 39  1  0
 39 40  2  0
 39 41  1  0
 41 42  1  0
 42 43  1  0
 42 44  1  0
 44 45  1  0
 44 46  1  0
 44 47  1  0
 47 48  1  0
 47 49  1  0
 47 50  1  0
 50 51  1  0
 50 52  1  0
 50 53  1  0
 53 54  1  0
 53 55  1  0
 53 56  1  0
 56 57  1  0
 56 58  1  0
 24 10  1  0
 37 26  1  0
 56 42  1  0
 21 12  1  0
M  CHG  1  41  -1
M  END
>  <UniqueID>  (26) 
138

>  <SMILES>  (26) 
O=C(N/C=C(\O)N1C[C@H](O)C[C@H]1C(=O)[N-]C1CCCCC1)c1ccc2cc(F)ccc2n1

>  <Energy>  (26) 
56.97971883532094

>  <Genealogy>  (26) 
O=C(NCC(=O)N1C[C@H](O)C[C@H]1C(=O)[N-]C1CCCCC1)c1ccc2cc(F)ccc2n1 (protonated)
O=C(NC=C(O)N1C[C@H](O)C[C@H]1C(=O)[N-]C1CCCCC1)c1ccc2cc(F)ccc2n1 (tautomer)
O=C(N/C=C(\O)N1C[C@H](O)C[C@H]1C(=O)[N-]C1CCCCC1)c1ccc2cc(F)ccc2n1 (cis-trans isomerization)
O=C(N/C=C(\O)N1C[C@H](O)C[C@H]1C(=O)[N-]C1CCCCC1)c1ccc2cc(F)ccc2n1 (3D coordinates assigned)
O=C(N/C=C(\O)N1C[C@H](O)C[C@H]1C(=O)[N-]C1CCCCC1)c1ccc2cc(F)ccc2n1 (nonaromatic ring conformer: 56.97971883532094 kcal/mol)

>  <smiles>  (26) 
O=C(NCC(=O)N1C[C@H](O)C[C@H]1C(=O)NC1CCCCC1)c1ccc2cc(F)ccc2n1

>  <score_type>  (26) 
oracle

>  <origin>  (26) 
autodockgpu

>  <m_score__min__energy>  (26) 
-8.2699999999999996

>  <m_primary>  (26) 
energy

>  <meeko>  (26) 
{"free_energy": -6.77, "intermolecular_energy": -9.45, "internal_energy": -3.03, "cluster_size": 13, "cluster_id": 1, "rank_in_cluster": 12}

>  <energy>  (26) 
-7.55

>  <cluster_rmsd>  (26) 
2.0

>  <rmsd>  (26) 
273.19

>  <cluster>  (26) 
1

$$$$
CFVPHIVDXPJTQV-GDOATJJJNA-M
     RDKit          3D

 58 61  0  0  0  0  0  0  0  0999 V2000
  141.9680   76.7540  222.7690 H   0  0  0  0  0  0  0  0  0  0  0  0
  141.1140   76.2410  222.5960 O   0  0  0  0  0  0  0  0  0  0  0  0
  140.8040   75.6080  221.3860 C   0  0  0  0  0  0  0  0  0  0  0  0
  139.8250   74.6830  221.3060 C   0  0  0  0  0  0  0  0  0  0  0  0
  139.1743   74.6852  220.4191 H   0  0  0  0  0  0  0  0  0  0  0  0
  139.5910   73.6950  222.3230 N   0  0  0  0  0  0  0  0  0  0  0  0
  138.8730   73.8640  223.0600 H   0  0  0  0  0  0  0  0  0  0  0  0
  140.4180   72.5250  222.4340 C   0  0  0  0  0  0  0  0  0  0  0  0
  141.3080   72.3020  221.5680 O   0  0  0  0  0  0  0  0  0  0  0  0
  140.2310   71.5740  223.5530 C   0  0  0  0  0  0  0  0  0  0  0  0
  140.6980   71.8900  224.7940 N   0  0  0  0  0  0  0  0  0  0  0  0
  140.5550   71.0540  225.8560 C   0  0  0  0  0  0  0  0  0  0  0  0
  141.0530   71.4230  227.1120 C   0  0  0  0  0  0  0  0  0  0  0  0
  141.5607   72.3903  227.2405 H   0  0  0  0  0  0  0  0  0  0  0  0
  140.9040   70.5600  228.2030 C   0  0  0  0  0  0  0  0  0  0  0  0
  141.2954   70.8505  229.1891 H   0  0  0  0  0  0  0  0  0  0  0  0
  140.2590   69.3290  228.0440 C   0  0  0  0  0  0  0  0  0  0  0  0
  140.1180   68.4970  229.1060 F   0  0  0  0  0  0  0  0  0  0  0  0
  139.7590   68.9530  226.7920 C   0  0  0  0  0  0  0  0  0  0  0  0
  139.2525   67.9842  226.6701 H   0  0  0  0  0  0  0  0  0  0  0  0
  139.9040   69.8120  225.6930 C   0  0  0  0  0  0  0  0  0  0  0  0
  139.4150   69.4660  224.4290 C   0  0  0  0  0  0  0  0  0  0  0  0
  138.9041   68.5033  224.2801 H   0  0  0  0  0  0  0  0  0  0  0  0
  139.5770   70.3460  223.3560 C   0  0  0  0  0  0  0  0  0  0  0  0
  139.1938   70.0784  222.3602 H   0  0  0  0  0  0  0  0  0  0  0  0
  141.5620   75.9930  220.2150 N   0  0  0  0  0  0  0  0  0  0  0  0
  142.0840   75.0020  219.2880 C   0  0  0  0  0  0  0  0  0  0  0  0
  142.8371   74.3726  219.7846 H   0  0  0  0  0  0  0  0  0  0  0  0
  141.2910   74.3327  218.9231 H   0  0  0  0  0  0  0  0  0  0  0  0
  142.7200   75.7910  218.1480 C   0  0  2  0  0  0  0  0  0  0  0  0
  142.0788   75.8137  217.2545 H   0  0  0  0  0  0  0  0  0  0  0  0
  143.9250   75.1980  217.7450 O   0  0  0  0  0  0  0  0  0  0  0  0
  144.6260   75.8950  217.8380 H   0  0  0  0  0  0  0  0  0  0  0  0
  142.9480   77.1960  218.7050 C   0  0  0  0  0  0  0  0  0  0  0  0
  143.9756   77.2965  219.0844 H   0  0  0  0  0  0  0  0  0  0  0  0
  142.8135   77.9669  217.9319 H   0  0  0  0  0  0  0  0  0  0  0  0
  141.9390   77.3560  219.8460 C   0  0  1  0  0  0  0  0  0  0  0  0
  142.3666   77.9146  220.6917 H   0  0  0  0  0  0  0  0  0  0  0  0
  140.7210   78.1290  219.3840 C   0  0  0  0  0  0  0  0  0  0  0  0
  139.9760   77.6240  218.5030 O   0  0  0  0  0  0  0  0  0  0  0  0
  140.3870   79.4280  219.8970 N   0  0  0  0  0  0  0  0  0  0  0  0
  140.6720   79.9420  221.2350 C   0  0  0  0  0  0  0  0  0  0  0  0
  140.1531   80.9010  221.3801 H   0  0  0  0  0  0  0  0  0  0  0  0
  142.1900   80.1460  221.3740 C   0  0  0  0  0  0  0  0  0  0  0  0
  142.6999   79.1910  221.1790 H   0  0  0  0  0  0  0  0  0  0  0  0
  142.5071   80.9096  220.6485 H   0  0  0  0  0  0  0  0  0  0  0  0
  142.5570   80.6310  222.7820 C   0  0  0  0  0  0  0  0  0  0  0  0
  143.6512   80.7105  222.8616 H   0  0  0  0  0  0  0  0  0  0  0  0
  142.0870   81.6114  222.9493 H   0  0  0  0  0  0  0  0  0  0  0  0
  142.0460   79.6550  223.8480 C   0  0  0  0  0  0  0  0  0  0  0  0
  142.5603   78.6901  223.7282 H   0  0  0  0  0  0  0  0  0  0  0  0
  142.2523   80.0814  224.8408 H   0  0  0  0  0  0  0  0  0  0  0  0
  140.5340   79.4370  223.7150 C   0  0  0  0  0  0  0  0  0  0  0  0
  140.2142   78.6809  224.4472 H   0  0  0  0  0  0  0  0  0  0  0  0
  140.0251   80.3943  223.9008 H   0  0  0  0  0  0  0  0  0  0  0  0
  140.1680   78.9560  222.3060 C   0  0  0  0  0  0  0  0  0  0  0  0
  140.6266   77.9714  222.1321 H   0  0  0  0  0  0  0  0  0  0  0  0
  139.0724   78.8906  222.2328 H   0  0  0  0  0  0  0  0  0  0  0  0
  1  2  1  0
  2  3  1  0
  3  4  2  0
  4  5  1  0
  4  6  1  0
  6  7  1  0
  6  8  1  0
  8  9  2  0
  8 10  1  0
 10 11  2  0
 11 12  1  0
 12 13  2  0
 13 14  1  0
 13 15  1  0
 15 16  1  0
 15 17  2  0
 17 18  1  0
 17 19  1  0
 19 20  1  0
 19 21  2  0
 21 22  1  0
 22 23  1  0
 22 24  2  0
 24 25  1  0
  3 26  1  0
 26 27  1  0
 27 28  1  0
 27 29  1  0
 27 30  1  0
 30 31  1  6
 30 32  1  0
 32 33  1  0
 30 34  1  0
 34 35  1  0
 34 36  1  0
 34 37  1  0
 37 38  1  1
 37 39  1  0
 39 40  2  0
 39 41  1  0
 41 42  1  0
 42 43  1  0
 42 44  1  0
 44 45  1  0
 44 46  1  0
 44 47  1  0
 47 48  1  0
 47 49  1  0
 47 50  1  0
 50 51  1  0
 50 52  1  0
 50 53  1  0
 53 54  1  0
 53 55  1  0
 53 56  1  0
 56 57  1  0
 56 58  1  0
 24 10  1  0
 37 26  1  0
 56 42  1  0
 21 12  1  0
M  CHG  1  41  -1
M  END
>  <UniqueID>  (27) 
138

>  <SMILES>  (27) 
O=C(N/C=C(\O)N1C[C@H](O)C[C@H]1C(=O)[N-]C1CCCCC1)c1ccc2cc(F)ccc2n1

>  <Energy>  (27) 
56.97971883532094

>  <Genealogy>  (27) 
O=C(NCC(=O)N1C[C@H](O)C[C@H]1C(=O)[N-]C1CCCCC1)c1ccc2cc(F)ccc2n1 (protonated)
O=C(NC=C(O)N1C[C@H](O)C[C@H]1C(=O)[N-]C1CCCCC1)c1ccc2cc(F)ccc2n1 (tautomer)
O=C(N/C=C(\O)N1C[C@H](O)C[C@H]1C(=O)[N-]C1CCCCC1)c1ccc2cc(F)ccc2n1 (cis-trans isomerization)
O=C(N/C=C(\O)N1C[C@H](O)C[C@H]1C(=O)[N-]C1CCCCC1)c1ccc2cc(F)ccc2n1 (3D coordinates assigned)
O=C(N/C=C(\O)N1C[C@H](O)C[C@H]1C(=O)[N-]C1CCCCC1)c1ccc2cc(F)ccc2n1 (nonaromatic ring conformer: 56.97971883532094 kcal/mol)

>  <smiles>  (27) 
O=C(NCC(=O)N1C[C@H](O)C[C@H]1C(=O)NC1CCCCC1)c1ccc2cc(F)ccc2n1

>  <score_type>  (27) 
oracle

>  <origin>  (27) 
autodockgpu

>  <m_score__min__energy>  (27) 
-8.2699999999999996

>  <m_primary>  (27) 
energy

>  <meeko>  (27) 
{"free_energy": -8.27, "intermolecular_energy": -10.96, "internal_energy": -1.68, "cluster_size": 13, "cluster_id": 1, "rank_in_cluster": 1}

>  <energy>  (27) 
-7.52

>  <cluster_rmsd>  (27) 
1.54

>  <rmsd>  (27) 
273.03

>  <cluster>  (27) 
1

$$$$
CFVPHIVDXPJTQV-GDOATJJJNA-M
     RDKit          3D

 58 61  0  0  0  0  0  0  0  0999 V2000
  141.8400   76.0700  221.9140 H   0  0  0  0  0  0  0  0  0  0  0  0
  141.2360   75.2610  221.9750 O   0  0  0  0  0  0  0  0  0  0  0  0
  140.0910   75.0710  221.1940 C   0  0  0  0  0  0  0  0  0  0  0  0
  139.3490   73.9470  221.2940 C   0  0  0  0  0  0  0  0  0  0  0  0
  138.6776   73.6874  220.4622 H   0  0  0  0  0  0  0  0  0  0  0  0
  139.3940   73.0740  222.4340 N   0  0  0  0  0  0  0  0  0  0  0  0
  139.5750   73.4630  223.3840 H   0  0  0  0  0  0  0  0  0  0  0  0
  139.3290   71.6450  222.2840 C   0  0  0  0  0  0  0  0  0  0  0  0
  139.1300   71.1430  221.1440 O   0  0  0  0  0  0  0  0  0  0  0  0
  139.4870   70.7570  223.4580 C   0  0  0  0  0  0  0  0  0  0  0  0
  140.0650   71.2350  224.5950 N   0  0  0  0  0  0  0  0  0  0  0  0
  140.2360   70.4640  225.7010 C   0  0  0  0  0  0  0  0  0  0  0  0
  140.8360   71.0010  226.8470 C   0  0  0  0  0  0  0  0  0  0  0  0
  141.1702   72.0490  226.8535 H   0  0  0  0  0  0  0  0  0  0  0  0
  141.0100   70.2040  227.9830 C   0  0  0  0  0  0  0  0  0  0  0  0
  141.4815   70.6271  228.8822 H   0  0  0  0  0  0  0  0  0  0  0  0
  140.5870   68.8720  227.9800 C   0  0  0  0  0  0  0  0  0  0  0  0
  140.7590   68.1040  229.0850 F   0  0  0  0  0  0  0  0  0  0  0  0
  139.9860   68.3260  226.8390 C   0  0  0  0  0  0  0  0  0  0  0  0
  139.6540   67.2773  226.8395 H   0  0  0  0  0  0  0  0  0  0  0  0
  139.8080   69.1190  225.6950 C   0  0  0  0  0  0  0  0  0  0  0  0
  139.2100   68.6050  224.5390 C   0  0  0  0  0  0  0  0  0  0  0  0
  138.8676   67.5600  224.5134 H   0  0  0  0  0  0  0  0  0  0  0  0
  139.0490   69.4220  223.4180 C   0  0  0  0  0  0  0  0  0  0  0  0
  138.5808   69.0220  222.5065 H   0  0  0  0  0  0  0  0  0  0  0  0
  139.7170   76.1290  220.2820 N   0  0  0  0  0  0  0  0  0  0  0  0
  138.4870   76.8850  220.4570 C   0  0  0  0  0  0  0  0  0  0  0  0
  137.6131   76.2291  220.3299 H   0  0  0  0  0  0  0  0  0  0  0  0
  138.4210   77.3221  221.4643 H   0  0  0  0  0  0  0  0  0  0  0  0
  138.5030   77.9630  219.3780 C   0  0  2  0  0  0  0  0  0  0  0  0
  138.7823   78.9468  219.7831 H   0  0  0  0  0  0  0  0  0  0  0  0
  137.2280   78.1230  218.8160 O   0  0  0  0  0  0  0  0  0  0  0  0
  136.8580   78.9630  219.1920 H   0  0  0  0  0  0  0  0  0  0  0  0
  139.5150   77.4820  218.3380 C   0  0  0  0  0  0  0  0  0  0  0  0
  139.0036   76.9512  217.5215 H   0  0  0  0  0  0  0  0  0  0  0  0
  140.0615   78.3215  217.8834 H   0  0  0  0  0  0  0  0  0  0  0  0
  140.4550   76.5330  219.0860 C   0  0  1  0  0  0  0  0  0  0  0  0
  140.7441   75.6730  218.4640 H   0  0  0  0  0  0  0  0  0  0  0  0
  141.7370   77.2400  219.4750 C   0  0  0  0  0  0  0  0  0  0  0  0
  142.6110   77.4460  218.5920 O   0  0  0  0  0  0  0  0  0  0  0  0
  142.0080   77.6730  220.8160 N   0  0  0  0  0  0  0  0  0  0  0  0
  141.3350   78.7480  221.5430 C   0  0  0  0  0  0  0  0  0  0  0  0
  140.2481   78.6728  221.3913 H   0  0  0  0  0  0  0  0  0  0  0  0
  141.8420   80.0980  221.0100 C   0  0  0  0  0  0  0  0  0  0  0  0
  142.9353   80.1409  221.1233 H   0  0  0  0  0  0  0  0  0  0  0  0
  141.5586   80.1831  219.9505 H   0  0  0  0  0  0  0  0  0  0  0  0
  141.2130   81.2680  221.7770 C   0  0  0  0  0  0  0  0  0  0  0  0
  141.6400   82.2120  221.4075 H   0  0  0  0  0  0  0  0  0  0  0  0
  140.1250   81.2496  221.6160 H   0  0  0  0  0  0  0  0  0  0  0  0
  141.4880   81.1470  223.2800 C   0  0  0  0  0  0  0  0  0  0  0  0
  142.5708   81.2299  223.4553 H   0  0  0  0  0  0  0  0  0  0  0  0
  140.9502   81.9532  223.8004 H   0  0  0  0  0  0  0  0  0  0  0  0
  140.9940   79.8010  223.8230 C   0  0  0  0  0  0  0  0  0  0  0  0
  141.2688   79.7194  224.8850 H   0  0  0  0  0  0  0  0  0  0  0  0
  139.9017   79.7551  223.7015 H   0  0  0  0  0  0  0  0  0  0  0  0
  141.6190   78.6320  223.0530 C   0  0  0  0  0  0  0  0  0  0  0  0
  142.7070   78.6355  223.2153 H   0  0  0  0  0  0  0  0  0  0  0  0
  141.1765   77.6946  223.4209 H   0  0  0  0  0  0  0  0  0  0  0  0
  1  2  1  0
  2  3  1  0
  3  4  2  0
  4  5  1  0
  4  6  1  0
  6  7  1  0
  6  8  1  0
  8  9  2  0
  8 10  1  0
 10 11  2  0
 11 12  1  0
 12 13  2  0
 13 14  1  0
 13 15  1  0
 15 16  1  0
 15 17  2  0
 17 18  1  0
 17 19  1  0
 19 20  1  0
 19 21  2  0
 21 22  1  0
 22 23  1  0
 22 24  2  0
 24 25  1  0
  3 26  1  0
 26 27  1  0
 27 28  1  0
 27 29  1  0
 27 30  1  0
 30 31  1  1
 30 32  1  0
 32 33  1  0
 30 34  1  0
 34 35  1  0
 34 36  1  0
 34 37  1  0
 37 38  1  6
 37 39  1  0
 39 40  2  0
 39 41  1  0
 41 42  1  0
 42 43  1  0
 42 44  1  0
 44 45  1  0
 44 46  1  0
 44 47  1  0
 47 48  1  0
 47 49  1  0
 47 50  1  0
 50 51  1  0
 50 52  1  0
 50 53  1  0
 53 54  1  0
 53 55  1  0
 53 56  1  0
 56 57  1  0
 56 58  1  0
 24 10  1  0
 37 26  1  0
 56 42  1  0
 21 12  1  0
M  CHG  1  41  -1
M  END
>  <UniqueID>  (28) 
138

>  <SMILES>  (28) 
O=C(N/C=C(\O)N1C[C@H](O)C[C@H]1C(=O)[N-]C1CCCCC1)c1ccc2cc(F)ccc2n1

>  <Energy>  (28) 
56.97971883532094

>  <Genealogy>  (28) 
O=C(NCC(=O)N1C[C@H](O)C[C@H]1C(=O)[N-]C1CCCCC1)c1ccc2cc(F)ccc2n1 (protonated)
O=C(NC=C(O)N1C[C@H](O)C[C@H]1C(=O)[N-]C1CCCCC1)c1ccc2cc(F)ccc2n1 (tautomer)
O=C(N/C=C(\O)N1C[C@H](O)C[C@H]1C(=O)[N-]C1CCCCC1)c1ccc2cc(F)ccc2n1 (cis-trans isomerization)
O=C(N/C=C(\O)N1C[C@H](O)C[C@H]1C(=O)[N-]C1CCCCC1)c1ccc2cc(F)ccc2n1 (3D coordinates assigned)
O=C(N/C=C(\O)N1C[C@H](O)C[C@H]1C(=O)[N-]C1CCCCC1)c1ccc2cc(F)ccc2n1 (nonaromatic ring conformer: 56.97971883532094 kcal/mol)

>  <smiles>  (28) 
O=C(NCC(=O)N1C[C@H](O)C[C@H]1C(=O)NC1CCCCC1)c1ccc2cc(F)ccc2n1

>  <score_type>  (28) 
oracle

>  <origin>  (28) 
autodockgpu

>  <m_score__min__energy>  (28) 
-8.2699999999999996

>  <m_primary>  (28) 
energy

>  <meeko>  (28) 
{"free_energy": -6.68, "intermolecular_energy": -9.37, "internal_energy": -2.66, "cluster_size": 13, "cluster_id": 1, "rank_in_cluster": 13}

>  <energy>  (28) 
-7.42

>  <cluster_rmsd>  (28) 
1.96

>  <rmsd>  (28) 
273.23

>  <cluster>  (28) 
1

$$$$
CFVPHIVDXPJTQV-GDOATJJJNA-M
     RDKit          3D

 58 61  0  0  0  0  0  0  0  0999 V2000
  139.4070   73.8430  218.9790 H   0  0  0  0  0  0  0  0  0  0  0  0
  139.2090   72.9250  219.3550 O   0  0  0  0  0  0  0  0  0  0  0  0
  138.6370   72.6940  220.6110 C   0  0  0  0  0  0  0  0  0  0  0  0
  137.8460   73.6120  221.2050 C   0  0  0  0  0  0  0  0  0  0  0  0
  136.7561   73.4687  221.1645 H   0  0  0  0  0  0  0  0  0  0  0  0
  138.3590   74.7680  221.8880 N   0  0  0  0  0  0  0  0  0  0  0  0
  138.2230   74.8710  222.9170 H   0  0  0  0  0  0  0  0  0  0  0  0
  138.9440   75.8650  221.1660 C   0  0  0  0  0  0  0  0  0  0  0  0
  139.1050   75.7790  219.9170 O   0  0  0  0  0  0  0  0  0  0  0  0
  139.3660   77.0930  221.8750 C   0  0  0  0  0  0  0  0  0  0  0  0
  140.6590   77.5140  221.7890 N   0  0  0  0  0  0  0  0  0  0  0  0
  141.1020   78.6330  222.4210 C   0  0  0  0  0  0  0  0  0  0  0  0
  142.4410   79.0240  222.3030 C   0  0  0  0  0  0  0  0  0  0  0  0
  143.1380   78.4249  221.6987 H   0  0  0  0  0  0  0  0  0  0  0  0
  142.8920   80.1770  222.9540 C   0  0  0  0  0  0  0  0  0  0  0  0
  143.9443   80.4832  222.8600 H   0  0  0  0  0  0  0  0  0  0  0  0
  142.0100   80.9420  223.7240 C   0  0  0  0  0  0  0  0  0  0  0  0
  142.4540   82.0580  224.3530 F   0  0  0  0  0  0  0  0  0  0  0  0
  140.6700   80.5580  223.8480 C   0  0  0  0  0  0  0  0  0  0  0  0
  139.9785   81.1612  224.4547 H   0  0  0  0  0  0  0  0  0  0  0  0
  140.2090   79.4030  223.1980 C   0  0  0  0  0  0  0  0  0  0  0  0
  138.8750   78.9930  223.3000 C   0  0  0  0  0  0  0  0  0  0  0  0
  138.1622   79.5791  223.8986 H   0  0  0  0  0  0  0  0  0  0  0  0
  138.4510   77.8380  222.6400 C   0  0  0  0  0  0  0  0  0  0  0  0
  137.4035   77.5115  222.7183 H   0  0  0  0  0  0  0  0  0  0  0  0
  138.9100   71.4240  221.2490 N   0  0  0  0  0  0  0  0  0  0  0  0
  139.2210   70.2350  220.4720 C   0  0  0  0  0  0  0  0  0  0  0  0
  138.3558   69.9404  219.8599 H   0  0  0  0  0  0  0  0  0  0  0  0
  140.0608   70.4098  219.7834 H   0  0  0  0  0  0  0  0  0  0  0  0
  139.5470   69.1460  221.4900 C   0  0  2  0  0  0  0  0  0  0  0  0
  140.6301   68.9758  221.5790 H   0  0  0  0  0  0  0  0  0  0  0  0
  138.9920   67.9180  221.0990 O   0  0  0  0  0  0  0  0  0  0  0  0
  139.5930   67.2120  221.4540 H   0  0  0  0  0  0  0  0  0  0  0  0
  138.9500   69.6330  222.8100 C   0  0  0  0  0  0  0  0  0  0  0  0
  137.9501   69.2005  222.9619 H   0  0  0  0  0  0  0  0  0  0  0  0
  139.5650   69.3314  223.6707 H   0  0  0  0  0  0  0  0  0  0  0  0
  138.8600   71.1560  222.6840 C   0  0  1  0  0  0  0  0  0  0  0  0
  137.9441   71.5494  223.1492 H   0  0  0  0  0  0  0  0  0  0  0  0
  140.0260   71.8240  223.3840 C   0  0  0  0  0  0  0  0  0  0  0  0
  140.3510   72.9930  223.0450 O   0  0  0  0  0  0  0  0  0  0  0  0
  140.7910   71.1740  224.4090 N   0  0  0  0  0  0  0  0  0  0  0  0
  140.3010   70.7030  225.7030 C   0  0  0  0  0  0  0  0  0  0  0  0
  139.2159   70.8704  225.7705 H   0  0  0  0  0  0  0  0  0  0  0  0
  141.0190   71.4840  226.8170 C   0  0  0  0  0  0  0  0  0  0  0  0
  142.1050   71.3469  226.7089 H   0  0  0  0  0  0  0  0  0  0  0  0
  140.7519   72.5471  226.7255 H   0  0  0  0  0  0  0  0  0  0  0  0
  140.5880   70.9920  228.2040 C   0  0  0  0  0  0  0  0  0  0  0  0
  141.1620   71.5315  228.9718 H   0  0  0  0  0  0  0  0  0  0  0  0
  139.5112   71.1816  228.3249 H   0  0  0  0  0  0  0  0  0  0  0  0
  140.8400   69.4870  228.3540 C   0  0  0  0  0  0  0  0  0  0  0  0
  141.9220   69.2964  228.2998 H   0  0  0  0  0  0  0  0  0  0  0  0
  140.4388   69.1598  229.3246 H   0  0  0  0  0  0  0  0  0  0  0  0
  140.1360   68.6980  227.2440 C   0  0  0  0  0  0  0  0  0  0  0  0
  140.3942   67.6331  227.3410 H   0  0  0  0  0  0  0  0  0  0  0  0
  139.0505   68.8435  227.3465 H   0  0  0  0  0  0  0  0  0  0  0  0
  140.5650   69.1930  225.8580 C   0  0  0  0  0  0  0  0  0  0  0  0
  141.6397   69.0005  225.7244 H   0  0  0  0  0  0  0  0  0  0  0  0
  139.9789   68.6557  225.0979 H   0  0  0  0  0  0  0  0  0  0  0  0
  1  2  1  0
  2  3  1  0
  3  4  2  0
  4  5  1  0
  4  6  1  0
  6  7  1  0
  6  8  1  0
  8  9  2  0
  8 10  1  0
 10 11  2  0
 11 12  1  0
 12 13  2  0
 13 14  1  0
 13 15  1  0
 15 16  1  0
 15 17  2  0
 17 18  1  0
 17 19  1  0
 19 20  1  0
 19 21  2  0
 21 22  1  0
 22 23  1  0
 22 24  2  0
 24 25  1  0
  3 26  1  0
 26 27  1  0
 27 28  1  0
 27 29  1  0
 27 30  1  0
 30 31  1  1
 30 32  1  0
 32 33  1  0
 30 34  1  0
 34 35  1  0
 34 36  1  0
 34 37  1  0
 37 38  1  1
 37 39  1  0
 39 40  2  0
 39 41  1  0
 41 42  1  0
 42 43  1  0
 42 44  1  0
 44 45  1  0
 44 46  1  0
 44 47  1  0
 47 48  1  0
 47 49  1  0
 47 50  1  0
 50 51  1  0
 50 52  1  0
 50 53  1  0
 53 54  1  0
 53 55  1  0
 53 56  1  0
 56 57  1  0
 56 58  1  0
 24 10  1  0
 37 26  1  0
 56 42  1  0
 21 12  1  0
M  CHG  1  41  -1
M  END
>  <UniqueID>  (29) 
138

>  <SMILES>  (29) 
O=C(N/C=C(\O)N1C[C@H](O)C[C@H]1C(=O)[N-]C1CCCCC1)c1ccc2cc(F)ccc2n1

>  <Energy>  (29) 
56.97971883532094

>  <Genealogy>  (29) 
O=C(NCC(=O)N1C[C@H](O)C[C@H]1C(=O)[N-]C1CCCCC1)c1ccc2cc(F)ccc2n1 (protonated)
O=C(NC=C(O)N1C[C@H](O)C[C@H]1C(=O)[N-]C1CCCCC1)c1ccc2cc(F)ccc2n1 (tautomer)
O=C(N/C=C(\O)N1C[C@H](O)C[C@H]1C(=O)[N-]C1CCCCC1)c1ccc2cc(F)ccc2n1 (cis-trans isomerization)
O=C(N/C=C(\O)N1C[C@H](O)C[C@H]1C(=O)[N-]C1CCCCC1)c1ccc2cc(F)ccc2n1 (3D coordinates assigned)
O=C(N/C=C(\O)N1C[C@H](O)C[C@H]1C(=O)[N-]C1CCCCC1)c1ccc2cc(F)ccc2n1 (nonaromatic ring conformer: 56.97971883532094 kcal/mol)

>  <smiles>  (29) 
O=C(NCC(=O)N1C[C@H](O)C[C@H]1C(=O)NC1CCCCC1)c1ccc2cc(F)ccc2n1

>  <score_type>  (29) 
oracle

>  <origin>  (29) 
autodockgpu

>  <m_score__min__energy>  (29) 
-8.2699999999999996

>  <m_primary>  (29) 
energy

>  <meeko>  (29) 
{"free_energy": -7.25, "intermolecular_energy": -9.94, "internal_energy": -2.18, "cluster_size": 2, "cluster_id": 6, "rank_in_cluster": 1}

>  <energy>  (29) 
-7.31

>  <cluster_rmsd>  (29) 
1.64

>  <rmsd>  (29) 
273.59

>  <cluster>  (29) 
1

$$$$
CFVPHIVDXPJTQV-GDOATJJJNA-M
     RDKit          3D

 58 61  0  0  0  0  0  0  0  0999 V2000
  137.3660   78.5280  222.8520 H   0  0  0  0  0  0  0  0  0  0  0  0
  137.7640   77.6220  222.6460 O   0  0  0  0  0  0  0  0  0  0  0  0
  139.1080   77.4070  222.3180 C   0  0  0  0  0  0  0  0  0  0  0  0
  139.5180   76.2520  221.7530 C   0  0  0  0  0  0  0  0  0  0  0  0
  140.0949   76.3031  220.8178 H   0  0  0  0  0  0  0  0  0  0  0  0
  139.2380   74.9590  222.3130 N   0  0  0  0  0  0  0  0  0  0  0  0
  138.5140   74.8570  223.0570 H   0  0  0  0  0  0  0  0  0  0  0  0
  140.0270   73.8080  221.9680 C   0  0  0  0  0  0  0  0  0  0  0  0
  140.9230   73.9040  221.0840 O   0  0  0  0  0  0  0  0  0  0  0  0
  139.7950   72.5080  222.6370 C   0  0  0  0  0  0  0  0  0  0  0  0
  140.3700   72.2560  223.8450 N   0  0  0  0  0  0  0  0  0  0  0  0
  140.1920   71.0800  224.5030 C   0  0  0  0  0  0  0  0  0  0  0  0
  140.8060   70.8680  225.7440 C   0  0  0  0  0  0  0  0  0  0  0  0
  141.4345   71.6536  226.1888 H   0  0  0  0  0  0  0  0  0  0  0  0
  140.6190   69.6560  226.4170 C   0  0  0  0  0  0  0  0  0  0  0  0
  141.1017   69.4905  227.3915 H   0  0  0  0  0  0  0  0  0  0  0  0
  139.8210   68.6540  225.8560 C   0  0  0  0  0  0  0  0  0  0  0  0
  139.6450   67.4810  226.5130 F   0  0  0  0  0  0  0  0  0  0  0  0
  139.2040   68.8570  224.6160 C   0  0  0  0  0  0  0  0  0  0  0  0
  138.5773   68.0669  224.1767 H   0  0  0  0  0  0  0  0  0  0  0  0
  139.3860   70.0700  223.9340 C   0  0  0  0  0  0  0  0  0  0  0  0
  138.7830   70.3050  222.6930 C   0  0  0  0  0  0  0  0  0  0  0  0
  138.1510   69.5319  222.2316 H   0  0  0  0  0  0  0  0  0  0  0  0
  138.9860   71.5240  222.0420 C   0  0  0  0  0  0  0  0  0  0  0  0
  138.5142   71.7136  221.0666 H   0  0  0  0  0  0  0  0  0  0  0  0
  140.0440   78.4750  222.5920 N   0  0  0  0  0  0  0  0  0  0  0  0
  141.3650   78.5020  221.9850 C   0  0  0  0  0  0  0  0  0  0  0  0
  141.9649   77.6494  222.3359 H   0  0  0  0  0  0  0  0  0  0  0  0
  141.3075   78.4296  220.8889 H   0  0  0  0  0  0  0  0  0  0  0  0
  142.0010   79.8160  222.4270 C   0  0  2  0  0  0  0  0  0  0  0  0
  141.9759   80.5741  221.6304 H   0  0  0  0  0  0  0  0  0  0  0  0
  143.3550   79.6320  222.7440 O   0  0  0  0  0  0  0  0  0  0  0  0
  143.7310   79.0430  222.0390 H   0  0  0  0  0  0  0  0  0  0  0  0
  141.1980   80.2640  223.6490 C   0  0  0  0  0  0  0  0  0  0  0  0
  141.6950   79.9395  224.5751 H   0  0  0  0  0  0  0  0  0  0  0  0
  141.1091   81.3593  223.6986 H   0  0  0  0  0  0  0  0  0  0  0  0
  139.8300   79.5900  223.5120 C   0  0  1  0  0  0  0  0  0  0  0  0
  139.4412   79.2584  224.4861 H   0  0  0  0  0  0  0  0  0  0  0  0
  138.8100   80.5520  222.9400 C   0  0  0  0  0  0  0  0  0  0  0  0
  139.1990   81.4630  222.1620 O   0  0  0  0  0  0  0  0  0  0  0  0
  137.4130   80.4830  223.2620 N   0  0  0  0  0  0  0  0  0  0  0  0
  136.7000   81.2850  224.2550 C   0  0  0  0  0  0  0  0  0  0  0  0
  136.3361   82.2124  223.7886 H   0  0  0  0  0  0  0  0  0  0  0  0
  137.6660   81.6250  225.4020 C   0  0  0  0  0  0  0  0  0  0  0  0
  138.0598   80.6907  225.8287 H   0  0  0  0  0  0  0  0  0  0  0  0
  138.4832   82.2412  224.9988 H   0  0  0  0  0  0  0  0  0  0  0  0
  136.9570   82.4190  226.5050 C   0  0  0  0  0  0  0  0  0  0  0  0
  137.6611   82.5939  227.3319 H   0  0  0  0  0  0  0  0  0  0  0  0
  136.6133   83.3751  226.0835 H   0  0  0  0  0  0  0  0  0  0  0  0
  135.7400   81.6530  227.0360 C   0  0  0  0  0  0  0  0  0  0  0  0
  136.0813   80.7247  227.5175 H   0  0  0  0  0  0  0  0  0  0  0  0
  135.2128   82.2916  227.7601 H   0  0  0  0  0  0  0  0  0  0  0  0
  134.7730   81.3020  225.9000 C   0  0  0  0  0  0  0  0  0  0  0  0
  133.9495   80.6948  226.3040 H   0  0  0  0  0  0  0  0  0  0  0  0
  134.3879   82.2373  225.4676 H   0  0  0  0  0  0  0  0  0  0  0  0
  135.4830   80.5110  224.7950 C   0  0  0  0  0  0  0  0  0  0  0  0
  135.8221   79.5477  225.2037 H   0  0  0  0  0  0  0  0  0  0  0  0
  134.7748   80.3519  223.9685 H   0  0  0  0  0  0  0  0  0  0  0  0
  1  2  1  0
  2  3  1  0
  3  4  2  0
  4  5  1  0
  4  6  1  0
  6  7  1  0
  6  8  1  0
  8  9  2  0
  8 10  1  0
 10 11  2  0
 11 12  1  0
 12 13  2  0
 13 14  1  0
 13 15  1  0
 15 16  1  0
 15 17  2  0
 17 18  1  0
 17 19  1  0
 19 20  1  0
 19 21  2  0
 21 22  1  0
 22 23  1  0
 22 24  2  0
 24 25  1  0
  3 26  1  0
 26 27  1  0
 27 28  1  0
 27 29  1  0
 27 30  1  0
 30 31  1  6
 30 32  1  0
 32 33  1  0
 30 34  1  0
 34 35  1  0
 34 36  1  0
 34 37  1  0
 37 38  1  1
 37 39  1  0
 39 40  2  0
 39 41  1  0
 41 42  1  0
 42 43  1  0
 42 44  1  0
 44 45  1  0
 44 46  1  0
 44 47  1  0
 47 48  1  0
 47 49  1  0
 47 50  1  0
 50 51  1  0
 50 52  1  0
 50 53  1  0
 53 54  1  0
 53 55  1  0
 53 56  1  0
 56 57  1  0
 56 58  1  0
 24 10  1  0
 37 26  1  0
 56 42  1  0
 21 12  1  0
M  CHG  1  41  -1
M  END
>  <UniqueID>  (30) 
138

>  <SMILES>  (30) 
O=C(N/C=C(\O)N1C[C@H](O)C[C@H]1C(=O)[N-]C1CCCCC1)c1ccc2cc(F)ccc2n1

>  <Energy>  (30) 
56.97971883532094

>  <Genealogy>  (30) 
O=C(NCC(=O)N1C[C@H](O)C[C@H]1C(=O)[N-]C1CCCCC1)c1ccc2cc(F)ccc2n1 (protonated)
O=C(NC=C(O)N1C[C@H](O)C[C@H]1C(=O)[N-]C1CCCCC1)c1ccc2cc(F)ccc2n1 (tautomer)
O=C(N/C=C(\O)N1C[C@H](O)C[C@H]1C(=O)[N-]C1CCCCC1)c1ccc2cc(F)ccc2n1 (cis-trans isomerization)
O=C(N/C=C(\O)N1C[C@H](O)C[C@H]1C(=O)[N-]C1CCCCC1)c1ccc2cc(F)ccc2n1 (3D coordinates assigned)
O=C(N/C=C(\O)N1C[C@H](O)C[C@H]1C(=O)[N-]C1CCCCC1)c1ccc2cc(F)ccc2n1 (nonaromatic ring conformer: 56.97971883532094 kcal/mol)

>  <smiles>  (30) 
O=C(NCC(=O)N1C[C@H](O)C[C@H]1C(=O)NC1CCCCC1)c1ccc2cc(F)ccc2n1

>  <score_type>  (30) 
oracle

>  <origin>  (30) 
autodockgpu

>  <m_score__min__energy>  (30) 
-8.2699999999999996

>  <m_primary>  (30) 
energy

>  <meeko>  (30) 
{"free_energy": -7.4, "intermolecular_energy": -10.09, "internal_energy": -2.16, "cluster_size": 1, "cluster_id": 5, "rank_in_cluster": 1}

>  <energy>  (30) 
-7.2

>  <cluster_rmsd>  (30) 
1.62

>  <rmsd>  (30) 
273.2

>  <cluster>  (30) 
1

$$$$
CFVPHIVDXPJTQV-GDOATJJJNA-M
     RDKit          3D

 58 61  0  0  0  0  0  0  0  0999 V2000
  137.0070   74.4650  219.3490 H   0  0  0  0  0  0  0  0  0  0  0  0
  137.2530   73.5270  219.6350 O   0  0  0  0  0  0  0  0  0  0  0  0
  137.7510   73.1920  220.8990 C   0  0  0  0  0  0  0  0  0  0  0  0
  137.4580   73.9310  221.9900 C   0  0  0  0  0  0  0  0  0  0  0  0
  136.6335   73.6016  222.6394 H   0  0  0  0  0  0  0  0  0  0  0  0
  138.1710   75.1270  222.3440 N   0  0  0  0  0  0  0  0  0  0  0  0
  138.8010   75.1340  223.1750 H   0  0  0  0  0  0  0  0  0  0  0  0
  137.9350   76.3690  221.6580 C   0  0  0  0  0  0  0  0  0  0  0  0
  137.1630   76.3970  220.6610 O   0  0  0  0  0  0  0  0  0  0  0  0
  138.5970   77.6140  222.1080 C   0  0  0  0  0  0  0  0  0  0  0  0
  139.8850   77.5750  222.5490 N   0  0  0  0  0  0  0  0  0  0  0  0
  140.5400   78.6880  222.9740 C   0  0  0  0  0  0  0  0  0  0  0  0
  141.8650   78.5960  223.4190 C   0  0  0  0  0  0  0  0  0  0  0  0
  142.3779   77.6229  223.4249 H   0  0  0  0  0  0  0  0  0  0  0  0
  142.5350   79.7440  223.8560 C   0  0  0  0  0  0  0  0  0  0  0  0
  143.5754   79.6712  224.2058 H   0  0  0  0  0  0  0  0  0  0  0  0
  141.8880   80.9830  223.8500 C   0  0  0  0  0  0  0  0  0  0  0  0
  142.5430   82.0910  224.2750 F   0  0  0  0  0  0  0  0  0  0  0  0
  140.5640   81.0830  223.4070 C   0  0  0  0  0  0  0  0  0  0  0  0
  140.0570   82.0592  223.4040 H   0  0  0  0  0  0  0  0  0  0  0  0
  139.8840   79.9380  222.9670 C   0  0  0  0  0  0  0  0  0  0  0  0
  138.5600   80.0040  222.5180 C   0  0  0  0  0  0  0  0  0  0  0  0
  138.0298   80.9677  222.5039 H   0  0  0  0  0  0  0  0  0  0  0  0
  137.9140   78.8430  222.0880 C   0  0  0  0  0  0  0  0  0  0  0  0
  136.8734   78.8898  221.7345 H   0  0  0  0  0  0  0  0  0  0  0  0
  138.5820   72.0120  221.0020 N   0  0  0  0  0  0  0  0  0  0  0  0
  139.0920   71.3350  219.8200 C   0  0  0  0  0  0  0  0  0  0  0  0
  138.2629   70.9129  219.2331 H   0  0  0  0  0  0  0  0  0  0  0  0
  139.6368   72.0273  219.1612 H   0  0  0  0  0  0  0  0  0  0  0  0
  139.9980   70.2220  220.3350 C   0  0  2  0  0  0  0  0  0  0  0  0
  141.0630   70.4829  220.2468 H   0  0  0  0  0  0  0  0  0  0  0  0
  139.8210   69.0500  219.5830 O   0  0  0  0  0  0  0  0  0  0  0  0
  139.1860   69.2770  218.8540 H   0  0  0  0  0  0  0  0  0  0  0  0
  139.5950   70.0140  221.7950 C   0  0  0  0  0  0  0  0  0  0  0  0
  138.8679   69.1929  221.8793 H   0  0  0  0  0  0  0  0  0  0  0  0
  140.4584   69.7447  222.4211 H   0  0  0  0  0  0  0  0  0  0  0  0
  138.9630   71.3350  222.2400 C   0  0  1  0  0  0  0  0  0  0  0  0
  138.1037   71.1703  222.9067 H   0  0  0  0  0  0  0  0  0  0  0  0
  139.9590   72.1760  223.0120 C   0  0  0  0  0  0  0  0  0  0  0  0
  140.1210   73.3820  222.6860 O   0  0  0  0  0  0  0  0  0  0  0  0
  140.7420   71.6510  224.0940 N   0  0  0  0  0  0  0  0  0  0  0  0
  140.2540   71.2250  225.4040 C   0  0  0  0  0  0  0  0  0  0  0  0
  139.2065   71.5375  225.5270 H   0  0  0  0  0  0  0  0  0  0  0  0
  141.1220   71.8780  226.4920 C   0  0  0  0  0  0  0  0  0  0  0  0
  142.1730   71.5975  226.3288 H   0  0  0  0  0  0  0  0  0  0  0  0
  140.9972   72.9691  226.4286 H   0  0  0  0  0  0  0  0  0  0  0  0
  140.6940   71.4210  227.8920 C   0  0  0  0  0  0  0  0  0  0  0  0
  141.3721   71.8616  228.6377 H   0  0  0  0  0  0  0  0  0  0  0  0
  139.6603   71.7527  228.0693 H   0  0  0  0  0  0  0  0  0  0  0  0
  140.7450   69.8930  228.0080 C   0  0  0  0  0  0  0  0  0  0  0  0
  141.7871   69.5585  227.8975 H   0  0  0  0  0  0  0  0  0  0  0  0
  140.3493   69.6032  228.9926 H   0  0  0  0  0  0  0  0  0  0  0  0
  139.8880   69.2300  226.9230 C   0  0  0  0  0  0  0  0  0  0  0  0
  140.0021   68.1381  226.9924 H   0  0  0  0  0  0  0  0  0  0  0  0
  138.8387   69.5199  227.0809 H   0  0  0  0  0  0  0  0  0  0  0  0
  140.3150   69.6900  225.5250 C   0  0  0  0  0  0  0  0  0  0  0  0
  141.3456   69.3553  225.3357 H   0  0  0  0  0  0  0  0  0  0  0  0
  139.6254   69.2535  224.7875 H   0  0  0  0  0  0  0  0  0  0  0  0
  1  2  1  0
  2  3  1  0
  3  4  2  0
  4  5  1  0
  4  6  1  0
  6  7  1  0
  6  8  1  0
  8  9  2  0
  8 10  1  0
 10 11  2  0
 11 12  1  0
 12 13  2  0
 13 14  1  0
 13 15  1  0
 15 16  1  0
 15 17  2  0
 17 18  1  0
 17 19  1  0
 19 20  1  0
 19 21  2  0
 21 22  1  0
 22 23  1  0
 22 24  2  0
 24 25  1  0
  3 26  1  0
 26 27  1  0
 27 28  1  0
 27 29  1  0
 27 30  1  0
 30 31  1  1
 30 32  1  0
 32 33  1  0
 30 34  1  0
 34 35  1  0
 34 36  1  0
 34 37  1  0
 37 38  1  1
 37 39  1  0
 39 40  2  0
 39 41  1  0
 41 42  1  0
 42 43  1  0
 42 44  1  0
 44 45  1  0
 44 46  1  0
 44 47  1  0
 47 48  1  0
 47 49  1  0
 47 50  1  0
 50 51  1  0
 50 52  1  0
 50 53  1  0
 53 54  1  0
 53 55  1  0
 53 56  1  0
 56 57  1  0
 56 58  1  0
 24 10  1  0
 37 26  1  0
 56 42  1  0
 21 12  1  0
M  CHG  1  41  -1
M  END
>  <UniqueID>  (31) 
138

>  <SMILES>  (31) 
O=C(N/C=C(\O)N1C[C@H](O)C[C@H]1C(=O)[N-]C1CCCCC1)c1ccc2cc(F)ccc2n1

>  <Energy>  (31) 
56.97971883532094

>  <Genealogy>  (31) 
O=C(NCC(=O)N1C[C@H](O)C[C@H]1C(=O)[N-]C1CCCCC1)c1ccc2cc(F)ccc2n1 (protonated)
O=C(NC=C(O)N1C[C@H](O)C[C@H]1C(=O)[N-]C1CCCCC1)c1ccc2cc(F)ccc2n1 (tautomer)
O=C(N/C=C(\O)N1C[C@H](O)C[C@H]1C(=O)[N-]C1CCCCC1)c1ccc2cc(F)ccc2n1 (cis-trans isomerization)
O=C(N/C=C(\O)N1C[C@H](O)C[C@H]1C(=O)[N-]C1CCCCC1)c1ccc2cc(F)ccc2n1 (3D coordinates assigned)
O=C(N/C=C(\O)N1C[C@H](O)C[C@H]1C(=O)[N-]C1CCCCC1)c1ccc2cc(F)ccc2n1 (nonaromatic ring conformer: 56.97971883532094 kcal/mol)

>  <smiles>  (31) 
O=C(NCC(=O)N1C[C@H](O)C[C@H]1C(=O)NC1CCCCC1)c1ccc2cc(F)ccc2n1

>  <score_type>  (31) 
oracle

>  <origin>  (31) 
autodockgpu

>  <m_score__min__energy>  (31) 
-8.2699999999999996

>  <m_primary>  (31) 
energy

>  <meeko>  (31) 
{"free_energy": -7.03, "intermolecular_energy": -9.71, "internal_energy": -2.46, "cluster_size": 2, "cluster_id": 6, "rank_in_cluster": 2}

>  <energy>  (31) 
-7.14

>  <cluster_rmsd>  (31) 
1.55

>  <rmsd>  (31) 
273.03

>  <cluster>  (31) 
1

$$$$
CFVPHIVDXPJTQV-GDOATJJJNA-M
     RDKit          3D

 58 61  0  0  0  0  0  0  0  0999 V2000
  141.0760   71.5560  219.9090 H   0  0  0  0  0  0  0  0  0  0  0  0
  141.1350   72.5180  219.6020 O   0  0  0  0  0  0  0  0  0  0  0  0
  140.4290   73.5760  220.1870 C   0  0  0  0  0  0  0  0  0  0  0  0
  139.3560   73.3560  220.9760 C   0  0  0  0  0  0  0  0  0  0  0  0
  138.3564   73.5755  220.5728 H   0  0  0  0  0  0  0  0  0  0  0  0
  139.4560   72.8490  222.3170 N   0  0  0  0  0  0  0  0  0  0  0  0
  139.2750   73.4780  223.1290 H   0  0  0  0  0  0  0  0  0  0  0  0
  139.9330   71.5190  222.5800 C   0  0  0  0  0  0  0  0  0  0  0  0
  140.1780   70.7390  221.6190 O   0  0  0  0  0  0  0  0  0  0  0  0
  140.1330   71.0520  223.9700 C   0  0  0  0  0  0  0  0  0  0  0  0
  139.7400   69.7970  224.3250 N   0  0  0  0  0  0  0  0  0  0  0  0
  139.8980   69.3170  225.5870 C   0  0  0  0  0  0  0  0  0  0  0  0
  139.4780   68.0190  225.9040 C   0  0  0  0  0  0  0  0  0  0  0  0
  139.0193   67.3850  225.1309 H   0  0  0  0  0  0  0  0  0  0  0  0
  139.6420   67.5290  227.2040 C   0  0  0  0  0  0  0  0  0  0  0  0
  139.3106   66.5097  227.4516 H   0  0  0  0  0  0  0  0  0  0  0  0
  140.2260   68.3310  228.1900 C   0  0  0  0  0  0  0  0  0  0  0  0
  140.3820   67.8500  229.4480 F   0  0  0  0  0  0  0  0  0  0  0  0
  140.6490   69.6300  227.8820 C   0  0  0  0  0  0  0  0  0  0  0  0
  141.1079   70.2584  228.6595 H   0  0  0  0  0  0  0  0  0  0  0  0
  140.4870   70.1290  226.5810 C   0  0  0  0  0  0  0  0  0  0  0  0
  140.9000   71.4210  226.2410 C   0  0  0  0  0  0  0  0  0  0  0  0
  141.3631   72.0694  226.9994 H   0  0  0  0  0  0  0  0  0  0  0  0
  140.7230   71.8860  224.9360 C   0  0  0  0  0  0  0  0  0  0  0  0
  141.0445   72.9024  224.6646 H   0  0  0  0  0  0  0  0  0  0  0  0
  140.9000   74.9190  219.9300 N   0  0  0  0  0  0  0  0  0  0  0  0
  140.8620   75.4960  218.5950 C   0  0  0  0  0  0  0  0  0  0  0  0
  141.5329   74.9441  217.9203 H   0  0  0  0  0  0  0  0  0  0  0  0
  139.8522   75.4457  218.1616 H   0  0  0  0  0  0  0  0  0  0  0  0
  141.3340   76.9380  218.7500 C   0  0  2  0  0  0  0  0  0  0  0  0
  140.4963   77.6506  218.7285 H   0  0  0  0  0  0  0  0  0  0  0  0
  142.1790   77.3000  217.6910 O   0  0  0  0  0  0  0  0  0  0  0  0
  142.4250   78.2510  217.8400 H   0  0  0  0  0  0  0  0  0  0  0  0
  142.0680   76.9830  220.0900 C   0  0  0  0  0  0  0  0  0  0  0  0
  143.1499   76.8531  219.9398 H   0  0  0  0  0  0  0  0  0  0  0  0
  141.9277   77.9481  220.5989 H   0  0  0  0  0  0  0  0  0  0  0  0
  141.4990   75.8220  220.9100 C   0  0  1  0  0  0  0  0  0  0  0  0
  142.2776   75.3279  221.5097 H   0  0  0  0  0  0  0  0  0  0  0  0
  140.4470   76.3140  221.8820 C   0  0  0  0  0  0  0  0  0  0  0  0
  139.9330   75.4950  222.6900 O   0  0  0  0  0  0  0  0  0  0  0  0
  139.9950   77.6760  221.9130 N   0  0  0  0  0  0  0  0  0  0  0  0
  140.8210   78.8700  222.0800 C   0  0  0  0  0  0  0  0  0  0  0  0
  141.4389   79.0207  221.1825 H   0  0  0  0  0  0  0  0  0  0  0  0
  141.7260   78.6770  223.3080 C   0  0  0  0  0  0  0  0  0  0  0  0
  141.0980   78.4792  224.1892 H   0  0  0  0  0  0  0  0  0  0  0  0
  142.4001   77.8296  223.1146 H   0  0  0  0  0  0  0  0  0  0  0  0
  142.5770   79.9250  223.5700 C   0  0  0  0  0  0  0  0  0  0  0  0
  143.1677   79.7721  224.4853 H   0  0  0  0  0  0  0  0  0  0  0  0
  143.2394   80.0855  222.7066 H   0  0  0  0  0  0  0  0  0  0  0  0
  141.6930   81.1650  223.7450 C   0  0  0  0  0  0  0  0  0  0  0  0
  141.0727   81.0406  224.6448 H   0  0  0  0  0  0  0  0  0  0  0  0
  142.3423   82.0474  223.8438 H   0  0  0  0  0  0  0  0  0  0  0  0
  140.7790   81.3640  222.5290 C   0  0  0  0  0  0  0  0  0  0  0  0
  140.1116   82.2180  222.7170 H   0  0  0  0  0  0  0  0  0  0  0  0
  141.4077   81.5520  221.6462 H   0  0  0  0  0  0  0  0  0  0  0  0
  139.9310   80.1140  222.2660 C   0  0  0  0  0  0  0  0  0  0  0  0
  139.2580   79.9499  223.1205 H   0  0  0  0  0  0  0  0  0  0  0  0
  139.3527   80.2714  221.3436 H   0  0  0  0  0  0  0  0  0  0  0  0
  1  2  1  0
  2  3  1  0
  3  4  2  0
  4  5  1  0
  4  6  1  0
  6  7  1  0
  6  8  1  0
  8  9  2  0
  8 10  1  0
 10 11  2  0
 11 12  1  0
 12 13  2  0
 13 14  1  0
 13 15  1  0
 15 16  1  0
 15 17  2  0
 17 18  1  0
 17 19  1  0
 19 20  1  0
 19 21  2  0
 21 22  1  0
 22 23  1  0
 22 24  2  0
 24 25  1  0
  3 26  1  0
 26 27  1  0
 27 28  1  0
 27 29  1  0
 27 30  1  0
 30 31  1  1
 30 32  1  0
 32 33  1  0
 30 34  1  0
 34 35  1  0
 34 36  1  0
 34 37  1  0
 37 38  1  1
 37 39  1  0
 39 40  2  0
 39 41  1  0
 41 42  1  0
 42 43  1  0
 42 44  1  0
 44 45  1  0
 44 46  1  0
 44 47  1  0
 47 48  1  0
 47 49  1  0
 47 50  1  0
 50 51  1  0
 50 52  1  0
 50 53  1  0
 53 54  1  0
 53 55  1  0
 53 56  1  0
 56 57  1  0
 56 58  1  0
 24 10  1  0
 37 26  1  0
 56 42  1  0
 21 12  1  0
M  CHG  1  41  -1
M  END
>  <UniqueID>  (32) 
138

>  <SMILES>  (32) 
O=C(N/C=C(\O)N1C[C@H](O)C[C@H]1C(=O)[N-]C1CCCCC1)c1ccc2cc(F)ccc2n1

>  <Energy>  (32) 
56.97971883532094

>  <Genealogy>  (32) 
O=C(NCC(=O)N1C[C@H](O)C[C@H]1C(=O)[N-]C1CCCCC1)c1ccc2cc(F)ccc2n1 (protonated)
O=C(NC=C(O)N1C[C@H](O)C[C@H]1C(=O)[N-]C1CCCCC1)c1ccc2cc(F)ccc2n1 (tautomer)
O=C(N/C=C(\O)N1C[C@H](O)C[C@H]1C(=O)[N-]C1CCCCC1)c1ccc2cc(F)ccc2n1 (cis-trans isomerization)
O=C(N/C=C(\O)N1C[C@H](O)C[C@H]1C(=O)[N-]C1CCCCC1)c1ccc2cc(F)ccc2n1 (3D coordinates assigned)
O=C(N/C=C(\O)N1C[C@H](O)C[C@H]1C(=O)[N-]C1CCCCC1)c1ccc2cc(F)ccc2n1 (nonaromatic ring conformer: 56.97971883532094 kcal/mol)

>  <smiles>  (32) 
O=C(NCC(=O)N1C[C@H](O)C[C@H]1C(=O)NC1CCCCC1)c1ccc2cc(F)ccc2n1

>  <score_type>  (32) 
oracle

>  <origin>  (32) 
autodockgpu

>  <m_score__min__energy>  (32) 
-8.2699999999999996

>  <m_primary>  (32) 
energy

>  <meeko>  (32) 
{"free_energy": -7.2, "intermolecular_energy": -9.89, "internal_energy": -2.63, "cluster_size": 13, "cluster_id": 1, "rank_in_cluster": 10}

>  <energy>  (32) 
-6.77

>  <cluster_rmsd>  (32) 
1.49

>  <rmsd>  (32) 
273.02

>  <cluster>  (32) 
1

$$$$
CFVPHIVDXPJTQV-GDOATJJJNA-M
     RDKit          3D

 58 61  0  0  0  0  0  0  0  0999 V2000
  139.9950   72.3310  219.6160 H   0  0  0  0  0  0  0  0  0  0  0  0
  139.8710   73.2990  219.3510 O   0  0  0  0  0  0  0  0  0  0  0  0
  140.4540   74.3810  220.0210 C   0  0  0  0  0  0  0  0  0  0  0  0
  140.0690   74.7260  221.2670 C   0  0  0  0  0  0  0  0  0  0  0  0
  139.9579   75.7947  221.5028 H   0  0  0  0  0  0  0  0  0  0  0  0
  139.7970   73.7670  222.3010 N   0  0  0  0  0  0  0  0  0  0  0  0
  139.1790   74.0220  223.1020 H   0  0  0  0  0  0  0  0  0  0  0  0
  140.4630   72.4940  222.3360 C   0  0  0  0  0  0  0  0  0  0  0  0
  141.2320   72.1630  221.3900 O   0  0  0  0  0  0  0  0  0  0  0  0
  140.2520   71.5630  223.4670 C   0  0  0  0  0  0  0  0  0  0  0  0
  140.7140   71.8890  224.7060 N   0  0  0  0  0  0  0  0  0  0  0  0
  140.5500   71.0720  225.7800 C   0  0  0  0  0  0  0  0  0  0  0  0
  141.0440   71.4510  227.0340 C   0  0  0  0  0  0  0  0  0  0  0  0
  141.5669   72.4115  227.1524 H   0  0  0  0  0  0  0  0  0  0  0  0
  140.8720   70.6070  228.1360 C   0  0  0  0  0  0  0  0  0  0  0  0
  141.2606   70.9058  229.1207 H   0  0  0  0  0  0  0  0  0  0  0  0
  140.2080   69.3850  227.9910 C   0  0  0  0  0  0  0  0  0  0  0  0
  140.0450   68.5710  229.0640 F   0  0  0  0  0  0  0  0  0  0  0  0
  139.7110   68.9980  226.7410 C   0  0  0  0  0  0  0  0  0  0  0  0
  139.1892   68.0361  226.6299 H   0  0  0  0  0  0  0  0  0  0  0  0
  139.8790   69.8380  225.6300 C   0  0  0  0  0  0  0  0  0  0  0  0
  139.3950   69.4820  224.3670 C   0  0  0  0  0  0  0  0  0  0  0  0
  138.8693   68.5258  224.2280 H   0  0  0  0  0  0  0  0  0  0  0  0
  139.5800   70.3420  223.2830 C   0  0  0  0  0  0  0  0  0  0  0  0
  139.2012   70.0651  222.2881 H   0  0  0  0  0  0  0  0  0  0  0  0
  141.4980   75.1100  219.3350 N   0  0  0  0  0  0  0  0  0  0  0  0
  142.0690   74.6290  218.0870 C   0  0  0  0  0  0  0  0  0  0  0  0
  142.5989   73.6788  218.2496 H   0  0  0  0  0  0  0  0  0  0  0  0
  141.2911   74.4418  217.3322 H   0  0  0  0  0  0  0  0  0  0  0  0
  143.0440   75.7090  217.6310 C   0  0  2  0  0  0  0  0  0  0  0  0
  142.6248   76.3274  216.8236 H   0  0  0  0  0  0  0  0  0  0  0  0
  144.2150   75.1350  217.1130 O   0  0  0  0  0  0  0  0  0  0  0  0
  144.9700   75.6850  217.4490 H   0  0  0  0  0  0  0  0  0  0  0  0
  143.3370   76.5450  218.8770 C   0  0  0  0  0  0  0  0  0  0  0  0
  144.2592   76.1968  219.3651 H   0  0  0  0  0  0  0  0  0  0  0  0
  143.4856   77.6065  218.6298 H   0  0  0  0  0  0  0  0  0  0  0  0
  142.1330   76.3410  219.8010 C   0  0  1  0  0  0  0  0  0  0  0  0
  142.4361   76.2792  220.8566 H   0  0  0  0  0  0  0  0  0  0  0  0
  141.1680   77.5030  219.6920 C   0  0  0  0  0  0  0  0  0  0  0  0
  141.1100   78.1490  218.6120 O   0  0  0  0  0  0  0  0  0  0  0  0
  140.3230   77.9140  220.7770 N   0  0  0  0  0  0  0  0  0  0  0  0
  140.6670   78.8380  221.8560 C   0  0  0  0  0  0  0  0  0  0  0  0
  139.7499   79.2864  222.2656 H   0  0  0  0  0  0  0  0  0  0  0  0
  141.5770   79.9410  221.2900 C   0  0  0  0  0  0  0  0  0  0  0  0
  142.4670   79.4767  220.8403 H   0  0  0  0  0  0  0  0  0  0  0  0
  141.0118   80.5062  220.5343 H   0  0  0  0  0  0  0  0  0  0  0  0
  142.0210   80.9110  222.3920 C   0  0  0  0  0  0  0  0  0  0  0  0
  142.7144   81.6495  221.9633 H   0  0  0  0  0  0  0  0  0  0  0  0
  141.1296   81.4106  222.7993 H   0  0  0  0  0  0  0  0  0  0  0  0
  142.7250   80.1640  223.5300 C   0  0  0  0  0  0  0  0  0  0  0  0
  143.6529   79.7154  223.1457 H   0  0  0  0  0  0  0  0  0  0  0  0
  142.9474   80.8806  224.3344 H   0  0  0  0  0  0  0  0  0  0  0  0
  141.8300   79.0560  224.0970 C   0  0  0  0  0  0  0  0  0  0  0  0
  142.3906   78.4971  224.8608 H   0  0  0  0  0  0  0  0  0  0  0  0
  140.9352   79.5207  224.5367 H   0  0  0  0  0  0  0  0  0  0  0  0
  141.3840   78.0880  222.9950 C   0  0  0  0  0  0  0  0  0  0  0  0
  142.2679   77.5756  222.5874 H   0  0  0  0  0  0  0  0  0  0  0  0
  140.6829   77.3610  223.4308 H   0  0  0  0  0  0  0  0  0  0  0  0
  1  2  1  0
  2  3  1  0
  3  4  2  0
  4  5  1  0
  4  6  1  0
  6  7  1  0
  6  8  1  0
  8  9  2  0
  8 10  1  0
 10 11  2  0
 11 12  1  0
 12 13  2  0
 13 14  1  0
 13 15  1  0
 15 16  1  0
 15 17  2  0
 17 18  1  0
 17 19  1  0
 19 20  1  0
 19 21  2  0
 21 22  1  0
 22 23  1  0
 22 24  2  0
 24 25  1  0
  3 26  1  0
 26 27  1  0
 27 28  1  0
 27 29  1  0
 27 30  1  0
 30 31  1  6
 30 32  1  0
 32 33  1  0
 30 34  1  0
 34 35  1  0
 34 36  1  0
 34 37  1  0
 37 38  1  1
 37 39  1  0
 39 40  2  0
 39 41  1  0
 41 42  1  0
 42 43  1  0
 42 44  1  0
 44 45  1  0
 44 46  1  0
 44 47  1  0
 47 48  1  0
 47 49  1  0
 47 50  1  0
 50 51  1  0
 50 52  1  0
 50 53  1  0
 53 54  1  0
 53 55  1  0
 53 56  1  0
 56 57  1  0
 56 58  1  0
 24 10  1  0
 37 26  1  0
 56 42  1  0
 21 12  1  0
M  CHG  1  41  -1
M  END
>  <UniqueID>  (33) 
138

>  <SMILES>  (33) 
O=C(N/C=C(\O)N1C[C@H](O)C[C@H]1C(=O)[N-]C1CCCCC1)c1ccc2cc(F)ccc2n1

>  <Energy>  (33) 
56.97971883532094

>  <Genealogy>  (33) 
O=C(NCC(=O)N1C[C@H](O)C[C@H]1C(=O)[N-]C1CCCCC1)c1ccc2cc(F)ccc2n1 (protonated)
O=C(NC=C(O)N1C[C@H](O)C[C@H]1C(=O)[N-]C1CCCCC1)c1ccc2cc(F)ccc2n1 (tautomer)
O=C(N/C=C(\O)N1C[C@H](O)C[C@H]1C(=O)[N-]C1CCCCC1)c1ccc2cc(F)ccc2n1 (cis-trans isomerization)
O=C(N/C=C(\O)N1C[C@H](O)C[C@H]1C(=O)[N-]C1CCCCC1)c1ccc2cc(F)ccc2n1 (3D coordinates assigned)
O=C(N/C=C(\O)N1C[C@H](O)C[C@H]1C(=O)[N-]C1CCCCC1)c1ccc2cc(F)ccc2n1 (nonaromatic ring conformer: 56.97971883532094 kcal/mol)

>  <smiles>  (33) 
O=C(NCC(=O)N1C[C@H](O)C[C@H]1C(=O)NC1CCCCC1)c1ccc2cc(F)ccc2n1

>  <score_type>  (33) 
oracle

>  <origin>  (33) 
autodockgpu

>  <m_score__min__energy>  (33) 
-8.2699999999999996

>  <m_primary>  (33) 
energy

>  <meeko>  (33) 
{"free_energy": -7.56, "intermolecular_energy": -10.24, "internal_energy": -2.1, "cluster_size": 13, "cluster_id": 1, "rank_in_cluster": 5}

>  <energy>  (33) 
-6.68

>  <cluster_rmsd>  (33) 
1.81

>  <rmsd>  (33) 
272.96

>  <cluster>  (33) 
1

$$$$
CFVPHIVDXPJTQV-GDOATJJJNA-M
     RDKit          3D

 58 61  0  0  0  0  0  0  0  0999 V2000
  139.8430   76.8290  222.1460 H   0  0  0  0  0  0  0  0  0  0  0  0
  140.0830   75.8670  222.3450 O   0  0  0  0  0  0  0  0  0  0  0  0
  140.4660   74.9330  221.3760 C   0  0  0  0  0  0  0  0  0  0  0  0
  139.9070   73.7060  221.3230 C   0  0  0  0  0  0  0  0  0  0  0  0
  139.5621   73.3304  220.3483 H   0  0  0  0  0  0  0  0  0  0  0  0
  139.7400   72.8660  222.4760 N   0  0  0  0  0  0  0  0  0  0  0  0
  139.5280   73.2890  223.4060 H   0  0  0  0  0  0  0  0  0  0  0  0
  139.9910   71.4510  222.4140 C   0  0  0  0  0  0  0  0  0  0  0  0
  140.2680   70.9120  221.3070 O   0  0  0  0  0  0  0  0  0  0  0  0
  139.9210   70.6200  223.6370 C   0  0  0  0  0  0  0  0  0  0  0  0
  140.4770   71.0710  224.7950 N   0  0  0  0  0  0  0  0  0  0  0  0
  140.4430   70.3490  225.9460 C   0  0  0  0  0  0  0  0  0  0  0  0
  141.0310   70.8560  227.1120 C   0  0  0  0  0  0  0  0  0  0  0  0
  141.5216   71.8405  227.0977 H   0  0  0  0  0  0  0  0  0  0  0  0
  140.9940   70.1100  228.2940 C   0  0  0  0  0  0  0  0  0  0  0  0
  141.4564   70.5091  229.2088 H   0  0  0  0  0  0  0  0  0  0  0  0
  140.3710   68.8580  228.3170 C   0  0  0  0  0  0  0  0  0  0  0  0
  140.3390   68.1390  229.4670 F   0  0  0  0  0  0  0  0  0  0  0  0
  139.7810   68.3430  227.1570 C   0  0  0  0  0  0  0  0  0  0  0  0
  139.2920   67.3579  227.1787 H   0  0  0  0  0  0  0  0  0  0  0  0
  139.8140   69.0850  225.9660 C   0  0  0  0  0  0  0  0  0  0  0  0
  139.2340   68.6000  224.7890 C   0  0  0  0  0  0  0  0  0  0  0  0
  138.7381   67.6182  224.7828 H   0  0  0  0  0  0  0  0  0  0  0  0
  139.2860   69.3650  223.6220 C   0  0  0  0  0  0  0  0  0  0  0  0
  138.8319   68.9874  222.6940 H   0  0  0  0  0  0  0  0  0  0  0  0
  141.4740   75.3330  220.4200 N   0  0  0  0  0  0  0  0  0  0  0  0
  141.9580   74.4190  219.3970 C   0  0  0  0  0  0  0  0  0  0  0  0
  142.4832   73.5703  219.8595 H   0  0  0  0  0  0  0  0  0  0  0  0
  141.1311   74.0040  218.8020 H   0  0  0  0  0  0  0  0  0  0  0  0
  142.9180   75.2300  218.5330 C   0  0  2  0  0  0  0  0  0  0  0  0
  142.4582   75.5358  217.5817 H   0  0  0  0  0  0  0  0  0  0  0  0
  144.0450   74.4670  218.1910 O   0  0  0  0  0  0  0  0  0  0  0  0
  144.7730   75.1130  217.9980 H   0  0  0  0  0  0  0  0  0  0  0  0
  143.3010   76.4430  219.3810 C   0  0  0  0  0  0  0  0  0  0  0  0
  144.2470   76.2578  219.9108 H   0  0  0  0  0  0  0  0  0  0  0  0
  143.4487   77.3411  218.7633 H   0  0  0  0  0  0  0  0  0  0  0  0
  142.1560   76.6250  220.3800 C   0  0  1  0  0  0  0  0  0  0  0  0
  142.5257   76.9319  221.3695 H   0  0  0  0  0  0  0  0  0  0  0  0
  141.2020   77.7070  219.9160 C   0  0  0  0  0  0  0  0  0  0  0  0
  141.2330   78.0700  218.7100 O   0  0  0  0  0  0  0  0  0  0  0  0
  140.2720   78.3510  220.7980 N   0  0  0  0  0  0  0  0  0  0  0  0
  140.5930   79.2060  221.9400 C   0  0  0  0  0  0  0  0  0  0  0  0
  139.6635   79.5654  222.4058 H   0  0  0  0  0  0  0  0  0  0  0  0
  141.4220   80.4020  221.4440 C   0  0  0  0  0  0  0  0  0  0  0  0
  142.3244   80.0282  220.9382 H   0  0  0  0  0  0  0  0  0  0  0  0
  140.8043   80.9904  220.7496 H   0  0  0  0  0  0  0  0  0  0  0  0
  141.8400   81.3070  222.6090 C   0  0  0  0  0  0  0  0  0  0  0  0
  142.4768   82.1175  222.2247 H   0  0  0  0  0  0  0  0  0  0  0  0
  140.9334   81.7189  223.0764 H   0  0  0  0  0  0  0  0  0  0  0  0
  142.6190   80.5150  223.6660 C   0  0  0  0  0  0  0  0  0  0  0  0
  143.5596   80.1541  223.2243 H   0  0  0  0  0  0  0  0  0  0  0  0
  142.8236   81.1774  224.5200 H   0  0  0  0  0  0  0  0  0  0  0  0
  141.8050   79.3140  224.1630 C   0  0  0  0  0  0  0  0  0  0  0  0
  142.4181   78.7304  224.8655 H   0  0  0  0  0  0  0  0  0  0  0  0
  140.8980   79.6884  224.6602 H   0  0  0  0  0  0  0  0  0  0  0  0
  141.3840   78.4120  222.9970 C   0  0  0  0  0  0  0  0  0  0  0  0
  142.2839   77.9872  222.5282 H   0  0  0  0  0  0  0  0  0  0  0  0
  140.7384   77.6123  223.3890 H   0  0  0  0  0  0  0  0  0  0  0  0
  1  2  1  0
  2  3  1  0
  3  4  2  0
  4  5  1  0
  4  6  1  0
  6  7  1  0
  6  8  1  0
  8  9  2  0
  8 10  1  0
 10 11  2  0
 11 12  1  0
 12 13  2  0
 13 14  1  0
 13 15  1  0
 15 16  1  0
 15 17  2  0
 17 18  1  0
 17 19  1  0
 19 20  1  0
 19 21  2  0
 21 22  1  0
 22 23  1  0
 22 24  2  0
 24 25  1  0
  3 26  1  0
 26 27  1  0
 27 28  1  0
 27 29  1  0
 27 30  1  0
 30 31  1  6
 30 32  1  0
 32 33  1  0
 30 34  1  0
 34 35  1  0
 34 36  1  0
 34 37  1  0
 37 38  1  1
 37 39  1  0
 39 40  2  0
 39 41  1  0
 41 42  1  0
 42 43  1  0
 42 44  1  0
 44 45  1  0
 44 46  1  0
 44 47  1  0
 47 48  1  0
 47 49  1  0
 47 50  1  0
 50 51  1  0
 50 52  1  0
 50 53  1  0
 53 54  1  0
 53 55  1  0
 53 56  1  0
 56 57  1  0
 56 58  1  0
 24 10  1  0
 37 26  1  0
 56 42  1  0
 21 12  1  0
M  CHG  1  41  -1
M  END
>  <UniqueID>  (34) 
138

>  <SMILES>  (34) 
O=C(N/C=C(\O)N1C[C@H](O)C[C@H]1C(=O)[N-]C1CCCCC1)c1ccc2cc(F)ccc2n1

>  <Energy>  (34) 
56.97971883532094

>  <Genealogy>  (34) 
O=C(NCC(=O)N1C[C@H](O)C[C@H]1C(=O)[N-]C1CCCCC1)c1ccc2cc(F)ccc2n1 (protonated)
O=C(NC=C(O)N1C[C@H](O)C[C@H]1C(=O)[N-]C1CCCCC1)c1ccc2cc(F)ccc2n1 (tautomer)
O=C(N/C=C(\O)N1C[C@H](O)C[C@H]1C(=O)[N-]C1CCCCC1)c1ccc2cc(F)ccc2n1 (cis-trans isomerization)
O=C(N/C=C(\O)N1C[C@H](O)C[C@H]1C(=O)[N-]C1CCCCC1)c1ccc2cc(F)ccc2n1 (3D coordinates assigned)
O=C(N/C=C(\O)N1C[C@H](O)C[C@H]1C(=O)[N-]C1CCCCC1)c1ccc2cc(F)ccc2n1 (nonaromatic ring conformer: 56.97971883532094 kcal/mol)

>  <smiles>  (34) 
O=C(NCC(=O)N1C[C@H](O)C[C@H]1C(=O)NC1CCCCC1)c1ccc2cc(F)ccc2n1

>  <score_type>  (34) 
oracle

>  <origin>  (34) 
autodockgpu

>  <m_score__min__energy>  (34) 
-8.2699999999999996

>  <m_primary>  (34) 
energy

>  <meeko>  (34) 
{"free_energy": -7.82, "intermolecular_energy": -10.51, "internal_energy": -2.38, "cluster_size": 13, "cluster_id": 1, "rank_in_cluster": 3}

>  <energy>  (34) 
-7.75

>  <cluster_rmsd>  (34) 
0.0

>  <rmsd>  (34) 
272.61

>  <cluster>  (34) 
2

$$$$
CFVPHIVDXPJTQV-GDOATJJJNA-M
     RDKit          3D

 58 61  0  0  0  0  0  0  0  0999 V2000
  140.4860   71.0420  219.3510 H   0  0  0  0  0  0  0  0  0  0  0  0
  140.5310   71.9910  219.0030 O   0  0  0  0  0  0  0  0  0  0  0  0
  140.3220   73.1300  219.7890 C   0  0  0  0  0  0  0  0  0  0  0  0
  139.3100   73.1950  220.6790 C   0  0  0  0  0  0  0  0  0  0  0  0
  138.3441   73.6009  220.3439 H   0  0  0  0  0  0  0  0  0  0  0  0
  139.4320   72.7600  222.0430 N   0  0  0  0  0  0  0  0  0  0  0  0
  139.2940   73.4380  222.8230 H   0  0  0  0  0  0  0  0  0  0  0  0
  139.8750   71.4310  222.3670 C   0  0  0  0  0  0  0  0  0  0  0  0
  140.0690   70.5920  221.4440 O   0  0  0  0  0  0  0  0  0  0  0  0
  140.1000   71.0350  223.7760 C   0  0  0  0  0  0  0  0  0  0  0  0
  139.7070   69.8030  224.2030 N   0  0  0  0  0  0  0  0  0  0  0  0
  139.8870   69.3880  225.4850 C   0  0  0  0  0  0  0  0  0  0  0  0
  139.4640   68.1120  225.8770 C   0  0  0  0  0  0  0  0  0  0  0  0
  138.9841   67.4430  225.1475 H   0  0  0  0  0  0  0  0  0  0  0  0
  139.6520   67.6890  227.1960 C   0  0  0  0  0  0  0  0  0  0  0  0
  139.3187   66.6866  227.5026 H   0  0  0  0  0  0  0  0  0  0  0  0
  140.2620   68.5350  228.1270 C   0  0  0  0  0  0  0  0  0  0  0  0
  140.4410   68.1190  229.4060 F   0  0  0  0  0  0  0  0  0  0  0  0
  140.6870   69.8130  227.7450 C   0  0  0  0  0  0  0  0  0  0  0  0
  141.1645   70.4774  228.4802 H   0  0  0  0  0  0  0  0  0  0  0  0
  140.5030   70.2450  226.4230 C   0  0  0  0  0  0  0  0  0  0  0  0
  140.9170   71.5150  226.0070 C   0  0  0  0  0  0  0  0  0  0  0  0
  141.3995   72.1983  226.7213 H   0  0  0  0  0  0  0  0  0  0  0  0
  140.7170   71.9140  224.6840 C   0  0  0  0  0  0  0  0  0  0  0  0
  141.0407   72.9119  224.3533 H   0  0  0  0  0  0  0  0  0  0  0  0
  141.2400   74.2360  219.6250 N   0  0  0  0  0  0  0  0  0  0  0  0
  141.6850   74.6670  218.3090 C   0  0  0  0  0  0  0  0  0  0  0  0
  142.2779   73.8756  217.8272 H   0  0  0  0  0  0  0  0  0  0  0  0
  140.8347   74.8849  217.6460 H   0  0  0  0  0  0  0  0  0  0  0  0
  142.5440   75.9050  218.5440 C   0  0  2  0  0  0  0  0  0  0  0  0
  142.0028   76.8330  218.3075 H   0  0  0  0  0  0  0  0  0  0  0  0
  143.6730   75.8910  217.7120 O   0  0  0  0  0  0  0  0  0  0  0  0
  144.4620   75.8140  218.3100 H   0  0  0  0  0  0  0  0  0  0  0  0
  142.9380   75.8520  220.0200 C   0  0  0  0  0  0  0  0  0  0  0  0
  143.9274   75.3856  220.1369 H   0  0  0  0  0  0  0  0  0  0  0  0
  143.0027   76.8579  220.4605 H   0  0  0  0  0  0  0  0  0  0  0  0
  141.8620   75.0020  220.7030 C   0  0  1  0  0  0  0  0  0  0  0  0
  142.2892   74.3537  221.4823 H   0  0  0  0  0  0  0  0  0  0  0  0
  140.8330   75.8810  221.3830 C   0  0  0  0  0  0  0  0  0  0  0  0
  140.1680   75.4090  222.3430 O   0  0  0  0  0  0  0  0  0  0  0  0
  140.5700   77.2300  220.9690 N   0  0  0  0  0  0  0  0  0  0  0  0
  140.8330   78.4490  221.7310 C   0  0  0  0  0  0  0  0  0  0  0  0
  139.8913   78.9932  221.8951 H   0  0  0  0  0  0  0  0  0  0  0  0
  141.8090   79.3290  220.9340 C   0  0  0  0  0  0  0  0  0  0  0  0
  142.7273   78.7571  220.7348 H   0  0  0  0  0  0  0  0  0  0  0  0
  141.3236   79.6230  219.9917 H   0  0  0  0  0  0  0  0  0  0  0  0
  142.1700   80.6000  221.7120 C   0  0  0  0  0  0  0  0  0  0  0  0
  142.9111   81.1753  221.1377 H   0  0  0  0  0  0  0  0  0  0  0  0
  141.2549   81.1920  221.8612 H   0  0  0  0  0  0  0  0  0  0  0  0
  142.7580   80.2540  223.0850 C   0  0  0  0  0  0  0  0  0  0  0  0
  143.7081   79.7177  222.9448 H   0  0  0  0  0  0  0  0  0  0  0  0
  142.9218   81.1883  223.6419 H   0  0  0  0  0  0  0  0  0  0  0  0
  141.7960   79.3690  223.8870 C   0  0  0  0  0  0  0  0  0  0  0  0
  142.2762   79.0833  224.8345 H   0  0  0  0  0  0  0  0  0  0  0  0
  140.8740   79.9380  224.0769 H   0  0  0  0  0  0  0  0  0  0  0  0
  141.4330   78.1000  223.1070 C   0  0  0  0  0  0  0  0  0  0  0  0
  142.3406   77.4959  222.9607 H   0  0  0  0  0  0  0  0  0  0  0  0
  140.6837   77.5373  223.6831 H   0  0  0  0  0  0  0  0  0  0  0  0
  1  2  1  0
  2  3  1  0
  3  4  2  0
  4  5  1  0
  4  6  1  0
  6  7  1  0
  6  8  1  0
  8  9  2  0
  8 10  1  0
 10 11  2  0
 11 12  1  0
 12 13  2  0
 13 14  1  0
 13 15  1  0
 15 16  1  0
 15 17  2  0
 17 18  1  0
 17 19  1  0
 19 20  1  0
 19 21  2  0
 21 22  1  0
 22 23  1  0
 22 24  2  0
 24 25  1  0
  3 26  1  0
 26 27  1  0
 27 28  1  0
 27 29  1  0
 27 30  1  0
 30 31  1  1
 30 32  1  0
 32 33  1  0
 30 34  1  0
 34 35  1  0
 34 36  1  0
 34 37  1  0
 37 38  1  1
 37 39  1  0
 39 40  2  0
 39 41  1  0
 41 42  1  0
 42 43  1  0
 42 44  1  0
 44 45  1  0
 44 46  1  0
 44 47  1  0
 47 48  1  0
 47 49  1  0
 47 50  1  0
 50 51  1  0
 50 52  1  0
 50 53  1  0
 53 54  1  0
 53 55  1  0
 53 56  1  0
 56 57  1  0
 56 58  1  0
 24 10  1  0
 37 26  1  0
 56 42  1  0
 21 12  1  0
M  CHG  1  41  -1
M  END
>  <UniqueID>  (35) 
138

>  <SMILES>  (35) 
O=C(N/C=C(\O)N1C[C@H](O)C[C@H]1C(=O)[N-]C1CCCCC1)c1ccc2cc(F)ccc2n1

>  <Energy>  (35) 
56.97971883532094

>  <Genealogy>  (35) 
O=C(NCC(=O)N1C[C@H](O)C[C@H]1C(=O)[N-]C1CCCCC1)c1ccc2cc(F)ccc2n1 (protonated)
O=C(NC=C(O)N1C[C@H](O)C[C@H]1C(=O)[N-]C1CCCCC1)c1ccc2cc(F)ccc2n1 (tautomer)
O=C(N/C=C(\O)N1C[C@H](O)C[C@H]1C(=O)[N-]C1CCCCC1)c1ccc2cc(F)ccc2n1 (cis-trans isomerization)
O=C(N/C=C(\O)N1C[C@H](O)C[C@H]1C(=O)[N-]C1CCCCC1)c1ccc2cc(F)ccc2n1 (3D coordinates assigned)
O=C(N/C=C(\O)N1C[C@H](O)C[C@H]1C(=O)[N-]C1CCCCC1)c1ccc2cc(F)ccc2n1 (nonaromatic ring conformer: 56.97971883532094 kcal/mol)

>  <smiles>  (35) 
O=C(NCC(=O)N1C[C@H](O)C[C@H]1C(=O)NC1CCCCC1)c1ccc2cc(F)ccc2n1

>  <score_type>  (35) 
oracle

>  <origin>  (35) 
autodockgpu

>  <m_score__min__energy>  (35) 
-8.2699999999999996

>  <m_primary>  (35) 
energy

>  <meeko>  (35) 
{"free_energy": -7.6, "intermolecular_energy": -10.28, "internal_energy": -2.84, "cluster_size": 13, "cluster_id": 1, "rank_in_cluster": 4}

>  <energy>  (35) 
-7.72

>  <cluster_rmsd>  (35) 
0.0

>  <rmsd>  (35) 
272.56

>  <cluster>  (35) 
3

$$$$
CFVPHIVDXPJTQV-GDOATJJJNA-M
     RDKit          3D

 58 61  0  0  0  0  0  0  0  0999 V2000
  142.6910   72.6670  217.0920 H   0  0  0  0  0  0  0  0  0  0  0  0
  141.9760   72.7680  217.7990 O   0  0  0  0  0  0  0  0  0  0  0  0
  142.2340   72.9210  219.1660 C   0  0  0  0  0  0  0  0  0  0  0  0
  141.2330   72.9830  220.0690 C   0  0  0  0  0  0  0  0  0  0  0  0
  140.4423   73.7336  219.9230 H   0  0  0  0  0  0  0  0  0  0  0  0
  141.1500   72.1160  221.2120 N   0  0  0  0  0  0  0  0  0  0  0  0
  141.5410   71.1500  221.1650 H   0  0  0  0  0  0  0  0  0  0  0  0
  140.4150   72.4960  222.3870 C   0  0  0  0  0  0  0  0  0  0  0  0
  139.9120   73.6510  222.4660 O   0  0  0  0  0  0  0  0  0  0  0  0
  140.2470   71.5470  223.5110 C   0  0  0  0  0  0  0  0  0  0  0  0
  140.7150   71.8730  224.7480 N   0  0  0  0  0  0  0  0  0  0  0  0
  140.5890   71.0400  225.8140 C   0  0  0  0  0  0  0  0  0  0  0  0
  141.0870   71.4200  227.0660 C   0  0  0  0  0  0  0  0  0  0  0  0
  141.5817   72.3948  227.1888 H   0  0  0  0  0  0  0  0  0  0  0  0
  140.9550   70.5590  228.1610 C   0  0  0  0  0  0  0  0  0  0  0  0
  141.3461   70.8591  229.1443 H   0  0  0  0  0  0  0  0  0  0  0  0
  140.3280   69.3190  228.0100 C   0  0  0  0  0  0  0  0  0  0  0  0
  140.2040   68.4890  229.0750 F   0  0  0  0  0  0  0  0  0  0  0  0
  139.8270   68.9300  226.7620 C   0  0  0  0  0  0  0  0  0  0  0  0
  139.3338   67.9536  226.6465 H   0  0  0  0  0  0  0  0  0  0  0  0
  139.9550   69.7880  225.6580 C   0  0  0  0  0  0  0  0  0  0  0  0
  139.4650   69.4300  224.3980 C   0  0  0  0  0  0  0  0  0  0  0  0
  138.9668   68.4597  224.2553 H   0  0  0  0  0  0  0  0  0  0  0  0
  139.6100   70.3080  223.3210 C   0  0  0  0  0  0  0  0  0  0  0  0
  139.2271   70.0309  222.3277 H   0  0  0  0  0  0  0  0  0  0  0  0
  143.6170   72.9970  219.5830 N   0  0  0  0  0  0  0  0  0  0  0  0
  144.0540   72.4770  220.8690 C   0  0  0  0  0  0  0  0  0  0  0  0
  143.5939   73.0479  221.6890 H   0  0  0  0  0  0  0  0  0  0  0  0
  143.7600   71.4252  221.0005 H   0  0  0  0  0  0  0  0  0  0  0  0
  145.5700   72.6420  220.8930 C   0  0  2  0  0  0  0  0  0  0  0  0
  146.0911   71.6929  220.6988 H   0  0  0  0  0  0  0  0  0  0  0  0
  146.0030   73.0710  222.1560 O   0  0  0  0  0  0  0  0  0  0  0  0
  145.9800   72.2740  222.7470 H   0  0  0  0  0  0  0  0  0  0  0  0
  145.8820   73.6800  219.8140 C   0  0  0  0  0  0  0  0  0  0  0  0
  145.9629   74.6831  220.2581 H   0  0  0  0  0  0  0  0  0  0  0  0
  146.8391   73.4719  219.3134 H   0  0  0  0  0  0  0  0  0  0  0  0
  144.7060   73.6220  218.8350 C   0  0  1  0  0  0  0  0  0  0  0  0
  144.4362   74.6217  218.4638 H   0  0  0  0  0  0  0  0  0  0  0  0
  145.0560   72.7870  217.6210 C   0  0  0  0  0  0  0  0  0  0  0  0
  144.5470   73.0860  216.5080 O   0  0  0  0  0  0  0  0  0  0  0  0
  145.9350   71.6540  217.6860 N   0  0  0  0  0  0  0  0  0  0  0  0
  145.5550   70.2620  217.9240 C   0  0  0  0  0  0  0  0  0  0  0  0
  145.7346   69.6689  217.0152 H   0  0  0  0  0  0  0  0  0  0  0  0
  144.0620   70.2130  218.2900 C   0  0  0  0  0  0  0  0  0  0  0  0
  143.8872   70.8479  219.1711 H   0  0  0  0  0  0  0  0  0  0  0  0
  143.4797   70.5756  217.4301 H   0  0  0  0  0  0  0  0  0  0  0  0
  143.6180   68.7810  218.6090 C   0  0  0  0  0  0  0  0  0  0  0  0
  142.5632   68.7924  218.9208 H   0  0  0  0  0  0  0  0  0  0  0  0
  143.7464   68.1650  217.7068 H   0  0  0  0  0  0  0  0  0  0  0  0
  144.4670   68.1810  219.7350 C   0  0  0  0  0  0  0  0  0  0  0  0
  144.2945   68.7523  220.6591 H   0  0  0  0  0  0  0  0  0  0  0  0
  144.1749   67.1294  219.8719 H   0  0  0  0  0  0  0  0  0  0  0  0
  145.9590   68.2320  219.3850 C   0  0  0  0  0  0  0  0  0  0  0  0
  146.5416   67.8595  220.2405 H   0  0  0  0  0  0  0  0  0  0  0  0
  146.1312   67.6052  218.4976 H   0  0  0  0  0  0  0  0  0  0  0  0
  146.4020   69.6640  219.0630 C   0  0  0  0  0  0  0  0  0  0  0  0
  146.2863   70.2869  219.9622 H   0  0  0  0  0  0  0  0  0  0  0  0
  147.4539   69.6412  218.7421 H   0  0  0  0  0  0  0  0  0  0  0  0
  1  2  1  0
  2  3  1  0
  3  4  2  0
  4  5  1  0
  4  6  1  0
  6  7  1  0
  6  8  1  0
  8  9  2  0
  8 10  1  0
 10 11  2  0
 11 12  1  0
 12 13  2  0
 13 14  1  0
 13 15  1  0
 15 16  1  0
 15 17  2  0
 17 18  1  0
 17 19  1  0
 19 20  1  0
 19 21  2  0
 21 22  1  0
 22 23  1  0
 22 24  2  0
 24 25  1  0
  3 26  1  0
 26 27  1  0
 27 28  1  0
 27 29  1  0
 27 30  1  0
 30 31  1  6
 30 32  1  0
 32 33  1  0
 30 34  1  0
 34 35  1  0
 34 36  1  0
 34 37  1  0
 37 38  1  6
 37 39  1  0
 39 40  2  0
 39 41  1  0
 41 42  1  0
 42 43  1  0
 42 44  1  0
 44 45  1  0
 44 46  1  0
 44 47  1  0
 47 48  1  0
 47 49  1  0
 47 50  1  0
 50 51  1  0
 50 52  1  0
 50 53  1  0
 53 54  1  0
 53 55  1  0
 53 56  1  0
 56 57  1  0
 56 58  1  0
 24 10  1  0
 37 26  1  0
 56 42  1  0
 21 12  1  0
M  CHG  1  41  -1
M  END
>  <UniqueID>  (36) 
138

>  <SMILES>  (36) 
O=C(N/C=C(\O)N1C[C@H](O)C[C@H]1C(=O)[N-]C1CCCCC1)c1ccc2cc(F)ccc2n1

>  <Energy>  (36) 
56.97971883532094

>  <Genealogy>  (36) 
O=C(NCC(=O)N1C[C@H](O)C[C@H]1C(=O)[N-]C1CCCCC1)c1ccc2cc(F)ccc2n1 (protonated)
O=C(NC=C(O)N1C[C@H](O)C[C@H]1C(=O)[N-]C1CCCCC1)c1ccc2cc(F)ccc2n1 (tautomer)
O=C(N/C=C(\O)N1C[C@H](O)C[C@H]1C(=O)[N-]C1CCCCC1)c1ccc2cc(F)ccc2n1 (cis-trans isomerization)
O=C(N/C=C(\O)N1C[C@H](O)C[C@H]1C(=O)[N-]C1CCCCC1)c1ccc2cc(F)ccc2n1 (3D coordinates assigned)
O=C(N/C=C(\O)N1C[C@H](O)C[C@H]1C(=O)[N-]C1CCCCC1)c1ccc2cc(F)ccc2n1 (nonaromatic ring conformer: 56.97971883532094 kcal/mol)

>  <smiles>  (36) 
O=C(NCC(=O)N1C[C@H](O)C[C@H]1C(=O)NC1CCCCC1)c1ccc2cc(F)ccc2n1

>  <score_type>  (36) 
oracle

>  <origin>  (36) 
autodockgpu

>  <m_score__min__energy>  (36) 
-8.2699999999999996

>  <m_primary>  (36) 
energy

>  <meeko>  (36) 
{"free_energy": -7.75, "intermolecular_energy": -10.44, "internal_energy": -2.56, "cluster_size": 1, "cluster_id": 2, "rank_in_cluster": 1}

>  <energy>  (36) 
-7.55

>  <cluster_rmsd>  (36) 
0.0

>  <rmsd>  (36) 
273.26

>  <cluster>  (36) 
4

$$$$
CFVPHIVDXPJTQV-GDOATJJJNA-M
     RDKit          3D

 58 61  0  0  0  0  0  0  0  0999 V2000
  143.1090   76.4300  220.5140 H   0  0  0  0  0  0  0  0  0  0  0  0
  142.9100   75.4400  220.4580 O   0  0  0  0  0  0  0  0  0  0  0  0
  141.6510   74.8750  220.6920 C   0  0  0  0  0  0  0  0  0  0  0  0
  141.4540   73.5420  220.6200 C   0  0  0  0  0  0  0  0  0  0  0  0
  141.3326   73.0841  219.6272 H   0  0  0  0  0  0  0  0  0  0  0  0
  141.3950   72.6910  221.7770 N   0  0  0  0  0  0  0  0  0  0  0  0
  142.2360   72.1490  222.0720 H   0  0  0  0  0  0  0  0  0  0  0  0
  140.1580   72.4590  222.4720 C   0  0  0  0  0  0  0  0  0  0  0  0
  139.1180   73.0860  222.1270 O   0  0  0  0  0  0  0  0  0  0  0  0
  140.0940   71.4950  223.5940 C   0  0  0  0  0  0  0  0  0  0  0  0
  140.5890   71.8440  224.8140 N   0  0  0  0  0  0  0  0  0  0  0  0
  140.5570   70.9990  225.8780 C   0  0  0  0  0  0  0  0  0  0  0  0
  141.0790   71.4020  227.1130 C   0  0  0  0  0  0  0  0  0  0  0  0
  141.5159   72.4054  227.2244 H   0  0  0  0  0  0  0  0  0  0  0  0
  141.0450   70.5290  228.2050 C   0  0  0  0  0  0  0  0  0  0  0  0
  141.4563   70.8473  229.1743 H   0  0  0  0  0  0  0  0  0  0  0  0
  140.4900   69.2530  228.0690 C   0  0  0  0  0  0  0  0  0  0  0  0
  140.4600   68.4110  229.1320 F   0  0  0  0  0  0  0  0  0  0  0  0
  139.9660   68.8410  226.8380 C   0  0  0  0  0  0  0  0  0  0  0  0
  139.5310   67.8361  226.7337 H   0  0  0  0  0  0  0  0  0  0  0  0
  139.9960   69.7100  225.7380 C   0  0  0  0  0  0  0  0  0  0  0  0
  139.4800   69.3290  224.4940 C   0  0  0  0  0  0  0  0  0  0  0  0
  139.0378   68.3304  224.3628 H   0  0  0  0  0  0  0  0  0  0  0  0
  139.5280   70.2200  223.4200 C   0  0  0  0  0  0  0  0  0  0  0  0
  139.1240   69.9250  222.4403 H   0  0  0  0  0  0  0  0  0  0  0  0
  140.5660   75.7700  221.0300 N   0  0  0  0  0  0  0  0  0  0  0  0
  139.9420   75.7470  222.3430 C   0  0  0  0  0  0  0  0  0  0  0  0
  139.4328   74.7860  222.5080 H   0  0  0  0  0  0  0  0  0  0  0  0
  140.6851   75.8628  223.1458 H   0  0  0  0  0  0  0  0  0  0  0  0
  138.9320   76.8900  222.3450 C   0  0  2  0  0  0  0  0  0  0  0  0
  139.3034   77.7675  222.8946 H   0  0  0  0  0  0  0  0  0  0  0  0
  137.7450   76.5030  222.9870 O   0  0  0  0  0  0  0  0  0  0  0  0
  137.9180   75.6080  223.3810 H   0  0  0  0  0  0  0  0  0  0  0  0
  138.6880   77.2180  220.8720 C   0  0  0  0  0  0  0  0  0  0  0  0
  137.7953   76.6911  220.5040 H   0  0  0  0  0  0  0  0  0  0  0  0
  138.5132   78.2930  220.7177 H   0  0  0  0  0  0  0  0  0  0  0  0
  139.9370   76.7350  220.1310 C   0  0  1  0  0  0  0  0  0  0  0  0
  139.6852   76.2926  219.1558 H   0  0  0  0  0  0  0  0  0  0  0  0
  140.8800   77.8880  219.8560 C   0  0  0  0  0  0  0  0  0  0  0  0
  141.9320   77.6710  219.1980 O   0  0  0  0  0  0  0  0  0  0  0  0
  140.6350   79.2200  220.3300 N   0  0  0  0  0  0  0  0  0  0  0  0
  140.8100   79.7110  221.6960 C   0  0  0  0  0  0  0  0  0  0  0  0
  139.8288   79.8016  222.1849 H   0  0  0  0  0  0  0  0  0  0  0  0
  141.4920   81.0870  221.6430 C   0  0  0  0  0  0  0  0  0  0  0  0
  142.4495   80.9926  221.1098 H   0  0  0  0  0  0  0  0  0  0  0  0
  140.8240   81.7869  221.1197 H   0  0  0  0  0  0  0  0  0  0  0  0
  141.7560   81.6300  223.0530 C   0  0  0  0  0  0  0  0  0  0  0  0
  142.2949   82.5858  222.9756 H   0  0  0  0  0  0  0  0  0  0  0  0
  140.7907   81.7728  223.5607 H   0  0  0  0  0  0  0  0  0  0  0  0
  142.5980   80.6440  223.8710 C   0  0  0  0  0  0  0  0  0  0  0  0
  143.5902   80.5464  223.4062 H   0  0  0  0  0  0  0  0  0  0  0  0
  142.6895   81.0287  224.8975 H   0  0  0  0  0  0  0  0  0  0  0  0
  141.9310   79.2640  223.9240 C   0  0  0  0  0  0  0  0  0  0  0  0
  142.5931   78.5654  224.4566 H   0  0  0  0  0  0  0  0  0  0  0  0
  140.9688   79.3615  224.4482 H   0  0  0  0  0  0  0  0  0  0  0  0
  141.6640   78.7240  222.5140 C   0  0  0  0  0  0  0  0  0  0  0  0
  142.6244   78.5686  222.0007 H   0  0  0  0  0  0  0  0  0  0  0  0
  141.1148   77.7749  222.6010 H   0  0  0  0  0  0  0  0  0  0  0  0
  1  2  1  0
  2  3  1  0
  3  4  2  0
  4  5  1  0
  4  6  1  0
  6  7  1  0
  6  8  1  0
  8  9  2  0
  8 10  1  0
 10 11  2  0
 11 12  1  0
 12 13  2  0
 13 14  1  0
 13 15  1  0
 15 16  1  0
 15 17  2  0
 17 18  1  0
 17 19  1  0
 19 20  1  0
 19 21  2  0
 21 22  1  0
 22 23  1  0
 22 24  2  0
 24 25  1  0
  3 26  1  0
 26 27  1  0
 27 28  1  0
 27 29  1  0
 27 30  1  0
 30 31  1  1
 30 32  1  0
 32 33  1  0
 30 34  1  0
 34 35  1  0
 34 36  1  0
 34 37  1  0
 37 38  1  6
 37 39  1  0
 39 40  2  0
 39 41  1  0
 41 42  1  0
 42 43  1  0
 42 44  1  0
 44 45  1  0
 44 46  1  0
 44 47  1  0
 47 48  1  0
 47 49  1  0
 47 50  1  0
 50 51  1  0
 50 52  1  0
 50 53  1  0
 53 54  1  0
 53 55  1  0
 53 56  1  0
 56 57  1  0
 56 58  1  0
 24 10  1  0
 37 26  1  0
 56 42  1  0
 21 12  1  0
M  CHG  1  41  -1
M  END
>  <UniqueID>  (37) 
138

>  <SMILES>  (37) 
O=C(N/C=C(\O)N1C[C@H](O)C[C@H]1C(=O)[N-]C1CCCCC1)c1ccc2cc(F)ccc2n1

>  <Energy>  (37) 
56.97971883532094

>  <Genealogy>  (37) 
O=C(NCC(=O)N1C[C@H](O)C[C@H]1C(=O)[N-]C1CCCCC1)c1ccc2cc(F)ccc2n1 (protonated)
O=C(NC=C(O)N1C[C@H](O)C[C@H]1C(=O)[N-]C1CCCCC1)c1ccc2cc(F)ccc2n1 (tautomer)
O=C(N/C=C(\O)N1C[C@H](O)C[C@H]1C(=O)[N-]C1CCCCC1)c1ccc2cc(F)ccc2n1 (cis-trans isomerization)
O=C(N/C=C(\O)N1C[C@H](O)C[C@H]1C(=O)[N-]C1CCCCC1)c1ccc2cc(F)ccc2n1 (3D coordinates assigned)
O=C(N/C=C(\O)N1C[C@H](O)C[C@H]1C(=O)[N-]C1CCCCC1)c1ccc2cc(F)ccc2n1 (nonaromatic ring conformer: 56.97971883532094 kcal/mol)

>  <smiles>  (37) 
O=C(NCC(=O)N1C[C@H](O)C[C@H]1C(=O)NC1CCCCC1)c1ccc2cc(F)ccc2n1

>  <score_type>  (37) 
oracle

>  <origin>  (37) 
autodockgpu

>  <m_score__min__energy>  (37) 
-8.2699999999999996

>  <m_primary>  (37) 
energy

>  <meeko>  (37) 
{"free_energy": -7.31, "intermolecular_energy": -10.0, "internal_energy": -2.4, "cluster_size": 13, "cluster_id": 1, "rank_in_cluster": 9}

>  <energy>  (37) 
-7.54

>  <cluster_rmsd>  (37) 
0.11

>  <rmsd>  (37) 
273.26

>  <cluster>  (37) 
4

$$$$
CFVPHIVDXPJTQV-GDOATJJJNA-M
     RDKit          3D

 58 61  0  0  0  0  0  0  0  0999 V2000
  140.6560   71.0600  219.4180 H   0  0  0  0  0  0  0  0  0  0  0  0
  140.7340   72.0040  219.0620 O   0  0  0  0  0  0  0  0  0  0  0  0
  140.4420   73.1540  219.8040 C   0  0  0  0  0  0  0  0  0  0  0  0
  139.4050   73.1910  220.6660 C   0  0  0  0  0  0  0  0  0  0  0  0
  138.4366   73.5659  220.3032 H   0  0  0  0  0  0  0  0  0  0  0  0
  139.5030   72.7650  222.0340 N   0  0  0  0  0  0  0  0  0  0  0  0
  139.3680   73.4520  222.8080 H   0  0  0  0  0  0  0  0  0  0  0  0
  139.9180   71.4310  222.3740 C   0  0  0  0  0  0  0  0  0  0  0  0
  140.1080   70.5810  221.4600 O   0  0  0  0  0  0  0  0  0  0  0  0
  140.1200   71.0420  223.7880 C   0  0  0  0  0  0  0  0  0  0  0  0
  139.7500   69.8000  224.2080 N   0  0  0  0  0  0  0  0  0  0  0  0
  139.9110   69.3900  225.4940 C   0  0  0  0  0  0  0  0  0  0  0  0
  139.5140   68.1030  225.8770 C   0  0  0  0  0  0  0  0  0  0  0  0
  139.0713   67.4202  225.1369 H   0  0  0  0  0  0  0  0  0  0  0  0
  139.6810   67.6870  227.2010 C   0  0  0  0  0  0  0  0  0  0  0  0
  139.3680   66.6760  227.5008 H   0  0  0  0  0  0  0  0  0  0  0  0
  140.2440   68.5500  228.1460 C   0  0  0  0  0  0  0  0  0  0  0  0
  140.4030   68.1400  229.4290 F   0  0  0  0  0  0  0  0  0  0  0  0
  140.6430   69.8390  227.7720 C   0  0  0  0  0  0  0  0  0  0  0  0
  141.0845   70.5168  228.5174 H   0  0  0  0  0  0  0  0  0  0  0  0
  140.4790   70.2650  226.4450 C   0  0  0  0  0  0  0  0  0  0  0  0
  140.8680   71.5460  226.0390 C   0  0  0  0  0  0  0  0  0  0  0  0
  141.3136   72.2428  226.7642 H   0  0  0  0  0  0  0  0  0  0  0  0
  140.6890   71.9380  224.7100 C   0  0  0  0  0  0  0  0  0  0  0  0
  140.9923   72.9445  224.3860 H   0  0  0  0  0  0  0  0  0  0  0  0
  141.3030   74.3030  219.6260 N   0  0  0  0  0  0  0  0  0  0  0  0
  141.7100   74.7510  218.3040 C   0  0  0  0  0  0  0  0  0  0  0  0
  142.3345   73.9879  217.8165 H   0  0  0  0  0  0  0  0  0  0  0  0
  140.8421   74.9254  217.6510 H   0  0  0  0  0  0  0  0  0  0  0  0
  142.5110   76.0300  218.5260 C   0  0  2  0  0  0  0  0  0  0  0  0
  141.9224   76.9298  218.2938 H   0  0  0  0  0  0  0  0  0  0  0  0
  143.6290   76.0700  217.6800 O   0  0  0  0  0  0  0  0  0  0  0  0
  144.4180   75.8680  218.2490 H   0  0  0  0  0  0  0  0  0  0  0  0
  142.9240   76.0010  219.9970 C   0  0  0  0  0  0  0  0  0  0  0  0
  143.9362   75.5838  220.1035 H   0  0  0  0  0  0  0  0  0  0  0  0
  142.9445   77.0103  220.4339 H   0  0  0  0  0  0  0  0  0  0  0  0
  141.8990   75.1020  220.6950 C   0  0  1  0  0  0  0  0  0  0  0  0
  142.3662   74.4778  221.4710 H   0  0  0  0  0  0  0  0  0  0  0  0
  140.8370   75.9310  221.3860 C   0  0  0  0  0  0  0  0  0  0  0  0
  140.2040   75.4280  222.3520 O   0  0  0  0  0  0  0  0  0  0  0  0
  140.5050   77.2650  220.9750 N   0  0  0  0  0  0  0  0  0  0  0  0
  140.7760   78.5010  221.7060 C   0  0  0  0  0  0  0  0  0  0  0  0
  139.8370   79.0535  221.8577 H   0  0  0  0  0  0  0  0  0  0  0  0
  141.7550   79.3570  220.8860 C   0  0  0  0  0  0  0  0  0  0  0  0
  142.6701   78.7759  220.6993 H   0  0  0  0  0  0  0  0  0  0  0  0
  141.2687   79.6303  219.9379 H   0  0  0  0  0  0  0  0  0  0  0  0
  142.1240   80.6450  221.6310 C   0  0  0  0  0  0  0  0  0  0  0  0
  142.8673   81.2016  221.0414 H   0  0  0  0  0  0  0  0  0  0  0  0
  141.2126   81.2458  221.7664 H   0  0  0  0  0  0  0  0  0  0  0  0
  142.7120   80.3300  223.0110 C   0  0  0  0  0  0  0  0  0  0  0  0
  143.6591   79.7854  222.8826 H   0  0  0  0  0  0  0  0  0  0  0  0
  142.8810   81.2772  223.5442 H   0  0  0  0  0  0  0  0  0  0  0  0
  141.7470   79.4700  223.8370 C   0  0  0  0  0  0  0  0  0  0  0  0
  142.2277   79.2053  224.7903 H   0  0  0  0  0  0  0  0  0  0  0  0
  140.8283   80.0483  224.0150 H   0  0  0  0  0  0  0  0  0  0  0  0
  141.3760   78.1840  223.0890 C   0  0  0  0  0  0  0  0  0  0  0  0
  142.2802   77.5717  222.9567 H   0  0  0  0  0  0  0  0  0  0  0  0
  140.6243   77.6403  223.6800 H   0  0  0  0  0  0  0  0  0  0  0  0
  1  2  1  0
  2  3  1  0
  3  4  2  0
  4  5  1  0
  4  6  1  0
  6  7  1  0
  6  8  1  0
  8  9  2  0
  8 10  1  0
 10 11  2  0
 11 12  1  0
 12 13  2  0
 13 14  1  0
 13 15  1  0
 15 16  1  0
 15 17  2  0
 17 18  1  0
 17 19  1  0
 19 20  1  0
 19 21  2  0
 21 22  1  0
 22 23  1  0
 22 24  2  0
 24 25  1  0
  3 26  1  0
 26 27  1  0
 27 28  1  0
 27 29  1  0
 27 30  1  0
 30 31  1  1
 30 32  1  0
 32 33  1  0
 30 34  1  0
 34 35  1  0
 34 36  1  0
 34 37  1  0
 37 38  1  1
 37 39  1  0
 39 40  2  0
 39 41  1  0
 41 42  1  0
 42 43  1  0
 42 44  1  0
 44 45  1  0
 44 46  1  0
 44 47  1  0
 47 48  1  0
 47 49  1  0
 47 50  1  0
 50 51  1  0
 50 52  1  0
 50 53  1  0
 53 54  1  0
 53 55  1  0
 53 56  1  0
 56 57  1  0
 56 58  1  0
 24 10  1  0
 37 26  1  0
 56 42  1  0
 21 12  1  0
M  CHG  1  41  -1
M  END
>  <UniqueID>  (38) 
138

>  <SMILES>  (38) 
O=C(N/C=C(\O)N1C[C@H](O)C[C@H]1C(=O)[N-]C1CCCCC1)c1ccc2cc(F)ccc2n1

>  <Energy>  (38) 
56.97971883532094

>  <Genealogy>  (38) 
O=C(NCC(=O)N1C[C@H](O)C[C@H]1C(=O)[N-]C1CCCCC1)c1ccc2cc(F)ccc2n1 (protonated)
O=C(NC=C(O)N1C[C@H](O)C[C@H]1C(=O)[N-]C1CCCCC1)c1ccc2cc(F)ccc2n1 (tautomer)
O=C(N/C=C(\O)N1C[C@H](O)C[C@H]1C(=O)[N-]C1CCCCC1)c1ccc2cc(F)ccc2n1 (cis-trans isomerization)
O=C(N/C=C(\O)N1C[C@H](O)C[C@H]1C(=O)[N-]C1CCCCC1)c1ccc2cc(F)ccc2n1 (3D coordinates assigned)
O=C(N/C=C(\O)N1C[C@H](O)C[C@H]1C(=O)[N-]C1CCCCC1)c1ccc2cc(F)ccc2n1 (nonaromatic ring conformer: 56.97971883532094 kcal/mol)

>  <smiles>  (38) 
O=C(NCC(=O)N1C[C@H](O)C[C@H]1C(=O)NC1CCCCC1)c1ccc2cc(F)ccc2n1

>  <score_type>  (38) 
oracle

>  <origin>  (38) 
autodockgpu

>  <m_score__min__energy>  (38) 
-8.2699999999999996

>  <m_primary>  (38) 
energy

>  <meeko>  (38) 
{"free_energy": -7.52, "intermolecular_energy": -10.2, "internal_energy": -2.87, "cluster_size": 13, "cluster_id": 1, "rank_in_cluster": 7}

>  <energy>  (38) 
-7.4

>  <cluster_rmsd>  (38) 
0.0

>  <rmsd>  (38) 
273.8

>  <cluster>  (38) 
5

$$$$
CFVPHIVDXPJTQV-GDOATJJJNA-M
     RDKit          3D

 58 61  0  0  0  0  0  0  0  0999 V2000
  140.4320   72.1470  219.0790 H   0  0  0  0  0  0  0  0  0  0  0  0
  140.5430   73.1420  218.9360 O   0  0  0  0  0  0  0  0  0  0  0  0
  140.0350   74.1240  219.7940 C   0  0  0  0  0  0  0  0  0  0  0  0
  138.9530   73.8920  220.5670 C   0  0  0  0  0  0  0  0  0  0  0  0
  137.9799   74.2835  220.2357 H   0  0  0  0  0  0  0  0  0  0  0  0
  139.0100   73.1590  221.8010 N   0  0  0  0  0  0  0  0  0  0  0  0
  138.9040   73.6580  222.7110 H   0  0  0  0  0  0  0  0  0  0  0  0
  139.3460   71.7620  221.8270 C   0  0  0  0  0  0  0  0  0  0  0  0
  139.4990   71.1340  220.7430 O   0  0  0  0  0  0  0  0  0  0  0  0
  139.5080   71.0490  223.1140 C   0  0  0  0  0  0  0  0  0  0  0  0
  140.0980   71.6800  224.1670 N   0  0  0  0  0  0  0  0  0  0  0  0
  140.2730   71.0740  225.3710 C   0  0  0  0  0  0  0  0  0  0  0  0
  140.8870   71.7650  226.4240 C   0  0  0  0  0  0  0  0  0  0  0  0
  141.2287   72.8003  226.2779 H   0  0  0  0  0  0  0  0  0  0  0  0
  141.0650   71.1370  227.6610 C   0  0  0  0  0  0  0  0  0  0  0  0
  141.5475   71.6803  228.4868 H   0  0  0  0  0  0  0  0  0  0  0  0
  140.6320   69.8210  227.8520 C   0  0  0  0  0  0  0  0  0  0  0  0
  140.8090   69.2180  229.0540 F   0  0  0  0  0  0  0  0  0  0  0  0
  140.0180   69.1230  226.8050 C   0  0  0  0  0  0  0  0  0  0  0  0
  139.6787   68.0879  226.9578 H   0  0  0  0  0  0  0  0  0  0  0  0
  139.8360   69.7450  225.5610 C   0  0  0  0  0  0  0  0  0  0  0  0
  139.2250   69.0760  224.4950 C   0  0  0  0  0  0  0  0  0  0  0  0
  138.8755   68.0407  224.6214 H   0  0  0  0  0  0  0  0  0  0  0  0
  139.0600   69.7260  223.2700 C   0  0  0  0  0  0  0  0  0  0  0  0
  138.5804   69.2037  222.4291 H   0  0  0  0  0  0  0  0  0  0  0  0
  140.7200   75.3970  219.8370 N   0  0  0  0  0  0  0  0  0  0  0  0
  140.9850   76.1590  218.6270 C   0  0  0  0  0  0  0  0  0  0  0  0
  141.6781   75.6098  217.9728 H   0  0  0  0  0  0  0  0  0  0  0  0
  140.0650   76.3349  218.0502 H   0  0  0  0  0  0  0  0  0  0  0  0
  141.6160   77.4680  219.0890 C   0  0  2  0  0  0  0  0  0  0  0  0
  140.8979   78.3010  219.0675 H   0  0  0  0  0  0  0  0  0  0  0  0
  142.6680   77.8400  218.2390 O   0  0  0  0  0  0  0  0  0  0  0  0
  143.3510   78.2780  218.8110 H   0  0  0  0  0  0  0  0  0  0  0  0
  142.1150   77.2000  220.5090 C   0  0  0  0  0  0  0  0  0  0  0  0
  143.1790   76.9210  220.4961 H   0  0  0  0  0  0  0  0  0  0  0  0
  142.0244   78.0910  221.1477 H   0  0  0  0  0  0  0  0  0  0  0  0
  141.2640   76.0390  221.0310 C   0  0  1  0  0  0  0  0  0  0  0  0
  141.8565   75.3439  221.6440 H   0  0  0  0  0  0  0  0  0  0  0  0
  140.1410   76.5480  221.9110 C   0  0  0  0  0  0  0  0  0  0  0  0
  139.5830   75.7490  222.7100 O   0  0  0  0  0  0  0  0  0  0  0  0
  139.6700   77.9030  221.8620 N   0  0  0  0  0  0  0  0  0  0  0  0
  140.2610   79.0620  222.5270 C   0  0  0  0  0  0  0  0  0  0  0  0
  139.5139   79.5324  223.1831 H   0  0  0  0  0  0  0  0  0  0  0  0
  140.7180   80.0660  221.4570 C   0  0  0  0  0  0  0  0  0  0  0  0
  141.4281   79.5697  220.7792 H   0  0  0  0  0  0  0  0  0  0  0  0
  139.8327   80.4134  220.9043 H   0  0  0  0  0  0  0  0  0  0  0  0
  141.4010   81.2820  222.0940 C   0  0  0  0  0  0  0  0  0  0  0  0
  141.7639   81.9491  221.2982 H   0  0  0  0  0  0  0  0  0  0  0  0
  140.6694   81.8034  222.7288 H   0  0  0  0  0  0  0  0  0  0  0  0
  142.5860   80.8500  222.9660 C   0  0  0  0  0  0  0  0  0  0  0  0
  143.3522   80.3862  222.3274 H   0  0  0  0  0  0  0  0  0  0  0  0
  142.9914   81.7391  223.4712 H   0  0  0  0  0  0  0  0  0  0  0  0
  142.1450   79.8410  224.0330 C   0  0  0  0  0  0  0  0  0  0  0  0
  143.0288   79.5003  224.5924 H   0  0  0  0  0  0  0  0  0  0  0  0
  141.4283   80.3347  224.7058 H   0  0  0  0  0  0  0  0  0  0  0  0
  141.4580   78.6280  223.3950 C   0  0  0  0  0  0  0  0  0  0  0  0
  142.1842   78.0941  222.7645 H   0  0  0  0  0  0  0  0  0  0  0  0
  141.0884   77.9732  224.1979 H   0  0  0  0  0  0  0  0  0  0  0  0
  1  2  1  0
  2  3  1  0
  3  4  2  0
  4  5  1  0
  4  6  1  0
  6  7  1  0
  6  8  1  0
  8  9  2  0
  8 10  1  0
 10 11  2  0
 11 12  1  0
 12 13  2  0
 13 14  1  0
 13 15  1  0
 15 16  1  0
 15 17  2  0
 17 18  1  0
 17 19  1  0
 19 20  1  0
 19 21  2  0
 21 22  1  0
 22 23  1  0
 22 24  2  0
 24 25  1  0
  3 26  1  0
 26 27  1  0
 27 28  1  0
 27 29  1  0
 27 30  1  0
 30 31  1  1
 30 32  1  0
 32 33  1  0
 30 34  1  0
 34 35  1  0
 34 36  1  0
 34 37  1  0
 37 38  1  1
 37 39  1  0
 39 40  2  0
 39 41  1  0
 41 42  1  0
 42 43  1  0
 42 44  1  0
 44 45  1  0
 44 46  1  0
 44 47  1  0
 47 48  1  0
 47 49  1  0
 47 50  1  0
 50 51  1  0
 50 52  1  0
 50 53  1  0
 53 54  1  0
 53 55  1  0
 53 56  1  0
 56 57  1  0
 56 58  1  0
 24 10  1  0
 37 26  1  0
 56 42  1  0
 21 12  1  0
M  CHG  1  41  -1
M  END
>  <UniqueID>  (39) 
138

>  <SMILES>  (39) 
O=C(N/C=C(\O)N1C[C@H](O)C[C@H]1C(=O)[N-]C1CCCCC1)c1ccc2cc(F)ccc2n1

>  <Energy>  (39) 
56.97971883532094

>  <Genealogy>  (39) 
O=C(NCC(=O)N1C[C@H](O)C[C@H]1C(=O)[N-]C1CCCCC1)c1ccc2cc(F)ccc2n1 (protonated)
O=C(NC=C(O)N1C[C@H](O)C[C@H]1C(=O)[N-]C1CCCCC1)c1ccc2cc(F)ccc2n1 (tautomer)
O=C(N/C=C(\O)N1C[C@H](O)C[C@H]1C(=O)[N-]C1CCCCC1)c1ccc2cc(F)ccc2n1 (cis-trans isomerization)
O=C(N/C=C(\O)N1C[C@H](O)C[C@H]1C(=O)[N-]C1CCCCC1)c1ccc2cc(F)ccc2n1 (3D coordinates assigned)
O=C(N/C=C(\O)N1C[C@H](O)C[C@H]1C(=O)[N-]C1CCCCC1)c1ccc2cc(F)ccc2n1 (nonaromatic ring conformer: 56.97971883532094 kcal/mol)

>  <smiles>  (39) 
O=C(NCC(=O)N1C[C@H](O)C[C@H]1C(=O)NC1CCCCC1)c1ccc2cc(F)ccc2n1

>  <score_type>  (39) 
oracle

>  <origin>  (39) 
autodockgpu

>  <m_score__min__energy>  (39) 
-8.2699999999999996

>  <m_primary>  (39) 
energy

>  <meeko>  (39) 
{"free_energy": -7.14, "intermolecular_energy": -9.82, "internal_energy": -3.02, "cluster_size": 13, "cluster_id": 1, "rank_in_cluster": 11}

>  <energy>  (39) 
-7.25

>  <cluster_rmsd>  (39) 
0.0

>  <rmsd>  (39) 
272.88

>  <cluster>  (39) 
6

$$$$
CFVPHIVDXPJTQV-GDOATJJJNA-M
     RDKit          3D

 58 61  0  0  0  0  0  0  0  0999 V2000
  136.4780   76.2330  220.8080 H   0  0  0  0  0  0  0  0  0  0  0  0
  136.5160   75.2290  220.6920 O   0  0  0  0  0  0  0  0  0  0  0  0
  137.5460   74.4170  221.1820 C   0  0  0  0  0  0  0  0  0  0  0  0
  137.3370   73.1170  221.4760 C   0  0  0  0  0  0  0  0  0  0  0  0
  136.7564   72.5077  220.7677 H   0  0  0  0  0  0  0  0  0  0  0  0
  137.8350   72.4890  222.6680 N   0  0  0  0  0  0  0  0  0  0  0  0
  137.3560   72.6470  223.5810 H   0  0  0  0  0  0  0  0  0  0  0  0
  139.0660   71.7470  222.6650 C   0  0  0  0  0  0  0  0  0  0  0  0
  139.6790   71.5540  221.5780 O   0  0  0  0  0  0  0  0  0  0  0  0
  139.6190   71.2000  223.9240 C   0  0  0  0  0  0  0  0  0  0  0  0
  139.1540   70.0160  224.4100 N   0  0  0  0  0  0  0  0  0  0  0  0
  139.6250   69.4680  225.5610 C   0  0  0  0  0  0  0  0  0  0  0  0
  139.1140   68.2480  226.0200 C   0  0  0  0  0  0  0  0  0  0  0  0
  138.3295   67.7300  225.4488 H   0  0  0  0  0  0  0  0  0  0  0  0
  139.6020   67.6880  227.2060 C   0  0  0  0  0  0  0  0  0  0  0  0
  139.1999   66.7294  227.5658 H   0  0  0  0  0  0  0  0  0  0  0  0
  140.5990   68.3430  227.9350 C   0  0  0  0  0  0  0  0  0  0  0  0
  141.0670   67.7950  229.0840 F   0  0  0  0  0  0  0  0  0  0  0  0
  141.1150   69.5630  227.4840 C   0  0  0  0  0  0  0  0  0  0  0  0
  141.8990   70.0757  228.0606 H   0  0  0  0  0  0  0  0  0  0  0  0
  140.6320   70.1320  226.2960 C   0  0  0  0  0  0  0  0  0  0  0  0
  141.1270   71.3490  225.8170 C   0  0  0  0  0  0  0  0  0  0  0  0
  141.9122   71.8817  226.3736 H   0  0  0  0  0  0  0  0  0  0  0  0
  140.6230   71.8870  224.6310 C   0  0  0  0  0  0  0  0  0  0  0  0
  141.0094   72.8442  224.2509 H   0  0  0  0  0  0  0  0  0  0  0  0
  138.8510   75.0170  221.3510 N   0  0  0  0  0  0  0  0  0  0  0  0
  139.9430   74.7310  220.4350 C   0  0  0  0  0  0  0  0  0  0  0  0
  140.2291   73.6708  220.4997 H   0  0  0  0  0  0  0  0  0  0  0  0
  139.6567   74.9271  219.3912 H   0  0  0  0  0  0  0  0  0  0  0  0
  141.1010   75.6210  220.8750 C   0  0  2  0  0  0  0  0  0  0  0  0
  141.2160   76.4998  220.2234 H   0  0  0  0  0  0  0  0  0  0  0  0
  142.3170   74.9250  220.8060 O   0  0  0  0  0  0  0  0  0  0  0  0
  142.9280   75.3610  221.4560 H   0  0  0  0  0  0  0  0  0  0  0  0
  140.7740   76.0310  222.3110 C   0  0  0  0  0  0  0  0  0  0  0  0
  141.2749   75.3610  223.0252 H   0  0  0  0  0  0  0  0  0  0  0  0
  141.1191   77.0519  222.5316 H   0  0  0  0  0  0  0  0  0  0  0  0
  139.2530   75.9070  222.4380 C   0  0  1  0  0  0  0  0  0  0  0  0
  138.9573   75.5198  223.4242 H   0  0  0  0  0  0  0  0  0  0  0  0
  138.5870   77.2580  222.2850 C   0  0  0  0  0  0  0  0  0  0  0  0
  137.6140   77.3720  221.4930 O   0  0  0  0  0  0  0  0  0  0  0  0
  139.0280   78.4250  222.9940 N   0  0  0  0  0  0  0  0  0  0  0  0
  140.2080   79.2360  222.7000 C   0  0  0  0  0  0  0  0  0  0  0  0
  140.5652   79.0135  221.6837 H   0  0  0  0  0  0  0  0  0  0  0  0
  141.3060   78.9000  223.7220 C   0  0  0  0  0  0  0  0  0  0  0  0
  140.9202   79.0810  224.7361 H   0  0  0  0  0  0  0  0  0  0  0  0
  141.5872   77.8439  223.5975 H   0  0  0  0  0  0  0  0  0  0  0  0
  142.5530   79.7650  223.4990 C   0  0  0  0  0  0  0  0  0  0  0  0
  143.2932   79.5378  224.2803 H   0  0  0  0  0  0  0  0  0  0  0  0
  142.9631   79.5397  222.5035 H   0  0  0  0  0  0  0  0  0  0  0  0
  142.2030   81.2560  223.5580 C   0  0  0  0  0  0  0  0  0  0  0  0
  141.8528   81.5034  224.5710 H   0  0  0  0  0  0  0  0  0  0  0  0
  143.1030   81.8372  223.3085 H   0  0  0  0  0  0  0  0  0  0  0  0
  141.1020   81.6030  222.5480 C   0  0  0  0  0  0  0  0  0  0  0  0
  140.8271   82.6616  222.6655 H   0  0  0  0  0  0  0  0  0  0  0  0
  141.4850   81.4137  221.5344 H   0  0  0  0  0  0  0  0  0  0  0  0
  139.8580   80.7350  222.7690 C   0  0  0  0  0  0  0  0  0  0  0  0
  139.4343   80.9598  223.7589 H   0  0  0  0  0  0  0  0  0  0  0  0
  139.1294   80.9605  221.9763 H   0  0  0  0  0  0  0  0  0  0  0  0
  1  2  1  0
  2  3  1  0
  3  4  2  0
  4  5  1  0
  4  6  1  0
  6  7  1  0
  6  8  1  0
  8  9  2  0
  8 10  1  0
 10 11  2  0
 11 12  1  0
 12 13  2  0
 13 14  1  0
 13 15  1  0
 15 16  1  0
 15 17  2  0
 17 18  1  0
 17 19  1  0
 19 20  1  0
 19 21  2  0
 21 22  1  0
 22 23  1  0
 22 24  2  0
 24 25  1  0
  3 26  1  0
 26 27  1  0
 27 28  1  0
 27 29  1  0
 27 30  1  0
 30 31  1  6
 30 32  1  0
 32 33  1  0
 30 34  1  0
 34 35  1  0
 34 36  1  0
 34 37  1  0
 37 38  1  1
 37 39  1  0
 39 40  2  0
 39 41  1  0
 41 42  1  0
 42 43  1  0
 42 44  1  0
 44 45  1  0
 44 46  1  0
 44 47  1  0
 47 48  1  0
 47 49  1  0
 47 50  1  0
 50 51  1  0
 50 52  1  0
 50 53  1  0
 53 54  1  0
 53 55  1  0
 53 56  1  0
 56 57  1  0
 56 58  1  0
 24 10  1  0
 37 26  1  0
 56 42  1  0
 21 12  1  0
M  CHG  1  41  -1
M  END
>  <UniqueID>  (40) 
138

>  <SMILES>  (40) 
O=C(N/C=C(\O)N1C[C@H](O)C[C@H]1C(=O)[N-]C1CCCCC1)c1ccc2cc(F)ccc2n1

>  <Energy>  (40) 
56.97971883532094

>  <Genealogy>  (40) 
O=C(NCC(=O)N1C[C@H](O)C[C@H]1C(=O)[N-]C1CCCCC1)c1ccc2cc(F)ccc2n1 (protonated)
O=C(NC=C(O)N1C[C@H](O)C[C@H]1C(=O)[N-]C1CCCCC1)c1ccc2cc(F)ccc2n1 (tautomer)
O=C(N/C=C(\O)N1C[C@H](O)C[C@H]1C(=O)[N-]C1CCCCC1)c1ccc2cc(F)ccc2n1 (cis-trans isomerization)
O=C(N/C=C(\O)N1C[C@H](O)C[C@H]1C(=O)[N-]C1CCCCC1)c1ccc2cc(F)ccc2n1 (3D coordinates assigned)
O=C(N/C=C(\O)N1C[C@H](O)C[C@H]1C(=O)[N-]C1CCCCC1)c1ccc2cc(F)ccc2n1 (nonaromatic ring conformer: 56.97971883532094 kcal/mol)

>  <smiles>  (40) 
O=C(NCC(=O)N1C[C@H](O)C[C@H]1C(=O)NC1CCCCC1)c1ccc2cc(F)ccc2n1

>  <score_type>  (40) 
oracle

>  <origin>  (40) 
autodockgpu

>  <m_score__min__energy>  (40) 
-8.2699999999999996

>  <m_primary>  (40) 
energy

>  <meeko>  (40) 
{"free_energy": -7.54, "intermolecular_energy": -10.22, "internal_energy": -2.29, "cluster_size": 2, "cluster_id": 4, "rank_in_cluster": 2}

>  <energy>  (40) 
-7.03

>  <cluster_rmsd>  (40) 
1.2

>  <rmsd>  (40) 
272.72

>  <cluster>  (40) 
6

$$$$
YMXDKILJCZTOEU-UDRLWISANA-M
     RDKit          3D

 58 61  0  0  0  0  0  0  0  0999 V2000
  138.8400   71.3810  221.1750 O   0  0  0  0  0  0  0  0  0  0  0  0
  139.2250   71.8980  222.2600 C   0  0  0  0  0  0  0  0  0  0  0  0
  139.4480   73.3170  222.3430 N   0  0  0  0  0  0  0  0  0  0  0  0
  139.2250   74.2270  221.2240 C   0  0  0  0  0  0  0  0  0  0  0  0
  140.1930   73.9340  220.1120 C   0  0  0  0  0  0  0  0  0  0  0  0
  140.0100   72.8960  219.4180 O   0  0  0  0  0  0  0  0  0  0  0  0
  141.3150   74.7910  219.8240 N   0  0  0  0  0  0  0  0  0  0  0  0
  142.3610   74.3890  218.8920 C   0  0  0  0  0  0  0  0  0  0  0  0
  143.5620   75.2800  219.2100 C   0  0  2  0  0  0  0  0  0  0  0  0
  144.4460   74.6110  220.0730 O   0  0  0  0  0  0  0  0  0  0  0  0
  142.9770   76.4940  219.9280 C   0  0  0  0  0  0  0  0  0  0  0  0
  141.6510   76.0230  220.5290 C   0  0  1  0  0  0  0  0  0  0  0  0
  140.5800   77.0570  220.3380 C   0  0  0  0  0  0  0  0  0  0  0  0
  140.2230   77.3780  219.1710 O   0  0  0  0  0  0  0  0  0  0  0  0
  139.9570   77.6600  221.4790 N   0  0  0  0  0  0  0  0  0  0  0  0
  140.2070   79.0360  221.9060 C   0  0  0  0  0  0  0  0  0  0  0  0
  141.4520   79.5690  221.1630 C   0  0  0  0  0  0  0  0  0  0  0  0
  142.1590   80.6720  221.9550 C   0  0  0  0  0  0  0  0  0  0  0  0
  142.6650   80.1550  223.3190 C   0  0  0  0  0  0  0  0  0  0  0  0
  141.8100   79.0070  223.8960 C   0  0  0  0  0  0  0  0  0  0  0  0
  140.3480   79.1060  223.4500 C   0  0  0  0  0  0  0  0  0  0  0  0
  139.4510   71.0410  223.4430 C   0  0  0  0  0  0  0  0  0  0  0  0
  139.1130   69.6760  223.4240 C   0  0  0  0  0  0  0  0  0  0  0  0
  139.3430   68.8890  224.5560 C   0  0  0  0  0  0  0  0  0  0  0  0
  139.9040   69.4660  225.7030 C   0  0  0  0  0  0  0  0  0  0  0  0
  140.1450   68.7070  226.8570 C   0  0  0  0  0  0  0  0  0  0  0  0
  140.7050   69.3120  227.9880 C   0  0  0  0  0  0  0  0  0  0  0  0
  140.9330   68.5780  229.1080 F   0  0  0  0  0  0  0  0  0  0  0  0
  141.0320   70.6730  227.9690 C   0  0  0  0  0  0  0  0  0  0  0  0
  140.8010   71.4360  226.8190 C   0  0  0  0  0  0  0  0  0  0  0  0
  140.2340   70.8390  225.6860 C   0  0  0  0  0  0  0  0  0  0  0  0
  140.0020   71.5780  224.5680 N   0  0  0  0  0  0  0  0  0  0  0  0
  139.7140   73.7340  223.2630 H   0  0  0  0  0  0  0  0  0  0  0  0
  138.1972   74.1008  220.8530 H   0  0  0  0  0  0  0  0  0  0  0  0
  139.3774   75.2607  221.5678 H   0  0  0  0  0  0  0  0  0  0  0  0
  142.6194   73.3299  219.0388 H   0  0  0  0  0  0  0  0  0  0  0  0
  142.0382   74.5001  217.8463 H   0  0  0  0  0  0  0  0  0  0  0  0
  144.1205   75.5532  218.3026 H   0  0  0  0  0  0  0  0  0  0  0  0
  145.3340   74.6180  219.6280 H   0  0  0  0  0  0  0  0  0  0  0  0
  143.6580   76.8346  220.7219 H   0  0  0  0  0  0  0  0  0  0  0  0
  142.8323   77.3404  219.2405 H   0  0  0  0  0  0  0  0  0  0  0  0
  141.7346   75.8586  221.6134 H   0  0  0  0  0  0  0  0  0  0  0  0
  139.3556   79.6821  221.6458 H   0  0  0  0  0  0  0  0  0  0  0  0
  142.1550   78.7379  221.0049 H   0  0  0  0  0  0  0  0  0  0  0  0
  141.1212   79.9953  220.2045 H   0  0  0  0  0  0  0  0  0  0  0  0
  143.0165   81.0375  221.3710 H   0  0  0  0  0  0  0  0  0  0  0  0
  141.4368   81.4810  222.1394 H   0  0  0  0  0  0  0  0  0  0  0  0
  143.6960   79.7926  223.1936 H   0  0  0  0  0  0  0  0  0  0  0  0
  142.6019   80.9941  224.0275 H   0  0  0  0  0  0  0  0  0  0  0  0
  142.2231   78.0476  223.5512 H   0  0  0  0  0  0  0  0  0  0  0  0
  141.8380   79.0785  224.9933 H   0  0  0  0  0  0  0  0  0  0  0  0
  139.7831   78.2745  223.8966 H   0  0  0  0  0  0  0  0  0  0  0  0
  139.9551   80.0776  223.7841 H   0  0  0  0  0  0  0  0  0  0  0  0
  138.6694   69.2295  222.5219 H   0  0  0  0  0  0  0  0  0  0  0  0
  139.0844   67.8199  224.5464 H   0  0  0  0  0  0  0  0  0  0  0  0
  139.8940   67.6362  226.8734 H   0  0  0  0  0  0  0  0  0  0  0  0
  141.4717   71.1439  228.8605 H   0  0  0  0  0  0  0  0  0  0  0  0
  141.0645   72.5039  226.8048 H   0  0  0  0  0  0  0  0  0  0  0  0
  1  2  2  0
  2  3  1  0
  3  4  1  0
  4  5  1  0
  5  6  2  0
  5  7  1  0
  7  8  1  0
  8  9  1  0
  9 10  1  0
  9 11  1  0
 11 12  1  0
 12 13  1  0
 13 14  2  0
 13 15  1  0
 15 16  1  0
 16 17  1  0
 17 18  1  0
 18 19  1  0
 19 20  1  0
 20 21  1  0
  2 22  1  0
 22 23  2  0
 23 24  1  0
 24 25  2  0
 25 26  1  0
 26 27  2  0
 27 28  1  0
 27 29  1  0
 29 30  2  0
 30 31  1  0
 31 32  2  0
 12  7  1  0
 21 16  1  0
 32 22  1  0
 31 25  1  0
  3 33  1  0
  4 34  1  0
  4 35  1  0
  8 36  1  0
  8 37  1  0
  9 38  1  6
 10 39  1  0
 11 40  1  0
 11 41  1  0
 12 42  1  1
 16 43  1  0
 17 44  1  0
 17 45  1  0
 18 46  1  0
 18 47  1  0
 19 48  1  0
 19 49  1  0
 20 50  1  0
 20 51  1  0
 21 52  1  0
 21 53  1  0
 23 54  1  0
 24 55  1  0
 26 56  1  0
 29 57  1  0
 30 58  1  0
M  CHG  1  15  -1
M  END
>  <UniqueID>  (41) 
139

>  <SMILES>  (41) 
O=C(NCC(=O)N1C[C@H](O)C[C@H]1C(=O)[N-]C1CCCCC1)c1ccc2cc(F)ccc2n1

>  <Energy>  (41) 
58.44419743129

>  <Genealogy>  (41) 
O=C(NCC(=O)N1C[C@H](O)C[C@H]1C(=O)[N-]C1CCCCC1)c1ccc2cc(F)ccc2n1 (protonated)
O=C(NCC(=O)N1C[C@H](O)C[C@H]1C(=O)[N-]C1CCCCC1)c1ccc2cc(F)ccc2n1 (3D coordinates assigned)
O=C(NCC(=O)N1C[C@H](O)C[C@H]1C(=O)[N-]C1CCCCC1)c1ccc2cc(F)ccc2n1 (nonaromatic ring conformer: 58.44419743129 kcal/mol)

>  <smiles>  (41) 
O=C(NCC(=O)N1C[C@H](O)C[C@H]1C(=O)NC1CCCCC1)c1ccc2cc(F)ccc2n1

>  <score_type>  (41) 
oracle

>  <origin>  (41) 
autodockgpu

>  <m_score__min__energy>  (41) 
-8.7599999999999998

>  <m_primary>  (41) 
energy

>  <meeko>  (41) 
{"free_energy": -7.43, "intermolecular_energy": -9.82, "internal_energy": -1.82, "cluster_size": 9, "cluster_id": 1, "rank_in_cluster": 8}

>  <energy>  (41) 
-8.76

>  <cluster_rmsd>  (41) 
0.0

>  <rmsd>  (41) 
272.84

>  <cluster>  (41) 
1

$$$$
YMXDKILJCZTOEU-UDRLWISANA-M
     RDKit          3D

 58 61  0  0  0  0  0  0  0  0999 V2000
  141.3050   72.3070  221.7150 O   0  0  0  0  0  0  0  0  0  0  0  0
  140.3040   72.3870  222.4800 C   0  0  0  0  0  0  0  0  0  0  0  0
  139.2960   73.3870  222.2460 N   0  0  0  0  0  0  0  0  0  0  0  0
  139.3470   74.3260  221.1300 C   0  0  0  0  0  0  0  0  0  0  0  0
  140.0690   75.5800  221.5360 C   0  0  0  0  0  0  0  0  0  0  0  0
  139.9340   75.9910  222.7220 O   0  0  0  0  0  0  0  0  0  0  0  0
  140.8980   76.3210  220.6200 N   0  0  0  0  0  0  0  0  0  0  0  0
  141.7070   75.6490  219.6100 C   0  0  0  0  0  0  0  0  0  0  0  0
  142.7690   76.6650  219.1890 C   0  0  2  0  0  0  0  0  0  0  0  0
  143.9590   76.4460  219.9020 O   0  0  0  0  0  0  0  0  0  0  0  0
  142.1920   78.0250  219.5730 C   0  0  0  0  0  0  0  0  0  0  0  0
  141.1850   77.7490  220.6920 C   0  0  1  0  0  0  0  0  0  0  0  0
  139.9350   78.5570  220.4980 C   0  0  0  0  0  0  0  0  0  0  0  0
  139.4640   78.7090  219.3370 O   0  0  0  0  0  0  0  0  0  0  0  0
  139.2740   79.1340  221.6310 N   0  0  0  0  0  0  0  0  0  0  0  0
  139.9020   80.1030  222.5280 C   0  0  0  0  0  0  0  0  0  0  0  0
  141.0470   80.8120  221.7720 C   0  0  0  0  0  0  0  0  0  0  0  0
  142.1280   81.3260  222.7270 C   0  0  0  0  0  0  0  0  0  0  0  0
  142.7850   80.1700  223.5130 C   0  0  0  0  0  0  0  0  0  0  0  0
  141.8420   78.9710  223.7450 C   0  0  0  0  0  0  0  0  0  0  0  0
  140.3770   79.4070  223.8310 C   0  0  0  0  0  0  0  0  0  0  0  0
  140.1730   71.4540  223.6190 C   0  0  0  0  0  0  0  0  0  0  0  0
  139.5750   70.1920  223.4570 C   0  0  0  0  0  0  0  0  0  0  0  0
  139.4690   69.3290  224.5510 C   0  0  0  0  0  0  0  0  0  0  0  0
  139.9550   69.7290  225.8020 C   0  0  0  0  0  0  0  0  0  0  0  0
  139.8640   68.8900  226.9230 C   0  0  0  0  0  0  0  0  0  0  0  0
  140.3570   69.3180  228.1600 C   0  0  0  0  0  0  0  0  0  0  0  0
  140.2620   68.5080  229.2460 F   0  0  0  0  0  0  0  0  0  0  0  0
  140.9490   70.5810  228.2830 C   0  0  0  0  0  0  0  0  0  0  0  0
  141.0520   71.4210  227.1690 C   0  0  0  0  0  0  0  0  0  0  0  0
  140.5530   71.0030  225.9290 C   0  0  0  0  0  0  0  0  0  0  0  0
  140.6450   71.8190  224.8450 N   0  0  0  0  0  0  0  0  0  0  0  0
  138.4480   73.4030  222.8550 H   0  0  0  0  0  0  0  0  0  0  0  0
  139.8770   73.8590  220.2868 H   0  0  0  0  0  0  0  0  0  0  0  0
  138.3200   74.5847  220.8329 H   0  0  0  0  0  0  0  0  0  0  0  0
  142.1813   74.7512  220.0332 H   0  0  0  0  0  0  0  0  0  0  0  0
  141.0984   75.3193  218.7551 H   0  0  0  0  0  0  0  0  0  0  0  0
  143.0026   76.5920  218.1166 H   0  0  0  0  0  0  0  0  0  0  0  0
  144.0840   77.2360  220.4920 H   0  0  0  0  0  0  0  0  0  0  0  0
  142.9897   78.6923  219.9314 H   0  0  0  0  0  0  0  0  0  0  0  0
  141.7169   78.5208  218.7136 H   0  0  0  0  0  0  0  0  0  0  0  0
  141.5871   78.0309  221.6763 H   0  0  0  0  0  0  0  0  0  0  0  0
  139.1759   80.8692  222.8373 H   0  0  0  0  0  0  0  0  0  0  0  0
  141.5031   80.1001  221.0683 H   0  0  0  0  0  0  0  0  0  0  0  0
  140.6216   81.6763  221.2410 H   0  0  0  0  0  0  0  0  0  0  0  0
  142.9018   81.8469  222.1439 H   0  0  0  0  0  0  0  0  0  0  0  0
  141.6551   82.0088  223.4482 H   0  0  0  0  0  0  0  0  0  0  0  0
  143.6620   79.8195  222.9491 H   0  0  0  0  0  0  0  0  0  0  0  0
  143.0569   80.5647  224.5031 H   0  0  0  0  0  0  0  0  0  0  0  0
  141.9543   78.2633  222.9104 H   0  0  0  0  0  0  0  0  0  0  0  0
  142.1153   78.5017  224.7016 H   0  0  0  0  0  0  0  0  0  0  0  0
  139.7518   78.5194  224.0081 H   0  0  0  0  0  0  0  0  0  0  0  0
  140.2844   80.1289  224.6558 H   0  0  0  0  0  0  0  0  0  0  0  0
  139.1919   69.8850  222.4726 H   0  0  0  0  0  0  0  0  0  0  0  0
  139.0054   68.3389  224.4299 H   0  0  0  0  0  0  0  0  0  0  0  0
  139.4046   67.8950  226.8289 H   0  0  0  0  0  0  0  0  0  0  0  0
  141.3341   70.9136  229.2582 H   0  0  0  0  0  0  0  0  0  0  0  0
  141.5247   72.4094  227.2670 H   0  0  0  0  0  0  0  0  0  0  0  0
  1  2  2  0
  2  3  1  0
  3  4  1  0
  4  5  1  0
  5  6  2  0
  5  7  1  0
  7  8  1  0
  8  9  1  0
  9 10  1  0
  9 11  1  0
 11 12  1  0
 12 13  1  0
 13 14  2  0
 13 15  1  0
 15 16  1  0
 16 17  1  0
 17 18  1  0
 18 19  1  0
 19 20  1  0
 20 21  1  0
  2 22  1  0
 22 23  2  0
 23 24  1  0
 24 25  2  0
 25 26  1  0
 26 27  2  0
 27 28  1  0
 27 29  1  0
 29 30  2  0
 30 31  1  0
 31 32  2  0
 12  7  1  0
 21 16  1  0
 32 22  1  0
 31 25  1  0
  3 33  1  0
  4 34  1  0
  4 35  1  0
  8 36  1  0
  8 37  1  0
  9 38  1  6
 10 39  1  0
 11 40  1  0
 11 41  1  0
 12 42  1  1
 16 43  1  0
 17 44  1  0
 17 45  1  0
 18 46  1  0
 18 47  1  0
 19 48  1  0
 19 49  1  0
 20 50  1  0
 20 51  1  0
 21 52  1  0
 21 53  1  0
 23 54  1  0
 24 55  1  0
 26 56  1  0
 29 57  1  0
 30 58  1  0
M  CHG  1  15  -1
M  END
>  <UniqueID>  (42) 
139

>  <SMILES>  (42) 
O=C(NCC(=O)N1C[C@H](O)C[C@H]1C(=O)[N-]C1CCCCC1)c1ccc2cc(F)ccc2n1

>  <Energy>  (42) 
58.44419743129

>  <Genealogy>  (42) 
O=C(NCC(=O)N1C[C@H](O)C[C@H]1C(=O)[N-]C1CCCCC1)c1ccc2cc(F)ccc2n1 (protonated)
O=C(NCC(=O)N1C[C@H](O)C[C@H]1C(=O)[N-]C1CCCCC1)c1ccc2cc(F)ccc2n1 (3D coordinates assigned)
O=C(NCC(=O)N1C[C@H](O)C[C@H]1C(=O)[N-]C1CCCCC1)c1ccc2cc(F)ccc2n1 (nonaromatic ring conformer: 58.44419743129 kcal/mol)

>  <smiles>  (42) 
O=C(NCC(=O)N1C[C@H](O)C[C@H]1C(=O)NC1CCCCC1)c1ccc2cc(F)ccc2n1

>  <score_type>  (42) 
oracle

>  <origin>  (42) 
autodockgpu

>  <m_score__min__energy>  (42) 
-8.7599999999999998

>  <m_primary>  (42) 
energy

>  <meeko>  (42) 
{"free_energy": -8.76, "intermolecular_energy": -11.15, "internal_energy": -1.86, "cluster_size": 9, "cluster_id": 1, "rank_in_cluster": 1}

>  <energy>  (42) 
-8.54

>  <cluster_rmsd>  (42) 
0.29

>  <rmsd>  (42) 
272.71

>  <cluster>  (42) 
1

$$$$
YMXDKILJCZTOEU-UDRLWISANA-M
     RDKit          3D

 58 61  0  0  0  0  0  0  0  0999 V2000
  140.8210   74.2930  218.9960 O   0  0  0  0  0  0  0  0  0  0  0  0
  141.0290   74.2630  220.2410 C   0  0  0  0  0  0  0  0  0  0  0  0
  141.9330   75.2060  220.8430 N   0  0  0  0  0  0  0  0  0  0  0  0
  142.6250   76.2440  220.0860 C   0  0  0  0  0  0  0  0  0  0  0  0
  141.8040   77.5030  220.0570 C   0  0  0  0  0  0  0  0  0  0  0  0
  141.2610   77.8380  218.9680 O   0  0  0  0  0  0  0  0  0  0  0  0
  141.6260   78.3320  221.2220 N   0  0  0  0  0  0  0  0  0  0  0  0
  141.8400   79.7730  221.1720 C   0  0  0  0  0  0  0  0  0  0  0  0
  142.0380   80.2120  222.6230 C   0  0  2  0  0  0  0  0  0  0  0  0
  143.4080   80.2890  222.9230 O   0  0  0  0  0  0  0  0  0  0  0  0
  141.3990   79.1080  223.4630 C   0  0  0  0  0  0  0  0  0  0  0  0
  141.4150   77.8550  222.5840 C   0  0  1  0  0  0  0  0  0  0  0  0
  140.1170   77.1090  222.6940 C   0  0  0  0  0  0  0  0  0  0  0  0
  140.1170   75.8470  222.6510 O   0  0  0  0  0  0  0  0  0  0  0  0
  138.8910   77.8290  222.8670 N   0  0  0  0  0  0  0  0  0  0  0  0
  137.6000   77.3640  222.3620 C   0  0  0  0  0  0  0  0  0  0  0  0
  137.2290   76.0480  223.0810 C   0  0  0  0  0  0  0  0  0  0  0  0
  136.3010   75.1770  222.2300 C   0  0  0  0  0  0  0  0  0  0  0  0
  136.9720   74.7640  220.9020 C   0  0  0  0  0  0  0  0  0  0  0  0
  138.0000   75.7930  220.3880 C   0  0  0  0  0  0  0  0  0  0  0  0
  137.6440   77.2180  220.8180 C   0  0  0  0  0  0  0  0  0  0  0  0
  140.3460   73.2520  221.0760 C   0  0  0  0  0  0  0  0  0  0  0  0
  139.2470   72.5270  220.5820 C   0  0  0  0  0  0  0  0  0  0  0  0
  138.6240   71.5750  221.3920 C   0  0  0  0  0  0  0  0  0  0  0  0
  139.0950   71.3520  222.6930 C   0  0  0  0  0  0  0  0  0  0  0  0
  138.4930   70.4060  223.5350 C   0  0  0  0  0  0  0  0  0  0  0  0
  138.9850   70.2070  224.8300 C   0  0  0  0  0  0  0  0  0  0  0  0
  138.3970   69.2950  225.6470 F   0  0  0  0  0  0  0  0  0  0  0  0
  140.0840   70.9450  225.2860 C   0  0  0  0  0  0  0  0  0  0  0  0
  140.6950   71.8860  224.4500 C   0  0  0  0  0  0  0  0  0  0  0  0
  140.2030   72.0960  223.1560 C   0  0  0  0  0  0  0  0  0  0  0  0
  140.7910   73.0130  222.3420 N   0  0  0  0  0  0  0  0  0  0  0  0
  142.0510   75.2010  221.8810 H   0  0  0  0  0  0  0  0  0  0  0  0
  143.5948   76.4540  220.5608 H   0  0  0  0  0  0  0  0  0  0  0  0
  142.7786   75.8929  219.0549 H   0  0  0  0  0  0  0  0  0  0  0  0
  142.7335   80.0076  220.5749 H   0  0  0  0  0  0  0  0  0  0  0  0
  140.9924   80.2934  220.7023 H   0  0  0  0  0  0  0  0  0  0  0  0
  141.5955   81.2006  222.8150 H   0  0  0  0  0  0  0  0  0  0  0  0
  143.8670   79.6510  222.3150 H   0  0  0  0  0  0  0  0  0  0  0  0
  141.9809   78.9395  224.3812 H   0  0  0  0  0  0  0  0  0  0  0  0
  140.3772   79.3735  223.7719 H   0  0  0  0  0  0  0  0  0  0  0  0
  142.2043   77.1541  222.8934 H   0  0  0  0  0  0  0  0  0  0  0  0
  136.8125   78.1009  222.5783 H   0  0  0  0  0  0  0  0  0  0  0  0
  138.1505   75.4857  223.2921 H   0  0  0  0  0  0  0  0  0  0  0  0
  136.7000   76.3039  224.0109 H   0  0  0  0  0  0  0  0  0  0  0  0
  136.0425   74.2704  222.7968 H   0  0  0  0  0  0  0  0  0  0  0  0
  135.3997   75.7617  221.9938 H   0  0  0  0  0  0  0  0  0  0  0  0
  137.4866   73.8040  221.0553 H   0  0  0  0  0  0  0  0  0  0  0  0
  136.1770   74.6938  220.1450 H   0  0  0  0  0  0  0  0  0  0  0  0
  138.9912   75.5371  220.7905 H   0  0  0  0  0  0  0  0  0  0  0  0
  137.9976   75.7577  219.2886 H   0  0  0  0  0  0  0  0  0  0  0  0
  138.3997   77.9094  220.4171 H   0  0  0  0  0  0  0  0  0  0  0  0
  136.6434   77.4520  220.4254 H   0  0  0  0  0  0  0  0  0  0  0  0
  138.8794   72.7090  219.5614 H   0  0  0  0  0  0  0  0  0  0  0  0
  137.7663   71.0020  221.0100 H   0  0  0  0  0  0  0  0  0  0  0  0
  137.6335   69.8199  223.1775 H   0  0  0  0  0  0  0  0  0  0  0  0
  140.4681   70.7846  226.3042 H   0  0  0  0  0  0  0  0  0  0  0  0
  141.5615   72.4606  224.8092 H   0  0  0  0  0  0  0  0  0  0  0  0
  1  2  2  0
  2  3  1  0
  3  4  1  0
  4  5  1  0
  5  6  2  0
  5  7  1  0
  7  8  1  0
  8  9  1  0
  9 10  1  0
  9 11  1  0
 11 12  1  0
 12 13  1  0
 13 14  2  0
 13 15  1  0
 15 16  1  0
 16 17  1  0
 17 18  1  0
 18 19  1  0
 19 20  1  0
 20 21  1  0
  2 22  1  0
 22 23  2  0
 23 24  1  0
 24 25  2  0
 25 26  1  0
 26 27  2  0
 27 28  1  0
 27 29  1  0
 29 30  2  0
 30 31  1  0
 31 32  2  0
 12  7  1  0
 21 16  1  0
 32 22  1  0
 31 25  1  0
  3 33  1  0
  4 34  1  0
  4 35  1  0
  8 36  1  0
  8 37  1  0
  9 38  1  6
 10 39  1  0
 11 40  1  0
 11 41  1  0
 12 42  1  1
 16 43  1  0
 17 44  1  0
 17 45  1  0
 18 46  1  0
 18 47  1  0
 19 48  1  0
 19 49  1  0
 20 50  1  0
 20 51  1  0
 21 52  1  0
 21 53  1  0
 23 54  1  0
 24 55  1  0
 26 56  1  0
 29 57  1  0
 30 58  1  0
M  CHG  1  15  -1
M  END
>  <UniqueID>  (43) 
139

>  <SMILES>  (43) 
O=C(NCC(=O)N1C[C@H](O)C[C@H]1C(=O)[N-]C1CCCCC1)c1ccc2cc(F)ccc2n1

>  <Energy>  (43) 
58.44419743129

>  <Genealogy>  (43) 
O=C(NCC(=O)N1C[C@H](O)C[C@H]1C(=O)[N-]C1CCCCC1)c1ccc2cc(F)ccc2n1 (protonated)
O=C(NCC(=O)N1C[C@H](O)C[C@H]1C(=O)[N-]C1CCCCC1)c1ccc2cc(F)ccc2n1 (3D coordinates assigned)
O=C(NCC(=O)N1C[C@H](O)C[C@H]1C(=O)[N-]C1CCCCC1)c1ccc2cc(F)ccc2n1 (nonaromatic ring conformer: 58.44419743129 kcal/mol)

>  <smiles>  (43) 
O=C(NCC(=O)N1C[C@H](O)C[C@H]1C(=O)NC1CCCCC1)c1ccc2cc(F)ccc2n1

>  <score_type>  (43) 
oracle

>  <origin>  (43) 
autodockgpu

>  <m_score__min__energy>  (43) 
-8.7599999999999998

>  <m_primary>  (43) 
energy

>  <meeko>  (43) 
{"free_energy": -5.64, "intermolecular_energy": -8.03, "internal_energy": -3.83, "cluster_size": 2, "cluster_id": 5, "rank_in_cluster": 2}

>  <energy>  (43) 
-8.5

>  <cluster_rmsd>  (43) 
0.52

>  <rmsd>  (43) 
272.69

>  <cluster>  (43) 
1

$$$$
YMXDKILJCZTOEU-UDRLWISANA-M
     RDKit          3D

 58 61  0  0  0  0  0  0  0  0999 V2000
  140.3600   73.5710  220.2990 O   0  0  0  0  0  0  0  0  0  0  0  0
  139.9610   74.3670  221.1940 C   0  0  0  0  0  0  0  0  0  0  0  0
  138.9320   73.9610  222.1130 N   0  0  0  0  0  0  0  0  0  0  0  0
  138.3190   72.6360  222.0920 C   0  0  0  0  0  0  0  0  0  0  0  0
  139.2260   71.6320  222.7450 C   0  0  0  0  0  0  0  0  0  0  0  0
  140.0850   72.0480  223.5700 O   0  0  0  0  0  0  0  0  0  0  0  0
  139.1470   70.2230  222.4550 N   0  0  0  0  0  0  0  0  0  0  0  0
  139.9400   69.6170  221.3920 C   0  0  0  0  0  0  0  0  0  0  0  0
  139.2550   68.2900  221.0710 C   0  0  2  0  0  0  0  0  0  0  0  0
  138.3920   68.4430  219.9740 O   0  0  0  0  0  0  0  0  0  0  0  0
  138.4360   67.9530  222.3150 C   0  0  0  0  0  0  0  0  0  0  0  0
  138.1760   69.2890  223.0150 C   0  0  1  0  0  0  0  0  0  0  0  0
  138.3540   69.1580  224.5000 C   0  0  0  0  0  0  0  0  0  0  0  0
  137.7650   69.9630  225.2730 O   0  0  0  0  0  0  0  0  0  0  0  0
  139.1750   68.1110  225.0310 N   0  0  0  0  0  0  0  0  0  0  0  0
  140.3080   68.3440  225.9260 C   0  0  0  0  0  0  0  0  0  0  0  0
  139.8160   68.2470  227.3870 C   0  0  0  0  0  0  0  0  0  0  0  0
  140.6910   69.0690  228.3380 C   0  0  0  0  0  0  0  0  0  0  0  0
  140.6650   70.5700  227.9760 C   0  0  0  0  0  0  0  0  0  0  0  0
  140.4310   70.8360  226.4740 C   0  0  0  0  0  0  0  0  0  0  0  0
  140.9810   69.7040  225.6030 C   0  0  0  0  0  0  0  0  0  0  0  0
  140.5520   75.7190  221.2910 C   0  0  0  0  0  0  0  0  0  0  0  0
  141.5370   76.1460  220.3830 C   0  0  0  0  0  0  0  0  0  0  0  0
  142.0740   77.4310  220.4970 C   0  0  0  0  0  0  0  0  0  0  0  0
  141.6300   78.2830  221.5170 C   0  0  0  0  0  0  0  0  0  0  0  0
  142.1490   79.5780  221.6630 C   0  0  0  0  0  0  0  0  0  0  0  0
  141.6870   80.4060  222.6920 C   0  0  0  0  0  0  0  0  0  0  0  0
  142.1940   81.6580  222.8360 F   0  0  0  0  0  0  0  0  0  0  0  0
  140.7010   79.9470  223.5750 C   0  0  0  0  0  0  0  0  0  0  0  0
  140.1740   78.6600  223.4320 C   0  0  0  0  0  0  0  0  0  0  0  0
  140.6370   77.8230  222.4090 C   0  0  0  0  0  0  0  0  0  0  0  0
  140.1310   76.5680  222.2710 N   0  0  0  0  0  0  0  0  0  0  0  0
  138.6540   74.6120  222.8810 H   0  0  0  0  0  0  0  0  0  0  0  0
  137.3634   72.6695  222.6358 H   0  0  0  0  0  0  0  0  0  0  0  0
  138.1475   72.3374  221.0473 H   0  0  0  0  0  0  0  0  0  0  0  0
  139.9523   70.2668  220.5046 H   0  0  0  0  0  0  0  0  0  0  0  0
  140.9861   69.4703  221.6989 H   0  0  0  0  0  0  0  0  0  0  0  0
  139.9833   67.5052  220.8185 H   0  0  0  0  0  0  0  0  0  0  0  0
  138.2420   69.4190  219.8660 H   0  0  0  0  0  0  0  0  0  0  0  0
  137.4856   67.4775  222.0311 H   0  0  0  0  0  0  0  0  0  0  0  0
  138.9667   67.2476  222.9713 H   0  0  0  0  0  0  0  0  0  0  0  0
  137.1442   69.6351  222.8550 H   0  0  0  0  0  0  0  0  0  0  0  0
  141.0817   67.5761  225.7785 H   0  0  0  0  0  0  0  0  0  0  0  0
  138.7831   68.6215  227.4404 H   0  0  0  0  0  0  0  0  0  0  0  0
  139.8712   67.1930  227.6969 H   0  0  0  0  0  0  0  0  0  0  0  0
  140.3188   68.9426  229.3654 H   0  0  0  0  0  0  0  0  0  0  0  0
  141.7273   68.7107  228.2501 H   0  0  0  0  0  0  0  0  0  0  0  0
  139.8563   71.0517  228.5452 H   0  0  0  0  0  0  0  0  0  0  0  0
  141.6538   70.9811  228.2276 H   0  0  0  0  0  0  0  0  0  0  0  0
  139.3501   70.9309  226.2935 H   0  0  0  0  0  0  0  0  0  0  0  0
  140.9600   71.7621  226.2047 H   0  0  0  0  0  0  0  0  0  0  0  0
  140.7989   69.9484  224.5461 H   0  0  0  0  0  0  0  0  0  0  0  0
  142.0573   69.6084  225.8091 H   0  0  0  0  0  0  0  0  0  0  0  0
  141.8834   75.4713  219.5862 H   0  0  0  0  0  0  0  0  0  0  0  0
  142.8428   77.7726  219.7883 H   0  0  0  0  0  0  0  0  0  0  0  0
  142.9197   79.9428  220.9681 H   0  0  0  0  0  0  0  0  0  0  0  0
  140.3406   80.6008  224.3828 H   0  0  0  0  0  0  0  0  0  0  0  0
  139.3955   78.3047  224.1232 H   0  0  0  0  0  0  0  0  0  0  0  0
  1  2  2  0
  2  3  1  0
  3  4  1  0
  4  5  1  0
  5  6  2  0
  5  7  1  0
  7  8  1  0
  8  9  1  0
  9 10  1  0
  9 11  1  0
 11 12  1  0
 12 13  1  0
 13 14  2  0
 13 15  1  0
 15 16  1  0
 16 17  1  0
 17 18  1  0
 18 19  1  0
 19 20  1  0
 20 21  1  0
  2 22  1  0
 22 23  2  0
 23 24  1  0
 24 25  2  0
 25 26  1  0
 26 27  2  0
 27 28  1  0
 27 29  1  0
 29 30  2  0
 30 31  1  0
 31 32  2  0
 12  7  1  0
 21 16  1  0
 32 22  1  0
 31 25  1  0
  3 33  1  0
  4 34  1  0
  4 35  1  0
  8 36  1  0
  8 37  1  0
  9 38  1  6
 10 39  1  0
 11 40  1  0
 11 41  1  0
 12 42  1  1
 16 43  1  0
 17 44  1  0
 17 45  1  0
 18 46  1  0
 18 47  1  0
 19 48  1  0
 19 49  1  0
 20 50  1  0
 20 51  1  0
 21 52  1  0
 21 53  1  0
 23 54  1  0
 24 55  1  0
 26 56  1  0
 29 57  1  0
 30 58  1  0
M  CHG  1  15  -1
M  END
>  <UniqueID>  (44) 
139

>  <SMILES>  (44) 
O=C(NCC(=O)N1C[C@H](O)C[C@H]1C(=O)[N-]C1CCCCC1)c1ccc2cc(F)ccc2n1

>  <Energy>  (44) 
58.44419743129

>  <Genealogy>  (44) 
O=C(NCC(=O)N1C[C@H](O)C[C@H]1C(=O)[N-]C1CCCCC1)c1ccc2cc(F)ccc2n1 (protonated)
O=C(NCC(=O)N1C[C@H](O)C[C@H]1C(=O)[N-]C1CCCCC1)c1ccc2cc(F)ccc2n1 (3D coordinates assigned)
O=C(NCC(=O)N1C[C@H](O)C[C@H]1C(=O)[N-]C1CCCCC1)c1ccc2cc(F)ccc2n1 (nonaromatic ring conformer: 58.44419743129 kcal/mol)

>  <smiles>  (44) 
O=C(NCC(=O)N1C[C@H](O)C[C@H]1C(=O)NC1CCCCC1)c1ccc2cc(F)ccc2n1

>  <score_type>  (44) 
oracle

>  <origin>  (44) 
autodockgpu

>  <m_score__min__energy>  (44) 
-8.7599999999999998

>  <m_primary>  (44) 
energy

>  <meeko>  (44) 
{"free_energy": -7.53, "intermolecular_energy": -9.92, "internal_energy": -2.17, "cluster_size": 3, "cluster_id": 3, "rank_in_cluster": 1}

>  <energy>  (44) 
-8.48

>  <cluster_rmsd>  (44) 
0.61

>  <rmsd>  (44) 
272.68

>  <cluster>  (44) 
1

$$$$
YMXDKILJCZTOEU-UDRLWISANA-M
     RDKit          3D

 58 61  0  0  0  0  0  0  0  0999 V2000
  139.5990   71.4310  221.0050 O   0  0  0  0  0  0  0  0  0  0  0  0
  139.6210   71.9490  222.1570 C   0  0  0  0  0  0  0  0  0  0  0  0
  139.6040   73.3800  222.3040 N   0  0  0  0  0  0  0  0  0  0  0  0
  139.5340   74.2990  221.1710 C   0  0  0  0  0  0  0  0  0  0  0  0
  140.1960   75.6030  221.5170 C   0  0  0  0  0  0  0  0  0  0  0  0
  140.1740   75.9860  222.7190 O   0  0  0  0  0  0  0  0  0  0  0  0
  140.8430   76.4230  220.5240 N   0  0  0  0  0  0  0  0  0  0  0  0
  141.5240   75.8370  219.3770 C   0  0  0  0  0  0  0  0  0  0  0  0
  142.4610   76.9240  218.8520 C   0  0  2  0  0  0  0  0  0  0  0  0
  143.7530   76.7440  219.3730 O   0  0  0  0  0  0  0  0  0  0  0  0
  141.8820   78.2350  219.3790 C   0  0  0  0  0  0  0  0  0  0  0  0
  141.0680   77.8610  220.6200 C   0  0  1  0  0  0  0  0  0  0  0  0
  139.7650   78.6060  220.6480 C   0  0  0  0  0  0  0  0  0  0  0  0
  139.1730   78.8700  219.5650 O   0  0  0  0  0  0  0  0  0  0  0  0
  139.1920   78.9960  221.9020 N   0  0  0  0  0  0  0  0  0  0  0  0
  139.8240   79.9420  222.8220 C   0  0  0  0  0  0  0  0  0  0  0  0
  140.6540   80.9540  222.0020 C   0  0  0  0  0  0  0  0  0  0  0  0
  141.8100   81.5380  222.8200 C   0  0  0  0  0  0  0  0  0  0  0  0
  142.7970   80.4390  223.2680 C   0  0  0  0  0  0  0  0  0  0  0  0
  142.1340   79.0590  223.4610 C   0  0  0  0  0  0  0  0  0  0  0  0
  140.6670   79.1850  223.8810 C   0  0  0  0  0  0  0  0  0  0  0  0
  139.6700   71.0810  223.3520 C   0  0  0  0  0  0  0  0  0  0  0  0
  139.1780   69.7640  223.3120 C   0  0  0  0  0  0  0  0  0  0  0  0
  139.2410   68.9660  224.4560 C   0  0  0  0  0  0  0  0  0  0  0  0
  139.7900   69.4830  225.6370 C   0  0  0  0  0  0  0  0  0  0  0  0
  139.8670   68.7100  226.8050 C   0  0  0  0  0  0  0  0  0  0  0  0
  140.4200   69.2550  227.9690 C   0  0  0  0  0  0  0  0  0  0  0  0
  140.4880   68.5080  229.1020 F   0  0  0  0  0  0  0  0  0  0  0  0
  140.9030   70.5690  227.9710 C   0  0  0  0  0  0  0  0  0  0  0  0
  140.8370   71.3440  226.8080 C   0  0  0  0  0  0  0  0  0  0  0  0
  140.2780   70.8080  225.6410 C   0  0  0  0  0  0  0  0  0  0  0  0
  140.2060   71.5600  224.5100 N   0  0  0  0  0  0  0  0  0  0  0  0
  139.5670   73.7900  223.2630 H   0  0  0  0  0  0  0  0  0  0  0  0
  140.0458   73.8499  220.3071 H   0  0  0  0  0  0  0  0  0  0  0  0
  138.4780   74.4869  220.9268 H   0  0  0  0  0  0  0  0  0  0  0  0
  142.0988   74.9508  219.6840 H   0  0  0  0  0  0  0  0  0  0  0  0
  140.8113   75.5086  218.6062 H   0  0  0  0  0  0  0  0  0  0  0  0
  142.5361   76.9042  217.7548 H   0  0  0  0  0  0  0  0  0  0  0  0
  143.8200   77.3310  220.1710 H   0  0  0  0  0  0  0  0  0  0  0  0
  142.6907   78.9310  219.6465 H   0  0  0  0  0  0  0  0  0  0  0  0
  141.2605   78.7367  218.6226 H   0  0  0  0  0  0  0  0  0  0  0  0
  141.5978   78.1259  221.5469 H   0  0  0  0  0  0  0  0  0  0  0  0
  139.0623   80.5047  223.3817 H   0  0  0  0  0  0  0  0  0  0  0  0
  141.0653   80.4440  221.1184 H   0  0  0  0  0  0  0  0  0  0  0  0
  139.9911   81.7813  221.7085 H   0  0  0  0  0  0  0  0  0  0  0  0
  142.3487   82.2728  222.2037 H   0  0  0  0  0  0  0  0  0  0  0  0
  141.3912   82.0135  223.7192 H   0  0  0  0  0  0  0  0  0  0  0  0
  143.5829   80.3442  222.5042 H   0  0  0  0  0  0  0  0  0  0  0  0
  143.2001   80.7442  224.2449 H   0  0  0  0  0  0  0  0  0  0  0  0
  142.1862   78.5035  222.5130 H   0  0  0  0  0  0  0  0  0  0  0  0
  142.6736   78.5300  224.2604 H   0  0  0  0  0  0  0  0  0  0  0  0
  140.2477   78.1769  224.0146 H   0  0  0  0  0  0  0  0  0  0  0  0
  140.6295   79.7582  224.8191 H   0  0  0  0  0  0  0  0  0  0  0  0
  138.7453   69.3642  222.3831 H   0  0  0  0  0  0  0  0  0  0  0  0
  138.8607   67.9342  224.4302 H   0  0  0  0  0  0  0  0  0  0  0  0
  139.4927   67.6756  226.8058 H   0  0  0  0  0  0  0  0  0  0  0  0
  141.3355   70.9932  228.8892 H   0  0  0  0  0  0  0  0  0  0  0  0
  141.2239   72.3737  226.8102 H   0  0  0  0  0  0  0  0  0  0  0  0
  1  2  2  0
  2  3  1  0
  3  4  1  0
  4  5  1  0
  5  6  2  0
  5  7  1  0
  7  8  1  0
  8  9  1  0
  9 10  1  0
  9 11  1  0
 11 12  1  0
 12 13  1  0
 13 14  2  0
 13 15  1  0
 15 16  1  0
 16 17  1  0
 17 18  1  0
 18 19  1  0
 19 20  1  0
 20 21  1  0
  2 22  1  0
 22 23  2  0
 23 24  1  0
 24 25  2  0
 25 26  1  0
 26 27  2  0
 27 28  1  0
 27 29  1  0
 29 30  2  0
 30 31  1  0
 31 32  2  0
 12  7  1  0
 21 16  1  0
 32 22  1  0
 31 25  1  0
  3 33  1  0
  4 34  1  0
  4 35  1  0
  8 36  1  0
  8 37  1  0
  9 38  1  6
 10 39  1  0
 11 40  1  0
 11 41  1  0
 12 42  1  1
 16 43  1  0
 17 44  1  0
 17 45  1  0
 18 46  1  0
 18 47  1  0
 19 48  1  0
 19 49  1  0
 20 50  1  0
 20 51  1  0
 21 52  1  0
 21 53  1  0
 23 54  1  0
 24 55  1  0
 26 56  1  0
 29 57  1  0
 30 58  1  0
M  CHG  1  15  -1
M  END
>  <UniqueID>  (45) 
139

>  <SMILES>  (45) 
O=C(NCC(=O)N1C[C@H](O)C[C@H]1C(=O)[N-]C1CCCCC1)c1ccc2cc(F)ccc2n1

>  <Energy>  (45) 
58.44419743129

>  <Genealogy>  (45) 
O=C(NCC(=O)N1C[C@H](O)C[C@H]1C(=O)[N-]C1CCCCC1)c1ccc2cc(F)ccc2n1 (protonated)
O=C(NCC(=O)N1C[C@H](O)C[C@H]1C(=O)[N-]C1CCCCC1)c1ccc2cc(F)ccc2n1 (3D coordinates assigned)
O=C(NCC(=O)N1C[C@H](O)C[C@H]1C(=O)[N-]C1CCCCC1)c1ccc2cc(F)ccc2n1 (nonaromatic ring conformer: 58.44419743129 kcal/mol)

>  <smiles>  (45) 
O=C(NCC(=O)N1C[C@H](O)C[C@H]1C(=O)NC1CCCCC1)c1ccc2cc(F)ccc2n1

>  <score_type>  (45) 
oracle

>  <origin>  (45) 
autodockgpu

>  <m_score__min__energy>  (45) 
-8.7599999999999998

>  <m_primary>  (45) 
energy

>  <meeko>  (45) 
{"free_energy": -8.42, "intermolecular_energy": -10.81, "internal_energy": -2.34, "cluster_size": 9, "cluster_id": 1, "rank_in_cluster": 6}

>  <energy>  (45) 
-8.44

>  <cluster_rmsd>  (45) 
0.6

>  <rmsd>  (45) 
272.67

>  <cluster>  (45) 
1

$$$$
YMXDKILJCZTOEU-UDRLWISANA-M
     RDKit          3D

 58 61  0  0  0  0  0  0  0  0999 V2000
  136.6990   72.2010  221.3100 O   0  0  0  0  0  0  0  0  0  0  0  0
  136.8840   72.4460  222.5350 C   0  0  0  0  0  0  0  0  0  0  0  0
  136.5070   73.7220  223.0800 N   0  0  0  0  0  0  0  0  0  0  0  0
  135.8800   74.7750  222.2860 C   0  0  0  0  0  0  0  0  0  0  0  0
  136.8230   75.2560  221.2200 C   0  0  0  0  0  0  0  0  0  0  0  0
  136.3380   75.6370  220.1190 O   0  0  0  0  0  0  0  0  0  0  0  0
  138.2500   75.2890  221.4140 N   0  0  0  0  0  0  0  0  0  0  0  0
  139.1260   74.2980  220.8020 C   0  0  0  0  0  0  0  0  0  0  0  0
  140.4310   74.3530  221.5960 C   0  0  2  0  0  0  0  0  0  0  0  0
  140.4390   73.3560  222.5850 O   0  0  0  0  0  0  0  0  0  0  0  0
  140.4330   75.7270  222.2630 C   0  0  0  0  0  0  0  0  0  0  0  0
  138.9640   76.1460  222.3550 C   0  0  1  0  0  0  0  0  0  0  0  0
  138.7980   77.5940  221.9920 C   0  0  0  0  0  0  0  0  0  0  0  0
  138.8000   77.9370  220.7780 O   0  0  0  0  0  0  0  0  0  0  0  0
  138.6190   78.5720  223.0230 N   0  0  0  0  0  0  0  0  0  0  0  0
  139.7040   79.3970  223.5540 C   0  0  0  0  0  0  0  0  0  0  0  0
  139.7230   80.7420  222.7940 C   0  0  0  0  0  0  0  0  0  0  0  0
  141.1180   81.3750  222.7920 C   0  0  0  0  0  0  0  0  0  0  0  0
  142.1490   80.4690  222.0850 C   0  0  0  0  0  0  0  0  0  0  0  0
  141.8180   78.9660  222.1860 C   0  0  0  0  0  0  0  0  0  0  0  0
  141.0530   78.6360  223.4710 C   0  0  0  0  0  0  0  0  0  0  0  0
  137.4950   71.4190  223.4050 C   0  0  0  0  0  0  0  0  0  0  0  0
  136.7750   70.2730  223.7890 C   0  0  0  0  0  0  0  0  0  0  0  0
  137.3800   69.3170  224.6090 C   0  0  0  0  0  0  0  0  0  0  0  0
  138.6970   69.5080  225.0470 C   0  0  0  0  0  0  0  0  0  0  0  0
  139.3340   68.5710  225.8730 C   0  0  0  0  0  0  0  0  0  0  0  0
  140.6500   68.7900  226.2960 C   0  0  0  0  0  0  0  0  0  0  0  0
  141.2640   67.8850  227.1010 F   0  0  0  0  0  0  0  0  0  0  0  0
  141.3370   69.9410  225.8900 C   0  0  0  0  0  0  0  0  0  0  0  0
  140.7110   70.8780  225.0610 C   0  0  0  0  0  0  0  0  0  0  0  0
  139.3910   70.6690  224.6400 C   0  0  0  0  0  0  0  0  0  0  0  0
  138.7770   71.5800  223.8390 N   0  0  0  0  0  0  0  0  0  0  0  0
  136.6170   73.8880  224.1040 H   0  0  0  0  0  0  0  0  0  0  0  0
  134.9692   74.3792  221.8130 H   0  0  0  0  0  0  0  0  0  0  0  0
  135.6263   75.6177  222.9460 H   0  0  0  0  0  0  0  0  0  0  0  0
  138.6777   73.2958  220.8699 H   0  0  0  0  0  0  0  0  0  0  0  0
  139.2911   74.5061  219.7346 H   0  0  0  0  0  0  0  0  0  0  0  0
  141.3084   74.1937  220.9520 H   0  0  0  0  0  0  0  0  0  0  0  0
  139.5810   73.4420  223.0800 H   0  0  0  0  0  0  0  0  0  0  0  0
  140.8776   75.6650  223.2673 H   0  0  0  0  0  0  0  0  0  0  0  0
  141.0272   76.4547  221.6909 H   0  0  0  0  0  0  0  0  0  0  0  0
  138.5749   76.0347  223.3778 H   0  0  0  0  0  0  0  0  0  0  0  0
  139.5394   79.6130  224.6200 H   0  0  0  0  0  0  0  0  0  0  0  0
  139.4097   80.5677  221.7541 H   0  0  0  0  0  0  0  0  0  0  0  0
  139.0351   81.4325  223.3040 H   0  0  0  0  0  0  0  0  0  0  0  0
  141.0716   82.3408  222.2675 H   0  0  0  0  0  0  0  0  0  0  0  0
  141.4367   81.5115  223.8359 H   0  0  0  0  0  0  0  0  0  0  0  0
  142.1853   80.7469  221.0213 H   0  0  0  0  0  0  0  0  0  0  0  0
  143.1145   80.6225  222.5892 H   0  0  0  0  0  0  0  0  0  0  0  0
  141.2019   78.6784  221.3213 H   0  0  0  0  0  0  0  0  0  0  0  0
  142.7658   78.4079  222.2000 H   0  0  0  0  0  0  0  0  0  0  0  0
  140.8533   77.5546  223.4980 H   0  0  0  0  0  0  0  0  0  0  0  0
  141.6723   78.9469  224.3253 H   0  0  0  0  0  0  0  0  0  0  0  0
  135.7399   70.1301  223.4451 H   0  0  0  0  0  0  0  0  0  0  0  0
  136.8238   68.4169  224.9098 H   0  0  0  0  0  0  0  0  0  0  0  0
  138.7990   67.6632  226.1887 H   0  0  0  0  0  0  0  0  0  0  0  0
  142.3716   70.1087  226.2239 H   0  0  0  0  0  0  0  0  0  0  0  0
  141.2549   71.7786  224.7398 H   0  0  0  0  0  0  0  0  0  0  0  0
  1  2  2  0
  2  3  1  0
  3  4  1  0
  4  5  1  0
  5  6  2  0
  5  7  1  0
  7  8  1  0
  8  9  1  0
  9 10  1  0
  9 11  1  0
 11 12  1  0
 12 13  1  0
 13 14  2  0
 13 15  1  0
 15 16  1  0
 16 17  1  0
 17 18  1  0
 18 19  1  0
 19 20  1  0
 20 21  1  0
  2 22  1  0
 22 23  2  0
 23 24  1  0
 24 25  2  0
 25 26  1  0
 26 27  2  0
 27 28  1  0
 27 29  1  0
 29 30  2  0
 30 31  1  0
 31 32  2  0
 12  7  1  0
 21 16  1  0
 32 22  1  0
 31 25  1  0
  3 33  1  0
  4 34  1  0
  4 35  1  0
  8 36  1  0
  8 37  1  0
  9 38  1  6
 10 39  1  0
 11 40  1  0
 11 41  1  0
 12 42  1  1
 16 43  1  0
 17 44  1  0
 17 45  1  0
 18 46  1  0
 18 47  1  0
 19 48  1  0
 19 49  1  0
 20 50  1  0
 20 51  1  0
 21 52  1  0
 21 53  1  0
 23 54  1  0
 24 55  1  0
 26 56  1  0
 29 57  1  0
 30 58  1  0
M  CHG  1  15  -1
M  END
>  <UniqueID>  (46) 
139

>  <SMILES>  (46) 
O=C(NCC(=O)N1C[C@H](O)C[C@H]1C(=O)[N-]C1CCCCC1)c1ccc2cc(F)ccc2n1

>  <Energy>  (46) 
58.44419743129

>  <Genealogy>  (46) 
O=C(NCC(=O)N1C[C@H](O)C[C@H]1C(=O)[N-]C1CCCCC1)c1ccc2cc(F)ccc2n1 (protonated)
O=C(NCC(=O)N1C[C@H](O)C[C@H]1C(=O)[N-]C1CCCCC1)c1ccc2cc(F)ccc2n1 (3D coordinates assigned)
O=C(NCC(=O)N1C[C@H](O)C[C@H]1C(=O)[N-]C1CCCCC1)c1ccc2cc(F)ccc2n1 (nonaromatic ring conformer: 58.44419743129 kcal/mol)

>  <smiles>  (46) 
O=C(NCC(=O)N1C[C@H](O)C[C@H]1C(=O)NC1CCCCC1)c1ccc2cc(F)ccc2n1

>  <score_type>  (46) 
oracle

>  <origin>  (46) 
autodockgpu

>  <m_score__min__energy>  (46) 
-8.7599999999999998

>  <m_primary>  (46) 
energy

>  <meeko>  (46) 
{"free_energy": -6.8, "intermolecular_energy": -9.18, "internal_energy": -2.78, "cluster_size": 2, "cluster_id": 4, "rank_in_cluster": 2}

>  <energy>  (46) 
-8.42

>  <cluster_rmsd>  (46) 
0.58

>  <rmsd>  (46) 
272.67

>  <cluster>  (46) 
1

$$$$
YMXDKILJCZTOEU-UDRLWISANA-M
     RDKit          3D

 58 61  0  0  0  0  0  0  0  0999 V2000
  139.6250   71.4020  221.0030 O   0  0  0  0  0  0  0  0  0  0  0  0
  139.6340   71.9240  222.1530 C   0  0  0  0  0  0  0  0  0  0  0  0
  139.6060   73.3560  222.2940 N   0  0  0  0  0  0  0  0  0  0  0  0
  139.5410   74.2700  221.1580 C   0  0  0  0  0  0  0  0  0  0  0  0
  140.1760   75.5860  221.5100 C   0  0  0  0  0  0  0  0  0  0  0  0
  140.1410   75.9640  222.7130 O   0  0  0  0  0  0  0  0  0  0  0  0
  140.8110   76.4210  220.5230 N   0  0  0  0  0  0  0  0  0  0  0  0
  141.4670   75.8530  219.3520 C   0  0  0  0  0  0  0  0  0  0  0  0
  142.4040   76.9430  218.8330 C   0  0  2  0  0  0  0  0  0  0  0  0
  143.7030   76.7420  219.3260 O   0  0  0  0  0  0  0  0  0  0  0  0
  141.8460   78.2480  219.3970 C   0  0  0  0  0  0  0  0  0  0  0  0
  141.0500   77.8550  220.6440 C   0  0  1  0  0  0  0  0  0  0  0  0
  139.7540   78.6090  220.7110 C   0  0  0  0  0  0  0  0  0  0  0  0
  139.1640   78.9320  219.6430 O   0  0  0  0  0  0  0  0  0  0  0  0
  139.1870   78.9420  221.9840 N   0  0  0  0  0  0  0  0  0  0  0  0
  139.8230   79.8440  222.9440 C   0  0  0  0  0  0  0  0  0  0  0  0
  140.5550   80.9610  222.1670 C   0  0  0  0  0  0  0  0  0  0  0  0
  141.7250   81.5380  222.9680 C   0  0  0  0  0  0  0  0  0  0  0  0
  142.7890   80.4610  223.2710 C   0  0  0  0  0  0  0  0  0  0  0  0
  142.2070   79.0370  223.3840 C   0  0  0  0  0  0  0  0  0  0  0  0
  140.7620   79.0510  223.8910 C   0  0  0  0  0  0  0  0  0  0  0  0
  139.6770   71.0610  223.3520 C   0  0  0  0  0  0  0  0  0  0  0  0
  139.1710   69.7500  223.3190 C   0  0  0  0  0  0  0  0  0  0  0  0
  139.2290   68.9550  224.4660 C   0  0  0  0  0  0  0  0  0  0  0  0
  139.7880   69.4710  225.6430 C   0  0  0  0  0  0  0  0  0  0  0  0
  139.8620   68.7030  226.8140 C   0  0  0  0  0  0  0  0  0  0  0  0
  140.4240   69.2470  227.9740 C   0  0  0  0  0  0  0  0  0  0  0  0
  140.4890   68.5040  229.1100 F   0  0  0  0  0  0  0  0  0  0  0  0
  140.9220   70.5550  227.9680 C   0  0  0  0  0  0  0  0  0  0  0  0
  140.8590   71.3260  226.8020 C   0  0  0  0  0  0  0  0  0  0  0  0
  140.2900   70.7920  225.6390 C   0  0  0  0  0  0  0  0  0  0  0  0
  140.2220   71.5390  224.5060 N   0  0  0  0  0  0  0  0  0  0  0  0
  139.5590   73.7690  223.2520 H   0  0  0  0  0  0  0  0  0  0  0  0
  140.0746   73.8264  220.3045 H   0  0  0  0  0  0  0  0  0  0  0  0
  138.4864   74.4404  220.8959 H   0  0  0  0  0  0  0  0  0  0  0  0
  142.0394   74.9559  219.6305 H   0  0  0  0  0  0  0  0  0  0  0  0
  140.7381   75.5464  218.5873 H   0  0  0  0  0  0  0  0  0  0  0  0
  142.4592   76.9450  217.7344 H   0  0  0  0  0  0  0  0  0  0  0  0
  143.7850   77.3020  220.1420 H   0  0  0  0  0  0  0  0  0  0  0  0
  142.6654   78.9312  219.6649 H   0  0  0  0  0  0  0  0  0  0  0  0
  141.2163   78.7709  218.6621 H   0  0  0  0  0  0  0  0  0  0  0  0
  141.5985   78.0971  221.5662 H   0  0  0  0  0  0  0  0  0  0  0  0
  139.0677   80.3187  223.5876 H   0  0  0  0  0  0  0  0  0  0  0  0
  140.9397   80.5454  221.2240 H   0  0  0  0  0  0  0  0  0  0  0  0
  139.8371   81.7726  221.9777 H   0  0  0  0  0  0  0  0  0  0  0  0
  142.1911   82.3475  222.3871 H   0  0  0  0  0  0  0  0  0  0  0  0
  141.3351   81.9167  223.9244 H   0  0  0  0  0  0  0  0  0  0  0  0
  143.5338   80.4697  222.4615 H   0  0  0  0  0  0  0  0  0  0  0  0
  143.2316   80.7085  224.2472 H   0  0  0  0  0  0  0  0  0  0  0  0
  142.2315   78.5627  222.3918 H   0  0  0  0  0  0  0  0  0  0  0  0
  142.8171   78.4750  224.1065 H   0  0  0  0  0  0  0  0  0  0  0  0
  140.4008   78.0145  223.9636 H   0  0  0  0  0  0  0  0  0  0  0  0
  140.7508   79.5452  224.8737 H   0  0  0  0  0  0  0  0  0  0  0  0
  138.7308   69.3515  222.3930 H   0  0  0  0  0  0  0  0  0  0  0  0
  138.8372   67.9273  224.4455 H   0  0  0  0  0  0  0  0  0  0  0  0
  139.4780   67.6722  226.8205 H   0  0  0  0  0  0  0  0  0  0  0  0
  141.3640   70.9780  228.8822 H   0  0  0  0  0  0  0  0  0  0  0  0
  141.2564   72.3517  226.7988 H   0  0  0  0  0  0  0  0  0  0  0  0
  1  2  2  0
  2  3  1  0
  3  4  1  0
  4  5  1  0
  5  6  2  0
  5  7  1  0
  7  8  1  0
  8  9  1  0
  9 10  1  0
  9 11  1  0
 11 12  1  0
 12 13  1  0
 13 14  2  0
 13 15  1  0
 15 16  1  0
 16 17  1  0
 17 18  1  0
 18 19  1  0
 19 20  1  0
 20 21  1  0
  2 22  1  0
 22 23  2  0
 23 24  1  0
 24 25  2  0
 25 26  1  0
 26 27  2  0
 27 28  1  0
 27 29  1  0
 29 30  2  0
 30 31  1  0
 31 32  2  0
 12  7  1  0
 21 16  1  0
 32 22  1  0
 31 25  1  0
  3 33  1  0
  4 34  1  0
  4 35  1  0
  8 36  1  0
  8 37  1  0
  9 38  1  6
 10 39  1  0
 11 40  1  0
 11 41  1  0
 12 42  1  1
 16 43  1  0
 17 44  1  0
 17 45  1  0
 18 46  1  0
 18 47  1  0
 19 48  1  0
 19 49  1  0
 20 50  1  0
 20 51  1  0
 21 52  1  0
 21 53  1  0
 23 54  1  0
 24 55  1  0
 26 56  1  0
 29 57  1  0
 30 58  1  0
M  CHG  1  15  -1
M  END
>  <UniqueID>  (47) 
139

>  <SMILES>  (47) 
O=C(NCC(=O)N1C[C@H](O)C[C@H]1C(=O)[N-]C1CCCCC1)c1ccc2cc(F)ccc2n1

>  <Energy>  (47) 
58.44419743129

>  <Genealogy>  (47) 
O=C(NCC(=O)N1C[C@H](O)C[C@H]1C(=O)[N-]C1CCCCC1)c1ccc2cc(F)ccc2n1 (protonated)
O=C(NCC(=O)N1C[C@H](O)C[C@H]1C(=O)[N-]C1CCCCC1)c1ccc2cc(F)ccc2n1 (3D coordinates assigned)
O=C(NCC(=O)N1C[C@H](O)C[C@H]1C(=O)[N-]C1CCCCC1)c1ccc2cc(F)ccc2n1 (nonaromatic ring conformer: 58.44419743129 kcal/mol)

>  <smiles>  (47) 
O=C(NCC(=O)N1C[C@H](O)C[C@H]1C(=O)NC1CCCCC1)c1ccc2cc(F)ccc2n1

>  <score_type>  (47) 
oracle

>  <origin>  (47) 
autodockgpu

>  <m_score__min__energy>  (47) 
-8.7599999999999998

>  <m_primary>  (47) 
energy

>  <meeko>  (47) 
{"free_energy": -8.44, "intermolecular_energy": -10.83, "internal_energy": -2.33, "cluster_size": 9, "cluster_id": 1, "rank_in_cluster": 5}

>  <energy>  (47) 
-7.99

>  <cluster_rmsd>  (47) 
0.89

>  <rmsd>  (47) 
272.63

>  <cluster>  (47) 
1

$$$$
YMXDKILJCZTOEU-UDRLWISANA-M
     RDKit          3D

 58 61  0  0  0  0  0  0  0  0999 V2000
  140.0280   71.5220  220.2480 O   0  0  0  0  0  0  0  0  0  0  0  0
  140.4400   72.0480  221.3200 C   0  0  0  0  0  0  0  0  0  0  0  0
  141.2070   73.2640  221.2780 N   0  0  0  0  0  0  0  0  0  0  0  0
  141.5270   73.9640  220.0370 C   0  0  0  0  0  0  0  0  0  0  0  0
  142.2860   75.2280  220.3320 C   0  0  0  0  0  0  0  0  0  0  0  0
  143.5270   75.2480  220.1050 O   0  0  0  0  0  0  0  0  0  0  0  0
  141.6440   76.4020  220.8670 N   0  0  0  0  0  0  0  0  0  0  0  0
  141.8750   77.7230  220.2960 C   0  0  0  0  0  0  0  0  0  0  0  0
  141.4500   78.7190  221.3750 C   0  0  2  0  0  0  0  0  0  0  0  0
  142.5670   79.1380  222.1150 O   0  0  0  0  0  0  0  0  0  0  0  0
  140.5040   77.9390  222.2850 C   0  0  0  0  0  0  0  0  0  0  0  0
  140.8740   76.4650  222.1040 C   0  0  1  0  0  0  0  0  0  0  0  0
  139.6420   75.6120  222.0110 C   0  0  0  0  0  0  0  0  0  0  0  0
  139.5670   74.5490  222.6870 O   0  0  0  0  0  0  0  0  0  0  0  0
  138.5530   76.0190  221.1740 N   0  0  0  0  0  0  0  0  0  0  0  0
  137.1710   75.5830  221.3730 C   0  0  0  0  0  0  0  0  0  0  0  0
  136.8100   75.7420  222.8660 C   0  0  0  0  0  0  0  0  0  0  0  0
  135.7060   74.7690  223.2910 C   0  0  0  0  0  0  0  0  0  0  0  0
  136.1460   73.3000  223.1120 C   0  0  0  0  0  0  0  0  0  0  0  0
  137.1640   73.0990  221.9700 C   0  0  0  0  0  0  0  0  0  0  0  0
  136.9820   74.1330  220.8550 C   0  0  0  0  0  0  0  0  0  0  0  0
  140.1350   71.4080  222.6170 C   0  0  0  0  0  0  0  0  0  0  0  0
  139.2750   70.2980  222.6930 C   0  0  0  0  0  0  0  0  0  0  0  0
  139.0090   69.7100  223.9320 C   0  0  0  0  0  0  0  0  0  0  0  0
  139.5970   70.2330  225.0910 C   0  0  0  0  0  0  0  0  0  0  0  0
  139.3500   69.6710  226.3520 C   0  0  0  0  0  0  0  0  0  0  0  0
  139.9510   70.2170  227.4920 C   0  0  0  0  0  0  0  0  0  0  0  0
  139.7070   69.6750  228.7130 F   0  0  0  0  0  0  0  0  0  0  0  0
  140.8050   71.3200  227.3780 C   0  0  0  0  0  0  0  0  0  0  0  0
  141.0620   71.8830  226.1230 C   0  0  0  0  0  0  0  0  0  0  0  0
  140.4580   71.3470  224.9780 C   0  0  0  0  0  0  0  0  0  0  0  0
  140.7010   71.8950  223.7580 N   0  0  0  0  0  0  0  0  0  0  0  0
  141.4920   73.7140  222.1760 H   0  0  0  0  0  0  0  0  0  0  0  0
  142.1424   73.3113  219.4005 H   0  0  0  0  0  0  0  0  0  0  0  0
  140.5910   74.2210  219.5194 H   0  0  0  0  0  0  0  0  0  0  0  0
  142.9392   77.8542  220.0505 H   0  0  0  0  0  0  0  0  0  0  0  0
  141.3090   77.8675  219.3639 H   0  0  0  0  0  0  0  0  0  0  0  0
  140.9794   79.6143  220.9426 H   0  0  0  0  0  0  0  0  0  0  0  0
  143.3400   78.6080  221.7850 H   0  0  0  0  0  0  0  0  0  0  0  0
  140.6428   78.2431  223.3330 H   0  0  0  0  0  0  0  0  0  0  0  0
  139.4504   78.1266  222.0306 H   0  0  0  0  0  0  0  0  0  0  0  0
  141.4514   76.0849  222.9596 H   0  0  0  0  0  0  0  0  0  0  0  0
  136.4797   76.2092  220.7900 H   0  0  0  0  0  0  0  0  0  0  0  0
  137.7075   75.5488  223.4719 H   0  0  0  0  0  0  0  0  0  0  0  0
  136.4412   76.7666  223.0213 H   0  0  0  0  0  0  0  0  0  0  0  0
  135.4644   74.9431  224.3499 H   0  0  0  0  0  0  0  0  0  0  0  0
  134.8266   74.9457  222.6542 H   0  0  0  0  0  0  0  0  0  0  0  0
  136.6037   72.9564  224.0514 H   0  0  0  0  0  0  0  0  0  0  0  0
  135.2474   72.7218  222.8509 H   0  0  0  0  0  0  0  0  0  0  0  0
  138.1808   73.1924  222.3793 H   0  0  0  0  0  0  0  0  0  0  0  0
  137.0005   72.1002  221.5391 H   0  0  0  0  0  0  0  0  0  0  0  0
  137.7226   73.9383  220.0653 H   0  0  0  0  0  0  0  0  0  0  0  0
  135.9562   74.0404  220.4688 H   0  0  0  0  0  0  0  0  0  0  0  0
  138.8133   69.8941  221.7799 H   0  0  0  0  0  0  0  0  0  0  0  0
  138.3401   68.8392  223.9973 H   0  0  0  0  0  0  0  0  0  0  0  0
  138.6837   68.8007  226.4451 H   0  0  0  0  0  0  0  0  0  0  0  0
  141.2752   71.7452  228.2769 H   0  0  0  0  0  0  0  0  0  0  0  0
  141.7381   72.7462  226.0354 H   0  0  0  0  0  0  0  0  0  0  0  0
  1  2  2  0
  2  3  1  0
  3  4  1  0
  4  5  1  0
  5  6  2  0
  5  7  1  0
  7  8  1  0
  8  9  1  0
  9 10  1  0
  9 11  1  0
 11 12  1  0
 12 13  1  0
 13 14  2  0
 13 15  1  0
 15 16  1  0
 16 17  1  0
 17 18  1  0
 18 19  1  0
 19 20  1  0
 20 21  1  0
  2 22  1  0
 22 23  2  0
 23 24  1  0
 24 25  2  0
 25 26  1  0
 26 27  2  0
 27 28  1  0
 27 29  1  0
 29 30  2  0
 30 31  1  0
 31 32  2  0
 12  7  1  0
 21 16  1  0
 32 22  1  0
 31 25  1  0
  3 33  1  0
  4 34  1  0
  4 35  1  0
  8 36  1  0
  8 37  1  0
  9 38  1  6
 10 39  1  0
 11 40  1  0
 11 41  1  0
 12 42  1  1
 16 43  1  0
 17 44  1  0
 17 45  1  0
 18 46  1  0
 18 47  1  0
 19 48  1  0
 19 49  1  0
 20 50  1  0
 20 51  1  0
 21 52  1  0
 21 53  1  0
 23 54  1  0
 24 55  1  0
 26 56  1  0
 29 57  1  0
 30 58  1  0
M  CHG  1  15  -1
M  END
>  <UniqueID>  (48) 
139

>  <SMILES>  (48) 
O=C(NCC(=O)N1C[C@H](O)C[C@H]1C(=O)[N-]C1CCCCC1)c1ccc2cc(F)ccc2n1

>  <Energy>  (48) 
58.44419743129

>  <Genealogy>  (48) 
O=C(NCC(=O)N1C[C@H](O)C[C@H]1C(=O)[N-]C1CCCCC1)c1ccc2cc(F)ccc2n1 (protonated)
O=C(NCC(=O)N1C[C@H](O)C[C@H]1C(=O)[N-]C1CCCCC1)c1ccc2cc(F)ccc2n1 (3D coordinates assigned)
O=C(NCC(=O)N1C[C@H](O)C[C@H]1C(=O)[N-]C1CCCCC1)c1ccc2cc(F)ccc2n1 (nonaromatic ring conformer: 58.44419743129 kcal/mol)

>  <smiles>  (48) 
O=C(NCC(=O)N1C[C@H](O)C[C@H]1C(=O)NC1CCCCC1)c1ccc2cc(F)ccc2n1

>  <score_type>  (48) 
oracle

>  <origin>  (48) 
autodockgpu

>  <m_score__min__energy>  (48) 
-8.7599999999999998

>  <m_primary>  (48) 
energy

>  <meeko>  (48) 
{"free_energy": -6.46, "intermolecular_energy": -8.85, "internal_energy": -3.32, "cluster_size": 2, "cluster_id": 5, "rank_in_cluster": 1}

>  <energy>  (48) 
-7.43

>  <cluster_rmsd>  (48) 
1.29

>  <rmsd>  (48) 
272.42

>  <cluster>  (48) 
1

$$$$
YMXDKILJCZTOEU-UDRLWISANA-M
     RDKit          3D

 58 61  0  0  0  0  0  0  0  0999 V2000
  136.3640   76.1120  222.0590 O   0  0  0  0  0  0  0  0  0  0  0  0
  137.5060   75.6170  222.2700 C   0  0  0  0  0  0  0  0  0  0  0  0
  137.6700   74.1890  222.3460 N   0  0  0  0  0  0  0  0  0  0  0  0
  136.5680   73.2480  222.1630 C   0  0  0  0  0  0  0  0  0  0  0  0
  136.6010   72.1940  223.2340 C   0  0  0  0  0  0  0  0  0  0  0  0
  135.7440   72.2540  224.1590 O   0  0  0  0  0  0  0  0  0  0  0  0
  137.5750   71.1330  223.2380 N   0  0  0  0  0  0  0  0  0  0  0  0
  137.1860   69.7410  223.0500 C   0  0  0  0  0  0  0  0  0  0  0  0
  138.3510   68.9100  223.5880 C   0  0  2  0  0  0  0  0  0  0  0  0
  138.0980   68.5220  224.9140 O   0  0  0  0  0  0  0  0  0  0  0  0
  139.5550   69.8480  223.5570 C   0  0  0  0  0  0  0  0  0  0  0  0
  138.9800   71.2650  223.6070 C   0  0  1  0  0  0  0  0  0  0  0  0
  139.7010   72.1690  222.6490 C   0  0  0  0  0  0  0  0  0  0  0  0
  140.5730   72.9710  223.0840 O   0  0  0  0  0  0  0  0  0  0  0  0
  139.4110   72.1020  221.2480 N   0  0  0  0  0  0  0  0  0  0  0  0
  140.4360   72.1360  220.2050 C   0  0  0  0  0  0  0  0  0  0  0  0
  141.6070   71.2210  220.6300 C   0  0  0  0  0  0  0  0  0  0  0  0
  142.9290   71.6580  219.9940 C   0  0  0  0  0  0  0  0  0  0  0  0
  143.3230   73.0860  220.4300 C   0  0  0  0  0  0  0  0  0  0  0  0
  142.1120   73.9860  220.7500 C   0  0  0  0  0  0  0  0  0  0  0  0
  140.8790   73.5970  219.9290 C   0  0  0  0  0  0  0  0  0  0  0  0
  138.6730   76.5070  222.4420 C   0  0  0  0  0  0  0  0  0  0  0  0
  139.9740   76.0610  222.1510 C   0  0  0  0  0  0  0  0  0  0  0  0
  141.0580   76.9270  222.3200 C   0  0  0  0  0  0  0  0  0  0  0  0
  140.8410   78.2320  222.7820 C   0  0  0  0  0  0  0  0  0  0  0  0
  141.9060   79.1270  222.9650 C   0  0  0  0  0  0  0  0  0  0  0  0
  141.6580   80.4230  223.4290 C   0  0  0  0  0  0  0  0  0  0  0  0
  142.6900   81.2870  223.6130 F   0  0  0  0  0  0  0  0  0  0  0  0
  140.3480   80.8340  223.7060 C   0  0  0  0  0  0  0  0  0  0  0  0
  139.2800   79.9500  223.5190 C   0  0  0  0  0  0  0  0  0  0  0  0
  139.5210   78.6480  223.0620 C   0  0  0  0  0  0  0  0  0  0  0  0
  138.4860   77.7830  222.8840 N   0  0  0  0  0  0  0  0  0  0  0  0
  138.6290   73.7960  222.4650 H   0  0  0  0  0  0  0  0  0  0  0  0
  135.6133   73.7917  222.2178 H   0  0  0  0  0  0  0  0  0  0  0  0
  136.6692   72.7640  221.1804 H   0  0  0  0  0  0  0  0  0  0  0  0
  136.2661   69.5206  223.6115 H   0  0  0  0  0  0  0  0  0  0  0  0
  136.9806   69.5159  221.9931 H   0  0  0  0  0  0  0  0  0  0  0  0
  138.5099   67.9968  222.9957 H   0  0  0  0  0  0  0  0  0  0  0  0
  137.6540   69.2940  225.3540 H   0  0  0  0  0  0  0  0  0  0  0  0
  140.2042   69.6670  224.4264 H   0  0  0  0  0  0  0  0  0  0  0  0
  140.1678   69.6910  222.6571 H   0  0  0  0  0  0  0  0  0  0  0  0
  139.0959   71.7130  224.6049 H   0  0  0  0  0  0  0  0  0  0  0  0
  140.0345   71.7532  219.2551 H   0  0  0  0  0  0  0  0  0  0  0  0
  141.7089   71.2583  221.7246 H   0  0  0  0  0  0  0  0  0  0  0  0
  141.3842   70.1994  220.2885 H   0  0  0  0  0  0  0  0  0  0  0  0
  143.7213   70.9594  220.3009 H   0  0  0  0  0  0  0  0  0  0  0  0
  142.8040   71.6534  218.9011 H   0  0  0  0  0  0  0  0  0  0  0  0
  143.9516   73.0146  221.3299 H   0  0  0  0  0  0  0  0  0  0  0  0
  143.8558   73.5475  219.5855 H   0  0  0  0  0  0  0  0  0  0  0  0
  141.8715   73.8918  221.8193 H   0  0  0  0  0  0  0  0  0  0  0  0
  142.3796   75.0217  220.4936 H   0  0  0  0  0  0  0  0  0  0  0  0
  140.0516   74.2741  220.1877 H   0  0  0  0  0  0  0  0  0  0  0  0
  141.1401   73.6780  218.8635 H   0  0  0  0  0  0  0  0  0  0  0  0
  140.1383   75.0344  221.7917 H   0  0  0  0  0  0  0  0  0  0  0  0
  142.0782   76.5852  222.0911 H   0  0  0  0  0  0  0  0  0  0  0  0
  142.9357   78.8095  222.7436 H   0  0  0  0  0  0  0  0  0  0  0  0
  140.1585   81.8541  224.0714 H   0  0  0  0  0  0  0  0  0  0  0  0
  138.2514   80.2772  223.7308 H   0  0  0  0  0  0  0  0  0  0  0  0
  1  2  2  0
  2  3  1  0
  3  4  1  0
  4  5  1  0
  5  6  2  0
  5  7  1  0
  7  8  1  0
  8  9  1  0
  9 10  1  0
  9 11  1  0
 11 12  1  0
 12 13  1  0
 13 14  2  0
 13 15  1  0
 15 16  1  0
 16 17  1  0
 17 18  1  0
 18 19  1  0
 19 20  1  0
 20 21  1  0
  2 22  1  0
 22 23  2  0
 23 24  1  0
 24 25  2  0
 25 26  1  0
 26 27  2  0
 27 28  1  0
 27 29  1  0
 29 30  2  0
 30 31  1  0
 31 32  2  0
 12  7  1  0
 21 16  1  0
 32 22  1  0
 31 25  1  0
  3 33  1  0
  4 34  1  0
  4 35  1  0
  8 36  1  0
  8 37  1  0
  9 38  1  6
 10 39  1  0
 11 40  1  0
 11 41  1  0
 12 42  1  1
 16 43  1  0
 17 44  1  0
 17 45  1  0
 18 46  1  0
 18 47  1  0
 19 48  1  0
 19 49  1  0
 20 50  1  0
 20 51  1  0
 21 52  1  0
 21 53  1  0
 23 54  1  0
 24 55  1  0
 26 56  1  0
 29 57  1  0
 30 58  1  0
M  CHG  1  15  -1
M  END
>  <UniqueID>  (49) 
139

>  <SMILES>  (49) 
O=C(NCC(=O)N1C[C@H](O)C[C@H]1C(=O)[N-]C1CCCCC1)c1ccc2cc(F)ccc2n1

>  <Energy>  (49) 
58.44419743129

>  <Genealogy>  (49) 
O=C(NCC(=O)N1C[C@H](O)C[C@H]1C(=O)[N-]C1CCCCC1)c1ccc2cc(F)ccc2n1 (protonated)
O=C(NCC(=O)N1C[C@H](O)C[C@H]1C(=O)[N-]C1CCCCC1)c1ccc2cc(F)ccc2n1 (3D coordinates assigned)
O=C(NCC(=O)N1C[C@H](O)C[C@H]1C(=O)[N-]C1CCCCC1)c1ccc2cc(F)ccc2n1 (nonaromatic ring conformer: 58.44419743129 kcal/mol)

>  <smiles>  (49) 
O=C(NCC(=O)N1C[C@H](O)C[C@H]1C(=O)NC1CCCCC1)c1ccc2cc(F)ccc2n1

>  <score_type>  (49) 
oracle

>  <origin>  (49) 
autodockgpu

>  <m_score__min__energy>  (49) 
-8.7599999999999998

>  <m_primary>  (49) 
energy

>  <meeko>  (49) 
{"free_energy": -5.44, "intermolecular_energy": -7.83, "internal_energy": -3.42, "cluster_size": 1, "cluster_id": 6, "rank_in_cluster": 1}

>  <energy>  (49) 
-6.28

>  <cluster_rmsd>  (49) 
1.56

>  <rmsd>  (49) 
272.33

>  <cluster>  (49) 
1

$$$$
YMXDKILJCZTOEU-UDRLWISANA-M
     RDKit          3D

 58 61  0  0  0  0  0  0  0  0999 V2000
  139.6510   71.3580  221.0420 O   0  0  0  0  0  0  0  0  0  0  0  0
  139.6500   71.8890  222.1880 C   0  0  0  0  0  0  0  0  0  0  0  0
  139.6130   73.3210  222.3190 N   0  0  0  0  0  0  0  0  0  0  0  0
  139.5500   74.2260  221.1760 C   0  0  0  0  0  0  0  0  0  0  0  0
  140.1470   75.5590  221.5320 C   0  0  0  0  0  0  0  0  0  0  0  0
  139.9730   75.9990  222.7020 O   0  0  0  0  0  0  0  0  0  0  0  0
  140.8990   76.3410  220.5850 N   0  0  0  0  0  0  0  0  0  0  0  0
  141.6870   75.7130  219.5320 C   0  0  0  0  0  0  0  0  0  0  0  0
  142.6840   76.7760  219.0710 C   0  0  2  0  0  0  0  0  0  0  0  0
  143.9140   76.6020  219.7250 O   0  0  0  0  0  0  0  0  0  0  0  0
  142.0690   78.1080  219.4960 C   0  0  0  0  0  0  0  0  0  0  0  0
  141.1300   77.7800  220.6580 C   0  0  1  0  0  0  0  0  0  0  0  0
  139.8390   78.5360  220.5310 C   0  0  0  0  0  0  0  0  0  0  0  0
  139.3350   78.7240  219.3900 O   0  0  0  0  0  0  0  0  0  0  0  0
  139.1770   79.0210  221.7060 N   0  0  0  0  0  0  0  0  0  0  0  0
  139.7390   80.0440  222.5880 C   0  0  0  0  0  0  0  0  0  0  0  0
  140.7310   80.9080  221.7790 C   0  0  0  0  0  0  0  0  0  0  0  0
  141.8030   81.5350  222.6750 C   0  0  0  0  0  0  0  0  0  0  0  0
  142.6530   80.4560  223.3800 C   0  0  0  0  0  0  0  0  0  0  0  0
  141.8860   79.1420  223.6380 C   0  0  0  0  0  0  0  0  0  0  0  0
  140.3870   79.3860  223.8340 C   0  0  0  0  0  0  0  0  0  0  0  0
  139.6900   71.0340  223.3930 C   0  0  0  0  0  0  0  0  0  0  0  0
  139.1830   69.7230  223.3690 C   0  0  0  0  0  0  0  0  0  0  0  0
  139.2390   68.9370  224.5230 C   0  0  0  0  0  0  0  0  0  0  0  0
  139.7970   69.4610  225.6970 C   0  0  0  0  0  0  0  0  0  0  0  0
  139.8670   68.7020  226.8740 C   0  0  0  0  0  0  0  0  0  0  0  0
  140.4280   69.2540  228.0310 C   0  0  0  0  0  0  0  0  0  0  0  0
  140.4900   68.5200  229.1720 F   0  0  0  0  0  0  0  0  0  0  0  0
  140.9270   70.5620  228.0160 C   0  0  0  0  0  0  0  0  0  0  0  0
  140.8670   71.3240  226.8440 C   0  0  0  0  0  0  0  0  0  0  0  0
  140.3000   70.7810  225.6840 C   0  0  0  0  0  0  0  0  0  0  0  0
  140.2340   71.5200  224.5450 N   0  0  0  0  0  0  0  0  0  0  0  0
  139.5570   73.7400  223.2730 H   0  0  0  0  0  0  0  0  0  0  0  0
  140.1111   73.7897  220.3364 H   0  0  0  0  0  0  0  0  0  0  0  0
  138.4973   74.3701  220.8915 H   0  0  0  0  0  0  0  0  0  0  0  0
  142.2184   74.8331  219.9237 H   0  0  0  0  0  0  0  0  0  0  0  0
  141.0528   75.3649  218.7034 H   0  0  0  0  0  0  0  0  0  0  0  0
  142.8691   76.7214  217.9881 H   0  0  0  0  0  0  0  0  0  0  0  0
  144.0550   77.4130  220.2830 H   0  0  0  0  0  0  0  0  0  0  0  0
  142.8541   78.8057  219.8228 H   0  0  0  0  0  0  0  0  0  0  0  0
  141.5330   78.5904  218.6654 H   0  0  0  0  0  0  0  0  0  0  0  0
  141.5671   78.0699  221.6249 H   0  0  0  0  0  0  0  0  0  0  0  0
  138.9462   80.7055  222.9672 H   0  0  0  0  0  0  0  0  0  0  0  0
  141.2226   80.2745  221.0260 H   0  0  0  0  0  0  0  0  0  0  0  0
  140.1650   81.7223  221.3030 H   0  0  0  0  0  0  0  0  0  0  0  0
  142.4625   82.1627  222.0577 H   0  0  0  0  0  0  0  0  0  0  0  0
  141.2996   82.1364  223.4464 H   0  0  0  0  0  0  0  0  0  0  0  0
  143.5254   80.2321  222.7486 H   0  0  0  0  0  0  0  0  0  0  0  0
  142.9421   80.8608  224.3611 H   0  0  0  0  0  0  0  0  0  0  0  0
  142.0279   78.4723  222.7770 H   0  0  0  0  0  0  0  0  0  0  0  0
  142.2818   78.6911  224.5600 H   0  0  0  0  0  0  0  0  0  0  0  0
  139.8921   78.4224  224.0249 H   0  0  0  0  0  0  0  0  0  0  0  0
  140.2622   80.0720  224.6848 H   0  0  0  0  0  0  0  0  0  0  0  0
  138.7440   69.3176  222.4455 H   0  0  0  0  0  0  0  0  0  0  0  0
  138.8461   67.9096  224.5100 H   0  0  0  0  0  0  0  0  0  0  0  0
  139.4807   67.6721  226.8878 H   0  0  0  0  0  0  0  0  0  0  0  0
  141.3673   70.9917  228.9279 H   0  0  0  0  0  0  0  0  0  0  0  0
  141.2651   72.3494  226.8336 H   0  0  0  0  0  0  0  0  0  0  0  0
  1  2  2  0
  2  3  1  0
  3  4  1  0
  4  5  1  0
  5  6  2  0
  5  7  1  0
  7  8  1  0
  8  9  1  0
  9 10  1  0
  9 11  1  0
 11 12  1  0
 12 13  1  0
 13 14  2  0
 13 15  1  0
 15 16  1  0
 16 17  1  0
 17 18  1  0
 18 19  1  0
 19 20  1  0
 20 21  1  0
  2 22  1  0
 22 23  2  0
 23 24  1  0
 24 25  2  0
 25 26  1  0
 26 27  2  0
 27 28  1  0
 27 29  1  0
 29 30  2  0
 30 31  1  0
 31 32  2  0
 12  7  1  0
 21 16  1  0
 32 22  1  0
 31 25  1  0
  3 33  1  0
  4 34  1  0
  4 35  1  0
  8 36  1  0
  8 37  1  0
  9 38  1  6
 10 39  1  0
 11 40  1  0
 11 41  1  0
 12 42  1  1
 16 43  1  0
 17 44  1  0
 17 45  1  0
 18 46  1  0
 18 47  1  0
 19 48  1  0
 19 49  1  0
 20 50  1  0
 20 51  1  0
 21 52  1  0
 21 53  1  0
 23 54  1  0
 24 55  1  0
 26 56  1  0
 29 57  1  0
 30 58  1  0
M  CHG  1  15  -1
M  END
>  <UniqueID>  (50) 
139

>  <SMILES>  (50) 
O=C(NCC(=O)N1C[C@H](O)C[C@H]1C(=O)[N-]C1CCCCC1)c1ccc2cc(F)ccc2n1

>  <Energy>  (50) 
58.44419743129

>  <Genealogy>  (50) 
O=C(NCC(=O)N1C[C@H](O)C[C@H]1C(=O)[N-]C1CCCCC1)c1ccc2cc(F)ccc2n1 (protonated)
O=C(NCC(=O)N1C[C@H](O)C[C@H]1C(=O)[N-]C1CCCCC1)c1ccc2cc(F)ccc2n1 (3D coordinates assigned)
O=C(NCC(=O)N1C[C@H](O)C[C@H]1C(=O)[N-]C1CCCCC1)c1ccc2cc(F)ccc2n1 (nonaromatic ring conformer: 58.44419743129 kcal/mol)

>  <smiles>  (50) 
O=C(NCC(=O)N1C[C@H](O)C[C@H]1C(=O)NC1CCCCC1)c1ccc2cc(F)ccc2n1

>  <score_type>  (50) 
oracle

>  <origin>  (50) 
autodockgpu

>  <m_score__min__energy>  (50) 
-8.7599999999999998

>  <m_primary>  (50) 
energy

>  <meeko>  (50) 
{"free_energy": -8.5, "intermolecular_energy": -10.89, "internal_energy": -2.28, "cluster_size": 9, "cluster_id": 1, "rank_in_cluster": 3}

>  <energy>  (50) 
-8.01

>  <cluster_rmsd>  (50) 
0.0

>  <rmsd>  (50) 
271.73

>  <cluster>  (50) 
2

$$$$
YMXDKILJCZTOEU-UDRLWISANA-M
     RDKit          3D

 58 61  0  0  0  0  0  0  0  0999 V2000
  139.6400   71.3660  220.9820 O   0  0  0  0  0  0  0  0  0  0  0  0
  139.6420   71.8890  222.1320 C   0  0  0  0  0  0  0  0  0  0  0  0
  139.6140   73.3200  222.2730 N   0  0  0  0  0  0  0  0  0  0  0  0
  139.5540   74.2330  221.1350 C   0  0  0  0  0  0  0  0  0  0  0  0
  140.1130   75.5760  221.5150 C   0  0  0  0  0  0  0  0  0  0  0  0
  139.9820   75.9640  222.7080 O   0  0  0  0  0  0  0  0  0  0  0  0
  140.7830   76.4260  220.5630 N   0  0  0  0  0  0  0  0  0  0  0  0
  141.4600   75.8780  219.3950 C   0  0  0  0  0  0  0  0  0  0  0  0
  142.4220   76.9690  218.9250 C   0  0  2  0  0  0  0  0  0  0  0  0
  143.7060   76.7390  219.4440 O   0  0  0  0  0  0  0  0  0  0  0  0
  141.8660   78.2660  219.5070 C   0  0  0  0  0  0  0  0  0  0  0  0
  141.0370   77.8540  220.7250 C   0  0  1  0  0  0  0  0  0  0  0  0
  139.7490   78.6230  220.7800 C   0  0  0  0  0  0  0  0  0  0  0  0
  139.1620   78.9350  219.7080 O   0  0  0  0  0  0  0  0  0  0  0  0
  139.1850   78.9820  222.0470 N   0  0  0  0  0  0  0  0  0  0  0  0
  139.8400   79.8760  223.0020 C   0  0  0  0  0  0  0  0  0  0  0  0
  140.5620   80.9950  222.2200 C   0  0  0  0  0  0  0  0  0  0  0  0
  141.7480   81.5640  223.0050 C   0  0  0  0  0  0  0  0  0  0  0  0
  142.8130   80.4810  223.2830 C   0  0  0  0  0  0  0  0  0  0  0  0
  142.2280   79.0580  223.3970 C   0  0  0  0  0  0  0  0  0  0  0  0
  140.7920   79.0740  223.9280 C   0  0  0  0  0  0  0  0  0  0  0  0
  139.6800   71.0260  223.3320 C   0  0  0  0  0  0  0  0  0  0  0  0
  139.1650   69.7180  223.3000 C   0  0  0  0  0  0  0  0  0  0  0  0
  139.2180   68.9240  224.4480 C   0  0  0  0  0  0  0  0  0  0  0  0
  139.7800   69.4380  225.6250 C   0  0  0  0  0  0  0  0  0  0  0  0
  139.8470   68.6700  226.7970 C   0  0  0  0  0  0  0  0  0  0  0  0
  140.4130   69.2110  227.9560 C   0  0  0  0  0  0  0  0  0  0  0  0
  140.4720   68.4690  229.0930 F   0  0  0  0  0  0  0  0  0  0  0  0
  140.9190   70.5170  227.9500 C   0  0  0  0  0  0  0  0  0  0  0  0
  140.8620   71.2870  226.7830 C   0  0  0  0  0  0  0  0  0  0  0  0
  140.2900   70.7550  225.6200 C   0  0  0  0  0  0  0  0  0  0  0  0
  140.2270   71.5020  224.4860 N   0  0  0  0  0  0  0  0  0  0  0  0
  139.5610   73.7340  223.2300 H   0  0  0  0  0  0  0  0  0  0  0  0
  140.1424   73.8167  220.3041 H   0  0  0  0  0  0  0  0  0  0  0  0
  138.5046   74.3553  220.8287 H   0  0  0  0  0  0  0  0  0  0  0  0
  142.0151   74.9676  219.6654 H   0  0  0  0  0  0  0  0  0  0  0  0
  140.7464   75.5984  218.6060 H   0  0  0  0  0  0  0  0  0  0  0  0
  142.5038   76.9979  217.8284 H   0  0  0  0  0  0  0  0  0  0  0  0
  143.8790   77.4630  220.1010 H   0  0  0  0  0  0  0  0  0  0  0  0
  142.6867   78.9328  219.8099 H   0  0  0  0  0  0  0  0  0  0  0  0
  141.2594   78.8132  218.7704 H   0  0  0  0  0  0  0  0  0  0  0  0
  141.5666   78.0667  221.6654 H   0  0  0  0  0  0  0  0  0  0  0  0
  139.0973   80.3490  223.6613 H   0  0  0  0  0  0  0  0  0  0  0  0
  140.9294   80.5840  221.2681 H   0  0  0  0  0  0  0  0  0  0  0  0
  139.8435   81.8100  222.0479 H   0  0  0  0  0  0  0  0  0  0  0  0
  142.2070   82.3755  222.4212 H   0  0  0  0  0  0  0  0  0  0  0  0
  141.3760   81.9386  223.9700 H   0  0  0  0  0  0  0  0  0  0  0  0
  143.5439   80.4922  222.4610 H   0  0  0  0  0  0  0  0  0  0  0  0
  143.2728   80.7206  224.2532 H   0  0  0  0  0  0  0  0  0  0  0  0
  142.2343   78.5897  222.4017 H   0  0  0  0  0  0  0  0  0  0  0  0
  142.8481   78.4893  224.1056 H   0  0  0  0  0  0  0  0  0  0  0  0
  140.4283   78.0384  224.0003 H   0  0  0  0  0  0  0  0  0  0  0  0
  140.7992   79.5623  224.9136 H   0  0  0  0  0  0  0  0  0  0  0  0
  138.7221   69.3215  222.3745 H   0  0  0  0  0  0  0  0  0  0  0  0
  138.8201   67.8987  224.4286 H   0  0  0  0  0  0  0  0  0  0  0  0
  139.4545   67.6424  226.8045 H   0  0  0  0  0  0  0  0  0  0  0  0
  141.3621   70.9382  228.8645 H   0  0  0  0  0  0  0  0  0  0  0  0
  141.2663   72.3100  226.7788 H   0  0  0  0  0  0  0  0  0  0  0  0
  1  2  2  0
  2  3  1  0
  3  4  1  0
  4  5  1  0
  5  6  2  0
  5  7  1  0
  7  8  1  0
  8  9  1  0
  9 10  1  0
  9 11  1  0
 11 12  1  0
 12 13  1  0
 13 14  2  0
 13 15  1  0
 15 16  1  0
 16 17  1  0
 17 18  1  0
 18 19  1  0
 19 20  1  0
 20 21  1  0
  2 22  1  0
 22 23  2  0
 23 24  1  0
 24 25  2  0
 25 26  1  0
 26 27  2  0
 27 28  1  0
 27 29  1  0
 29 30  2  0
 30 31  1  0
 31 32  2  0
 12  7  1  0
 21 16  1  0
 32 22  1  0
 31 25  1  0
  3 33  1  0
  4 34  1  0
  4 35  1  0
  8 36  1  0
  8 37  1  0
  9 38  1  6
 10 39  1  0
 11 40  1  0
 11 41  1  0
 12 42  1  1
 16 43  1  0
 17 44  1  0
 17 45  1  0
 18 46  1  0
 18 47  1  0
 19 48  1  0
 19 49  1  0
 20 50  1  0
 20 51  1  0
 21 52  1  0
 21 53  1  0
 23 54  1  0
 24 55  1  0
 26 56  1  0
 29 57  1  0
 30 58  1  0
M  CHG  1  15  -1
M  END
>  <UniqueID>  (51) 
139

>  <SMILES>  (51) 
O=C(NCC(=O)N1C[C@H](O)C[C@H]1C(=O)[N-]C1CCCCC1)c1ccc2cc(F)ccc2n1

>  <Energy>  (51) 
58.44419743129

>  <Genealogy>  (51) 
O=C(NCC(=O)N1C[C@H](O)C[C@H]1C(=O)[N-]C1CCCCC1)c1ccc2cc(F)ccc2n1 (protonated)
O=C(NCC(=O)N1C[C@H](O)C[C@H]1C(=O)[N-]C1CCCCC1)c1ccc2cc(F)ccc2n1 (3D coordinates assigned)
O=C(NCC(=O)N1C[C@H](O)C[C@H]1C(=O)[N-]C1CCCCC1)c1ccc2cc(F)ccc2n1 (nonaromatic ring conformer: 58.44419743129 kcal/mol)

>  <smiles>  (51) 
O=C(NCC(=O)N1C[C@H](O)C[C@H]1C(=O)NC1CCCCC1)c1ccc2cc(F)ccc2n1

>  <score_type>  (51) 
oracle

>  <origin>  (51) 
autodockgpu

>  <m_score__min__energy>  (51) 
-8.7599999999999998

>  <m_primary>  (51) 
energy

>  <meeko>  (51) 
{"free_energy": -8.48, "intermolecular_energy": -10.87, "internal_energy": -2.29, "cluster_size": 9, "cluster_id": 1, "rank_in_cluster": 4}

>  <energy>  (51) 
-7.98

>  <cluster_rmsd>  (51) 
0.17

>  <rmsd>  (51) 
271.79

>  <cluster>  (51) 
2

$$$$
YMXDKILJCZTOEU-UDRLWISANA-M
     RDKit          3D

 58 61  0  0  0  0  0  0  0  0999 V2000
  139.9090   71.6840  220.9150 O   0  0  0  0  0  0  0  0  0  0  0  0
  139.7980   72.2060  222.0590 C   0  0  0  0  0  0  0  0  0  0  0  0
  139.6870   73.6340  222.1930 N   0  0  0  0  0  0  0  0  0  0  0  0
  139.6690   74.5440  221.0510 C   0  0  0  0  0  0  0  0  0  0  0  0
  140.6410   75.6700  221.2670 C   0  0  0  0  0  0  0  0  0  0  0  0
  141.3030   75.6920  222.3410 O   0  0  0  0  0  0  0  0  0  0  0  0
  140.8320   76.7160  220.2950 N   0  0  0  0  0  0  0  0  0  0  0  0
  141.2840   76.4250  218.9400 C   0  0  0  0  0  0  0  0  0  0  0  0
  141.8230   77.7460  218.3920 C   0  0  2  0  0  0  0  0  0  0  0  0
  143.2160   77.8070  218.5560 O   0  0  0  0  0  0  0  0  0  0  0  0
  141.1650   78.8280  219.2450 C   0  0  0  0  0  0  0  0  0  0  0  0
  140.7960   78.1490  220.5660 C   0  0  1  0  0  0  0  0  0  0  0  0
  139.4300   78.5730  221.0220 C   0  0  0  0  0  0  0  0  0  0  0  0
  138.4960   78.6800  220.1800 O   0  0  0  0  0  0  0  0  0  0  0  0
  139.1900   78.8360  222.4100 N   0  0  0  0  0  0  0  0  0  0  0  0
  139.9860   79.7680  223.2080 C   0  0  0  0  0  0  0  0  0  0  0  0
  140.4800   80.9100  222.2930 C   0  0  0  0  0  0  0  0  0  0  0  0
  141.7750   81.5390  222.8150 C   0  0  0  0  0  0  0  0  0  0  0  0
  142.9230   80.5080  222.8690 C   0  0  0  0  0  0  0  0  0  0  0  0
  142.4400   79.0610  223.1030 C   0  0  0  0  0  0  0  0  0  0  0  0
  141.1440   79.0190  223.9180 C   0  0  0  0  0  0  0  0  0  0  0  0
  139.7860   71.3450  223.2610 C   0  0  0  0  0  0  0  0  0  0  0  0
  139.2330   70.0530  223.2220 C   0  0  0  0  0  0  0  0  0  0  0  0
  139.2400   69.2600  224.3720 C   0  0  0  0  0  0  0  0  0  0  0  0
  139.7940   69.7600  225.5580 C   0  0  0  0  0  0  0  0  0  0  0  0
  139.8160   68.9930  226.7330 C   0  0  0  0  0  0  0  0  0  0  0  0
  140.3750   69.5200  227.9020 C   0  0  0  0  0  0  0  0  0  0  0  0
  140.3900   68.7800  229.0410 F   0  0  0  0  0  0  0  0  0  0  0  0
  140.9200   70.8100  227.9030 C   0  0  0  0  0  0  0  0  0  0  0  0
  140.9090   71.5790  226.7340 C   0  0  0  0  0  0  0  0  0  0  0  0
  140.3440   71.0610  225.5610 C   0  0  0  0  0  0  0  0  0  0  0  0
  140.3250   71.8070  224.4250 N   0  0  0  0  0  0  0  0  0  0  0  0
  139.5410   74.0430  223.1420 H   0  0  0  0  0  0  0  0  0  0  0  0
  139.9496   73.9915  220.1421 H   0  0  0  0  0  0  0  0  0  0  0  0
  138.6569   74.9606  220.9409 H   0  0  0  0  0  0  0  0  0  0  0  0
  142.0778   75.6637  218.9555 H   0  0  0  0  0  0  0  0  0  0  0  0
  140.4693   76.0286  218.3162 H   0  0  0  0  0  0  0  0  0  0  0  0
  141.6067   77.8624  217.3198 H   0  0  0  0  0  0  0  0  0  0  0  0
  143.3900   77.7090  219.5290 H   0  0  0  0  0  0  0  0  0  0  0  0
  141.8672   79.6558  219.4227 H   0  0  0  0  0  0  0  0  0  0  0  0
  140.2813   79.2545  218.7478 H   0  0  0  0  0  0  0  0  0  0  0  0
  141.4922   78.4259  221.3714 H   0  0  0  0  0  0  0  0  0  0  0  0
  139.3739   80.2143  224.0056 H   0  0  0  0  0  0  0  0  0  0  0  0
  140.6614   80.5060  221.2861 H   0  0  0  0  0  0  0  0  0  0  0  0
  139.7053   81.6907  222.2729 H   0  0  0  0  0  0  0  0  0  0  0  0
  142.0662   82.3636  222.1477 H   0  0  0  0  0  0  0  0  0  0  0  0
  141.5931   81.9068  223.8356 H   0  0  0  0  0  0  0  0  0  0  0  0
  143.4678   80.5431  221.9140 H   0  0  0  0  0  0  0  0  0  0  0  0
  143.5610   80.7784  223.7233 H   0  0  0  0  0  0  0  0  0  0  0  0
  142.2634   78.5825  222.1284 H   0  0  0  0  0  0  0  0  0  0  0  0
  143.2178   78.5282  223.6697 H   0  0  0  0  0  0  0  0  0  0  0  0
  140.8506   77.9690  224.0646 H   0  0  0  0  0  0  0  0  0  0  0  0
  141.3316   79.5180  224.8802 H   0  0  0  0  0  0  0  0  0  0  0  0
  138.7962   69.6678  222.2888 H   0  0  0  0  0  0  0  0  0  0  0  0
  138.8122   68.2469  224.3466 H   0  0  0  0  0  0  0  0  0  0  0  0
  139.3936   67.9773  226.7348 H   0  0  0  0  0  0  0  0  0  0  0  0
  141.3579   71.2198  228.8251 H   0  0  0  0  0  0  0  0  0  0  0  0
  141.3436   72.5895  226.7359 H   0  0  0  0  0  0  0  0  0  0  0  0
  1  2  2  0
  2  3  1  0
  3  4  1  0
  4  5  1  0
  5  6  2  0
  5  7  1  0
  7  8  1  0
  8  9  1  0
  9 10  1  0
  9 11  1  0
 11 12  1  0
 12 13  1  0
 13 14  2  0
 13 15  1  0
 15 16  1  0
 16 17  1  0
 17 18  1  0
 18 19  1  0
 19 20  1  0
 20 21  1  0
  2 22  1  0
 22 23  2  0
 23 24  1  0
 24 25  2  0
 25 26  1  0
 26 27  2  0
 27 28  1  0
 27 29  1  0
 29 30  2  0
 30 31  1  0
 31 32  2  0
 12  7  1  0
 21 16  1  0
 32 22  1  0
 31 25  1  0
  3 33  1  0
  4 34  1  0
  4 35  1  0
  8 36  1  0
  8 37  1  0
  9 38  1  6
 10 39  1  0
 11 40  1  0
 11 41  1  0
 12 42  1  1
 16 43  1  0
 17 44  1  0
 17 45  1  0
 18 46  1  0
 18 47  1  0
 19 48  1  0
 19 49  1  0
 20 50  1  0
 20 51  1  0
 21 52  1  0
 21 53  1  0
 23 54  1  0
 24 55  1  0
 26 56  1  0
 29 57  1  0
 30 58  1  0
M  CHG  1  15  -1
M  END
>  <UniqueID>  (52) 
139

>  <SMILES>  (52) 
O=C(NCC(=O)N1C[C@H](O)C[C@H]1C(=O)[N-]C1CCCCC1)c1ccc2cc(F)ccc2n1

>  <Energy>  (52) 
58.44419743129

>  <Genealogy>  (52) 
O=C(NCC(=O)N1C[C@H](O)C[C@H]1C(=O)[N-]C1CCCCC1)c1ccc2cc(F)ccc2n1 (protonated)
O=C(NCC(=O)N1C[C@H](O)C[C@H]1C(=O)[N-]C1CCCCC1)c1ccc2cc(F)ccc2n1 (3D coordinates assigned)
O=C(NCC(=O)N1C[C@H](O)C[C@H]1C(=O)[N-]C1CCCCC1)c1ccc2cc(F)ccc2n1 (nonaromatic ring conformer: 58.44419743129 kcal/mol)

>  <smiles>  (52) 
O=C(NCC(=O)N1C[C@H](O)C[C@H]1C(=O)NC1CCCCC1)c1ccc2cc(F)ccc2n1

>  <score_type>  (52) 
oracle

>  <origin>  (52) 
autodockgpu

>  <m_score__min__energy>  (52) 
-8.7599999999999998

>  <m_primary>  (52) 
energy

>  <meeko>  (52) 
{"free_energy": -7.99, "intermolecular_energy": -10.38, "internal_energy": -2.18, "cluster_size": 9, "cluster_id": 1, "rank_in_cluster": 7}

>  <energy>  (52) 
-7.46

>  <cluster_rmsd>  (52) 
0.83

>  <rmsd>  (52) 
271.61

>  <cluster>  (52) 
2

$$$$
YMXDKILJCZTOEU-UDRLWISANA-M
     RDKit          3D

 58 61  0  0  0  0  0  0  0  0999 V2000
  135.6320   71.6520  221.7060 O   0  0  0  0  0  0  0  0  0  0  0  0
  136.3020   72.0630  222.6950 C   0  0  0  0  0  0  0  0  0  0  0  0
  136.2380   73.4470  223.0830 N   0  0  0  0  0  0  0  0  0  0  0  0
  135.4030   74.4310  222.4000 C   0  0  0  0  0  0  0  0  0  0  0  0
  136.2450   75.3000  221.5080 C   0  0  0  0  0  0  0  0  0  0  0  0
  135.6630   76.0090  220.6410 O   0  0  0  0  0  0  0  0  0  0  0  0
  137.6810   75.3420  221.6100 N   0  0  0  0  0  0  0  0  0  0  0  0
  138.5240   74.3890  220.8980 C   0  0  0  0  0  0  0  0  0  0  0  0
  139.8780   74.4250  221.6070 C   0  0  2  0  0  0  0  0  0  0  0  0
  139.9600   73.3860  222.5480 O   0  0  0  0  0  0  0  0  0  0  0  0
  139.9110   75.7680  222.3320 C   0  0  0  0  0  0  0  0  0  0  0  0
  138.4480   76.1660  222.5380 C   0  0  1  0  0  0  0  0  0  0  0  0
  138.2440   77.6250  222.2510 C   0  0  0  0  0  0  0  0  0  0  0  0
  137.1260   78.1590  222.4910 O   0  0  0  0  0  0  0  0  0  0  0  0
  139.3240   78.4070  221.7250 N   0  0  0  0  0  0  0  0  0  0  0  0
  139.8510   79.6040  222.3790 C   0  0  0  0  0  0  0  0  0  0  0  0
  140.9710   80.1990  221.4980 C   0  0  0  0  0  0  0  0  0  0  0  0
  141.9800   81.0020  222.3240 C   0  0  0  0  0  0  0  0  0  0  0  0
  142.6870   80.1150  223.3720 C   0  0  0  0  0  0  0  0  0  0  0  0
  141.8210   78.9360  223.8630 C   0  0  0  0  0  0  0  0  0  0  0  0
  140.3270   79.2690  223.8180 C   0  0  0  0  0  0  0  0  0  0  0  0
  137.1530   71.1200  223.4490 C   0  0  0  0  0  0  0  0  0  0  0  0
  136.7270   69.8040  223.7050 C   0  0  0  0  0  0  0  0  0  0  0  0
  137.5560   68.9330  224.4160 C   0  0  0  0  0  0  0  0  0  0  0  0
  138.8040   69.3770  224.8740 C   0  0  0  0  0  0  0  0  0  0  0  0
  139.6600   68.5310  225.5940 C   0  0  0  0  0  0  0  0  0  0  0  0
  140.8990   69.0030  226.0390 C   0  0  0  0  0  0  0  0  0  0  0  0
  141.7250   68.1850  226.7420 F   0  0  0  0  0  0  0  0  0  0  0  0
  141.2910   70.3190  225.7630 C   0  0  0  0  0  0  0  0  0  0  0  0
  140.4460   71.1670  225.0400 C   0  0  0  0  0  0  0  0  0  0  0  0
  139.2010   70.7040  224.5970 C   0  0  0  0  0  0  0  0  0  0  0  0
  138.3740   71.5270  223.8990 N   0  0  0  0  0  0  0  0  0  0  0  0
  136.7550   73.7580  223.9360 H   0  0  0  0  0  0  0  0  0  0  0  0
  134.6500   73.9084  221.7918 H   0  0  0  0  0  0  0  0  0  0  0  0
  134.9075   75.0633  223.1515 H   0  0  0  0  0  0  0  0  0  0  0  0
  138.0903   73.3794  220.9502 H   0  0  0  0  0  0  0  0  0  0  0  0
  138.6165   74.6455  219.8323 H   0  0  0  0  0  0  0  0  0  0  0  0
  140.7129   74.3045  220.9010 H   0  0  0  0  0  0  0  0  0  0  0  0
  139.1100   73.4020  223.0620 H   0  0  0  0  0  0  0  0  0  0  0  0
  140.4209   75.6676  223.3015 H   0  0  0  0  0  0  0  0  0  0  0  0
  140.4597   76.5266  221.7546 H   0  0  0  0  0  0  0  0  0  0  0  0
  138.1294   76.0068  223.5787 H   0  0  0  0  0  0  0  0  0  0  0  0
  139.0638   80.3649  222.4854 H   0  0  0  0  0  0  0  0  0  0  0  0
  141.4992   79.3779  220.9913 H   0  0  0  0  0  0  0  0  0  0  0  0
  140.5068   80.8803  220.7697 H   0  0  0  0  0  0  0  0  0  0  0  0
  142.7360   81.4287  221.6484 H   0  0  0  0  0  0  0  0  0  0  0  0
  141.4362   81.7970  222.8552 H   0  0  0  0  0  0  0  0  0  0  0  0
  143.6054   79.7093  222.9226 H   0  0  0  0  0  0  0  0  0  0  0  0
  142.8962   80.7496  224.2458 H   0  0  0  0  0  0  0  0  0  0  0  0
  142.0106   78.0634  223.2206 H   0  0  0  0  0  0  0  0  0  0  0  0
  142.0925   78.7248  224.9079 H   0  0  0  0  0  0  0  0  0  0  0  0
  139.7585   78.4030  224.1879 H   0  0  0  0  0  0  0  0  0  0  0  0
  140.1563   80.1544  224.4480 H   0  0  0  0  0  0  0  0  0  0  0  0
  135.7448   69.4621  223.3467 H   0  0  0  0  0  0  0  0  0  0  0  0
  137.2302   67.9015  224.6159 H   0  0  0  0  0  0  0  0  0  0  0  0
  139.3567   67.4957  225.8088 H   0  0  0  0  0  0  0  0  0  0  0  0
  142.2659   70.6865  226.1158 H   0  0  0  0  0  0  0  0  0  0  0  0
  140.7595   72.1980  224.8193 H   0  0  0  0  0  0  0  0  0  0  0  0
  1  2  2  0
  2  3  1  0
  3  4  1  0
  4  5  1  0
  5  6  2  0
  5  7  1  0
  7  8  1  0
  8  9  1  0
  9 10  1  0
  9 11  1  0
 11 12  1  0
 12 13  1  0
 13 14  2  0
 13 15  1  0
 15 16  1  0
 16 17  1  0
 17 18  1  0
 18 19  1  0
 19 20  1  0
 20 21  1  0
  2 22  1  0
 22 23  2  0
 23 24  1  0
 24 25  2  0
 25 26  1  0
 26 27  2  0
 27 28  1  0
 27 29  1  0
 29 30  2  0
 30 31  1  0
 31 32  2  0
 12  7  1  0
 21 16  1  0
 32 22  1  0
 31 25  1  0
  3 33  1  0
  4 34  1  0
  4 35  1  0
  8 36  1  0
  8 37  1  0
  9 38  1  6
 10 39  1  0
 11 40  1  0
 11 41  1  0
 12 42  1  1
 16 43  1  0
 17 44  1  0
 17 45  1  0
 18 46  1  0
 18 47  1  0
 19 48  1  0
 19 49  1  0
 20 50  1  0
 20 51  1  0
 21 52  1  0
 21 53  1  0
 23 54  1  0
 24 55  1  0
 26 56  1  0
 29 57  1  0
 30 58  1  0
M  CHG  1  15  -1
M  END
>  <UniqueID>  (53) 
139

>  <SMILES>  (53) 
O=C(NCC(=O)N1C[C@H](O)C[C@H]1C(=O)[N-]C1CCCCC1)c1ccc2cc(F)ccc2n1

>  <Energy>  (53) 
58.44419743129

>  <Genealogy>  (53) 
O=C(NCC(=O)N1C[C@H](O)C[C@H]1C(=O)[N-]C1CCCCC1)c1ccc2cc(F)ccc2n1 (protonated)
O=C(NCC(=O)N1C[C@H](O)C[C@H]1C(=O)[N-]C1CCCCC1)c1ccc2cc(F)ccc2n1 (3D coordinates assigned)
O=C(NCC(=O)N1C[C@H](O)C[C@H]1C(=O)[N-]C1CCCCC1)c1ccc2cc(F)ccc2n1 (nonaromatic ring conformer: 58.44419743129 kcal/mol)

>  <smiles>  (53) 
O=C(NCC(=O)N1C[C@H](O)C[C@H]1C(=O)NC1CCCCC1)c1ccc2cc(F)ccc2n1

>  <score_type>  (53) 
oracle

>  <origin>  (53) 
autodockgpu

>  <m_score__min__energy>  (53) 
-8.7599999999999998

>  <m_primary>  (53) 
energy

>  <meeko>  (53) 
{"free_energy": -7.03, "intermolecular_energy": -9.42, "internal_energy": -2.79, "cluster_size": 2, "cluster_id": 4, "rank_in_cluster": 1}

>  <energy>  (53) 
-7.53

>  <cluster_rmsd>  (53) 
0.0

>  <rmsd>  (53) 
272.09

>  <cluster>  (53) 
3

$$$$
YMXDKILJCZTOEU-UDRLWISANA-M
     RDKit          3D

 58 61  0  0  0  0  0  0  0  0999 V2000
  137.0930   76.0890  221.7400 O   0  0  0  0  0  0  0  0  0  0  0  0
  138.2700   76.1430  222.1960 C   0  0  0  0  0  0  0  0  0  0  0  0
  139.0460   74.9390  222.3290 N   0  0  0  0  0  0  0  0  0  0  0  0
  138.5540   73.6230  221.9330 C   0  0  0  0  0  0  0  0  0  0  0  0
  139.5770   72.5680  222.2470 C   0  0  0  0  0  0  0  0  0  0  0  0
  140.7220   72.9380  222.6260 O   0  0  0  0  0  0  0  0  0  0  0  0
  139.2920   71.1610  222.1240 N   0  0  0  0  0  0  0  0  0  0  0  0
  140.0280   70.3120  221.1950 C   0  0  0  0  0  0  0  0  0  0  0  0
  139.1600   69.0710  220.9910 C   0  0  2  0  0  0  0  0  0  0  0  0
  138.3830   69.2090  219.8290 O   0  0  0  0  0  0  0  0  0  0  0  0
  138.2420   69.0240  222.2100 C   0  0  0  0  0  0  0  0  0  0  0  0
  138.1620   70.4630  222.7260 C   0  0  1  0  0  0  0  0  0  0  0  0
  138.2480   70.4990  224.2250 C   0  0  0  0  0  0  0  0  0  0  0  0
  137.3390   69.9610  224.9160 O   0  0  0  0  0  0  0  0  0  0  0  0
  139.3680   71.1250  224.8610 N   0  0  0  0  0  0  0  0  0  0  0  0
  140.4710   70.3850  225.4720 C   0  0  0  0  0  0  0  0  0  0  0  0
  139.9740   68.9710  225.8460 C   0  0  0  0  0  0  0  0  0  0  0  0
  140.7730   68.3750  227.0090 C   0  0  0  0  0  0  0  0  0  0  0  0
  140.6350   69.2290  228.2870 C   0  0  0  0  0  0  0  0  0  0  0  0
  140.3960   70.7270  228.0030 C   0  0  0  0  0  0  0  0  0  0  0  0
  141.0410   71.1660  226.6850 C   0  0  0  0  0  0  0  0  0  0  0  0
  138.8440   77.4440  222.5980 C   0  0  0  0  0  0  0  0  0  0  0  0
  138.0180   78.5530  222.8520 C   0  0  0  0  0  0  0  0  0  0  0  0
  138.5880   79.7700  223.2340 C   0  0  0  0  0  0  0  0  0  0  0  0
  139.9800   79.8780  223.3580 C   0  0  0  0  0  0  0  0  0  0  0  0
  140.5870   81.0840  223.7370 C   0  0  0  0  0  0  0  0  0  0  0  0
  141.9800   81.1610  223.8510 C   0  0  0  0  0  0  0  0  0  0  0  0
  142.5670   82.3310  224.2120 F   0  0  0  0  0  0  0  0  0  0  0  0
  142.7700   80.0350  223.5940 C   0  0  0  0  0  0  0  0  0  0  0  0
  142.1720   78.8260  223.2220 C   0  0  0  0  0  0  0  0  0  0  0  0
  140.7790   78.7430  223.0980 C   0  0  0  0  0  0  0  0  0  0  0  0
  140.1950   77.5720  222.7310 N   0  0  0  0  0  0  0  0  0  0  0  0
  140.0350   75.0090  222.6560 H   0  0  0  0  0  0  0  0  0  0  0  0
  137.6257   73.4028  222.4805 H   0  0  0  0  0  0  0  0  0  0  0  0
  138.3614   73.6238  220.8500 H   0  0  0  0  0  0  0  0  0  0  0  0
  140.1820   70.8335  220.2388 H   0  0  0  0  0  0  0  0  0  0  0  0
  141.0230   70.0514  221.5850 H   0  0  0  0  0  0  0  0  0  0  0  0
  139.7672   68.1602  220.8826 H   0  0  0  0  0  0  0  0  0  0  0  0
  138.5810   70.1110  219.4620 H   0  0  0  0  0  0  0  0  0  0  0  0
  137.2430   68.6634  221.9238 H   0  0  0  0  0  0  0  0  0  0  0  0
  138.6252   68.3380  222.9798 H   0  0  0  0  0  0  0  0  0  0  0  0
  137.2058   70.9359  222.4577 H   0  0  0  0  0  0  0  0  0  0  0  0
  141.3027   70.2744  224.7606 H   0  0  0  0  0  0  0  0  0  0  0  0
  138.9146   69.0313  226.1361 H   0  0  0  0  0  0  0  0  0  0  0  0
  140.1082   68.3192  224.9701 H   0  0  0  0  0  0  0  0  0  0  0  0
  140.4011   67.3605  227.2152 H   0  0  0  0  0  0  0  0  0  0  0  0
  141.8347   68.3524  226.7223 H   0  0  0  0  0  0  0  0  0  0  0  0
  139.7860   68.8457  228.8720 H   0  0  0  0  0  0  0  0  0  0  0  0
  141.5867   69.1508  228.8330 H   0  0  0  0  0  0  0  0  0  0  0  0
  139.3128   70.9106  227.9478 H   0  0  0  0  0  0  0  0  0  0  0  0
  140.8543   71.3068  228.8177 H   0  0  0  0  0  0  0  0  0  0  0  0
  140.8519   72.2395  226.5371 H   0  0  0  0  0  0  0  0  0  0  0  0
  142.1192   70.9574  226.7478 H   0  0  0  0  0  0  0  0  0  0  0  0
  136.9264   78.4628  222.7503 H   0  0  0  0  0  0  0  0  0  0  0  0
  137.9466   80.6404  223.4367 H   0  0  0  0  0  0  0  0  0  0  0  0
  139.9684   81.9696  223.9447 H   0  0  0  0  0  0  0  0  0  0  0  0
  143.8643   80.1005  223.6847 H   0  0  0  0  0  0  0  0  0  0  0  0
  142.7954   77.9409  223.0270 H   0  0  0  0  0  0  0  0  0  0  0  0
  1  2  2  0
  2  3  1  0
  3  4  1  0
  4  5  1  0
  5  6  2  0
  5  7  1  0
  7  8  1  0
  8  9  1  0
  9 10  1  0
  9 11  1  0
 11 12  1  0
 12 13  1  0
 13 14  2  0
 13 15  1  0
 15 16  1  0
 16 17  1  0
 17 18  1  0
 18 19  1  0
 19 20  1  0
 20 21  1  0
  2 22  1  0
 22 23  2  0
 23 24  1  0
 24 25  2  0
 25 26  1  0
 26 27  2  0
 27 28  1  0
 27 29  1  0
 29 30  2  0
 30 31  1  0
 31 32  2  0
 12  7  1  0
 21 16  1  0
 32 22  1  0
 31 25  1  0
  3 33  1  0
  4 34  1  0
  4 35  1  0
  8 36  1  0
  8 37  1  0
  9 38  1  6
 10 39  1  0
 11 40  1  0
 11 41  1  0
 12 42  1  1
 16 43  1  0
 17 44  1  0
 17 45  1  0
 18 46  1  0
 18 47  1  0
 19 48  1  0
 19 49  1  0
 20 50  1  0
 20 51  1  0
 21 52  1  0
 21 53  1  0
 23 54  1  0
 24 55  1  0
 26 56  1  0
 29 57  1  0
 30 58  1  0
M  CHG  1  15  -1
M  END
>  <UniqueID>  (54) 
139

>  <SMILES>  (54) 
O=C(NCC(=O)N1C[C@H](O)C[C@H]1C(=O)[N-]C1CCCCC1)c1ccc2cc(F)ccc2n1

>  <Energy>  (54) 
58.44419743129

>  <Genealogy>  (54) 
O=C(NCC(=O)N1C[C@H](O)C[C@H]1C(=O)[N-]C1CCCCC1)c1ccc2cc(F)ccc2n1 (protonated)
O=C(NCC(=O)N1C[C@H](O)C[C@H]1C(=O)[N-]C1CCCCC1)c1ccc2cc(F)ccc2n1 (3D coordinates assigned)
O=C(NCC(=O)N1C[C@H](O)C[C@H]1C(=O)[N-]C1CCCCC1)c1ccc2cc(F)ccc2n1 (nonaromatic ring conformer: 58.44419743129 kcal/mol)

>  <smiles>  (54) 
O=C(NCC(=O)N1C[C@H](O)C[C@H]1C(=O)NC1CCCCC1)c1ccc2cc(F)ccc2n1

>  <score_type>  (54) 
oracle

>  <origin>  (54) 
autodockgpu

>  <m_score__min__energy>  (54) 
-8.7599999999999998

>  <m_primary>  (54) 
energy

>  <meeko>  (54) 
{"free_energy": -7.37, "intermolecular_energy": -9.75, "internal_energy": -2.38, "cluster_size": 3, "cluster_id": 3, "rank_in_cluster": 2}

>  <energy>  (54) 
-7.37

>  <cluster_rmsd>  (54) 
1.53

>  <rmsd>  (54) 
272.52

>  <cluster>  (54) 
3

$$$$
YMXDKILJCZTOEU-UDRLWISANA-M
     RDKit          3D

 58 61  0  0  0  0  0  0  0  0999 V2000
  139.9830   73.6560  222.4310 O   0  0  0  0  0  0  0  0  0  0  0  0
  140.3480   72.4550  222.2890 C   0  0  0  0  0  0  0  0  0  0  0  0
  140.8810   72.0080  221.0300 N   0  0  0  0  0  0  0  0  0  0  0  0
  141.0550   72.8880  219.8780 C   0  0  0  0  0  0  0  0  0  0  0  0
  142.4200   73.5170  219.9050 C   0  0  0  0  0  0  0  0  0  0  0  0
  142.5000   74.7650  220.0770 O   0  0  0  0  0  0  0  0  0  0  0  0
  143.6250   72.7460  219.7360 N   0  0  0  0  0  0  0  0  0  0  0  0
  144.7400   72.8600  220.6680 C   0  0  0  0  0  0  0  0  0  0  0  0
  145.9560   72.3060  219.9280 C   0  0  2  0  0  0  0  0  0  0  0  0
  146.6870   73.3540  219.3440 O   0  0  0  0  0  0  0  0  0  0  0  0
  145.3810   71.4170  218.8280 C   0  0  0  0  0  0  0  0  0  0  0  0
  143.9650   71.9380  218.5710 C   0  0  1  0  0  0  0  0  0  0  0  0
  142.9980   70.8000  218.4080 C   0  0  0  0  0  0  0  0  0  0  0  0
  142.5330   70.5350  217.2660 O   0  0  0  0  0  0  0  0  0  0  0  0
  142.6250   70.0120  219.5450 N   0  0  0  0  0  0  0  0  0  0  0  0
  143.0210   68.6160  219.7280 C   0  0  0  0  0  0  0  0  0  0  0  0
  144.5230   68.5680  220.0850 C   0  0  0  0  0  0  0  0  0  0  0  0
  145.1630   67.2390  219.6740 C   0  0  0  0  0  0  0  0  0  0  0  0
  145.0780   67.0160  218.1490 C   0  0  0  0  0  0  0  0  0  0  0  0
  143.8530   67.6920  217.4970 C   0  0  0  0  0  0  0  0  0  0  0  0
  142.6710   67.7850  218.4660 C   0  0  0  0  0  0  0  0  0  0  0  0
  140.2220   71.5110  223.4190 C   0  0  0  0  0  0  0  0  0  0  0  0
  139.6430   70.2420  223.2410 C   0  0  0  0  0  0  0  0  0  0  0  0
  139.5410   69.3680  224.3270 C   0  0  0  0  0  0  0  0  0  0  0  0
  140.0130   69.7630  225.5850 C   0  0  0  0  0  0  0  0  0  0  0  0
  139.9250   68.9140  226.6980 C   0  0  0  0  0  0  0  0  0  0  0  0
  140.4030   69.3370  227.9420 C   0  0  0  0  0  0  0  0  0  0  0  0
  140.3110   68.5160  229.0200 F   0  0  0  0  0  0  0  0  0  0  0  0
  140.9770   70.6070  228.0810 C   0  0  0  0  0  0  0  0  0  0  0  0
  141.0750   71.4580  226.9750 C   0  0  0  0  0  0  0  0  0  0  0  0
  140.5910   71.0440  225.7270 C   0  0  0  0  0  0  0  0  0  0  0  0
  140.6800   71.8710  224.6520 N   0  0  0  0  0  0  0  0  0  0  0  0
  141.2290   71.0270  220.9480 H   0  0  0  0  0  0  0  0  0  0  0  0
  140.9433   72.3024  218.9536 H   0  0  0  0  0  0  0  0  0  0  0  0
  140.2940   73.6814  219.9150 H   0  0  0  0  0  0  0  0  0  0  0  0
  144.9046   73.9125  220.9421 H   0  0  0  0  0  0  0  0  0  0  0  0
  144.5472   72.3098  221.6008 H   0  0  0  0  0  0  0  0  0  0  0  0
  146.6318   71.7607  220.6032 H   0  0  0  0  0  0  0  0  0  0  0  0
  146.0890   74.1470  219.3400 H   0  0  0  0  0  0  0  0  0  0  0  0
  145.9896   71.4946  217.9150 H   0  0  0  0  0  0  0  0  0  0  0  0
  145.3759   70.3576  219.1239 H   0  0  0  0  0  0  0  0  0  0  0  0
  143.9128   72.5259  217.6428 H   0  0  0  0  0  0  0  0  0  0  0  0
  142.4621   68.1608  220.5589 H   0  0  0  0  0  0  0  0  0  0  0  0
  145.0392   69.3879  219.5641 H   0  0  0  0  0  0  0  0  0  0  0  0
  144.6186   68.6706  221.1760 H   0  0  0  0  0  0  0  0  0  0  0  0
  146.2208   67.2435  219.9759 H   0  0  0  0  0  0  0  0  0  0  0  0
  144.6162   66.4248  220.1721 H   0  0  0  0  0  0  0  0  0  0  0  0
  145.9886   67.4237  217.6859 H   0  0  0  0  0  0  0  0  0  0  0  0
  144.9765   65.9331  217.9847 H   0  0  0  0  0  0  0  0  0  0  0  0
  144.1337   68.7071  217.1795 H   0  0  0  0  0  0  0  0  0  0  0  0
  143.5425   67.0801  216.6372 H   0  0  0  0  0  0  0  0  0  0  0  0
  141.8247   68.2618  217.9498 H   0  0  0  0  0  0  0  0  0  0  0  0
  142.4149   66.7654  218.7897 H   0  0  0  0  0  0  0  0  0  0  0  0
  139.2718   69.9383  222.2510 H   0  0  0  0  0  0  0  0  0  0  0  0
  139.0914   68.3729  224.1940 H   0  0  0  0  0  0  0  0  0  0  0  0
  139.4793   67.9139  226.5920 H   0  0  0  0  0  0  0  0  0  0  0  0
  141.3515   70.9359  229.0616 H   0  0  0  0  0  0  0  0  0  0  0  0
  141.5321   72.4524  227.0852 H   0  0  0  0  0  0  0  0  0  0  0  0
  1  2  2  0
  2  3  1  0
  3  4  1  0
  4  5  1  0
  5  6  2  0
  5  7  1  0
  7  8  1  0
  8  9  1  0
  9 10  1  0
  9 11  1  0
 11 12  1  0
 12 13  1  0
 13 14  2  0
 13 15  1  0
 15 16  1  0
 16 17  1  0
 17 18  1  0
 18 19  1  0
 19 20  1  0
 20 21  1  0
  2 22  1  0
 22 23  2  0
 23 24  1  0
 24 25  2  0
 25 26  1  0
 26 27  2  0
 27 28  1  0
 27 29  1  0
 29 30  2  0
 30 31  1  0
 31 32  2  0
 12  7  1  0
 21 16  1  0
 32 22  1  0
 31 25  1  0
  3 33  1  0
  4 34  1  0
  4 35  1  0
  8 36  1  0
  8 37  1  0
  9 38  1  1
 10 39  1  0
 11 40  1  0
 11 41  1  0
 12 42  1  6
 16 43  1  0
 17 44  1  0
 17 45  1  0
 18 46  1  0
 18 47  1  0
 19 48  1  0
 19 49  1  0
 20 50  1  0
 20 51  1  0
 21 52  1  0
 21 53  1  0
 23 54  1  0
 24 55  1  0
 26 56  1  0
 29 57  1  0
 30 58  1  0
M  CHG  1  15  -1
M  END
>  <UniqueID>  (55) 
139

>  <SMILES>  (55) 
O=C(NCC(=O)N1C[C@H](O)C[C@H]1C(=O)[N-]C1CCCCC1)c1ccc2cc(F)ccc2n1

>  <Energy>  (55) 
58.44419743129

>  <Genealogy>  (55) 
O=C(NCC(=O)N1C[C@H](O)C[C@H]1C(=O)[N-]C1CCCCC1)c1ccc2cc(F)ccc2n1 (protonated)
O=C(NCC(=O)N1C[C@H](O)C[C@H]1C(=O)[N-]C1CCCCC1)c1ccc2cc(F)ccc2n1 (3D coordinates assigned)
O=C(NCC(=O)N1C[C@H](O)C[C@H]1C(=O)[N-]C1CCCCC1)c1ccc2cc(F)ccc2n1 (nonaromatic ring conformer: 58.44419743129 kcal/mol)

>  <smiles>  (55) 
O=C(NCC(=O)N1C[C@H](O)C[C@H]1C(=O)NC1CCCCC1)c1ccc2cc(F)ccc2n1

>  <score_type>  (55) 
oracle

>  <origin>  (55) 
autodockgpu

>  <m_score__min__energy>  (55) 
-8.7599999999999998

>  <m_primary>  (55) 
energy

>  <meeko>  (55) 
{"free_energy": -7.46, "intermolecular_energy": -9.85, "internal_energy": -2.74, "cluster_size": 3, "cluster_id": 2, "rank_in_cluster": 3}

>  <energy>  (55) 
-6.74

>  <cluster_rmsd>  (55) 
1.94

>  <rmsd>  (55) 
271.9

>  <cluster>  (55) 
3

$$$$
YMXDKILJCZTOEU-UDRLWISANA-M
     RDKit          3D

 58 61  0  0  0  0  0  0  0  0999 V2000
  138.7460   73.3350  220.9880 O   0  0  0  0  0  0  0  0  0  0  0  0
  139.7410   73.0670  221.7170 C   0  0  0  0  0  0  0  0  0  0  0  0
  141.0200   73.6650  221.4410 N   0  0  0  0  0  0  0  0  0  0  0  0
  141.2390   74.6130  220.3520 C   0  0  0  0  0  0  0  0  0  0  0  0
  141.0120   76.0200  220.8320 C   0  0  0  0  0  0  0  0  0  0  0  0
  141.9520   76.8530  220.7080 O   0  0  0  0  0  0  0  0  0  0  0  0
  139.7680   76.4370  221.4270 N   0  0  0  0  0  0  0  0  0  0  0  0
  139.3420   75.9410  222.7300 C   0  0  0  0  0  0  0  0  0  0  0  0
  137.8370   76.1940  222.7970 C   0  0  2  0  0  0  0  0  0  0  0  0
  137.1330   75.0370  222.4250 O   0  0  0  0  0  0  0  0  0  0  0  0
  137.5740   77.2970  221.7730 C   0  0  0  0  0  0  0  0  0  0  0  0
  138.7240   77.2130  220.7670 C   0  0  1  0  0  0  0  0  0  0  0  0
  139.2220   78.5840  220.4100 C   0  0  0  0  0  0  0  0  0  0  0  0
  139.9780   78.7320  219.4100 O   0  0  0  0  0  0  0  0  0  0  0  0
  138.8220   79.7150  221.1920 N   0  0  0  0  0  0  0  0  0  0  0  0
  139.7050   80.4010  222.1350 C   0  0  0  0  0  0  0  0  0  0  0  0
  141.0160   80.7740  221.4080 C   0  0  0  0  0  0  0  0  0  0  0  0
  142.1940   80.8870  222.3800 C   0  0  0  0  0  0  0  0  0  0  0  0
  142.4680   79.5460  223.0950 C   0  0  0  0  0  0  0  0  0  0  0  0
  141.2070   78.6740  223.2690 C   0  0  0  0  0  0  0  0  0  0  0  0
  139.9390   79.5240  223.3930 C   0  0  0  0  0  0  0  0  0  0  0  0
  139.5900   72.1320  222.8520 C   0  0  0  0  0  0  0  0  0  0  0  0
  138.6350   71.1000  222.8180 C   0  0  0  0  0  0  0  0  0  0  0  0
  138.5180   70.2280  223.9040 C   0  0  0  0  0  0  0  0  0  0  0  0
  139.3480   70.3910  225.0210 C   0  0  0  0  0  0  0  0  0  0  0  0
  139.2570   69.5370  226.1290 C   0  0  0  0  0  0  0  0  0  0  0  0
  140.0990   69.7260  227.2300 C   0  0  0  0  0  0  0  0  0  0  0  0
  140.0050   68.9020  228.3060 F   0  0  0  0  0  0  0  0  0  0  0  0
  141.0400   70.7620  227.2270 C   0  0  0  0  0  0  0  0  0  0  0  0
  141.1430   71.6150  226.1220 C   0  0  0  0  0  0  0  0  0  0  0  0
  140.2980   71.4370  225.0200 C   0  0  0  0  0  0  0  0  0  0  0  0
  140.3910   72.2660  223.9470 N   0  0  0  0  0  0  0  0  0  0  0  0
  141.8170   73.4750  222.0860 H   0  0  0  0  0  0  0  0  0  0  0  0
  142.2727   74.5158  219.9885 H   0  0  0  0  0  0  0  0  0  0  0  0
  140.5316   74.3937  219.5387 H   0  0  0  0  0  0  0  0  0  0  0  0
  139.5544   74.8654  222.8191 H   0  0  0  0  0  0  0  0  0  0  0  0
  139.8751   76.4443  223.5500 H   0  0  0  0  0  0  0  0  0  0  0  0
  137.5139   76.4711  223.8113 H   0  0  0  0  0  0  0  0  0  0  0  0
  137.7020   74.2650  222.6850 H   0  0  0  0  0  0  0  0  0  0  0  0
  136.6107   77.1301  221.2688 H   0  0  0  0  0  0  0  0  0  0  0  0
  137.5228   78.2876  222.2484 H   0  0  0  0  0  0  0  0  0  0  0  0
  138.4046   76.7424  219.8254 H   0  0  0  0  0  0  0  0  0  0  0  0
  139.2403   81.3318  222.4923 H   0  0  0  0  0  0  0  0  0  0  0  0
  141.2429   79.9976  220.6626 H   0  0  0  0  0  0  0  0  0  0  0  0
  140.8738   81.7537  220.9284 H   0  0  0  0  0  0  0  0  0  0  0  0
  143.0928   81.1834  221.8195 H   0  0  0  0  0  0  0  0  0  0  0  0
  141.9420   81.6393  223.1419 H   0  0  0  0  0  0  0  0  0  0  0  0
  143.2040   78.9804  222.5047 H   0  0  0  0  0  0  0  0  0  0  0  0
  142.8380   79.7856  224.1028 H   0  0  0  0  0  0  0  0  0  0  0  0
  141.1082   78.0129  222.3954 H   0  0  0  0  0  0  0  0  0  0  0  0
  141.3197   78.0918  224.1954 H   0  0  0  0  0  0  0  0  0  0  0  0
  139.0750   78.8564  223.5268 H   0  0  0  0  0  0  0  0  0  0  0  0
  140.0606   80.1934  224.2574 H   0  0  0  0  0  0  0  0  0  0  0  0
  137.9829   70.9797  221.9403 H   0  0  0  0  0  0  0  0  0  0  0  0
  137.7763   69.4160  223.8818 H   0  0  0  0  0  0  0  0  0  0  0  0
  138.5230   68.7177  226.1326 H   0  0  0  0  0  0  0  0  0  0  0  0
  141.7001   70.9062  228.0950 H   0  0  0  0  0  0  0  0  0  0  0  0
  141.8875   72.4248  226.1194 H   0  0  0  0  0  0  0  0  0  0  0  0
  1  2  2  0
  2  3  1  0
  3  4  1  0
  4  5  1  0
  5  6  2  0
  5  7  1  0
  7  8  1  0
  8  9  1  0
  9 10  1  0
  9 11  1  0
 11 12  1  0
 12 13  1  0
 13 14  2  0
 13 15  1  0
 15 16  1  0
 16 17  1  0
 17 18  1  0
 18 19  1  0
 19 20  1  0
 20 21  1  0
  2 22  1  0
 22 23  2  0
 23 24  1  0
 24 25  2  0
 25 26  1  0
 26 27  2  0
 27 28  1  0
 27 29  1  0
 29 30  2  0
 30 31  1  0
 31 32  2  0
 12  7  1  0
 21 16  1  0
 32 22  1  0
 31 25  1  0
  3 33  1  0
  4 34  1  0
  4 35  1  0
  8 36  1  0
  8 37  1  0
  9 38  1  1
 10 39  1  0
 11 40  1  0
 11 41  1  0
 12 42  1  6
 16 43  1  0
 17 44  1  0
 17 45  1  0
 18 46  1  0
 18 47  1  0
 19 48  1  0
 19 49  1  0
 20 50  1  0
 20 51  1  0
 21 52  1  0
 21 53  1  0
 23 54  1  0
 24 55  1  0
 26 56  1  0
 29 57  1  0
 30 58  1  0
M  CHG  1  15  -1
M  END
>  <UniqueID>  (56) 
139

>  <SMILES>  (56) 
O=C(NCC(=O)N1C[C@H](O)C[C@H]1C(=O)[N-]C1CCCCC1)c1ccc2cc(F)ccc2n1

>  <Energy>  (56) 
58.44419743129

>  <Genealogy>  (56) 
O=C(NCC(=O)N1C[C@H](O)C[C@H]1C(=O)[N-]C1CCCCC1)c1ccc2cc(F)ccc2n1 (protonated)
O=C(NCC(=O)N1C[C@H](O)C[C@H]1C(=O)[N-]C1CCCCC1)c1ccc2cc(F)ccc2n1 (3D coordinates assigned)
O=C(NCC(=O)N1C[C@H](O)C[C@H]1C(=O)[N-]C1CCCCC1)c1ccc2cc(F)ccc2n1 (nonaromatic ring conformer: 58.44419743129 kcal/mol)

>  <smiles>  (56) 
O=C(NCC(=O)N1C[C@H](O)C[C@H]1C(=O)NC1CCCCC1)c1ccc2cc(F)ccc2n1

>  <score_type>  (56) 
oracle

>  <origin>  (56) 
autodockgpu

>  <m_score__min__energy>  (56) 
-8.7599999999999998

>  <m_primary>  (56) 
energy

>  <meeko>  (56) 
{"free_energy": -6.28, "intermolecular_energy": -8.66, "internal_energy": -3.12, "cluster_size": 9, "cluster_id": 1, "rank_in_cluster": 9}

>  <energy>  (56) 
-7.03

>  <cluster_rmsd>  (56) 
0.0

>  <rmsd>  (56) 
271.82

>  <cluster>  (56) 
4

$$$$
YMXDKILJCZTOEU-UDRLWISANA-M
     RDKit          3D

 58 61  0  0  0  0  0  0  0  0999 V2000
  136.6560   75.7330  221.3320 O   0  0  0  0  0  0  0  0  0  0  0  0
  137.7170   75.3980  221.9280 C   0  0  0  0  0  0  0  0  0  0  0  0
  137.9220   74.0290  222.3210 N   0  0  0  0  0  0  0  0  0  0  0  0
  136.9610   72.9650  222.0400 C   0  0  0  0  0  0  0  0  0  0  0  0
  137.5290   72.0010  221.0360 C   0  0  0  0  0  0  0  0  0  0  0  0
  136.7440   71.1860  220.4790 O   0  0  0  0  0  0  0  0  0  0  0  0
  138.9300   71.9780  220.7010 N   0  0  0  0  0  0  0  0  0  0  0  0
  139.4360   72.6150  219.4920 C   0  0  0  0  0  0  0  0  0  0  0  0
  140.8040   71.9850  219.2340 C   0  0  2  0  0  0  0  0  0  0  0  0
  140.6870   70.9340  218.3100 O   0  0  0  0  0  0  0  0  0  0  0  0
  141.2440   71.4240  220.5840 C   0  0  0  0  0  0  0  0  0  0  0  0
  139.9560   71.1920  221.3780 C   0  0  1  0  0  0  0  0  0  0  0  0
  140.1190   71.6370  222.8020 C   0  0  0  0  0  0  0  0  0  0  0  0
  140.2200   72.8670  223.0640 O   0  0  0  0  0  0  0  0  0  0  0  0
  140.1400   70.6660  223.8560 N   0  0  0  0  0  0  0  0  0  0  0  0
  139.6910   70.9410  225.2200 C   0  0  0  0  0  0  0  0  0  0  0  0
  140.8450   71.6140  225.9970 C   0  0  0  0  0  0  0  0  0  0  0  0
  140.7400   71.3610  227.5030 C   0  0  0  0  0  0  0  0  0  0  0  0
  140.8240   69.8550  227.8330 C   0  0  0  0  0  0  0  0  0  0  0  0
  140.2860   68.9490  226.7050 C   0  0  0  0  0  0  0  0  0  0  0  0
  139.1850   69.6400  225.8960 C   0  0  0  0  0  0  0  0  0  0  0  0
  138.7450   76.4160  222.2270 C   0  0  0  0  0  0  0  0  0  0  0  0
  140.1110   76.1460  222.0320 C   0  0  0  0  0  0  0  0  0  0  0  0
  141.0610   77.1300  222.3190 C   0  0  0  0  0  0  0  0  0  0  0  0
  140.6460   78.3770  222.8030 C   0  0  0  0  0  0  0  0  0  0  0  0
  141.5710   79.3880  223.1040 C   0  0  0  0  0  0  0  0  0  0  0  0
  141.1270   80.6230  223.5870 C   0  0  0  0  0  0  0  0  0  0  0  0
  142.0240   81.5980  223.8840 F   0  0  0  0  0  0  0  0  0  0  0  0
  139.7580   80.8580  223.7650 C   0  0  0  0  0  0  0  0  0  0  0  0
  138.8280   79.8580  223.4610 C   0  0  0  0  0  0  0  0  0  0  0  0
  139.2660   78.6160  222.9840 C   0  0  0  0  0  0  0  0  0  0  0  0
  138.3660   77.6400  222.6930 N   0  0  0  0  0  0  0  0  0  0  0  0
  138.8280   73.7590  222.7630 H   0  0  0  0  0  0  0  0  0  0  0  0
  136.7332   72.4264  222.9717 H   0  0  0  0  0  0  0  0  0  0  0  0
  136.0434   73.4109  221.6286 H   0  0  0  0  0  0  0  0  0  0  0  0
  138.7598   72.4234  218.6458 H   0  0  0  0  0  0  0  0  0  0  0  0
  139.5071   73.7066  219.6077 H   0  0  0  0  0  0  0  0  0  0  0  0
  141.5191   72.7138  218.8247 H   0  0  0  0  0  0  0  0  0  0  0  0
  139.9620   70.3420  218.6450 H   0  0  0  0  0  0  0  0  0  0  0  0
  141.7857   70.4765  220.4471 H   0  0  0  0  0  0  0  0  0  0  0  0
  141.9239   72.1128  221.1069 H   0  0  0  0  0  0  0  0  0  0  0  0
  139.6892   70.1255  221.4146 H   0  0  0  0  0  0  0  0  0  0  0  0
  138.8374   71.6348  225.2133 H   0  0  0  0  0  0  0  0  0  0  0  0
  141.8017   71.2102  225.6340 H   0  0  0  0  0  0  0  0  0  0  0  0
  140.7840   72.6992  225.8276 H   0  0  0  0  0  0  0  0  0  0  0  0
  141.5633   71.8844  228.0113 H   0  0  0  0  0  0  0  0  0  0  0  0
  139.7647   71.7351  227.8478 H   0  0  0  0  0  0  0  0  0  0  0  0
  141.8775   69.5963  228.0154 H   0  0  0  0  0  0  0  0  0  0  0  0
  140.1938   69.6809  228.7176 H   0  0  0  0  0  0  0  0  0  0  0  0
  141.1151   68.6909  226.0298 H   0  0  0  0  0  0  0  0  0  0  0  0
  139.8562   68.0477  227.1665 H   0  0  0  0  0  0  0  0  0  0  0  0
  138.8303   68.9495  225.1166 H   0  0  0  0  0  0  0  0  0  0  0  0
  138.3733   69.9097  226.5876 H   0  0  0  0  0  0  0  0  0  0  0  0
  140.4309   75.1635  221.6548 H   0  0  0  0  0  0  0  0  0  0  0  0
  142.1309   76.9258  222.1653 H   0  0  0  0  0  0  0  0  0  0  0  0
  142.6467   79.2090  222.9599 H   0  0  0  0  0  0  0  0  0  0  0  0
  139.4131   81.8311  224.1447 H   0  0  0  0  0  0  0  0  0  0  0  0
  137.7529   80.0471  223.5966 H   0  0  0  0  0  0  0  0  0  0  0  0
  1  2  2  0
  2  3  1  0
  3  4  1  0
  4  5  1  0
  5  6  2  0
  5  7  1  0
  7  8  1  0
  8  9  1  0
  9 10  1  0
  9 11  1  0
 11 12  1  0
 12 13  1  0
 13 14  2  0
 13 15  1  0
 15 16  1  0
 16 17  1  0
 17 18  1  0
 18 19  1  0
 19 20  1  0
 20 21  1  0
  2 22  1  0
 22 23  2  0
 23 24  1  0
 24 25  2  0
 25 26  1  0
 26 27  2  0
 27 28  1  0
 27 29  1  0
 29 30  2  0
 30 31  1  0
 31 32  2  0
 12  7  1  0
 21 16  1  0
 32 22  1  0
 31 25  1  0
  3 33  1  0
  4 34  1  0
  4 35  1  0
  8 36  1  0
  8 37  1  0
  9 38  1  6
 10 39  1  0
 11 40  1  0
 11 41  1  0
 12 42  1  1
 16 43  1  0
 17 44  1  0
 17 45  1  0
 18 46  1  0
 18 47  1  0
 19 48  1  0
 19 49  1  0
 20 50  1  0
 20 51  1  0
 21 52  1  0
 21 53  1  0
 23 54  1  0
 24 55  1  0
 26 56  1  0
 29 57  1  0
 30 58  1  0
M  CHG  1  15  -1
M  END
>  <UniqueID>  (57) 
139

>  <SMILES>  (57) 
O=C(NCC(=O)N1C[C@H](O)C[C@H]1C(=O)[N-]C1CCCCC1)c1ccc2cc(F)ccc2n1

>  <Energy>  (57) 
58.44419743129

>  <Genealogy>  (57) 
O=C(NCC(=O)N1C[C@H](O)C[C@H]1C(=O)[N-]C1CCCCC1)c1ccc2cc(F)ccc2n1 (protonated)
O=C(NCC(=O)N1C[C@H](O)C[C@H]1C(=O)[N-]C1CCCCC1)c1ccc2cc(F)ccc2n1 (3D coordinates assigned)
O=C(NCC(=O)N1C[C@H](O)C[C@H]1C(=O)[N-]C1CCCCC1)c1ccc2cc(F)ccc2n1 (nonaromatic ring conformer: 58.44419743129 kcal/mol)

>  <smiles>  (57) 
O=C(NCC(=O)N1C[C@H](O)C[C@H]1C(=O)NC1CCCCC1)c1ccc2cc(F)ccc2n1

>  <score_type>  (57) 
oracle

>  <origin>  (57) 
autodockgpu

>  <m_score__min__energy>  (57) 
-8.7599999999999998

>  <m_primary>  (57) 
energy

>  <meeko>  (57) 
{"free_energy": -6.74, "intermolecular_energy": -9.12, "internal_energy": -2.64, "cluster_size": 3, "cluster_id": 3, "rank_in_cluster": 3}

>  <energy>  (57) 
-6.8

>  <cluster_rmsd>  (57) 
0.83

>  <rmsd>  (57) 
271.9

>  <cluster>  (57) 
4

$$$$
YMXDKILJCZTOEU-UDRLWISANA-M
     RDKit          3D

 58 61  0  0  0  0  0  0  0  0999 V2000
  140.6940   71.9000  221.2180 O   0  0  0  0  0  0  0  0  0  0  0  0
  140.0270   72.2280  222.2390 C   0  0  0  0  0  0  0  0  0  0  0  0
  139.3100   73.4750  222.2620 N   0  0  0  0  0  0  0  0  0  0  0  0
  139.2830   74.4010  221.1340 C   0  0  0  0  0  0  0  0  0  0  0  0
  140.0170   75.6660  221.4810 C   0  0  0  0  0  0  0  0  0  0  0  0
  139.8170   76.1830  222.6140 O   0  0  0  0  0  0  0  0  0  0  0  0
  140.9290   76.3010  220.5630 N   0  0  0  0  0  0  0  0  0  0  0  0
  141.7700   75.5230  219.6630 C   0  0  0  0  0  0  0  0  0  0  0  0
  142.8950   76.4640  219.2310 C   0  0  2  0  0  0  0  0  0  0  0  0
  144.0300   76.2620  220.0330 O   0  0  0  0  0  0  0  0  0  0  0  0
  142.3500   77.8700  219.4700 C   0  0  0  0  0  0  0  0  0  0  0  0
  141.2680   77.7200  220.5420 C   0  0  1  0  0  0  0  0  0  0  0  0
  140.0640   78.5530  220.2060 C   0  0  0  0  0  0  0  0  0  0  0  0
  139.7420   78.7250  218.9980 O   0  0  0  0  0  0  0  0  0  0  0  0
  139.2800   79.1300  221.2570 N   0  0  0  0  0  0  0  0  0  0  0  0
  139.8130   80.0640  222.2470 C   0  0  0  0  0  0  0  0  0  0  0  0
  141.0150   80.8120  221.6280 C   0  0  0  0  0  0  0  0  0  0  0  0
  142.0000   81.2920  222.6980 C   0  0  0  0  0  0  0  0  0  0  0  0
  142.5960   80.1080  223.4900 C   0  0  0  0  0  0  0  0  0  0  0  0
  141.6480   78.8930  223.5850 C   0  0  0  0  0  0  0  0  0  0  0  0
  140.1770   79.3150  223.5560 C   0  0  0  0  0  0  0  0  0  0  0  0
  139.9890   71.3290  223.4120 C   0  0  0  0  0  0  0  0  0  0  0  0
  139.4450   70.0360  223.3170 C   0  0  0  0  0  0  0  0  0  0  0  0
  139.4270   69.2070  224.4420 C   0  0  0  0  0  0  0  0  0  0  0  0
  139.9470   69.6710  225.6570 C   0  0  0  0  0  0  0  0  0  0  0  0
  139.9440   68.8680  226.8070 C   0  0  0  0  0  0  0  0  0  0  0  0
  140.4690   69.3600  228.0070 C   0  0  0  0  0  0  0  0  0  0  0  0
  140.4590   68.5830  229.1210 F   0  0  0  0  0  0  0  0  0  0  0  0
  141.0060   70.6510  228.0630 C   0  0  0  0  0  0  0  0  0  0  0  0
  141.0200   71.4570  226.9190 C   0  0  0  0  0  0  0  0  0  0  0  0
  140.4890   70.9750  225.7160 C   0  0  0  0  0  0  0  0  0  0  0  0
  140.4960   71.7560  224.6040 N   0  0  0  0  0  0  0  0  0  0  0  0
  138.7190   73.7040  223.0920 H   0  0  0  0  0  0  0  0  0  0  0  0
  139.7644   73.9287  220.2650 H   0  0  0  0  0  0  0  0  0  0  0  0
  138.2373   74.6470  220.8975 H   0  0  0  0  0  0  0  0  0  0  0  0
  142.1821   74.6467  220.1848 H   0  0  0  0  0  0  0  0  0  0  0  0
  141.2014   75.1468  218.7997 H   0  0  0  0  0  0  0  0  0  0  0  0
  143.1898   76.2966  218.1845 H   0  0  0  0  0  0  0  0  0  0  0  0
  144.2440   77.1400  220.4450 H   0  0  0  0  0  0  0  0  0  0  0  0
  143.1505   78.5362  219.8240 H   0  0  0  0  0  0  0  0  0  0  0  0
  141.9470   78.3109  218.5463 H   0  0  0  0  0  0  0  0  0  0  0  0
  141.6212   78.0657  221.5248 H   0  0  0  0  0  0  0  0  0  0  0  0
  139.0538   80.8112  222.5214 H   0  0  0  0  0  0  0  0  0  0  0  0
  141.5402   80.1335  220.9396 H   0  0  0  0  0  0  0  0  0  0  0  0
  140.6307   81.6953  221.0969 H   0  0  0  0  0  0  0  0  0  0  0  0
  142.8173   81.8432  222.2100 H   0  0  0  0  0  0  0  0  0  0  0  0
  141.4567   81.9396  223.4018 H   0  0  0  0  0  0  0  0  0  0  0  0
  143.5237   79.7881  222.9930 H   0  0  0  0  0  0  0  0  0  0  0  0
  142.7739   80.4614  224.5164 H   0  0  0  0  0  0  0  0  0  0  0  0
  141.8427   78.2224  222.7351 H   0  0  0  0  0  0  0  0  0  0  0  0
  141.8387   78.3850  224.5418 H   0  0  0  0  0  0  0  0  0  0  0  0
  139.5480   78.4163  223.6376 H   0  0  0  0  0  0  0  0  0  0  0  0
  140.0033   80.0000  224.3990 H   0  0  0  0  0  0  0  0  0  0  0  0
  139.0352   69.6783  222.3609 H   0  0  0  0  0  0  0  0  0  0  0  0
  139.0057   68.1932  224.3735 H   0  0  0  0  0  0  0  0  0  0  0  0
  139.5285   67.8504  226.7654 H   0  0  0  0  0  0  0  0  0  0  0  0
  141.4181   71.0333  229.0085 H   0  0  0  0  0  0  0  0  0  0  0  0
  141.4481   72.4692  226.9647 H   0  0  0  0  0  0  0  0  0  0  0  0
  1  2  2  0
  2  3  1  0
  3  4  1  0
  4  5  1  0
  5  6  2  0
  5  7  1  0
  7  8  1  0
  8  9  1  0
  9 10  1  0
  9 11  1  0
 11 12  1  0
 12 13  1  0
 13 14  2  0
 13 15  1  0
 15 16  1  0
 16 17  1  0
 17 18  1  0
 18 19  1  0
 19 20  1  0
 20 21  1  0
  2 22  1  0
 22 23  2  0
 23 24  1  0
 24 25  2  0
 25 26  1  0
 26 27  2  0
 27 28  1  0
 27 29  1  0
 29 30  2  0
 30 31  1  0
 31 32  2  0
 12  7  1  0
 21 16  1  0
 32 22  1  0
 31 25  1  0
  3 33  1  0
  4 34  1  0
  4 35  1  0
  8 36  1  0
  8 37  1  0
  9 38  1  6
 10 39  1  0
 11 40  1  0
 11 41  1  0
 12 42  1  1
 16 43  1  0
 17 44  1  0
 17 45  1  0
 18 46  1  0
 18 47  1  0
 19 48  1  0
 19 49  1  0
 20 50  1  0
 20 51  1  0
 21 52  1  0
 21 53  1  0
 23 54  1  0
 24 55  1  0
 26 56  1  0
 29 57  1  0
 30 58  1  0
M  CHG  1  15  -1
M  END
>  <UniqueID>  (58) 
139

>  <SMILES>  (58) 
O=C(NCC(=O)N1C[C@H](O)C[C@H]1C(=O)[N-]C1CCCCC1)c1ccc2cc(F)ccc2n1

>  <Energy>  (58) 
58.44419743129

>  <Genealogy>  (58) 
O=C(NCC(=O)N1C[C@H](O)C[C@H]1C(=O)[N-]C1CCCCC1)c1ccc2cc(F)ccc2n1 (protonated)
O=C(NCC(=O)N1C[C@H](O)C[C@H]1C(=O)[N-]C1CCCCC1)c1ccc2cc(F)ccc2n1 (3D coordinates assigned)
O=C(NCC(=O)N1C[C@H](O)C[C@H]1C(=O)[N-]C1CCCCC1)c1ccc2cc(F)ccc2n1 (nonaromatic ring conformer: 58.44419743129 kcal/mol)

>  <smiles>  (58) 
O=C(NCC(=O)N1C[C@H](O)C[C@H]1C(=O)NC1CCCCC1)c1ccc2cc(F)ccc2n1

>  <score_type>  (58) 
oracle

>  <origin>  (58) 
autodockgpu

>  <m_score__min__energy>  (58) 
-8.7599999999999998

>  <m_primary>  (58) 
energy

>  <meeko>  (58) 
{"free_energy": -8.54, "intermolecular_energy": -10.93, "internal_energy": -1.94, "cluster_size": 9, "cluster_id": 1, "rank_in_cluster": 2}

>  <energy>  (58) 
-6.46

>  <cluster_rmsd>  (58) 
0.0

>  <rmsd>  (58) 
272.02

>  <cluster>  (58) 
5

$$$$
YMXDKILJCZTOEU-UDRLWISANA-M
     RDKit          3D

 58 61  0  0  0  0  0  0  0  0999 V2000
  139.9110   73.6710  222.3910 O   0  0  0  0  0  0  0  0  0  0  0  0
  140.3360   72.4870  222.2780 C   0  0  0  0  0  0  0  0  0  0  0  0
  140.9510   72.0560  221.0510 N   0  0  0  0  0  0  0  0  0  0  0  0
  141.1440   72.9360  219.9030 C   0  0  0  0  0  0  0  0  0  0  0  0
  142.4550   73.6640  220.0190 C   0  0  0  0  0  0  0  0  0  0  0  0
  142.4360   74.9250  220.0700 O   0  0  0  0  0  0  0  0  0  0  0  0
  143.7170   72.9710  220.0670 N   0  0  0  0  0  0  0  0  0  0  0  0
  144.8010   73.4220  220.9300 C   0  0  0  0  0  0  0  0  0  0  0  0
  146.0700   72.7810  220.3690 C   0  0  2  0  0  0  0  0  0  0  0  0
  146.7320   73.6800  219.5180 O   0  0  0  0  0  0  0  0  0  0  0  0
  145.5840   71.5820  219.5580 C   0  0  0  0  0  0  0  0  0  0  0  0
  144.1380   71.9010  219.1690 C   0  0  1  0  0  0  0  0  0  0  0  0
  143.2620   70.6930  219.3280 C   0  0  0  0  0  0  0  0  0  0  0  0
  142.7990   70.4020  220.4660 O   0  0  0  0  0  0  0  0  0  0  0  0
  142.9420   69.8880  218.1870 N   0  0  0  0  0  0  0  0  0  0  0  0
  143.5120   68.5630  217.9440 C   0  0  0  0  0  0  0  0  0  0  0  0
  143.3700   67.7170  219.2290 C   0  0  0  0  0  0  0  0  0  0  0  0
  144.4430   66.6280  219.3150 C   0  0  0  0  0  0  0  0  0  0  0  0
  145.8620   67.2340  219.3580 C   0  0  0  0  0  0  0  0  0  0  0  0
  145.9760   68.5850  218.6210 C   0  0  0  0  0  0  0  0  0  0  0  0
  144.9810   68.6870  217.4610 C   0  0  0  0  0  0  0  0  0  0  0  0
  140.1940   71.5440  223.4080 C   0  0  0  0  0  0  0  0  0  0  0  0
  139.5820   70.2900  223.2330 C   0  0  0  0  0  0  0  0  0  0  0  0
  139.4660   69.4180  224.3180 C   0  0  0  0  0  0  0  0  0  0  0  0
  139.9560   69.8000  225.5740 C   0  0  0  0  0  0  0  0  0  0  0  0
  139.8540   68.9510  226.6860 C   0  0  0  0  0  0  0  0  0  0  0  0
  140.3520   69.3610  227.9270 C   0  0  0  0  0  0  0  0  0  0  0  0
  140.2470   68.5410  229.0050 F   0  0  0  0  0  0  0  0  0  0  0  0
  140.9590   70.6150  228.0630 C   0  0  0  0  0  0  0  0  0  0  0  0
  141.0710   71.4660  226.9570 C   0  0  0  0  0  0  0  0  0  0  0  0
  140.5680   71.0660  225.7130 C   0  0  0  0  0  0  0  0  0  0  0  0
  140.6690   71.8910  224.6370 N   0  0  0  0  0  0  0  0  0  0  0  0
  141.3450   71.0910  220.9940 H   0  0  0  0  0  0  0  0  0  0  0  0
  141.1424   72.3358  218.9812 H   0  0  0  0  0  0  0  0  0  0  0  0
  140.3269   73.6719  219.8745 H   0  0  0  0  0  0  0  0  0  0  0  0
  144.8813   74.5187  220.9036 H   0  0  0  0  0  0  0  0  0  0  0  0
  144.6310   73.1361  221.9785 H   0  0  0  0  0  0  0  0  0  0  0  0
  146.7715   72.4965  221.1671 H   0  0  0  0  0  0  0  0  0  0  0  0
  146.1050   74.4360  219.3630 H   0  0  0  0  0  0  0  0  0  0  0  0
  146.2031   71.4518  218.6581 H   0  0  0  0  0  0  0  0  0  0  0  0
  145.6517   70.6481  220.1353 H   0  0  0  0  0  0  0  0  0  0  0  0
  144.0600   72.2037  218.1143 H   0  0  0  0  0  0  0  0  0  0  0  0
  142.9663   68.0491  217.1389 H   0  0  0  0  0  0  0  0  0  0  0  0
  143.4634   68.3786  220.1029 H   0  0  0  0  0  0  0  0  0  0  0  0
  142.3859   67.2261  219.2078 H   0  0  0  0  0  0  0  0  0  0  0  0
  144.2793   66.0362  220.2277 H   0  0  0  0  0  0  0  0  0  0  0  0
  144.3650   65.9952  218.4187 H   0  0  0  0  0  0  0  0  0  0  0  0
  146.1440   67.3864  220.4103 H   0  0  0  0  0  0  0  0  0  0  0  0
  146.5315   66.5278  218.8452 H   0  0  0  0  0  0  0  0  0  0  0  0
  145.7752   69.3977  219.3346 H   0  0  0  0  0  0  0  0  0  0  0  0
  146.9922   68.6636  218.2072 H   0  0  0  0  0  0  0  0  0  0  0  0
  145.1112   69.6605  216.9658 H   0  0  0  0  0  0  0  0  0  0  0  0
  145.1819   67.8578  216.7666 H   0  0  0  0  0  0  0  0  0  0  0  0
  139.1961   69.9970  222.2455 H   0  0  0  0  0  0  0  0  0  0  0  0
  138.9914   68.4343  224.1869 H   0  0  0  0  0  0  0  0  0  0  0  0
  139.3823   67.9627  226.5820 H   0  0  0  0  0  0  0  0  0  0  0  0
  141.3490   70.9326  229.0413 H   0  0  0  0  0  0  0  0  0  0  0  0
  141.5539   72.4484  227.0652 H   0  0  0  0  0  0  0  0  0  0  0  0
  1  2  2  0
  2  3  1  0
  3  4  1  0
  4  5  1  0
  5  6  2  0
  5  7  1  0
  7  8  1  0
  8  9  1  0
  9 10  1  0
  9 11  1  0
 11 12  1  0
 12 13  1  0
 13 14  2  0
 13 15  1  0
 15 16  1  0
 16 17  1  0
 17 18  1  0
 18 19  1  0
 19 20  1  0
 20 21  1  0
  2 22  1  0
 22 23  2  0
 23 24  1  0
 24 25  2  0
 25 26  1  0
 26 27  2  0
 27 28  1  0
 27 29  1  0
 29 30  2  0
 30 31  1  0
 31 32  2  0
 12  7  1  0
 21 16  1  0
 32 22  1  0
 31 25  1  0
  3 33  1  0
  4 34  1  0
  4 35  1  0
  8 36  1  0
  8 37  1  0
  9 38  1  1
 10 39  1  0
 11 40  1  0
 11 41  1  0
 12 42  1  6
 16 43  1  0
 17 44  1  0
 17 45  1  0
 18 46  1  0
 18 47  1  0
 19 48  1  0
 19 49  1  0
 20 50  1  0
 20 51  1  0
 21 52  1  0
 21 53  1  0
 23 54  1  0
 24 55  1  0
 26 56  1  0
 29 57  1  0
 30 58  1  0
M  CHG  1  15  -1
M  END
>  <UniqueID>  (59) 
139

>  <SMILES>  (59) 
O=C(NCC(=O)N1C[C@H](O)C[C@H]1C(=O)[N-]C1CCCCC1)c1ccc2cc(F)ccc2n1

>  <Energy>  (59) 
58.44419743129

>  <Genealogy>  (59) 
O=C(NCC(=O)N1C[C@H](O)C[C@H]1C(=O)[N-]C1CCCCC1)c1ccc2cc(F)ccc2n1 (protonated)
O=C(NCC(=O)N1C[C@H](O)C[C@H]1C(=O)[N-]C1CCCCC1)c1ccc2cc(F)ccc2n1 (3D coordinates assigned)
O=C(NCC(=O)N1C[C@H](O)C[C@H]1C(=O)[N-]C1CCCCC1)c1ccc2cc(F)ccc2n1 (nonaromatic ring conformer: 58.44419743129 kcal/mol)

>  <smiles>  (59) 
O=C(NCC(=O)N1C[C@H](O)C[C@H]1C(=O)NC1CCCCC1)c1ccc2cc(F)ccc2n1

>  <score_type>  (59) 
oracle

>  <origin>  (59) 
autodockgpu

>  <m_score__min__energy>  (59) 
-8.7599999999999998

>  <m_primary>  (59) 
energy

>  <meeko>  (59) 
{"free_energy": -7.98, "intermolecular_energy": -10.37, "internal_energy": -2.53, "cluster_size": 3, "cluster_id": 2, "rank_in_cluster": 2}

>  <energy>  (59) 
-5.64

>  <cluster_rmsd>  (59) 
1.72

>  <rmsd>  (59) 
271.87

>  <cluster>  (59) 
5

$$$$
YMXDKILJCZTOEU-UDRLWISANA-M
     RDKit          3D

 58 61  0  0  0  0  0  0  0  0999 V2000
  139.9810   73.6540  222.3760 O   0  0  0  0  0  0  0  0  0  0  0  0
  140.3270   72.4440  222.2800 C   0  0  0  0  0  0  0  0  0  0  0  0
  140.8970   71.9530  221.0540 N   0  0  0  0  0  0  0  0  0  0  0  0
  141.1310   72.7990  219.8870 C   0  0  0  0  0  0  0  0  0  0  0  0
  142.4390   73.5270  220.0250 C   0  0  0  0  0  0  0  0  0  0  0  0
  142.4140   74.7820  220.1600 O   0  0  0  0  0  0  0  0  0  0  0  0
  143.7060   72.8420  220.0030 N   0  0  0  0  0  0  0  0  0  0  0  0
  144.8220   73.2760  220.8340 C   0  0  0  0  0  0  0  0  0  0  0  0
  146.0710   72.6600  220.2030 C   0  0  2  0  0  0  0  0  0  0  0  0
  146.6920   73.5890  219.3530 O   0  0  0  0  0  0  0  0  0  0  0  0
  145.5590   71.4820  219.3780 C   0  0  0  0  0  0  0  0  0  0  0  0
  144.0970   71.8020  219.0570 C   0  0  1  0  0  0  0  0  0  0  0  0
  143.2360   70.5830  219.2160 C   0  0  0  0  0  0  0  0  0  0  0  0
  142.7960   70.2740  220.3580 O   0  0  0  0  0  0  0  0  0  0  0  0
  142.9040   69.7890  218.0710 N   0  0  0  0  0  0  0  0  0  0  0  0
  143.4790   68.4720  217.8040 C   0  0  0  0  0  0  0  0  0  0  0  0
  143.2000   67.5520  219.0140 C   0  0  0  0  0  0  0  0  0  0  0  0
  144.2460   66.4410  219.1370 C   0  0  0  0  0  0  0  0  0  0  0  0
  145.6620   67.0170  219.3560 C   0  0  0  0  0  0  0  0  0  0  0  0
  145.8640   68.4080  218.7190 C   0  0  0  0  0  0  0  0  0  0  0  0
  144.9900   68.5980  217.4750 C   0  0  0  0  0  0  0  0  0  0  0  0
  140.1410   71.5320  223.4290 C   0  0  0  0  0  0  0  0  0  0  0  0
  139.4600   70.3110  223.2810 C   0  0  0  0  0  0  0  0  0  0  0  0
  139.3020   69.4680  224.3840 C   0  0  0  0  0  0  0  0  0  0  0  0
  139.8210   69.8460  225.6290 C   0  0  0  0  0  0  0  0  0  0  0  0
  139.6790   69.0250  226.7580 C   0  0  0  0  0  0  0  0  0  0  0  0
  140.2070   69.4310  227.9890 C   0  0  0  0  0  0  0  0  0  0  0  0
  140.0640   68.6390  229.0830 F   0  0  0  0  0  0  0  0  0  0  0  0
  140.8820   70.6520  228.0970 C   0  0  0  0  0  0  0  0  0  0  0  0
  141.0340   71.4740  226.9750 C   0  0  0  0  0  0  0  0  0  0  0  0
  140.5020   71.0780  225.7410 C   0  0  0  0  0  0  0  0  0  0  0  0
  140.6420   71.8760  224.6490 N   0  0  0  0  0  0  0  0  0  0  0  0
  141.2290   70.9640  221.0100 H   0  0  0  0  0  0  0  0  0  0  0  0
  141.1581   72.1719  218.9836 H   0  0  0  0  0  0  0  0  0  0  0  0
  140.3176   73.5355  219.8098 H   0  0  0  0  0  0  0  0  0  0  0  0
  144.8947   74.3736  220.8360 H   0  0  0  0  0  0  0  0  0  0  0  0
  144.6969   72.9592  221.8799 H   0  0  0  0  0  0  0  0  0  0  0  0
  146.8065   72.3565  220.9625 H   0  0  0  0  0  0  0  0  0  0  0  0
  146.2110   74.4490  219.4740 H   0  0  0  0  0  0  0  0  0  0  0  0
  146.1418   71.3819  218.4505 H   0  0  0  0  0  0  0  0  0  0  0  0
  145.6550   70.5325  219.9250 H   0  0  0  0  0  0  0  0  0  0  0  0
  143.9744   72.1353  218.0159 H   0  0  0  0  0  0  0  0  0  0  0  0
  143.0094   68.0176  216.9191 H   0  0  0  0  0  0  0  0  0  0  0  0
  143.2141   68.1575  219.9323 H   0  0  0  0  0  0  0  0  0  0  0  0
  142.2170   67.0811  218.8658 H   0  0  0  0  0  0  0  0  0  0  0  0
  143.9858   65.7983  219.9909 H   0  0  0  0  0  0  0  0  0  0  0  0
  144.2493   65.8654  218.1996 H   0  0  0  0  0  0  0  0  0  0  0  0
  145.8410   67.0999  220.4382 H   0  0  0  0  0  0  0  0  0  0  0  0
  146.3702   66.3310  218.8684 H   0  0  0  0  0  0  0  0  0  0  0  0
  145.6028   69.1793  219.4585 H   0  0  0  0  0  0  0  0  0  0  0  0
  146.9170   68.4934  218.4126 H   0  0  0  0  0  0  0  0  0  0  0  0
  145.1805   69.5970  217.0559 H   0  0  0  0  0  0  0  0  0  0  0  0
  145.2484   67.8090  216.7534 H   0  0  0  0  0  0  0  0  0  0  0  0
  139.0533   70.0206  222.3011 H   0  0  0  0  0  0  0  0  0  0  0  0
  138.7717   68.5105  224.2751 H   0  0  0  0  0  0  0  0  0  0  0  0
  139.1528   68.0625  226.6756 H   0  0  0  0  0  0  0  0  0  0  0  0
  141.2944   70.9666  229.0670 H   0  0  0  0  0  0  0  0  0  0  0  0
  141.5707   72.4303  227.0618 H   0  0  0  0  0  0  0  0  0  0  0  0
  1  2  2  0
  2  3  1  0
  3  4  1  0
  4  5  1  0
  5  6  2  0
  5  7  1  0
  7  8  1  0
  8  9  1  0
  9 10  1  0
  9 11  1  0
 11 12  1  0
 12 13  1  0
 13 14  2  0
 13 15  1  0
 15 16  1  0
 16 17  1  0
 17 18  1  0
 18 19  1  0
 19 20  1  0
 20 21  1  0
  2 22  1  0
 22 23  2  0
 23 24  1  0
 24 25  2  0
 25 26  1  0
 26 27  2  0
 27 28  1  0
 27 29  1  0
 29 30  2  0
 30 31  1  0
 31 32  2  0
 12  7  1  0
 21 16  1  0
 32 22  1  0
 31 25  1  0
  3 33  1  0
  4 34  1  0
  4 35  1  0
  8 36  1  0
  8 37  1  0
  9 38  1  1
 10 39  1  0
 11 40  1  0
 11 41  1  0
 12 42  1  6
 16 43  1  0
 17 44  1  0
 17 45  1  0
 18 46  1  0
 18 47  1  0
 19 48  1  0
 19 49  1  0
 20 50  1  0
 20 51  1  0
 21 52  1  0
 21 53  1  0
 23 54  1  0
 24 55  1  0
 26 56  1  0
 29 57  1  0
 30 58  1  0
M  CHG  1  15  -1
M  END
>  <UniqueID>  (60) 
139

>  <SMILES>  (60) 
O=C(NCC(=O)N1C[C@H](O)C[C@H]1C(=O)[N-]C1CCCCC1)c1ccc2cc(F)ccc2n1

>  <Energy>  (60) 
58.44419743129

>  <Genealogy>  (60) 
O=C(NCC(=O)N1C[C@H](O)C[C@H]1C(=O)[N-]C1CCCCC1)c1ccc2cc(F)ccc2n1 (protonated)
O=C(NCC(=O)N1C[C@H](O)C[C@H]1C(=O)[N-]C1CCCCC1)c1ccc2cc(F)ccc2n1 (3D coordinates assigned)
O=C(NCC(=O)N1C[C@H](O)C[C@H]1C(=O)[N-]C1CCCCC1)c1ccc2cc(F)ccc2n1 (nonaromatic ring conformer: 58.44419743129 kcal/mol)

>  <smiles>  (60) 
O=C(NCC(=O)N1C[C@H](O)C[C@H]1C(=O)NC1CCCCC1)c1ccc2cc(F)ccc2n1

>  <score_type>  (60) 
oracle

>  <origin>  (60) 
autodockgpu

>  <m_score__min__energy>  (60) 
-8.7599999999999998

>  <m_primary>  (60) 
energy

>  <meeko>  (60) 
{"free_energy": -8.01, "intermolecular_energy": -10.4, "internal_energy": -2.5, "cluster_size": 3, "cluster_id": 2, "rank_in_cluster": 1}

>  <energy>  (60) 
-5.44

>  <cluster_rmsd>  (60) 
0.0

>  <rmsd>  (60) 
271.76

>  <cluster>  (60) 
6

$$$$
YMXDKILJCZTOEU-DXDCNWIPNA-M
     RDKit          3D

 58 61  0  0  0  0  0  0  0  0999 V2000
  139.1270   73.3860  222.9390 H   0  0  0  0  0  0  0  0  0  0  0  0
  139.5750   74.2410  222.6390 O   0  0  0  0  0  0  0  0  0  0  0  0
  139.7950   74.5830  221.3000 C   0  0  0  0  0  0  0  0  0  0  0  0
  140.4310   75.6880  220.9700 N   0  0  0  0  0  0  0  0  0  0  0  0
  140.9090   75.9890  219.6200 C   0  0  0  0  0  0  0  0  0  0  0  0
  141.6792   75.2642  219.3176 H   0  0  0  0  0  0  0  0  0  0  0  0
  140.0944   75.9286  218.8833 H   0  0  0  0  0  0  0  0  0  0  0  0
  141.5000   77.3940  219.6820 C   0  0  2  0  0  0  0  0  0  0  0  0
  140.8194   78.1466  219.2573 H   0  0  0  0  0  0  0  0  0  0  0  0
  142.6820   77.4720  218.9300 O   0  0  0  0  0  0  0  0  0  0  0  0
  143.4230   77.5810  219.5830 H   0  0  0  0  0  0  0  0  0  0  0  0
  141.7680   77.6510  221.1640 C   0  0  0  0  0  0  0  0  0  0  0  0
  142.8023   77.3794  221.4219 H   0  0  0  0  0  0  0  0  0  0  0  0
  141.6443   78.7120  221.4266 H   0  0  0  0  0  0  0  0  0  0  0  0
  140.7760   76.7570  221.9110 C   0  0  1  0  0  0  0  0  0  0  0  0
  141.2046   76.3597  222.8429 H   0  0  0  0  0  0  0  0  0  0  0  0
  139.5480   77.5380  222.2920 C   0  0  0  0  0  0  0  0  0  0  0  0
  138.4980   76.9300  222.6320 O   0  0  0  0  0  0  0  0  0  0  0  0
  139.5950   78.9680  222.3110 N   0  0  0  0  0  0  0  0  0  0  0  0
  139.9840   79.7630  223.4760 C   0  0  0  0  0  0  0  0  0  0  0  0
  139.2696   79.5899  224.2943 H   0  0  0  0  0  0  0  0  0  0  0  0
  139.9550   81.2620  223.1290 C   0  0  0  0  0  0  0  0  0  0  0  0
  138.9360   81.5343  222.8167 H   0  0  0  0  0  0  0  0  0  0  0  0
  140.2611   81.8232  224.0242 H   0  0  0  0  0  0  0  0  0  0  0  0
  140.9340   81.6120  221.9910 C   0  0  0  0  0  0  0  0  0  0  0  0
  140.4050   81.5072  221.0322 H   0  0  0  0  0  0  0  0  0  0  0  0
  141.2794   82.6414  222.1669 H   0  0  0  0  0  0  0  0  0  0  0  0
  142.1880   80.7120  221.9580 C   0  0  0  0  0  0  0  0  0  0  0  0
  141.9991   79.8627  221.2850 H   0  0  0  0  0  0  0  0  0  0  0  0
  143.0344   81.3178  221.6021 H   0  0  0  0  0  0  0  0  0  0  0  0
  142.5390   80.1740  223.3490 C   0  0  0  0  0  0  0  0  0  0  0  0
  143.4388   79.5461  223.2704 H   0  0  0  0  0  0  0  0  0  0  0  0
  142.7110   81.0342  224.0127 H   0  0  0  0  0  0  0  0  0  0  0  0
  141.3940   79.3310  223.9480 C   0  0  0  0  0  0  0  0  0  0  0  0
  141.5493   78.2810  223.6594 H   0  0  0  0  0  0  0  0  0  0  0  0
  141.4251   79.4783  225.0376 H   0  0  0  0  0  0  0  0  0  0  0  0
  139.2330   73.6370  220.2710 C   0  0  0  0  0  0  0  0  0  0  0  0
  140.0426   73.2839  219.6153 H   0  0  0  0  0  0  0  0  0  0  0  0
  138.4754   74.1574  219.6667 H   0  0  0  0  0  0  0  0  0  0  0  0
  138.6230   72.5010  220.9450 N   0  0  0  0  0  0  0  0  0  0  0  0
  139.3180   71.2740  221.1910 C   0  0  0  0  0  0  0  0  0  0  0  0
  139.8250   70.6320  220.2300 O   0  0  0  0  0  0  0  0  0  0  0  0
  139.4290   70.7410  222.5600 C   0  0  0  0  0  0  0  0  0  0  0  0
  140.0420   71.4880  223.5200 N   0  0  0  0  0  0  0  0  0  0  0  0
  140.1810   71.0460  224.7980 C   0  0  0  0  0  0  0  0  0  0  0  0
  140.8190   71.8480  225.7520 C   0  0  0  0  0  0  0  0  0  0  0  0
  141.2076   72.8371  225.4681 H   0  0  0  0  0  0  0  0  0  0  0  0
  140.9620   71.3910  227.0660 C   0  0  0  0  0  0  0  0  0  0  0  0
  141.4633   72.0225  227.8143 H   0  0  0  0  0  0  0  0  0  0  0  0
  140.4700   70.1340  227.4320 C   0  0  0  0  0  0  0  0  0  0  0  0
  140.6100   69.6970  228.7080 F   0  0  0  0  0  0  0  0  0  0  0  0
  139.8300   69.3250  226.4850 C   0  0  0  0  0  0  0  0  0  0  0  0
  139.4441   68.3366  226.7751 H   0  0  0  0  0  0  0  0  0  0  0  0
  139.6820   69.7780  225.1650 C   0  0  0  0  0  0  0  0  0  0  0  0
  139.0380   68.9990  224.1960 C   0  0  0  0  0  0  0  0  0  0  0  0
  138.6379   68.0091  224.4608 H   0  0  0  0  0  0  0  0  0  0  0  0
  138.9050   69.4820  222.8930 C   0  0  0  0  0  0  0  0  0  0  0  0
  138.3915   68.8783  222.1301 H   0  0  0  0  0  0  0  0  0  0  0  0
  1  2  1  0
  2  3  1  0
  3  4  2  0
  4  5  1  0
  5  6  1  0
  5  7  1  0
  5  8  1  0
  8  9  1  6
  8 10  1  0
 10 11  1  0
  8 12  1  0
 12 13  1  0
 12 14  1  0
 12 15  1  0
 15 16  1  1
 15 17  1  0
 17 18  2  0
 17 19  1  0
 19 20  1  0
 20 21  1  0
 20 22  1  0
 22 23  1  0
 22 24  1  0
 22 25  1  0
 25 26  1  0
 25 27  1  0
 25 28  1  0
 28 29  1  0
 28 30  1  0
 28 31  1  0
 31 32  1  0
 31 33  1  0
 31 34  1  0
 34 35  1  0
 34 36  1  0
  3 37  1  0
 37 38  1  0
 37 39  1  0
 37 40  1  0
 40 41  1  0
 41 42  2  0
 41 43  1  0
 43 44  2  0
 44 45  1  0
 45 46  2  0
 46 47  1  0
 46 48  1  0
 48 49  1  0
 48 50  2  0
 50 51  1  0
 50 52  1  0
 52 53  1  0
 52 54  2  0
 54 55  1  0
 55 56  1  0
 55 57  2  0
 57 58  1  0
 15  4  1  0
 34 20  1  0
 57 43  1  0
 54 45  1  0
M  CHG  3   4   1  19  -1  40  -1
M  END
>  <UniqueID>  (61) 
140

>  <SMILES>  (61) 
O=C([N-]C/C(O)=[N+]1\C[C@H](O)C[C@H]1C(=O)[N-]C1CCCCC1)c1ccc2cc(F)ccc2n1

>  <Energy>  (61) 
60.398563280778

>  <Genealogy>  (61) 
O=C([N-]CC(=O)[NH+]1C[C@H](O)C[C@H]1C(=O)[N-]C1CCCCC1)c1ccc2cc(F)ccc2n1 (protonated)
O=C([N-]CC(O)=[N+]1C[C@H](O)C[C@H]1C(=O)[N-]C1CCCCC1)c1ccc2cc(F)ccc2n1 (tautomer)
O=C([N-]C/C(O)=[N+]1\C[C@H](O)C[C@H]1C(=O)[N-]C1CCCCC1)c1ccc2cc(F)ccc2n1 (cis-trans isomerization)
O=C([N-]C/C(O)=[N+]1\C[C@H](O)C[C@H]1C(=O)[N-]C1CCCCC1)c1ccc2cc(F)ccc2n1 (3D coordinates assigned)
O=C([N-]C/C(O)=[N+]1\C[C@H](O)C[C@H]1C(=O)[N-]C1CCCCC1)c1ccc2cc(F)ccc2n1 (nonaromatic ring conformer: 60.398563280778 kcal/mol)

>  <smiles>  (61) 
O=C(NCC(=O)N1C[C@H](O)C[C@H]1C(=O)NC1CCCCC1)c1ccc2cc(F)ccc2n1

>  <score_type>  (61) 
oracle

>  <origin>  (61) 
autodockgpu

>  <m_score__min__energy>  (61) 
-8.0299999999999994

>  <m_primary>  (61) 
energy

>  <meeko>  (61) 
{"free_energy": -7.17, "intermolecular_energy": -10.15, "internal_energy": -3.14, "cluster_size": 12, "cluster_id": 1, "rank_in_cluster": 10}

>  <energy>  (61) 
-8.03

>  <cluster_rmsd>  (61) 
0.0

>  <rmsd>  (61) 
270.31

>  <cluster>  (61) 
1

$$$$
YMXDKILJCZTOEU-DXDCNWIPNA-M
     RDKit          3D

 58 61  0  0  0  0  0  0  0  0999 V2000
  139.4580   73.1760  220.2030 H   0  0  0  0  0  0  0  0  0  0  0  0
  139.9300   73.9050  219.6860 O   0  0  0  0  0  0  0  0  0  0  0  0
  140.7670   74.8620  220.2700 C   0  0  0  0  0  0  0  0  0  0  0  0
  141.4830   75.6890  219.5330 N   0  0  0  0  0  0  0  0  0  0  0  0
  142.0530   75.3450  218.2310 C   0  0  0  0  0  0  0  0  0  0  0  0
  142.7975   74.5427  218.3403 H   0  0  0  0  0  0  0  0  0  0  0  0
  141.2801   74.9823  217.5374 H   0  0  0  0  0  0  0  0  0  0  0  0
  142.7170   76.6160  217.7100 C   0  0  2  0  0  0  0  0  0  0  0  0
  142.1052   77.1176  216.9457 H   0  0  0  0  0  0  0  0  0  0  0  0
  143.9430   76.3220  217.0930 O   0  0  0  0  0  0  0  0  0  0  0  0
  144.5380   75.9710  217.8060 H   0  0  0  0  0  0  0  0  0  0  0  0
  142.9130   77.4990  218.9410 C   0  0  0  0  0  0  0  0  0  0  0  0
  143.9141   77.3457  219.3702 H   0  0  0  0  0  0  0  0  0  0  0  0
  142.8330   78.5686  218.6967 H   0  0  0  0  0  0  0  0  0  0  0  0
  141.8330   77.0560  219.9280 C   0  0  1  0  0  0  0  0  0  0  0  0
  142.1852   77.1046  220.9690 H   0  0  0  0  0  0  0  0  0  0  0  0
  140.6300   77.9550  219.8300 C   0  0  0  0  0  0  0  0  0  0  0  0
  139.6480   77.6140  219.1170 O   0  0  0  0  0  0  0  0  0  0  0  0
  140.5900   79.1700  220.5850 N   0  0  0  0  0  0  0  0  0  0  0  0
  140.0030   79.2910  221.9200 C   0  0  0  0  0  0  0  0  0  0  0  0
  138.9121   79.1660  221.8549 H   0  0  0  0  0  0  0  0  0  0  0  0
  140.2860   80.6870  222.5000 C   0  0  0  0  0  0  0  0  0  0  0  0
  139.8484   81.4441  221.8327 H   0  0  0  0  0  0  0  0  0  0  0  0
  139.8387   80.7346  223.5038 H   0  0  0  0  0  0  0  0  0  0  0  0
  141.7970   80.9600  222.6390 C   0  0  0  0  0  0  0  0  0  0  0  0
  142.1565   81.4120  221.7028 H   0  0  0  0  0  0  0  0  0  0  0  0
  141.9263   81.6290  223.5026 H   0  0  0  0  0  0  0  0  0  0  0  0
  142.6300   79.6910  222.9200 C   0  0  0  0  0  0  0  0  0  0  0  0
  142.9809   79.2763  221.9635 H   0  0  0  0  0  0  0  0  0  0  0  0
  143.4769   79.9731  223.5628 H   0  0  0  0  0  0  0  0  0  0  0  0
  141.8100   78.6230  223.6530 C   0  0  0  0  0  0  0  0  0  0  0  0
  142.4488   77.7457  223.8329 H   0  0  0  0  0  0  0  0  0  0  0  0
  141.4550   79.0563  224.5997 H   0  0  0  0  0  0  0  0  0  0  0  0
  140.5770   78.1830  222.8370 C   0  0  0  0  0  0  0  0  0  0  0  0
  140.8652   77.3278  222.2081 H   0  0  0  0  0  0  0  0  0  0  0  0
  139.7893   77.9283  223.5613 H   0  0  0  0  0  0  0  0  0  0  0  0
  140.8280   74.8640  221.7740 C   0  0  0  0  0  0  0  0  0  0  0  0
  140.4524   75.8249  222.1557 H   0  0  0  0  0  0  0  0  0  0  0  0
  141.8689   74.7237  222.1008 H   0  0  0  0  0  0  0  0  0  0  0  0
  140.0050   73.7810  222.2900 N   0  0  0  0  0  0  0  0  0  0  0  0
  140.4020   72.4070  222.2380 C   0  0  0  0  0  0  0  0  0  0  0  0
  140.9250   71.9410  221.1890 O   0  0  0  0  0  0  0  0  0  0  0  0
  140.1840   71.5230  223.3960 C   0  0  0  0  0  0  0  0  0  0  0  0
  140.6660   71.8900  224.6170 N   0  0  0  0  0  0  0  0  0  0  0  0
  140.5030   71.1120  225.7200 C   0  0  0  0  0  0  0  0  0  0  0  0
  141.0150   71.5290  226.9540 C   0  0  0  0  0  0  0  0  0  0  0  0
  141.5494   72.4873  227.0325 H   0  0  0  0  0  0  0  0  0  0  0  0
  140.8470   70.7270  228.0870 C   0  0  0  0  0  0  0  0  0  0  0  0
  141.2493   71.0565  229.0563 H   0  0  0  0  0  0  0  0  0  0  0  0
  140.1690   69.5070  227.9920 C   0  0  0  0  0  0  0  0  0  0  0  0
  140.0080   68.7350  229.0950 F   0  0  0  0  0  0  0  0  0  0  0  0
  139.6520   69.0820  226.7630 C   0  0  0  0  0  0  0  0  0  0  0  0
  139.1181   68.1229  226.6918 H   0  0  0  0  0  0  0  0  0  0  0  0
  139.8160   69.8820  225.6210 C   0  0  0  0  0  0  0  0  0  0  0  0
  139.3040   69.4920  224.3780 C   0  0  0  0  0  0  0  0  0  0  0  0
  138.7633   68.5392  224.2790 H   0  0  0  0  0  0  0  0  0  0  0  0
  139.4810   70.3150  223.2640 C   0  0  0  0  0  0  0  0  0  0  0  0
  139.0714   70.0181  222.2872 H   0  0  0  0  0  0  0  0  0  0  0  0
  1  2  1  0
  2  3  1  0
  3  4  2  0
  4  5  1  0
  5  6  1  0
  5  7  1  0
  5  8  1  0
  8  9  1  6
  8 10  1  0
 10 11  1  0
  8 12  1  0
 12 13  1  0
 12 14  1  0
 12 15  1  0
 15 16  1  1
 15 17  1  0
 17 18  2  0
 17 19  1  0
 19 20  1  0
 20 21  1  0
 20 22  1  0
 22 23  1  0
 22 24  1  0
 22 25  1  0
 25 26  1  0
 25 27  1  0
 25 28  1  0
 28 29  1  0
 28 30  1  0
 28 31  1  0
 31 32  1  0
 31 33  1  0
 31 34  1  0
 34 35  1  0
 34 36  1  0
  3 37  1  0
 37 38  1  0
 37 39  1  0
 37 40  1  0
 40 41  1  0
 41 42  2  0
 41 43  1  0
 43 44  2  0
 44 45  1  0
 45 46  2  0
 46 47  1  0
 46 48  1  0
 48 49  1  0
 48 50  2  0
 50 51  1  0
 50 52  1  0
 52 53  1  0
 52 54  2  0
 54 55  1  0
 55 56  1  0
 55 57  2  0
 57 58  1  0
 15  4  1  0
 34 20  1  0
 57 43  1  0
 54 45  1  0
M  CHG  3   4   1  19  -1  40  -1
M  END
>  <UniqueID>  (62) 
140

>  <SMILES>  (62) 
O=C([N-]C/C(O)=[N+]1\C[C@H](O)C[C@H]1C(=O)[N-]C1CCCCC1)c1ccc2cc(F)ccc2n1

>  <Energy>  (62) 
60.398563280778

>  <Genealogy>  (62) 
O=C([N-]CC(=O)[NH+]1C[C@H](O)C[C@H]1C(=O)[N-]C1CCCCC1)c1ccc2cc(F)ccc2n1 (protonated)
O=C([N-]CC(O)=[N+]1C[C@H](O)C[C@H]1C(=O)[N-]C1CCCCC1)c1ccc2cc(F)ccc2n1 (tautomer)
O=C([N-]C/C(O)=[N+]1\C[C@H](O)C[C@H]1C(=O)[N-]C1CCCCC1)c1ccc2cc(F)ccc2n1 (cis-trans isomerization)
O=C([N-]C/C(O)=[N+]1\C[C@H](O)C[C@H]1C(=O)[N-]C1CCCCC1)c1ccc2cc(F)ccc2n1 (3D coordinates assigned)
O=C([N-]C/C(O)=[N+]1\C[C@H](O)C[C@H]1C(=O)[N-]C1CCCCC1)c1ccc2cc(F)ccc2n1 (nonaromatic ring conformer: 60.398563280778 kcal/mol)

>  <smiles>  (62) 
O=C(NCC(=O)N1C[C@H](O)C[C@H]1C(=O)NC1CCCCC1)c1ccc2cc(F)ccc2n1

>  <score_type>  (62) 
oracle

>  <origin>  (62) 
autodockgpu

>  <m_score__min__energy>  (62) 
-8.0299999999999994

>  <m_primary>  (62) 
energy

>  <meeko>  (62) 
{"free_energy": -7.11, "intermolecular_energy": -10.1, "internal_energy": -3.15, "cluster_size": 12, "cluster_id": 1, "rank_in_cluster": 11}

>  <energy>  (62) 
-7.68

>  <cluster_rmsd>  (62) 
1.18

>  <rmsd>  (62) 
270.11

>  <cluster>  (62) 
1

$$$$
YMXDKILJCZTOEU-DXDCNWIPNA-M
     RDKit          3D

 58 61  0  0  0  0  0  0  0  0999 V2000
  143.7870   69.5540  219.2750 H   0  0  0  0  0  0  0  0  0  0  0  0
  143.0270   69.7140  219.9230 O   0  0  0  0  0  0  0  0  0  0  0  0
  142.2920   70.9020  219.9890 C   0  0  0  0  0  0  0  0  0  0  0  0
  142.8440   72.0670  219.7150 N   0  0  0  0  0  0  0  0  0  0  0  0
  142.8410   73.2120  220.6260 C   0  0  0  0  0  0  0  0  0  0  0  0
  141.8117   73.5597  220.7983 H   0  0  0  0  0  0  0  0  0  0  0  0
  143.2659   72.9466  221.6053 H   0  0  0  0  0  0  0  0  0  0  0  0
  143.6600   74.3020  219.9410 C   0  0  2  0  0  0  0  0  0  0  0  0
  144.6733   74.3841  220.3612 H   0  0  0  0  0  0  0  0  0  0  0  0
  143.0630   75.5590  220.1190 O   0  0  0  0  0  0  0  0  0  0  0  0
  143.6030   76.0310  220.8060 H   0  0  0  0  0  0  0  0  0  0  0  0
  143.6930   73.9080  218.4650 C   0  0  0  0  0  0  0  0  0  0  0  0
  142.8765   74.4000  217.9161 H   0  0  0  0  0  0  0  0  0  0  0  0
  144.6313   74.2135  217.9788 H   0  0  0  0  0  0  0  0  0  0  0  0
  143.5100   72.3900  218.4510 C   0  0  1  0  0  0  0  0  0  0  0  0
  142.9237   72.0568  217.5820 H   0  0  0  0  0  0  0  0  0  0  0  0
  144.8450   71.7000  218.3700 C   0  0  0  0  0  0  0  0  0  0  0  0
  145.8920   72.3200  218.6980 O   0  0  0  0  0  0  0  0  0  0  0  0
  144.9110   70.3290  217.9660 N   0  0  0  0  0  0  0  0  0  0  0  0
  146.1370   69.5320  217.9520 C   0  0  0  0  0  0  0  0  0  0  0  0
  146.9989   70.1867  217.7559 H   0  0  0  0  0  0  0  0  0  0  0  0
  146.0750   68.4810  216.8290 C   0  0  0  0  0  0  0  0  0  0  0  0
  145.9575   68.9977  215.8650 H   0  0  0  0  0  0  0  0  0  0  0  0
  147.0076   67.8983  216.8569 H   0  0  0  0  0  0  0  0  0  0  0  0
  144.8970   67.5040  217.0170 C   0  0  0  0  0  0  0  0  0  0  0  0
  144.0151   67.9202  216.5080 H   0  0  0  0  0  0  0  0  0  0  0  0
  145.2074   66.5380  216.5921 H   0  0  0  0  0  0  0  0  0  0  0  0
  144.5340   67.2530  218.4960 C   0  0  0  0  0  0  0  0  0  0  0  0
  143.7502   67.9641  218.7958 H   0  0  0  0  0  0  0  0  0  0  0  0
  144.1832   66.2147  218.5903 H   0  0  0  0  0  0  0  0  0  0  0  0
  145.7450   67.4320  219.4180 C   0  0  0  0  0  0  0  0  0  0  0  0
  145.4341   67.2371  220.4550 H   0  0  0  0  0  0  0  0  0  0  0  0
  146.5244   66.7249  219.0977 H   0  0  0  0  0  0  0  0  0  0  0  0
  146.3290   68.8580  219.3320 C   0  0  0  0  0  0  0  0  0  0  0  0
  145.8361   69.4806  220.0932 H   0  0  0  0  0  0  0  0  0  0  0  0
  147.4131   68.7696  219.4962 H   0  0  0  0  0  0  0  0  0  0  0  0
  140.8550   70.7730  220.4220 C   0  0  0  0  0  0  0  0  0  0  0  0
  140.7953   70.1274  221.3106 H   0  0  0  0  0  0  0  0  0  0  0  0
  140.2631   70.3284  219.6084 H   0  0  0  0  0  0  0  0  0  0  0  0
  140.3300   72.0920  220.7430 N   0  0  0  0  0  0  0  0  0  0  0  0
  140.2170   72.5820  222.0830 C   0  0  0  0  0  0  0  0  0  0  0  0
  140.2760   73.8220  222.3090 O   0  0  0  0  0  0  0  0  0  0  0  0
  140.0540   71.6460  223.2080 C   0  0  0  0  0  0  0  0  0  0  0  0
  140.6310   71.9370  224.4080 N   0  0  0  0  0  0  0  0  0  0  0  0
  140.5230   71.1090  225.4810 C   0  0  0  0  0  0  0  0  0  0  0  0
  141.1330   71.4480  226.6930 C   0  0  0  0  0  0  0  0  0  0  0  0
  141.7015   72.3857  226.7793 H   0  0  0  0  0  0  0  0  0  0  0  0
  141.0200   70.5940  227.7960 C   0  0  0  0  0  0  0  0  0  0  0  0
  141.4987   70.8631  228.7491 H   0  0  0  0  0  0  0  0  0  0  0  0
  140.3000   69.3990  227.6900 C   0  0  0  0  0  0  0  0  0  0  0  0
  140.1930   68.5770  228.7620 F   0  0  0  0  0  0  0  0  0  0  0  0
  139.6860   69.0520  226.4810 C   0  0  0  0  0  0  0  0  0  0  0  0
  139.1203   68.1121  226.4006 H   0  0  0  0  0  0  0  0  0  0  0  0
  139.7930   69.9050  225.3710 C   0  0  0  0  0  0  0  0  0  0  0  0
  139.1830   69.5920  224.1510 C   0  0  0  0  0  0  0  0  0  0  0  0
  138.6074   68.6606  224.0451 H   0  0  0  0  0  0  0  0  0  0  0  0
  139.3070   70.4650  223.0690 C   0  0  0  0  0  0  0  0  0  0  0  0
  138.8213   70.2287  222.1107 H   0  0  0  0  0  0  0  0  0  0  0  0
  1  2  1  0
  2  3  1  0
  3  4  2  0
  4  5  1  0
  5  6  1  0
  5  7  1  0
  5  8  1  0
  8  9  1  1
  8 10  1  0
 10 11  1  0
  8 12  1  0
 12 13  1  0
 12 14  1  0
 12 15  1  0
 15 16  1  6
 15 17  1  0
 17 18  2  0
 17 19  1  0
 19 20  1  0
 20 21  1  0
 20 22  1  0
 22 23  1  0
 22 24  1  0
 22 25  1  0
 25 26  1  0
 25 27  1  0
 25 28  1  0
 28 29  1  0
 28 30  1  0
 28 31  1  0
 31 32  1  0
 31 33  1  0
 31 34  1  0
 34 35  1  0
 34 36  1  0
  3 37  1  0
 37 38  1  0
 37 39  1  0
 37 40  1  0
 40 41  1  0
 41 42  2  0
 41 43  1  0
 43 44  2  0
 44 45  1  0
 45 46  2  0
 46 47  1  0
 46 48  1  0
 48 49  1  0
 48 50  2  0
 50 51  1  0
 50 52  1  0
 52 53  1  0
 52 54  2  0
 54 55  1  0
 55 56  1  0
 55 57  2  0
 57 58  1  0
 15  4  1  0
 34 20  1  0
 57 43  1  0
 54 45  1  0
M  CHG  3   4   1  19  -1  40  -1
M  END
>  <UniqueID>  (63) 
140

>  <SMILES>  (63) 
O=C([N-]C/C(O)=[N+]1\C[C@H](O)C[C@H]1C(=O)[N-]C1CCCCC1)c1ccc2cc(F)ccc2n1

>  <Energy>  (63) 
60.398563280778

>  <Genealogy>  (63) 
O=C([N-]CC(=O)[NH+]1C[C@H](O)C[C@H]1C(=O)[N-]C1CCCCC1)c1ccc2cc(F)ccc2n1 (protonated)
O=C([N-]CC(O)=[N+]1C[C@H](O)C[C@H]1C(=O)[N-]C1CCCCC1)c1ccc2cc(F)ccc2n1 (tautomer)
O=C([N-]C/C(O)=[N+]1\C[C@H](O)C[C@H]1C(=O)[N-]C1CCCCC1)c1ccc2cc(F)ccc2n1 (cis-trans isomerization)
O=C([N-]C/C(O)=[N+]1\C[C@H](O)C[C@H]1C(=O)[N-]C1CCCCC1)c1ccc2cc(F)ccc2n1 (3D coordinates assigned)
O=C([N-]C/C(O)=[N+]1\C[C@H](O)C[C@H]1C(=O)[N-]C1CCCCC1)c1ccc2cc(F)ccc2n1 (nonaromatic ring conformer: 60.398563280778 kcal/mol)

>  <smiles>  (63) 
O=C(NCC(=O)N1C[C@H](O)C[C@H]1C(=O)NC1CCCCC1)c1ccc2cc(F)ccc2n1

>  <score_type>  (63) 
oracle

>  <origin>  (63) 
autodockgpu

>  <m_score__min__energy>  (63) 
-8.0299999999999994

>  <m_primary>  (63) 
energy

>  <meeko>  (63) 
{"free_energy": -6.97, "intermolecular_energy": -9.95, "internal_energy": -2.68, "cluster_size": 2, "cluster_id": 3, "rank_in_cluster": 1}

>  <energy>  (63) 
-7.58

>  <cluster_rmsd>  (63) 
1.14

>  <rmsd>  (63) 
270.04

>  <cluster>  (63) 
1

$$$$
YMXDKILJCZTOEU-DXDCNWIPNA-M
     RDKit          3D

 58 61  0  0  0  0  0  0  0  0999 V2000
  136.8100   73.0840  224.0930 H   0  0  0  0  0  0  0  0  0  0  0  0
  136.9050   72.3660  223.3870 O   0  0  0  0  0  0  0  0  0  0  0  0
  136.1800   71.1700  223.3830 C   0  0  0  0  0  0  0  0  0  0  0  0
  135.3320   70.8790  224.3500 N   0  0  0  0  0  0  0  0  0  0  0  0
  135.4500   69.7090  225.2200 C   0  0  0  0  0  0  0  0  0  0  0  0
  135.3475   68.7847  224.6324 H   0  0  0  0  0  0  0  0  0  0  0  0
  136.4312   69.6750  225.7160 H   0  0  0  0  0  0  0  0  0  0  0  0
  134.3170   69.8190  226.2350 C   0  0  2  0  0  0  0  0  0  0  0  0
  134.6729   70.1763  227.2126 H   0  0  0  0  0  0  0  0  0  0  0  0
  133.7330   68.5650  226.4700 O   0  0  0  0  0  0  0  0  0  0  0  0
  134.0570   67.9650  225.7470 H   0  0  0  0  0  0  0  0  0  0  0  0
  133.3140   70.7890  225.6120 C   0  0  0  0  0  0  0  0  0  0  0  0
  132.5425   70.2398  225.0523 H   0  0  0  0  0  0  0  0  0  0  0  0
  132.7891   71.3841  226.3738 H   0  0  0  0  0  0  0  0  0  0  0  0
  134.1390   71.6660  224.6690 C   0  0  1  0  0  0  0  0  0  0  0  0
  133.5744   71.9386  223.7652 H   0  0  0  0  0  0  0  0  0  0  0  0
  134.5250   72.9520  225.3500 C   0  0  0  0  0  0  0  0  0  0  0  0
  135.4710   73.6460  224.8900 O   0  0  0  0  0  0  0  0  0  0  0  0
  133.7820   73.4020  226.4870 N   0  0  0  0  0  0  0  0  0  0  0  0
  132.3900   73.8500  226.4370 C   0  0  0  0  0  0  0  0  0  0  0  0
  131.7294   72.9828  226.2901 H   0  0  0  0  0  0  0  0  0  0  0  0
  132.1830   74.8090  225.2520 C   0  0  0  0  0  0  0  0  0  0  0  0
  132.4369   74.2821  224.3204 H   0  0  0  0  0  0  0  0  0  0  0  0
  131.1307   75.1292  225.2543 H   0  0  0  0  0  0  0  0  0  0  0  0
  133.0640   76.0690  225.3670 C   0  0  0  0  0  0  0  0  0  0  0  0
  134.0267   75.8666  224.8748 H   0  0  0  0  0  0  0  0  0  0  0  0
  132.5145   76.8924  224.8873 H   0  0  0  0  0  0  0  0  0  0  0  0
  133.3410   76.4970  226.8240 C   0  0  0  0  0  0  0  0  0  0  0  0
  134.2814   76.0345  227.1583 H   0  0  0  0  0  0  0  0  0  0  0  0
  133.4089   77.5946  226.8510 H   0  0  0  0  0  0  0  0  0  0  0  0
  132.2130   76.0660  227.7680 C   0  0  0  0  0  0  0  0  0  0  0  0
  132.4565   76.3984  228.7879 H   0  0  0  0  0  0  0  0  0  0  0  0
  131.2782   76.5248  227.4135 H   0  0  0  0  0  0  0  0  0  0  0  0
  132.0210   74.5340  227.7750 C   0  0  0  0  0  0  0  0  0  0  0  0
  132.6546   74.1091  228.5675 H   0  0  0  0  0  0  0  0  0  0  0  0
  130.9504   74.3471  227.9447 H   0  0  0  0  0  0  0  0  0  0  0  0
  136.4500   70.2310  222.2380 C   0  0  0  0  0  0  0  0  0  0  0  0
  136.2547   70.7464  221.2861 H   0  0  0  0  0  0  0  0  0  0  0  0
  135.7925   69.3528  222.3183 H   0  0  0  0  0  0  0  0  0  0  0  0
  137.8410   69.8050  222.2840 N   0  0  0  0  0  0  0  0  0  0  0  0
  138.3120   68.7720  223.1550 C   0  0  0  0  0  0  0  0  0  0  0  0
  138.1790   67.5610  222.8270 O   0  0  0  0  0  0  0  0  0  0  0  0
  138.9340   69.1100  224.4470 C   0  0  0  0  0  0  0  0  0  0  0  0
  139.5950   70.2940  224.5800 N   0  0  0  0  0  0  0  0  0  0  0  0
  140.1950   70.6580  225.7450 C   0  0  0  0  0  0  0  0  0  0  0  0
  140.8640   71.8840  225.8360 C   0  0  0  0  0  0  0  0  0  0  0  0
  140.9046   72.5547  224.9651 H   0  0  0  0  0  0  0  0  0  0  0  0
  141.4810   72.2560  227.0350 C   0  0  0  0  0  0  0  0  0  0  0  0
  142.0050   73.2206  227.1056 H   0  0  0  0  0  0  0  0  0  0  0  0
  141.4340   71.4060  228.1440 C   0  0  0  0  0  0  0  0  0  0  0  0
  142.0320   71.7730  229.3040 F   0  0  0  0  0  0  0  0  0  0  0  0
  140.7660   70.1780  228.0630 C   0  0  0  0  0  0  0  0  0  0  0  0
  140.7297   69.5117  228.9375 H   0  0  0  0  0  0  0  0  0  0  0  0
  140.1430   69.7990  226.8640 C   0  0  0  0  0  0  0  0  0  0  0  0
  139.4590   68.5830  226.7510 C   0  0  0  0  0  0  0  0  0  0  0  0
  139.4037   67.8998  227.6113 H   0  0  0  0  0  0  0  0  0  0  0  0
  138.8470   68.2390  225.5440 C   0  0  0  0  0  0  0  0  0  0  0  0
  138.2991   67.2895  225.4534 H   0  0  0  0  0  0  0  0  0  0  0  0
  1  2  1  0
  2  3  1  0
  3  4  2  0
  4  5  1  0
  5  6  1  0
  5  7  1  0
  5  8  1  0
  8  9  1  1
  8 10  1  0
 10 11  1  0
  8 12  1  0
 12 13  1  0
 12 14  1  0
 12 15  1  0
 15 16  1  6
 15 17  1  0
 17 18  2  0
 17 19  1  0
 19 20  1  0
 20 21  1  0
 20 22  1  0
 22 23  1  0
 22 24  1  0
 22 25  1  0
 25 26  1  0
 25 27  1  0
 25 28  1  0
 28 29  1  0
 28 30  1  0
 28 31  1  0
 31 32  1  0
 31 33  1  0
 31 34  1  0
 34 35  1  0
 34 36  1  0
  3 37  1  0
 37 38  1  0
 37 39  1  0
 37 40  1  0
 40 41  1  0
 41 42  2  0
 41 43  1  0
 43 44  2  0
 44 45  1  0
 45 46  2  0
 46 47  1  0
 46 48  1  0
 48 49  1  0
 48 50  2  0
 50 51  1  0
 50 52  1  0
 52 53  1  0
 52 54  2  0
 54 55  1  0
 55 56  1  0
 55 57  2  0
 57 58  1  0
 15  4  1  0
 34 20  1  0
 57 43  1  0
 54 45  1  0
M  CHG  3   4   1  19  -1  40  -1
M  END
>  <UniqueID>  (64) 
140

>  <SMILES>  (64) 
O=C([N-]C/C(O)=[N+]1\C[C@H](O)C[C@H]1C(=O)[N-]C1CCCCC1)c1ccc2cc(F)ccc2n1

>  <Energy>  (64) 
60.398563280778

>  <Genealogy>  (64) 
O=C([N-]CC(=O)[NH+]1C[C@H](O)C[C@H]1C(=O)[N-]C1CCCCC1)c1ccc2cc(F)ccc2n1 (protonated)
O=C([N-]CC(O)=[N+]1C[C@H](O)C[C@H]1C(=O)[N-]C1CCCCC1)c1ccc2cc(F)ccc2n1 (tautomer)
O=C([N-]C/C(O)=[N+]1\C[C@H](O)C[C@H]1C(=O)[N-]C1CCCCC1)c1ccc2cc(F)ccc2n1 (cis-trans isomerization)
O=C([N-]C/C(O)=[N+]1\C[C@H](O)C[C@H]1C(=O)[N-]C1CCCCC1)c1ccc2cc(F)ccc2n1 (3D coordinates assigned)
O=C([N-]C/C(O)=[N+]1\C[C@H](O)C[C@H]1C(=O)[N-]C1CCCCC1)c1ccc2cc(F)ccc2n1 (nonaromatic ring conformer: 60.398563280778 kcal/mol)

>  <smiles>  (64) 
O=C(NCC(=O)N1C[C@H](O)C[C@H]1C(=O)NC1CCCCC1)c1ccc2cc(F)ccc2n1

>  <score_type>  (64) 
oracle

>  <origin>  (64) 
autodockgpu

>  <m_score__min__energy>  (64) 
-8.0299999999999994

>  <m_primary>  (64) 
energy

>  <meeko>  (64) 
{"free_energy": -6.86, "intermolecular_energy": -9.84, "internal_energy": -2.65, "cluster_size": 1, "cluster_id": 4, "rank_in_cluster": 1}

>  <energy>  (64) 
-7.52

>  <cluster_rmsd>  (64) 
1.5

>  <rmsd>  (64) 
270.34

>  <cluster>  (64) 
1

$$$$
YMXDKILJCZTOEU-DXDCNWIPNA-M
     RDKit          3D

 58 61  0  0  0  0  0  0  0  0999 V2000
  138.7900   73.9410  222.7300 H   0  0  0  0  0  0  0  0  0  0  0  0
  139.3300   74.7110  222.3600 O   0  0  0  0  0  0  0  0  0  0  0  0
  140.5160   74.5580  221.6350 C   0  0  0  0  0  0  0  0  0  0  0  0
  141.0600   75.5700  220.9870 N   0  0  0  0  0  0  0  0  0  0  0  0
  141.6690   75.4640  219.6620 C   0  0  0  0  0  0  0  0  0  0  0  0
  142.5488   74.8047  219.6981 H   0  0  0  0  0  0  0  0  0  0  0  0
  140.9676   75.0352  218.9312 H   0  0  0  0  0  0  0  0  0  0  0  0
  142.0840   76.8790  219.2710 C   0  0  2  0  0  0  0  0  0  0  0  0
  141.3826   77.3319  218.5548 H   0  0  0  0  0  0  0  0  0  0  0  0
  143.3360   76.8750  218.6370 O   0  0  0  0  0  0  0  0  0  0  0  0
  143.9130   77.4960  219.1530 H   0  0  0  0  0  0  0  0  0  0  0  0
  142.1300   77.6590  220.5840 C   0  0  0  0  0  0  0  0  0  0  0  0
  143.1472   77.6500  221.0027 H   0  0  0  0  0  0  0  0  0  0  0  0
  141.8537   78.7146  220.4451 H   0  0  0  0  0  0  0  0  0  0  0  0
  141.1600   76.9320  221.5160 C   0  0  1  0  0  0  0  0  0  0  0  0
  141.5095   76.9421  222.5589 H   0  0  0  0  0  0  0  0  0  0  0  0
  139.8120   77.6020  221.4980 C   0  0  0  0  0  0  0  0  0  0  0  0
  138.7950   76.9560  221.1280 O   0  0  0  0  0  0  0  0  0  0  0  0
  139.6870   78.9550  221.9480 N   0  0  0  0  0  0  0  0  0  0  0  0
  139.9600   79.3970  223.3150 C   0  0  0  0  0  0  0  0  0  0  0  0
  139.2158   78.9611  223.9977 H   0  0  0  0  0  0  0  0  0  0  0  0
  139.8500   80.9280  223.4100 C   0  0  0  0  0  0  0  0  0  0  0  0
  138.8334   81.2297  223.1175 H   0  0  0  0  0  0  0  0  0  0  0  0
  140.0692   81.2203  224.4476 H   0  0  0  0  0  0  0  0  0  0  0  0
  140.8640   81.6390  222.4910 C   0  0  0  0  0  0  0  0  0  0  0  0
  140.3955   81.7910  221.5074 H   0  0  0  0  0  0  0  0  0  0  0  0
  141.1308   82.5889  222.9774 H   0  0  0  0  0  0  0  0  0  0  0  0
  142.1740   80.8480  222.2910 C   0  0  0  0  0  0  0  0  0  0  0  0
  142.0778   80.2217  221.3919 H   0  0  0  0  0  0  0  0  0  0  0  0
  142.9964   81.5707  222.1839 H   0  0  0  0  0  0  0  0  0  0  0  0
  142.4850   79.9480  223.4910 C   0  0  0  0  0  0  0  0  0  0  0  0
  143.4270   79.4133  223.2994 H   0  0  0  0  0  0  0  0  0  0  0  0
  142.5647   80.5863  224.3833 H   0  0  0  0  0  0  0  0  0  0  0  0
  141.3670   78.9140  223.7420 C   0  0  0  0  0  0  0  0  0  0  0  0
  141.6062   78.0010  223.1770 H   0  0  0  0  0  0  0  0  0  0  0  0
  141.3297   78.7407  224.8276 H   0  0  0  0  0  0  0  0  0  0  0  0
  141.1070   73.1730  221.6090 C   0  0  0  0  0  0  0  0  0  0  0  0
  141.5939   72.9630  222.5728 H   0  0  0  0  0  0  0  0  0  0  0  0
  141.8515   73.1050  220.8021 H   0  0  0  0  0  0  0  0  0  0  0  0
  140.0480   72.2030  221.3780 N   0  0  0  0  0  0  0  0  0  0  0  0
  139.0500   71.8910  222.3550 C   0  0  0  0  0  0  0  0  0  0  0  0
  137.8850   72.3620  222.2400 O   0  0  0  0  0  0  0  0  0  0  0  0
  139.3770   71.0380  223.5110 C   0  0  0  0  0  0  0  0  0  0  0  0
  139.8840   71.6090  224.6390 N   0  0  0  0  0  0  0  0  0  0  0  0
  140.2130   70.8730  225.7350 C   0  0  0  0  0  0  0  0  0  0  0  0
  140.7320   71.5010  226.8720 C   0  0  0  0  0  0  0  0  0  0  0  0
  140.8743   72.5917  226.8813 H   0  0  0  0  0  0  0  0  0  0  0  0
  141.0700   70.7420  227.9970 C   0  0  0  0  0  0  0  0  0  0  0  0
  141.4780   71.2376  228.8903 H   0  0  0  0  0  0  0  0  0  0  0  0
  140.8910   69.3550  227.9900 C   0  0  0  0  0  0  0  0  0  0  0  0
  141.2180   68.6260  229.0850 F   0  0  0  0  0  0  0  0  0  0  0  0
  140.3710   68.7180  226.8580 C   0  0  0  0  0  0  0  0  0  0  0  0
  140.2303   67.6270  226.8558 H   0  0  0  0  0  0  0  0  0  0  0  0
  140.0290   69.4730  225.7250 C   0  0  0  0  0  0  0  0  0  0  0  0
  139.4980   68.8680  224.5800 C   0  0  0  0  0  0  0  0  0  0  0  0
  139.3443   67.7791  224.5522 H   0  0  0  0  0  0  0  0  0  0  0  0
  139.1640   69.6510  223.4730 C   0  0  0  0  0  0  0  0  0  0  0  0
  138.7356   69.1827  222.5746 H   0  0  0  0  0  0  0  0  0  0  0  0
  1  2  1  0
  2  3  1  0
  3  4  2  0
  4  5  1  0
  5  6  1  0
  5  7  1  0
  5  8  1  0
  8  9  1  6
  8 10  1  0
 10 11  1  0
  8 12  1  0
 12 13  1  0
 12 14  1  0
 12 15  1  0
 15 16  1  1
 15 17  1  0
 17 18  2  0
 17 19  1  0
 19 20  1  0
 20 21  1  0
 20 22  1  0
 22 23  1  0
 22 24  1  0
 22 25  1  0
 25 26  1  0
 25 27  1  0
 25 28  1  0
 28 29  1  0
 28 30  1  0
 28 31  1  0
 31 32  1  0
 31 33  1  0
 31 34  1  0
 34 35  1  0
 34 36  1  0
  3 37  1  0
 37 38  1  0
 37 39  1  0
 37 40  1  0
 40 41  1  0
 41 42  2  0
 41 43  1  0
 43 44  2  0
 44 45  1  0
 45 46  2  0
 46 47  1  0
 46 48  1  0
 48 49  1  0
 48 50  2  0
 50 51  1  0
 50 52  1  0
 52 53  1  0
 52 54  2  0
 54 55  1  0
 55 56  1  0
 55 57  2  0
 57 58  1  0
 15  4  1  0
 34 20  1  0
 57 43  1  0
 54 45  1  0
M  CHG  3   4   1  19  -1  40  -1
M  END
>  <UniqueID>  (65) 
140

>  <SMILES>  (65) 
O=C([N-]C/C(O)=[N+]1\C[C@H](O)C[C@H]1C(=O)[N-]C1CCCCC1)c1ccc2cc(F)ccc2n1

>  <Energy>  (65) 
60.398563280778

>  <Genealogy>  (65) 
O=C([N-]CC(=O)[NH+]1C[C@H](O)C[C@H]1C(=O)[N-]C1CCCCC1)c1ccc2cc(F)ccc2n1 (protonated)
O=C([N-]CC(O)=[N+]1C[C@H](O)C[C@H]1C(=O)[N-]C1CCCCC1)c1ccc2cc(F)ccc2n1 (tautomer)
O=C([N-]C/C(O)=[N+]1\C[C@H](O)C[C@H]1C(=O)[N-]C1CCCCC1)c1ccc2cc(F)ccc2n1 (cis-trans isomerization)
O=C([N-]C/C(O)=[N+]1\C[C@H](O)C[C@H]1C(=O)[N-]C1CCCCC1)c1ccc2cc(F)ccc2n1 (3D coordinates assigned)
O=C([N-]C/C(O)=[N+]1\C[C@H](O)C[C@H]1C(=O)[N-]C1CCCCC1)c1ccc2cc(F)ccc2n1 (nonaromatic ring conformer: 60.398563280778 kcal/mol)

>  <smiles>  (65) 
O=C(NCC(=O)N1C[C@H](O)C[C@H]1C(=O)NC1CCCCC1)c1ccc2cc(F)ccc2n1

>  <score_type>  (65) 
oracle

>  <origin>  (65) 
autodockgpu

>  <m_score__min__energy>  (65) 
-8.0299999999999994

>  <m_primary>  (65) 
energy

>  <meeko>  (65) 
{"free_energy": -8.03, "intermolecular_energy": -11.01, "internal_energy": -2.46, "cluster_size": 12, "cluster_id": 1, "rank_in_cluster": 1}

>  <energy>  (65) 
-7.4

>  <cluster_rmsd>  (65) 
1.49

>  <rmsd>  (65) 
270.2

>  <cluster>  (65) 
1

$$$$
YMXDKILJCZTOEU-DXDCNWIPNA-M
     RDKit          3D

 58 61  0  0  0  0  0  0  0  0999 V2000
  142.1290   76.7930  221.7760 H   0  0  0  0  0  0  0  0  0  0  0  0
  141.7900   76.0840  221.1400 O   0  0  0  0  0  0  0  0  0  0  0  0
  140.6100   75.3580  221.3360 C   0  0  0  0  0  0  0  0  0  0  0  0
  139.4630   75.9640  221.5760 N   0  0  0  0  0  0  0  0  0  0  0  0
  138.2380   75.2740  221.9780 C   0  0  0  0  0  0  0  0  0  0  0  0
  137.8988   74.6010  221.1767 H   0  0  0  0  0  0  0  0  0  0  0  0
  138.3999   74.6595  222.8759 H   0  0  0  0  0  0  0  0  0  0  0  0
  137.2000   76.3630  222.2290 C   0  0  2  0  0  0  0  0  0  0  0  0
  137.0561   76.5566  223.3022 H   0  0  0  0  0  0  0  0  0  0  0  0
  135.9450   75.9800  221.7320 O   0  0  0  0  0  0  0  0  0  0  0  0
  136.0800   75.1130  221.2660 H   0  0  0  0  0  0  0  0  0  0  0  0
  137.7310   77.5970  221.5000 C   0  0  0  0  0  0  0  0  0  0  0  0
  137.3117   77.6556  220.4847 H   0  0  0  0  0  0  0  0  0  0  0  0
  137.4518   78.5295  222.0124 H   0  0  0  0  0  0  0  0  0  0  0  0
  139.2470   77.4070  221.4440 C   0  0  1  0  0  0  0  0  0  0  0  0
  139.6743   77.8018  220.5105 H   0  0  0  0  0  0  0  0  0  0  0  0
  139.9120   78.1430  222.5760 C   0  0  0  0  0  0  0  0  0  0  0  0
  139.2090   78.6630  223.4840 O   0  0  0  0  0  0  0  0  0  0  0  0
  141.3400   78.2060  222.6390 N   0  0  0  0  0  0  0  0  0  0  0  0
  142.1600   79.1180  221.8420 C   0  0  0  0  0  0  0  0  0  0  0  0
  142.6945   78.5493  221.0668 H   0  0  0  0  0  0  0  0  0  0  0  0
  143.2080   79.8070  222.7350 C   0  0  0  0  0  0  0  0  0  0  0  0
  143.8470   79.0367  223.1914 H   0  0  0  0  0  0  0  0  0  0  0  0
  143.7959   80.4894  222.1036 H   0  0  0  0  0  0  0  0  0  0  0  0
  142.5550   80.6400  223.8560 C   0  0  0  0  0  0  0  0  0  0  0  0
  142.4136   79.9923  224.7338 H   0  0  0  0  0  0  0  0  0  0  0  0
  143.2277   81.4849  224.0648 H   0  0  0  0  0  0  0  0  0  0  0  0
  141.1860   81.2360  223.4630 C   0  0  0  0  0  0  0  0  0  0  0  0
  140.3927   80.5394  223.7718 H   0  0  0  0  0  0  0  0  0  0  0  0
  141.0787   82.2072  223.9682 H   0  0  0  0  0  0  0  0  0  0  0  0
  141.0790   81.4710  221.9530 C   0  0  0  0  0  0  0  0  0  0  0  0
  140.0907   81.8989  221.7289 H   0  0  0  0  0  0  0  0  0  0  0  0
  141.8852   82.1583  221.6571 H   0  0  0  0  0  0  0  0  0  0  0  0
  141.2490   80.1620  221.1530 C   0  0  0  0  0  0  0  0  0  0  0  0
  140.2552   79.7128  221.0092 H   0  0  0  0  0  0  0  0  0  0  0  0
  141.7338   80.4301  220.2027 H   0  0  0  0  0  0  0  0  0  0  0  0
  140.7350   73.8580  221.2930 C   0  0  0  0  0  0  0  0  0  0  0  0
  141.7787   73.5822  221.0816 H   0  0  0  0  0  0  0  0  0  0  0  0
  140.0844   73.4566  220.5021 H   0  0  0  0  0  0  0  0  0  0  0  0
  140.3370   73.3050  222.5790 N   0  0  0  0  0  0  0  0  0  0  0  0
  139.4230   72.2120  222.7090 C   0  0  0  0  0  0  0  0  0  0  0  0
  138.4500   72.1050  221.9140 O   0  0  0  0  0  0  0  0  0  0  0  0
  139.5970   71.2170  223.7820 C   0  0  0  0  0  0  0  0  0  0  0  0
  140.1170   71.6100  224.9780 N   0  0  0  0  0  0  0  0  0  0  0  0
  140.3080   70.7360  226.0030 C   0  0  0  0  0  0  0  0  0  0  0  0
  140.8470   71.1830  227.2150 C   0  0  0  0  0  0  0  0  0  0  0  0
  141.1164   72.2422  227.3398 H   0  0  0  0  0  0  0  0  0  0  0  0
  141.0430   70.2830  228.2670 C   0  0  0  0  0  0  0  0  0  0  0  0
  141.4654   70.6365  229.2192 H   0  0  0  0  0  0  0  0  0  0  0  0
  140.7040   68.9350  228.1130 C   0  0  0  0  0  0  0  0  0  0  0  0
  140.8950   68.0680  229.1370 F   0  0  0  0  0  0  0  0  0  0  0  0
  140.1640   68.4780  226.9040 C   0  0  0  0  0  0  0  0  0  0  0  0
  139.8979   67.4173  226.7855 H   0  0  0  0  0  0  0  0  0  0  0  0
  139.9630   69.3760  225.8440 C   0  0  0  0  0  0  0  0  0  0  0  0
  139.4160   68.9550  224.6270 C   0  0  0  0  0  0  0  0  0  0  0  0
  139.1363   67.9009  224.4836 H   0  0  0  0  0  0  0  0  0  0  0  0
  139.2260   69.8760  223.5950 C   0  0  0  0  0  0  0  0  0  0  0  0
  138.7875   69.5523  222.6395 H   0  0  0  0  0  0  0  0  0  0  0  0
  1  2  1  0
  2  3  1  0
  3  4  2  0
  4  5  1  0
  5  6  1  0
  5  7  1  0
  5  8  1  0
  8  9  1  1
  8 10  1  0
 10 11  1  0
  8 12  1  0
 12 13  1  0
 12 14  1  0
 12 15  1  0
 15 16  1  6
 15 17  1  0
 17 18  2  0
 17 19  1  0
 19 20  1  0
 20 21  1  0
 20 22  1  0
 22 23  1  0
 22 24  1  0
 22 25  1  0
 25 26  1  0
 25 27  1  0
 25 28  1  0
 28 29  1  0
 28 30  1  0
 28 31  1  0
 31 32  1  0
 31 33  1  0
 31 34  1  0
 34 35  1  0
 34 36  1  0
  3 37  1  0
 37 38  1  0
 37 39  1  0
 37 40  1  0
 40 41  1  0
 41 42  2  0
 41 43  1  0
 43 44  2  0
 44 45  1  0
 45 46  2  0
 46 47  1  0
 46 48  1  0
 48 49  1  0
 48 50  2  0
 50 51  1  0
 50 52  1  0
 52 53  1  0
 52 54  2  0
 54 55  1  0
 55 56  1  0
 55 57  2  0
 57 58  1  0
 15  4  1  0
 34 20  1  0
 57 43  1  0
 54 45  1  0
M  CHG  3   4   1  19  -1  40  -1
M  END
>  <UniqueID>  (66) 
140

>  <SMILES>  (66) 
O=C([N-]C/C(O)=[N+]1\C[C@H](O)C[C@H]1C(=O)[N-]C1CCCCC1)c1ccc2cc(F)ccc2n1

>  <Energy>  (66) 
60.398563280778

>  <Genealogy>  (66) 
O=C([N-]CC(=O)[NH+]1C[C@H](O)C[C@H]1C(=O)[N-]C1CCCCC1)c1ccc2cc(F)ccc2n1 (protonated)
O=C([N-]CC(O)=[N+]1C[C@H](O)C[C@H]1C(=O)[N-]C1CCCCC1)c1ccc2cc(F)ccc2n1 (tautomer)
O=C([N-]C/C(O)=[N+]1\C[C@H](O)C[C@H]1C(=O)[N-]C1CCCCC1)c1ccc2cc(F)ccc2n1 (cis-trans isomerization)
O=C([N-]C/C(O)=[N+]1\C[C@H](O)C[C@H]1C(=O)[N-]C1CCCCC1)c1ccc2cc(F)ccc2n1 (3D coordinates assigned)
O=C([N-]C/C(O)=[N+]1\C[C@H](O)C[C@H]1C(=O)[N-]C1CCCCC1)c1ccc2cc(F)ccc2n1 (nonaromatic ring conformer: 60.398563280778 kcal/mol)

>  <smiles>  (66) 
O=C(NCC(=O)N1C[C@H](O)C[C@H]1C(=O)NC1CCCCC1)c1ccc2cc(F)ccc2n1

>  <score_type>  (66) 
oracle

>  <origin>  (66) 
autodockgpu

>  <m_score__min__energy>  (66) 
-8.0299999999999994

>  <m_primary>  (66) 
energy

>  <meeko>  (66) 
{"free_energy": -7.36, "intermolecular_energy": -10.34, "internal_energy": -2.67, "cluster_size": 12, "cluster_id": 1, "rank_in_cluster": 7}

>  <energy>  (66) 
-7.38

>  <cluster_rmsd>  (66) 
1.71

>  <rmsd>  (66) 
270.47

>  <cluster>  (66) 
1

$$$$
YMXDKILJCZTOEU-DXDCNWIPNA-M
     RDKit          3D

 58 61  0  0  0  0  0  0  0  0999 V2000
  136.3890   76.4150  221.0110 H   0  0  0  0  0  0  0  0  0  0  0  0
  136.6740   75.4750  220.7710 O   0  0  0  0  0  0  0  0  0  0  0  0
  137.7830   74.8280  221.3270 C   0  0  0  0  0  0  0  0  0  0  0  0
  138.9810   75.3780  221.3050 N   0  0  0  0  0  0  0  0  0  0  0  0
  139.9620   75.1670  220.2410 C   0  0  0  0  0  0  0  0  0  0  0  0
  140.2697   74.1114  220.2098 H   0  0  0  0  0  0  0  0  0  0  0  0
  139.5437   75.4162  219.2547 H   0  0  0  0  0  0  0  0  0  0  0  0
  141.1550   76.0560  220.5800 C   0  0  2  0  0  0  0  0  0  0  0  0
  141.1745   76.9710  219.9698 H   0  0  0  0  0  0  0  0  0  0  0  0
  142.3630   75.3920  220.3200 O   0  0  0  0  0  0  0  0  0  0  0  0
  142.9950   75.6680  221.0340 H   0  0  0  0  0  0  0  0  0  0  0  0
  141.0060   76.3730  222.0680 C   0  0  0  0  0  0  0  0  0  0  0  0
  141.5754   75.6534  222.6746 H   0  0  0  0  0  0  0  0  0  0  0  0
  141.3923   77.3726  222.3161 H   0  0  0  0  0  0  0  0  0  0  0  0
  139.5090   76.2510  222.3560 C   0  0  1  0  0  0  0  0  0  0  0  0
  139.3167   75.8452  223.3602 H   0  0  0  0  0  0  0  0  0  0  0  0
  138.8510   77.6030  222.2960 C   0  0  0  0  0  0  0  0  0  0  0  0
  137.5940   77.6880  222.2790 O   0  0  0  0  0  0  0  0  0  0  0  0
  139.6580   78.7850  222.3070 N   0  0  0  0  0  0  0  0  0  0  0  0
  140.1010   79.4680  223.5230 C   0  0  0  0  0  0  0  0  0  0  0  0
  139.4469   79.1876  224.3617 H   0  0  0  0  0  0  0  0  0  0  0  0
  140.0090   80.9930  223.3390 C   0  0  0  0  0  0  0  0  0  0  0  0
  138.9645   81.2621  223.1230 H   0  0  0  0  0  0  0  0  0  0  0  0
  140.3592   81.4685  224.2670 H   0  0  0  0  0  0  0  0  0  0  0  0
  140.9000   81.4910  222.1840 C   0  0  0  0  0  0  0  0  0  0  0  0
  140.3115   81.4667  221.2550 H   0  0  0  0  0  0  0  0  0  0  0  0
  141.2278   82.5083  222.4441 H   0  0  0  0  0  0  0  0  0  0  0  0
  142.1730   80.6430  221.9780 C   0  0  0  0  0  0  0  0  0  0  0  0
  141.9637   79.8625  221.2317 H   0  0  0  0  0  0  0  0  0  0  0  0
  142.9771   81.3117  221.6369 H   0  0  0  0  0  0  0  0  0  0  0  0
  142.6300   79.9750  223.2790 C   0  0  0  0  0  0  0  0  0  0  0  0
  143.5388   79.3889  223.0774 H   0  0  0  0  0  0  0  0  0  0  0  0
  142.8234   80.7664  224.0181 H   0  0  0  0  0  0  0  0  0  0  0  0
  141.5500   79.0370  223.8560 C   0  0  0  0  0  0  0  0  0  0  0  0
  141.7136   78.0285  223.4483 H   0  0  0  0  0  0  0  0  0  0  0  0
  141.6494   79.0715  224.9510 H   0  0  0  0  0  0  0  0  0  0  0  0
  137.5340   73.4630  221.9120 C   0  0  0  0  0  0  0  0  0  0  0  0
  136.6371   73.0237  221.4509 H   0  0  0  0  0  0  0  0  0  0  0  0
  137.3805   73.5499  222.9978 H   0  0  0  0  0  0  0  0  0  0  0  0
  138.6830   72.6100  221.6490 N   0  0  0  0  0  0  0  0  0  0  0  0
  139.8130   72.5330  222.5240 C   0  0  0  0  0  0  0  0  0  0  0  0
  140.7990   73.3010  222.3510 O   0  0  0  0  0  0  0  0  0  0  0  0
  139.8450   71.5440  223.6160 C   0  0  0  0  0  0  0  0  0  0  0  0
  140.3800   71.8960  224.8190 N   0  0  0  0  0  0  0  0  0  0  0  0
  140.4440   71.0250  225.8610 C   0  0  0  0  0  0  0  0  0  0  0  0
  141.0030   71.4290  227.0790 C   0  0  0  0  0  0  0  0  0  0  0  0
  141.3903   72.4521  227.1942 H   0  0  0  0  0  0  0  0  0  0  0  0
  141.0690   70.5310  228.1500 C   0  0  0  0  0  0  0  0  0  0  0  0
  141.5072   70.8506  229.1070 H   0  0  0  0  0  0  0  0  0  0  0  0
  140.5800   69.2290  228.0080 C   0  0  0  0  0  0  0  0  0  0  0  0
  140.6450   68.3640  229.0500 F   0  0  0  0  0  0  0  0  0  0  0  0
  140.0180   68.8160  226.7940 C   0  0  0  0  0  0  0  0  0  0  0  0
  139.6319   67.7917  226.6860 H   0  0  0  0  0  0  0  0  0  0  0  0
  139.9480   69.7110  225.7150 C   0  0  0  0  0  0  0  0  0  0  0  0
  139.3840   69.3340  224.4910 C   0  0  0  0  0  0  0  0  0  0  0  0
  138.9874   68.3168  224.3566 H   0  0  0  0  0  0  0  0  0  0  0  0
  139.3260   70.2520  223.4410 C   0  0  0  0  0  0  0  0  0  0  0  0
  138.8751   69.9637  222.4800 H   0  0  0  0  0  0  0  0  0  0  0  0
  1  2  1  0
  2  3  1  0
  3  4  2  0
  4  5  1  0
  5  6  1  0
  5  7  1  0
  5  8  1  0
  8  9  1  6
  8 10  1  0
 10 11  1  0
  8 12  1  0
 12 13  1  0
 12 14  1  0
 12 15  1  0
 15 16  1  1
 15 17  1  0
 17 18  2  0
 17 19  1  0
 19 20  1  0
 20 21  1  0
 20 22  1  0
 22 23  1  0
 22 24  1  0
 22 25  1  0
 25 26  1  0
 25 27  1  0
 25 28  1  0
 28 29  1  0
 28 30  1  0
 28 31  1  0
 31 32  1  0
 31 33  1  0
 31 34  1  0
 34 35  1  0
 34 36  1  0
  3 37  1  0
 37 38  1  0
 37 39  1  0
 37 40  1  0
 40 41  1  0
 41 42  2  0
 41 43  1  0
 43 44  2  0
 44 45  1  0
 45 46  2  0
 46 47  1  0
 46 48  1  0
 48 49  1  0
 48 50  2  0
 50 51  1  0
 50 52  1  0
 52 53  1  0
 52 54  2  0
 54 55  1  0
 55 56  1  0
 55 57  2  0
 57 58  1  0
 15  4  1  0
 34 20  1  0
 57 43  1  0
 54 45  1  0
M  CHG  3   4   1  19  -1  40  -1
M  END
>  <UniqueID>  (67) 
140

>  <SMILES>  (67) 
O=C([N-]C/C(O)=[N+]1\C[C@H](O)C[C@H]1C(=O)[N-]C1CCCCC1)c1ccc2cc(F)ccc2n1

>  <Energy>  (67) 
60.398563280778

>  <Genealogy>  (67) 
O=C([N-]CC(=O)[NH+]1C[C@H](O)C[C@H]1C(=O)[N-]C1CCCCC1)c1ccc2cc(F)ccc2n1 (protonated)
O=C([N-]CC(O)=[N+]1C[C@H](O)C[C@H]1C(=O)[N-]C1CCCCC1)c1ccc2cc(F)ccc2n1 (tautomer)
O=C([N-]C/C(O)=[N+]1\C[C@H](O)C[C@H]1C(=O)[N-]C1CCCCC1)c1ccc2cc(F)ccc2n1 (cis-trans isomerization)
O=C([N-]C/C(O)=[N+]1\C[C@H](O)C[C@H]1C(=O)[N-]C1CCCCC1)c1ccc2cc(F)ccc2n1 (3D coordinates assigned)
O=C([N-]C/C(O)=[N+]1\C[C@H](O)C[C@H]1C(=O)[N-]C1CCCCC1)c1ccc2cc(F)ccc2n1 (nonaromatic ring conformer: 60.398563280778 kcal/mol)

>  <smiles>  (67) 
O=C(NCC(=O)N1C[C@H](O)C[C@H]1C(=O)NC1CCCCC1)c1ccc2cc(F)ccc2n1

>  <score_type>  (67) 
oracle

>  <origin>  (67) 
autodockgpu

>  <m_score__min__energy>  (67) 
-8.0299999999999994

>  <m_primary>  (67) 
energy

>  <meeko>  (67) 
{"free_energy": -7.4, "intermolecular_energy": -10.38, "internal_energy": -2.81, "cluster_size": 12, "cluster_id": 1, "rank_in_cluster": 5}

>  <energy>  (67) 
-7.36

>  <cluster_rmsd>  (67) 
1.65

>  <rmsd>  (67) 
270.38

>  <cluster>  (67) 
1

$$$$
YMXDKILJCZTOEU-DXDCNWIPNA-M
     RDKit          3D

 58 61  0  0  0  0  0  0  0  0999 V2000
  140.1620   73.2740  220.0710 H   0  0  0  0  0  0  0  0  0  0  0  0
  140.4830   74.1340  219.6460 O   0  0  0  0  0  0  0  0  0  0  0  0
  140.6990   75.3220  220.3510 C   0  0  0  0  0  0  0  0  0  0  0  0
  141.1650   76.4000  219.7520 N   0  0  0  0  0  0  0  0  0  0  0  0
  141.5920   76.4430  218.3540 C   0  0  0  0  0  0  0  0  0  0  0  0
  142.4606   75.7859  218.2000 H   0  0  0  0  0  0  0  0  0  0  0  0
  140.7949   76.0960  217.6800 H   0  0  0  0  0  0  0  0  0  0  0  0
  141.9690   77.8940  218.0700 C   0  0  2  0  0  0  0  0  0  0  0  0
  141.1845   78.4219  217.5080 H   0  0  0  0  0  0  0  0  0  0  0  0
  143.1260   77.9630  217.2790 O   0  0  0  0  0  0  0  0  0  0  0  0
  143.3220   78.9280  217.1530 H   0  0  0  0  0  0  0  0  0  0  0  0
  142.1980   78.5240  219.4430 C   0  0  0  0  0  0  0  0  0  0  0  0
  143.2614   78.4712  219.7192 H   0  0  0  0  0  0  0  0  0  0  0  0
  141.9188   79.5879  219.4591 H   0  0  0  0  0  0  0  0  0  0  0  0
  141.3510   77.6960  220.4100 C   0  0  1  0  0  0  0  0  0  0  0  0
  141.8352   77.5912  221.3921 H   0  0  0  0  0  0  0  0  0  0  0  0
  140.0210   78.3610  220.6440 C   0  0  0  0  0  0  0  0  0  0  0  0
  138.9570   77.6980  220.5140 O   0  0  0  0  0  0  0  0  0  0  0  0
  139.9760   79.7290  221.0610 N   0  0  0  0  0  0  0  0  0  0  0  0
  139.8300   80.1620  222.4510 C   0  0  0  0  0  0  0  0  0  0  0  0
  138.7811   80.4314  222.6441 H   0  0  0  0  0  0  0  0  0  0  0  0
  140.6950   81.4080  222.7130 C   0  0  0  0  0  0  0  0  0  0  0  0
  140.3719   82.2132  222.0368 H   0  0  0  0  0  0  0  0  0  0  0  0
  140.5647   81.6968  223.7664 H   0  0  0  0  0  0  0  0  0  0  0  0
  142.1930   81.1310  222.4770 C   0  0  0  0  0  0  0  0  0  0  0  0
  142.4244   81.3443  221.4230 H   0  0  0  0  0  0  0  0  0  0  0  0
  142.7538   81.7784  223.1672 H   0  0  0  0  0  0  0  0  0  0  0  0
  142.6070   79.6760  222.7830 C   0  0  0  0  0  0  0  0  0  0  0  0
  142.5421   79.0852  221.8574 H   0  0  0  0  0  0  0  0  0  0  0  0
  143.6354   79.6880  223.1731 H   0  0  0  0  0  0  0  0  0  0  0  0
  141.7030   79.0380  223.8430 C   0  0  0  0  0  0  0  0  0  0  0  0
  142.0431   78.0082  224.0270 H   0  0  0  0  0  0  0  0  0  0  0  0
  141.7678   79.6469  224.7568 H   0  0  0  0  0  0  0  0  0  0  0  0
  140.2260   79.0030  223.3960 C   0  0  0  0  0  0  0  0  0  0  0  0
  140.0447   78.0523  222.8731 H   0  0  0  0  0  0  0  0  0  0  0  0
  139.6147   79.1083  224.3044 H   0  0  0  0  0  0  0  0  0  0  0  0
  140.4050   75.2840  221.8270 C   0  0  0  0  0  0  0  0  0  0  0  0
  139.6849   76.0765  222.0789 H   0  0  0  0  0  0  0  0  0  0  0  0
  141.3349   75.4436  222.3926 H   0  0  0  0  0  0  0  0  0  0  0  0
  139.8410   73.9870  222.1710 N   0  0  0  0  0  0  0  0  0  0  0  0
  140.6350   72.8070  222.3250 C   0  0  0  0  0  0  0  0  0  0  0  0
  141.5880   72.5800  221.5310 O   0  0  0  0  0  0  0  0  0  0  0  0
  140.3340   71.8390  223.3940 C   0  0  0  0  0  0  0  0  0  0  0  0
  140.7660   72.0890  224.6620 N   0  0  0  0  0  0  0  0  0  0  0  0
  140.5260   71.2290  225.6880 C   0  0  0  0  0  0  0  0  0  0  0  0
  140.9900   71.5260  226.9740 C   0  0  0  0  0  0  0  0  0  0  0  0
  141.5494   72.4554  227.1563 H   0  0  0  0  0  0  0  0  0  0  0  0
  140.7420   70.6400  228.0280 C   0  0  0  0  0  0  0  0  0  0  0  0
  141.1060   70.8755  229.0390 H   0  0  0  0  0  0  0  0  0  0  0  0
  140.0330   69.4560  227.8010 C   0  0  0  0  0  0  0  0  0  0  0  0
  139.7950   68.6030  228.8270 F   0  0  0  0  0  0  0  0  0  0  0  0
  139.5650   69.1510  226.5180 C   0  0  0  0  0  0  0  0  0  0  0  0
  139.0075   68.2192  226.3423 H   0  0  0  0  0  0  0  0  0  0  0  0
  139.8080   70.0360  225.4550 C   0  0  0  0  0  0  0  0  0  0  0  0
  139.3450   69.7660  224.1620 C   0  0  0  0  0  0  0  0  0  0  0  0
  138.7805   68.8439  223.9594 H   0  0  0  0  0  0  0  0  0  0  0  0
  139.6020   70.6710  223.1300 C   0  0  0  0  0  0  0  0  0  0  0  0
  139.2321   70.4692  222.1139 H   0  0  0  0  0  0  0  0  0  0  0  0
  1  2  1  0
  2  3  1  0
  3  4  2  0
  4  5  1  0
  5  6  1  0
  5  7  1  0
  5  8  1  0
  8  9  1  6
  8 10  1  0
 10 11  1  0
  8 12  1  0
 12 13  1  0
 12 14  1  0
 12 15  1  0
 15 16  1  1
 15 17  1  0
 17 18  2  0
 17 19  1  0
 19 20  1  0
 20 21  1  0
 20 22  1  0
 22 23  1  0
 22 24  1  0
 22 25  1  0
 25 26  1  0
 25 27  1  0
 25 28  1  0
 28 29  1  0
 28 30  1  0
 28 31  1  0
 31 32  1  0
 31 33  1  0
 31 34  1  0
 34 35  1  0
 34 36  1  0
  3 37  1  0
 37 38  1  0
 37 39  1  0
 37 40  1  0
 40 41  1  0
 41 42  2  0
 41 43  1  0
 43 44  2  0
 44 45  1  0
 45 46  2  0
 46 47  1  0
 46 48  1  0
 48 49  1  0
 48 50  2  0
 50 51  1  0
 50 52  1  0
 52 53  1  0
 52 54  2  0
 54 55  1  0
 55 56  1  0
 55 57  2  0
 57 58  1  0
 15  4  1  0
 34 20  1  0
 57 43  1  0
 54 45  1  0
M  CHG  3   4   1  19  -1  40  -1
M  END
>  <UniqueID>  (68) 
140

>  <SMILES>  (68) 
O=C([N-]C/C(O)=[N+]1\C[C@H](O)C[C@H]1C(=O)[N-]C1CCCCC1)c1ccc2cc(F)ccc2n1

>  <Energy>  (68) 
60.398563280778

>  <Genealogy>  (68) 
O=C([N-]CC(=O)[NH+]1C[C@H](O)C[C@H]1C(=O)[N-]C1CCCCC1)c1ccc2cc(F)ccc2n1 (protonated)
O=C([N-]CC(O)=[N+]1C[C@H](O)C[C@H]1C(=O)[N-]C1CCCCC1)c1ccc2cc(F)ccc2n1 (tautomer)
O=C([N-]C/C(O)=[N+]1\C[C@H](O)C[C@H]1C(=O)[N-]C1CCCCC1)c1ccc2cc(F)ccc2n1 (cis-trans isomerization)
O=C([N-]C/C(O)=[N+]1\C[C@H](O)C[C@H]1C(=O)[N-]C1CCCCC1)c1ccc2cc(F)ccc2n1 (3D coordinates assigned)
O=C([N-]C/C(O)=[N+]1\C[C@H](O)C[C@H]1C(=O)[N-]C1CCCCC1)c1ccc2cc(F)ccc2n1 (nonaromatic ring conformer: 60.398563280778 kcal/mol)

>  <smiles>  (68) 
O=C(NCC(=O)N1C[C@H](O)C[C@H]1C(=O)NC1CCCCC1)c1ccc2cc(F)ccc2n1

>  <score_type>  (68) 
oracle

>  <origin>  (68) 
autodockgpu

>  <m_score__min__energy>  (68) 
-8.0299999999999994

>  <m_primary>  (68) 
energy

>  <meeko>  (68) 
{"free_energy": -7.08, "intermolecular_energy": -10.06, "internal_energy": -3.14, "cluster_size": 12, "cluster_id": 1, "rank_in_cluster": 12}

>  <energy>  (68) 
-7.29

>  <cluster_rmsd>  (68) 
1.64

>  <rmsd>  (68) 
270.28

>  <cluster>  (68) 
1

$$$$
YMXDKILJCZTOEU-DXDCNWIPNA-M
     RDKit          3D

 58 61  0  0  0  0  0  0  0  0999 V2000
  139.2900   73.9200  220.0160 H   0  0  0  0  0  0  0  0  0  0  0  0
  139.8820   74.5570  219.5000 O   0  0  0  0  0  0  0  0  0  0  0  0
  141.0730   75.0960  219.9970 C   0  0  0  0  0  0  0  0  0  0  0  0
  141.8620   75.8330  219.2400 N   0  0  0  0  0  0  0  0  0  0  0  0
  141.8130   77.2930  219.1800 C   0  0  0  0  0  0  0  0  0  0  0  0
  140.8459   77.6260  218.7752 H   0  0  0  0  0  0  0  0  0  0  0  0
  141.9213   77.7397  220.1794 H   0  0  0  0  0  0  0  0  0  0  0  0
  142.9490   77.7180  218.2540 C   0  0  2  0  0  0  0  0  0  0  0  0
  143.8181   78.0953  218.8129 H   0  0  0  0  0  0  0  0  0  0  0  0
  142.5430   78.7670  217.4150 O   0  0  0  0  0  0  0  0  0  0  0  0
  143.3730   79.1700  217.0490 H   0  0  0  0  0  0  0  0  0  0  0  0
  143.2980   76.4670  217.4490 C   0  0  0  0  0  0  0  0  0  0  0  0
  142.7450   76.4533  216.4982 H   0  0  0  0  0  0  0  0  0  0  0  0
  144.3673   76.4268  217.1943 H   0  0  0  0  0  0  0  0  0  0  0  0
  142.8760   75.2920  218.3320 C   0  0  1  0  0  0  0  0  0  0  0  0
  142.4869   74.4520  217.7379 H   0  0  0  0  0  0  0  0  0  0  0  0
  144.0540   74.7700  219.1100 C   0  0  0  0  0  0  0  0  0  0  0  0
  144.3920   75.3310  220.1870 O   0  0  0  0  0  0  0  0  0  0  0  0
  144.7520   73.6110  218.6460 N   0  0  0  0  0  0  0  0  0  0  0  0
  145.3020   72.5750  219.5200 C   0  0  0  0  0  0  0  0  0  0  0  0
  146.3552   72.8023  219.7415 H   0  0  0  0  0  0  0  0  0  0  0  0
  145.2500   71.2060  218.8200 C   0  0  0  0  0  0  0  0  0  0  0  0
  145.8390   71.2591  217.8925 H   0  0  0  0  0  0  0  0  0  0  0  0
  145.6615   70.4559  219.5113 H   0  0  0  0  0  0  0  0  0  0  0  0
  143.8080   70.7890  218.4700 C   0  0  0  0  0  0  0  0  0  0  0  0
  143.5683   71.1723  217.4672 H   0  0  0  0  0  0  0  0  0  0  0  0
  143.7681   69.6907  218.5172 H   0  0  0  0  0  0  0  0  0  0  0  0
  142.7540   71.3250  219.4630 C   0  0  0  0  0  0  0  0  0  0  0  0
  142.3698   72.2859  219.0900 H   0  0  0  0  0  0  0  0  0  0  0  0
  141.9483   70.5802  219.5411 H   0  0  0  0  0  0  0  0  0  0  0  0
  143.3440   71.5360  220.8610 C   0  0  0  0  0  0  0  0  0  0  0  0
  142.5536   71.9120  221.5272 H   0  0  0  0  0  0  0  0  0  0  0  0
  143.7355   70.5707  221.2143 H   0  0  0  0  0  0  0  0  0  0  0  0
  144.5090   72.5480  220.8490 C   0  0  0  0  0  0  0  0  0  0  0  0
  144.0973   73.5524  221.0272 H   0  0  0  0  0  0  0  0  0  0  0  0
  145.2125   72.2347  221.6345 H   0  0  0  0  0  0  0  0  0  0  0  0
  141.4130   74.7570  221.4250 C   0  0  0  0  0  0  0  0  0  0  0  0
  141.5635   75.6844  221.9972 H   0  0  0  0  0  0  0  0  0  0  0  0
  142.3355   74.1585  221.4524 H   0  0  0  0  0  0  0  0  0  0  0  0
  140.3200   73.9960  222.0110 N   0  0  0  0  0  0  0  0  0  0  0  0
  140.1850   72.5800  221.8590 C   0  0  0  0  0  0  0  0  0  0  0  0
  140.1400   72.0710  220.7050 O   0  0  0  0  0  0  0  0  0  0  0  0
  140.0760   71.7080  223.0410 C   0  0  0  0  0  0  0  0  0  0  0  0
  140.6200   72.1150  224.2230 N   0  0  0  0  0  0  0  0  0  0  0  0
  140.5580   71.3510  225.3460 C   0  0  0  0  0  0  0  0  0  0  0  0
  141.1310   71.8090  226.5380 C   0  0  0  0  0  0  0  0  0  0  0  0
  141.6321   72.7878  226.5674 H   0  0  0  0  0  0  0  0  0  0  0  0
  141.0660   71.0210  227.6920 C   0  0  0  0  0  0  0  0  0  0  0  0
  141.5154   71.3830  228.6285 H   0  0  0  0  0  0  0  0  0  0  0  0
  140.4320   69.7750  227.6600 C   0  0  0  0  0  0  0  0  0  0  0  0
  140.3710   69.0180  228.7820 F   0  0  0  0  0  0  0  0  0  0  0  0
  139.8540   69.3100  226.4720 C   0  0  0  0  0  0  0  0  0  0  0  0
  139.3536   68.3307  226.4497 H   0  0  0  0  0  0  0  0  0  0  0  0
  139.9140   70.0950  225.3100 C   0  0  0  0  0  0  0  0  0  0  0  0
  139.3390   69.6640  224.1090 C   0  0  0  0  0  0  0  0  0  0  0  0
  138.8300   68.6901  224.0597 H   0  0  0  0  0  0  0  0  0  0  0  0
  139.4130   70.4730  222.9740 C   0  0  0  0  0  0  0  0  0  0  0  0
  138.9533   70.1437  222.0305 H   0  0  0  0  0  0  0  0  0  0  0  0
  1  2  1  0
  2  3  1  0
  3  4  2  0
  4  5  1  0
  5  6  1  0
  5  7  1  0
  5  8  1  0
  8  9  1  1
  8 10  1  0
 10 11  1  0
  8 12  1  0
 12 13  1  0
 12 14  1  0
 12 15  1  0
 15 16  1  6
 15 17  1  0
 17 18  2  0
 17 19  1  0
 19 20  1  0
 20 21  1  0
 20 22  1  0
 22 23  1  0
 22 24  1  0
 22 25  1  0
 25 26  1  0
 25 27  1  0
 25 28  1  0
 28 29  1  0
 28 30  1  0
 28 31  1  0
 31 32  1  0
 31 33  1  0
 31 34  1  0
 34 35  1  0
 34 36  1  0
  3 37  1  0
 37 38  1  0
 37 39  1  0
 37 40  1  0
 40 41  1  0
 41 42  2  0
 41 43  1  0
 43 44  2  0
 44 45  1  0
 45 46  2  0
 46 47  1  0
 46 48  1  0
 48 49  1  0
 48 50  2  0
 50 51  1  0
 50 52  1  0
 52 53  1  0
 52 54  2  0
 54 55  1  0
 55 56  1  0
 55 57  2  0
 57 58  1  0
 15  4  1  0
 34 20  1  0
 57 43  1  0
 54 45  1  0
M  CHG  3   4   1  19  -1  40  -1
M  END
>  <UniqueID>  (69) 
140

>  <SMILES>  (69) 
O=C([N-]C/C(O)=[N+]1\C[C@H](O)C[C@H]1C(=O)[N-]C1CCCCC1)c1ccc2cc(F)ccc2n1

>  <Energy>  (69) 
60.398563280778

>  <Genealogy>  (69) 
O=C([N-]CC(=O)[NH+]1C[C@H](O)C[C@H]1C(=O)[N-]C1CCCCC1)c1ccc2cc(F)ccc2n1 (protonated)
O=C([N-]CC(O)=[N+]1C[C@H](O)C[C@H]1C(=O)[N-]C1CCCCC1)c1ccc2cc(F)ccc2n1 (tautomer)
O=C([N-]C/C(O)=[N+]1\C[C@H](O)C[C@H]1C(=O)[N-]C1CCCCC1)c1ccc2cc(F)ccc2n1 (cis-trans isomerization)
O=C([N-]C/C(O)=[N+]1\C[C@H](O)C[C@H]1C(=O)[N-]C1CCCCC1)c1ccc2cc(F)ccc2n1 (3D coordinates assigned)
O=C([N-]C/C(O)=[N+]1\C[C@H](O)C[C@H]1C(=O)[N-]C1CCCCC1)c1ccc2cc(F)ccc2n1 (nonaromatic ring conformer: 60.398563280778 kcal/mol)

>  <smiles>  (69) 
O=C(NCC(=O)N1C[C@H](O)C[C@H]1C(=O)NC1CCCCC1)c1ccc2cc(F)ccc2n1

>  <score_type>  (69) 
oracle

>  <origin>  (69) 
autodockgpu

>  <m_score__min__energy>  (69) 
-8.0299999999999994

>  <m_primary>  (69) 
energy

>  <meeko>  (69) 
{"free_energy": -6.4, "intermolecular_energy": -9.38, "internal_energy": -3.63, "cluster_size": 1, "cluster_id": 7, "rank_in_cluster": 1}

>  <energy>  (69) 
-7.17

>  <cluster_rmsd>  (69) 
0.83

>  <rmsd>  (69) 
270.03

>  <cluster>  (69) 
1

$$$$
YMXDKILJCZTOEU-DXDCNWIPNA-M
     RDKit          3D

 58 61  0  0  0  0  0  0  0  0999 V2000
  139.0020   74.2340  223.0530 H   0  0  0  0  0  0  0  0  0  0  0  0
  139.2260   75.1490  222.6860 O   0  0  0  0  0  0  0  0  0  0  0  0
  140.1460   75.3750  221.6560 C   0  0  0  0  0  0  0  0  0  0  0  0
  140.2040   76.5330  221.0290 N   0  0  0  0  0  0  0  0  0  0  0  0
  139.2660   76.9510  219.9880 C   0  0  0  0  0  0  0  0  0  0  0  0
  139.3493   76.2909  219.1121 H   0  0  0  0  0  0  0  0  0  0  0  0
  138.2254   76.8981  220.3408 H   0  0  0  0  0  0  0  0  0  0  0  0
  139.6550   78.3780  219.6140 C   0  0  2  0  0  0  0  0  0  0  0  0
  138.9805   79.1211  220.0644 H   0  0  0  0  0  0  0  0  0  0  0  0
  139.5730   78.5700  218.2260 O   0  0  0  0  0  0  0  0  0  0  0  0
  138.8240   79.2040  218.0750 H   0  0  0  0  0  0  0  0  0  0  0  0
  141.0900   78.5450  220.1120 C   0  0  0  0  0  0  0  0  0  0  0  0
  141.8062   78.3115  219.3104 H   0  0  0  0  0  0  0  0  0  0  0  0
  141.2972   79.5770  220.4313 H   0  0  0  0  0  0  0  0  0  0  0  0
  141.2320   77.5500  221.2650 C   0  0  1  0  0  0  0  0  0  0  0  0
  142.2399   77.1115  221.3064 H   0  0  0  0  0  0  0  0  0  0  0  0
  140.9980   78.2380  222.5840 C   0  0  0  0  0  0  0  0  0  0  0  0
  141.8530   78.1360  223.5040 O   0  0  0  0  0  0  0  0  0  0  0  0
  139.8290   79.0420  222.7660 N   0  0  0  0  0  0  0  0  0  0  0  0
  139.8060   80.3100  223.4950 C   0  0  0  0  0  0  0  0  0  0  0  0
  139.4877   80.1323  224.5328 H   0  0  0  0  0  0  0  0  0  0  0  0
  138.7970   81.2760  222.8490 C   0  0  0  0  0  0  0  0  0  0  0  0
  137.7985   80.8153  222.8743 H   0  0  0  0  0  0  0  0  0  0  0  0
  138.8164   82.2171  223.4181 H   0  0  0  0  0  0  0  0  0  0  0  0
  139.1590   81.5980  221.3860 C   0  0  0  0  0  0  0  0  0  0  0  0
  138.6747   80.8546  220.7358 H   0  0  0  0  0  0  0  0  0  0  0  0
  138.8085   82.6208  221.1836 H   0  0  0  0  0  0  0  0  0  0  0  0
  140.6770   81.5750  221.1080 C   0  0  0  0  0  0  0  0  0  0  0  0
  140.9604   80.5697  220.7629 H   0  0  0  0  0  0  0  0  0  0  0  0
  140.8952   82.3329  220.3412 H   0  0  0  0  0  0  0  0  0  0  0  0
  141.4910   81.9170  222.3600 C   0  0  0  0  0  0  0  0  0  0  0  0
  142.5610   81.8920  222.1060 H   0  0  0  0  0  0  0  0  0  0  0  0
  141.1868   82.9177  222.7008 H   0  0  0  0  0  0  0  0  0  0  0  0
  141.2280   80.9210  223.5090 C   0  0  0  0  0  0  0  0  0  0  0  0
  141.9579   80.1018  223.4313 H   0  0  0  0  0  0  0  0  0  0  0  0
  141.3246   81.4844  224.4488 H   0  0  0  0  0  0  0  0  0  0  0  0
  141.0320   74.2140  221.2870 C   0  0  0  0  0  0  0  0  0  0  0  0
  142.0668   74.5660  221.1633 H   0  0  0  0  0  0  0  0  0  0  0  0
  140.6834   73.7693  220.3432 H   0  0  0  0  0  0  0  0  0  0  0  0
  140.9810   73.2160  222.3450 N   0  0  0  0  0  0  0  0  0  0  0  0
  139.8510   72.3630  222.5580 C   0  0  0  0  0  0  0  0  0  0  0  0
  138.8320   72.4680  221.8210 O   0  0  0  0  0  0  0  0  0  0  0  0
  139.8580   71.3750  223.6500 C   0  0  0  0  0  0  0  0  0  0  0  0
  140.4150   71.7070  224.8490 N   0  0  0  0  0  0  0  0  0  0  0  0
  140.4580   70.8340  225.8910 C   0  0  0  0  0  0  0  0  0  0  0  0
  141.0400   71.2190  227.1040 C   0  0  0  0  0  0  0  0  0  0  0  0
  141.4625   72.2284  227.2160 H   0  0  0  0  0  0  0  0  0  0  0  0
  141.0840   70.3190  228.1740 C   0  0  0  0  0  0  0  0  0  0  0  0
  141.5421   70.6227  229.1269 H   0  0  0  0  0  0  0  0  0  0  0  0
  140.5480   69.0350  228.0370 C   0  0  0  0  0  0  0  0  0  0  0  0
  140.5920   68.1680  229.0780 F   0  0  0  0  0  0  0  0  0  0  0  0
  139.9620   68.6420  226.8270 C   0  0  0  0  0  0  0  0  0  0  0  0
  139.5400   67.6316  226.7220 H   0  0  0  0  0  0  0  0  0  0  0  0
  139.9140   69.5390  225.7490 C   0  0  0  0  0  0  0  0  0  0  0  0
  139.3270   69.1820  224.5300 C   0  0  0  0  0  0  0  0  0  0  0  0
  138.8940   68.1792  224.3995 H   0  0  0  0  0  0  0  0  0  0  0  0
  139.2920   70.1010  223.4800 C   0  0  0  0  0  0  0  0  0  0  0  0
  138.8229   69.8284  222.5231 H   0  0  0  0  0  0  0  0  0  0  0  0
  1  2  1  0
  2  3  1  0
  3  4  2  0
  4  5  1  0
  5  6  1  0
  5  7  1  0
  5  8  1  0
  8  9  1  1
  8 10  1  0
 10 11  1  0
  8 12  1  0
 12 13  1  0
 12 14  1  0
 12 15  1  0
 15 16  1  1
 15 17  1  0
 17 18  2  0
 17 19  1  0
 19 20  1  0
 20 21  1  0
 20 22  1  0
 22 23  1  0
 22 24  1  0
 22 25  1  0
 25 26  1  0
 25 27  1  0
 25 28  1  0
 28 29  1  0
 28 30  1  0
 28 31  1  0
 31 32  1  0
 31 33  1  0
 31 34  1  0
 34 35  1  0
 34 36  1  0
  3 37  1  0
 37 38  1  0
 37 39  1  0
 37 40  1  0
 40 41  1  0
 41 42  2  0
 41 43  1  0
 43 44  2  0
 44 45  1  0
 45 46  2  0
 46 47  1  0
 46 48  1  0
 48 49  1  0
 48 50  2  0
 50 51  1  0
 50 52  1  0
 52 53  1  0
 52 54  2  0
 54 55  1  0
 55 56  1  0
 55 57  2  0
 57 58  1  0
 15  4  1  0
 34 20  1  0
 57 43  1  0
 54 45  1  0
M  CHG  3   4   1  19  -1  40  -1
M  END
>  <UniqueID>  (70) 
140

>  <SMILES>  (70) 
O=C([N-]C/C(O)=[N+]1\C[C@H](O)C[C@H]1C(=O)[N-]C1CCCCC1)c1ccc2cc(F)ccc2n1

>  <Energy>  (70) 
60.398563280778

>  <Genealogy>  (70) 
O=C([N-]CC(=O)[NH+]1C[C@H](O)C[C@H]1C(=O)[N-]C1CCCCC1)c1ccc2cc(F)ccc2n1 (protonated)
O=C([N-]CC(O)=[N+]1C[C@H](O)C[C@H]1C(=O)[N-]C1CCCCC1)c1ccc2cc(F)ccc2n1 (tautomer)
O=C([N-]C/C(O)=[N+]1\C[C@H](O)C[C@H]1C(=O)[N-]C1CCCCC1)c1ccc2cc(F)ccc2n1 (cis-trans isomerization)
O=C([N-]C/C(O)=[N+]1\C[C@H](O)C[C@H]1C(=O)[N-]C1CCCCC1)c1ccc2cc(F)ccc2n1 (3D coordinates assigned)
O=C([N-]C/C(O)=[N+]1\C[C@H](O)C[C@H]1C(=O)[N-]C1CCCCC1)c1ccc2cc(F)ccc2n1 (nonaromatic ring conformer: 60.398563280778 kcal/mol)

>  <smiles>  (70) 
O=C(NCC(=O)N1C[C@H](O)C[C@H]1C(=O)NC1CCCCC1)c1ccc2cc(F)ccc2n1

>  <score_type>  (70) 
oracle

>  <origin>  (70) 
autodockgpu

>  <m_score__min__energy>  (70) 
-8.0299999999999994

>  <m_primary>  (70) 
energy

>  <meeko>  (70) 
{"free_energy": -7.29, "intermolecular_energy": -10.28, "internal_energy": -2.96, "cluster_size": 12, "cluster_id": 1, "rank_in_cluster": 8}

>  <energy>  (70) 
-7.17

>  <cluster_rmsd>  (70) 
1.06

>  <rmsd>  (70) 
270.01

>  <cluster>  (70) 
1

$$$$
YMXDKILJCZTOEU-DXDCNWIPNA-M
     RDKit          3D

 58 61  0  0  0  0  0  0  0  0999 V2000
  139.1890   74.2830  222.6970 H   0  0  0  0  0  0  0  0  0  0  0  0
  140.0950   74.0570  222.3080 O   0  0  0  0  0  0  0  0  0  0  0  0
  140.5940   74.6020  221.1200 C   0  0  0  0  0  0  0  0  0  0  0  0
  141.8480   74.4210  220.7560 N   0  0  0  0  0  0  0  0  0  0  0  0
  142.6030   73.1910  220.9930 C   0  0  0  0  0  0  0  0  0  0  0  0
  142.7232   73.0194  222.0729 H   0  0  0  0  0  0  0  0  0  0  0  0
  142.0833   72.3151  220.5773 H   0  0  0  0  0  0  0  0  0  0  0  0
  143.9640   73.3940  220.3350 C   0  0  2  0  0  0  0  0  0  0  0  0
  144.0389   72.8688  219.3714 H   0  0  0  0  0  0  0  0  0  0  0  0
  144.9900   72.8750  221.1390 O   0  0  0  0  0  0  0  0  0  0  0  0
  144.8350   71.8960  221.1950 H   0  0  0  0  0  0  0  0  0  0  0  0
  144.1040   74.9060  220.1640 C   0  0  0  0  0  0  0  0  0  0  0  0
  144.6343   75.3440  221.0225 H   0  0  0  0  0  0  0  0  0  0  0  0
  144.6843   75.1666  219.2666 H   0  0  0  0  0  0  0  0  0  0  0  0
  142.6710   75.4350  220.0920 C   0  0  1  0  0  0  0  0  0  0  0  0
  142.5738   76.4198  220.5723 H   0  0  0  0  0  0  0  0  0  0  0  0
  142.2440   75.6020  218.6590 C   0  0  0  0  0  0  0  0  0  0  0  0
  142.0720   74.5860  217.9330 O   0  0  0  0  0  0  0  0  0  0  0  0
  141.9880   76.9120  218.1430 N   0  0  0  0  0  0  0  0  0  0  0  0
  140.8760   77.7620  218.5680 C   0  0  0  0  0  0  0  0  0  0  0  0
  139.9925   77.1385  218.7698 H   0  0  0  0  0  0  0  0  0  0  0  0
  140.5100   78.7550  217.4510 C   0  0  0  0  0  0  0  0  0  0  0  0
  140.2234   78.1889  216.5524 H   0  0  0  0  0  0  0  0  0  0  0  0
  139.6784   79.3790  217.8102 H   0  0  0  0  0  0  0  0  0  0  0  0
  141.6870   79.6870  217.0980 C   0  0  0  0  0  0  0  0  0  0  0  0
  142.2841   79.2092  216.3073 H   0  0  0  0  0  0  0  0  0  0  0  0
  141.2544   80.6450  216.7738 H   0  0  0  0  0  0  0  0  0  0  0  0
  142.6140   79.9900  218.2940 C   0  0  0  0  0  0  0  0  0  0  0  0
  143.4363   79.2594  218.3012 H   0  0  0  0  0  0  0  0  0  0  0  0
  142.9966   81.0149  218.1789 H   0  0  0  0  0  0  0  0  0  0  0  0
  141.8660   79.9080  219.6290 C   0  0  0  0  0  0  0  0  0  0  0  0
  142.5680   80.1369  220.4443 H   0  0  0  0  0  0  0  0  0  0  0  0
  141.0394   80.6333  219.6010 H   0  0  0  0  0  0  0  0  0  0  0  0
  141.2640   78.5070  219.8680 C   0  0  0  0  0  0  0  0  0  0  0  0
  142.0049   77.8990  220.4079 H   0  0  0  0  0  0  0  0  0  0  0  0
  140.3372   78.6511  220.4426 H   0  0  0  0  0  0  0  0  0  0  0  0
  139.6320   75.4300  220.3110 C   0  0  0  0  0  0  0  0  0  0  0  0
  139.5341   74.9996  219.3035 H   0  0  0  0  0  0  0  0  0  0  0  0
  140.0088   76.4605  220.2325 H   0  0  0  0  0  0  0  0  0  0  0  0
  138.3320   75.4350  220.9660 N   0  0  0  0  0  0  0  0  0  0  0  0
  138.1040   76.0430  222.2420 C   0  0  0  0  0  0  0  0  0  0  0  0
  137.3620   75.4730  223.0890 O   0  0  0  0  0  0  0  0  0  0  0  0
  138.7130   77.3440  222.5680 C   0  0  0  0  0  0  0  0  0  0  0  0
  140.0640   77.4280  222.7230 N   0  0  0  0  0  0  0  0  0  0  0  0
  140.6830   78.5990  223.0320 C   0  0  0  0  0  0  0  0  0  0  0  0
  142.0730   78.6400  223.1830 C   0  0  0  0  0  0  0  0  0  0  0  0
  142.6676   77.7239  223.0515 H   0  0  0  0  0  0  0  0  0  0  0  0
  142.7070   79.8450  223.5010 C   0  0  0  0  0  0  0  0  0  0  0  0
  143.8003   79.8746  223.6187 H   0  0  0  0  0  0  0  0  0  0  0  0
  141.9560   81.0130  223.6700 C   0  0  0  0  0  0  0  0  0  0  0  0
  142.5760   82.1780  223.9770 F   0  0  0  0  0  0  0  0  0  0  0  0
  140.5640   80.9820  223.5200 C   0  0  0  0  0  0  0  0  0  0  0  0
  139.9752   81.9016  223.6528 H   0  0  0  0  0  0  0  0  0  0  0  0
  139.9210   79.7760  223.2000 C   0  0  0  0  0  0  0  0  0  0  0  0
  138.5330   79.7130  223.0330 C   0  0  0  0  0  0  0  0  0  0  0  0
  137.9212   80.6188  223.1560 H   0  0  0  0  0  0  0  0  0  0  0  0
  137.9270   78.4980  222.7100 C   0  0  0  0  0  0  0  0  0  0  0  0
  136.8376   78.4451  222.5673 H   0  0  0  0  0  0  0  0  0  0  0  0
  1  2  1  0
  2  3  1  0
  3  4  2  0
  4  5  1  0
  5  6  1  0
  5  7  1  0
  5  8  1  0
  8  9  1  6
  8 10  1  0
 10 11  1  0
  8 12  1  0
 12 13  1  0
 12 14  1  0
 12 15  1  0
 15 16  1  1
 15 17  1  0
 17 18  2  0
 17 19  1  0
 19 20  1  0
 20 21  1  0
 20 22  1  0
 22 23  1  0
 22 24  1  0
 22 25  1  0
 25 26  1  0
 25 27  1  0
 25 28  1  0
 28 29  1  0
 28 30  1  0
 28 31  1  0
 31 32  1  0
 31 33  1  0
 31 34  1  0
 34 35  1  0
 34 36  1  0
  3 37  1  0
 37 38  1  0
 37 39  1  0
 37 40  1  0
 40 41  1  0
 41 42  2  0
 41 43  1  0
 43 44  2  0
 44 45  1  0
 45 46  2  0
 46 47  1  0
 46 48  1  0
 48 49  1  0
 48 50  2  0
 50 51  1  0
 50 52  1  0
 52 53  1  0
 52 54  2  0
 54 55  1  0
 55 56  1  0
 55 57  2  0
 57 58  1  0
 15  4  1  0
 34 20  1  0
 57 43  1  0
 54 45  1  0
M  CHG  3   4   1  19  -1  40  -1
M  END
>  <UniqueID>  (71) 
140

>  <SMILES>  (71) 
O=C([N-]C/C(O)=[N+]1\C[C@H](O)C[C@H]1C(=O)[N-]C1CCCCC1)c1ccc2cc(F)ccc2n1

>  <Energy>  (71) 
60.398563280778

>  <Genealogy>  (71) 
O=C([N-]CC(=O)[NH+]1C[C@H](O)C[C@H]1C(=O)[N-]C1CCCCC1)c1ccc2cc(F)ccc2n1 (protonated)
O=C([N-]CC(O)=[N+]1C[C@H](O)C[C@H]1C(=O)[N-]C1CCCCC1)c1ccc2cc(F)ccc2n1 (tautomer)
O=C([N-]C/C(O)=[N+]1\C[C@H](O)C[C@H]1C(=O)[N-]C1CCCCC1)c1ccc2cc(F)ccc2n1 (cis-trans isomerization)
O=C([N-]C/C(O)=[N+]1\C[C@H](O)C[C@H]1C(=O)[N-]C1CCCCC1)c1ccc2cc(F)ccc2n1 (3D coordinates assigned)
O=C([N-]C/C(O)=[N+]1\C[C@H](O)C[C@H]1C(=O)[N-]C1CCCCC1)c1ccc2cc(F)ccc2n1 (nonaromatic ring conformer: 60.398563280778 kcal/mol)

>  <smiles>  (71) 
O=C(NCC(=O)N1C[C@H](O)C[C@H]1C(=O)NC1CCCCC1)c1ccc2cc(F)ccc2n1

>  <score_type>  (71) 
oracle

>  <origin>  (71) 
autodockgpu

>  <m_score__min__energy>  (71) 
-8.0299999999999994

>  <m_primary>  (71) 
energy

>  <meeko>  (71) 
{"free_energy": -5.41, "intermolecular_energy": -8.39, "internal_energy": -3.99, "cluster_size": 1, "cluster_id": 8, "rank_in_cluster": 1}

>  <energy>  (71) 
-7.11

>  <cluster_rmsd>  (71) 
1.46

>  <rmsd>  (71) 
269.9

>  <cluster>  (71) 
1

$$$$
YMXDKILJCZTOEU-DXDCNWIPNA-M
     RDKit          3D

 58 61  0  0  0  0  0  0  0  0999 V2000
  138.9490   74.1990  223.0670 H   0  0  0  0  0  0  0  0  0  0  0  0
  139.2260   75.0900  222.6780 O   0  0  0  0  0  0  0  0  0  0  0  0
  140.1580   75.2380  221.6450 C   0  0  0  0  0  0  0  0  0  0  0  0
  140.3350   76.3960  221.0410 N   0  0  0  0  0  0  0  0  0  0  0  0
  139.5280   76.8680  219.9170 C   0  0  0  0  0  0  0  0  0  0  0  0
  139.6654   76.2103  219.0461 H   0  0  0  0  0  0  0  0  0  0  0  0
  138.4561   76.8658  220.1640 H   0  0  0  0  0  0  0  0  0  0  0  0
  140.0230   78.2760  219.6000 C   0  0  2  0  0  0  0  0  0  0  0  0
  139.3446   79.0494  219.9895 H   0  0  0  0  0  0  0  0  0  0  0  0
  140.0890   78.4820  218.2140 O   0  0  0  0  0  0  0  0  0  0  0  0
  139.8460   77.6180  217.7900 H   0  0  0  0  0  0  0  0  0  0  0  0
  141.4070   78.3670  220.2410 C   0  0  0  0  0  0  0  0  0  0  0  0
  142.1877   78.1031  219.5124 H   0  0  0  0  0  0  0  0  0  0  0  0
  141.6318   79.3851  220.5916 H   0  0  0  0  0  0  0  0  0  0  0  0
  141.3830   77.3590  221.3900 C   0  0  1  0  0  0  0  0  0  0  0  0
  142.3590   76.8703  221.5262 H   0  0  0  0  0  0  0  0  0  0  0  0
  141.0530   78.0480  222.6870 C   0  0  0  0  0  0  0  0  0  0  0  0
  141.8070   77.8990  223.6860 O   0  0  0  0  0  0  0  0  0  0  0  0
  139.9100   78.9060  222.7620 N   0  0  0  0  0  0  0  0  0  0  0  0
  139.8680   80.1570  223.5190 C   0  0  0  0  0  0  0  0  0  0  0  0
  139.3850   79.9829  224.4918 H   0  0  0  0  0  0  0  0  0  0  0  0
  139.0400   81.2090  222.7590 C   0  0  0  0  0  0  0  0  0  0  0  0
  138.0187   80.8245  222.6204 H   0  0  0  0  0  0  0  0  0  0  0  0
  139.0400   82.1347  223.3531 H   0  0  0  0  0  0  0  0  0  0  0  0
  139.6420   81.5310  221.3770 C   0  0  0  0  0  0  0  0  0  0  0  0
  139.2104   80.8385  220.6394 H   0  0  0  0  0  0  0  0  0  0  0  0
  139.3998   82.5809  221.1554 H   0  0  0  0  0  0  0  0  0  0  0  0
  141.1790   81.4000  221.3290 C   0  0  0  0  0  0  0  0  0  0  0  0
  141.4394   80.3834  220.9992 H   0  0  0  0  0  0  0  0  0  0  0  0
  141.5642   82.1547  220.6275 H   0  0  0  0  0  0  0  0  0  0  0  0
  141.8160   81.6550  222.6990 C   0  0  0  0  0  0  0  0  0  0  0  0
  142.9076   81.5545  222.6077 H   0  0  0  0  0  0  0  0  0  0  0  0
  141.5361   82.6688  223.0212 H   0  0  0  0  0  0  0  0  0  0  0  0
  141.3110   80.6590  223.7640 C   0  0  0  0  0  0  0  0  0  0  0  0
  141.9839   79.7888  223.7711 H   0  0  0  0  0  0  0  0  0  0  0  0
  141.3037   81.1951  224.7245 H   0  0  0  0  0  0  0  0  0  0  0  0
  140.9120   73.9970  221.2460 C   0  0  0  0  0  0  0  0  0  0  0  0
  141.9560   74.2585  221.0189 H   0  0  0  0  0  0  0  0  0  0  0  0
  140.4450   73.5529  220.3545 H   0  0  0  0  0  0  0  0  0  0  0  0
  140.8780   73.0400  222.3420 N   0  0  0  0  0  0  0  0  0  0  0  0
  139.7380   72.2270  222.6320 C   0  0  0  0  0  0  0  0  0  0  0  0
  138.6770   72.3640  221.9620 O   0  0  0  0  0  0  0  0  0  0  0  0
  139.7830   71.2400  223.7250 C   0  0  0  0  0  0  0  0  0  0  0  0
  140.3330   71.5940  224.9210 N   0  0  0  0  0  0  0  0  0  0  0  0
  140.4090   70.7250  225.9640 C   0  0  0  0  0  0  0  0  0  0  0  0
  140.9840   71.1300  227.1740 C   0  0  0  0  0  0  0  0  0  0  0  0
  141.3747   72.1526  227.2820 H   0  0  0  0  0  0  0  0  0  0  0  0
  141.0620   70.2350  228.2460 C   0  0  0  0  0  0  0  0  0  0  0  0
  141.5119   70.5565  229.1969 H   0  0  0  0  0  0  0  0  0  0  0  0
  140.5700   68.9330  228.1130 C   0  0  0  0  0  0  0  0  0  0  0  0
  140.6470   68.0700  229.1550 F   0  0  0  0  0  0  0  0  0  0  0  0
  139.9930   68.5180  226.9060 C   0  0  0  0  0  0  0  0  0  0  0  0
  139.6062   67.4933  226.8042 H   0  0  0  0  0  0  0  0  0  0  0  0
  139.9090   69.4110  225.8270 C   0  0  0  0  0  0  0  0  0  0  0  0
  139.3300   69.0320  224.6110 C   0  0  0  0  0  0  0  0  0  0  0  0
  138.9315   68.0146  224.4837 H   0  0  0  0  0  0  0  0  0  0  0  0
  139.2590   69.9480  223.5590 C   0  0  0  0  0  0  0  0  0  0  0  0
  138.7947   69.6585  222.6048 H   0  0  0  0  0  0  0  0  0  0  0  0
  1  2  1  0
  2  3  1  0
  3  4  2  0
  4  5  1  0
  5  6  1  0
  5  7  1  0
  5  8  1  0
  8  9  1  1
  8 10  1  0
 10 11  1  0
  8 12  1  0
 12 13  1  0
 12 14  1  0
 12 15  1  0
 15 16  1  1
 15 17  1  0
 17 18  2  0
 17 19  1  0
 19 20  1  0
 20 21  1  0
 20 22  1  0
 22 23  1  0
 22 24  1  0
 22 25  1  0
 25 26  1  0
 25 27  1  0
 25 28  1  0
 28 29  1  0
 28 30  1  0
 28 31  1  0
 31 32  1  0
 31 33  1  0
 31 34  1  0
 34 35  1  0
 34 36  1  0
  3 37  1  0
 37 38  1  0
 37 39  1  0
 37 40  1  0
 40 41  1  0
 41 42  2  0
 41 43  1  0
 43 44  2  0
 44 45  1  0
 45 46  2  0
 46 47  1  0
 46 48  1  0
 48 49  1  0
 48 50  2  0
 50 51  1  0
 50 52  1  0
 52 53  1  0
 52 54  2  0
 54 55  1  0
 55 56  1  0
 55 57  2  0
 57 58  1  0
 15  4  1  0
 34 20  1  0
 57 43  1  0
 54 45  1  0
M  CHG  3   4   1  19  -1  40  -1
M  END
>  <UniqueID>  (72) 
140

>  <SMILES>  (72) 
O=C([N-]C/C(O)=[N+]1\C[C@H](O)C[C@H]1C(=O)[N-]C1CCCCC1)c1ccc2cc(F)ccc2n1

>  <Energy>  (72) 
60.398563280778

>  <Genealogy>  (72) 
O=C([N-]CC(=O)[NH+]1C[C@H](O)C[C@H]1C(=O)[N-]C1CCCCC1)c1ccc2cc(F)ccc2n1 (protonated)
O=C([N-]CC(O)=[N+]1C[C@H](O)C[C@H]1C(=O)[N-]C1CCCCC1)c1ccc2cc(F)ccc2n1 (tautomer)
O=C([N-]C/C(O)=[N+]1\C[C@H](O)C[C@H]1C(=O)[N-]C1CCCCC1)c1ccc2cc(F)ccc2n1 (cis-trans isomerization)
O=C([N-]C/C(O)=[N+]1\C[C@H](O)C[C@H]1C(=O)[N-]C1CCCCC1)c1ccc2cc(F)ccc2n1 (3D coordinates assigned)
O=C([N-]C/C(O)=[N+]1\C[C@H](O)C[C@H]1C(=O)[N-]C1CCCCC1)c1ccc2cc(F)ccc2n1 (nonaromatic ring conformer: 60.398563280778 kcal/mol)

>  <smiles>  (72) 
O=C(NCC(=O)N1C[C@H](O)C[C@H]1C(=O)NC1CCCCC1)c1ccc2cc(F)ccc2n1

>  <score_type>  (72) 
oracle

>  <origin>  (72) 
autodockgpu

>  <m_score__min__energy>  (72) 
-8.0299999999999994

>  <m_primary>  (72) 
energy

>  <meeko>  (72) 
{"free_energy": -7.52, "intermolecular_energy": -10.5, "internal_energy": -2.95, "cluster_size": 12, "cluster_id": 1, "rank_in_cluster": 4}

>  <energy>  (72) 
-7.08

>  <cluster_rmsd>  (72) 
1.42

>  <rmsd>  (72) 
270.06

>  <cluster>  (72) 
1

$$$$
YMXDKILJCZTOEU-DXDCNWIPNA-M
     RDKit          3D

 58 61  0  0  0  0  0  0  0  0999 V2000
  141.4990   74.4800  221.6090 H   0  0  0  0  0  0  0  0  0  0  0  0
  142.2830   74.5760  220.9780 O   0  0  0  0  0  0  0  0  0  0  0  0
  142.7850   73.5340  220.1900 C   0  0  0  0  0  0  0  0  0  0  0  0
  143.3490   73.7680  219.0220 N   0  0  0  0  0  0  0  0  0  0  0  0
  143.3420   75.0680  218.3520 C   0  0  0  0  0  0  0  0  0  0  0  0
  142.3129   75.3589  218.0946 H   0  0  0  0  0  0  0  0  0  0  0  0
  143.7532   75.8557  219.0005 H   0  0  0  0  0  0  0  0  0  0  0  0
  144.1760   74.8980  217.0860 C   0  0  2  0  0  0  0  0  0  0  0  0
  145.1843   75.3238  217.1954 H   0  0  0  0  0  0  0  0  0  0  0  0
  143.5850   75.5710  216.0060 O   0  0  0  0  0  0  0  0  0  0  0  0
  142.6040   75.4510  216.1020 H   0  0  0  0  0  0  0  0  0  0  0  0
  144.2250   73.3910  216.8390 C   0  0  0  0  0  0  0  0  0  0  0  0
  143.4188   73.0856  216.1558 H   0  0  0  0  0  0  0  0  0  0  0  0
  145.1712   73.0814  216.3711 H   0  0  0  0  0  0  0  0  0  0  0  0
  144.0320   72.7530  218.2160 C   0  0  1  0  0  0  0  0  0  0  0  0
  143.4538   71.8191  218.1573 H   0  0  0  0  0  0  0  0  0  0  0  0
  145.3640   72.4070  218.8260 C   0  0  0  0  0  0  0  0  0  0  0  0
  146.2450   73.2990  218.9560 O   0  0  0  0  0  0  0  0  0  0  0  0
  145.6020   71.0780  219.2990 N   0  0  0  0  0  0  0  0  0  0  0  0
  145.9310   69.9430  218.4360 C   0  0  0  0  0  0  0  0  0  0  0  0
  146.7812   70.2063  217.7896 H   0  0  0  0  0  0  0  0  0  0  0  0
  144.7350   69.6010  217.5300 C   0  0  0  0  0  0  0  0  0  0  0  0
  144.4938   70.4796  216.9136 H   0  0  0  0  0  0  0  0  0  0  0  0
  145.0175   68.7414  216.9045 H   0  0  0  0  0  0  0  0  0  0  0  0
  143.4870   69.2070  218.3450 C   0  0  0  0  0  0  0  0  0  0  0  0
  142.9072   70.1177  218.5556 H   0  0  0  0  0  0  0  0  0  0  0  0
  142.9219   68.4823  217.7404 H   0  0  0  0  0  0  0  0  0  0  0  0
  143.8180   68.5180  219.6860 C   0  0  0  0  0  0  0  0  0  0  0  0
  143.8657   69.2816  220.4764 H   0  0  0  0  0  0  0  0  0  0  0  0
  143.0289   67.7808  219.8955 H   0  0  0  0  0  0  0  0  0  0  0  0
  145.1580   67.7780  219.6300 C   0  0  0  0  0  0  0  0  0  0  0  0
  145.3424   67.3025  220.6047 H   0  0  0  0  0  0  0  0  0  0  0  0
  145.0995   67.0285  218.8270 H   0  0  0  0  0  0  0  0  0  0  0  0
  146.3300   68.7300  219.3100 C   0  0  0  0  0  0  0  0  0  0  0  0
  146.7395   69.1065  220.2590 H   0  0  0  0  0  0  0  0  0  0  0  0
  147.0654   68.1492  218.7339 H   0  0  0  0  0  0  0  0  0  0  0  0
  142.6120   72.1420  220.7380 C   0  0  0  0  0  0  0  0  0  0  0  0
  143.2145   72.0290  221.6514 H   0  0  0  0  0  0  0  0  0  0  0  0
  142.9436   71.4072  219.9896 H   0  0  0  0  0  0  0  0  0  0  0  0
  141.2080   71.9200  221.0510 N   0  0  0  0  0  0  0  0  0  0  0  0
  140.5850   72.4230  222.2360 C   0  0  0  0  0  0  0  0  0  0  0  0
  140.2680   73.6420  222.3140 O   0  0  0  0  0  0  0  0  0  0  0  0
  140.3280   71.5330  223.3810 C   0  0  0  0  0  0  0  0  0  0  0  0
  140.7560   71.9000  224.6220 N   0  0  0  0  0  0  0  0  0  0  0  0
  140.5560   71.1160  225.7150 C   0  0  0  0  0  0  0  0  0  0  0  0
  141.0130   71.5330  226.9700 C   0  0  0  0  0  0  0  0  0  0  0  0
  141.5348   72.4958  227.0735 H   0  0  0  0  0  0  0  0  0  0  0  0
  140.8060   70.7250  228.0930 C   0  0  0  0  0  0  0  0  0  0  0  0
  141.1649   71.0546  229.0792 H   0  0  0  0  0  0  0  0  0  0  0  0
  140.1440   69.4990  227.9660 C   0  0  0  0  0  0  0  0  0  0  0  0
  139.9460   68.7220  229.0590 F   0  0  0  0  0  0  0  0  0  0  0  0
  139.6820   69.0740  226.7150 C   0  0  0  0  0  0  0  0  0  0  0  0
  139.1608   68.1101  226.6184 H   0  0  0  0  0  0  0  0  0  0  0  0
  139.8850   69.8800  225.5840 C   0  0  0  0  0  0  0  0  0  0  0  0
  139.4270   69.4900  224.3200 C   0  0  0  0  0  0  0  0  0  0  0  0
  138.8985   68.5333  224.1959 H   0  0  0  0  0  0  0  0  0  0  0  0
  139.6430   70.3190  223.2170 C   0  0  0  0  0  0  0  0  0  0  0  0
  139.2775   70.0215  222.2231 H   0  0  0  0  0  0  0  0  0  0  0  0
  1  2  1  0
  2  3  1  0
  3  4  2  0
  4  5  1  0
  5  6  1  0
  5  7  1  0
  5  8  1  0
  8  9  1  1
  8 10  1  0
 10 11  1  0
  8 12  1  0
 12 13  1  0
 12 14  1  0
 12 15  1  0
 15 16  1  6
 15 17  1  0
 17 18  2  0
 17 19  1  0
 19 20  1  0
 20 21  1  0
 20 22  1  0
 22 23  1  0
 22 24  1  0
 22 25  1  0
 25 26  1  0
 25 27  1  0
 25 28  1  0
 28 29  1  0
 28 30  1  0
 28 31  1  0
 31 32  1  0
 31 33  1  0
 31 34  1  0
 34 35  1  0
 34 36  1  0
  3 37  1  0
 37 38  1  0
 37 39  1  0
 37 40  1  0
 40 41  1  0
 41 42  2  0
 41 43  1  0
 43 44  2  0
 44 45  1  0
 45 46  2  0
 46 47  1  0
 46 48  1  0
 48 49  1  0
 48 50  2  0
 50 51  1  0
 50 52  1  0
 52 53  1  0
 52 54  2  0
 54 55  1  0
 55 56  1  0
 55 57  2  0
 57 58  1  0
 15  4  1  0
 34 20  1  0
 57 43  1  0
 54 45  1  0
M  CHG  3   4   1  19  -1  40  -1
M  END
>  <UniqueID>  (73) 
140

>  <SMILES>  (73) 
O=C([N-]C/C(O)=[N+]1\C[C@H](O)C[C@H]1C(=O)[N-]C1CCCCC1)c1ccc2cc(F)ccc2n1

>  <Energy>  (73) 
60.398563280778

>  <Genealogy>  (73) 
O=C([N-]CC(=O)[NH+]1C[C@H](O)C[C@H]1C(=O)[N-]C1CCCCC1)c1ccc2cc(F)ccc2n1 (protonated)
O=C([N-]CC(O)=[N+]1C[C@H](O)C[C@H]1C(=O)[N-]C1CCCCC1)c1ccc2cc(F)ccc2n1 (tautomer)
O=C([N-]C/C(O)=[N+]1\C[C@H](O)C[C@H]1C(=O)[N-]C1CCCCC1)c1ccc2cc(F)ccc2n1 (cis-trans isomerization)
O=C([N-]C/C(O)=[N+]1\C[C@H](O)C[C@H]1C(=O)[N-]C1CCCCC1)c1ccc2cc(F)ccc2n1 (3D coordinates assigned)
O=C([N-]C/C(O)=[N+]1\C[C@H](O)C[C@H]1C(=O)[N-]C1CCCCC1)c1ccc2cc(F)ccc2n1 (nonaromatic ring conformer: 60.398563280778 kcal/mol)

>  <smiles>  (73) 
O=C(NCC(=O)N1C[C@H](O)C[C@H]1C(=O)NC1CCCCC1)c1ccc2cc(F)ccc2n1

>  <score_type>  (73) 
oracle

>  <origin>  (73) 
autodockgpu

>  <m_score__min__energy>  (73) 
-8.0299999999999994

>  <m_primary>  (73) 
energy

>  <meeko>  (73) 
{"free_energy": -6.81, "intermolecular_energy": -9.79, "internal_energy": -2.82, "cluster_size": 2, "cluster_id": 3, "rank_in_cluster": 2}

>  <energy>  (73) 
-7.07

>  <cluster_rmsd>  (73) 
0.0

>  <rmsd>  (73) 
269.75

>  <cluster>  (73) 
2

$$$$
YMXDKILJCZTOEU-DXDCNWIPNA-M
     RDKit          3D

 58 61  0  0  0  0  0  0  0  0999 V2000
  142.0710   76.9000  221.8370 H   0  0  0  0  0  0  0  0  0  0  0  0
  141.7480   76.1580  221.2310 O   0  0  0  0  0  0  0  0  0  0  0  0
  140.5640   75.4410  221.4340 C   0  0  0  0  0  0  0  0  0  0  0  0
  139.4380   76.0500  221.7460 N   0  0  0  0  0  0  0  0  0  0  0  0
  138.2450   75.3660  222.2460 C   0  0  0  0  0  0  0  0  0  0  0  0
  137.8491   74.6813  221.4815 H   0  0  0  0  0  0  0  0  0  0  0  0
  138.4715   74.7646  223.1388 H   0  0  0  0  0  0  0  0  0  0  0  0
  137.2270   76.4600  222.5550 C   0  0  2  0  0  0  0  0  0  0  0  0
  137.1609   76.6710  223.6325 H   0  0  0  0  0  0  0  0  0  0  0  0
  135.9400   76.0690  222.1560 O   0  0  0  0  0  0  0  0  0  0  0  0
  135.9370   76.0840  221.1630 H   0  0  0  0  0  0  0  0  0  0  0  0
  137.7030   77.6820  221.7710 C   0  0  0  0  0  0  0  0  0  0  0  0
  137.2112   77.7253  220.7880 H   0  0  0  0  0  0  0  0  0  0  0  0
  137.4611   78.6222  222.2883 H   0  0  0  0  0  0  0  0  0  0  0  0
  139.2110   77.4910  221.6080 C   0  0  1  0  0  0  0  0  0  0  0  0
  139.5691   77.8714  220.6400 H   0  0  0  0  0  0  0  0  0  0  0  0
  139.9550   78.2440  222.6790 C   0  0  0  0  0  0  0  0  0  0  0  0
  139.3190   78.7850  223.6220 O   0  0  0  0  0  0  0  0  0  0  0  0
  141.3840   78.2990  222.6430 N   0  0  0  0  0  0  0  0  0  0  0  0
  142.1520   79.2700  221.8640 C   0  0  0  0  0  0  0  0  0  0  0  0
  142.6400   78.7602  221.0202 H   0  0  0  0  0  0  0  0  0  0  0  0
  143.2510   79.9010  222.7360 C   0  0  0  0  0  0  0  0  0  0  0  0
  143.9179   79.1046  223.0980 H   0  0  0  0  0  0  0  0  0  0  0  0
  143.7980   80.6287  222.1186 H   0  0  0  0  0  0  0  0  0  0  0  0
  142.6670   80.6510  223.9500 C   0  0  0  0  0  0  0  0  0  0  0  0
  142.5813   79.9436  224.7880 H   0  0  0  0  0  0  0  0  0  0  0  0
  143.3498   81.4836  224.1750 H   0  0  0  0  0  0  0  0  0  0  0  0
  141.2760   81.2640  223.6840 C   0  0  0  0  0  0  0  0  0  0  0  0
  140.5046   80.5429  223.9922 H   0  0  0  0  0  0  0  0  0  0  0  0
  141.1986   82.1976  224.2606 H   0  0  0  0  0  0  0  0  0  0  0  0
  141.0750   81.6020  222.2030 C   0  0  0  0  0  0  0  0  0  0  0  0
  140.0737   82.0378  222.0706 H   0  0  0  0  0  0  0  0  0  0  0  0
  141.8599   82.3133  221.9065 H   0  0  0  0  0  0  0  0  0  0  0  0
  141.1980   80.3530  221.3050 C   0  0  0  0  0  0  0  0  0  0  0  0
  140.1983   79.9085  221.1911 H   0  0  0  0  0  0  0  0  0  0  0  0
  141.6225   80.6889  220.3474 H   0  0  0  0  0  0  0  0  0  0  0  0
  140.6630   73.9430  221.3100 C   0  0  0  0  0  0  0  0  0  0  0  0
  141.6908   73.6640  221.0348 H   0  0  0  0  0  0  0  0  0  0  0  0
  139.9695   73.5905  220.5323 H   0  0  0  0  0  0  0  0  0  0  0  0
  140.3180   73.3320  222.5850 N   0  0  0  0  0  0  0  0  0  0  0  0
  139.4210   72.2220  222.7000 C   0  0  0  0  0  0  0  0  0  0  0  0
  138.4650   72.0960  221.8870 O   0  0  0  0  0  0  0  0  0  0  0  0
  139.5930   71.2330  223.7780 C   0  0  0  0  0  0  0  0  0  0  0  0
  140.1360   71.6250  224.9640 N   0  0  0  0  0  0  0  0  0  0  0  0
  140.3270   70.7570  225.9930 C   0  0  0  0  0  0  0  0  0  0  0  0
  140.8900   71.2030  227.1940 C   0  0  0  0  0  0  0  0  0  0  0  0
  141.1792   72.2583  227.3072 H   0  0  0  0  0  0  0  0  0  0  0  0
  141.0850   70.3080  228.2500 C   0  0  0  0  0  0  0  0  0  0  0  0
  141.5263   70.6614  229.1936 H   0  0  0  0  0  0  0  0  0  0  0  0
  140.7210   68.9650  228.1110 C   0  0  0  0  0  0  0  0  0  0  0  0
  140.9110   68.1020  229.1390 F   0  0  0  0  0  0  0  0  0  0  0  0
  140.1560   68.5080  226.9140 C   0  0  0  0  0  0  0  0  0  0  0  0
  139.8696   67.4513  226.8076 H   0  0  0  0  0  0  0  0  0  0  0  0
  139.9560   69.4020  225.8500 C   0  0  0  0  0  0  0  0  0  0  0  0
  139.3850   68.9810  224.6430 C   0  0  0  0  0  0  0  0  0  0  0  0
  139.0860   67.9306  224.5115 H   0  0  0  0  0  0  0  0  0  0  0  0
  139.1960   69.8970  223.6070 C   0  0  0  0  0  0  0  0  0  0  0  0
  138.7380   69.5737  222.6606 H   0  0  0  0  0  0  0  0  0  0  0  0
  1  2  1  0
  2  3  1  0
  3  4  2  0
  4  5  1  0
  5  6  1  0
  5  7  1  0
  5  8  1  0
  8  9  1  1
  8 10  1  0
 10 11  1  0
  8 12  1  0
 12 13  1  0
 12 14  1  0
 12 15  1  0
 15 16  1  6
 15 17  1  0
 17 18  2  0
 17 19  1  0
 19 20  1  0
 20 21  1  0
 20 22  1  0
 22 23  1  0
 22 24  1  0
 22 25  1  0
 25 26  1  0
 25 27  1  0
 25 28  1  0
 28 29  1  0
 28 30  1  0
 28 31  1  0
 31 32  1  0
 31 33  1  0
 31 34  1  0
 34 35  1  0
 34 36  1  0
  3 37  1  0
 37 38  1  0
 37 39  1  0
 37 40  1  0
 40 41  1  0
 41 42  2  0
 41 43  1  0
 43 44  2  0
 44 45  1  0
 45 46  2  0
 46 47  1  0
 46 48  1  0
 48 49  1  0
 48 50  2  0
 50 51  1  0
 50 52  1  0
 52 53  1  0
 52 54  2  0
 54 55  1  0
 55 56  1  0
 55 57  2  0
 57 58  1  0
 15  4  1  0
 34 20  1  0
 57 43  1  0
 54 45  1  0
M  CHG  3   4   1  19  -1  40  -1
M  END
>  <UniqueID>  (74) 
140

>  <SMILES>  (74) 
O=C([N-]C/C(O)=[N+]1\C[C@H](O)C[C@H]1C(=O)[N-]C1CCCCC1)c1ccc2cc(F)ccc2n1

>  <Energy>  (74) 
60.398563280778

>  <Genealogy>  (74) 
O=C([N-]CC(=O)[NH+]1C[C@H](O)C[C@H]1C(=O)[N-]C1CCCCC1)c1ccc2cc(F)ccc2n1 (protonated)
O=C([N-]CC(O)=[N+]1C[C@H](O)C[C@H]1C(=O)[N-]C1CCCCC1)c1ccc2cc(F)ccc2n1 (tautomer)
O=C([N-]C/C(O)=[N+]1\C[C@H](O)C[C@H]1C(=O)[N-]C1CCCCC1)c1ccc2cc(F)ccc2n1 (cis-trans isomerization)
O=C([N-]C/C(O)=[N+]1\C[C@H](O)C[C@H]1C(=O)[N-]C1CCCCC1)c1ccc2cc(F)ccc2n1 (3D coordinates assigned)
O=C([N-]C/C(O)=[N+]1\C[C@H](O)C[C@H]1C(=O)[N-]C1CCCCC1)c1ccc2cc(F)ccc2n1 (nonaromatic ring conformer: 60.398563280778 kcal/mol)

>  <smiles>  (74) 
O=C(NCC(=O)N1C[C@H](O)C[C@H]1C(=O)NC1CCCCC1)c1ccc2cc(F)ccc2n1

>  <score_type>  (74) 
oracle

>  <origin>  (74) 
autodockgpu

>  <m_score__min__energy>  (74) 
-8.0299999999999994

>  <m_primary>  (74) 
energy

>  <meeko>  (74) 
{"free_energy": -7.38, "intermolecular_energy": -10.37, "internal_energy": -2.63, "cluster_size": 12, "cluster_id": 1, "rank_in_cluster": 6}

>  <energy>  (74) 
-6.97

>  <cluster_rmsd>  (74) 
0.0

>  <rmsd>  (74) 
269.08

>  <cluster>  (74) 
3

$$$$
YMXDKILJCZTOEU-DXDCNWIPNA-M
     RDKit          3D

 58 61  0  0  0  0  0  0  0  0999 V2000
  139.1500   74.4400  222.9020 H   0  0  0  0  0  0  0  0  0  0  0  0
  139.9090   74.0720  222.3440 O   0  0  0  0  0  0  0  0  0  0  0  0
  140.1560   74.4430  221.0180 C   0  0  0  0  0  0  0  0  0  0  0  0
  140.6590   75.6240  220.7180 N   0  0  0  0  0  0  0  0  0  0  0  0
  140.9760   76.0600  219.3590 C   0  0  0  0  0  0  0  0  0  0  0  0
  141.7745   75.4341  218.9340 H   0  0  0  0  0  0  0  0  0  0  0  0
  140.1029   75.9727  218.6956 H   0  0  0  0  0  0  0  0  0  0  0  0
  141.4440   77.5080  219.4760 C   0  0  2  0  0  0  0  0  0  0  0  0
  140.6623   78.2204  219.1736 H   0  0  0  0  0  0  0  0  0  0  0  0
  142.5370   77.7490  218.6290 O   0  0  0  0  0  0  0  0  0  0  0  0
  143.3260   77.8760  219.2190 H   0  0  0  0  0  0  0  0  0  0  0  0
  141.8300   77.6860  220.9430 C   0  0  0  0  0  0  0  0  0  0  0  0
  142.9042   77.4966  221.0849 H   0  0  0  0  0  0  0  0  0  0  0  0
  141.6389   78.7098  221.2970 H   0  0  0  0  0  0  0  0  0  0  0  0
  140.9980   76.6530  221.7050 C   0  0  1  0  0  0  0  0  0  0  0  0
  141.5478   76.2351  222.5612 H   0  0  0  0  0  0  0  0  0  0  0  0
  139.7480   77.2860  222.2540 C   0  0  0  0  0  0  0  0  0  0  0  0
  138.7810   76.5600  222.6100 O   0  0  0  0  0  0  0  0  0  0  0  0
  139.6850   78.7070  222.4130 N   0  0  0  0  0  0  0  0  0  0  0  0
  140.0850   79.4180  223.6270 C   0  0  0  0  0  0  0  0  0  0  0  0
  139.4556   79.0927  224.4685 H   0  0  0  0  0  0  0  0  0  0  0  0
  139.8870   80.9330  223.4440 C   0  0  0  0  0  0  0  0  0  0  0  0
  138.8257   81.1290  223.2314 H   0  0  0  0  0  0  0  0  0  0  0  0
  140.2066   81.4311  224.3712 H   0  0  0  0  0  0  0  0  0  0  0  0
  140.7380   81.4930  222.2860 C   0  0  0  0  0  0  0  0  0  0  0  0
  140.1491   81.4301  221.3591 H   0  0  0  0  0  0  0  0  0  0  0  0
  140.9965   82.5299  222.5466 H   0  0  0  0  0  0  0  0  0  0  0  0
  142.0650   80.7340  222.0740 C   0  0  0  0  0  0  0  0  0  0  0  0
  141.9062   79.9409  221.3285 H   0  0  0  0  0  0  0  0  0  0  0  0
  142.8201   81.4558  221.7293 H   0  0  0  0  0  0  0  0  0  0  0  0
  142.5720   80.0990  223.3730 C   0  0  0  0  0  0  0  0  0  0  0  0
  143.5183   79.5771  223.1677 H   0  0  0  0  0  0  0  0  0  0  0  0
  142.7131   80.9018  224.1117 H   0  0  0  0  0  0  0  0  0  0  0  0
  141.5610   79.0880  223.9540 C   0  0  0  0  0  0  0  0  0  0  0  0
  141.7922   78.0933  223.5451 H   0  0  0  0  0  0  0  0  0  0  0  0
  141.6621   79.1289  225.0486 H   0  0  0  0  0  0  0  0  0  0  0  0
  139.7840   73.4340  219.9640 C   0  0  0  0  0  0  0  0  0  0  0  0
  140.6206   73.3125  219.2602 H   0  0  0  0  0  0  0  0  0  0  0  0
  138.8953   73.7828  219.4176 H   0  0  0  0  0  0  0  0  0  0  0  0
  139.4950   72.1580  220.6000 N   0  0  0  0  0  0  0  0  0  0  0  0
  140.4750   71.4090  221.3270 C   0  0  0  0  0  0  0  0  0  0  0  0
  141.6030   71.1780  220.8110 O   0  0  0  0  0  0  0  0  0  0  0  0
  140.1690   70.8840  222.6680 C   0  0  0  0  0  0  0  0  0  0  0  0
  140.7360   71.4700  223.7600 N   0  0  0  0  0  0  0  0  0  0  0  0
  140.4980   71.0250  225.0230 C   0  0  0  0  0  0  0  0  0  0  0  0
  141.1030   71.6570  226.1150 C   0  0  0  0  0  0  0  0  0  0  0  0
  141.7718   72.5152  225.9529 H   0  0  0  0  0  0  0  0  0  0  0  0
  140.8570   71.1970  227.4130 C   0  0  0  0  0  0  0  0  0  0  0  0
  141.3321   71.6958  228.2706 H   0  0  0  0  0  0  0  0  0  0  0  0
  140.0090   70.1050  227.6240 C   0  0  0  0  0  0  0  0  0  0  0  0
  139.7730   69.6660  228.8850 F   0  0  0  0  0  0  0  0  0  0  0  0
  139.3980   69.4670  226.5380 C   0  0  0  0  0  0  0  0  0  0  0  0
  138.7304   68.6093  226.7071 H   0  0  0  0  0  0  0  0  0  0  0  0
  139.6390   69.9240  225.2330 C   0  0  0  0  0  0  0  0  0  0  0  0
  139.0370   69.3150  224.1250 C   0  0  0  0  0  0  0  0  0  0  0  0
  138.3617   68.4582  224.2660 H   0  0  0  0  0  0  0  0  0  0  0  0
  139.2960   69.7980  222.8410 C   0  0  0  0  0  0  0  0  0  0  0  0
  138.8179   69.3295  221.9681 H   0  0  0  0  0  0  0  0  0  0  0  0
  1  2  1  0
  2  3  1  0
  3  4  2  0
  4  5  1  0
  5  6  1  0
  5  7  1  0
  5  8  1  0
  8  9  1  6
  8 10  1  0
 10 11  1  0
  8 12  1  0
 12 13  1  0
 12 14  1  0
 12 15  1  0
 15 16  1  1
 15 17  1  0
 17 18  2  0
 17 19  1  0
 19 20  1  0
 20 21  1  0
 20 22  1  0
 22 23  1  0
 22 24  1  0
 22 25  1  0
 25 26  1  0
 25 27  1  0
 25 28  1  0
 28 29  1  0
 28 30  1  0
 28 31  1  0
 31 32  1  0
 31 33  1  0
 31 34  1  0
 34 35  1  0
 34 36  1  0
  3 37  1  0
 37 38  1  0
 37 39  1  0
 37 40  1  0
 40 41  1  0
 41 42  2  0
 41 43  1  0
 43 44  2  0
 44 45  1  0
 45 46  2  0
 46 47  1  0
 46 48  1  0
 48 49  1  0
 48 50  2  0
 50 51  1  0
 50 52  1  0
 52 53  1  0
 52 54  2  0
 54 55  1  0
 55 56  1  0
 55 57  2  0
 57 58  1  0
 15  4  1  0
 34 20  1  0
 57 43  1  0
 54 45  1  0
M  CHG  3   4   1  19  -1  40  -1
M  END
>  <UniqueID>  (75) 
140

>  <SMILES>  (75) 
O=C([N-]C/C(O)=[N+]1\C[C@H](O)C[C@H]1C(=O)[N-]C1CCCCC1)c1ccc2cc(F)ccc2n1

>  <Energy>  (75) 
60.398563280778

>  <Genealogy>  (75) 
O=C([N-]CC(=O)[NH+]1C[C@H](O)C[C@H]1C(=O)[N-]C1CCCCC1)c1ccc2cc(F)ccc2n1 (protonated)
O=C([N-]CC(O)=[N+]1C[C@H](O)C[C@H]1C(=O)[N-]C1CCCCC1)c1ccc2cc(F)ccc2n1 (tautomer)
O=C([N-]C/C(O)=[N+]1\C[C@H](O)C[C@H]1C(=O)[N-]C1CCCCC1)c1ccc2cc(F)ccc2n1 (cis-trans isomerization)
O=C([N-]C/C(O)=[N+]1\C[C@H](O)C[C@H]1C(=O)[N-]C1CCCCC1)c1ccc2cc(F)ccc2n1 (3D coordinates assigned)
O=C([N-]C/C(O)=[N+]1\C[C@H](O)C[C@H]1C(=O)[N-]C1CCCCC1)c1ccc2cc(F)ccc2n1 (nonaromatic ring conformer: 60.398563280778 kcal/mol)

>  <smiles>  (75) 
O=C(NCC(=O)N1C[C@H](O)C[C@H]1C(=O)NC1CCCCC1)c1ccc2cc(F)ccc2n1

>  <score_type>  (75) 
oracle

>  <origin>  (75) 
autodockgpu

>  <m_score__min__energy>  (75) 
-8.0299999999999994

>  <m_primary>  (75) 
energy

>  <meeko>  (75) 
{"free_energy": -7.68, "intermolecular_energy": -10.67, "internal_energy": -2.43, "cluster_size": 12, "cluster_id": 1, "rank_in_cluster": 2}

>  <energy>  (75) 
-6.81

>  <cluster_rmsd>  (75) 
1.56

>  <rmsd>  (75) 
269.18

>  <cluster>  (75) 
3

$$$$
YMXDKILJCZTOEU-DXDCNWIPNA-M
     RDKit          3D

 58 61  0  0  0  0  0  0  0  0999 V2000
  140.2410   71.1060  220.8610 H   0  0  0  0  0  0  0  0  0  0  0  0
  139.7790   70.4730  221.5010 O   0  0  0  0  0  0  0  0  0  0  0  0
  139.3500   70.8320  222.7830 C   0  0  0  0  0  0  0  0  0  0  0  0
  138.2330   70.3520  223.2930 N   0  0  0  0  0  0  0  0  0  0  0  0
  136.9460   70.3560  222.5990 C   0  0  0  0  0  0  0  0  0  0  0  0
  136.6106   71.3887  222.4229 H   0  0  0  0  0  0  0  0  0  0  0  0
  137.0172   69.8628  221.6183 H   0  0  0  0  0  0  0  0  0  0  0  0
  135.9670   69.6310  223.5170 C   0  0  2  0  0  0  0  0  0  0  0  0
  135.7751   68.6001  223.1848 H   0  0  0  0  0  0  0  0  0  0  0  0
  134.7200   70.2750  223.5240 O   0  0  0  0  0  0  0  0  0  0  0  0
  134.0430   69.5730  223.7110 H   0  0  0  0  0  0  0  0  0  0  0  0
  136.6160   69.6650  224.9000 C   0  0  0  0  0  0  0  0  0  0  0  0
  136.2593   70.5341  225.4723 H   0  0  0  0  0  0  0  0  0  0  0  0
  136.3684   68.7720  225.4926 H   0  0  0  0  0  0  0  0  0  0  0  0
  138.1180   69.7770  224.6350 C   0  0  1  0  0  0  0  0  0  0  0  0
  138.6226   70.3965  225.3910 H   0  0  0  0  0  0  0  0  0  0  0  0
  138.7620   68.4180  224.6810 C   0  0  0  0  0  0  0  0  0  0  0  0
  138.9510   67.7770  223.6130 O   0  0  0  0  0  0  0  0  0  0  0  0
  139.2010   67.8840  225.9340 N   0  0  0  0  0  0  0  0  0  0  0  0
  140.5720   67.9780  226.4350 C   0  0  0  0  0  0  0  0  0  0  0  0
  141.1097   67.0448  226.2116 H   0  0  0  0  0  0  0  0  0  0  0  0
  140.5680   68.1690  227.9620 C   0  0  0  0  0  0  0  0  0  0  0  0
  140.0615   67.3098  228.4259 H   0  0  0  0  0  0  0  0  0  0  0  0
  141.6129   68.2441  228.2975 H   0  0  0  0  0  0  0  0  0  0  0  0
  139.8400   69.4610  228.3810 C   0  0  0  0  0  0  0  0  0  0  0  0
  138.7757   69.2273  228.5317 H   0  0  0  0  0  0  0  0  0  0  0  0
  140.3236   69.8201  229.3014 H   0  0  0  0  0  0  0  0  0  0  0  0
  139.9480   70.5960  227.3400 C   0  0  0  0  0  0  0  0  0  0  0  0
  139.0798   70.5452  226.6665 H   0  0  0  0  0  0  0  0  0  0  0  0
  139.9740   71.5540  227.8800 H   0  0  0  0  0  0  0  0  0  0  0  0
  141.2290   70.4840  226.5070 C   0  0  0  0  0  0  0  0  0  0  0  0
  141.2589   71.3155  225.7874 H   0  0  0  0  0  0  0  0  0  0  0  0
  142.0868   70.5229  227.1946 H   0  0  0  0  0  0  0  0  0  0  0  0
  141.2980   69.1510  225.7320 C   0  0  0  0  0  0  0  0  0  0  0  0
  140.8381   69.3006  224.7440 H   0  0  0  0  0  0  0  0  0  0  0  0
  142.3607   68.8749  225.6658 H   0  0  0  0  0  0  0  0  0  0  0  0
  140.2150   71.8190  223.5220 C   0  0  0  0  0  0  0  0  0  0  0  0
  141.0703   71.2933  223.9715 H   0  0  0  0  0  0  0  0  0  0  0  0
  139.6262   72.3029  224.3151 H   0  0  0  0  0  0  0  0  0  0  0  0
  140.6990   72.8270  222.5910 N   0  0  0  0  0  0  0  0  0  0  0  0
  139.8300   73.5900  221.7470 C   0  0  0  0  0  0  0  0  0  0  0  0
  139.3210   73.0590  220.7220 O   0  0  0  0  0  0  0  0  0  0  0  0
  139.5410   75.0010  222.0540 C   0  0  0  0  0  0  0  0  0  0  0  0
  140.5720   75.8490  222.3300 N   0  0  0  0  0  0  0  0  0  0  0  0
  140.3670   77.1600  222.6280 C   0  0  0  0  0  0  0  0  0  0  0  0
  141.4560   77.9940  222.9070 C   0  0  0  0  0  0  0  0  0  0  0  0
  142.4787   77.5896  222.8848 H   0  0  0  0  0  0  0  0  0  0  0  0
  141.2430   79.3420  223.2140 C   0  0  0  0  0  0  0  0  0  0  0  0
  142.0996   79.9966  223.4325 H   0  0  0  0  0  0  0  0  0  0  0  0
  139.9440   79.8600  223.2440 C   0  0  0  0  0  0  0  0  0  0  0  0
  139.7450   81.1680  223.5400 F   0  0  0  0  0  0  0  0  0  0  0  0
  138.8490   79.0340  222.9650 C   0  0  0  0  0  0  0  0  0  0  0  0
  137.8289   79.4449  222.9878 H   0  0  0  0  0  0  0  0  0  0  0  0
  139.0550   77.6800  222.6560 C   0  0  0  0  0  0  0  0  0  0  0  0
  137.9830   76.8290  222.3630 C   0  0  0  0  0  0  0  0  0  0  0  0
  136.9530   77.2149  222.3754 H   0  0  0  0  0  0  0  0  0  0  0  0
  138.2250   75.4890  222.0550 C   0  0  0  0  0  0  0  0  0  0  0  0
  137.3873   74.8180  221.8139 H   0  0  0  0  0  0  0  0  0  0  0  0
  1  2  1  0
  2  3  1  0
  3  4  2  0
  4  5  1  0
  5  6  1  0
  5  7  1  0
  5  8  1  0
  8  9  1  6
  8 10  1  0
 10 11  1  0
  8 12  1  0
 12 13  1  0
 12 14  1  0
 12 15  1  0
 15 16  1  1
 15 17  1  0
 17 18  2  0
 17 19  1  0
 19 20  1  0
 20 21  1  0
 20 22  1  0
 22 23  1  0
 22 24  1  0
 22 25  1  0
 25 26  1  0
 25 27  1  0
 25 28  1  0
 28 29  1  0
 28 30  1  0
 28 31  1  0
 31 32  1  0
 31 33  1  0
 31 34  1  0
 34 35  1  0
 34 36  1  0
  3 37  1  0
 37 38  1  0
 37 39  1  0
 37 40  1  0
 40 41  1  0
 41 42  2  0
 41 43  1  0
 43 44  2  0
 44 45  1  0
 45 46  2  0
 46 47  1  0
 46 48  1  0
 48 49  1  0
 48 50  2  0
 50 51  1  0
 50 52  1  0
 52 53  1  0
 52 54  2  0
 54 55  1  0
 55 56  1  0
 55 57  2  0
 57 58  1  0
 15  4  1  0
 34 20  1  0
 57 43  1  0
 54 45  1  0
M  CHG  3   4   1  19  -1  40  -1
M  END
>  <UniqueID>  (76) 
140

>  <SMILES>  (76) 
O=C([N-]C/C(O)=[N+]1\C[C@H](O)C[C@H]1C(=O)[N-]C1CCCCC1)c1ccc2cc(F)ccc2n1

>  <Energy>  (76) 
60.398563280778

>  <Genealogy>  (76) 
O=C([N-]CC(=O)[NH+]1C[C@H](O)C[C@H]1C(=O)[N-]C1CCCCC1)c1ccc2cc(F)ccc2n1 (protonated)
O=C([N-]CC(O)=[N+]1C[C@H](O)C[C@H]1C(=O)[N-]C1CCCCC1)c1ccc2cc(F)ccc2n1 (tautomer)
O=C([N-]C/C(O)=[N+]1\C[C@H](O)C[C@H]1C(=O)[N-]C1CCCCC1)c1ccc2cc(F)ccc2n1 (cis-trans isomerization)
O=C([N-]C/C(O)=[N+]1\C[C@H](O)C[C@H]1C(=O)[N-]C1CCCCC1)c1ccc2cc(F)ccc2n1 (3D coordinates assigned)
O=C([N-]C/C(O)=[N+]1\C[C@H](O)C[C@H]1C(=O)[N-]C1CCCCC1)c1ccc2cc(F)ccc2n1 (nonaromatic ring conformer: 60.398563280778 kcal/mol)

>  <smiles>  (76) 
O=C(NCC(=O)N1C[C@H](O)C[C@H]1C(=O)NC1CCCCC1)c1ccc2cc(F)ccc2n1

>  <score_type>  (76) 
oracle

>  <origin>  (76) 
autodockgpu

>  <m_score__min__energy>  (76) 
-8.0299999999999994

>  <m_primary>  (76) 
energy

>  <meeko>  (76) 
{"free_energy": -6.44, "intermolecular_energy": -9.43, "internal_energy": -3.15, "cluster_size": 1, "cluster_id": 6, "rank_in_cluster": 1}

>  <energy>  (76) 
-6.86

>  <cluster_rmsd>  (76) 
0.0

>  <rmsd>  (76) 
269.46

>  <cluster>  (76) 
4

$$$$
YMXDKILJCZTOEU-DXDCNWIPNA-M
     RDKit          3D

 58 61  0  0  0  0  0  0  0  0999 V2000
  139.7670   73.5710  222.8140 H   0  0  0  0  0  0  0  0  0  0  0  0
  140.3730   74.2240  222.3360 O   0  0  0  0  0  0  0  0  0  0  0  0
  141.0670   73.9280  221.1570 C   0  0  0  0  0  0  0  0  0  0  0  0
  141.5680   74.8820  220.3980 N   0  0  0  0  0  0  0  0  0  0  0  0
  141.9880   74.6920  219.0100 C   0  0  0  0  0  0  0  0  0  0  0  0
  142.8321   73.9884  218.9598 H   0  0  0  0  0  0  0  0  0  0  0  0
  141.1750   74.2733  218.3987 H   0  0  0  0  0  0  0  0  0  0  0  0
  142.4140   76.0660  218.5030 C   0  0  2  0  0  0  0  0  0  0  0  0
  141.6452   76.5270  217.8655 H   0  0  0  0  0  0  0  0  0  0  0  0
  143.5680   75.9700  217.7110 O   0  0  0  0  0  0  0  0  0  0  0  0
  144.3390   75.9800  218.3370 H   0  0  0  0  0  0  0  0  0  0  0  0
  142.6730   76.8940  219.7610 C   0  0  0  0  0  0  0  0  0  0  0  0
  143.7353   76.8464  220.0424 H   0  0  0  0  0  0  0  0  0  0  0  0
  142.4324   77.9568  219.6108 H   0  0  0  0  0  0  0  0  0  0  0  0
  141.8020   76.2580  220.8450 C   0  0  1  0  0  0  0  0  0  0  0  0
  142.2874   76.2920  221.8315 H   0  0  0  0  0  0  0  0  0  0  0  0
  140.4970   76.9970  220.9730 C   0  0  0  0  0  0  0  0  0  0  0  0
  139.4160   76.4180  220.6840 O   0  0  0  0  0  0  0  0  0  0  0  0
  140.4900   78.3400  221.4690 N   0  0  0  0  0  0  0  0  0  0  0  0
  140.4110   78.6940  222.8860 C   0  0  0  0  0  0  0  0  0  0  0  0
  139.7631   77.9752  223.4090 H   0  0  0  0  0  0  0  0  0  0  0  0
  139.7950   80.0950  223.0500 C   0  0  0  0  0  0  0  0  0  0  0  0
  138.7861   80.0927  222.6117 H   0  0  0  0  0  0  0  0  0  0  0  0
  139.7620   80.3275  224.1246 H   0  0  0  0  0  0  0  0  0  0  0  0
  140.6370   81.1820  222.3540 C   0  0  0  0  0  0  0  0  0  0  0  0
  140.2849   81.2841  221.3169 H   0  0  0  0  0  0  0  0  0  0  0  0
  140.5090   82.1093  222.9318 H   0  0  0  0  0  0  0  0  0  0  0  0
  142.1480   80.8690  222.3280 C   0  0  0  0  0  0  0  0  0  0  0  0
  142.3870   80.3452  221.3907 H   0  0  0  0  0  0  0  0  0  0  0  0
  142.6955   81.8204  222.4001 H   0  0  0  0  0  0  0  0  0  0  0  0
  142.5670   79.9880  223.5090 C   0  0  0  0  0  0  0  0  0  0  0  0
  143.6491   79.8004  223.4460 H   0  0  0  0  0  0  0  0  0  0  0  0
  142.3090   80.5185  224.4375 H   0  0  0  0  0  0  0  0  0  0  0  0
  141.8260   78.6350  223.5110 C   0  0  0  0  0  0  0  0  0  0  0  0
  142.4264   77.9105  222.9413 H   0  0  0  0  0  0  0  0  0  0  0  0
  141.6982   78.3425  224.5637 H   0  0  0  0  0  0  0  0  0  0  0  0
  141.1740   72.4700  220.7950 C   0  0  0  0  0  0  0  0  0  0  0  0
  141.8199   71.9571  221.5228 H   0  0  0  0  0  0  0  0  0  0  0  0
  141.6080   72.3709  219.7891 H   0  0  0  0  0  0  0  0  0  0  0  0
  139.8480   71.8710  220.8150 N   0  0  0  0  0  0  0  0  0  0  0  0
  138.9720   71.9540  221.9430 C   0  0  0  0  0  0  0  0  0  0  0  0
  137.9540   72.6990  221.8990 O   0  0  0  0  0  0  0  0  0  0  0  0
  139.2600   71.1910  223.1700 C   0  0  0  0  0  0  0  0  0  0  0  0
  139.8720   71.8140  224.2150 N   0  0  0  0  0  0  0  0  0  0  0  0
  140.1710   71.1610  225.3700 C   0  0  0  0  0  0  0  0  0  0  0  0
  140.8020   71.8400  226.4180 C   0  0  0  0  0  0  0  0  0  0  0  0
  141.0574   72.9043  226.3088 H   0  0  0  0  0  0  0  0  0  0  0  0
  141.1080   71.1660  227.6040 C   0  0  0  0  0  0  0  0  0  0  0  0
  141.6024   71.7026  228.4272 H   0  0  0  0  0  0  0  0  0  0  0  0
  140.7880   69.8120  227.7480 C   0  0  0  0  0  0  0  0  0  0  0  0
  141.0860   69.1650  228.9010 F   0  0  0  0  0  0  0  0  0  0  0  0
  140.1560   69.1240  226.7050 C   0  0  0  0  0  0  0  0  0  0  0  0
  139.9043   68.0594  226.8206 H   0  0  0  0  0  0  0  0  0  0  0  0
  139.8440   69.7940  225.5120 C   0  0  0  0  0  0  0  0  0  0  0  0
  139.2040   69.1380  224.4540 C   0  0  0  0  0  0  0  0  0  0  0  0
  138.9374   68.0746  224.5445 H   0  0  0  0  0  0  0  0  0  0  0  0
  138.9050   69.8380  223.2830 C   0  0  0  0  0  0  0  0  0  0  0  0
  138.3930   69.3305  222.4521 H   0  0  0  0  0  0  0  0  0  0  0  0
  1  2  1  0
  2  3  1  0
  3  4  2  0
  4  5  1  0
  5  6  1  0
  5  7  1  0
  5  8  1  0
  8  9  1  6
  8 10  1  0
 10 11  1  0
  8 12  1  0
 12 13  1  0
 12 14  1  0
 12 15  1  0
 15 16  1  1
 15 17  1  0
 17 18  2  0
 17 19  1  0
 19 20  1  0
 20 21  1  0
 20 22  1  0
 22 23  1  0
 22 24  1  0
 22 25  1  0
 25 26  1  0
 25 27  1  0
 25 28  1  0
 28 29  1  0
 28 30  1  0
 28 31  1  0
 31 32  1  0
 31 33  1  0
 31 34  1  0
 34 35  1  0
 34 36  1  0
  3 37  1  0
 37 38  1  0
 37 39  1  0
 37 40  1  0
 40 41  1  0
 41 42  2  0
 41 43  1  0
 43 44  2  0
 44 45  1  0
 45 46  2  0
 46 47  1  0
 46 48  1  0
 48 49  1  0
 48 50  2  0
 50 51  1  0
 50 52  1  0
 52 53  1  0
 52 54  2  0
 54 55  1  0
 55 56  1  0
 55 57  2  0
 57 58  1  0
 15  4  1  0
 34 20  1  0
 57 43  1  0
 54 45  1  0
M  CHG  3   4   1  19  -1  40  -1
M  END
>  <UniqueID>  (77) 
140

>  <SMILES>  (77) 
O=C([N-]C/C(O)=[N+]1\C[C@H](O)C[C@H]1C(=O)[N-]C1CCCCC1)c1ccc2cc(F)ccc2n1

>  <Energy>  (77) 
60.398563280778

>  <Genealogy>  (77) 
O=C([N-]CC(=O)[NH+]1C[C@H](O)C[C@H]1C(=O)[N-]C1CCCCC1)c1ccc2cc(F)ccc2n1 (protonated)
O=C([N-]CC(O)=[N+]1C[C@H](O)C[C@H]1C(=O)[N-]C1CCCCC1)c1ccc2cc(F)ccc2n1 (tautomer)
O=C([N-]C/C(O)=[N+]1\C[C@H](O)C[C@H]1C(=O)[N-]C1CCCCC1)c1ccc2cc(F)ccc2n1 (cis-trans isomerization)
O=C([N-]C/C(O)=[N+]1\C[C@H](O)C[C@H]1C(=O)[N-]C1CCCCC1)c1ccc2cc(F)ccc2n1 (3D coordinates assigned)
O=C([N-]C/C(O)=[N+]1\C[C@H](O)C[C@H]1C(=O)[N-]C1CCCCC1)c1ccc2cc(F)ccc2n1 (nonaromatic ring conformer: 60.398563280778 kcal/mol)

>  <smiles>  (77) 
O=C(NCC(=O)N1C[C@H](O)C[C@H]1C(=O)NC1CCCCC1)c1ccc2cc(F)ccc2n1

>  <score_type>  (77) 
oracle

>  <origin>  (77) 
autodockgpu

>  <m_score__min__energy>  (77) 
-8.0299999999999994

>  <m_primary>  (77) 
energy

>  <meeko>  (77) 
{"free_energy": -7.17, "intermolecular_energy": -10.15, "internal_energy": -2.82, "cluster_size": 12, "cluster_id": 1, "rank_in_cluster": 9}

>  <energy>  (77) 
-6.49

>  <cluster_rmsd>  (77) 
0.0

>  <rmsd>  (77) 
269.84

>  <cluster>  (77) 
5

$$$$
YMXDKILJCZTOEU-DXDCNWIPNA-M
     RDKit          3D

 58 61  0  0  0  0  0  0  0  0999 V2000
  141.7230   72.3950  222.2170 H   0  0  0  0  0  0  0  0  0  0  0  0
  141.2490   71.5030  222.2720 O   0  0  0  0  0  0  0  0  0  0  0  0
  139.8580   71.3550  222.2640 C   0  0  0  0  0  0  0  0  0  0  0  0
  139.2950   70.1650  222.1840 N   0  0  0  0  0  0  0  0  0  0  0  0
  139.6260   69.1670  221.1670 C   0  0  0  0  0  0  0  0  0  0  0  0
  139.3590   69.5385  220.1667 H   0  0  0  0  0  0  0  0  0  0  0  0
  140.7034   68.9456  221.1576 H   0  0  0  0  0  0  0  0  0  0  0  0
  138.8060   67.9270  221.5070 C   0  0  2  0  0  0  0  0  0  0  0  0
  139.4137   67.1527  221.9981 H   0  0  0  0  0  0  0  0  0  0  0  0
  138.2900   67.3350  220.3440 O   0  0  0  0  0  0  0  0  0  0  0  0
  138.9660   66.6730  220.0430 H   0  0  0  0  0  0  0  0  0  0  0  0
  137.6850   68.4260  222.4190 C   0  0  0  0  0  0  0  0  0  0  0  0
  136.7854   68.6613  221.8313 H   0  0  0  0  0  0  0  0  0  0  0  0
  137.3900   67.6688  223.1604 H   0  0  0  0  0  0  0  0  0  0  0  0
  138.2390   69.6880  223.0800 C   0  0  1  0  0  0  0  0  0  0  0  0
  137.4575   70.4470  223.2324 H   0  0  0  0  0  0  0  0  0  0  0  0
  138.8080   69.3640  224.4360 C   0  0  0  0  0  0  0  0  0  0  0  0
  138.8140   68.1720  224.8460 O   0  0  0  0  0  0  0  0  0  0  0  0
  139.3830   70.4070  225.2300 N   0  0  0  0  0  0  0  0  0  0  0  0
  140.7820   70.4410  225.6560 C   0  0  0  0  0  0  0  0  0  0  0  0
  141.4353   70.4610  224.7713 H   0  0  0  0  0  0  0  0  0  0  0  0
  141.1220   69.1780  226.4670 C   0  0  0  0  0  0  0  0  0  0  0  0
  140.9480   68.2936  225.8364 H   0  0  0  0  0  0  0  0  0  0  0  0
  142.1757   69.2459  226.7755 H   0  0  0  0  0  0  0  0  0  0  0  0
  140.2600   69.0590  227.7400 C   0  0  0  0  0  0  0  0  0  0  0  0
  139.3448   68.5023  227.4899 H   0  0  0  0  0  0  0  0  0  0  0  0
  140.8696   68.5424  228.4960 H   0  0  0  0  0  0  0  0  0  0  0  0
  139.8540   70.4220  228.3390 C   0  0  0  0  0  0  0  0  0  0  0  0
  138.8763   70.7142  227.9282 H   0  0  0  0  0  0  0  0  0  0  0  0
  139.8078   70.3140  229.4327 H   0  0  0  0  0  0  0  0  0  0  0  0
  140.8760   71.5160  228.0120 C   0  0  0  0  0  0  0  0  0  0  0  0
  140.5418   72.4613  228.4644 H   0  0  0  0  0  0  0  0  0  0  0  0
  141.8499   71.2044  228.4174 H   0  0  0  0  0  0  0  0  0  0  0  0
  141.0350   71.7200  226.4900 C   0  0  0  0  0  0  0  0  0  0  0  0
  140.3198   72.4910  226.1673 H   0  0  0  0  0  0  0  0  0  0  0  0
  142.0804   72.0138  226.3147 H   0  0  0  0  0  0  0  0  0  0  0  0
  139.0520   72.6260  222.3150 C   0  0  0  0  0  0  0  0  0  0  0  0
  138.3677   72.5929  223.1756 H   0  0  0  0  0  0  0  0  0  0  0  0
  138.4680   72.7294  221.3886 H   0  0  0  0  0  0  0  0  0  0  0  0
  139.9520   73.7610  222.4530 N   0  0  0  0  0  0  0  0  0  0  0  0
  140.7200   74.2840  221.3640 C   0  0  0  0  0  0  0  0  0  0  0  0
  141.1410   73.5110  220.4600 O   0  0  0  0  0  0  0  0  0  0  0  0
  141.0420   75.7190  221.3010 C   0  0  0  0  0  0  0  0  0  0  0  0
  140.8530   76.4960  222.4040 N   0  0  0  0  0  0  0  0  0  0  0  0
  141.1250   77.8280  222.4040 C   0  0  0  0  0  0  0  0  0  0  0  0
  140.9140   78.5880  223.5600 C   0  0  0  0  0  0  0  0  0  0  0  0
  140.5278   78.1076  224.4711 H   0  0  0  0  0  0  0  0  0  0  0  0
  141.1940   79.9580  223.5570 C   0  0  0  0  0  0  0  0  0  0  0  0
  141.0283   80.5533  224.4671 H   0  0  0  0  0  0  0  0  0  0  0  0
  141.6840   80.5740  222.4010 C   0  0  0  0  0  0  0  0  0  0  0  0
  141.9560   81.9020  222.4050 F   0  0  0  0  0  0  0  0  0  0  0  0
  141.9000   79.8230  221.2400 C   0  0  0  0  0  0  0  0  0  0  0  0
  142.2870   80.3101  220.3328 H   0  0  0  0  0  0  0  0  0  0  0  0
  141.6220   78.4470  221.2350 C   0  0  0  0  0  0  0  0  0  0  0  0
  141.8350   77.6640  220.0940 C   0  0  0  0  0  0  0  0  0  0  0  0
  142.2244   78.1244  219.1740 H   0  0  0  0  0  0  0  0  0  0  0  0
  141.5520   76.2980  220.1270 C   0  0  0  0  0  0  0  0  0  0  0  0
  141.7277   75.6765  219.2366 H   0  0  0  0  0  0  0  0  0  0  0  0
  1  2  1  0
  2  3  1  0
  3  4  2  0
  4  5  1  0
  5  6  1  0
  5  7  1  0
  5  8  1  0
  8  9  1  1
  8 10  1  0
 10 11  1  0
  8 12  1  0
 12 13  1  0
 12 14  1  0
 12 15  1  0
 15 16  1  1
 15 17  1  0
 17 18  2  0
 17 19  1  0
 19 20  1  0
 20 21  1  0
 20 22  1  0
 22 23  1  0
 22 24  1  0
 22 25  1  0
 25 26  1  0
 25 27  1  0
 25 28  1  0
 28 29  1  0
 28 30  1  0
 28 31  1  0
 31 32  1  0
 31 33  1  0
 31 34  1  0
 34 35  1  0
 34 36  1  0
  3 37  1  0
 37 38  1  0
 37 39  1  0
 37 40  1  0
 40 41  1  0
 41 42  2  0
 41 43  1  0
 43 44  2  0
 44 45  1  0
 45 46  2  0
 46 47  1  0
 46 48  1  0
 48 49  1  0
 48 50  2  0
 50 51  1  0
 50 52  1  0
 52 53  1  0
 52 54  2  0
 54 55  1  0
 55 56  1  0
 55 57  2  0
 57 58  1  0
 15  4  1  0
 34 20  1  0
 57 43  1  0
 54 45  1  0
M  CHG  3   4   1  19  -1  40  -1
M  END
>  <UniqueID>  (78) 
140

>  <SMILES>  (78) 
O=C([N-]C/C(O)=[N+]1\C[C@H](O)C[C@H]1C(=O)[N-]C1CCCCC1)c1ccc2cc(F)ccc2n1

>  <Energy>  (78) 
60.398563280778

>  <Genealogy>  (78) 
O=C([N-]CC(=O)[NH+]1C[C@H](O)C[C@H]1C(=O)[N-]C1CCCCC1)c1ccc2cc(F)ccc2n1 (protonated)
O=C([N-]CC(O)=[N+]1C[C@H](O)C[C@H]1C(=O)[N-]C1CCCCC1)c1ccc2cc(F)ccc2n1 (tautomer)
O=C([N-]C/C(O)=[N+]1\C[C@H](O)C[C@H]1C(=O)[N-]C1CCCCC1)c1ccc2cc(F)ccc2n1 (cis-trans isomerization)
O=C([N-]C/C(O)=[N+]1\C[C@H](O)C[C@H]1C(=O)[N-]C1CCCCC1)c1ccc2cc(F)ccc2n1 (3D coordinates assigned)
O=C([N-]C/C(O)=[N+]1\C[C@H](O)C[C@H]1C(=O)[N-]C1CCCCC1)c1ccc2cc(F)ccc2n1 (nonaromatic ring conformer: 60.398563280778 kcal/mol)

>  <smiles>  (78) 
O=C(NCC(=O)N1C[C@H](O)C[C@H]1C(=O)NC1CCCCC1)c1ccc2cc(F)ccc2n1

>  <score_type>  (78) 
oracle

>  <origin>  (78) 
autodockgpu

>  <m_score__min__energy>  (78) 
-8.0299999999999994

>  <m_primary>  (78) 
energy

>  <meeko>  (78) 
{"free_energy": -7.07, "intermolecular_energy": -10.05, "internal_energy": -2.98, "cluster_size": 1, "cluster_id": 2, "rank_in_cluster": 1}

>  <energy>  (78) 
-6.44

>  <cluster_rmsd>  (78) 
0.0

>  <rmsd>  (78) 
269.63

>  <cluster>  (78) 
6

$$$$
YMXDKILJCZTOEU-DXDCNWIPNA-M
     RDKit          3D

 58 61  0  0  0  0  0  0  0  0999 V2000
  139.8110   72.2580  219.9580 H   0  0  0  0  0  0  0  0  0  0  0  0
  140.7740   72.4770  219.7420 O   0  0  0  0  0  0  0  0  0  0  0  0
  141.6560   73.0930  220.6370 C   0  0  0  0  0  0  0  0  0  0  0  0
  142.9300   73.2580  220.3420 N   0  0  0  0  0  0  0  0  0  0  0  0
  143.7760   72.2220  219.7490 C   0  0  0  0  0  0  0  0  0  0  0  0
  143.8797   71.3723  220.4398 H   0  0  0  0  0  0  0  0  0  0  0  0
  143.3416   71.8344  218.8157 H   0  0  0  0  0  0  0  0  0  0  0  0
  145.1340   72.8730  219.5030 C   0  0  2  0  0  0  0  0  0  0  0  0
  145.2789   73.1388  218.4455 H   0  0  0  0  0  0  0  0  0  0  0  0
  146.1760   71.9910  219.8270 O   0  0  0  0  0  0  0  0  0  0  0  0
  146.1650   71.8950  220.8150 H   0  0  0  0  0  0  0  0  0  0  0  0
  145.1540   74.1090  220.4010 C   0  0  0  0  0  0  0  0  0  0  0  0
  145.6225   73.8754  221.3685 H   0  0  0  0  0  0  0  0  0  0  0  0
  145.7357   74.9304  219.9572 H   0  0  0  0  0  0  0  0  0  0  0  0
  143.6850   74.4880  220.5940 C   0  0  1  0  0  0  0  0  0  0  0  0
  143.4945   74.8870  221.6012 H   0  0  0  0  0  0  0  0  0  0  0  0
  143.2850   75.5590  219.6150 C   0  0  0  0  0  0  0  0  0  0  0  0
  143.3790   75.3430  218.3770 O   0  0  0  0  0  0  0  0  0  0  0  0
  142.7550   76.7970  220.0980 N   0  0  0  0  0  0  0  0  0  0  0  0
  141.3340   77.0470  220.3400 C   0  0  0  0  0  0  0  0  0  0  0  0
  140.7299   76.3719  219.7161 H   0  0  0  0  0  0  0  0  0  0  0  0
  140.9760   78.4930  219.9560 C   0  0  0  0  0  0  0  0  0  0  0  0
  141.2024   78.6434  218.8901 H   0  0  0  0  0  0  0  0  0  0  0  0
  139.9059   78.6433  220.1615 H   0  0  0  0  0  0  0  0  0  0  0  0
  141.7680   79.5250  220.7830 C   0  0  0  0  0  0  0  0  0  0  0  0
  142.7065   79.7484  220.2545 H   0  0  0  0  0  0  0  0  0  0  0  0
  141.1281   80.4132  220.8905 H   0  0  0  0  0  0  0  0  0  0  0  0
  142.1130   79.0390  222.2070 C   0  0  0  0  0  0  0  0  0  0  0  0
  143.1058   78.5657  222.1907 H   0  0  0  0  0  0  0  0  0  0  0  0
  142.1010   79.9109  222.8776 H   0  0  0  0  0  0  0  0  0  0  0  0
  141.0890   78.0250  222.7270 C   0  0  0  0  0  0  0  0  0  0  0  0
  141.3786   77.7163  223.7423 H   0  0  0  0  0  0  0  0  0  0  0  0
  140.1007   78.5079  222.7254 H   0  0  0  0  0  0  0  0  0  0  0  0
  141.0100   76.7720  221.8280 C   0  0  0  0  0  0  0  0  0  0  0  0
  141.7264   76.0281  222.2068 H   0  0  0  0  0  0  0  0  0  0  0  0
  139.9702   76.4152  221.8679 H   0  0  0  0  0  0  0  0  0  0  0  0
  141.0730   73.5200  221.9590 C   0  0  0  0  0  0  0  0  0  0  0  0
  141.0789   74.6179  222.0259 H   0  0  0  0  0  0  0  0  0  0  0  0
  141.6745   73.1019  222.7796 H   0  0  0  0  0  0  0  0  0  0  0  0
  139.7050   73.0340  222.0600 N   0  0  0  0  0  0  0  0  0  0  0  0
  139.3690   71.6430  222.0650 C   0  0  0  0  0  0  0  0  0  0  0  0
  138.9250   71.0970  221.0170 O   0  0  0  0  0  0  0  0  0  0  0  0
  139.5170   70.8440  223.2930 C   0  0  0  0  0  0  0  0  0  0  0  0
  140.1180   71.3990  224.3830 N   0  0  0  0  0  0  0  0  0  0  0  0
  140.2900   70.7090  225.5410 C   0  0  0  0  0  0  0  0  0  0  0  0
  140.9130   71.3190  226.6360 C   0  0  0  0  0  0  0  0  0  0  0  0
  141.2636   72.3589  226.5599 H   0  0  0  0  0  0  0  0  0  0  0  0
  141.0900   70.6070  227.8270 C   0  0  0  0  0  0  0  0  0  0  0  0
  141.5797   71.0884  228.6863 H   0  0  0  0  0  0  0  0  0  0  0  0
  140.6460   69.2850  227.9280 C   0  0  0  0  0  0  0  0  0  0  0  0
  140.8190   68.6000  229.0860 F   0  0  0  0  0  0  0  0  0  0  0  0
  140.0210   68.6660  226.8390 C   0  0  0  0  0  0  0  0  0  0  0  0
  139.6730   67.6258  226.9218 H   0  0  0  0  0  0  0  0  0  0  0  0
  139.8390   69.3750  225.6410 C   0  0  0  0  0  0  0  0  0  0  0  0
  139.2090   68.7890  224.5370 C   0  0  0  0  0  0  0  0  0  0  0  0
  138.8474   67.7517  224.5944 H   0  0  0  0  0  0  0  0  0  0  0  0
  139.0410   69.5250  223.3630 C   0  0  0  0  0  0  0  0  0  0  0  0
  138.5374   69.0732  222.4957 H   0  0  0  0  0  0  0  0  0  0  0  0
  1  2  1  0
  2  3  1  0
  3  4  2  0
  4  5  1  0
  5  6  1  0
  5  7  1  0
  5  8  1  0
  8  9  1  6
  8 10  1  0
 10 11  1  0
  8 12  1  0
 12 13  1  0
 12 14  1  0
 12 15  1  0
 15 16  1  1
 15 17  1  0
 17 18  2  0
 17 19  1  0
 19 20  1  0
 20 21  1  0
 20 22  1  0
 22 23  1  0
 22 24  1  0
 22 25  1  0
 25 26  1  0
 25 27  1  0
 25 28  1  0
 28 29  1  0
 28 30  1  0
 28 31  1  0
 31 32  1  0
 31 33  1  0
 31 34  1  0
 34 35  1  0
 34 36  1  0
  3 37  1  0
 37 38  1  0
 37 39  1  0
 37 40  1  0
 40 41  1  0
 41 42  2  0
 41 43  1  0
 43 44  2  0
 44 45  1  0
 45 46  2  0
 46 47  1  0
 46 48  1  0
 48 49  1  0
 48 50  2  0
 50 51  1  0
 50 52  1  0
 52 53  1  0
 52 54  2  0
 54 55  1  0
 55 56  1  0
 55 57  2  0
 57 58  1  0
 15  4  1  0
 34 20  1  0
 57 43  1  0
 54 45  1  0
M  CHG  3   4   1  19  -1  40  -1
M  END
>  <UniqueID>  (79) 
140

>  <SMILES>  (79) 
O=C([N-]C/C(O)=[N+]1\C[C@H](O)C[C@H]1C(=O)[N-]C1CCCCC1)c1ccc2cc(F)ccc2n1

>  <Energy>  (79) 
60.398563280778

>  <Genealogy>  (79) 
O=C([N-]CC(=O)[NH+]1C[C@H](O)C[C@H]1C(=O)[N-]C1CCCCC1)c1ccc2cc(F)ccc2n1 (protonated)
O=C([N-]CC(O)=[N+]1C[C@H](O)C[C@H]1C(=O)[N-]C1CCCCC1)c1ccc2cc(F)ccc2n1 (tautomer)
O=C([N-]C/C(O)=[N+]1\C[C@H](O)C[C@H]1C(=O)[N-]C1CCCCC1)c1ccc2cc(F)ccc2n1 (cis-trans isomerization)
O=C([N-]C/C(O)=[N+]1\C[C@H](O)C[C@H]1C(=O)[N-]C1CCCCC1)c1ccc2cc(F)ccc2n1 (3D coordinates assigned)
O=C([N-]C/C(O)=[N+]1\C[C@H](O)C[C@H]1C(=O)[N-]C1CCCCC1)c1ccc2cc(F)ccc2n1 (nonaromatic ring conformer: 60.398563280778 kcal/mol)

>  <smiles>  (79) 
O=C(NCC(=O)N1C[C@H](O)C[C@H]1C(=O)NC1CCCCC1)c1ccc2cc(F)ccc2n1

>  <score_type>  (79) 
oracle

>  <origin>  (79) 
autodockgpu

>  <m_score__min__energy>  (79) 
-8.0299999999999994

>  <m_primary>  (79) 
energy

>  <meeko>  (79) 
{"free_energy": -6.49, "intermolecular_energy": -9.47, "internal_energy": -3.13, "cluster_size": 1, "cluster_id": 5, "rank_in_cluster": 1}

>  <energy>  (79) 
-6.4

>  <cluster_rmsd>  (79) 
0.0

>  <rmsd>  (79) 
269.3

>  <cluster>  (79) 
7

$$$$
YMXDKILJCZTOEU-DXDCNWIPNA-M
     RDKit          3D

 58 61  0  0  0  0  0  0  0  0999 V2000
  139.0600   73.7900  222.7800 H   0  0  0  0  0  0  0  0  0  0  0  0
  139.8260   74.2850  222.3450 O   0  0  0  0  0  0  0  0  0  0  0  0
  140.7890   73.6770  221.5320 C   0  0  0  0  0  0  0  0  0  0  0  0
  141.5190   74.3810  220.6900 N   0  0  0  0  0  0  0  0  0  0  0  0
  142.1350   73.8340  219.4810 C   0  0  0  0  0  0  0  0  0  0  0  0
  142.8842   73.0732  219.7452 H   0  0  0  0  0  0  0  0  0  0  0  0
  141.3889   73.3486  218.8347 H   0  0  0  0  0  0  0  0  0  0  0  0
  142.8020   75.0110  218.7750 C   0  0  2  0  0  0  0  0  0  0  0  0
  142.2100   75.3702  217.9203 H   0  0  0  0  0  0  0  0  0  0  0  0
  144.0500   74.6360  218.2530 O   0  0  0  0  0  0  0  0  0  0  0  0
  144.5170   75.4790  218.0130 H   0  0  0  0  0  0  0  0  0  0  0  0
  142.9510   76.0880  219.8480 C   0  0  0  0  0  0  0  0  0  0  0  0
  143.9393   76.0218  220.3264 H   0  0  0  0  0  0  0  0  0  0  0  0
  142.8695   77.1013  219.4278 H   0  0  0  0  0  0  0  0  0  0  0  0
  141.8440   75.7990  220.8620 C   0  0  1  0  0  0  0  0  0  0  0  0
  142.1626   76.0245  221.8904 H   0  0  0  0  0  0  0  0  0  0  0  0
  140.6360   76.6520  220.5790 C   0  0  0  0  0  0  0  0  0  0  0  0
  139.5300   76.1070  220.3170 O   0  0  0  0  0  0  0  0  0  0  0  0
  140.7410   78.0770  220.6580 N   0  0  0  0  0  0  0  0  0  0  0  0
  140.0730   78.8980  221.6680 C   0  0  0  0  0  0  0  0  0  0  0  0
  138.9875   78.8894  221.4901 H   0  0  0  0  0  0  0  0  0  0  0  0
  140.5560   80.3550  221.5730 C   0  0  0  0  0  0  0  0  0  0  0  0
  140.3247   80.7410  220.5692 H   0  0  0  0  0  0  0  0  0  0  0  0
  140.0394   80.9354  222.3516 H   0  0  0  0  0  0  0  0  0  0  0  0
  142.0740   80.4780  221.8160 C   0  0  0  0  0  0  0  0  0  0  0  0
  142.5906   80.3739  220.8505 H   0  0  0  0  0  0  0  0  0  0  0  0
  142.2488   81.4603  222.2792 H   0  0  0  0  0  0  0  0  0  0  0  0
  142.6310   79.4140  222.7850 C   0  0  0  0  0  0  0  0  0  0  0  0
  142.9812   78.5497  222.2016 H   0  0  0  0  0  0  0  0  0  0  0  0
  143.4560   79.8681  223.3535 H   0  0  0  0  0  0  0  0  0  0  0  0
  141.5690   78.9410  223.7830 C   0  0  0  0  0  0  0  0  0  0  0  0
  142.0177   78.1909  224.4509 H   0  0  0  0  0  0  0  0  0  0  0  0
  141.2188   79.8170  224.3487 H   0  0  0  0  0  0  0  0  0  0  0  0
  140.3510   78.3120  223.0730 C   0  0  0  0  0  0  0  0  0  0  0  0
  140.5307   77.2318  222.9684 H   0  0  0  0  0  0  0  0  0  0  0  0
  139.4698   78.5353  223.6923 H   0  0  0  0  0  0  0  0  0  0  0  0
  140.9120   72.1810  221.6500 C   0  0  0  0  0  0  0  0  0  0  0  0
  141.4435   71.9280  222.5793 H   0  0  0  0  0  0  0  0  0  0  0  0
  141.4746   71.7883  220.7902 H   0  0  0  0  0  0  0  0  0  0  0  0
  139.5820   71.5900  221.6740 N   0  0  0  0  0  0  0  0  0  0  0  0
  138.7800   71.5240  222.8570 C   0  0  0  0  0  0  0  0  0  0  0  0
  137.7670   72.2670  222.9760 O   0  0  0  0  0  0  0  0  0  0  0  0
  139.1400   70.6070  223.9530 C   0  0  0  0  0  0  0  0  0  0  0  0
  139.7340   71.1060  225.0730 N   0  0  0  0  0  0  0  0  0  0  0  0
  140.0950   70.3090  226.1130 C   0  0  0  0  0  0  0  0  0  0  0  0
  140.7040   70.8640  227.2440 C   0  0  0  0  0  0  0  0  0  0  0  0
  140.8902   71.9470  227.2922 H   0  0  0  0  0  0  0  0  0  0  0  0
  141.0760   70.0430  228.3130 C   0  0  0  0  0  0  0  0  0  0  0  0
  141.5533   70.4821  229.2014 H   0  0  0  0  0  0  0  0  0  0  0  0
  140.8430   68.6650  228.2560 C   0  0  0  0  0  0  0  0  0  0  0  0
  141.2040   67.8740  229.2960 F   0  0  0  0  0  0  0  0  0  0  0  0
  140.2340   68.1000  227.1290 C   0  0  0  0  0  0  0  0  0  0  0  0
  140.0513   67.0161  227.0871 H   0  0  0  0  0  0  0  0  0  0  0  0
  139.8570   68.9180  226.0530 C   0  0  0  0  0  0  0  0  0  0  0  0
  139.2370   68.3870  224.9160 C   0  0  0  0  0  0  0  0  0  0  0  0
  139.0386   67.3071  224.8496 H   0  0  0  0  0  0  0  0  0  0  0  0
  138.8710   69.2320  223.8660 C   0  0  0  0  0  0  0  0  0  0  0  0
  138.3740   68.8218  222.9745 H   0  0  0  0  0  0  0  0  0  0  0  0
  1  2  1  0
  2  3  1  0
  3  4  2  0
  4  5  1  0
  5  6  1  0
  5  7  1  0
  5  8  1  0
  8  9  1  6
  8 10  1  0
 10 11  1  0
  8 12  1  0
 12 13  1  0
 12 14  1  0
 12 15  1  0
 15 16  1  1
 15 17  1  0
 17 18  2  0
 17 19  1  0
 19 20  1  0
 20 21  1  0
 20 22  1  0
 22 23  1  0
 22 24  1  0
 22 25  1  0
 25 26  1  0
 25 27  1  0
 25 28  1  0
 28 29  1  0
 28 30  1  0
 28 31  1  0
 31 32  1  0
 31 33  1  0
 31 34  1  0
 34 35  1  0
 34 36  1  0
  3 37  1  0
 37 38  1  0
 37 39  1  0
 37 40  1  0
 40 41  1  0
 41 42  2  0
 41 43  1  0
 43 44  2  0
 44 45  1  0
 45 46  2  0
 46 47  1  0
 46 48  1  0
 48 49  1  0
 48 50  2  0
 50 51  1  0
 50 52  1  0
 52 53  1  0
 52 54  2  0
 54 55  1  0
 55 56  1  0
 55 57  2  0
 57 58  1  0
 15  4  1  0
 34 20  1  0
 57 43  1  0
 54 45  1  0
M  CHG  3   4   1  19  -1  40  -1
M  END
>  <UniqueID>  (80) 
140

>  <SMILES>  (80) 
O=C([N-]C/C(O)=[N+]1\C[C@H](O)C[C@H]1C(=O)[N-]C1CCCCC1)c1ccc2cc(F)ccc2n1

>  <Energy>  (80) 
60.398563280778

>  <Genealogy>  (80) 
O=C([N-]CC(=O)[NH+]1C[C@H](O)C[C@H]1C(=O)[N-]C1CCCCC1)c1ccc2cc(F)ccc2n1 (protonated)
O=C([N-]CC(O)=[N+]1C[C@H](O)C[C@H]1C(=O)[N-]C1CCCCC1)c1ccc2cc(F)ccc2n1 (tautomer)
O=C([N-]C/C(O)=[N+]1\C[C@H](O)C[C@H]1C(=O)[N-]C1CCCCC1)c1ccc2cc(F)ccc2n1 (cis-trans isomerization)
O=C([N-]C/C(O)=[N+]1\C[C@H](O)C[C@H]1C(=O)[N-]C1CCCCC1)c1ccc2cc(F)ccc2n1 (3D coordinates assigned)
O=C([N-]C/C(O)=[N+]1\C[C@H](O)C[C@H]1C(=O)[N-]C1CCCCC1)c1ccc2cc(F)ccc2n1 (nonaromatic ring conformer: 60.398563280778 kcal/mol)

>  <smiles>  (80) 
O=C(NCC(=O)N1C[C@H](O)C[C@H]1C(=O)NC1CCCCC1)c1ccc2cc(F)ccc2n1

>  <score_type>  (80) 
oracle

>  <origin>  (80) 
autodockgpu

>  <m_score__min__energy>  (80) 
-8.0299999999999994

>  <m_primary>  (80) 
energy

>  <meeko>  (80) 
{"free_energy": -7.58, "intermolecular_energy": -10.56, "internal_energy": -2.68, "cluster_size": 12, "cluster_id": 1, "rank_in_cluster": 3}

>  <energy>  (80) 
-5.41

>  <cluster_rmsd>  (80) 
0.0

>  <rmsd>  (80) 
269.72

>  <cluster>  (80) 
8

$$$$
