
     RDKit          3D

 55 58  0  0  0  0  0  0  0  0999 V2000
  139.9120   74.1200  222.3330 O   0  0  0  0  0  0  0  0  0  0  0  0
  140.3200   75.0780  221.5940 C   0  0  0  0  0  0  0  0  0  0  0  0
  140.7890   74.7640  220.2890 N   0  0  0  0  0  0  0  0  0  0  0  0
  140.7850   73.3910  219.8610 C   0  0  0  0  0  0  0  0  0  0  0  0
  142.0060   72.7340  220.3920 C   0  0  0  0  0  0  0  0  0  0  0  0
  141.9830   71.7240  221.1420 O   0  0  0  0  0  0  0  0  0  0  0  0
  143.2820   73.2570  220.0480 N   0  0  0  0  0  0  0  0  0  0  0  0
  144.2680   72.6330  219.1750 C   0  0  0  0  0  0  0  0  0  0  0  0
  145.5410   72.8140  219.9840 C   0  0  0  0  0  0  0  0  0  0  0  0
  145.3040   74.1030  220.7250 C   0  0  0  0  0  0  0  0  0  0  0  0
  143.8910   74.5020  220.4760 C   0  0  1  0  0  0  0  0  0  0  0  0
  143.6810   75.4890  219.4140 C   0  0  0  0  0  0  0  0  0  0  0  0
  144.0050   75.1550  218.2330 O   0  0  0  0  0  0  0  0  0  0  0  0
  143.1390   76.7540  219.7040 N   0  0  0  0  0  0  0  0  0  0  0  0
  142.8890   77.7990  218.7480 C   0  0  0  0  0  0  0  0  0  0  0  0
  141.7090   78.6060  219.1240 C   0  0  0  0  0  0  0  0  0  0  0  0
  140.4150   78.1470  219.1110 C   0  0  0  0  0  0  0  0  0  0  0  0
  139.3300   78.9520  219.4730 C   0  0  0  0  0  0  0  0  0  0  0  0
  139.5910   80.2630  219.8560 C   0  0  0  0  0  0  0  0  0  0  0  0
  138.2520   81.3180  220.3220 Cl  0  0  0  0  0  0  0  0  0  0  0  0
  140.8680   80.7260  219.8730 C   0  0  0  0  0  0  0  0  0  0  0  0
  141.1390   82.3930  220.3680 Cl  0  0  0  0  0  0  0  0  0  0  0  0
  141.9250   79.9080  219.5110 C   0  0  0  0  0  0  0  0  0  0  0  0
  140.3040   76.4540  222.0760 C   0  0  0  0  0  0  0  0  0  0  0  0
  139.0710   77.0150  222.4140 C   0  0  0  0  0  0  0  0  0  0  0  0
  139.0350   78.3290  222.8790 C   0  0  0  0  0  0  0  0  0  0  0  0
  140.1870   79.0840  223.0100 C   0  0  0  0  0  0  0  0  0  0  0  0
  140.1860   80.3850  223.4660 C   0  0  0  0  0  0  0  0  0  0  0  0
  141.3380   81.1200  223.5910 C   0  0  0  0  0  0  0  0  0  0  0  0
  142.5430   80.5190  223.2410 C   0  0  0  0  0  0  0  0  0  0  0  0
  142.5550   79.1980  222.7770 C   0  0  0  0  0  0  0  0  0  0  0  0
  141.3750   78.4760  222.6610 C   0  0  0  0  0  0  0  0  0  0  0  0
  141.3920   77.2130  222.2170 N   0  0  0  0  0  0  0  0  0  0  0  0
  141.1310   75.5160  219.6480 H   0  0  0  0  0  0  0  0  0  0  0  0
  139.8902   72.8828  220.2496 H   0  0  0  0  0  0  0  0  0  0  0  0
  140.7723   73.3363  218.7624 H   0  0  0  0  0  0  0  0  0  0  0  0
  144.0436   71.5688  219.0105 H   0  0  0  0  0  0  0  0  0  0  0  0
  144.3118   73.0653  218.1645 H   0  0  0  0  0  0  0  0  0  0  0  0
  145.6843   71.9781  220.6845 H   0  0  0  0  0  0  0  0  0  0  0  0
  146.4464   72.8380  219.3598 H   0  0  0  0  0  0  0  0  0  0  0  0
  145.4691   73.9540  221.8023 H   0  0  0  0  0  0  0  0  0  0  0  0
  145.9966   74.8846  220.3794 H   0  0  0  0  0  0  0  0  0  0  0  0
  143.4830   74.9808  221.3784 H   0  0  0  0  0  0  0  0  0  0  0  0
  142.8980   76.9430  220.7150 H   0  0  0  0  0  0  0  0  0  0  0  0
  143.7700   78.4558  218.6978 H   0  0  0  0  0  0  0  0  0  0  0  0
  142.6917   77.3333  217.7712 H   0  0  0  0  0  0  0  0  0  0  0  0
  140.2246   77.1078  218.8046 H   0  0  0  0  0  0  0  0  0  0  0  0
  138.3023   78.5602  219.4553 H   0  0  0  0  0  0  0  0  0  0  0  0
  142.9508   80.3047  219.5332 H   0  0  0  0  0  0  0  0  0  0  0  0
  138.1443   76.4307  222.3152 H   0  0  0  0  0  0  0  0  0  0  0  0
  138.0669   78.7764  223.1483 H   0  0  0  0  0  0  0  0  0  0  0  0
  139.2276   80.8505  223.7394 H   0  0  0  0  0  0  0  0  0  0  0  0
  141.3095   82.1566  223.9581 H   0  0  0  0  0  0  0  0  0  0  0  0
  143.4847   81.0807  223.3287 H   0  0  0  0  0  0  0  0  0  0  0  0
  143.5101   78.7270  222.5013 H   0  0  0  0  0  0  0  0  0  0  0  0
  1  2  2  0
  2  3  1  0
  3  4  1  0
  4  5  1  0
  5  6  2  0
  5  7  1  0
  7  8  1  0
  8  9  1  0
  9 10  1  0
 10 11  1  0
 11 12  1  0
 12 13  2  0
 12 14  1  0
 14 15  1  0
 15 16  1  0
 16 17  2  0
 17 18  1  0
 18 19  2  0
 19 20  1  0
 19 21  1  0
 21 22  1  0
 21 23  2  0
  2 24  1  0
 24 25  2  0
 25 26  1  0
 26 27  2  0
 27 28  1  0
 28 29  2  0
 29 30  1  0
 30 31  2  0
 31 32  1  0
 32 33  2  0
 11  7  1  0
 23 16  1  0
 33 24  1  0
 32 27  1  0
  3 34  1  0
  4 35  1  0
  4 36  1  0
  8 37  1  0
  8 38  1  0
  9 39  1  0
  9 40  1  0
 10 41  1  0
 10 42  1  0
 11 43  1  1
 14 44  1  0
 15 45  1  0
 15 46  1  0
 17 47  1  0
 18 48  1  0
 23 49  1  0
 25 50  1  0
 26 51  1  0
 28 52  1  0
 29 53  1  0
 30 54  1  0
 31 55  1  0
M  END
>  <smiles>  (1) 
O=C(NCC(=O)N1CCC[C@H]1C(=O)NCc1ccc(Cl)c(Cl)c1)c1ccc2ccccc2n1

>  <score_type>  (1) 
oracle

>  <origin>  (1) 
autodockgpu

>  <m_score__min__energy>  (1) 
-9.1199999999999992

>  <m_primary>  (1) 
energy

>  <meeko>  (1) 
{"free_energy": -7.51, "intermolecular_energy": -9.6, "internal_energy": -4.6, "cluster_size": 14, "cluster_id": 6, "rank_in_cluster": 3}

>  <energy>  (1) 
-9.12

>  <cluster_rmsd>  (1) 
0.0

>  <rmsd>  (1) 
269.57

>  <cluster>  (1) 
1

$$$$

     RDKit          3D

 55 58  0  0  0  0  0  0  0  0999 V2000
  139.6000   74.3170  222.3550 O   0  0  0  0  0  0  0  0  0  0  0  0
  140.2060   75.2230  221.6900 C   0  0  0  0  0  0  0  0  0  0  0  0
  140.8370   74.8510  220.4700 N   0  0  0  0  0  0  0  0  0  0  0  0
  140.7650   73.4800  220.0430 C   0  0  0  0  0  0  0  0  0  0  0  0
  141.9980   72.7870  220.4930 C   0  0  0  0  0  0  0  0  0  0  0  0
  141.9930   71.7620  221.2250 O   0  0  0  0  0  0  0  0  0  0  0  0
  143.2650   73.2880  220.0890 N   0  0  0  0  0  0  0  0  0  0  0  0
  144.2060   72.6390  219.1850 C   0  0  0  0  0  0  0  0  0  0  0  0
  145.5130   72.8140  219.9380 C   0  0  0  0  0  0  0  0  0  0  0  0
  145.3240   74.1160  220.6690 C   0  0  0  0  0  0  0  0  0  0  0  0
  143.9070   74.5310  220.4730 C   0  0  1  0  0  0  0  0  0  0  0  0
  143.6650   75.5050  219.4060 C   0  0  0  0  0  0  0  0  0  0  0  0
  144.0230   75.1860  218.2310 O   0  0  0  0  0  0  0  0  0  0  0  0
  143.0570   76.7420  219.6860 N   0  0  0  0  0  0  0  0  0  0  0  0
  142.7710   77.7730  218.7250 C   0  0  0  0  0  0  0  0  0  0  0  0
  141.6050   78.5850  219.1320 C   0  0  0  0  0  0  0  0  0  0  0  0
  140.3090   78.1310  219.1550 C   0  0  0  0  0  0  0  0  0  0  0  0
  139.2370   78.9400  219.5460 C   0  0  0  0  0  0  0  0  0  0  0  0
  139.5130   80.2500  219.9210 C   0  0  0  0  0  0  0  0  0  0  0  0
  138.1920   81.3110  220.4220 Cl  0  0  0  0  0  0  0  0  0  0  0  0
  140.7920   80.7090  219.9020 C   0  0  0  0  0  0  0  0  0  0  0  0
  141.0820   82.3750  220.3870 Cl  0  0  0  0  0  0  0  0  0  0  0  0
  141.8360   79.8870  219.5110 C   0  0  0  0  0  0  0  0  0  0  0  0
  140.2510   76.6000  222.1690 C   0  0  0  0  0  0  0  0  0  0  0  0
  139.0500   77.1960  222.5560 C   0  0  0  0  0  0  0  0  0  0  0  0
  139.0700   78.5120  223.0200 C   0  0  0  0  0  0  0  0  0  0  0  0
  140.2480   79.2330  223.1010 C   0  0  0  0  0  0  0  0  0  0  0  0
  140.3040   80.5350  223.5530 C   0  0  0  0  0  0  0  0  0  0  0  0
  141.4800   81.2360  223.6290 C   0  0  0  0  0  0  0  0  0  0  0  0
  142.6520   80.6000  223.2310 C   0  0  0  0  0  0  0  0  0  0  0  0
  142.6070   79.2780  222.7700 C   0  0  0  0  0  0  0  0  0  0  0  0
  141.4030   78.5900  222.7040 C   0  0  0  0  0  0  0  0  0  0  0  0
  141.3650   77.3280  222.2630 N   0  0  0  0  0  0  0  0  0  0  0  0
  141.3430   75.5600  219.8920 H   0  0  0  0  0  0  0  0  0  0  0  0
  139.8830   72.9972  220.4891 H   0  0  0  0  0  0  0  0  0  0  0  0
  140.6790   73.4280  218.9476 H   0  0  0  0  0  0  0  0  0  0  0  0
  143.9614   71.5757  219.0450 H   0  0  0  0  0  0  0  0  0  0  0  0
  144.2135   73.0568  218.1675 H   0  0  0  0  0  0  0  0  0  0  0  0
  145.6741   71.9861  220.6442 H   0  0  0  0  0  0  0  0  0  0  0  0
  146.3920   72.8169  219.2767 H   0  0  0  0  0  0  0  0  0  0  0  0
  145.5318   73.9799  221.7406 H   0  0  0  0  0  0  0  0  0  0  0  0
  146.0118   74.8830  220.2835 H   0  0  0  0  0  0  0  0  0  0  0  0
  143.5436   75.0286  221.3842 H   0  0  0  0  0  0  0  0  0  0  0  0
  142.7920   76.9200  220.6930 H   0  0  0  0  0  0  0  0  0  0  0  0
  143.6489   78.4293  218.6330 H   0  0  0  0  0  0  0  0  0  0  0  0
  142.5382   77.2930  217.7630 H   0  0  0  0  0  0  0  0  0  0  0  0
  140.1065   77.0923  218.8547 H   0  0  0  0  0  0  0  0  0  0  0  0
  138.2078   78.5519  219.5565 H   0  0  0  0  0  0  0  0  0  0  0  0
  142.8632   80.2805  219.5035 H   0  0  0  0  0  0  0  0  0  0  0  0
  138.1038   76.6381  222.4963 H   0  0  0  0  0  0  0  0  0  0  0  0
  138.1271   78.9872  223.3286 H   0  0  0  0  0  0  0  0  0  0  0  0
  139.3715   81.0288  223.8637 H   0  0  0  0  0  0  0  0  0  0  0  0
  141.4965   82.2733  223.9948 H   0  0  0  0  0  0  0  0  0  0  0  0
  143.6122   81.1345  223.2783 H   0  0  0  0  0  0  0  0  0  0  0  0
  143.5361   78.7794  222.4568 H   0  0  0  0  0  0  0  0  0  0  0  0
  1  2  2  0
  2  3  1  0
  3  4  1  0
  4  5  1  0
  5  6  2  0
  5  7  1  0
  7  8  1  0
  8  9  1  0
  9 10  1  0
 10 11  1  0
 11 12  1  0
 12 13  2  0
 12 14  1  0
 14 15  1  0
 15 16  1  0
 16 17  2  0
 17 18  1  0
 18 19  2  0
 19 20  1  0
 19 21  1  0
 21 22  1  0
 21 23  2  0
  2 24  1  0
 24 25  2  0
 25 26  1  0
 26 27  2  0
 27 28  1  0
 28 29  2  0
 29 30  1  0
 30 31  2  0
 31 32  1  0
 32 33  2  0
 11  7  1  0
 23 16  1  0
 33 24  1  0
 32 27  1  0
  3 34  1  0
  4 35  1  0
  4 36  1  0
  8 37  1  0
  8 38  1  0
  9 39  1  0
  9 40  1  0
 10 41  1  0
 10 42  1  0
 11 43  1  1
 14 44  1  0
 15 45  1  0
 15 46  1  0
 17 47  1  0
 18 48  1  0
 23 49  1  0
 25 50  1  0
 26 51  1  0
 28 52  1  0
 29 53  1  0
 30 54  1  0
 31 55  1  0
M  END
>  <smiles>  (2) 
O=C(NCC(=O)N1CCC[C@H]1C(=O)NCc1ccc(Cl)c(Cl)c1)c1ccc2ccccc2n1

>  <score_type>  (2) 
oracle

>  <origin>  (2) 
autodockgpu

>  <m_score__min__energy>  (2) 
-9.1199999999999992

>  <m_primary>  (2) 
energy

>  <meeko>  (2) 
{"free_energy": -7.56, "intermolecular_energy": -9.65, "internal_energy": -4.56, "cluster_size": 14, "cluster_id": 6, "rank_in_cluster": 1}

>  <energy>  (2) 
-9.02

>  <cluster_rmsd>  (2) 
0.0

>  <rmsd>  (2) 
269.49

>  <cluster>  (2) 
2

$$$$

     RDKit          3D

 55 58  0  0  0  0  0  0  0  0999 V2000
  138.8780   75.4570  221.1830 O   0  0  0  0  0  0  0  0  0  0  0  0
  140.0380   75.8170  221.5770 C   0  0  0  0  0  0  0  0  0  0  0  0
  141.1110   74.8940  221.4360 N   0  0  0  0  0  0  0  0  0  0  0  0
  140.8430   73.6020  220.8610 C   0  0  0  0  0  0  0  0  0  0  0  0
  142.0700   72.7760  220.9820 C   0  0  0  0  0  0  0  0  0  0  0  0
  142.1070   71.6670  221.5770 O   0  0  0  0  0  0  0  0  0  0  0  0
  143.2820   73.2410  220.4030 N   0  0  0  0  0  0  0  0  0  0  0  0
  144.1420   72.5040  219.4850 C   0  0  0  0  0  0  0  0  0  0  0  0
  145.5130   72.7720  220.0810 C   0  0  0  0  0  0  0  0  0  0  0  0
  145.3720   74.1440  220.6830 C   0  0  0  0  0  0  0  0  0  0  0  0
  143.9340   74.5230  220.5850 C   0  0  1  0  0  0  0  0  0  0  0  0
  143.5710   75.3730  219.4480 C   0  0  0  0  0  0  0  0  0  0  0  0
  143.9050   74.9750  218.2900 O   0  0  0  0  0  0  0  0  0  0  0  0
  142.8770   76.5800  219.6460 N   0  0  0  0  0  0  0  0  0  0  0  0
  142.4690   77.4930  218.6120 C   0  0  0  0  0  0  0  0  0  0  0  0
  141.4190   78.4170  219.0880 C   0  0  0  0  0  0  0  0  0  0  0  0
  140.0760   78.1320  219.1000 C   0  0  0  0  0  0  0  0  0  0  0  0
  139.1190   79.0430  219.5580 C   0  0  0  0  0  0  0  0  0  0  0  0
  139.5620   80.2780  220.0150 C   0  0  0  0  0  0  0  0  0  0  0  0
  138.3910   81.4620  220.6040 Cl  0  0  0  0  0  0  0  0  0  0  0  0
  140.8890   80.5710  220.0090 C   0  0  0  0  0  0  0  0  0  0  0  0
  141.3930   82.1500  220.5990 Cl  0  0  0  0  0  0  0  0  0  0  0  0
  141.8170   79.6500  219.5500 C   0  0  0  0  0  0  0  0  0  0  0  0
  140.2550   77.1380  222.1540 C   0  0  0  0  0  0  0  0  0  0  0  0
  139.1440   77.8330  222.6330 C   0  0  0  0  0  0  0  0  0  0  0  0
  139.3300   79.0980  223.1920 C   0  0  0  0  0  0  0  0  0  0  0  0
  140.5850   79.6740  223.2780 C   0  0  0  0  0  0  0  0  0  0  0  0
  140.8050   80.9210  223.8230 C   0  0  0  0  0  0  0  0  0  0  0  0
  142.0560   81.4790  223.9030 C   0  0  0  0  0  0  0  0  0  0  0  0
  143.1340   80.7480  223.4110 C   0  0  0  0  0  0  0  0  0  0  0  0
  142.9220   79.4800  222.8550 C   0  0  0  0  0  0  0  0  0  0  0  0
  141.6450   78.9390  222.7880 C   0  0  0  0  0  0  0  0  0  0  0  0
  141.4480   77.7270  222.2560 N   0  0  0  0  0  0  0  0  0  0  0  0
  142.0770   75.1460  221.7420 H   0  0  0  0  0  0  0  0  0  0  0  0
  140.0146   73.1192  221.4002 H   0  0  0  0  0  0  0  0  0  0  0  0
  140.5600   73.7086  219.8034 H   0  0  0  0  0  0  0  0  0  0  0  0
  143.9054   71.4297  219.4864 H   0  0  0  0  0  0  0  0  0  0  0  0
  144.0415   72.8070  218.4324 H   0  0  0  0  0  0  0  0  0  0  0  0
  145.7588   72.0274  220.8525 H   0  0  0  0  0  0  0  0  0  0  0  0
  146.3224   72.7109  219.3386 H   0  0  0  0  0  0  0  0  0  0  0  0
  145.6862   74.1271  221.7370 H   0  0  0  0  0  0  0  0  0  0  0  0
  146.0042   74.8704  220.1513 H   0  0  0  0  0  0  0  0  0  0  0  0
  143.6512   75.1136  221.4688 H   0  0  0  0  0  0  0  0  0  0  0  0
  142.6400   76.8300  220.6450 H   0  0  0  0  0  0  0  0  0  0  0  0
  143.3415   78.0797  218.2887 H   0  0  0  0  0  0  0  0  0  0  0  0
  142.0594   76.9067  217.7762 H   0  0  0  0  0  0  0  0  0  0  0  0
  139.7401   77.1500  218.7356 H   0  0  0  0  0  0  0  0  0  0  0  0
  138.0486   78.7896  219.5565 H   0  0  0  0  0  0  0  0  0  0  0  0
  142.8862   79.9083  219.5552 H   0  0  0  0  0  0  0  0  0  0  0  0
  138.1385   77.3912  222.5710 H   0  0  0  0  0  0  0  0  0  0  0  0
  138.4584   79.6502  223.5732 H   0  0  0  0  0  0  0  0  0  0  0  0
  139.9458   81.4898  224.2080 H   0  0  0  0  0  0  0  0  0  0  0  0
  142.2031   82.4761  224.3436 H   0  0  0  0  0  0  0  0  0  0  0  0
  144.1505   81.1656  223.4589 H   0  0  0  0  0  0  0  0  0  0  0  0
  143.7767   78.9064  222.4671 H   0  0  0  0  0  0  0  0  0  0  0  0
  1  2  2  0
  2  3  1  0
  3  4  1  0
  4  5  1  0
  5  6  2  0
  5  7  1  0
  7  8  1  0
  8  9  1  0
  9 10  1  0
 10 11  1  0
 11 12  1  0
 12 13  2  0
 12 14  1  0
 14 15  1  0
 15 16  1  0
 16 17  2  0
 17 18  1  0
 18 19  2  0
 19 20  1  0
 19 21  1  0
 21 22  1  0
 21 23  2  0
  2 24  1  0
 24 25  2  0
 25 26  1  0
 26 27  2  0
 27 28  1  0
 28 29  2  0
 29 30  1  0
 30 31  2  0
 31 32  1  0
 32 33  2  0
 11  7  1  0
 23 16  1  0
 33 24  1  0
 32 27  1  0
  3 34  1  0
  4 35  1  0
  4 36  1  0
  8 37  1  0
  8 38  1  0
  9 39  1  0
  9 40  1  0
 10 41  1  0
 10 42  1  0
 11 43  1  1
 14 44  1  0
 15 45  1  0
 15 46  1  0
 17 47  1  0
 18 48  1  0
 23 49  1  0
 25 50  1  0
 26 51  1  0
 28 52  1  0
 29 53  1  0
 30 54  1  0
 31 55  1  0
M  END
>  <smiles>  (3) 
O=C(NCC(=O)N1CCC[C@H]1C(=O)NCc1ccc(Cl)c(Cl)c1)c1ccc2ccccc2n1

>  <score_type>  (3) 
oracle

>  <origin>  (3) 
autodockgpu

>  <m_score__min__energy>  (3) 
-9.1199999999999992

>  <m_primary>  (3) 
energy

>  <meeko>  (3) 
{"free_energy": -7.51, "intermolecular_energy": -9.6, "internal_energy": -4.37, "cluster_size": 14, "cluster_id": 6, "rank_in_cluster": 4}

>  <energy>  (3) 
-8.54

>  <cluster_rmsd>  (3) 
1.75

>  <rmsd>  (3) 
269.75

>  <cluster>  (3) 
2

$$$$

     RDKit          3D

 55 58  0  0  0  0  0  0  0  0999 V2000
  135.9300   78.2810  222.9790 O   0  0  0  0  0  0  0  0  0  0  0  0
  137.1250   77.8350  222.9210 C   0  0  0  0  0  0  0  0  0  0  0  0
  137.3110   76.4470  222.6710 N   0  0  0  0  0  0  0  0  0  0  0  0
  136.1520   75.6130  222.4960 C   0  0  0  0  0  0  0  0  0  0  0  0
  136.6030   74.2010  222.4180 C   0  0  0  0  0  0  0  0  0  0  0  0
  137.6950   73.8460  221.9030 O   0  0  0  0  0  0  0  0  0  0  0  0
  135.7720   73.1760  222.9450 N   0  0  0  0  0  0  0  0  0  0  0  0
  134.6670   72.5160  222.2590 C   0  0  0  0  0  0  0  0  0  0  0  0
  133.5940   72.5340  223.3330 C   0  0  0  0  0  0  0  0  0  0  0  0
  134.3800   72.4410  224.6140 C   0  0  0  0  0  0  0  0  0  0  0  0
  135.8210   72.5610  224.2570 C   0  0  1  0  0  0  0  0  0  0  0  0
  136.5570   71.3010  224.1310 C   0  0  0  0  0  0  0  0  0  0  0  0
  135.9950   70.2480  224.5640 O   0  0  0  0  0  0  0  0  0  0  0  0
  137.8380   71.2710  223.5490 N   0  0  0  0  0  0  0  0  0  0  0  0
  138.6530   70.0990  223.3730 C   0  0  0  0  0  0  0  0  0  0  0  0
  139.2250   69.6390  224.6550 C   0  0  0  0  0  0  0  0  0  0  0  0
  139.2400   68.3320  225.0770 C   0  0  0  0  0  0  0  0  0  0  0  0
  139.7910   67.9470  226.3040 C   0  0  0  0  0  0  0  0  0  0  0  0
  140.3390   68.9370  227.1120 C   0  0  0  0  0  0  0  0  0  0  0  0
  141.0470   68.4980  228.6700 Cl  0  0  0  0  0  0  0  0  0  0  0  0
  140.3290   70.2330  226.7030 C   0  0  0  0  0  0  0  0  0  0  0  0
  141.0370   71.4430  227.7660 Cl  0  0  0  0  0  0  0  0  0  0  0  0
  139.7770   70.5880  225.4830 C   0  0  0  0  0  0  0  0  0  0  0  0
  138.2660   78.7240  223.1070 C   0  0  0  0  0  0  0  0  0  0  0  0
  138.0120   80.0440  223.4820 C   0  0  0  0  0  0  0  0  0  0  0  0
  139.0900   80.9100  223.6680 C   0  0  0  0  0  0  0  0  0  0  0  0
  140.3960   80.4910  223.4870 C   0  0  0  0  0  0  0  0  0  0  0  0
  141.4840   81.3200  223.6610 C   0  0  0  0  0  0  0  0  0  0  0  0
  142.7730   80.8890  223.4790 C   0  0  0  0  0  0  0  0  0  0  0  0
  142.9770   79.5640  223.1050 C   0  0  0  0  0  0  0  0  0  0  0  0
  141.8790   78.7130  222.9250 C   0  0  0  0  0  0  0  0  0  0  0  0
  140.5840   79.1750  223.1160 C   0  0  0  0  0  0  0  0  0  0  0  0
  139.5380   78.3580  222.9440 N   0  0  0  0  0  0  0  0  0  0  0  0
  138.2710   76.0380  222.6130 H   0  0  0  0  0  0  0  0  0  0  0  0
  135.4702   75.7393  223.3499 H   0  0  0  0  0  0  0  0  0  0  0  0
  135.6187   75.8925  221.5754 H   0  0  0  0  0  0  0  0  0  0  0  0
  134.3533   73.0788  221.3674 H   0  0  0  0  0  0  0  0  0  0  0  0
  134.9081   71.5115  221.8811 H   0  0  0  0  0  0  0  0  0  0  0  0
  133.0139   73.4678  223.2941 H   0  0  0  0  0  0  0  0  0  0  0  0
  132.8599   71.7226  223.2200 H   0  0  0  0  0  0  0  0  0  0  0  0
  134.0910   73.2564  225.2934 H   0  0  0  0  0  0  0  0  0  0  0  0
  134.1826   71.4868  225.1245 H   0  0  0  0  0  0  0  0  0  0  0  0
  136.3489   73.1078  225.0522 H   0  0  0  0  0  0  0  0  0  0  0  0
  138.2260   72.1960  223.2160 H   0  0  0  0  0  0  0  0  0  0  0  0
  138.0348   69.2943  222.9484 H   0  0  0  0  0  0  0  0  0  0  0  0
  139.4825   70.3541  222.6971 H   0  0  0  0  0  0  0  0  0  0  0  0
  138.8029   67.5600  224.4266 H   0  0  0  0  0  0  0  0  0  0  0  0
  139.7907   66.8933  226.6198 H   0  0  0  0  0  0  0  0  0  0  0  0
  139.7803   71.6432  225.1725 H   0  0  0  0  0  0  0  0  0  0  0  0
  136.9800   80.3955  223.6284 H   0  0  0  0  0  0  0  0  0  0  0  0
  138.8968   81.9512  223.9658 H   0  0  0  0  0  0  0  0  0  0  0  0
  141.3116   82.3654  223.9566 H   0  0  0  0  0  0  0  0  0  0  0  0
  143.6228   81.5720  223.6247 H   0  0  0  0  0  0  0  0  0  0  0  0
  143.9984   79.1858  222.9511 H   0  0  0  0  0  0  0  0  0  0  0  0
  142.0449   77.6667  222.6289 H   0  0  0  0  0  0  0  0  0  0  0  0
  1  2  2  0
  2  3  1  0
  3  4  1  0
  4  5  1  0
  5  6  2  0
  5  7  1  0
  7  8  1  0
  8  9  1  0
  9 10  1  0
 10 11  1  0
 11 12  1  0
 12 13  2  0
 12 14  1  0
 14 15  1  0
 15 16  1  0
 16 17  2  0
 17 18  1  0
 18 19  2  0
 19 20  1  0
 19 21  1  0
 21 22  1  0
 21 23  2  0
  2 24  1  0
 24 25  2  0
 25 26  1  0
 26 27  2  0
 27 28  1  0
 28 29  2  0
 29 30  1  0
 30 31  2  0
 31 32  1  0
 32 33  2  0
 11  7  1  0
 23 16  1  0
 33 24  1  0
 32 27  1  0
  3 34  1  0
  4 35  1  0
  4 36  1  0
  8 37  1  0
  8 38  1  0
  9 39  1  0
  9 40  1  0
 10 41  1  0
 10 42  1  0
 11 43  1  1
 14 44  1  0
 15 45  1  0
 15 46  1  0
 17 47  1  0
 18 48  1  0
 23 49  1  0
 25 50  1  0
 26 51  1  0
 28 52  1  0
 29 53  1  0
 30 54  1  0
 31 55  1  0
M  END
>  <smiles>  (4) 
O=C(NCC(=O)N1CCC[C@H]1C(=O)NCc1ccc(Cl)c(Cl)c1)c1ccc2ccccc2n1

>  <score_type>  (4) 
oracle

>  <origin>  (4) 
autodockgpu

>  <m_score__min__energy>  (4) 
-9.1199999999999992

>  <m_primary>  (4) 
energy

>  <meeko>  (4) 
{"free_energy": -8.54, "intermolecular_energy": -10.63, "internal_energy": -2.76, "cluster_size": 2, "cluster_id": 2, "rank_in_cluster": 2}

>  <energy>  (4) 
-8.76

>  <cluster_rmsd>  (4) 
0.0

>  <rmsd>  (4) 
269.79

>  <cluster>  (4) 
3

$$$$

     RDKit          3D

 55 58  0  0  0  0  0  0  0  0999 V2000
  139.5060   74.7970  221.9830 O   0  0  0  0  0  0  0  0  0  0  0  0
  140.5310   75.5530  221.8920 C   0  0  0  0  0  0  0  0  0  0  0  0
  141.7140   75.0130  221.3150 N   0  0  0  0  0  0  0  0  0  0  0  0
  141.7050   73.6470  220.8660 C   0  0  0  0  0  0  0  0  0  0  0  0
  142.2370   73.6090  219.4800 C   0  0  0  0  0  0  0  0  0  0  0  0
  143.0160   72.7160  219.0580 O   0  0  0  0  0  0  0  0  0  0  0  0
  141.8600   74.6270  218.5630 N   0  0  0  0  0  0  0  0  0  0  0  0
  140.5060   75.0990  218.3000 C   0  0  0  0  0  0  0  0  0  0  0  0
  140.4920   75.1410  216.7830 C   0  0  0  0  0  0  0  0  0  0  0  0
  141.9190   75.4650  216.4280 C   0  0  0  0  0  0  0  0  0  0  0  0
  142.7100   75.4130  217.6900 C   0  0  1  0  0  0  0  0  0  0  0  0
  142.9540   76.6990  218.3470 C   0  0  0  0  0  0  0  0  0  0  0  0
  143.3870   76.6740  219.5400 O   0  0  0  0  0  0  0  0  0  0  0  0
  142.7160   77.9090  217.6700 N   0  0  0  0  0  0  0  0  0  0  0  0
  142.9180   79.2270  218.2100 C   0  0  0  0  0  0  0  0  0  0  0  0
  141.7120   79.7150  218.9120 C   0  0  0  0  0  0  0  0  0  0  0  0
  140.5480   79.0000  219.0510 C   0  0  0  0  0  0  0  0  0  0  0  0
  139.4310   79.5080  219.7230 C   0  0  0  0  0  0  0  0  0  0  0  0
  139.5220   80.7850  220.2630 C   0  0  0  0  0  0  0  0  0  0  0  0
  138.1370   81.4700  221.1210 Cl  0  0  0  0  0  0  0  0  0  0  0  0
  140.6690   81.5010  220.1310 C   0  0  0  0  0  0  0  0  0  0  0  0
  140.7270   83.1130  220.8360 Cl  0  0  0  0  0  0  0  0  0  0  0  0
  141.7610   80.9750  219.4620 C   0  0  0  0  0  0  0  0  0  0  0  0
  140.4880   76.9320  222.3640 C   0  0  0  0  0  0  0  0  0  0  0  0
  139.2430   77.4740  222.6880 C   0  0  0  0  0  0  0  0  0  0  0  0
  139.1790   78.7900  223.1450 C   0  0  0  0  0  0  0  0  0  0  0  0
  140.3170   79.5650  223.2800 C   0  0  0  0  0  0  0  0  0  0  0  0
  140.2910   80.8700  223.7280 C   0  0  0  0  0  0  0  0  0  0  0  0
  141.4280   81.6250  223.8580 C   0  0  0  0  0  0  0  0  0  0  0  0
  142.6470   81.0420  223.5220 C   0  0  0  0  0  0  0  0  0  0  0  0
  142.6850   79.7190  223.0670 C   0  0  0  0  0  0  0  0  0  0  0  0
  141.5190   78.9760  222.9450 C   0  0  0  0  0  0  0  0  0  0  0  0
  141.5610   77.7110  222.5090 N   0  0  0  0  0  0  0  0  0  0  0  0
  142.5760   75.5960  221.2180 H   0  0  0  0  0  0  0  0  0  0  0  0
  142.3385   73.0347  221.5246 H   0  0  0  0  0  0  0  0  0  0  0  0
  140.6808   73.2465  220.8903 H   0  0  0  0  0  0  0  0  0  0  0  0
  139.7530   74.3983  218.6899 H   0  0  0  0  0  0  0  0  0  0  0  0
  140.2641   76.0595  218.7784 H   0  0  0  0  0  0  0  0  0  0  0  0
  140.1940   74.1680  216.3653 H   0  0  0  0  0  0  0  0  0  0  0  0
  139.7738   75.8708  216.3809 H   0  0  0  0  0  0  0  0  0  0  0  0
  142.3057   74.7266  215.7102 H   0  0  0  0  0  0  0  0  0  0  0  0
  141.9896   76.4597  215.9637 H   0  0  0  0  0  0  0  0  0  0  0  0
  143.7149   75.0209  217.4744 H   0  0  0  0  0  0  0  0  0  0  0  0
  142.3570   77.8330  216.6790 H   0  0  0  0  0  0  0  0  0  0  0  0
  143.7577   79.1977  218.9200 H   0  0  0  0  0  0  0  0  0  0  0  0
  143.1337   79.9122  217.3770 H   0  0  0  0  0  0  0  0  0  0  0  0
  140.4917   77.9904  218.6179 H   0  0  0  0  0  0  0  0  0  0  0  0
  138.5097   78.9151  219.8208 H   0  0  0  0  0  0  0  0  0  0  0  0
  142.6799   81.5724  219.3690 H   0  0  0  0  0  0  0  0  0  0  0  0
  138.3275   76.8730  222.5845 H   0  0  0  0  0  0  0  0  0  0  0  0
  138.2010   79.2218  223.4041 H   0  0  0  0  0  0  0  0  0  0  0  0
  139.3226   81.3210  223.9904 H   0  0  0  0  0  0  0  0  0  0  0  0
  141.3785   82.6632  224.2180 H   0  0  0  0  0  0  0  0  0  0  0  0
  143.5783   81.6201  223.6140 H   0  0  0  0  0  0  0  0  0  0  0  0
  143.6504   79.2626  222.8029 H   0  0  0  0  0  0  0  0  0  0  0  0
  1  2  2  0
  2  3  1  0
  3  4  1  0
  4  5  1  0
  5  6  2  0
  5  7  1  0
  7  8  1  0
  8  9  1  0
  9 10  1  0
 10 11  1  0
 11 12  1  0
 12 13  2  0
 12 14  1  0
 14 15  1  0
 15 16  1  0
 16 17  2  0
 17 18  1  0
 18 19  2  0
 19 20  1  0
 19 21  1  0
 21 22  1  0
 21 23  2  0
  2 24  1  0
 24 25  2  0
 25 26  1  0
 26 27  2  0
 27 28  1  0
 28 29  2  0
 29 30  1  0
 30 31  2  0
 31 32  1  0
 32 33  2  0
 11  7  1  0
 23 16  1  0
 33 24  1  0
 32 27  1  0
  3 34  1  0
  4 35  1  0
  4 36  1  0
  8 37  1  0
  8 38  1  0
  9 39  1  0
  9 40  1  0
 10 41  1  0
 10 42  1  0
 11 43  1  6
 14 44  1  0
 15 45  1  0
 15 46  1  0
 17 47  1  0
 18 48  1  0
 23 49  1  0
 25 50  1  0
 26 51  1  0
 28 52  1  0
 29 53  1  0
 30 54  1  0
 31 55  1  0
M  END
>  <smiles>  (5) 
O=C(NCC(=O)N1CCC[C@H]1C(=O)NCc1ccc(Cl)c(Cl)c1)c1ccc2ccccc2n1

>  <score_type>  (5) 
oracle

>  <origin>  (5) 
autodockgpu

>  <m_score__min__energy>  (5) 
-9.1199999999999992

>  <m_primary>  (5) 
energy

>  <meeko>  (5) 
{"free_energy": -5.99, "intermolecular_energy": -8.08, "internal_energy": -4.81, "cluster_size": 14, "cluster_id": 6, "rank_in_cluster": 14}

>  <energy>  (5) 
-8.65

>  <cluster_rmsd>  (5) 
0.0

>  <rmsd>  (5) 
269.81

>  <cluster>  (5) 
4

$$$$

     RDKit          3D

 55 58  0  0  0  0  0  0  0  0999 V2000
  139.6960   74.4900  222.3440 O   0  0  0  0  0  0  0  0  0  0  0  0
  140.0260   75.4620  221.5850 C   0  0  0  0  0  0  0  0  0  0  0  0
  140.2260   75.1940  220.2020 N   0  0  0  0  0  0  0  0  0  0  0  0
  140.0500   73.8500  219.7230 C   0  0  0  0  0  0  0  0  0  0  0  0
  141.1180   73.5630  218.7340 C   0  0  0  0  0  0  0  0  0  0  0  0
  140.8950   73.1240  217.5750 O   0  0  0  0  0  0  0  0  0  0  0  0
  142.4750   73.7890  219.0910 N   0  0  0  0  0  0  0  0  0  0  0  0
  143.6500   73.2450  218.4210 C   0  0  0  0  0  0  0  0  0  0  0  0
  144.4780   72.7740  219.6030 C   0  0  0  0  0  0  0  0  0  0  0  0
  144.1170   73.7470  220.6930 C   0  0  0  0  0  0  0  0  0  0  0  0
  143.0000   74.5890  220.1810 C   0  0  1  0  0  0  0  0  0  0  0  0
  143.3800   75.8930  219.6320 C   0  0  0  0  0  0  0  0  0  0  0  0
  144.4380   76.4310  220.0810 O   0  0  0  0  0  0  0  0  0  0  0  0
  142.5940   76.5150  218.6440 N   0  0  0  0  0  0  0  0  0  0  0  0
  142.8650   77.7880  218.0340 C   0  0  0  0  0  0  0  0  0  0  0  0
  142.0750   78.8680  218.6600 C   0  0  0  0  0  0  0  0  0  0  0  0
  142.5650   80.1120  218.9740 C   0  0  0  0  0  0  0  0  0  0  0  0
  141.7760   81.1010  219.5700 C   0  0  0  0  0  0  0  0  0  0  0  0
  140.4490   80.7950  219.8490 C   0  0  0  0  0  0  0  0  0  0  0  0
  139.4130   82.0130  220.6020 Cl  0  0  0  0  0  0  0  0  0  0  0  0
  139.9540   79.5680  219.5420 C   0  0  0  0  0  0  0  0  0  0  0  0
  138.2670   79.2370  219.9170 Cl  0  0  0  0  0  0  0  0  0  0  0  0
  140.7560   78.6060  218.9510 C   0  0  0  0  0  0  0  0  0  0  0  0
  140.1940   76.8080  222.1210 C   0  0  0  0  0  0  0  0  0  0  0  0
  139.0690   77.4480  222.6430 C   0  0  0  0  0  0  0  0  0  0  0  0
  139.2080   78.7350  223.1630 C   0  0  0  0  0  0  0  0  0  0  0  0
  140.4290   79.3850  223.1710 C   0  0  0  0  0  0  0  0  0  0  0  0
  140.6020   80.6570  223.6760 C   0  0  0  0  0  0  0  0  0  0  0  0
  141.8200   81.2880  223.6770 C   0  0  0  0  0  0  0  0  0  0  0  0
  142.9120   80.6100  223.1460 C   0  0  0  0  0  0  0  0  0  0  0  0
  142.7490   79.3180  222.6300 C   0  0  0  0  0  0  0  0  0  0  0  0
  141.5050   78.7020  222.6410 C   0  0  0  0  0  0  0  0  0  0  0  0
  141.3530   77.4670  222.1470 N   0  0  0  0  0  0  0  0  0  0  0  0
  140.4960   75.9590  219.5430 H   0  0  0  0  0  0  0  0  0  0  0  0
  140.1218   73.1436  220.5631 H   0  0  0  0  0  0  0  0  0  0  0  0
  139.0609   73.7418  219.2540 H   0  0  0  0  0  0  0  0  0  0  0  0
  143.3838   72.4089  217.7577 H   0  0  0  0  0  0  0  0  0  0  0  0
  144.1673   73.9627  217.7673 H   0  0  0  0  0  0  0  0  0  0  0  0
  144.2082   71.7463  219.8878 H   0  0  0  0  0  0  0  0  0  0  0  0
  145.5567   72.7504  219.3889 H   0  0  0  0  0  0  0  0  0  0  0  0
  143.7961   73.2022  221.5931 H   0  0  0  0  0  0  0  0  0  0  0  0
  144.9829   74.3696  220.9626 H   0  0  0  0  0  0  0  0  0  0  0  0
  142.3157   74.8287  221.0082 H   0  0  0  0  0  0  0  0  0  0  0  0
  141.7310   75.9920  218.3300 H   0  0  0  0  0  0  0  0  0  0  0  0
  143.9351   78.0172  218.1457 H   0  0  0  0  0  0  0  0  0  0  0  0
  142.5860   77.7278  216.9717 H   0  0  0  0  0  0  0  0  0  0  0  0
  143.6174   80.3390  218.7483 H   0  0  0  0  0  0  0  0  0  0  0  0
  142.1925   82.0903  219.8105 H   0  0  0  0  0  0  0  0  0  0  0  0
  140.3329   77.6194  218.7111 H   0  0  0  0  0  0  0  0  0  0  0  0
  138.0900   76.9465  222.6444 H   0  0  0  0  0  0  0  0  0  0  0  0
  138.3255   79.2451  223.5765 H   0  0  0  0  0  0  0  0  0  0  0  0
  139.7315   81.1845  224.0931 H   0  0  0  0  0  0  0  0  0  0  0  0
  141.9300   82.3029  224.0868 H   0  0  0  0  0  0  0  0  0  0  0  0
  143.9027   81.0878  223.1312 H   0  0  0  0  0  0  0  0  0  0  0  0
  143.6160   78.7858  222.2116 H   0  0  0  0  0  0  0  0  0  0  0  0
  1  2  2  0
  2  3  1  0
  3  4  1  0
  4  5  1  0
  5  6  2  0
  5  7  1  0
  7  8  1  0
  8  9  1  0
  9 10  1  0
 10 11  1  0
 11 12  1  0
 12 13  2  0
 12 14  1  0
 14 15  1  0
 15 16  1  0
 16 17  2  0
 17 18  1  0
 18 19  2  0
 19 20  1  0
 19 21  1  0
 21 22  1  0
 21 23  2  0
  2 24  1  0
 24 25  2  0
 25 26  1  0
 26 27  2  0
 27 28  1  0
 28 29  2  0
 29 30  1  0
 30 31  2  0
 31 32  1  0
 32 33  2  0
 11  7  1  0
 23 16  1  0
 33 24  1  0
 32 27  1  0
  3 34  1  0
  4 35  1  0
  4 36  1  0
  8 37  1  0
  8 38  1  0
  9 39  1  0
  9 40  1  0
 10 41  1  0
 10 42  1  0
 11 43  1  1
 14 44  1  0
 15 45  1  0
 15 46  1  0
 17 47  1  0
 18 48  1  0
 23 49  1  0
 25 50  1  0
 26 51  1  0
 28 52  1  0
 29 53  1  0
 30 54  1  0
 31 55  1  0
M  END
>  <smiles>  (6) 
O=C(NCC(=O)N1CCC[C@H]1C(=O)NCc1ccc(Cl)c(Cl)c1)c1ccc2ccccc2n1

>  <score_type>  (6) 
oracle

>  <origin>  (6) 
autodockgpu

>  <m_score__min__energy>  (6) 
-9.1199999999999992

>  <m_primary>  (6) 
energy

>  <meeko>  (6) 
{"free_energy": -6.38, "intermolecular_energy": -8.47, "internal_energy": -4.21, "cluster_size": 14, "cluster_id": 6, "rank_in_cluster": 13}

>  <energy>  (6) 
-8.42

>  <cluster_rmsd>  (6) 
0.0

>  <rmsd>  (6) 
269.48

>  <cluster>  (6) 
5

$$$$

     RDKit          3D

 55 58  0  0  0  0  0  0  0  0999 V2000
  138.9430   75.6930  220.6130 O   0  0  0  0  0  0  0  0  0  0  0  0
  139.9900   75.8720  221.3200 C   0  0  0  0  0  0  0  0  0  0  0  0
  140.8970   74.7850  221.4620 N   0  0  0  0  0  0  0  0  0  0  0  0
  140.5950   73.5400  220.8080 C   0  0  0  0  0  0  0  0  0  0  0  0
  141.8530   72.7600  220.6870 C   0  0  0  0  0  0  0  0  0  0  0  0
  141.9610   71.5560  221.0380 O   0  0  0  0  0  0  0  0  0  0  0  0
  143.0100   73.3860  220.1500 N   0  0  0  0  0  0  0  0  0  0  0  0
  143.9560   72.7980  219.2110 C   0  0  0  0  0  0  0  0  0  0  0  0
  145.2830   73.1850  219.8400 C   0  0  0  0  0  0  0  0  0  0  0  0
  144.9830   74.5010  220.5060 C   0  0  0  0  0  0  0  0  0  0  0  0
  143.5130   74.7220  220.4060 C   0  0  1  0  0  0  0  0  0  0  0  0
  143.0680   75.5830  219.3070 C   0  0  0  0  0  0  0  0  0  0  0  0
  142.8990   75.0420  218.1710 O   0  0  0  0  0  0  0  0  0  0  0  0
  142.8380   76.9550  219.5160 N   0  0  0  0  0  0  0  0  0  0  0  0
  142.4030   77.8950  218.5180 C   0  0  0  0  0  0  0  0  0  0  0  0
  141.3220   78.7630  219.0280 C   0  0  0  0  0  0  0  0  0  0  0  0
  139.9860   78.4450  218.9970 C   0  0  0  0  0  0  0  0  0  0  0  0
  138.9980   79.3040  219.4900 C   0  0  0  0  0  0  0  0  0  0  0  0
  139.4020   80.5210  220.0260 C   0  0  0  0  0  0  0  0  0  0  0  0
  138.1910   81.6400  220.6600 Cl  0  0  0  0  0  0  0  0  0  0  0  0
  140.7210   80.8460  220.0610 C   0  0  0  0  0  0  0  0  0  0  0  0
  141.1740   82.4000  220.7510 Cl  0  0  0  0  0  0  0  0  0  0  0  0
  141.6800   79.9770  219.5670 C   0  0  0  0  0  0  0  0  0  0  0  0
  140.2490   77.1550  221.9640 C   0  0  0  0  0  0  0  0  0  0  0  0
  139.1680   77.8310  222.5310 C   0  0  0  0  0  0  0  0  0  0  0  0
  139.3940   79.0590  223.1540 C   0  0  0  0  0  0  0  0  0  0  0  0
  140.6590   79.6160  223.2190 C   0  0  0  0  0  0  0  0  0  0  0  0
  140.9180   80.8270  223.8270 C   0  0  0  0  0  0  0  0  0  0  0  0
  142.1780   81.3650  223.8840 C   0  0  0  0  0  0  0  0  0  0  0  0
  143.2250   80.6540  223.3050 C   0  0  0  0  0  0  0  0  0  0  0  0
  142.9730   79.4230  222.6850 C   0  0  0  0  0  0  0  0  0  0  0  0
  141.6880   78.9000  222.6410 C   0  0  0  0  0  0  0  0  0  0  0  0
  141.4530   77.7240  222.0490 N   0  0  0  0  0  0  0  0  0  0  0  0
  141.7690   74.8860  222.0300 H   0  0  0  0  0  0  0  0  0  0  0  0
  139.8628   72.9750  221.4035 H   0  0  0  0  0  0  0  0  0  0  0  0
  140.1687   73.7288  219.8117 H   0  0  0  0  0  0  0  0  0  0  0  0
  143.8408   71.7055  219.1550 H   0  0  0  0  0  0  0  0  0  0  0  0
  143.8328   73.1426  218.1737 H   0  0  0  0  0  0  0  0  0  0  0  0
  145.6026   72.4343  220.5778 H   0  0  0  0  0  0  0  0  0  0  0  0
  146.1019   73.2508  219.1085 H   0  0  0  0  0  0  0  0  0  0  0  0
  145.2877   74.4666  221.5624 H   0  0  0  0  0  0  0  0  0  0  0  0
  145.5342   75.3190  220.0191 H   0  0  0  0  0  0  0  0  0  0  0  0
  143.1578   75.2312  221.3141 H   0  0  0  0  0  0  0  0  0  0  0  0
  143.0040   77.3170  220.4950 H   0  0  0  0  0  0  0  0  0  0  0  0
  143.2563   78.5229  218.2221 H   0  0  0  0  0  0  0  0  0  0  0  0
  142.0157   77.3305  217.6570 H   0  0  0  0  0  0  0  0  0  0  0  0
  139.6816   77.4787  218.5685 H   0  0  0  0  0  0  0  0  0  0  0  0
  137.9346   79.0249  219.4545 H   0  0  0  0  0  0  0  0  0  0  0  0
  142.7419   80.2614  219.6062 H   0  0  0  0  0  0  0  0  0  0  0  0
  138.1554   77.4034  222.4876 H   0  0  0  0  0  0  0  0  0  0  0  0
  138.5466   79.5969  223.6041 H   0  0  0  0  0  0  0  0  0  0  0  0
  140.0838   81.3809  224.2824 H   0  0  0  0  0  0  0  0  0  0  0  0
  142.3566   82.3332  224.3745 H   0  0  0  0  0  0  0  0  0  0  0  0
  144.2479   81.0575  223.3340 H   0  0  0  0  0  0  0  0  0  0  0  0
  143.8031   78.8646  222.2278 H   0  0  0  0  0  0  0  0  0  0  0  0
  1  2  2  0
  2  3  1  0
  3  4  1  0
  4  5  1  0
  5  6  2  0
  5  7  1  0
  7  8  1  0
  8  9  1  0
  9 10  1  0
 10 11  1  0
 11 12  1  0
 12 13  2  0
 12 14  1  0
 14 15  1  0
 15 16  1  0
 16 17  2  0
 17 18  1  0
 18 19  2  0
 19 20  1  0
 19 21  1  0
 21 22  1  0
 21 23  2  0
  2 24  1  0
 24 25  2  0
 25 26  1  0
 26 27  2  0
 27 28  1  0
 28 29  2  0
 29 30  1  0
 30 31  2  0
 31 32  1  0
 32 33  2  0
 11  7  1  0
 23 16  1  0
 33 24  1  0
 32 27  1  0
  3 34  1  0
  4 35  1  0
  4 36  1  0
  8 37  1  0
  8 38  1  0
  9 39  1  0
  9 40  1  0
 10 41  1  0
 10 42  1  0
 11 43  1  1
 14 44  1  0
 15 45  1  0
 15 46  1  0
 17 47  1  0
 18 48  1  0
 23 49  1  0
 25 50  1  0
 26 51  1  0
 28 52  1  0
 29 53  1  0
 30 54  1  0
 31 55  1  0
M  END
>  <smiles>  (7) 
O=C(NCC(=O)N1CCC[C@H]1C(=O)NCc1ccc(Cl)c(Cl)c1)c1ccc2ccccc2n1

>  <score_type>  (7) 
oracle

>  <origin>  (7) 
autodockgpu

>  <m_score__min__energy>  (7) 
-9.1199999999999992

>  <m_primary>  (7) 
energy

>  <meeko>  (7) 
{"free_energy": -7.0, "intermolecular_energy": -9.09, "internal_energy": -4.35, "cluster_size": 14, "cluster_id": 6, "rank_in_cluster": 10}

>  <energy>  (7) 
-7.56

>  <cluster_rmsd>  (7) 
0.0

>  <rmsd>  (7) 
269.49

>  <cluster>  (7) 
6

$$$$

     RDKit          3D

 55 58  0  0  0  0  0  0  0  0999 V2000
  140.3020   74.7140  222.1260 O   0  0  0  0  0  0  0  0  0  0  0  0
  139.5240   75.6930  221.8700 C   0  0  0  0  0  0  0  0  0  0  0  0
  138.3560   75.4390  221.0990 N   0  0  0  0  0  0  0  0  0  0  0  0
  138.1050   74.0980  220.6430 C   0  0  0  0  0  0  0  0  0  0  0  0
  136.7070   73.7410  220.9920 C   0  0  0  0  0  0  0  0  0  0  0  0
  135.7190   74.4850  220.7550 O   0  0  0  0  0  0  0  0  0  0  0  0
  136.4450   72.4980  221.6280 N   0  0  0  0  0  0  0  0  0  0  0  0
  136.0280   71.2620  220.9770 C   0  0  0  0  0  0  0  0  0  0  0  0
  134.9020   70.8090  221.8890 C   0  0  0  0  0  0  0  0  0  0  0  0
  135.3210   71.3180  223.2430 C   0  0  0  0  0  0  0  0  0  0  0  0
  136.5230   72.1740  223.0390 C   0  0  1  0  0  0  0  0  0  0  0  0
  137.8170   71.5280  223.2760 C   0  0  0  0  0  0  0  0  0  0  0  0
  137.8060   70.3090  223.6300 O   0  0  0  0  0  0  0  0  0  0  0  0
  139.0170   72.2420  223.1120 N   0  0  0  0  0  0  0  0  0  0  0  0
  140.3410   71.7170  223.3160 C   0  0  0  0  0  0  0  0  0  0  0  0
  140.4830   71.1110  224.6550 C   0  0  0  0  0  0  0  0  0  0  0  0
  140.8250   71.8030  225.7920 C   0  0  0  0  0  0  0  0  0  0  0  0
  140.9510   71.1820  227.0390 C   0  0  0  0  0  0  0  0  0  0  0  0
  140.7180   69.8130  227.1110 C   0  0  0  0  0  0  0  0  0  0  0  0
  140.8640   68.9850  228.6650 Cl  0  0  0  0  0  0  0  0  0  0  0  0
  140.3780   69.1200  225.9930 C   0  0  0  0  0  0  0  0  0  0  0  0
  140.0930   67.3900  226.1450 Cl  0  0  0  0  0  0  0  0  0  0  0  0
  140.2590   69.7590  224.7700 C   0  0  0  0  0  0  0  0  0  0  0  0
  139.8250   77.0350  222.3550 C   0  0  0  0  0  0  0  0  0  0  0  0
  138.7560   77.8510  222.7290 C   0  0  0  0  0  0  0  0  0  0  0  0
  139.0220   79.1370  223.1980 C   0  0  0  0  0  0  0  0  0  0  0  0
  140.3150   79.6190  223.2980 C   0  0  0  0  0  0  0  0  0  0  0  0
  140.6140   80.8840  223.7560 C   0  0  0  0  0  0  0  0  0  0  0  0
  141.9010   81.3470  223.8500 C   0  0  0  0  0  0  0  0  0  0  0  0
  142.9350   80.4980  223.4650 C   0  0  0  0  0  0  0  0  0  0  0  0
  142.6430   79.2110  222.9980 C   0  0  0  0  0  0  0  0  0  0  0  0
  141.3310   78.7670  222.9130 C   0  0  0  0  0  0  0  0  0  0  0  0
  141.0570   77.5360  222.4670 N   0  0  0  0  0  0  0  0  0  0  0  0
  137.6900   76.2090  220.8660 H   0  0  0  0  0  0  0  0  0  0  0  0
  138.2415   74.0442  219.5528 H   0  0  0  0  0  0  0  0  0  0  0  0
  138.8056   73.3977  221.1212 H   0  0  0  0  0  0  0  0  0  0  0  0
  135.6677   71.4475  219.9544 H   0  0  0  0  0  0  0  0  0  0  0  0
  136.8339   70.5231  220.8560 H   0  0  0  0  0  0  0  0  0  0  0  0
  133.9438   71.2529  221.5812 H   0  0  0  0  0  0  0  0  0  0  0  0
  134.7462   69.7203  221.8696 H   0  0  0  0  0  0  0  0  0  0  0  0
  134.5089   71.9092  223.6912 H   0  0  0  0  0  0  0  0  0  0  0  0
  135.5473   70.4823  223.9215 H   0  0  0  0  0  0  0  0  0  0  0  0
  136.4995   73.0112  223.7521 H   0  0  0  0  0  0  0  0  0  0  0  0
  138.9280   73.2520  222.8140 H   0  0  0  0  0  0  0  0  0  0  0  0
  140.5428   70.9502  222.5535 H   0  0  0  0  0  0  0  0  0  0  0  0
  141.0576   72.5477  223.2356 H   0  0  0  0  0  0  0  0  0  0  0  0
  141.0064   72.8855  225.7187 H   0  0  0  0  0  0  0  0  0  0  0  0
  141.2258   71.7585  227.9346 H   0  0  0  0  0  0  0  0  0  0  0  0
  139.9816   69.1772  223.8786 H   0  0  0  0  0  0  0  0  0  0  0  0
  137.7211   77.4857  222.6550 H   0  0  0  0  0  0  0  0  0  0  0  0
  138.1836   79.7839  223.4956 H   0  0  0  0  0  0  0  0  0  0  0  0
  139.7894   81.5468  224.0573 H   0  0  0  0  0  0  0  0  0  0  0  0
  142.1109   82.3616  224.2195 H   0  0  0  0  0  0  0  0  0  0  0  0
  143.9793   80.8378  223.5276 H   0  0  0  0  0  0  0  0  0  0  0  0
  143.4633   78.5437  222.6948 H   0  0  0  0  0  0  0  0  0  0  0  0
  1  2  2  0
  2  3  1  0
  3  4  1  0
  4  5  1  0
  5  6  2  0
  5  7  1  0
  7  8  1  0
  8  9  1  0
  9 10  1  0
 10 11  1  0
 11 12  1  0
 12 13  2  0
 12 14  1  0
 14 15  1  0
 15 16  1  0
 16 17  2  0
 17 18  1  0
 18 19  2  0
 19 20  1  0
 19 21  1  0
 21 22  1  0
 21 23  2  0
  2 24  1  0
 24 25  2  0
 25 26  1  0
 26 27  2  0
 27 28  1  0
 28 29  2  0
 29 30  1  0
 30 31  2  0
 31 32  1  0
 32 33  2  0
 11  7  1  0
 23 16  1  0
 33 24  1  0
 32 27  1  0
  3 34  1  0
  4 35  1  0
  4 36  1  0
  8 37  1  0
  8 38  1  0
  9 39  1  0
  9 40  1  0
 10 41  1  0
 10 42  1  0
 11 43  1  1
 14 44  1  0
 15 45  1  0
 15 46  1  0
 17 47  1  0
 18 48  1  0
 23 49  1  0
 25 50  1  0
 26 51  1  0
 28 52  1  0
 29 53  1  0
 30 54  1  0
 31 55  1  0
M  END
>  <smiles>  (8) 
O=C(NCC(=O)N1CCC[C@H]1C(=O)NCc1ccc(Cl)c(Cl)c1)c1ccc2ccccc2n1

>  <score_type>  (8) 
oracle

>  <origin>  (8) 
autodockgpu

>  <m_score__min__energy>  (8) 
-9.1199999999999992

>  <m_primary>  (8) 
energy

>  <meeko>  (8) 
{"free_energy": -9.02, "intermolecular_energy": -11.11, "internal_energy": -2.59, "cluster_size": 2, "cluster_id": 2, "rank_in_cluster": 1}

>  <energy>  (8) 
-7.52

>  <cluster_rmsd>  (8) 
0.08

>  <rmsd>  (8) 
269.47

>  <cluster>  (8) 
6

$$$$

     RDKit          3D

 55 58  0  0  0  0  0  0  0  0999 V2000
  139.6250   74.3270  222.3610 O   0  0  0  0  0  0  0  0  0  0  0  0
  140.1740   75.2470  221.6660 C   0  0  0  0  0  0  0  0  0  0  0  0
  140.7400   74.8920  220.4100 N   0  0  0  0  0  0  0  0  0  0  0  0
  140.6730   73.5200  219.9830 C   0  0  0  0  0  0  0  0  0  0  0  0
  141.8840   72.8180  220.4770 C   0  0  0  0  0  0  0  0  0  0  0  0
  141.8460   71.8150  221.2360 O   0  0  0  0  0  0  0  0  0  0  0  0
  143.1670   73.2860  220.0850 N   0  0  0  0  0  0  0  0  0  0  0  0
  144.0950   72.6160  219.1820 C   0  0  0  0  0  0  0  0  0  0  0  0
  145.4020   72.7480  219.9440 C   0  0  0  0  0  0  0  0  0  0  0  0
  145.2460   74.0490  220.6840 C   0  0  0  0  0  0  0  0  0  0  0  0
  143.8420   74.5060  220.4830 C   0  0  1  0  0  0  0  0  0  0  0  0
  143.6360   75.4950  219.4210 C   0  0  0  0  0  0  0  0  0  0  0  0
  144.0050   75.1800  218.2490 O   0  0  0  0  0  0  0  0  0  0  0  0
  143.0490   76.7410  219.7040 N   0  0  0  0  0  0  0  0  0  0  0  0
  142.7980   77.7870  218.7490 C   0  0  0  0  0  0  0  0  0  0  0  0
  141.6310   78.6060  219.1370 C   0  0  0  0  0  0  0  0  0  0  0  0
  140.3320   78.1610  219.1370 C   0  0  0  0  0  0  0  0  0  0  0  0
  139.2590   78.9770  219.5100 C   0  0  0  0  0  0  0  0  0  0  0  0
  139.5370   80.2850  219.8910 C   0  0  0  0  0  0  0  0  0  0  0  0
  138.2140   81.3540  220.3700 Cl  0  0  0  0  0  0  0  0  0  0  0  0
  140.8190   80.7350  219.8950 C   0  0  0  0  0  0  0  0  0  0  0  0
  141.1120   82.3990  220.3870 Cl  0  0  0  0  0  0  0  0  0  0  0  0
  141.8640   79.9060  219.5220 C   0  0  0  0  0  0  0  0  0  0  0  0
  140.2170   76.6240  222.1460 C   0  0  0  0  0  0  0  0  0  0  0  0
  139.0110   77.2280  222.5080 C   0  0  0  0  0  0  0  0  0  0  0  0
  139.0310   78.5430  222.9720 C   0  0  0  0  0  0  0  0  0  0  0  0
  140.2110   79.2560  223.0790 C   0  0  0  0  0  0  0  0  0  0  0  0
  140.2660   80.5570  223.5340 C   0  0  0  0  0  0  0  0  0  0  0  0
  141.4450   81.2510  223.6350 C   0  0  0  0  0  0  0  0  0  0  0  0
  142.6210   80.6070  223.2620 C   0  0  0  0  0  0  0  0  0  0  0  0
  142.5770   79.2860  222.7990 C   0  0  0  0  0  0  0  0  0  0  0  0
  141.3700   78.6060  222.7070 C   0  0  0  0  0  0  0  0  0  0  0  0
  141.3330   77.3440  222.2640 N   0  0  0  0  0  0  0  0  0  0  0  0
  141.1970   75.6120  219.8070 H   0  0  0  0  0  0  0  0  0  0  0  0
  139.7722   73.0448  220.3986 H   0  0  0  0  0  0  0  0  0  0  0  0
  140.6256   73.4668  218.8853 H   0  0  0  0  0  0  0  0  0  0  0  0
  143.8208   71.5612  219.0332 H   0  0  0  0  0  0  0  0  0  0  0  0
  144.1209   73.0404  218.1675 H   0  0  0  0  0  0  0  0  0  0  0  0
  145.5352   71.9105  220.6446 H   0  0  0  0  0  0  0  0  0  0  0  0
  146.2846   72.7310  219.2878 H   0  0  0  0  0  0  0  0  0  0  0  0
  145.4435   73.8988  221.7557 H   0  0  0  0  0  0  0  0  0  0  0  0
  145.9578   74.7990  220.3086 H   0  0  0  0  0  0  0  0  0  0  0  0
  143.4868   75.0061  221.3961 H   0  0  0  0  0  0  0  0  0  0  0  0
  142.7730   76.9150  220.7090 H   0  0  0  0  0  0  0  0  0  0  0  0
  143.6848   78.4350  218.6873 H   0  0  0  0  0  0  0  0  0  0  0  0
  142.5846   77.3215  217.7755 H   0  0  0  0  0  0  0  0  0  0  0  0
  140.1276   77.1240  218.8323 H   0  0  0  0  0  0  0  0  0  0  0  0
  138.2272   78.5958  219.5022 H   0  0  0  0  0  0  0  0  0  0  0  0
  142.8939   80.2922  219.5338 H   0  0  0  0  0  0  0  0  0  0  0  0
  138.0625   76.6766  222.4286 H   0  0  0  0  0  0  0  0  0  0  0  0
  138.0850   79.0248  223.2599 H   0  0  0  0  0  0  0  0  0  0  0  0
  139.3305   81.0562  223.8265 H   0  0  0  0  0  0  0  0  0  0  0  0
  141.4605   82.2883  224.0008 H   0  0  0  0  0  0  0  0  0  0  0  0
  143.5837   81.1348  223.3307 H   0  0  0  0  0  0  0  0  0  0  0  0
  143.5092   78.7815  222.5049 H   0  0  0  0  0  0  0  0  0  0  0  0
  1  2  2  0
  2  3  1  0
  3  4  1  0
  4  5  1  0
  5  6  2  0
  5  7  1  0
  7  8  1  0
  8  9  1  0
  9 10  1  0
 10 11  1  0
 11 12  1  0
 12 13  2  0
 12 14  1  0
 14 15  1  0
 15 16  1  0
 16 17  2  0
 17 18  1  0
 18 19  2  0
 19 20  1  0
 19 21  1  0
 21 22  1  0
 21 23  2  0
  2 24  1  0
 24 25  2  0
 25 26  1  0
 26 27  2  0
 27 28  1  0
 28 29  2  0
 29 30  1  0
 30 31  2  0
 31 32  1  0
 32 33  2  0
 11  7  1  0
 23 16  1  0
 33 24  1  0
 32 27  1  0
  3 34  1  0
  4 35  1  0
  4 36  1  0
  8 37  1  0
  8 38  1  0
  9 39  1  0
  9 40  1  0
 10 41  1  0
 10 42  1  0
 11 43  1  1
 14 44  1  0
 15 45  1  0
 15 46  1  0
 17 47  1  0
 18 48  1  0
 23 49  1  0
 25 50  1  0
 26 51  1  0
 28 52  1  0
 29 53  1  0
 30 54  1  0
 31 55  1  0
M  END
>  <smiles>  (9) 
O=C(NCC(=O)N1CCC[C@H]1C(=O)NCc1ccc(Cl)c(Cl)c1)c1ccc2ccccc2n1

>  <score_type>  (9) 
oracle

>  <origin>  (9) 
autodockgpu

>  <m_score__min__energy>  (9) 
-9.1199999999999992

>  <m_primary>  (9) 
energy

>  <meeko>  (9) 
{"free_energy": -7.52, "intermolecular_energy": -9.61, "internal_energy": -4.59, "cluster_size": 14, "cluster_id": 6, "rank_in_cluster": 2}

>  <energy>  (9) 
-7.51

>  <cluster_rmsd>  (9) 
0.15

>  <rmsd>  (9) 
269.45

>  <cluster>  (9) 
6

$$$$

     RDKit          3D

 55 58  0  0  0  0  0  0  0  0999 V2000
  139.6250   74.4070  222.4080 O   0  0  0  0  0  0  0  0  0  0  0  0
  140.0940   75.3460  221.6810 C   0  0  0  0  0  0  0  0  0  0  0  0
  140.5070   75.0280  220.3580 N   0  0  0  0  0  0  0  0  0  0  0  0
  140.3810   73.6710  219.9000 C   0  0  0  0  0  0  0  0  0  0  0  0
  141.5380   72.8960  220.4150 C   0  0  0  0  0  0  0  0  0  0  0  0
  141.4240   71.8920  221.1660 O   0  0  0  0  0  0  0  0  0  0  0  0
  142.8550   73.2890  220.0550 N   0  0  0  0  0  0  0  0  0  0  0  0
  143.7650   72.5680  219.1740 C   0  0  0  0  0  0  0  0  0  0  0  0
  145.0580   72.6250  219.9680 C   0  0  0  0  0  0  0  0  0  0  0  0
  144.9580   73.9340  220.7050 C   0  0  0  0  0  0  0  0  0  0  0  0
  143.5880   74.4700  220.4700 C   0  0  1  0  0  0  0  0  0  0  0  0
  143.4640   75.4680  219.4050 C   0  0  0  0  0  0  0  0  0  0  0  0
  143.7880   75.1140  218.2300 O   0  0  0  0  0  0  0  0  0  0  0  0
  143.0000   76.7660  219.6860 N   0  0  0  0  0  0  0  0  0  0  0  0
  142.8390   77.8260  218.7280 C   0  0  0  0  0  0  0  0  0  0  0  0
  141.8670   78.8360  219.1960 C   0  0  0  0  0  0  0  0  0  0  0  0
  142.1930   80.1160  219.5720 C   0  0  0  0  0  0  0  0  0  0  0  0
  141.2360   81.0360  220.0130 C   0  0  0  0  0  0  0  0  0  0  0  0
  139.9100   80.6210  220.0650 C   0  0  0  0  0  0  0  0  0  0  0  0
  138.6650   81.7480  220.6150 Cl  0  0  0  0  0  0  0  0  0  0  0  0
  139.5770   79.3570  219.6950 C   0  0  0  0  0  0  0  0  0  0  0  0
  137.8830   78.8870  219.7810 Cl  0  0  0  0  0  0  0  0  0  0  0  0
  140.5440   78.4650  219.2620 C   0  0  0  0  0  0  0  0  0  0  0  0
  140.2020   76.7070  222.1950 C   0  0  0  0  0  0  0  0  0  0  0  0
  139.0330   77.3380  222.6240 C   0  0  0  0  0  0  0  0  0  0  0  0
  139.1150   78.6390  223.1210 C   0  0  0  0  0  0  0  0  0  0  0  0
  140.3210   79.3120  223.1950 C   0  0  0  0  0  0  0  0  0  0  0  0
  140.4380   80.5980  223.6800 C   0  0  0  0  0  0  0  0  0  0  0  0
  141.6420   81.2510  223.7490 C   0  0  0  0  0  0  0  0  0  0  0  0
  142.7790   80.5810  223.3090 C   0  0  0  0  0  0  0  0  0  0  0  0
  142.6730   79.2750  222.8140 C   0  0  0  0  0  0  0  0  0  0  0  0
  141.4420   78.6360  222.7570 C   0  0  0  0  0  0  0  0  0  0  0  0
  141.3450   77.3880  222.2840 N   0  0  0  0  0  0  0  0  0  0  0  0
  140.8950   75.7650  219.7270 H   0  0  0  0  0  0  0  0  0  0  0  0
  139.4440   73.2362  220.2783 H   0  0  0  0  0  0  0  0  0  0  0  0
  140.3645   73.6420  218.8005 H   0  0  0  0  0  0  0  0  0  0  0  0
  143.4350   71.5306  219.0164 H   0  0  0  0  0  0  0  0  0  0  0  0
  143.8400   72.9908  218.1613 H   0  0  0  0  0  0  0  0  0  0  0  0
  145.1256   71.7817  220.6711 H   0  0  0  0  0  0  0  0  0  0  0  0
  145.9544   72.5567  219.3341 H   0  0  0  0  0  0  0  0  0  0  0  0
  145.1202   73.7737  221.7811 H   0  0  0  0  0  0  0  0  0  0  0  0
  145.7202   74.6419  220.3475 H   0  0  0  0  0  0  0  0  0  0  0  0
  143.2396   74.9907  221.3742 H   0  0  0  0  0  0  0  0  0  0  0  0
  142.7530   76.9700  220.6930 H   0  0  0  0  0  0  0  0  0  0  0  0
  143.8119   78.3136  218.5676 H   0  0  0  0  0  0  0  0  0  0  0  0
  142.4602   77.3903  217.7917 H   0  0  0  0  0  0  0  0  0  0  0  0
  143.2463   80.4296  219.5246 H   0  0  0  0  0  0  0  0  0  0  0  0
  141.5234   82.0556  220.3093 H   0  0  0  0  0  0  0  0  0  0  0  0
  140.2503   77.4468  218.9671 H   0  0  0  0  0  0  0  0  0  0  0  0
  138.0647   76.8188  222.5711 H   0  0  0  0  0  0  0  0  0  0  0  0
  138.1981   79.1418  223.4623 H   0  0  0  0  0  0  0  0  0  0  0  0
  139.5323   81.1189  224.0240 H   0  0  0  0  0  0  0  0  0  0  0  0
  141.7069   82.2765  224.1415 H   0  0  0  0  0  0  0  0  0  0  0  0
  143.7603   81.0764  223.3498 H   0  0  0  0  0  0  0  0  0  0  0  0
  143.5751   78.7500  222.4666 H   0  0  0  0  0  0  0  0  0  0  0  0
  1  2  2  0
  2  3  1  0
  3  4  1  0
  4  5  1  0
  5  6  2  0
  5  7  1  0
  7  8  1  0
  8  9  1  0
  9 10  1  0
 10 11  1  0
 11 12  1  0
 12 13  2  0
 12 14  1  0
 14 15  1  0
 15 16  1  0
 16 17  2  0
 17 18  1  0
 18 19  2  0
 19 20  1  0
 19 21  1  0
 21 22  1  0
 21 23  2  0
  2 24  1  0
 24 25  2  0
 25 26  1  0
 26 27  2  0
 27 28  1  0
 28 29  2  0
 29 30  1  0
 30 31  2  0
 31 32  1  0
 32 33  2  0
 11  7  1  0
 23 16  1  0
 33 24  1  0
 32 27  1  0
  3 34  1  0
  4 35  1  0
  4 36  1  0
  8 37  1  0
  8 38  1  0
  9 39  1  0
  9 40  1  0
 10 41  1  0
 10 42  1  0
 11 43  1  1
 14 44  1  0
 15 45  1  0
 15 46  1  0
 17 47  1  0
 18 48  1  0
 23 49  1  0
 25 50  1  0
 26 51  1  0
 28 52  1  0
 29 53  1  0
 30 54  1  0
 31 55  1  0
M  END
>  <smiles>  (10) 
O=C(NCC(=O)N1CCC[C@H]1C(=O)NCc1ccc(Cl)c(Cl)c1)c1ccc2ccccc2n1

>  <score_type>  (10) 
oracle

>  <origin>  (10) 
autodockgpu

>  <m_score__min__energy>  (10) 
-9.1199999999999992

>  <m_primary>  (10) 
energy

>  <meeko>  (10) 
{"free_energy": -7.28, "intermolecular_energy": -9.37, "internal_energy": -4.65, "cluster_size": 14, "cluster_id": 6, "rank_in_cluster": 8}

>  <energy>  (10) 
-7.51

>  <cluster_rmsd>  (10) 
0.64

>  <rmsd>  (10) 
269.7

>  <cluster>  (10) 
6

$$$$

     RDKit          3D

 55 58  0  0  0  0  0  0  0  0999 V2000
  140.8040   76.7090  218.2210 O   0  0  0  0  0  0  0  0  0  0  0  0
  141.6350   77.4800  218.8070 C   0  0  0  0  0  0  0  0  0  0  0  0
  142.9720   77.0230  218.9720 N   0  0  0  0  0  0  0  0  0  0  0  0
  143.3260   75.7200  218.4750 C   0  0  0  0  0  0  0  0  0  0  0  0
  143.6950   74.8650  219.6310 C   0  0  0  0  0  0  0  0  0  0  0  0
  144.7820   74.9730  220.2570 O   0  0  0  0  0  0  0  0  0  0  0  0
  142.7900   73.8640  220.0730 N   0  0  0  0  0  0  0  0  0  0  0  0
  143.1160   72.6940  220.8790 C   0  0  0  0  0  0  0  0  0  0  0  0
  142.3730   71.6000  220.1340 C   0  0  0  0  0  0  0  0  0  0  0  0
  141.1750   72.3140  219.5660 C   0  0  0  0  0  0  0  0  0  0  0  0
  141.3630   73.7680  219.8310 C   0  0  1  0  0  0  0  0  0  0  0  0
  140.6750   74.2990  221.0110 C   0  0  0  0  0  0  0  0  0  0  0  0
  140.6260   73.5600  222.0410 O   0  0  0  0  0  0  0  0  0  0  0  0
  140.0960   75.5810  220.9900 N   0  0  0  0  0  0  0  0  0  0  0  0
  139.3970   76.2050  222.0810 C   0  0  0  0  0  0  0  0  0  0  0  0
  140.0570   77.4580  222.5010 C   0  0  0  0  0  0  0  0  0  0  0  0
  141.4000   77.7140  222.3690 C   0  0  0  0  0  0  0  0  0  0  0  0
  141.9790   78.9180  222.7860 C   0  0  0  0  0  0  0  0  0  0  0  0
  141.1480   79.8780  223.3520 C   0  0  0  0  0  0  0  0  0  0  0  0
  141.8340   81.4140  223.8930 Cl  0  0  0  0  0  0  0  0  0  0  0  0
  139.8180   79.6350  223.4860 C   0  0  0  0  0  0  0  0  0  0  0  0
  138.8150   80.8870  224.2090 Cl  0  0  0  0  0  0  0  0  0  0  0  0
  139.2700   78.4350  223.0650 C   0  0  0  0  0  0  0  0  0  0  0  0
  141.2260   78.7920  219.2940 C   0  0  0  0  0  0  0  0  0  0  0  0
  142.1910   79.7980  219.3530 C   0  0  0  0  0  0  0  0  0  0  0  0
  141.8200   81.0620  219.8130 C   0  0  0  0  0  0  0  0  0  0  0  0
  140.5240   81.3350  220.2110 C   0  0  0  0  0  0  0  0  0  0  0  0
  140.1230   82.5720  220.6720 C   0  0  0  0  0  0  0  0  0  0  0  0
  138.8330   82.8280  221.0620 C   0  0  0  0  0  0  0  0  0  0  0  0
  137.9050   81.7930  220.9860 C   0  0  0  0  0  0  0  0  0  0  0  0
  138.3010   80.5330  220.5200 C   0  0  0  0  0  0  0  0  0  0  0  0
  139.6130   80.3010  220.1310 C   0  0  0  0  0  0  0  0  0  0  0  0
  139.9870   79.0960  219.6860 N   0  0  0  0  0  0  0  0  0  0  0  0
  143.6880   77.6210  219.4440 H   0  0  0  0  0  0  0  0  0  0  0  0
  142.4693   75.2788  217.9445 H   0  0  0  0  0  0  0  0  0  0  0  0
  144.1716   75.7978  217.7758 H   0  0  0  0  0  0  0  0  0  0  0  0
  144.1996   72.5055  220.8946 H   0  0  0  0  0  0  0  0  0  0  0  0
  142.8361   72.7861  221.9388 H   0  0  0  0  0  0  0  0  0  0  0  0
  142.9959   71.1775  219.3319 H   0  0  0  0  0  0  0  0  0  0  0  0
  142.1006   70.7512  220.7785 H   0  0  0  0  0  0  0  0  0  0  0  0
  141.1073   72.1339  218.4830 H   0  0  0  0  0  0  0  0  0  0  0  0
  140.2466   71.9492  220.0296 H   0  0  0  0  0  0  0  0  0  0  0  0
  140.9524   74.3472  218.9908 H   0  0  0  0  0  0  0  0  0  0  0  0
  140.1870   76.1240  220.0880 H   0  0  0  0  0  0  0  0  0  0  0  0
  138.3685   76.4318  221.7635 H   0  0  0  0  0  0  0  0  0  0  0  0
  139.3994   75.5109  222.9344 H   0  0  0  0  0  0  0  0  0  0  0  0
  142.0442   76.9443  221.9189 H   0  0  0  0  0  0  0  0  0  0  0  0
  143.0577   79.0990  222.6695 H   0  0  0  0  0  0  0  0  0  0  0  0
  138.1904   78.2607  223.1833 H   0  0  0  0  0  0  0  0  0  0  0  0
  143.2270   79.5980  219.0420 H   0  0  0  0  0  0  0  0  0  0  0  0
  142.5759   81.8598  219.8602 H   0  0  0  0  0  0  0  0  0  0  0  0
  140.8646   83.3824  220.7289 H   0  0  0  0  0  0  0  0  0  0  0  0
  138.5397   83.8241  221.4250 H   0  0  0  0  0  0  0  0  0  0  0  0
  136.8623   81.9646  221.2915 H   0  0  0  0  0  0  0  0  0  0  0  0
  137.5642   79.7183  220.4617 H   0  0  0  0  0  0  0  0  0  0  0  0
  1  2  2  0
  2  3  1  0
  3  4  1  0
  4  5  1  0
  5  6  2  0
  5  7  1  0
  7  8  1  0
  8  9  1  0
  9 10  1  0
 10 11  1  0
 11 12  1  0
 12 13  2  0
 12 14  1  0
 14 15  1  0
 15 16  1  0
 16 17  2  0
 17 18  1  0
 18 19  2  0
 19 20  1  0
 19 21  1  0
 21 22  1  0
 21 23  2  0
  2 24  1  0
 24 25  2  0
 25 26  1  0
 26 27  2  0
 27 28  1  0
 28 29  2  0
 29 30  1  0
 30 31  2  0
 31 32  1  0
 32 33  2  0
 11  7  1  0
 23 16  1  0
 33 24  1  0
 32 27  1  0
  3 34  1  0
  4 35  1  0
  4 36  1  0
  8 37  1  0
  8 38  1  0
  9 39  1  0
  9 40  1  0
 10 41  1  0
 10 42  1  0
 11 43  1  6
 14 44  1  0
 15 45  1  0
 15 46  1  0
 17 47  1  0
 18 48  1  0
 23 49  1  0
 25 50  1  0
 26 51  1  0
 28 52  1  0
 29 53  1  0
 30 54  1  0
 31 55  1  0
M  END
>  <smiles>  (11) 
O=C(NCC(=O)N1CCC[C@H]1C(=O)NCc1ccc(Cl)c(Cl)c1)c1ccc2ccccc2n1

>  <score_type>  (11) 
oracle

>  <origin>  (11) 
autodockgpu

>  <m_score__min__energy>  (11) 
-9.1199999999999992

>  <m_primary>  (11) 
energy

>  <meeko>  (11) 
{"free_energy": -6.44, "intermolecular_energy": -8.53, "internal_energy": -4.62, "cluster_size": 14, "cluster_id": 6, "rank_in_cluster": 12}

>  <energy>  (11) 
-7.5

>  <cluster_rmsd>  (11) 
0.14

>  <rmsd>  (11) 
269.47

>  <cluster>  (11) 
6

$$$$

     RDKit          3D

 55 58  0  0  0  0  0  0  0  0999 V2000
  141.4880   73.1020  221.5890 O   0  0  0  0  0  0  0  0  0  0  0  0
  140.4540   73.0400  222.3350 C   0  0  0  0  0  0  0  0  0  0  0  0
  139.5760   74.1590  222.3590 N   0  0  0  0  0  0  0  0  0  0  0  0
  139.8900   75.3040  221.5490 C   0  0  0  0  0  0  0  0  0  0  0  0
  139.5330   76.5270  222.3110 C   0  0  0  0  0  0  0  0  0  0  0  0
  138.5240   76.6110  223.0590 O   0  0  0  0  0  0  0  0  0  0  0  0
  140.3610   77.6770  222.2070 N   0  0  0  0  0  0  0  0  0  0  0  0
  141.4480   78.0470  223.1040 C   0  0  0  0  0  0  0  0  0  0  0  0
  141.1650   79.5220  223.3260 C   0  0  0  0  0  0  0  0  0  0  0  0
  140.5390   79.9580  222.0280 C   0  0  0  0  0  0  0  0  0  0  0  0
  140.3180   78.7310  221.2120 C   0  0  1  0  0  0  0  0  0  0  0  0
  141.3430   78.4370  220.2070 C   0  0  0  0  0  0  0  0  0  0  0  0
  141.5030   79.2780  219.2700 O   0  0  0  0  0  0  0  0  0  0  0  0
  142.1150   77.2640  220.2910 N   0  0  0  0  0  0  0  0  0  0  0  0
  143.1450   76.8690  219.3680 C   0  0  0  0  0  0  0  0  0  0  0  0
  143.3970   75.4150  219.4260 C   0  0  0  0  0  0  0  0  0  0  0  0
  142.6650   74.4690  218.7510 C   0  0  0  0  0  0  0  0  0  0  0  0
  142.9410   73.1010  218.8420 C   0  0  0  0  0  0  0  0  0  0  0  0
  143.9990   72.7020  219.6510 C   0  0  0  0  0  0  0  0  0  0  0  0
  144.3860   70.9840  219.7970 Cl  0  0  0  0  0  0  0  0  0  0  0  0
  144.7300   73.6300  220.3230 C   0  0  0  0  0  0  0  0  0  0  0  0
  146.0580   73.0680  221.3310 Cl  0  0  0  0  0  0  0  0  0  0  0  0
  144.4360   74.9790  220.2150 C   0  0  0  0  0  0  0  0  0  0  0  0
  140.1810   71.8540  223.1400 C   0  0  0  0  0  0  0  0  0  0  0  0
  139.4610   70.8150  222.5490 C   0  0  0  0  0  0  0  0  0  0  0  0
  139.1910   69.6710  223.3000 C   0  0  0  0  0  0  0  0  0  0  0  0
  139.6190   69.5470  224.6100 C   0  0  0  0  0  0  0  0  0  0  0  0
  139.3700   68.4310  225.3810 C   0  0  0  0  0  0  0  0  0  0  0  0
  139.8020   68.3230  226.6780 C   0  0  0  0  0  0  0  0  0  0  0  0
  140.5160   69.3850  227.2240 C   0  0  0  0  0  0  0  0  0  0  0  0
  140.7750   70.5230  226.4500 C   0  0  0  0  0  0  0  0  0  0  0  0
  140.3270   70.6070  225.1390 C   0  0  0  0  0  0  0  0  0  0  0  0
  140.5770   71.6960  224.4040 N   0  0  0  0  0  0  0  0  0  0  0  0
  138.7160   74.1510  222.9530 H   0  0  0  0  0  0  0  0  0  0  0  0
  140.9651   75.3114  221.3165 H   0  0  0  0  0  0  0  0  0  0  0  0
  139.3251   75.2671  220.6059 H   0  0  0  0  0  0  0  0  0  0  0  0
  141.4015   77.4821  224.0468 H   0  0  0  0  0  0  0  0  0  0  0  0
  142.4513   77.8369  222.7050 H   0  0  0  0  0  0  0  0  0  0  0  0
  140.4700   79.6671  224.1662 H   0  0  0  0  0  0  0  0  0  0  0  0
  142.0666   80.0978  223.5820 H   0  0  0  0  0  0  0  0  0  0  0  0
  139.5794   80.4596  222.2220 H   0  0  0  0  0  0  0  0  0  0  0  0
  141.1919   80.6672  221.4982 H   0  0  0  0  0  0  0  0  0  0  0  0
  139.3896   78.8411  220.6323 H   0  0  0  0  0  0  0  0  0  0  0  0
  141.9130   76.6230  221.1060 H   0  0  0  0  0  0  0  0  0  0  0  0
  142.8325   77.1369  218.3479 H   0  0  0  0  0  0  0  0  0  0  0  0
  144.0733   77.3908  219.6436 H   0  0  0  0  0  0  0  0  0  0  0  0
  141.8305   74.7997  218.1151 H   0  0  0  0  0  0  0  0  0  0  0  0
  142.3395   72.3634  218.2905 H   0  0  0  0  0  0  0  0  0  0  0  0
  145.0418   75.7120  220.7679 H   0  0  0  0  0  0  0  0  0  0  0  0
  139.1124   70.8967  221.5089 H   0  0  0  0  0  0  0  0  0  0  0  0
  138.6244   68.8480  222.8400 H   0  0  0  0  0  0  0  0  0  0  0  0
  138.8043   67.5972  224.9396 H   0  0  0  0  0  0  0  0  0  0  0  0
  139.5897   67.4210  227.2707 H   0  0  0  0  0  0  0  0  0  0  0  0
  140.8765   69.3309  228.2619 H   0  0  0  0  0  0  0  0  0  0  0  0
  141.3400   71.3600  226.8861 H   0  0  0  0  0  0  0  0  0  0  0  0
  1  2  2  0
  2  3  1  0
  3  4  1  0
  4  5  1  0
  5  6  2  0
  5  7  1  0
  7  8  1  0
  8  9  1  0
  9 10  1  0
 10 11  1  0
 11 12  1  0
 12 13  2  0
 12 14  1  0
 14 15  1  0
 15 16  1  0
 16 17  2  0
 17 18  1  0
 18 19  2  0
 19 20  1  0
 19 21  1  0
 21 22  1  0
 21 23  2  0
  2 24  1  0
 24 25  2  0
 25 26  1  0
 26 27  2  0
 27 28  1  0
 28 29  2  0
 29 30  1  0
 30 31  2  0
 31 32  1  0
 32 33  2  0
 11  7  1  0
 23 16  1  0
 33 24  1  0
 32 27  1  0
  3 34  1  0
  4 35  1  0
  4 36  1  0
  8 37  1  0
  8 38  1  0
  9 39  1  0
  9 40  1  0
 10 41  1  0
 10 42  1  0
 11 43  1  6
 14 44  1  0
 15 45  1  0
 15 46  1  0
 17 47  1  0
 18 48  1  0
 23 49  1  0
 25 50  1  0
 26 51  1  0
 28 52  1  0
 29 53  1  0
 30 54  1  0
 31 55  1  0
M  END
>  <smiles>  (12) 
O=C(NCC(=O)N1CCC[C@H]1C(=O)NCc1ccc(Cl)c(Cl)c1)c1ccc2ccccc2n1

>  <score_type>  (12) 
oracle

>  <origin>  (12) 
autodockgpu

>  <m_score__min__energy>  (12) 
-9.1199999999999992

>  <m_primary>  (12) 
energy

>  <meeko>  (12) 
{"free_energy": -9.12, "intermolecular_energy": -11.2, "internal_energy": -2.48, "cluster_size": 1, "cluster_id": 1, "rank_in_cluster": 1}

>  <energy>  (12) 
-7.37

>  <cluster_rmsd>  (12) 
0.54

>  <rmsd>  (12) 
269.49

>  <cluster>  (12) 
6

$$$$

     RDKit          3D

 55 58  0  0  0  0  0  0  0  0999 V2000
  137.4500   69.9360  222.1940 O   0  0  0  0  0  0  0  0  0  0  0  0
  137.6920   70.5560  223.2840 C   0  0  0  0  0  0  0  0  0  0  0  0
  137.2000   71.8830  223.4240 N   0  0  0  0  0  0  0  0  0  0  0  0
  136.4580   72.4660  222.3390 C   0  0  0  0  0  0  0  0  0  0  0  0
  137.3780   73.3250  221.5530 C   0  0  0  0  0  0  0  0  0  0  0  0
  137.0240   74.3970  220.9950 O   0  0  0  0  0  0  0  0  0  0  0  0
  138.7380   72.9380  221.4080 N   0  0  0  0  0  0  0  0  0  0  0  0
  139.2780   72.0280  220.4060 C   0  0  0  0  0  0  0  0  0  0  0  0
  140.1760   71.1450  221.2540 C   0  0  0  0  0  0  0  0  0  0  0  0
  140.6420   72.0690  222.3470 C   0  0  0  0  0  0  0  0  0  0  0  0
  139.8800   73.3410  222.2050 C   0  0  1  0  0  0  0  0  0  0  0  0
  140.5630   74.4220  221.4890 C   0  0  0  0  0  0  0  0  0  0  0  0
  141.8080   74.2900  221.2820 O   0  0  0  0  0  0  0  0  0  0  0  0
  139.8540   75.5540  221.0500 N   0  0  0  0  0  0  0  0  0  0  0  0
  140.4140   76.6730  220.3410 C   0  0  0  0  0  0  0  0  0  0  0  0
  140.8270   77.7490  221.2660 C   0  0  0  0  0  0  0  0  0  0  0  0
  141.1100   77.5670  222.5970 C   0  0  0  0  0  0  0  0  0  0  0  0
  141.4940   78.6200  223.4340 C   0  0  0  0  0  0  0  0  0  0  0  0
  141.5850   79.8920  222.8800 C   0  0  0  0  0  0  0  0  0  0  0  0
  142.0660   81.2540  223.8970 Cl  0  0  0  0  0  0  0  0  0  0  0  0
  141.3080   80.0830  221.5640 C   0  0  0  0  0  0  0  0  0  0  0  0
  141.4410   81.7140  220.9160 Cl  0  0  0  0  0  0  0  0  0  0  0  0
  140.9300   79.0230  220.7560 C   0  0  0  0  0  0  0  0  0  0  0  0
  138.4510   69.9190  224.3540 C   0  0  0  0  0  0  0  0  0  0  0  0
  138.5480   68.5270  224.3490 C   0  0  0  0  0  0  0  0  0  0  0  0
  139.2720   67.8990  225.3620 C   0  0  0  0  0  0  0  0  0  0  0  0
  139.8900   68.6220  226.3660 C   0  0  0  0  0  0  0  0  0  0  0  0
  140.6130   68.0330  227.3830 C   0  0  0  0  0  0  0  0  0  0  0  0
  141.2210   68.7650  228.3710 C   0  0  0  0  0  0  0  0  0  0  0  0
  141.0960   70.1500  228.3350 C   0  0  0  0  0  0  0  0  0  0  0  0
  140.3650   70.7590  227.3070 C   0  0  0  0  0  0  0  0  0  0  0  0
  139.7590   69.9950  226.3190 C   0  0  0  0  0  0  0  0  0  0  0  0
  139.0620   70.5810  225.3390 N   0  0  0  0  0  0  0  0  0  0  0  0
  137.3720   72.4280  224.2990 H   0  0  0  0  0  0  0  0  0  0  0  0
  136.0519   71.6707  221.6966 H   0  0  0  0  0  0  0  0  0  0  0  0
  135.6224   73.0648  222.7303 H   0  0  0  0  0  0  0  0  0  0  0  0
  138.4812   71.4442  219.9220 H   0  0  0  0  0  0  0  0  0  0  0  0
  139.7964   72.5303  219.5760 H   0  0  0  0  0  0  0  0  0  0  0  0
  139.6139   70.2957  221.6696 H   0  0  0  0  0  0  0  0  0  0  0  0
  141.0055   70.7021  220.6833 H   0  0  0  0  0  0  0  0  0  0  0  0
  140.4435   71.6189  223.3308 H   0  0  0  0  0  0  0  0  0  0  0  0
  141.7239   72.2517  222.2682 H   0  0  0  0  0  0  0  0  0  0  0  0
  139.6791   73.7582  223.2028 H   0  0  0  0  0  0  0  0  0  0  0  0
  138.8200   75.5760  221.2660 H   0  0  0  0  0  0  0  0  0  0  0  0
  141.2927   76.3329  219.7734 H   0  0  0  0  0  0  0  0  0  0  0  0
  139.6434   77.0747  219.6666 H   0  0  0  0  0  0  0  0  0  0  0  0
  141.0319   76.5551  223.0212 H   0  0  0  0  0  0  0  0  0  0  0  0
  141.7170   78.4471  224.4972 H   0  0  0  0  0  0  0  0  0  0  0  0
  140.7094   79.2020  219.6933 H   0  0  0  0  0  0  0  0  0  0  0  0
  138.0617   67.9352  223.5595 H   0  0  0  0  0  0  0  0  0  0  0  0
  139.3535   66.8020  225.3625 H   0  0  0  0  0  0  0  0  0  0  0  0
  140.7051   66.9370  227.4021 H   0  0  0  0  0  0  0  0  0  0  0  0
  141.7921   68.2701  229.1703 H   0  0  0  0  0  0  0  0  0  0  0  0
  141.5706   70.7662  229.1129 H   0  0  0  0  0  0  0  0  0  0  0  0
  140.2701   71.8546  227.2823 H   0  0  0  0  0  0  0  0  0  0  0  0
  1  2  2  0
  2  3  1  0
  3  4  1  0
  4  5  1  0
  5  6  2  0
  5  7  1  0
  7  8  1  0
  8  9  1  0
  9 10  1  0
 10 11  1  0
 11 12  1  0
 12 13  2  0
 12 14  1  0
 14 15  1  0
 15 16  1  0
 16 17  2  0
 17 18  1  0
 18 19  2  0
 19 20  1  0
 19 21  1  0
 21 22  1  0
 21 23  2  0
  2 24  1  0
 24 25  2  0
 25 26  1  0
 26 27  2  0
 27 28  1  0
 28 29  2  0
 29 30  1  0
 30 31  2  0
 31 32  1  0
 32 33  2  0
 11  7  1  0
 23 16  1  0
 33 24  1  0
 32 27  1  0
  3 34  1  0
  4 35  1  0
  4 36  1  0
  8 37  1  0
  8 38  1  0
  9 39  1  0
  9 40  1  0
 10 41  1  0
 10 42  1  0
 11 43  1  1
 14 44  1  0
 15 45  1  0
 15 46  1  0
 17 47  1  0
 18 48  1  0
 23 49  1  0
 25 50  1  0
 26 51  1  0
 28 52  1  0
 29 53  1  0
 30 54  1  0
 31 55  1  0
M  END
>  <smiles>  (13) 
O=C(NCC(=O)N1CCC[C@H]1C(=O)NCc1ccc(Cl)c(Cl)c1)c1ccc2ccccc2n1

>  <score_type>  (13) 
oracle

>  <origin>  (13) 
autodockgpu

>  <m_score__min__energy>  (13) 
-9.1199999999999992

>  <m_primary>  (13) 
energy

>  <meeko>  (13) 
{"free_energy": -8.42, "intermolecular_energy": -10.51, "internal_energy": -2.93, "cluster_size": 1, "cluster_id": 5, "rank_in_cluster": 1}

>  <energy>  (13) 
-7.35

>  <cluster_rmsd>  (13) 
0.53

>  <rmsd>  (13) 
269.45

>  <cluster>  (13) 
6

$$$$

     RDKit          3D

 55 58  0  0  0  0  0  0  0  0999 V2000
  138.9590   75.1570  221.9480 O   0  0  0  0  0  0  0  0  0  0  0  0
  140.1050   75.7180  221.9720 C   0  0  0  0  0  0  0  0  0  0  0  0
  141.2310   74.9610  221.5440 N   0  0  0  0  0  0  0  0  0  0  0  0
  141.0310   73.6060  221.1070 C   0  0  0  0  0  0  0  0  0  0  0  0
  142.3480   73.0410  220.7210 C   0  0  0  0  0  0  0  0  0  0  0  0
  143.4350   73.6640  220.8420 O   0  0  0  0  0  0  0  0  0  0  0  0
  142.4100   71.7280  220.1810 N   0  0  0  0  0  0  0  0  0  0  0  0
  143.5540   70.8260  220.2260 C   0  0  0  0  0  0  0  0  0  0  0  0
  143.5910   70.3190  218.7950 C   0  0  0  0  0  0  0  0  0  0  0  0
  142.1440   70.3300  218.3820 C   0  0  0  0  0  0  0  0  0  0  0  0
  141.3780   70.9940  219.4740 C   0  0  1  0  0  0  0  0  0  0  0  0
  140.7280   70.1010  220.4360 C   0  0  0  0  0  0  0  0  0  0  0  0
  140.6860   68.8650  220.1510 O   0  0  0  0  0  0  0  0  0  0  0  0
  140.1760   70.6060  221.6270 N   0  0  0  0  0  0  0  0  0  0  0  0
  139.5160   69.8300  222.6420 C   0  0  0  0  0  0  0  0  0  0  0  0
  139.9090   70.2640  223.9980 C   0  0  0  0  0  0  0  0  0  0  0  0
  140.3870   71.5140  224.3090 C   0  0  0  0  0  0  0  0  0  0  0  0
  140.7500   71.8760  225.6100 C   0  0  0  0  0  0  0  0  0  0  0  0
  140.6160   70.9230  226.6130 C   0  0  0  0  0  0  0  0  0  0  0  0
  141.0610   71.3340  228.2720 Cl  0  0  0  0  0  0  0  0  0  0  0  0
  140.1430   69.6840  226.3160 C   0  0  0  0  0  0  0  0  0  0  0  0
  139.9930   68.5180  227.6260 Cl  0  0  0  0  0  0  0  0  0  0  0  0
  139.7900   69.3500  225.0190 C   0  0  0  0  0  0  0  0  0  0  0  0
  140.2550   77.0960  222.4260 C   0  0  0  0  0  0  0  0  0  0  0  0
  139.0960   77.8210  222.7070 C   0  0  0  0  0  0  0  0  0  0  0  0
  139.2170   79.1400  223.1440 C   0  0  0  0  0  0  0  0  0  0  0  0
  140.4530   79.7400  223.3020 C   0  0  0  0  0  0  0  0  0  0  0  0
  140.6090   81.0410  223.7320 C   0  0  0  0  0  0  0  0  0  0  0  0
  141.8420   81.6220  223.8850 C   0  0  0  0  0  0  0  0  0  0  0  0
  142.9690   80.8600  223.5910 C   0  0  0  0  0  0  0  0  0  0  0  0
  142.8230   79.5380  223.1550 C   0  0  0  0  0  0  0  0  0  0  0  0
  141.5630   78.9730  223.0090 C   0  0  0  0  0  0  0  0  0  0  0  0
  141.4280   77.7090  222.5910 N   0  0  0  0  0  0  0  0  0  0  0  0
  142.1890   75.3800  221.5450 H   0  0  0  0  0  0  0  0  0  0  0  0
  140.5967   73.0119  221.9246 H   0  0  0  0  0  0  0  0  0  0  0  0
  140.3427   73.5824  220.2493 H   0  0  0  0  0  0  0  0  0  0  0  0
  144.4787   71.3614  220.4874 H   0  0  0  0  0  0  0  0  0  0  0  0
  143.4716   70.0320  220.9828 H   0  0  0  0  0  0  0  0  0  0  0  0
  144.1875   70.9871  218.1563 H   0  0  0  0  0  0  0  0  0  0  0  0
  144.0555   69.3261  218.7037 H   0  0  0  0  0  0  0  0  0  0  0  0
  142.0245   70.8907  217.4432 H   0  0  0  0  0  0  0  0  0  0  0  0
  141.7781   69.3061  218.2158 H   0  0  0  0  0  0  0  0  0  0  0  0
  140.5513   71.5748  219.0390 H   0  0  0  0  0  0  0  0  0  0  0  0
  140.2590   71.6490  221.7800 H   0  0  0  0  0  0  0  0  0  0  0  0
  138.4280   69.9477  222.5306 H   0  0  0  0  0  0  0  0  0  0  0  0
  139.8115   68.7777  222.5178 H   0  0  0  0  0  0  0  0  0  0  0  0
  140.4879   72.2576  223.5047 H   0  0  0  0  0  0  0  0  0  0  0  0
  141.1299   72.8840  225.8328 H   0  0  0  0  0  0  0  0  0  0  0  0
  139.4096   68.3408  224.8026 H   0  0  0  0  0  0  0  0  0  0  0  0
  138.1045   77.3603  222.5860 H   0  0  0  0  0  0  0  0  0  0  0  0
  138.3076   79.7168  223.3683 H   0  0  0  0  0  0  0  0  0  0  0  0
  139.7116   81.6346  223.9607 H   0  0  0  0  0  0  0  0  0  0  0  0
  141.9376   82.6619  224.2306 H   0  0  0  0  0  0  0  0  0  0  0  0
  143.9729   81.2960  223.7011 H   0  0  0  0  0  0  0  0  0  0  0  0
  143.7169   78.9396  222.9253 H   0  0  0  0  0  0  0  0  0  0  0  0
  1  2  2  0
  2  3  1  0
  3  4  1  0
  4  5  1  0
  5  6  2  0
  5  7  1  0
  7  8  1  0
  8  9  1  0
  9 10  1  0
 10 11  1  0
 11 12  1  0
 12 13  2  0
 12 14  1  0
 14 15  1  0
 15 16  1  0
 16 17  2  0
 17 18  1  0
 18 19  2  0
 19 20  1  0
 19 21  1  0
 21 22  1  0
 21 23  2  0
  2 24  1  0
 24 25  2  0
 25 26  1  0
 26 27  2  0
 27 28  1  0
 28 29  2  0
 29 30  1  0
 30 31  2  0
 31 32  1  0
 32 33  2  0
 11  7  1  0
 23 16  1  0
 33 24  1  0
 32 27  1  0
  3 34  1  0
  4 35  1  0
  4 36  1  0
  8 37  1  0
  8 38  1  0
  9 39  1  0
  9 40  1  0
 10 41  1  0
 10 42  1  0
 11 43  1  6
 14 44  1  0
 15 45  1  0
 15 46  1  0
 17 47  1  0
 18 48  1  0
 23 49  1  0
 25 50  1  0
 26 51  1  0
 28 52  1  0
 29 53  1  0
 30 54  1  0
 31 55  1  0
M  END
>  <smiles>  (14) 
O=C(NCC(=O)N1CCC[C@H]1C(=O)NCc1ccc(Cl)c(Cl)c1)c1ccc2ccccc2n1

>  <score_type>  (14) 
oracle

>  <origin>  (14) 
autodockgpu

>  <m_score__min__energy>  (14) 
-9.1199999999999992

>  <m_primary>  (14) 
energy

>  <meeko>  (14) 
{"free_energy": -8.76, "intermolecular_energy": -10.84, "internal_energy": -2.36, "cluster_size": 1, "cluster_id": 3, "rank_in_cluster": 1}

>  <energy>  (14) 
-7.28

>  <cluster_rmsd>  (14) 
0.55

>  <rmsd>  (14) 
269.43

>  <cluster>  (14) 
6

$$$$

     RDKit          3D

 55 58  0  0  0  0  0  0  0  0999 V2000
  138.8750   75.2680  221.6480 O   0  0  0  0  0  0  0  0  0  0  0  0
  140.0380   75.6860  221.9710 C   0  0  0  0  0  0  0  0  0  0  0  0
  141.1250   74.7730  221.8900 N   0  0  0  0  0  0  0  0  0  0  0  0
  140.8690   73.4260  221.4530 C   0  0  0  0  0  0  0  0  0  0  0  0
  141.3650   73.2860  220.0610 C   0  0  0  0  0  0  0  0  0  0  0  0
  140.6770   72.8080  219.1220 O   0  0  0  0  0  0  0  0  0  0  0  0
  142.6850   73.7070  219.7480 N   0  0  0  0  0  0  0  0  0  0  0  0
  143.6120   73.0480  218.8360 C   0  0  0  0  0  0  0  0  0  0  0  0
  144.8930   73.0570  219.6510 C   0  0  0  0  0  0  0  0  0  0  0  0
  144.7760   74.3140  220.4720 C   0  0  0  0  0  0  0  0  0  0  0  0
  143.4080   74.8600  220.2520 C   0  0  1  0  0  0  0  0  0  0  0  0
  143.2960   75.9260  219.2530 C   0  0  0  0  0  0  0  0  0  0  0  0
  143.7110   75.6750  218.0800 O   0  0  0  0  0  0  0  0  0  0  0  0
  142.7450   77.1750  219.5930 N   0  0  0  0  0  0  0  0  0  0  0  0
  142.5850   78.2920  218.7020 C   0  0  0  0  0  0  0  0  0  0  0  0
  141.7180   79.3340  219.2910 C   0  0  0  0  0  0  0  0  0  0  0  0
  142.1630   80.5470  219.7570 C   0  0  0  0  0  0  0  0  0  0  0  0
  141.3020   81.5010  220.3100 C   0  0  0  0  0  0  0  0  0  0  0  0
  139.9490   81.1920  220.3820 C   0  0  0  0  0  0  0  0  0  0  0  0
  138.8220   82.3650  221.0720 Cl  0  0  0  0  0  0  0  0  0  0  0  0
  139.4980   79.9950  219.9230 C   0  0  0  0  0  0  0  0  0  0  0  0
  137.7740   79.6590  220.0380 Cl  0  0  0  0  0  0  0  0  0  0  0  0
  140.3720   79.0680  219.3790 C   0  0  0  0  0  0  0  0  0  0  0  0
  140.2440   77.0620  222.4090 C   0  0  0  0  0  0  0  0  0  0  0  0
  139.1190   77.8140  222.7520 C   0  0  0  0  0  0  0  0  0  0  0  0
  139.2940   79.1310  223.1770 C   0  0  0  0  0  0  0  0  0  0  0  0
  140.5500   79.7040  223.2620 C   0  0  0  0  0  0  0  0  0  0  0  0
  140.7590   81.0020  223.6770 C   0  0  0  0  0  0  0  0  0  0  0  0
  142.0120   81.5550  223.7570 C   0  0  0  0  0  0  0  0  0  0  0  0
  143.1030   80.7670  223.4030 C   0  0  0  0  0  0  0  0  0  0  0  0
  142.9030   79.4470  222.9810 C   0  0  0  0  0  0  0  0  0  0  0  0
  141.6240   78.9110  222.9090 C   0  0  0  0  0  0  0  0  0  0  0  0
  141.4370   77.6490  222.5050 N   0  0  0  0  0  0  0  0  0  0  0  0
  142.0940   75.0710  222.1430 H   0  0  0  0  0  0  0  0  0  0  0  0
  141.3946   72.7160  222.1084 H   0  0  0  0  0  0  0  0  0  0  0  0
  139.7908   73.2123  221.4947 H   0  0  0  0  0  0  0  0  0  0  0  0
  143.2888   72.0220  218.6060 H   0  0  0  0  0  0  0  0  0  0  0  0
  143.7005   73.5368  217.8545 H   0  0  0  0  0  0  0  0  0  0  0  0
  144.9544   72.1691  220.2974 H   0  0  0  0  0  0  0  0  0  0  0  0
  145.7988   73.0344  219.0273 H   0  0  0  0  0  0  0  0  0  0  0  0
  144.9224   74.0829  221.5374 H   0  0  0  0  0  0  0  0  0  0  0  0
  145.5406   75.0466  220.1742 H   0  0  0  0  0  0  0  0  0  0  0  0
  143.0445   75.3183  221.1836 H   0  0  0  0  0  0  0  0  0  0  0  0
  142.4240   77.2920  220.5930 H   0  0  0  0  0  0  0  0  0  0  0  0
  143.5736   78.7262  218.4918 H   0  0  0  0  0  0  0  0  0  0  0  0
  142.1116   77.9310  217.7770 H   0  0  0  0  0  0  0  0  0  0  0  0
  143.2368   80.7770  219.6930 H   0  0  0  0  0  0  0  0  0  0  0  0
  141.6840   82.4653  220.6763 H   0  0  0  0  0  0  0  0  0  0  0  0
  139.9839   78.1062  219.0125 H   0  0  0  0  0  0  0  0  0  0  0  0
  138.1121   77.3757  222.6882 H   0  0  0  0  0  0  0  0  0  0  0  0
  138.4119   79.7282  223.4512 H   0  0  0  0  0  0  0  0  0  0  0  0
  139.8897   81.6165  223.9540 H   0  0  0  0  0  0  0  0  0  0  0  0
  142.1505   82.5935  224.0920 H   0  0  0  0  0  0  0  0  0  0  0  0
  144.1210   81.1805  223.4546 H   0  0  0  0  0  0  0  0  0  0  0  0
  143.7687   78.8277  222.7034 H   0  0  0  0  0  0  0  0  0  0  0  0
  1  2  2  0
  2  3  1  0
  3  4  1  0
  4  5  1  0
  5  6  2  0
  5  7  1  0
  7  8  1  0
  8  9  1  0
  9 10  1  0
 10 11  1  0
 11 12  1  0
 12 13  2  0
 12 14  1  0
 14 15  1  0
 15 16  1  0
 16 17  2  0
 17 18  1  0
 18 19  2  0
 19 20  1  0
 19 21  1  0
 21 22  1  0
 21 23  2  0
  2 24  1  0
 24 25  2  0
 25 26  1  0
 26 27  2  0
 27 28  1  0
 28 29  2  0
 29 30  1  0
 30 31  2  0
 31 32  1  0
 32 33  2  0
 11  7  1  0
 23 16  1  0
 33 24  1  0
 32 27  1  0
  3 34  1  0
  4 35  1  0
  4 36  1  0
  8 37  1  0
  8 38  1  0
  9 39  1  0
  9 40  1  0
 10 41  1  0
 10 42  1  0
 11 43  1  1
 14 44  1  0
 15 45  1  0
 15 46  1  0
 17 47  1  0
 18 48  1  0
 23 49  1  0
 25 50  1  0
 26 51  1  0
 28 52  1  0
 29 53  1  0
 30 54  1  0
 31 55  1  0
M  END
>  <smiles>  (15) 
O=C(NCC(=O)N1CCC[C@H]1C(=O)NCc1ccc(Cl)c(Cl)c1)c1ccc2ccccc2n1

>  <score_type>  (15) 
oracle

>  <origin>  (15) 
autodockgpu

>  <m_score__min__energy>  (15) 
-9.1199999999999992

>  <m_primary>  (15) 
energy

>  <meeko>  (15) 
{"free_energy": -6.93, "intermolecular_energy": -9.01, "internal_energy": -4.4, "cluster_size": 14, "cluster_id": 6, "rank_in_cluster": 11}

>  <energy>  (15) 
-7.13

>  <cluster_rmsd>  (15) 
0.61

>  <rmsd>  (15) 
269.23

>  <cluster>  (15) 
6

$$$$

     RDKit          3D

 55 58  0  0  0  0  0  0  0  0999 V2000
  139.5640   74.5470  222.4310 O   0  0  0  0  0  0  0  0  0  0  0  0
  140.1670   75.4350  221.7400 C   0  0  0  0  0  0  0  0  0  0  0  0
  140.7220   75.0480  220.4880 N   0  0  0  0  0  0  0  0  0  0  0  0
  140.5820   73.6830  220.0600 C   0  0  0  0  0  0  0  0  0  0  0  0
  141.7530   72.9170  220.5530 C   0  0  0  0  0  0  0  0  0  0  0  0
  141.6640   71.9410  221.3440 O   0  0  0  0  0  0  0  0  0  0  0  0
  143.0570   73.2870  220.1260 N   0  0  0  0  0  0  0  0  0  0  0  0
  143.9190   72.5350  219.2220 C   0  0  0  0  0  0  0  0  0  0  0  0
  145.2470   72.5960  219.9560 C   0  0  0  0  0  0  0  0  0  0  0  0
  145.1940   73.9220  220.6660 C   0  0  0  0  0  0  0  0  0  0  0  0
  143.8200   74.4680  220.4800 C   0  0  1  0  0  0  0  0  0  0  0  0
  143.6590   75.4430  219.3980 C   0  0  0  0  0  0  0  0  0  0  0  0
  144.0430   75.0990  218.2380 O   0  0  0  0  0  0  0  0  0  0  0  0
  143.0970   76.7080  219.6480 N   0  0  0  0  0  0  0  0  0  0  0  0
  142.8900   77.7430  218.6710 C   0  0  0  0  0  0  0  0  0  0  0  0
  141.8940   78.7320  219.1320 C   0  0  0  0  0  0  0  0  0  0  0  0
  142.1880   80.0250  219.4900 C   0  0  0  0  0  0  0  0  0  0  0  0
  141.2080   80.9240  219.9240 C   0  0  0  0  0  0  0  0  0  0  0  0
  139.8940   80.4740  219.9900 C   0  0  0  0  0  0  0  0  0  0  0  0
  138.6220   81.5740  220.5330 Cl  0  0  0  0  0  0  0  0  0  0  0  0
  139.5930   79.1970  219.6380 C   0  0  0  0  0  0  0  0  0  0  0  0
  137.9140   78.6830  219.7400 Cl  0  0  0  0  0  0  0  0  0  0  0  0
  140.5820   78.3270  219.2100 C   0  0  0  0  0  0  0  0  0  0  0  0
  140.2830   76.8070  222.2210 C   0  0  0  0  0  0  0  0  0  0  0  0
  139.1230   77.4460  222.6600 C   0  0  0  0  0  0  0  0  0  0  0  0
  139.2120   78.7570  223.1260 C   0  0  0  0  0  0  0  0  0  0  0  0
  140.4180   79.4330  223.1610 C   0  0  0  0  0  0  0  0  0  0  0  0
  140.5420   80.7300  223.6150 C   0  0  0  0  0  0  0  0  0  0  0  0
  141.7460   81.3860  223.6450 C   0  0  0  0  0  0  0  0  0  0  0  0
  142.8760   80.7080  223.1960 C   0  0  0  0  0  0  0  0  0  0  0  0
  142.7620   79.3910  222.7330 C   0  0  0  0  0  0  0  0  0  0  0  0
  141.5310   78.7500  222.7150 C   0  0  0  0  0  0  0  0  0  0  0  0
  141.4270   77.4910  222.2710 N   0  0  0  0  0  0  0  0  0  0  0  0
  141.2230   75.7420  219.8880 H   0  0  0  0  0  0  0  0  0  0  0  0
  139.6570   73.2562  220.4750 H   0  0  0  0  0  0  0  0  0  0  0  0
  140.5321   73.6336  218.9622 H   0  0  0  0  0  0  0  0  0  0  0  0
  143.5715   71.4980  219.1041 H   0  0  0  0  0  0  0  0  0  0  0  0
  143.9526   72.9329  218.1971 H   0  0  0  0  0  0  0  0  0  0  0  0
  145.3376   71.7682  220.6748 H   0  0  0  0  0  0  0  0  0  0  0  0
  146.1131   72.5035  219.2841 H   0  0  0  0  0  0  0  0  0  0  0  0
  145.4028   73.7843  221.7372 H   0  0  0  0  0  0  0  0  0  0  0  0
  145.9467   74.6129  220.2586 H   0  0  0  0  0  0  0  0  0  0  0  0
  143.5178   75.0129  221.3865 H   0  0  0  0  0  0  0  0  0  0  0  0
  142.8050   76.9060  220.6440 H   0  0  0  0  0  0  0  0  0  0  0  0
  143.8450   78.2568  218.4869 H   0  0  0  0  0  0  0  0  0  0  0  0
  142.5119   77.2766  217.7493 H   0  0  0  0  0  0  0  0  0  0  0  0
  143.2322   80.3661  219.4334 H   0  0  0  0  0  0  0  0  0  0  0  0
  141.4689   81.9552  220.2044 H   0  0  0  0  0  0  0  0  0  0  0  0
  140.3144   77.2978  218.9286 H   0  0  0  0  0  0  0  0  0  0  0  0
  138.1548   76.9244  222.6388 H   0  0  0  0  0  0  0  0  0  0  0  0
  138.3011   79.2659  223.4742 H   0  0  0  0  0  0  0  0  0  0  0  0
  139.6424   81.2571  223.9657 H   0  0  0  0  0  0  0  0  0  0  0  0
  141.8169   82.4199  224.0139 H   0  0  0  0  0  0  0  0  0  0  0  0
  143.8569   81.2058  223.2048 H   0  0  0  0  0  0  0  0  0  0  0  0
  143.6577   78.8590  222.3799 H   0  0  0  0  0  0  0  0  0  0  0  0
  1  2  2  0
  2  3  1  0
  3  4  1  0
  4  5  1  0
  5  6  2  0
  5  7  1  0
  7  8  1  0
  8  9  1  0
  9 10  1  0
 10 11  1  0
 11 12  1  0
 12 13  2  0
 12 14  1  0
 14 15  1  0
 15 16  1  0
 16 17  2  0
 17 18  1  0
 18 19  2  0
 19 20  1  0
 19 21  1  0
 21 22  1  0
 21 23  2  0
  2 24  1  0
 24 25  2  0
 25 26  1  0
 26 27  2  0
 27 28  1  0
 28 29  2  0
 29 30  1  0
 30 31  2  0
 31 32  1  0
 32 33  2  0
 11  7  1  0
 23 16  1  0
 33 24  1  0
 32 27  1  0
  3 34  1  0
  4 35  1  0
  4 36  1  0
  8 37  1  0
  8 38  1  0
  9 39  1  0
  9 40  1  0
 10 41  1  0
 10 42  1  0
 11 43  1  1
 14 44  1  0
 15 45  1  0
 15 46  1  0
 17 47  1  0
 18 48  1  0
 23 49  1  0
 25 50  1  0
 26 51  1  0
 28 52  1  0
 29 53  1  0
 30 54  1  0
 31 55  1  0
M  END
>  <smiles>  (16) 
O=C(NCC(=O)N1CCC[C@H]1C(=O)NCc1ccc(Cl)c(Cl)c1)c1ccc2ccccc2n1

>  <score_type>  (16) 
oracle

>  <origin>  (16) 
autodockgpu

>  <m_score__min__energy>  (16) 
-9.1199999999999992

>  <m_primary>  (16) 
energy

>  <meeko>  (16) 
{"free_energy": -7.37, "intermolecular_energy": -9.46, "internal_energy": -4.6, "cluster_size": 14, "cluster_id": 6, "rank_in_cluster": 6}

>  <energy>  (16) 
-7.0

>  <cluster_rmsd>  (16) 
0.77

>  <rmsd>  (16) 
269.57

>  <cluster>  (16) 
6

$$$$

     RDKit          3D

 55 58  0  0  0  0  0  0  0  0999 V2000
  139.6620   74.0260  222.4520 O   0  0  0  0  0  0  0  0  0  0  0  0
  139.9340   74.9810  221.6500 C   0  0  0  0  0  0  0  0  0  0  0  0
  140.2090   74.6600  220.2920 N   0  0  0  0  0  0  0  0  0  0  0  0
  140.1700   73.2820  219.8840 C   0  0  0  0  0  0  0  0  0  0  0  0
  141.4790   72.6620  220.2110 C   0  0  0  0  0  0  0  0  0  0  0  0
  141.5980   71.5790  220.8420 O   0  0  0  0  0  0  0  0  0  0  0  0
  142.6760   73.3090  219.8020 N   0  0  0  0  0  0  0  0  0  0  0  0
  143.6300   72.8210  218.8140 C   0  0  0  0  0  0  0  0  0  0  0  0
  144.9490   73.0590  219.5280 C   0  0  0  0  0  0  0  0  0  0  0  0
  144.6770   74.2780  220.3690 C   0  0  0  0  0  0  0  0  0  0  0  0
  143.2210   74.5720  220.2610 C   0  0  1  0  0  0  0  0  0  0  0  0
  142.8450   75.5990  219.2850 C   0  0  0  0  0  0  0  0  0  0  0  0
  142.1490   75.2330  218.2890 O   0  0  0  0  0  0  0  0  0  0  0  0
  143.2450   76.9370  219.4590 N   0  0  0  0  0  0  0  0  0  0  0  0
  142.9380   78.0270  218.5720 C   0  0  0  0  0  0  0  0  0  0  0  0
  141.7390   78.7670  219.0170 C   0  0  0  0  0  0  0  0  0  0  0  0
  140.4650   78.2550  219.0230 C   0  0  0  0  0  0  0  0  0  0  0  0
  139.3600   78.9980  219.4510 C   0  0  0  0  0  0  0  0  0  0  0  0
  139.5790   80.3010  219.8830 C   0  0  0  0  0  0  0  0  0  0  0  0
  138.2140   81.2790  220.4340 Cl  0  0  0  0  0  0  0  0  0  0  0  0
  140.8360   80.8160  219.8830 C   0  0  0  0  0  0  0  0  0  0  0  0
  141.0550   82.4700  220.4420 Cl  0  0  0  0  0  0  0  0  0  0  0  0
  141.9140   80.0590  219.4540 C   0  0  0  0  0  0  0  0  0  0  0  0
  139.9610   76.3640  222.1150 C   0  0  0  0  0  0  0  0  0  0  0  0
  138.7430   76.9780  222.4090 C   0  0  0  0  0  0  0  0  0  0  0  0
  138.7470   78.2990  222.8570 C   0  0  0  0  0  0  0  0  0  0  0  0
  139.9250   79.0080  223.0140 C   0  0  0  0  0  0  0  0  0  0  0  0
  139.9650   80.3140  223.4540 C   0  0  0  0  0  0  0  0  0  0  0  0
  141.1420   81.0030  223.6060 C   0  0  0  0  0  0  0  0  0  0  0  0
  142.3310   80.3480  223.3000 C   0  0  0  0  0  0  0  0  0  0  0  0
  142.3020   79.0220  222.8520 C   0  0  0  0  0  0  0  0  0  0  0  0
  141.0970   78.3470  222.7080 C   0  0  0  0  0  0  0  0  0  0  0  0
  141.0750   77.0790  222.2800 N   0  0  0  0  0  0  0  0  0  0  0  0
  140.4340   75.4100  219.6000 H   0  0  0  0  0  0  0  0  0  0  0  0
  139.3656   72.7577  220.4208 H   0  0  0  0  0  0  0  0  0  0  0  0
  139.9767   73.2119  218.8034 H   0  0  0  0  0  0  0  0  0  0  0  0
  143.4758   71.7533  218.5990 H   0  0  0  0  0  0  0  0  0  0  0  0
  143.5540   73.3141  217.8337 H   0  0  0  0  0  0  0  0  0  0  0  0
  145.2162   72.1979  220.1582 H   0  0  0  0  0  0  0  0  0  0  0  0
  145.7930   73.1950  218.8358 H   0  0  0  0  0  0  0  0  0  0  0  0
  144.9447   74.0799  221.4174 H   0  0  0  0  0  0  0  0  0  0  0  0
  145.2748   75.1334  220.0213 H   0  0  0  0  0  0  0  0  0  0  0  0
  142.8559   74.9608  221.2230 H   0  0  0  0  0  0  0  0  0  0  0  0
  143.8210   77.1480  220.3190 H   0  0  0  0  0  0  0  0  0  0  0  0
  143.7941   78.7172  218.5445 H   0  0  0  0  0  0  0  0  0  0  0  0
  142.7364   77.6125  217.5732 H   0  0  0  0  0  0  0  0  0  0  0  0
  140.3076   77.2223  218.6784 H   0  0  0  0  0  0  0  0  0  0  0  0
  138.3490   78.5647  219.4459 H   0  0  0  0  0  0  0  0  0  0  0  0
  142.9230   80.4971  219.4630 H   0  0  0  0  0  0  0  0  0  0  0  0
  137.7966   76.4302  222.2896 H   0  0  0  0  0  0  0  0  0  0  0  0
  137.7905   78.7891  223.0912 H   0  0  0  0  0  0  0  0  0  0  0  0
  139.0189   80.8223  223.6919 H   0  0  0  0  0  0  0  0  0  0  0  0
  141.1455   82.0445  223.9600 H   0  0  0  0  0  0  0  0  0  0  0  0
  143.2922   80.8714  223.4100 H   0  0  0  0  0  0  0  0  0  0  0  0
  143.2447   78.5088  222.6113 H   0  0  0  0  0  0  0  0  0  0  0  0
  1  2  2  0
  2  3  1  0
  3  4  1  0
  4  5  1  0
  5  6  2  0
  5  7  1  0
  7  8  1  0
  8  9  1  0
  9 10  1  0
 10 11  1  0
 11 12  1  0
 12 13  2  0
 12 14  1  0
 14 15  1  0
 15 16  1  0
 16 17  2  0
 17 18  1  0
 18 19  2  0
 19 20  1  0
 19 21  1  0
 21 22  1  0
 21 23  2  0
  2 24  1  0
 24 25  2  0
 25 26  1  0
 26 27  2  0
 27 28  1  0
 28 29  2  0
 29 30  1  0
 30 31  2  0
 31 32  1  0
 32 33  2  0
 11  7  1  0
 23 16  1  0
 33 24  1  0
 32 27  1  0
  3 34  1  0
  4 35  1  0
  4 36  1  0
  8 37  1  0
  8 38  1  0
  9 39  1  0
  9 40  1  0
 10 41  1  0
 10 42  1  0
 11 43  1  1
 14 44  1  0
 15 45  1  0
 15 46  1  0
 17 47  1  0
 18 48  1  0
 23 49  1  0
 25 50  1  0
 26 51  1  0
 28 52  1  0
 29 53  1  0
 30 54  1  0
 31 55  1  0
M  END
>  <smiles>  (17) 
O=C(NCC(=O)N1CCC[C@H]1C(=O)NCc1ccc(Cl)c(Cl)c1)c1ccc2ccccc2n1

>  <score_type>  (17) 
oracle

>  <origin>  (17) 
autodockgpu

>  <m_score__min__energy>  (17) 
-9.1199999999999992

>  <m_primary>  (17) 
energy

>  <meeko>  (17) 
{"free_energy": -7.13, "intermolecular_energy": -9.22, "internal_energy": -4.67, "cluster_size": 14, "cluster_id": 6, "rank_in_cluster": 9}

>  <energy>  (17) 
-6.93

>  <cluster_rmsd>  (17) 
1.02

>  <rmsd>  (17) 
269.64

>  <cluster>  (17) 
6

$$$$

     RDKit          3D

 55 58  0  0  0  0  0  0  0  0999 V2000
  140.2460   70.9460  221.2330 O   0  0  0  0  0  0  0  0  0  0  0  0
  140.0180   71.5690  222.3240 C   0  0  0  0  0  0  0  0  0  0  0  0
  139.8410   72.9800  222.2660 N   0  0  0  0  0  0  0  0  0  0  0  0
  139.9280   73.6370  220.9900 C   0  0  0  0  0  0  0  0  0  0  0  0
  140.4010   75.0270  221.2130 C   0  0  0  0  0  0  0  0  0  0  0  0
  140.5410   75.5400  222.3540 O   0  0  0  0  0  0  0  0  0  0  0  0
  140.7190   75.8410  220.0930 N   0  0  0  0  0  0  0  0  0  0  0  0
  139.8100   76.2430  219.0270 C   0  0  0  0  0  0  0  0  0  0  0  0
  140.6600   75.9850  217.7950 C   0  0  0  0  0  0  0  0  0  0  0  0
  142.0620   76.2450  218.2770 C   0  0  0  0  0  0  0  0  0  0  0  0
  141.9920   76.4470  219.7520 C   0  0  1  0  0  0  0  0  0  0  0  0
  141.9580   77.8400  220.2070 C   0  0  0  0  0  0  0  0  0  0  0  0
  142.0130   78.7460  219.3210 O   0  0  0  0  0  0  0  0  0  0  0  0
  141.8650   78.1460  221.5760 N   0  0  0  0  0  0  0  0  0  0  0  0
  141.8250   79.4690  222.1400 C   0  0  0  0  0  0  0  0  0  0  0  0
  140.4900   79.7840  222.6890 C   0  0  0  0  0  0  0  0  0  0  0  0
  140.1870   80.9180  223.4000 C   0  0  0  0  0  0  0  0  0  0  0  0
  138.9060   81.1700  223.9030 C   0  0  0  0  0  0  0  0  0  0  0  0
  137.9160   80.2240  223.6630 C   0  0  0  0  0  0  0  0  0  0  0  0
  136.2820   80.4980  224.2780 Cl  0  0  0  0  0  0  0  0  0  0  0  0
  138.2040   79.0990  222.9600 C   0  0  0  0  0  0  0  0  0  0  0  0
  136.9110   77.9380  222.6860 Cl  0  0  0  0  0  0  0  0  0  0  0  0
  139.4810   78.8740  222.4720 C   0  0  0  0  0  0  0  0  0  0  0  0
  139.9400   70.8550  223.5930 C   0  0  0  0  0  0  0  0  0  0  0  0
  139.3340   69.5980  223.5990 C   0  0  0  0  0  0  0  0  0  0  0  0
  139.2520   68.8960  224.8020 C   0  0  0  0  0  0  0  0  0  0  0  0
  139.7530   69.4180  225.9810 C   0  0  0  0  0  0  0  0  0  0  0  0
  139.6880   68.7520  227.1870 C   0  0  0  0  0  0  0  0  0  0  0  0
  140.1910   69.2830  228.3470 C   0  0  0  0  0  0  0  0  0  0  0  0
  140.7860   70.5400  228.2920 C   0  0  0  0  0  0  0  0  0  0  0  0
  140.8580   71.2250  227.0730 C   0  0  0  0  0  0  0  0  0  0  0  0
  140.3410   70.6650  225.9120 C   0  0  0  0  0  0  0  0  0  0  0  0
  140.4120   71.3230  224.7490 N   0  0  0  0  0  0  0  0  0  0  0  0
  139.6500   73.5310  223.1330 H   0  0  0  0  0  0  0  0  0  0  0  0
  140.6387   73.1014  220.3435 H   0  0  0  0  0  0  0  0  0  0  0  0
  138.9432   73.6456  220.5000 H   0  0  0  0  0  0  0  0  0  0  0  0
  138.8981   75.6279  219.0226 H   0  0  0  0  0  0  0  0  0  0  0  0
  139.4454   77.2772  219.1132 H   0  0  0  0  0  0  0  0  0  0  0  0
  140.5486   74.9463  217.4505 H   0  0  0  0  0  0  0  0  0  0  0  0
  140.3769   76.6147  216.9387 H   0  0  0  0  0  0  0  0  0  0  0  0
  142.7058   75.3838  218.0449 H   0  0  0  0  0  0  0  0  0  0  0  0
  142.4866   77.1308  217.7818 H   0  0  0  0  0  0  0  0  0  0  0  0
  142.8941   76.0275  220.2213 H   0  0  0  0  0  0  0  0  0  0  0  0
  141.8230   77.3260  222.2410 H   0  0  0  0  0  0  0  0  0  0  0  0
  142.5685   79.5356  222.9480 H   0  0  0  0  0  0  0  0  0  0  0  0
  142.0486   80.1914  221.3412 H   0  0  0  0  0  0  0  0  0  0  0  0
  140.9814   81.6569  223.5813 H   0  0  0  0  0  0  0  0  0  0  0  0
  138.6892   82.0872  224.4702 H   0  0  0  0  0  0  0  0  0  0  0  0
  139.6910   77.9559  221.9037 H   0  0  0  0  0  0  0  0  0  0  0  0
  138.9280   69.1681  222.6714 H   0  0  0  0  0  0  0  0  0  0  0  0
  138.7776   67.9036  224.8132 H   0  0  0  0  0  0  0  0  0  0  0  0
  139.2157   67.7591  227.2195 H   0  0  0  0  0  0  0  0  0  0  0  0
  140.1259   68.7301  229.2957 H   0  0  0  0  0  0  0  0  0  0  0  0
  141.1990   70.9945  229.2046 H   0  0  0  0  0  0  0  0  0  0  0  0
  141.3295   72.2181  227.0344 H   0  0  0  0  0  0  0  0  0  0  0  0
  1  2  2  0
  2  3  1  0
  3  4  1  0
  4  5  1  0
  5  6  2  0
  5  7  1  0
  7  8  1  0
  8  9  1  0
  9 10  1  0
 10 11  1  0
 11 12  1  0
 12 13  2  0
 12 14  1  0
 14 15  1  0
 15 16  1  0
 16 17  2  0
 17 18  1  0
 18 19  2  0
 19 20  1  0
 19 21  1  0
 21 22  1  0
 21 23  2  0
  2 24  1  0
 24 25  2  0
 25 26  1  0
 26 27  2  0
 27 28  1  0
 28 29  2  0
 29 30  1  0
 30 31  2  0
 31 32  1  0
 32 33  2  0
 11  7  1  0
 23 16  1  0
 33 24  1  0
 32 27  1  0
  3 34  1  0
  4 35  1  0
  4 36  1  0
  8 37  1  0
  8 38  1  0
  9 39  1  0
  9 40  1  0
 10 41  1  0
 10 42  1  0
 11 43  1  1
 14 44  1  0
 15 45  1  0
 15 46  1  0
 17 47  1  0
 18 48  1  0
 23 49  1  0
 25 50  1  0
 26 51  1  0
 28 52  1  0
 29 53  1  0
 30 54  1  0
 31 55  1  0
M  END
>  <smiles>  (18) 
O=C(NCC(=O)N1CCC[C@H]1C(=O)NCc1ccc(Cl)c(Cl)c1)c1ccc2ccccc2n1

>  <score_type>  (18) 
oracle

>  <origin>  (18) 
autodockgpu

>  <m_score__min__energy>  (18) 
-9.1199999999999992

>  <m_primary>  (18) 
energy

>  <meeko>  (18) 
{"free_energy": -8.65, "intermolecular_energy": -10.73, "internal_energy": -2.95, "cluster_size": 1, "cluster_id": 4, "rank_in_cluster": 1}

>  <energy>  (18) 
-6.44

>  <cluster_rmsd>  (18) 
1.73

>  <rmsd>  (18) 
269.33

>  <cluster>  (18) 
6

$$$$

     RDKit          3D

 55 58  0  0  0  0  0  0  0  0999 V2000
  139.5810   74.3640  222.3680 O   0  0  0  0  0  0  0  0  0  0  0  0
  140.1220   75.2880  221.6740 C   0  0  0  0  0  0  0  0  0  0  0  0
  140.6650   74.9440  220.4050 N   0  0  0  0  0  0  0  0  0  0  0  0
  140.5820   73.5770  219.9640 C   0  0  0  0  0  0  0  0  0  0  0  0
  141.7720   72.8500  220.4730 C   0  0  0  0  0  0  0  0  0  0  0  0
  141.7040   71.8660  221.2560 O   0  0  0  0  0  0  0  0  0  0  0  0
  143.0680   73.2690  220.0700 N   0  0  0  0  0  0  0  0  0  0  0  0
  143.9560   72.5740  219.1460 C   0  0  0  0  0  0  0  0  0  0  0  0
  145.2770   72.6410  219.8920 C   0  0  0  0  0  0  0  0  0  0  0  0
  145.1840   73.9370  220.6510 C   0  0  0  0  0  0  0  0  0  0  0  0
  143.7990   74.4550  220.4750 C   0  0  1  0  0  0  0  0  0  0  0  0
  143.6200   75.4660  219.4300 C   0  0  0  0  0  0  0  0  0  0  0  0
  144.0200   75.1760  218.2610 O   0  0  0  0  0  0  0  0  0  0  0  0
  143.0250   76.7060  219.7240 N   0  0  0  0  0  0  0  0  0  0  0  0
  142.7990   77.7720  218.7850 C   0  0  0  0  0  0  0  0  0  0  0  0
  141.6340   78.5960  219.1710 C   0  0  0  0  0  0  0  0  0  0  0  0
  140.3330   78.1560  219.1650 C   0  0  0  0  0  0  0  0  0  0  0  0
  139.2620   78.9760  219.5360 C   0  0  0  0  0  0  0  0  0  0  0  0
  139.5450   80.2820  219.9210 C   0  0  0  0  0  0  0  0  0  0  0  0
  138.2250   81.3550  220.3980 Cl  0  0  0  0  0  0  0  0  0  0  0  0
  140.8290   80.7260  219.9310 C   0  0  0  0  0  0  0  0  0  0  0  0
  141.1270   82.3870  220.4290 Cl  0  0  0  0  0  0  0  0  0  0  0  0
  141.8710   79.8930  219.5600 C   0  0  0  0  0  0  0  0  0  0  0  0
  140.1810   76.6590  222.1680 C   0  0  0  0  0  0  0  0  0  0  0  0
  138.9840   77.2720  222.5400 C   0  0  0  0  0  0  0  0  0  0  0  0
  139.0190   78.5820  223.0180 C   0  0  0  0  0  0  0  0  0  0  0  0
  140.2070   79.2820  223.1280 C   0  0  0  0  0  0  0  0  0  0  0  0
  140.2780   80.5770  223.5960 C   0  0  0  0  0  0  0  0  0  0  0  0
  141.4640   81.2580  223.7000 C   0  0  0  0  0  0  0  0  0  0  0  0
  142.6320   80.6050  223.3160 C   0  0  0  0  0  0  0  0  0  0  0  0
  142.5720   79.2900  222.8400 C   0  0  0  0  0  0  0  0  0  0  0  0
  141.3580   78.6240  222.7450 C   0  0  0  0  0  0  0  0  0  0  0  0
  141.3060   77.3660  222.2900 N   0  0  0  0  0  0  0  0  0  0  0  0
  141.1160   75.6680  219.8010 H   0  0  0  0  0  0  0  0  0  0  0  0
  139.6659   73.1137  220.3591 H   0  0  0  0  0  0  0  0  0  0  0  0
  140.5531   73.5343  218.8652 H   0  0  0  0  0  0  0  0  0  0  0  0
  143.6363   71.5336  218.9866 H   0  0  0  0  0  0  0  0  0  0  0  0
  143.9867   73.0114  218.1372 H   0  0  0  0  0  0  0  0  0  0  0  0
  145.3843   71.7891  220.5796 H   0  0  0  0  0  0  0  0  0  0  0  0
  146.1499   72.5963  219.2241 H   0  0  0  0  0  0  0  0  0  0  0  0
  145.3884   73.7639  221.7179 H   0  0  0  0  0  0  0  0  0  0  0  0
  145.9214   74.6618  220.2757 H   0  0  0  0  0  0  0  0  0  0  0  0
  143.4776   74.9574  221.3993 H   0  0  0  0  0  0  0  0  0  0  0  0
  142.7220   76.8590  220.7250 H   0  0  0  0  0  0  0  0  0  0  0  0
  143.6930   78.4118  218.7486 H   0  0  0  0  0  0  0  0  0  0  0  0
  142.5957   77.3269  217.7999 H   0  0  0  0  0  0  0  0  0  0  0  0
  140.1254   77.1206  218.8571 H   0  0  0  0  0  0  0  0  0  0  0  0
  138.2285   78.5996  219.5236 H   0  0  0  0  0  0  0  0  0  0  0  0
  142.9026   80.2744  219.5768 H   0  0  0  0  0  0  0  0  0  0  0  0
  138.0294   76.7317  222.4577 H   0  0  0  0  0  0  0  0  0  0  0  0
  138.0790   79.0703  223.3147 H   0  0  0  0  0  0  0  0  0  0  0  0
  139.3488   81.0829  223.8972 H   0  0  0  0  0  0  0  0  0  0  0  0
  141.4915   82.2913  224.0763 H   0  0  0  0  0  0  0  0  0  0  0  0
  143.6006   81.1216  223.3865 H   0  0  0  0  0  0  0  0  0  0  0  0
  143.4978   78.7785  222.5377 H   0  0  0  0  0  0  0  0  0  0  0  0
  1  2  2  0
  2  3  1  0
  3  4  1  0
  4  5  1  0
  5  6  2  0
  5  7  1  0
  7  8  1  0
  8  9  1  0
  9 10  1  0
 10 11  1  0
 11 12  1  0
 12 13  2  0
 12 14  1  0
 14 15  1  0
 15 16  1  0
 16 17  2  0
 17 18  1  0
 18 19  2  0
 19 20  1  0
 19 21  1  0
 21 22  1  0
 21 23  2  0
  2 24  1  0
 24 25  2  0
 25 26  1  0
 26 27  2  0
 27 28  1  0
 28 29  2  0
 29 30  1  0
 30 31  2  0
 31 32  1  0
 32 33  2  0
 11  7  1  0
 23 16  1  0
 33 24  1  0
 32 27  1  0
  3 34  1  0
  4 35  1  0
  4 36  1  0
  8 37  1  0
  8 38  1  0
  9 39  1  0
  9 40  1  0
 10 41  1  0
 10 42  1  0
 11 43  1  1
 14 44  1  0
 15 45  1  0
 15 46  1  0
 17 47  1  0
 18 48  1  0
 23 49  1  0
 25 50  1  0
 26 51  1  0
 28 52  1  0
 29 53  1  0
 30 54  1  0
 31 55  1  0
M  END
>  <smiles>  (19) 
O=C(NCC(=O)N1CCC[C@H]1C(=O)NCc1ccc(Cl)c(Cl)c1)c1ccc2ccccc2n1

>  <score_type>  (19) 
oracle

>  <origin>  (19) 
autodockgpu

>  <m_score__min__energy>  (19) 
-9.1199999999999992

>  <m_primary>  (19) 
energy

>  <meeko>  (19) 
{"free_energy": -7.5, "intermolecular_energy": -9.59, "internal_energy": -4.6, "cluster_size": 14, "cluster_id": 6, "rank_in_cluster": 5}

>  <energy>  (19) 
-6.38

>  <cluster_rmsd>  (19) 
1.14

>  <rmsd>  (19) 
269.16

>  <cluster>  (19) 
6

$$$$

     RDKit          3D

 55 58  0  0  0  0  0  0  0  0999 V2000
  139.5930   74.4910  222.3790 O   0  0  0  0  0  0  0  0  0  0  0  0
  140.1530   75.4000  221.6790 C   0  0  0  0  0  0  0  0  0  0  0  0
  140.6700   75.0410  220.4030 N   0  0  0  0  0  0  0  0  0  0  0  0
  140.5420   73.6780  219.9620 C   0  0  0  0  0  0  0  0  0  0  0  0
  141.7110   72.9130  220.4650 C   0  0  0  0  0  0  0  0  0  0  0  0
  141.6150   71.9180  221.2290 O   0  0  0  0  0  0  0  0  0  0  0  0
  143.0190   73.3080  220.0760 N   0  0  0  0  0  0  0  0  0  0  0  0
  143.9190   72.5780  219.1920 C   0  0  0  0  0  0  0  0  0  0  0  0
  145.2250   72.6550  219.9630 C   0  0  0  0  0  0  0  0  0  0  0  0
  145.1300   73.9740  220.6810 C   0  0  0  0  0  0  0  0  0  0  0  0
  143.7530   74.4990  220.4610 C   0  0  1  0  0  0  0  0  0  0  0  0
  143.6060   75.4800  219.3830 C   0  0  0  0  0  0  0  0  0  0  0  0
  143.9640   75.1270  218.2180 O   0  0  0  0  0  0  0  0  0  0  0  0
  143.0840   76.7600  219.6420 N   0  0  0  0  0  0  0  0  0  0  0  0
  142.8950   77.8030  218.6690 C   0  0  0  0  0  0  0  0  0  0  0  0
  141.9000   78.7950  219.1260 C   0  0  0  0  0  0  0  0  0  0  0  0
  142.1970   80.0880  219.4840 C   0  0  0  0  0  0  0  0  0  0  0  0
  141.2190   80.9900  219.9140 C   0  0  0  0  0  0  0  0  0  0  0  0
  139.9030   80.5450  219.9750 C   0  0  0  0  0  0  0  0  0  0  0  0
  138.6320   81.6490  220.5110 Cl  0  0  0  0  0  0  0  0  0  0  0  0
  139.5990   79.2690  219.6210 C   0  0  0  0  0  0  0  0  0  0  0  0
  137.9170   78.7600  219.7170 Cl  0  0  0  0  0  0  0  0  0  0  0  0
  140.5870   78.3940  219.1990 C   0  0  0  0  0  0  0  0  0  0  0  0
  140.2580   76.7680  222.1740 C   0  0  0  0  0  0  0  0  0  0  0  0
  139.0910   77.3970  222.6090 C   0  0  0  0  0  0  0  0  0  0  0  0
  139.1700   78.7050  223.0880 C   0  0  0  0  0  0  0  0  0  0  0  0
  140.3730   79.3860  223.1400 C   0  0  0  0  0  0  0  0  0  0  0  0
  140.4870   80.6780  223.6070 C   0  0  0  0  0  0  0  0  0  0  0  0
  141.6870   81.3400  223.6520 C   0  0  0  0  0  0  0  0  0  0  0  0
  142.8240   80.6720  223.2070 C   0  0  0  0  0  0  0  0  0  0  0  0
  142.7200   79.3590  222.7310 C   0  0  0  0  0  0  0  0  0  0  0  0
  141.4920   78.7120  222.6960 C   0  0  0  0  0  0  0  0  0  0  0  0
  141.3980   77.4570  222.2400 N   0  0  0  0  0  0  0  0  0  0  0  0
  141.1350   75.7520  219.7950 H   0  0  0  0  0  0  0  0  0  0  0  0
  139.6136   73.2436  220.3612 H   0  0  0  0  0  0  0  0  0  0  0  0
  140.5068   73.6371  218.8633 H   0  0  0  0  0  0  0  0  0  0  0  0
  143.5926   71.5363  219.0567 H   0  0  0  0  0  0  0  0  0  0  0  0
  143.9748   72.9851  218.1716 H   0  0  0  0  0  0  0  0  0  0  0  0
  145.3096   71.8232  220.6778 H   0  0  0  0  0  0  0  0  0  0  0  0
  146.1108   72.5821  219.3149 H   0  0  0  0  0  0  0  0  0  0  0  0
  145.3112   73.8312  221.7565 H   0  0  0  0  0  0  0  0  0  0  0  0
  145.8821   74.6804  220.2998 H   0  0  0  0  0  0  0  0  0  0  0  0
  143.4170   75.0312  221.3631 H   0  0  0  0  0  0  0  0  0  0  0  0
  142.8120   76.9650  220.6430 H   0  0  0  0  0  0  0  0  0  0  0  0
  143.8553   78.3119  218.4992 H   0  0  0  0  0  0  0  0  0  0  0  0
  142.5250   77.3455  217.7396 H   0  0  0  0  0  0  0  0  0  0  0  0
  143.2425   80.4258  219.4303 H   0  0  0  0  0  0  0  0  0  0  0  0
  141.4826   82.0202  220.1954 H   0  0  0  0  0  0  0  0  0  0  0  0
  140.3173   77.3651  218.9187 H   0  0  0  0  0  0  0  0  0  0  0  0
  138.1256   76.8709  222.5749 H   0  0  0  0  0  0  0  0  0  0  0  0
  138.2538   79.2068  223.4326 H   0  0  0  0  0  0  0  0  0  0  0  0
  139.5822   81.1969  223.9563 H   0  0  0  0  0  0  0  0  0  0  0  0
  141.7493   82.3713  224.0296 H   0  0  0  0  0  0  0  0  0  0  0  0
  143.8024   81.1743  223.2291 H   0  0  0  0  0  0  0  0  0  0  0  0
  143.6213   78.8344  222.3809 H   0  0  0  0  0  0  0  0  0  0  0  0
  1  2  2  0
  2  3  1  0
  3  4  1  0
  4  5  1  0
  5  6  2  0
  5  7  1  0
  7  8  1  0
  8  9  1  0
  9 10  1  0
 10 11  1  0
 11 12  1  0
 12 13  2  0
 12 14  1  0
 14 15  1  0
 15 16  1  0
 16 17  2  0
 17 18  1  0
 18 19  2  0
 19 20  1  0
 19 21  1  0
 21 22  1  0
 21 23  2  0
  2 24  1  0
 24 25  2  0
 25 26  1  0
 26 27  2  0
 27 28  1  0
 28 29  2  0
 29 30  1  0
 30 31  2  0
 31 32  1  0
 32 33  2  0
 11  7  1  0
 23 16  1  0
 33 24  1  0
 32 27  1  0
  3 34  1  0
  4 35  1  0
  4 36  1  0
  8 37  1  0
  8 38  1  0
  9 39  1  0
  9 40  1  0
 10 41  1  0
 10 42  1  0
 11 43  1  1
 14 44  1  0
 15 45  1  0
 15 46  1  0
 17 47  1  0
 18 48  1  0
 23 49  1  0
 25 50  1  0
 26 51  1  0
 28 52  1  0
 29 53  1  0
 30 54  1  0
 31 55  1  0
M  END
>  <smiles>  (20) 
O=C(NCC(=O)N1CCC[C@H]1C(=O)NCc1ccc(Cl)c(Cl)c1)c1ccc2ccccc2n1

>  <score_type>  (20) 
oracle

>  <origin>  (20) 
autodockgpu

>  <m_score__min__energy>  (20) 
-9.1199999999999992

>  <m_primary>  (20) 
energy

>  <meeko>  (20) 
{"free_energy": -7.35, "intermolecular_energy": -9.44, "internal_energy": -4.62, "cluster_size": 14, "cluster_id": 6, "rank_in_cluster": 7}

>  <energy>  (20) 
-5.99

>  <cluster_rmsd>  (20) 
1.6

>  <rmsd>  (20) 
269.18

>  <cluster>  (20) 
6

$$$$
