
     RDKit          3D

 46 49  0  0  0  0  0  0  0  0999 V2000
  140.9420   71.2200  222.1340 O   0  0  0  0  0  0  0  0  0  0  0  0
  139.7410   72.0940  221.8040 S   0  0  0  0  0  0  0  0  0  0  0  0
  139.1780   71.5650  220.5280 O   0  0  0  0  0  0  0  0  0  0  0  0
  138.5890   71.8370  223.1340 C   0  0  0  0  0  0  0  0  0  0  0  0
  139.3480   71.1630  224.2180 C   0  0  0  0  0  0  0  0  0  0  0  0
  139.0730   69.8560  224.6170 C   0  0  0  0  0  0  0  0  0  0  0  0
  139.8370   69.3010  225.6450 C   0  0  0  0  0  0  0  0  0  0  0  0
  140.8440   70.0560  226.2390 C   0  0  0  0  0  0  0  0  0  0  0  0
  141.0700   71.3340  225.8080 C   0  0  0  0  0  0  0  0  0  0  0  0
  140.3430   71.8700  224.8250 N   0  0  0  0  0  0  0  0  0  0  0  0
  140.2740   73.6990  221.7470 N   0  0  0  0  0  0  0  0  0  0  0  0
  139.3890   74.7040  222.1460 C   0  0  0  0  0  0  0  0  0  0  0  0
  139.4570   76.0210  221.4570 C   0  0  0  0  0  0  0  0  0  0  0  0
  140.7150   76.2830  220.6980 C   0  0  0  0  0  0  0  0  0  0  0  0
  141.1640   77.6890  220.7560 C   0  0  0  0  0  0  0  0  0  0  0  0
  141.3590   78.5270  219.6740 C   0  0  0  0  0  0  0  0  0  0  0  0
  141.7640   79.7070  220.1660 N   0  0  0  0  0  0  0  0  0  0  0  0
  141.8360   79.6650  221.4960 C   0  0  0  0  0  0  0  0  0  0  0  0
  142.1960   80.6110  222.4530 C   0  0  0  0  0  0  0  0  0  0  0  0
  142.1830   80.3000  223.7800 C   0  0  0  0  0  0  0  0  0  0  0  0
  141.8080   79.0270  224.2140 C   0  0  0  0  0  0  0  0  0  0  0  0
  141.4430   78.0610  223.2730 C   0  0  0  0  0  0  0  0  0  0  0  0
  141.4620   78.3960  221.9200 C   0  0  0  0  0  0  0  0  0  0  0  0
  141.8330   75.3880  221.1830 C   0  0  0  0  0  0  0  0  0  0  0  0
  141.3200   73.9810  220.8470 C   0  0  0  0  0  0  0  0  0  0  0  0
  138.1944   72.8009  223.4878 H   0  0  0  0  0  0  0  0  0  0  0  0
  137.7316   71.2295  222.8087 H   0  0  0  0  0  0  0  0  0  0  0  0
  138.2732   69.2759  224.1334 H   0  0  0  0  0  0  0  0  0  0  0  0
  139.6442   68.2724  225.9838 H   0  0  0  0  0  0  0  0  0  0  0  0
  141.4533   69.6281  227.0488 H   0  0  0  0  0  0  0  0  0  0  0  0
  141.8647   71.9307  226.2795 H   0  0  0  0  0  0  0  0  0  0  0  0
  138.3699   74.3150  222.0043 H   0  0  0  0  0  0  0  0  0  0  0  0
  139.6814   74.9258  223.1830 H   0  0  0  0  0  0  0  0  0  0  0  0
  138.6162   76.0778  220.7500 H   0  0  0  0  0  0  0  0  0  0  0  0
  139.4191   76.7807  222.2516 H   0  0  0  0  0  0  0  0  0  0  0  0
  140.4728   76.0602  219.6484 H   0  0  0  0  0  0  0  0  0  0  0  0
  141.2105   78.2746  218.6137 H   0  0  0  0  0  0  0  0  0  0  0  0
  141.9790   80.5200  219.5210 H   0  0  0  0  0  0  0  0  0  0  0  0
  142.4942   81.6206  222.1341 H   0  0  0  0  0  0  0  0  0  0  0  0
  142.4718   81.0621  224.5188 H   0  0  0  0  0  0  0  0  0  0  0  0
  141.8000   78.7868  225.2874 H   0  0  0  0  0  0  0  0  0  0  0  0
  141.1453   77.0521  223.5946 H   0  0  0  0  0  0  0  0  0  0  0  0
  142.7713   75.6041  220.6511 H   0  0  0  0  0  0  0  0  0  0  0  0
  142.0631   75.5219  222.2503 H   0  0  0  0  0  0  0  0  0  0  0  0
  140.9467   73.9519  219.8127 H   0  0  0  0  0  0  0  0  0  0  0  0
  142.1258   73.2375  220.9358 H   0  0  0  0  0  0  0  0  0  0  0  0
  1  2  2  0
  2  3  2  0
  2  4  1  0
  4  5  1  0
  5  6  2  0
  6  7  1  0
  7  8  2  0
  8  9  1  0
  9 10  2  0
  2 11  1  0
 11 12  1  0
 12 13  1  0
 13 14  1  0
 14 15  1  0
 15 16  2  0
 16 17  1  0
 17 18  1  0
 18 19  2  0
 19 20  1  0
 20 21  2  0
 21 22  1  0
 22 23  2  0
 14 24  1  0
 24 25  1  0
 10  5  1  0
 25 11  1  0
 23 15  1  0
 23 18  1  0
  4 26  1  0
  4 27  1  0
  6 28  1  0
  7 29  1  0
  8 30  1  0
  9 31  1  0
 12 32  1  0
 12 33  1  0
 13 34  1  0
 13 35  1  0
 14 36  1  0
 16 37  1  0
 17 38  1  0
 19 39  1  0
 20 40  1  0
 21 41  1  0
 22 42  1  0
 24 43  1  0
 24 44  1  0
 25 45  1  0
 25 46  1  0
M  END
>  <smiles>  (1) 
O=S(=O)(Cc1ccccn1)N1CCC(c2c[nH]c3ccccc23)CC1

>  <score_type>  (1) 
oracle

>  <origin>  (1) 
autodockgpu

>  <m_score__min__energy>  (1) 
-7.3300000000000001

>  <m_primary>  (1) 
energy

>  <meeko>  (1) 
{"free_energy": -7.02, "intermolecular_energy": -8.21, "internal_energy": -0.98, "cluster_size": 6, "cluster_id": 2, "rank_in_cluster": 6}

>  <energy>  (1) 
-7.33

>  <cluster_rmsd>  (1) 
0.0

>  <rmsd>  (1) 
270.46

>  <cluster>  (1) 
1

$$$$

     RDKit          3D

 46 49  0  0  0  0  0  0  0  0999 V2000
  138.0470   68.1640  223.0780 O   0  0  0  0  0  0  0  0  0  0  0  0
  137.4750   69.4810  223.5800 S   0  0  0  0  0  0  0  0  0  0  0  0
  136.1230   69.6120  222.9640 O   0  0  0  0  0  0  0  0  0  0  0  0
  137.3300   69.2930  225.3420 C   0  0  0  0  0  0  0  0  0  0  0  0
  138.6910   68.9720  225.8400 C   0  0  0  0  0  0  0  0  0  0  0  0
  139.5180   69.9350  226.4140 C   0  0  0  0  0  0  0  0  0  0  0  0
  140.7850   69.5460  226.8550 C   0  0  0  0  0  0  0  0  0  0  0  0
  141.1850   68.2210  226.7140 C   0  0  0  0  0  0  0  0  0  0  0  0
  140.3320   67.3180  226.1420 C   0  0  0  0  0  0  0  0  0  0  0  0
  139.1200   67.6840  225.7180 N   0  0  0  0  0  0  0  0  0  0  0  0
  138.5730   70.7050  223.1760 N   0  0  0  0  0  0  0  0  0  0  0  0
  138.1200   71.7660  222.3880 C   0  0  0  0  0  0  0  0  0  0  0  0
  139.0680   72.3860  221.4230 C   0  0  0  0  0  0  0  0  0  0  0  0
  140.5110   72.0990  221.6700 C   0  0  0  0  0  0  0  0  0  0  0  0
  141.4050   73.2370  221.3680 C   0  0  0  0  0  0  0  0  0  0  0  0
  141.0990   74.5760  221.5220 C   0  0  0  0  0  0  0  0  0  0  0  0
  142.1810   75.2670  221.1370 N   0  0  0  0  0  0  0  0  0  0  0  0
  143.1540   74.4440  220.7480 C   0  0  0  0  0  0  0  0  0  0  0  0
  144.4440   74.6640  220.2700 C   0  0  0  0  0  0  0  0  0  0  0  0
  145.2530   73.6190  219.9370 C   0  0  0  0  0  0  0  0  0  0  0  0
  144.8090   72.3000  220.0650 C   0  0  0  0  0  0  0  0  0  0  0  0
  143.5190   72.0540  220.5410 C   0  0  0  0  0  0  0  0  0  0  0  0
  142.7050   73.1350  220.8780 C   0  0  0  0  0  0  0  0  0  0  0  0
  140.7370   71.6590  223.0980 C   0  0  0  0  0  0  0  0  0  0  0  0
  139.9360   70.3520  223.1880 C   0  0  0  0  0  0  0  0  0  0  0  0
  136.9687   70.2274  225.7963 H   0  0  0  0  0  0  0  0  0  0  0  0
  136.6120   68.5012  225.6019 H   0  0  0  0  0  0  0  0  0  0  0  0
  139.1812   70.9770  226.5175 H   0  0  0  0  0  0  0  0  0  0  0  0
  141.4625   70.2829  227.3110 H   0  0  0  0  0  0  0  0  0  0  0  0
  142.1794   67.9023  227.0598 H   0  0  0  0  0  0  0  0  0  0  0  0
  140.6502   66.2711  226.0292 H   0  0  0  0  0  0  0  0  0  0  0  0
  137.2609   71.3970  221.8085 H   0  0  0  0  0  0  0  0  0  0  0  0
  137.9068   72.5676  223.1105 H   0  0  0  0  0  0  0  0  0  0  0  0
  138.8164   72.0194  220.4169 H   0  0  0  0  0  0  0  0  0  0  0  0
  138.9509   73.4736  221.5391 H   0  0  0  0  0  0  0  0  0  0  0  0
  140.7687   71.2870  220.9741 H   0  0  0  0  0  0  0  0  0  0  0  0
  140.1503   74.9940  221.8897 H   0  0  0  0  0  0  0  0  0  0  0  0
  142.1890   76.3260  221.1650 H   0  0  0  0  0  0  0  0  0  0  0  0
  144.8142   75.6940  220.1600 H   0  0  0  0  0  0  0  0  0  0  0  0
  146.2684   73.8162  219.5627 H   0  0  0  0  0  0  0  0  0  0  0  0
  145.4694   71.4632  219.7934 H   0  0  0  0  0  0  0  0  0  0  0  0
  143.1507   71.0231  220.6484 H   0  0  0  0  0  0  0  0  0  0  0  0
  141.8051   71.4823  223.2928 H   0  0  0  0  0  0  0  0  0  0  0  0
  140.4243   72.4107  223.8377 H   0  0  0  0  0  0  0  0  0  0  0  0
  140.1671   69.7069  222.3275 H   0  0  0  0  0  0  0  0  0  0  0  0
  140.1905   69.7969  224.1029 H   0  0  0  0  0  0  0  0  0  0  0  0
  1  2  2  0
  2  3  2  0
  2  4  1  0
  4  5  1  0
  5  6  2  0
  6  7  1  0
  7  8  2  0
  8  9  1  0
  9 10  2  0
  2 11  1  0
 11 12  1  0
 12 13  1  0
 13 14  1  0
 14 15  1  0
 15 16  2  0
 16 17  1  0
 17 18  1  0
 18 19  2  0
 19 20  1  0
 20 21  2  0
 21 22  1  0
 22 23  2  0
 14 24  1  0
 24 25  1  0
 10  5  1  0
 25 11  1  0
 23 15  1  0
 23 18  1  0
  4 26  1  0
  4 27  1  0
  6 28  1  0
  7 29  1  0
  8 30  1  0
  9 31  1  0
 12 32  1  0
 12 33  1  0
 13 34  1  0
 13 35  1  0
 14 36  1  0
 16 37  1  0
 17 38  1  0
 19 39  1  0
 20 40  1  0
 21 41  1  0
 22 42  1  0
 24 43  1  0
 24 44  1  0
 25 45  1  0
 25 46  1  0
M  END
>  <smiles>  (2) 
O=S(=O)(Cc1ccccn1)N1CCC(c2c[nH]c3ccccc23)CC1

>  <score_type>  (2) 
oracle

>  <origin>  (2) 
autodockgpu

>  <m_score__min__energy>  (2) 
-7.3300000000000001

>  <m_primary>  (2) 
energy

>  <meeko>  (2) 
{"free_energy": -6.98, "intermolecular_energy": -8.18, "internal_energy": -1.09, "cluster_size": 10, "cluster_id": 1, "rank_in_cluster": 4}

>  <energy>  (2) 
-7.31

>  <cluster_rmsd>  (2) 
0.13

>  <rmsd>  (2) 
270.48

>  <cluster>  (2) 
1

$$$$

     RDKit          3D

 46 49  0  0  0  0  0  0  0  0999 V2000
  137.9110   68.2010  222.9300 O   0  0  0  0  0  0  0  0  0  0  0  0
  137.4170   69.5140  223.5190 S   0  0  0  0  0  0  0  0  0  0  0  0
  136.0490   69.7310  222.9650 O   0  0  0  0  0  0  0  0  0  0  0  0
  137.3310   69.2430  225.2740 C   0  0  0  0  0  0  0  0  0  0  0  0
  138.7180   68.9550  225.7190 C   0  0  0  0  0  0  0  0  0  0  0  0
  139.5880   69.9600  226.1380 C   0  0  0  0  0  0  0  0  0  0  0  0
  140.8750   69.5990  226.5390 C   0  0  0  0  0  0  0  0  0  0  0  0
  141.2540   68.2600  226.5140 C   0  0  0  0  0  0  0  0  0  0  0  0
  140.3600   67.3160  226.0920 C   0  0  0  0  0  0  0  0  0  0  0  0
  139.1270   67.6550  225.7070 N   0  0  0  0  0  0  0  0  0  0  0  0
  138.5500   70.7100  223.1310 N   0  0  0  0  0  0  0  0  0  0  0  0
  138.0880   71.9010  222.5680 C   0  0  0  0  0  0  0  0  0  0  0  0
  138.9480   72.5930  221.5700 C   0  0  0  0  0  0  0  0  0  0  0  0
  140.3820   72.1800  221.5660 C   0  0  0  0  0  0  0  0  0  0  0  0
  141.3210   73.2900  221.2970 C   0  0  0  0  0  0  0  0  0  0  0  0
  141.0570   74.6370  221.4560 C   0  0  0  0  0  0  0  0  0  0  0  0
  142.1710   75.2950  221.1030 N   0  0  0  0  0  0  0  0  0  0  0  0
  143.1240   74.4420  220.7290 C   0  0  0  0  0  0  0  0  0  0  0  0
  144.4320   74.6220  220.2840 C   0  0  0  0  0  0  0  0  0  0  0  0
  145.2120   73.5530  219.9590 C   0  0  0  0  0  0  0  0  0  0  0  0
  144.7210   72.2500  220.0640 C   0  0  0  0  0  0  0  0  0  0  0  0
  143.4130   72.0430  220.5070 C   0  0  0  0  0  0  0  0  0  0  0  0
  142.6290   73.1480  220.8360 C   0  0  0  0  0  0  0  0  0  0  0  0
  140.7580   71.5230  222.8740 C   0  0  0  0  0  0  0  0  0  0  0  0
  139.8690   70.2720  222.9000 C   0  0  0  0  0  0  0  0  0  0  0  0
  136.9473   70.1413  225.7799 H   0  0  0  0  0  0  0  0  0  0  0  0
  136.6520   68.4126  225.5178 H   0  0  0  0  0  0  0  0  0  0  0  0
  139.2679   71.0123  226.1523 H   0  0  0  0  0  0  0  0  0  0  0  0
  141.5863   70.3687  226.8731 H   0  0  0  0  0  0  0  0  0  0  0  0
  142.2647   67.9638  226.8313 H   0  0  0  0  0  0  0  0  0  0  0  0
  140.6615   66.2584  226.0691 H   0  0  0  0  0  0  0  0  0  0  0  0
  137.1314   71.6771  222.0732 H   0  0  0  0  0  0  0  0  0  0  0  0
  138.0416   72.6004  223.4158 H   0  0  0  0  0  0  0  0  0  0  0  0
  138.5347   72.3946  220.5701 H   0  0  0  0  0  0  0  0  0  0  0  0
  138.9395   73.6572  221.8482 H   0  0  0  0  0  0  0  0  0  0  0  0
  140.4752   71.4636  220.7365 H   0  0  0  0  0  0  0  0  0  0  0  0
  140.1143   75.0837  221.8050 H   0  0  0  0  0  0  0  0  0  0  0  0
  142.2140   76.3520  221.1420 H   0  0  0  0  0  0  0  0  0  0  0  0
  144.8400   75.6396  220.1939 H   0  0  0  0  0  0  0  0  0  0  0  0
  146.2417   73.7186  219.6094 H   0  0  0  0  0  0  0  0  0  0  0  0
  145.3592   71.3938  219.8000 H   0  0  0  0  0  0  0  0  0  0  0  0
  143.0076   71.0242  220.5950 H   0  0  0  0  0  0  0  0  0  0  0  0
  141.8238   71.2510  222.8878 H   0  0  0  0  0  0  0  0  0  0  0  0
  140.6111   72.1774  223.7458 H   0  0  0  0  0  0  0  0  0  0  0  0
  139.9291   69.7455  221.9360 H   0  0  0  0  0  0  0  0  0  0  0  0
  140.1948   69.5746  223.6858 H   0  0  0  0  0  0  0  0  0  0  0  0
  1  2  2  0
  2  3  2  0
  2  4  1  0
  4  5  1  0
  5  6  2  0
  6  7  1  0
  7  8  2  0
  8  9  1  0
  9 10  2  0
  2 11  1  0
 11 12  1  0
 12 13  1  0
 13 14  1  0
 14 15  1  0
 15 16  2  0
 16 17  1  0
 17 18  1  0
 18 19  2  0
 19 20  1  0
 20 21  2  0
 21 22  1  0
 22 23  2  0
 14 24  1  0
 24 25  1  0
 10  5  1  0
 25 11  1  0
 23 15  1  0
 23 18  1  0
  4 26  1  0
  4 27  1  0
  6 28  1  0
  7 29  1  0
  8 30  1  0
  9 31  1  0
 12 32  1  0
 12 33  1  0
 13 34  1  0
 13 35  1  0
 14 36  1  0
 16 37  1  0
 17 38  1  0
 19 39  1  0
 20 40  1  0
 21 41  1  0
 22 42  1  0
 24 43  1  0
 24 44  1  0
 25 45  1  0
 25 46  1  0
M  END
>  <smiles>  (3) 
O=S(=O)(Cc1ccccn1)N1CCC(c2c[nH]c3ccccc23)CC1

>  <score_type>  (3) 
oracle

>  <origin>  (3) 
autodockgpu

>  <m_score__min__energy>  (3) 
-7.3300000000000001

>  <m_primary>  (3) 
energy

>  <meeko>  (3) 
{"free_energy": -6.93, "intermolecular_energy": -8.12, "internal_energy": -1.14, "cluster_size": 10, "cluster_id": 1, "rank_in_cluster": 9}

>  <energy>  (3) 
-7.02

>  <cluster_rmsd>  (3) 
0.67

>  <rmsd>  (3) 
270.46

>  <cluster>  (3) 
1

$$$$

     RDKit          3D

 46 49  0  0  0  0  0  0  0  0999 V2000
  138.5340   71.9820  220.7940 O   0  0  0  0  0  0  0  0  0  0  0  0
  139.0510   72.3810  222.1680 S   0  0  0  0  0  0  0  0  0  0  0  0
  137.8960   72.2480  223.1030 O   0  0  0  0  0  0  0  0  0  0  0  0
  140.3040   71.1850  222.5680 C   0  0  0  0  0  0  0  0  0  0  0  0
  140.1760   70.9190  224.0230 C   0  0  0  0  0  0  0  0  0  0  0  0
  139.4590   69.8330  224.5200 C   0  0  0  0  0  0  0  0  0  0  0  0
  139.3900   69.6590  225.9040 C   0  0  0  0  0  0  0  0  0  0  0  0
  140.0320   70.5640  226.7440 C   0  0  0  0  0  0  0  0  0  0  0  0
  140.7210   71.6140  226.2020 C   0  0  0  0  0  0  0  0  0  0  0  0
  140.7900   71.7850  224.8790 N   0  0  0  0  0  0  0  0  0  0  0  0
  139.7000   73.9390  222.0400 N   0  0  0  0  0  0  0  0  0  0  0  0
  138.8330   75.0290  222.1570 C   0  0  0  0  0  0  0  0  0  0  0  0
  139.1180   76.2490  221.3550 C   0  0  0  0  0  0  0  0  0  0  0  0
  140.5070   76.3540  220.8210 C   0  0  0  0  0  0  0  0  0  0  0  0
  141.0390   77.7330  220.8090 C   0  0  0  0  0  0  0  0  0  0  0  0
  141.2800   78.5040  219.6890 C   0  0  0  0  0  0  0  0  0  0  0  0
  141.7560   79.6800  220.1220 N   0  0  0  0  0  0  0  0  0  0  0  0
  141.8300   79.6980  221.4530 C   0  0  0  0  0  0  0  0  0  0  0  0
  142.2490   80.6660  222.3630 C   0  0  0  0  0  0  0  0  0  0  0  0
  142.2220   80.4210  223.7030 C   0  0  0  0  0  0  0  0  0  0  0  0
  141.7730   79.1950  224.1990 C   0  0  0  0  0  0  0  0  0  0  0  0
  141.3480   78.2080  223.3060 C   0  0  0  0  0  0  0  0  0  0  0  0
  141.3820   78.4760  221.9380 C   0  0  0  0  0  0  0  0  0  0  0  0
  141.4520   75.4670  221.5980 C   0  0  0  0  0  0  0  0  0  0  0  0
  140.9080   74.0580  221.3250 C   0  0  0  0  0  0  0  0  0  0  0  0
  140.1436   70.2593  221.9959 H   0  0  0  0  0  0  0  0  0  0  0  0
  141.3078   71.5578  222.3163 H   0  0  0  0  0  0  0  0  0  0  0  0
  138.9590   69.1291  223.8385 H   0  0  0  0  0  0  0  0  0  0  0  0
  138.8314   68.8114  226.3277 H   0  0  0  0  0  0  0  0  0  0  0  0
  139.9857   70.4359  227.8355 H   0  0  0  0  0  0  0  0  0  0  0  0
  141.2268   72.3297  226.8668 H   0  0  0  0  0  0  0  0  0  0  0  0
  137.8301   74.6789  221.8713 H   0  0  0  0  0  0  0  0  0  0  0  0
  138.9510   75.3575  223.2001 H   0  0  0  0  0  0  0  0  0  0  0  0
  138.4243   76.2637  220.5014 H   0  0  0  0  0  0  0  0  0  0  0  0
  138.9923   77.0991  222.0416 H   0  0  0  0  0  0  0  0  0  0  0  0
  140.4414   76.0203  219.7749 H   0  0  0  0  0  0  0  0  0  0  0  0
  141.1133   78.2096  218.6423 H   0  0  0  0  0  0  0  0  0  0  0  0
  142.0160   80.4470  219.4390 H   0  0  0  0  0  0  0  0  0  0  0  0
  142.6058   81.6395  221.9954 H   0  0  0  0  0  0  0  0  0  0  0  0
  142.5584   81.1993  224.4037 H   0  0  0  0  0  0  0  0  0  0  0  0
  141.7541   79.0082  225.2829 H   0  0  0  0  0  0  0  0  0  0  0  0
  140.9923   77.2351  223.6762 H   0  0  0  0  0  0  0  0  0  0  0  0
  142.4835   75.5705  221.2301 H   0  0  0  0  0  0  0  0  0  0  0  0
  141.4959   75.7142  222.6690 H   0  0  0  0  0  0  0  0  0  0  0  0
  140.7248   73.9255  220.2485 H   0  0  0  0  0  0  0  0  0  0  0  0
  141.6293   73.2899  221.6409 H   0  0  0  0  0  0  0  0  0  0  0  0
  1  2  2  0
  2  3  2  0
  2  4  1  0
  4  5  1  0
  5  6  2  0
  6  7  1  0
  7  8  2  0
  8  9  1  0
  9 10  2  0
  2 11  1  0
 11 12  1  0
 12 13  1  0
 13 14  1  0
 14 15  1  0
 15 16  2  0
 16 17  1  0
 17 18  1  0
 18 19  2  0
 19 20  1  0
 20 21  2  0
 21 22  1  0
 22 23  2  0
 14 24  1  0
 24 25  1  0
 10  5  1  0
 25 11  1  0
 23 15  1  0
 23 18  1  0
  4 26  1  0
  4 27  1  0
  6 28  1  0
  7 29  1  0
  8 30  1  0
  9 31  1  0
 12 32  1  0
 12 33  1  0
 13 34  1  0
 13 35  1  0
 14 36  1  0
 16 37  1  0
 17 38  1  0
 19 39  1  0
 20 40  1  0
 21 41  1  0
 22 42  1  0
 24 43  1  0
 24 44  1  0
 25 45  1  0
 25 46  1  0
M  END
>  <smiles>  (4) 
O=S(=O)(Cc1ccccn1)N1CCC(c2c[nH]c3ccccc23)CC1

>  <score_type>  (4) 
oracle

>  <origin>  (4) 
autodockgpu

>  <m_score__min__energy>  (4) 
-7.3300000000000001

>  <m_primary>  (4) 
energy

>  <meeko>  (4) 
{"free_energy": -7.15, "intermolecular_energy": -8.34, "internal_energy": -0.99, "cluster_size": 6, "cluster_id": 2, "rank_in_cluster": 3}

>  <energy>  (4) 
-6.98

>  <cluster_rmsd>  (4) 
0.71

>  <rmsd>  (4) 
270.49

>  <cluster>  (4) 
1

$$$$

     RDKit          3D

 46 49  0  0  0  0  0  0  0  0999 V2000
  138.7490   68.2900  222.9800 O   0  0  0  0  0  0  0  0  0  0  0  0
  137.7950   69.4180  223.3430 S   0  0  0  0  0  0  0  0  0  0  0  0
  136.5540   69.1880  222.5480 O   0  0  0  0  0  0  0  0  0  0  0  0
  137.4580   69.2120  225.0770 C   0  0  0  0  0  0  0  0  0  0  0  0
  138.7610   68.9130  225.7220 C   0  0  0  0  0  0  0  0  0  0  0  0
  139.5550   69.9070  226.2910 C   0  0  0  0  0  0  0  0  0  0  0  0
  140.7670   69.5350  226.8760 C   0  0  0  0  0  0  0  0  0  0  0  0
  141.1490   68.1970  226.8770 C   0  0  0  0  0  0  0  0  0  0  0  0
  140.3320   67.2640  226.3020 C   0  0  0  0  0  0  0  0  0  0  0  0
  139.1710   67.6130  225.7420 N   0  0  0  0  0  0  0  0  0  0  0  0
  138.5880   70.8810  223.0350 N   0  0  0  0  0  0  0  0  0  0  0  0
  137.8680   71.9060  222.4160 C   0  0  0  0  0  0  0  0  0  0  0  0
  138.5890   72.8150  221.4840 C   0  0  0  0  0  0  0  0  0  0  0  0
  140.0760   72.8100  221.6090 C   0  0  0  0  0  0  0  0  0  0  0  0
  140.6960   74.1360  221.4030 C   0  0  0  0  0  0  0  0  0  0  0  0
  141.9140   74.3820  220.8000 C   0  0  0  0  0  0  0  0  0  0  0  0
  142.0960   75.7090  220.8190 N   0  0  0  0  0  0  0  0  0  0  0  0
  141.0620   76.3190  221.4000 C   0  0  0  0  0  0  0  0  0  0  0  0
  140.7790   77.6590  221.6570 C   0  0  0  0  0  0  0  0  0  0  0  0
  139.6210   78.0190  222.2800 C   0  0  0  0  0  0  0  0  0  0  0  0
  138.6900   77.0560  222.6760 C   0  0  0  0  0  0  0  0  0  0  0  0
  138.9530   75.7060  222.4280 C   0  0  0  0  0  0  0  0  0  0  0  0
  140.1410   75.3550  221.7900 C   0  0  0  0  0  0  0  0  0  0  0  0
  140.5030   72.2690  222.9540 C   0  0  0  0  0  0  0  0  0  0  0  0
  139.9910   70.8220  222.9230 C   0  0  0  0  0  0  0  0  0  0  0  0
  137.0295   70.1353  225.4940 H   0  0  0  0  0  0  0  0  0  0  0  0
  136.7316   68.4042  225.2499 H   0  0  0  0  0  0  0  0  0  0  0  0
  139.2346   70.9592  226.2795 H   0  0  0  0  0  0  0  0  0  0  0  0
  141.4165   70.2957  227.3337 H   0  0  0  0  0  0  0  0  0  0  0  0
  142.1008   67.8925  227.3368 H   0  0  0  0  0  0  0  0  0  0  0  0
  140.6363   66.2069  226.3006 H   0  0  0  0  0  0  0  0  0  0  0  0
  137.0550   71.4334  221.8453 H   0  0  0  0  0  0  0  0  0  0  0  0
  137.5598   72.5590  223.2459 H   0  0  0  0  0  0  0  0  0  0  0  0
  138.3337   72.5192  220.4557 H   0  0  0  0  0  0  0  0  0  0  0  0
  138.2660   73.8340  221.7433 H   0  0  0  0  0  0  0  0  0  0  0  0
  140.4325   72.1534  220.8017 H   0  0  0  0  0  0  0  0  0  0  0  0
  142.6027   73.6319  220.3839 H   0  0  0  0  0  0  0  0  0  0  0  0
  142.9690   76.1450  220.4080 H   0  0  0  0  0  0  0  0  0  0  0  0
  141.4977   78.4347  221.3540 H   0  0  0  0  0  0  0  0  0  0  0  0
  139.4171   79.0825  222.4735 H   0  0  0  0  0  0  0  0  0  0  0  0
  137.7588   77.3572  223.1782 H   0  0  0  0  0  0  0  0  0  0  0  0
  138.2329   74.9320  222.7319 H   0  0  0  0  0  0  0  0  0  0  0  0
  141.5972   72.2989  223.0628 H   0  0  0  0  0  0  0  0  0  0  0  0
  140.1080   72.8504  223.8001 H   0  0  0  0  0  0  0  0  0  0  0  0
  140.2748   70.3407  221.9755 H   0  0  0  0  0  0  0  0  0  0  0  0
  140.4267   70.2329  223.7435 H   0  0  0  0  0  0  0  0  0  0  0  0
  1  2  2  0
  2  3  2  0
  2  4  1  0
  4  5  1  0
  5  6  2  0
  6  7  1  0
  7  8  2  0
  8  9  1  0
  9 10  2  0
  2 11  1  0
 11 12  1  0
 12 13  1  0
 13 14  1  0
 14 15  1  0
 15 16  2  0
 16 17  1  0
 17 18  1  0
 18 19  2  0
 19 20  1  0
 20 21  2  0
 21 22  1  0
 22 23  2  0
 14 24  1  0
 24 25  1  0
 10  5  1  0
 25 11  1  0
 23 15  1  0
 23 18  1  0
  4 26  1  0
  4 27  1  0
  6 28  1  0
  7 29  1  0
  8 30  1  0
  9 31  1  0
 12 32  1  0
 12 33  1  0
 13 34  1  0
 13 35  1  0
 14 36  1  0
 16 37  1  0
 17 38  1  0
 19 39  1  0
 20 40  1  0
 21 41  1  0
 22 42  1  0
 24 43  1  0
 24 44  1  0
 25 45  1  0
 25 46  1  0
M  END
>  <smiles>  (5) 
O=S(=O)(Cc1ccccn1)N1CCC(c2c[nH]c3ccccc23)CC1

>  <score_type>  (5) 
oracle

>  <origin>  (5) 
autodockgpu

>  <m_score__min__energy>  (5) 
-7.3300000000000001

>  <m_primary>  (5) 
energy

>  <meeko>  (5) 
{"free_energy": -6.78, "intermolecular_energy": -7.97, "internal_energy": -1.03, "cluster_size": 10, "cluster_id": 1, "rank_in_cluster": 10}

>  <energy>  (5) 
-6.96

>  <cluster_rmsd>  (5) 
1.97

>  <rmsd>  (5) 
270.9

>  <cluster>  (5) 
1

$$$$

     RDKit          3D

 46 49  0  0  0  0  0  0  0  0999 V2000
  138.8170   67.7920  223.8670 O   0  0  0  0  0  0  0  0  0  0  0  0
  138.5570   68.8770  224.9020 S   0  0  0  0  0  0  0  0  0  0  0  0
  137.1360   68.7170  225.3270 O   0  0  0  0  0  0  0  0  0  0  0  0
  139.6470   68.5080  226.2580 C   0  0  0  0  0  0  0  0  0  0  0  0
  140.1030   69.8160  226.7930 C   0  0  0  0  0  0  0  0  0  0  0  0
  139.5910   70.3570  227.9710 C   0  0  0  0  0  0  0  0  0  0  0  0
  140.0760   71.5930  228.4010 C   0  0  0  0  0  0  0  0  0  0  0  0
  141.0490   72.2480  227.6520 C   0  0  0  0  0  0  0  0  0  0  0  0
  141.5150   71.6720  226.5030 C   0  0  0  0  0  0  0  0  0  0  0  0
  141.0550   70.4900  226.0870 N   0  0  0  0  0  0  0  0  0  0  0  0
  138.9340   70.3660  224.1910 N   0  0  0  0  0  0  0  0  0  0  0  0
  137.8870   71.2430  223.9000 C   0  0  0  0  0  0  0  0  0  0  0  0
  138.0030   72.1090  222.6950 C   0  0  0  0  0  0  0  0  0  0  0  0
  139.3820   72.2590  222.1450 C   0  0  0  0  0  0  0  0  0  0  0  0
  139.6670   73.6070  221.6110 C   0  0  0  0  0  0  0  0  0  0  0  0
  138.7820   74.6670  221.5580 C   0  0  0  0  0  0  0  0  0  0  0  0
  139.4400   75.6950  221.0040 N   0  0  0  0  0  0  0  0  0  0  0  0
  140.6910   75.3470  220.7040 C   0  0  0  0  0  0  0  0  0  0  0  0
  141.7520   76.0420  220.1260 C   0  0  0  0  0  0  0  0  0  0  0  0
  142.9560   75.4360  219.9250 C   0  0  0  0  0  0  0  0  0  0  0  0
  143.1580   74.1040  220.2930 C   0  0  0  0  0  0  0  0  0  0  0  0
  142.1090   73.3870  220.8750 C   0  0  0  0  0  0  0  0  0  0  0  0
  140.8840   74.0220  221.0730 C   0  0  0  0  0  0  0  0  0  0  0  0
  140.4190   71.9120  223.1890 C   0  0  0  0  0  0  0  0  0  0  0  0
  140.1430   70.4280  223.4710 C   0  0  0  0  0  0  0  0  0  0  0  0
  139.1106   67.9444  227.0356 H   0  0  0  0  0  0  0  0  0  0  0  0
  140.4971   67.8909  225.9315 H   0  0  0  0  0  0  0  0  0  0  0  0
  138.8225   69.8222  228.5484 H   0  0  0  0  0  0  0  0  0  0  0  0
  139.6915   72.0467  229.3264 H   0  0  0  0  0  0  0  0  0  0  0  0
  141.4401   73.2217  227.9819 H   0  0  0  0  0  0  0  0  0  0  0  0
  142.2826   72.1918  225.9109 H   0  0  0  0  0  0  0  0  0  0  0  0
  136.9783   70.6353  223.7774 H   0  0  0  0  0  0  0  0  0  0  0  0
  137.8850   71.9506  224.7422 H   0  0  0  0  0  0  0  0  0  0  0  0
  137.3678   71.6797  221.9061 H   0  0  0  0  0  0  0  0  0  0  0  0
  137.6927   73.1150  223.0138 H   0  0  0  0  0  0  0  0  0  0  0  0
  139.4368   71.5551  221.3015 H   0  0  0  0  0  0  0  0  0  0  0  0
  137.7379   74.6671  221.9041 H   0  0  0  0  0  0  0  0  0  0  0  0
  138.9640   76.6300  220.8570 H   0  0  0  0  0  0  0  0  0  0  0  0
  141.6159   77.0922  219.8285 H   0  0  0  0  0  0  0  0  0  0  0  0
  143.7795   76.0034  219.4669 H   0  0  0  0  0  0  0  0  0  0  0  0
  144.1335   73.6238  220.1264 H   0  0  0  0  0  0  0  0  0  0  0  0
  142.2480   72.3371  221.1724 H   0  0  0  0  0  0  0  0  0  0  0  0
  141.4370   72.0575  222.7985 H   0  0  0  0  0  0  0  0  0  0  0  0
  140.3566   72.5427  224.0880 H   0  0  0  0  0  0  0  0  0  0  0  0
  140.0487   69.8744  222.5251 H   0  0  0  0  0  0  0  0  0  0  0  0
  140.9661   69.9766  224.0443 H   0  0  0  0  0  0  0  0  0  0  0  0
  1  2  2  0
  2  3  2  0
  2  4  1  0
  4  5  1  0
  5  6  2  0
  6  7  1  0
  7  8  2  0
  8  9  1  0
  9 10  2  0
  2 11  1  0
 11 12  1  0
 12 13  1  0
 13 14  1  0
 14 15  1  0
 15 16  2  0
 16 17  1  0
 17 18  1  0
 18 19  2  0
 19 20  1  0
 20 21  2  0
 21 22  1  0
 22 23  2  0
 14 24  1  0
 24 25  1  0
 10  5  1  0
 25 11  1  0
 23 15  1  0
 23 18  1  0
  4 26  1  0
  4 27  1  0
  6 28  1  0
  7 29  1  0
  8 30  1  0
  9 31  1  0
 12 32  1  0
 12 33  1  0
 13 34  1  0
 13 35  1  0
 14 36  1  0
 16 37  1  0
 17 38  1  0
 19 39  1  0
 20 40  1  0
 21 41  1  0
 22 42  1  0
 24 43  1  0
 24 44  1  0
 25 45  1  0
 25 46  1  0
M  END
>  <smiles>  (6) 
O=S(=O)(Cc1ccccn1)N1CCC(c2c[nH]c3ccccc23)CC1

>  <score_type>  (6) 
oracle

>  <origin>  (6) 
autodockgpu

>  <m_score__min__energy>  (6) 
-7.3300000000000001

>  <m_primary>  (6) 
energy

>  <meeko>  (6) 
{"free_energy": -6.96, "intermolecular_energy": -8.15, "internal_energy": -1.05, "cluster_size": 10, "cluster_id": 1, "rank_in_cluster": 5}

>  <energy>  (6) 
-6.95

>  <cluster_rmsd>  (6) 
0.75

>  <rmsd>  (6) 
270.44

>  <cluster>  (6) 
1

$$$$

     RDKit          3D

 46 49  0  0  0  0  0  0  0  0999 V2000
  138.6060   71.9570  220.8280 O   0  0  0  0  0  0  0  0  0  0  0  0
  139.1180   72.3640  222.2010 S   0  0  0  0  0  0  0  0  0  0  0  0
  137.9560   72.2530  223.1300 O   0  0  0  0  0  0  0  0  0  0  0  0
  140.3550   71.1580  222.6210 C   0  0  0  0  0  0  0  0  0  0  0  0
  140.3030   71.0060  224.0970 C   0  0  0  0  0  0  0  0  0  0  0  0
  139.5360   70.0210  224.7160 C   0  0  0  0  0  0  0  0  0  0  0  0
  139.5450   69.9500  226.1100 C   0  0  0  0  0  0  0  0  0  0  0  0
  140.3120   70.8530  226.8400 C   0  0  0  0  0  0  0  0  0  0  0  0
  141.0450   71.8000  226.1810 C   0  0  0  0  0  0  0  0  0  0  0  0
  141.0400   71.8730  224.8480 N   0  0  0  0  0  0  0  0  0  0  0  0
  139.7850   73.9140  222.0620 N   0  0  0  0  0  0  0  0  0  0  0  0
  138.9630   75.0130  222.3240 C   0  0  0  0  0  0  0  0  0  0  0  0
  139.1820   76.2620  221.5440 C   0  0  0  0  0  0  0  0  0  0  0  0
  140.5030   76.3630  220.8560 C   0  0  0  0  0  0  0  0  0  0  0  0
  141.0620   77.7310  220.8390 C   0  0  0  0  0  0  0  0  0  0  0  0
  141.3140   78.4950  219.7150 C   0  0  0  0  0  0  0  0  0  0  0  0
  141.8150   79.6620  220.1440 N   0  0  0  0  0  0  0  0  0  0  0  0
  141.8940   79.6820  221.4740 C   0  0  0  0  0  0  0  0  0  0  0  0
  142.3360   80.6440  222.3800 C   0  0  0  0  0  0  0  0  0  0  0  0
  142.3090   80.4030  223.7210 C   0  0  0  0  0  0  0  0  0  0  0  0
  141.8380   79.1870  224.2220 C   0  0  0  0  0  0  0  0  0  0  0  0
  141.3890   78.2070  223.3330 C   0  0  0  0  0  0  0  0  0  0  0  0
  141.4240   78.4700  221.9640 C   0  0  0  0  0  0  0  0  0  0  0  0
  141.5100   75.4260  221.4810 C   0  0  0  0  0  0  0  0  0  0  0  0
  140.9040   74.0400  221.2160 C   0  0  0  0  0  0  0  0  0  0  0  0
  140.1335   70.1984  222.1311 H   0  0  0  0  0  0  0  0  0  0  0  0
  141.3535   71.4756  222.2863 H   0  0  0  0  0  0  0  0  0  0  0  0
  138.9376   69.3161  224.1202 H   0  0  0  0  0  0  0  0  0  0  0  0
  138.9491   69.1845  226.6286 H   0  0  0  0  0  0  0  0  0  0  0  0
  140.3283   70.8050  227.9388 H   0  0  0  0  0  0  0  0  0  0  0  0
  141.6495   72.5144  226.7591 H   0  0  0  0  0  0  0  0  0  0  0  0
  137.9259   74.6941  222.1431 H   0  0  0  0  0  0  0  0  0  0  0  0
  139.2080   75.2937  223.3590 H   0  0  0  0  0  0  0  0  0  0  0  0
  138.3947   76.3267  220.7785 H   0  0  0  0  0  0  0  0  0  0  0  0
  139.1566   77.0842  222.2743 H   0  0  0  0  0  0  0  0  0  0  0  0
  140.3096   76.0753  219.8120 H   0  0  0  0  0  0  0  0  0  0  0  0
  141.1374   78.2018  218.6696 H   0  0  0  0  0  0  0  0  0  0  0  0
  142.0890   80.4210  219.4570 H   0  0  0  0  0  0  0  0  0  0  0  0
  142.7110   81.6091  222.0085 H   0  0  0  0  0  0  0  0  0  0  0  0
  142.6629   81.1765  224.4184 H   0  0  0  0  0  0  0  0  0  0  0  0
  141.8207   79.0027  225.3063 H   0  0  0  0  0  0  0  0  0  0  0  0
  141.0138   77.2431  223.7072 H   0  0  0  0  0  0  0  0  0  0  0  0
  142.4942   75.5256  221.0000 H   0  0  0  0  0  0  0  0  0  0  0  0
  141.6835   75.6261  222.5486 H   0  0  0  0  0  0  0  0  0  0  0  0
  140.5939   73.9577  220.1638 H   0  0  0  0  0  0  0  0  0  0  0  0
  141.6382   73.2451  221.4134 H   0  0  0  0  0  0  0  0  0  0  0  0
  1  2  2  0
  2  3  2  0
  2  4  1  0
  4  5  1  0
  5  6  2  0
  6  7  1  0
  7  8  2  0
  8  9  1  0
  9 10  2  0
  2 11  1  0
 11 12  1  0
 12 13  1  0
 13 14  1  0
 14 15  1  0
 15 16  2  0
 16 17  1  0
 17 18  1  0
 18 19  2  0
 19 20  1  0
 20 21  2  0
 21 22  1  0
 22 23  2  0
 14 24  1  0
 24 25  1  0
 10  5  1  0
 25 11  1  0
 23 15  1  0
 23 18  1  0
  4 26  1  0
  4 27  1  0
  6 28  1  0
  7 29  1  0
  8 30  1  0
  9 31  1  0
 12 32  1  0
 12 33  1  0
 13 34  1  0
 13 35  1  0
 14 36  1  0
 16 37  1  0
 17 38  1  0
 19 39  1  0
 20 40  1  0
 21 41  1  0
 22 42  1  0
 24 43  1  0
 24 44  1  0
 25 45  1  0
 25 46  1  0
M  END
>  <smiles>  (7) 
O=S(=O)(Cc1ccccn1)N1CCC(c2c[nH]c3ccccc23)CC1

>  <score_type>  (7) 
oracle

>  <origin>  (7) 
autodockgpu

>  <m_score__min__energy>  (7) 
-7.3300000000000001

>  <m_primary>  (7) 
energy

>  <meeko>  (7) 
{"free_energy": -7.15, "intermolecular_energy": -8.35, "internal_energy": -1.02, "cluster_size": 6, "cluster_id": 2, "rank_in_cluster": 2}

>  <energy>  (7) 
-6.95

>  <cluster_rmsd>  (7) 
0.75

>  <rmsd>  (7) 
270.46

>  <cluster>  (7) 
1

$$$$

     RDKit          3D

 46 49  0  0  0  0  0  0  0  0999 V2000
  138.7740   67.5580  223.3260 O   0  0  0  0  0  0  0  0  0  0  0  0
  138.0630   68.9020  223.3350 S   0  0  0  0  0  0  0  0  0  0  0  0
  136.8150   68.7200  222.5370 O   0  0  0  0  0  0  0  0  0  0  0  0
  137.6600   69.2140  225.0390 C   0  0  0  0  0  0  0  0  0  0  0  0
  138.8470   68.8000  225.8290 C   0  0  0  0  0  0  0  0  0  0  0  0
  139.5910   69.7050  226.5820 C   0  0  0  0  0  0  0  0  0  0  0  0
  140.6930   69.2290  227.2950 C   0  0  0  0  0  0  0  0  0  0  0  0
  141.0180   67.8780  227.2370 C   0  0  0  0  0  0  0  0  0  0  0  0
  140.2530   67.0330  226.4810 C   0  0  0  0  0  0  0  0  0  0  0  0
  139.1980   67.4830  225.7970 N   0  0  0  0  0  0  0  0  0  0  0  0
  139.1420   70.0590  222.7310 N   0  0  0  0  0  0  0  0  0  0  0  0
  140.0260   70.6680  223.6250 C   0  0  0  0  0  0  0  0  0  0  0  0
  140.4020   72.0880  223.3910 C   0  0  0  0  0  0  0  0  0  0  0  0
  140.1310   72.6040  222.0180 C   0  0  0  0  0  0  0  0  0  0  0  0
  141.1540   73.5500  221.5250 C   0  0  0  0  0  0  0  0  0  0  0  0
  141.0360   74.9260  221.4770 C   0  0  0  0  0  0  0  0  0  0  0  0
  142.1830   75.3970  220.9660 N   0  0  0  0  0  0  0  0  0  0  0  0
  143.0200   74.3980  220.6870 C   0  0  0  0  0  0  0  0  0  0  0  0
  144.3060   74.3650  220.1530 C   0  0  0  0  0  0  0  0  0  0  0  0
  144.9530   73.1800  219.9660 C   0  0  0  0  0  0  0  0  0  0  0  0
  144.3450   71.9690  220.3050 C   0  0  0  0  0  0  0  0  0  0  0  0
  143.0550   71.9770  220.8420 C   0  0  0  0  0  0  0  0  0  0  0  0
  142.4080   73.1980  221.0270 C   0  0  0  0  0  0  0  0  0  0  0  0
  139.9950   71.4670  221.0320 C   0  0  0  0  0  0  0  0  0  0  0  0
  138.7600   70.7120  221.5430 C   0  0  0  0  0  0  0  0  0  0  0  0
  137.4543   70.2837  225.1923 H   0  0  0  0  0  0  0  0  0  0  0  0
  136.7613   68.6590  225.3460 H   0  0  0  0  0  0  0  0  0  0  0  0
  139.3169   70.7698  226.6143 H   0  0  0  0  0  0  0  0  0  0  0  0
  141.3007   69.9186  227.8992 H   0  0  0  0  0  0  0  0  0  0  0  0
  141.8838   67.4919  227.7949 H   0  0  0  0  0  0  0  0  0  0  0  0
  140.5111   65.9647  226.4357 H   0  0  0  0  0  0  0  0  0  0  0  0
  139.5679   70.6131  224.6236 H   0  0  0  0  0  0  0  0  0  0  0  0
  140.9672   70.1139  223.4944 H   0  0  0  0  0  0  0  0  0  0  0  0
  139.8405   72.7096  224.1040 H   0  0  0  0  0  0  0  0  0  0  0  0
  141.4928   72.1384  223.5237 H   0  0  0  0  0  0  0  0  0  0  0  0
  139.1839   73.1578  222.0972 H   0  0  0  0  0  0  0  0  0  0  0  0
  140.1677   75.5209  221.7967 H   0  0  0  0  0  0  0  0  0  0  0  0
  142.3320   76.4360  220.8310 H   0  0  0  0  0  0  0  0  0  0  0  0
  144.8052   75.3061  219.8790 H   0  0  0  0  0  0  0  0  0  0  0  0
  145.9681   73.1773  219.5422 H   0  0  0  0  0  0  0  0  0  0  0  0
  144.8765   71.0184  220.1507 H   0  0  0  0  0  0  0  0  0  0  0  0
  142.5576   71.0345  221.1146 H   0  0  0  0  0  0  0  0  0  0  0  0
  139.8328   71.8456  220.0120 H   0  0  0  0  0  0  0  0  0  0  0  0
  140.8941   70.8362  220.9714 H   0  0  0  0  0  0  0  0  0  0  0  0
  137.9419   71.4187  221.7461 H   0  0  0  0  0  0  0  0  0  0  0  0
  138.4025   69.9898  220.7943 H   0  0  0  0  0  0  0  0  0  0  0  0
  1  2  2  0
  2  3  2  0
  2  4  1  0
  4  5  1  0
  5  6  2  0
  6  7  1  0
  7  8  2  0
  8  9  1  0
  9 10  2  0
  2 11  1  0
 11 12  1  0
 12 13  1  0
 13 14  1  0
 14 15  1  0
 15 16  2  0
 16 17  1  0
 17 18  1  0
 18 19  2  0
 19 20  1  0
 20 21  2  0
 21 22  1  0
 22 23  2  0
 14 24  1  0
 24 25  1  0
 10  5  1  0
 25 11  1  0
 23 15  1  0
 23 18  1  0
  4 26  1  0
  4 27  1  0
  6 28  1  0
  7 29  1  0
  8 30  1  0
  9 31  1  0
 12 32  1  0
 12 33  1  0
 13 34  1  0
 13 35  1  0
 14 36  1  0
 16 37  1  0
 17 38  1  0
 19 39  1  0
 20 40  1  0
 21 41  1  0
 22 42  1  0
 24 43  1  0
 24 44  1  0
 25 45  1  0
 25 46  1  0
M  END
>  <smiles>  (8) 
O=S(=O)(Cc1ccccn1)N1CCC(c2c[nH]c3ccccc23)CC1

>  <score_type>  (8) 
oracle

>  <origin>  (8) 
autodockgpu

>  <m_score__min__energy>  (8) 
-7.3300000000000001

>  <m_primary>  (8) 
energy

>  <meeko>  (8) 
{"free_energy": -7.31, "intermolecular_energy": -8.5, "internal_energy": -0.78, "cluster_size": 10, "cluster_id": 1, "rank_in_cluster": 2}

>  <energy>  (8) 
-6.94

>  <cluster_rmsd>  (8) 
0.75

>  <rmsd>  (8) 
270.47

>  <cluster>  (8) 
1

$$$$

     RDKit          3D

 46 49  0  0  0  0  0  0  0  0999 V2000
  137.9980   68.1960  222.9990 O   0  0  0  0  0  0  0  0  0  0  0  0
  137.4700   69.5110  223.5530 S   0  0  0  0  0  0  0  0  0  0  0  0
  136.1050   69.6880  222.9760 O   0  0  0  0  0  0  0  0  0  0  0  0
  137.3650   69.2750  225.3120 C   0  0  0  0  0  0  0  0  0  0  0  0
  138.7440   68.9810  225.7750 C   0  0  0  0  0  0  0  0  0  0  0  0
  139.5890   69.9720  226.2700 C   0  0  0  0  0  0  0  0  0  0  0  0
  140.8720   69.6060  226.6830 C   0  0  0  0  0  0  0  0  0  0  0  0
  141.2700   68.2760  226.5940 C   0  0  0  0  0  0  0  0  0  0  0  0
  140.4000   67.3450  226.1000 C   0  0  0  0  0  0  0  0  0  0  0  0
  139.1720   67.6880  225.7030 N   0  0  0  0  0  0  0  0  0  0  0  0
  138.5840   70.7210  223.1550 N   0  0  0  0  0  0  0  0  0  0  0  0
  138.1120   71.8690  222.5130 C   0  0  0  0  0  0  0  0  0  0  0  0
  138.9960   72.5380  221.5200 C   0  0  0  0  0  0  0  0  0  0  0  0
  140.4400   72.1710  221.5990 C   0  0  0  0  0  0  0  0  0  0  0  0
  141.3570   73.2950  221.3150 C   0  0  0  0  0  0  0  0  0  0  0  0
  141.0670   74.6390  221.4570 C   0  0  0  0  0  0  0  0  0  0  0  0
  142.1670   75.3130  221.0950 N   0  0  0  0  0  0  0  0  0  0  0  0
  143.1380   74.4740  220.7320 C   0  0  0  0  0  0  0  0  0  0  0  0
  144.4420   74.6750  220.2860 C   0  0  0  0  0  0  0  0  0  0  0  0
  145.2430   73.6160  219.9750 C   0  0  0  0  0  0  0  0  0  0  0  0
  144.7770   72.3050  220.0960 C   0  0  0  0  0  0  0  0  0  0  0  0
  143.4730   72.0790  220.5430 C   0  0  0  0  0  0  0  0  0  0  0  0
  142.6670   73.1730  220.8560 C   0  0  0  0  0  0  0  0  0  0  0  0
  140.7760   71.5900  222.9530 C   0  0  0  0  0  0  0  0  0  0  0  0
  139.9230   70.3140  223.0030 C   0  0  0  0  0  0  0  0  0  0  0  0
  136.9866   70.1870  225.7969 H   0  0  0  0  0  0  0  0  0  0  0  0
  136.6748   68.4568  225.5655 H   0  0  0  0  0  0  0  0  0  0  0  0
  139.2537   71.0177  226.3340 H   0  0  0  0  0  0  0  0  0  0  0  0
  141.5639   70.3652  227.0765 H   0  0  0  0  0  0  0  0  0  0  0  0
  142.2773   67.9760  226.9187 H   0  0  0  0  0  0  0  0  0  0  0  0
  140.7170   66.2941  226.0281 H   0  0  0  0  0  0  0  0  0  0  0  0
  137.1858   71.5910  221.9888 H   0  0  0  0  0  0  0  0  0  0  0  0
  138.0060   72.6071  223.3217 H   0  0  0  0  0  0  0  0  0  0  0  0
  138.6343   72.2780  220.5142 H   0  0  0  0  0  0  0  0  0  0  0  0
  138.9440   73.6137  221.7442 H   0  0  0  0  0  0  0  0  0  0  0  0
  140.5914   71.4183  220.8113 H   0  0  0  0  0  0  0  0  0  0  0  0
  140.1161   75.0719  221.8010 H   0  0  0  0  0  0  0  0  0  0  0  0
  142.1900   76.3720  221.1210 H   0  0  0  0  0  0  0  0  0  0  0  0
  144.8301   75.6992  220.1835 H   0  0  0  0  0  0  0  0  0  0  0  0
  146.2698   73.7968  219.6242 H   0  0  0  0  0  0  0  0  0  0  0  0
  145.4310   71.4579  219.8415 H   0  0  0  0  0  0  0  0  0  0  0  0
  143.0879   71.0538  220.6465 H   0  0  0  0  0  0  0  0  0  0  0  0
  141.8475   71.3523  223.0263 H   0  0  0  0  0  0  0  0  0  0  0  0
  140.5713   72.2810  223.7840 H   0  0  0  0  0  0  0  0  0  0  0  0
  140.0411   69.7436  222.0699 H   0  0  0  0  0  0  0  0  0  0  0  0
  140.2337   69.6659  223.8357 H   0  0  0  0  0  0  0  0  0  0  0  0
  1  2  2  0
  2  3  2  0
  2  4  1  0
  4  5  1  0
  5  6  2  0
  6  7  1  0
  7  8  2  0
  8  9  1  0
  9 10  2  0
  2 11  1  0
 11 12  1  0
 12 13  1  0
 13 14  1  0
 14 15  1  0
 15 16  2  0
 16 17  1  0
 17 18  1  0
 18 19  2  0
 19 20  1  0
 20 21  2  0
 21 22  1  0
 22 23  2  0
 14 24  1  0
 24 25  1  0
 10  5  1  0
 25 11  1  0
 23 15  1  0
 23 18  1  0
  4 26  1  0
  4 27  1  0
  6 28  1  0
  7 29  1  0
  8 30  1  0
  9 31  1  0
 12 32  1  0
 12 33  1  0
 13 34  1  0
 13 35  1  0
 14 36  1  0
 16 37  1  0
 17 38  1  0
 19 39  1  0
 20 40  1  0
 21 41  1  0
 22 42  1  0
 24 43  1  0
 24 44  1  0
 25 45  1  0
 25 46  1  0
M  END
>  <smiles>  (9) 
O=S(=O)(Cc1ccccn1)N1CCC(c2c[nH]c3ccccc23)CC1

>  <score_type>  (9) 
oracle

>  <origin>  (9) 
autodockgpu

>  <m_score__min__energy>  (9) 
-7.3300000000000001

>  <m_primary>  (9) 
energy

>  <meeko>  (9) 
{"free_energy": -6.95, "intermolecular_energy": -8.14, "internal_energy": -1.13, "cluster_size": 10, "cluster_id": 1, "rank_in_cluster": 7}

>  <energy>  (9) 
-6.93

>  <cluster_rmsd>  (9) 
0.78

>  <rmsd>  (9) 
270.42

>  <cluster>  (9) 
1

$$$$

     RDKit          3D

 46 49  0  0  0  0  0  0  0  0999 V2000
  138.5600   71.9730  220.8260 O   0  0  0  0  0  0  0  0  0  0  0  0
  139.0860   72.3770  222.1950 S   0  0  0  0  0  0  0  0  0  0  0  0
  137.9370   72.2510  223.1380 O   0  0  0  0  0  0  0  0  0  0  0  0
  140.3380   71.1780  222.5940 C   0  0  0  0  0  0  0  0  0  0  0  0
  140.2910   71.0010  224.0670 C   0  0  0  0  0  0  0  0  0  0  0  0
  139.5580   69.9810  224.6700 C   0  0  0  0  0  0  0  0  0  0  0  0
  139.5690   69.8890  226.0630 C   0  0  0  0  0  0  0  0  0  0  0  0
  140.3030   70.8060  226.8080 C   0  0  0  0  0  0  0  0  0  0  0  0
  141.0040   71.7890  226.1640 C   0  0  0  0  0  0  0  0  0  0  0  0
  140.9970   71.8820  224.8310 N   0  0  0  0  0  0  0  0  0  0  0  0
  139.7390   73.9320  222.0570 N   0  0  0  0  0  0  0  0  0  0  0  0
  138.8870   75.0250  222.2330 C   0  0  0  0  0  0  0  0  0  0  0  0
  139.1390   76.2550  221.4350 C   0  0  0  0  0  0  0  0  0  0  0  0
  140.5000   76.3590  220.8320 C   0  0  0  0  0  0  0  0  0  0  0  0
  141.0390   77.7350  220.8130 C   0  0  0  0  0  0  0  0  0  0  0  0
  141.2700   78.5050  219.6890 C   0  0  0  0  0  0  0  0  0  0  0  0
  141.7590   79.6780  220.1160 N   0  0  0  0  0  0  0  0  0  0  0  0
  141.8510   79.6950  221.4460 C   0  0  0  0  0  0  0  0  0  0  0  0
  142.2890   80.6610  222.3490 C   0  0  0  0  0  0  0  0  0  0  0  0
  142.2790   80.4160  223.6900 C   0  0  0  0  0  0  0  0  0  0  0  0
  141.8300   79.1930  224.1920 C   0  0  0  0  0  0  0  0  0  0  0  0
  141.3860   78.2090  223.3050 C   0  0  0  0  0  0  0  0  0  0  0  0
  141.4030   78.4760  221.9370 C   0  0  0  0  0  0  0  0  0  0  0  0
  141.4770   75.4550  221.5480 C   0  0  0  0  0  0  0  0  0  0  0  0
  140.9090   74.0540  221.2830 C   0  0  0  0  0  0  0  0  0  0  0  0
  140.1265   70.2240  222.0888 H   0  0  0  0  0  0  0  0  0  0  0  0
  141.3322   71.5128  222.2631 H   0  0  0  0  0  0  0  0  0  0  0  0
  138.9843   69.2652  224.0629 H   0  0  0  0  0  0  0  0  0  0  0  0
  139.0000   69.0951  226.5690 H   0  0  0  0  0  0  0  0  0  0  0  0
  140.3198   70.7415  227.9060 H   0  0  0  0  0  0  0  0  0  0  0  0
  141.5831   72.5150  226.7536 H   0  0  0  0  0  0  0  0  0  0  0  0
  137.8686   74.6852  221.9936 H   0  0  0  0  0  0  0  0  0  0  0  0
  139.0602   75.3377  223.2733 H   0  0  0  0  0  0  0  0  0  0  0  0
  138.4027   76.2865  220.6184 H   0  0  0  0  0  0  0  0  0  0  0  0
  139.0544   77.0958  222.1392 H   0  0  0  0  0  0  0  0  0  0  0  0
  140.3802   76.0407  219.7859 H   0  0  0  0  0  0  0  0  0  0  0  0
  141.0877   78.2118  218.6446 H   0  0  0  0  0  0  0  0  0  0  0  0
  142.0150   80.4420  219.4290 H   0  0  0  0  0  0  0  0  0  0  0  0
  142.6468   81.6320  221.9760 H   0  0  0  0  0  0  0  0  0  0  0  0
  142.6294   81.1924  224.3860 H   0  0  0  0  0  0  0  0  0  0  0  0
  141.8258   79.0058  225.2760 H   0  0  0  0  0  0  0  0  0  0  0  0
  141.0286   77.2388  223.6804 H   0  0  0  0  0  0  0  0  0  0  0  0
  142.4893   75.5568  221.1298 H   0  0  0  0  0  0  0  0  0  0  0  0
  141.5774   75.6867  222.6186 H   0  0  0  0  0  0  0  0  0  0  0  0
  140.6697   73.9389  220.2155 H   0  0  0  0  0  0  0  0  0  0  0  0
  141.6399   73.2766  221.5503 H   0  0  0  0  0  0  0  0  0  0  0  0
  1  2  2  0
  2  3  2  0
  2  4  1  0
  4  5  1  0
  5  6  2  0
  6  7  1  0
  7  8  2  0
  8  9  1  0
  9 10  2  0
  2 11  1  0
 11 12  1  0
 12 13  1  0
 13 14  1  0
 14 15  1  0
 15 16  2  0
 16 17  1  0
 17 18  1  0
 18 19  2  0
 19 20  1  0
 20 21  2  0
 21 22  1  0
 22 23  2  0
 14 24  1  0
 24 25  1  0
 10  5  1  0
 25 11  1  0
 23 15  1  0
 23 18  1  0
  4 26  1  0
  4 27  1  0
  6 28  1  0
  7 29  1  0
  8 30  1  0
  9 31  1  0
 12 32  1  0
 12 33  1  0
 13 34  1  0
 13 35  1  0
 14 36  1  0
 16 37  1  0
 17 38  1  0
 19 39  1  0
 20 40  1  0
 21 41  1  0
 22 42  1  0
 24 43  1  0
 24 44  1  0
 25 45  1  0
 25 46  1  0
M  END
>  <smiles>  (10) 
O=S(=O)(Cc1ccccn1)N1CCC(c2c[nH]c3ccccc23)CC1

>  <score_type>  (10) 
oracle

>  <origin>  (10) 
autodockgpu

>  <m_score__min__energy>  (10) 
-7.3300000000000001

>  <m_primary>  (10) 
energy

>  <meeko>  (10) 
{"free_energy": -7.14, "intermolecular_energy": -8.33, "internal_energy": -1.02, "cluster_size": 6, "cluster_id": 2, "rank_in_cluster": 5}

>  <energy>  (10) 
-6.78

>  <cluster_rmsd>  (10) 
1.43

>  <rmsd>  (10) 
270.49

>  <cluster>  (10) 
1

$$$$

     RDKit          3D

 46 49  0  0  0  0  0  0  0  0999 V2000
  138.1200   68.1040  223.0710 O   0  0  0  0  0  0  0  0  0  0  0  0
  137.5090   69.4120  223.5530 S   0  0  0  0  0  0  0  0  0  0  0  0
  136.1590   69.4980  222.9250 O   0  0  0  0  0  0  0  0  0  0  0  0
  137.3540   69.2400  225.3160 C   0  0  0  0  0  0  0  0  0  0  0  0
  138.7100   68.9120  225.8230 C   0  0  0  0  0  0  0  0  0  0  0  0
  139.5220   69.8600  226.4430 C   0  0  0  0  0  0  0  0  0  0  0  0
  140.7840   69.4640  226.8900 C   0  0  0  0  0  0  0  0  0  0  0  0
  141.1970   68.1480  226.7080 C   0  0  0  0  0  0  0  0  0  0  0  0
  140.3600   67.2590  226.0920 C   0  0  0  0  0  0  0  0  0  0  0  0
  139.1510   67.6320  225.6620 N   0  0  0  0  0  0  0  0  0  0  0  0
  138.5770   70.6600  223.1430 N   0  0  0  0  0  0  0  0  0  0  0  0
  138.1370   71.6400  222.2500 C   0  0  0  0  0  0  0  0  0  0  0  0
  139.1260   72.2410  221.3150 C   0  0  0  0  0  0  0  0  0  0  0  0
  140.5580   72.0460  221.6860 C   0  0  0  0  0  0  0  0  0  0  0  0
  141.4180   73.2050  221.3700 C   0  0  0  0  0  0  0  0  0  0  0  0
  141.0880   74.5360  221.5400 C   0  0  0  0  0  0  0  0  0  0  0  0
  142.1440   75.2530  221.1320 N   0  0  0  0  0  0  0  0  0  0  0  0
  143.1250   74.4530  220.7120 C   0  0  0  0  0  0  0  0  0  0  0  0
  144.3970   74.7050  220.2040 C   0  0  0  0  0  0  0  0  0  0  0  0
  145.2190   73.6790  219.8430 C   0  0  0  0  0  0  0  0  0  0  0  0
  144.8080   72.3510  219.9730 C   0  0  0  0  0  0  0  0  0  0  0  0
  143.5360   72.0740  220.4810 C   0  0  0  0  0  0  0  0  0  0  0  0
  142.7080   73.1350  220.8450 C   0  0  0  0  0  0  0  0  0  0  0  0
  140.6940   71.7160  223.1550 C   0  0  0  0  0  0  0  0  0  0  0  0
  139.9500   70.3790  223.2790 C   0  0  0  0  0  0  0  0  0  0  0  0
  136.9983   70.1811  225.7608 H   0  0  0  0  0  0  0  0  0  0  0  0
  136.6282   68.4564  225.5791 H   0  0  0  0  0  0  0  0  0  0  0  0
  139.1767   70.8958  226.5770 H   0  0  0  0  0  0  0  0  0  0  0  0
  141.4483   70.1887  227.3835 H   0  0  0  0  0  0  0  0  0  0  0  0
  142.1890   67.8251  227.0568 H   0  0  0  0  0  0  0  0  0  0  0  0
  140.6877   66.2189  225.9480 H   0  0  0  0  0  0  0  0  0  0  0  0
  137.3429   71.1885  221.6372 H   0  0  0  0  0  0  0  0  0  0  0  0
  137.8323   72.4768  222.8957 H   0  0  0  0  0  0  0  0  0  0  0  0
  138.9689   71.7947  220.3220 H   0  0  0  0  0  0  0  0  0  0  0  0
  138.9503   73.3265  221.3446 H   0  0  0  0  0  0  0  0  0  0  0  0
  140.9058   71.2034  221.0703 H   0  0  0  0  0  0  0  0  0  0  0  0
  140.1403   74.9312  221.9345 H   0  0  0  0  0  0  0  0  0  0  0  0
  142.1300   76.3120  221.1670 H   0  0  0  0  0  0  0  0  0  0  0  0
  144.7423   75.7435  220.0928 H   0  0  0  0  0  0  0  0  0  0  0  0
  146.2198   73.9005  219.4438 H   0  0  0  0  0  0  0  0  0  0  0  0
  145.4790   71.5307  219.6784 H   0  0  0  0  0  0  0  0  0  0  0  0
  143.1932   71.0347  220.5920 H   0  0  0  0  0  0  0  0  0  0  0  0
  141.7510   71.6081  223.4397 H   0  0  0  0  0  0  0  0  0  0  0  0
  140.2911   72.4990  223.8142 H   0  0  0  0  0  0  0  0  0  0  0  0
  140.2754   69.6902  222.4855 H   0  0  0  0  0  0  0  0  0  0  0  0
  140.1596   69.9004  224.2470 H   0  0  0  0  0  0  0  0  0  0  0  0
  1  2  2  0
  2  3  2  0
  2  4  1  0
  4  5  1  0
  5  6  2  0
  6  7  1  0
  7  8  2  0
  8  9  1  0
  9 10  2  0
  2 11  1  0
 11 12  1  0
 12 13  1  0
 13 14  1  0
 14 15  1  0
 15 16  2  0
 16 17  1  0
 17 18  1  0
 18 19  2  0
 19 20  1  0
 20 21  2  0
 21 22  1  0
 22 23  2  0
 14 24  1  0
 24 25  1  0
 10  5  1  0
 25 11  1  0
 23 15  1  0
 23 18  1  0
  4 26  1  0
  4 27  1  0
  6 28  1  0
  7 29  1  0
  8 30  1  0
  9 31  1  0
 12 32  1  0
 12 33  1  0
 13 34  1  0
 13 35  1  0
 14 36  1  0
 16 37  1  0
 17 38  1  0
 19 39  1  0
 20 40  1  0
 21 41  1  0
 22 42  1  0
 24 43  1  0
 24 44  1  0
 25 45  1  0
 25 46  1  0
M  END
>  <smiles>  (11) 
O=S(=O)(Cc1ccccn1)N1CCC(c2c[nH]c3ccccc23)CC1

>  <score_type>  (11) 
oracle

>  <origin>  (11) 
autodockgpu

>  <m_score__min__energy>  (11) 
-7.3300000000000001

>  <m_primary>  (11) 
energy

>  <meeko>  (11) 
{"free_energy": -7.02, "intermolecular_energy": -8.21, "internal_energy": -1.04, "cluster_size": 10, "cluster_id": 1, "rank_in_cluster": 3}

>  <energy>  (11) 
-7.15

>  <cluster_rmsd>  (11) 
0.0

>  <rmsd>  (11) 
271.31

>  <cluster>  (11) 
2

$$$$

     RDKit          3D

 46 49  0  0  0  0  0  0  0  0999 V2000
  138.5910   71.9600  220.8470 O   0  0  0  0  0  0  0  0  0  0  0  0
  139.1110   72.3690  222.2180 S   0  0  0  0  0  0  0  0  0  0  0  0
  137.9550   72.2520  223.1540 O   0  0  0  0  0  0  0  0  0  0  0  0
  140.3560   71.1690  222.6300 C   0  0  0  0  0  0  0  0  0  0  0  0
  140.3130   71.0140  224.1060 C   0  0  0  0  0  0  0  0  0  0  0  0
  139.5570   70.0220  224.7270 C   0  0  0  0  0  0  0  0  0  0  0  0
  139.5730   69.9500  226.1210 C   0  0  0  0  0  0  0  0  0  0  0  0
  140.3370   70.8580  226.8490 C   0  0  0  0  0  0  0  0  0  0  0  0
  141.0590   71.8120  226.1870 C   0  0  0  0  0  0  0  0  0  0  0  0
  141.0470   71.8860  224.8530 N   0  0  0  0  0  0  0  0  0  0  0  0
  139.7690   73.9220  222.0750 N   0  0  0  0  0  0  0  0  0  0  0  0
  138.9330   75.0180  222.2990 C   0  0  0  0  0  0  0  0  0  0  0  0
  139.1630   76.2570  221.5080 C   0  0  0  0  0  0  0  0  0  0  0  0
  140.5010   76.3600  220.8550 C   0  0  0  0  0  0  0  0  0  0  0  0
  141.0500   77.7320  220.8340 C   0  0  0  0  0  0  0  0  0  0  0  0
  141.2870   78.4980  219.7080 C   0  0  0  0  0  0  0  0  0  0  0  0
  141.7830   79.6680  220.1330 N   0  0  0  0  0  0  0  0  0  0  0  0
  141.8740   79.6880  221.4630 C   0  0  0  0  0  0  0  0  0  0  0  0
  142.3170   80.6530  222.3650 C   0  0  0  0  0  0  0  0  0  0  0  0
  142.3040   80.4110  223.7060 C   0  0  0  0  0  0  0  0  0  0  0  0
  141.8460   79.1910  224.2100 C   0  0  0  0  0  0  0  0  0  0  0  0
  141.3970   78.2080  223.3250 C   0  0  0  0  0  0  0  0  0  0  0  0
  141.4170   78.4720  221.9560 C   0  0  0  0  0  0  0  0  0  0  0  0
  141.4980   75.4390  221.5200 C   0  0  0  0  0  0  0  0  0  0  0  0
  140.9100   74.0450  221.2580 C   0  0  0  0  0  0  0  0  0  0  0  0
  140.1368   70.2090  222.1397 H   0  0  0  0  0  0  0  0  0  0  0  0
  141.3511   71.4926  222.2908 H   0  0  0  0  0  0  0  0  0  0  0  0
  138.9619   69.3127  224.1331 H   0  0  0  0  0  0  0  0  0  0  0  0
  138.9850   69.1798  226.6416 H   0  0  0  0  0  0  0  0  0  0  0  0
  140.3596   70.8084  227.9476 H   0  0  0  0  0  0  0  0  0  0  0  0
  141.6602   72.5311  226.7627 H   0  0  0  0  0  0  0  0  0  0  0  0
  137.9034   74.6886  222.0953 H   0  0  0  0  0  0  0  0  0  0  0  0
  139.1490   75.3153  223.3358 H   0  0  0  0  0  0  0  0  0  0  0  0
  138.3964   76.3042  220.7205 H   0  0  0  0  0  0  0  0  0  0  0  0
  139.1110   77.0890  222.2257 H   0  0  0  0  0  0  0  0  0  0  0  0
  140.3381   76.0574  219.8100 H   0  0  0  0  0  0  0  0  0  0  0  0
  141.1037   78.2037  218.6640 H   0  0  0  0  0  0  0  0  0  0  0  0
  142.0450   80.4300  219.4450 H   0  0  0  0  0  0  0  0  0  0  0  0
  142.6813   81.6210  221.9905 H   0  0  0  0  0  0  0  0  0  0  0  0
  142.6588   81.1864  224.4009 H   0  0  0  0  0  0  0  0  0  0  0  0
  141.8391   79.0062  225.2944 H   0  0  0  0  0  0  0  0  0  0  0  0
  141.0333   77.2408  223.7021 H   0  0  0  0  0  0  0  0  0  0  0  0
  142.4941   75.5398  221.0644 H   0  0  0  0  0  0  0  0  0  0  0  0
  141.6409   75.6549  222.5891 H   0  0  0  0  0  0  0  0  0  0  0  0
  140.6295   73.9457  220.1990 H   0  0  0  0  0  0  0  0  0  0  0  0
  141.6444   73.2586  221.4864 H   0  0  0  0  0  0  0  0  0  0  0  0
  1  2  2  0
  2  3  2  0
  2  4  1  0
  4  5  1  0
  5  6  2  0
  6  7  1  0
  7  8  2  0
  8  9  1  0
  9 10  2  0
  2 11  1  0
 11 12  1  0
 12 13  1  0
 13 14  1  0
 14 15  1  0
 15 16  2  0
 16 17  1  0
 17 18  1  0
 18 19  2  0
 19 20  1  0
 20 21  2  0
 21 22  1  0
 22 23  2  0
 14 24  1  0
 24 25  1  0
 10  5  1  0
 25 11  1  0
 23 15  1  0
 23 18  1  0
  4 26  1  0
  4 27  1  0
  6 28  1  0
  7 29  1  0
  8 30  1  0
  9 31  1  0
 12 32  1  0
 12 33  1  0
 13 34  1  0
 13 35  1  0
 14 36  1  0
 16 37  1  0
 17 38  1  0
 19 39  1  0
 20 40  1  0
 21 41  1  0
 22 42  1  0
 24 43  1  0
 24 44  1  0
 25 45  1  0
 25 46  1  0
M  END
>  <smiles>  (12) 
O=S(=O)(Cc1ccccn1)N1CCC(c2c[nH]c3ccccc23)CC1

>  <score_type>  (12) 
oracle

>  <origin>  (12) 
autodockgpu

>  <m_score__min__energy>  (12) 
-7.3300000000000001

>  <m_primary>  (12) 
energy

>  <meeko>  (12) 
{"free_energy": -7.14, "intermolecular_energy": -8.34, "internal_energy": -1.02, "cluster_size": 6, "cluster_id": 2, "rank_in_cluster": 4}

>  <energy>  (12) 
-7.15

>  <cluster_rmsd>  (12) 
0.04

>  <rmsd>  (12) 
271.32

>  <cluster>  (12) 
2

$$$$

     RDKit          3D

 46 49  0  0  0  0  0  0  0  0999 V2000
  136.8010   72.4710  220.2970 O   0  0  0  0  0  0  0  0  0  0  0  0
  138.0050   73.1700  220.9090 S   0  0  0  0  0  0  0  0  0  0  0  0
  139.0450   73.2240  219.8410 O   0  0  0  0  0  0  0  0  0  0  0  0
  137.4480   74.8120  221.3040 C   0  0  0  0  0  0  0  0  0  0  0  0
  138.6570   75.5760  221.7040 C   0  0  0  0  0  0  0  0  0  0  0  0
  138.5890   76.8970  222.1430 C   0  0  0  0  0  0  0  0  0  0  0  0
  139.7760   77.5400  222.4980 C   0  0  0  0  0  0  0  0  0  0  0  0
  140.9840   76.8550  222.4070 C   0  0  0  0  0  0  0  0  0  0  0  0
  140.9920   75.5600  221.9690 C   0  0  0  0  0  0  0  0  0  0  0  0
  139.8590   74.9390  221.6270 N   0  0  0  0  0  0  0  0  0  0  0  0
  138.4440   72.3130  222.3010 N   0  0  0  0  0  0  0  0  0  0  0  0
  139.8030   72.1150  222.5550 C   0  0  0  0  0  0  0  0  0  0  0  0
  140.2230   70.8500  223.2160 C   0  0  0  0  0  0  0  0  0  0  0  0
  139.1360   70.1000  223.9110 C   0  0  0  0  0  0  0  0  0  0  0  0
  139.5720   69.4400  225.1590 C   0  0  0  0  0  0  0  0  0  0  0  0
  139.4260   68.1010  225.4680 C   0  0  0  0  0  0  0  0  0  0  0  0
  139.9530   67.9230  226.6870 N   0  0  0  0  0  0  0  0  0  0  0  0
  140.4250   69.0730  227.1700 C   0  0  0  0  0  0  0  0  0  0  0  0
  141.0530   69.4080  228.3670 C   0  0  0  0  0  0  0  0  0  0  0  0
  141.4440   70.6900  228.6140 C   0  0  0  0  0  0  0  0  0  0  0  0
  141.2270   71.7000  227.6740 C   0  0  0  0  0  0  0  0  0  0  0  0
  140.5990   71.3880  226.4650 C   0  0  0  0  0  0  0  0  0  0  0  0
  140.2050   70.0710  226.2290 C   0  0  0  0  0  0  0  0  0  0  0  0
  137.9650   71.0050  224.2150 C   0  0  0  0  0  0  0  0  0  0  0  0
  137.4810   71.4250  222.8190 C   0  0  0  0  0  0  0  0  0  0  0  0
  136.9772   75.2765  220.4250 H   0  0  0  0  0  0  0  0  0  0  0  0
  136.6989   74.7977  222.1094 H   0  0  0  0  0  0  0  0  0  0  0  0
  137.6235   77.4201  222.2082 H   0  0  0  0  0  0  0  0  0  0  0  0
  139.7567   78.5827  222.8479 H   0  0  0  0  0  0  0  0  0  0  0  0
  141.9251   77.3518  222.6854 H   0  0  0  0  0  0  0  0  0  0  0  0
  141.9475   75.0198  221.8968 H   0  0  0  0  0  0  0  0  0  0  0  0
  140.3251   72.1654  221.5881 H   0  0  0  0  0  0  0  0  0  0  0  0
  140.0584   72.8983  223.2838 H   0  0  0  0  0  0  0  0  0  0  0  0
  140.6518   70.1911  222.4466 H   0  0  0  0  0  0  0  0  0  0  0  0
  140.9396   71.1401  223.9985 H   0  0  0  0  0  0  0  0  0  0  0  0
  138.8356   69.3079  223.2093 H   0  0  0  0  0  0  0  0  0  0  0  0
  138.9652   67.3289  224.8344 H   0  0  0  0  0  0  0  0  0  0  0  0
  139.9580   66.9680  227.1440 H   0  0  0  0  0  0  0  0  0  0  0  0
  141.2355   68.6289  229.1218 H   0  0  0  0  0  0  0  0  0  0  0  0
  141.9373   70.9326  229.5668 H   0  0  0  0  0  0  0  0  0  0  0  0
  141.5474   72.7313  227.8832 H   0  0  0  0  0  0  0  0  0  0  0  0
  140.4183   72.1688  225.7115 H   0  0  0  0  0  0  0  0  0  0  0  0
  137.1778   70.4633  224.7599 H   0  0  0  0  0  0  0  0  0  0  0  0
  138.2316   71.8582  224.8561 H   0  0  0  0  0  0  0  0  0  0  0  0
  137.3918   70.5425  222.1684 H   0  0  0  0  0  0  0  0  0  0  0  0
  136.4926   71.9047  222.8732 H   0  0  0  0  0  0  0  0  0  0  0  0
  1  2  2  0
  2  3  2  0
  2  4  1  0
  4  5  1  0
  5  6  2  0
  6  7  1  0
  7  8  2  0
  8  9  1  0
  9 10  2  0
  2 11  1  0
 11 12  1  0
 12 13  1  0
 13 14  1  0
 14 15  1  0
 15 16  2  0
 16 17  1  0
 17 18  1  0
 18 19  2  0
 19 20  1  0
 20 21  2  0
 21 22  1  0
 22 23  2  0
 14 24  1  0
 24 25  1  0
 10  5  1  0
 25 11  1  0
 23 15  1  0
 23 18  1  0
  4 26  1  0
  4 27  1  0
  6 28  1  0
  7 29  1  0
  8 30  1  0
  9 31  1  0
 12 32  1  0
 12 33  1  0
 13 34  1  0
 13 35  1  0
 14 36  1  0
 16 37  1  0
 17 38  1  0
 19 39  1  0
 20 40  1  0
 21 41  1  0
 22 42  1  0
 24 43  1  0
 24 44  1  0
 25 45  1  0
 25 46  1  0
M  END
>  <smiles>  (13) 
O=S(=O)(Cc1ccccn1)N1CCC(c2c[nH]c3ccccc23)CC1

>  <score_type>  (13) 
oracle

>  <origin>  (13) 
autodockgpu

>  <m_score__min__energy>  (13) 
-7.3300000000000001

>  <m_primary>  (13) 
energy

>  <meeko>  (13) 
{"free_energy": -7.15, "intermolecular_energy": -8.35, "internal_energy": -0.94, "cluster_size": 2, "cluster_id": 3, "rank_in_cluster": 1}

>  <energy>  (13) 
-7.15

>  <cluster_rmsd>  (13) 
0.16

>  <rmsd>  (13) 
271.23

>  <cluster>  (13) 
2

$$$$

     RDKit          3D

 46 49  0  0  0  0  0  0  0  0999 V2000
  138.7580   67.4300  223.3110 O   0  0  0  0  0  0  0  0  0  0  0  0
  138.0220   68.7610  223.3200 S   0  0  0  0  0  0  0  0  0  0  0  0
  136.7880   68.5620  222.5050 O   0  0  0  0  0  0  0  0  0  0  0  0
  137.5920   69.0530  225.0200 C   0  0  0  0  0  0  0  0  0  0  0  0
  138.7970   68.7130  225.8180 C   0  0  0  0  0  0  0  0  0  0  0  0
  139.4690   69.6600  226.5900 C   0  0  0  0  0  0  0  0  0  0  0  0
  140.5950   69.2530  227.3080 C   0  0  0  0  0  0  0  0  0  0  0  0
  141.0130   67.9280  227.2390 C   0  0  0  0  0  0  0  0  0  0  0  0
  140.3170   67.0410  226.4660 C   0  0  0  0  0  0  0  0  0  0  0  0
  139.2390   67.4240  225.7760 N   0  0  0  0  0  0  0  0  0  0  0  0
  139.0870   69.9410  222.7390 N   0  0  0  0  0  0  0  0  0  0  0  0
  139.9730   70.5350  223.6410 C   0  0  0  0  0  0  0  0  0  0  0  0
  140.3360   71.9640  223.4410 C   0  0  0  0  0  0  0  0  0  0  0  0
  140.0520   72.5120  222.0820 C   0  0  0  0  0  0  0  0  0  0  0  0
  141.0630   73.4780  221.6070 C   0  0  0  0  0  0  0  0  0  0  0  0
  140.9340   74.8540  221.5950 C   0  0  0  0  0  0  0  0  0  0  0  0
  142.0730   75.3470  221.0880 N   0  0  0  0  0  0  0  0  0  0  0  0
  142.9160   74.3620  220.7770 C   0  0  0  0  0  0  0  0  0  0  0  0
  144.1990   74.3530  220.2340 C   0  0  0  0  0  0  0  0  0  0  0  0
  144.8540   73.1780  220.0120 C   0  0  0  0  0  0  0  0  0  0  0  0
  144.2570   71.9550  220.3250 C   0  0  0  0  0  0  0  0  0  0  0  0
  142.9720   71.9390  220.8710 C   0  0  0  0  0  0  0  0  0  0  0  0
  142.3160   73.1490  221.0910 C   0  0  0  0  0  0  0  0  0  0  0  0
  139.9180   71.3990  221.0690 C   0  0  0  0  0  0  0  0  0  0  0  0
  138.6920   70.6210  221.5700 C   0  0  0  0  0  0  0  0  0  0  0  0
  137.3219   70.1089  225.1688 H   0  0  0  0  0  0  0  0  0  0  0  0
  136.7264   68.4460  225.3238 H   0  0  0  0  0  0  0  0  0  0  0  0
  139.1204   70.7024  226.6323 H   0  0  0  0  0  0  0  0  0  0  0  0
  141.1486   69.9761  227.9249 H   0  0  0  0  0  0  0  0  0  0  0  0
  141.8975   67.5963  227.8026 H   0  0  0  0  0  0  0  0  0  0  0  0
  140.6502   65.9941  226.4112 H   0  0  0  0  0  0  0  0  0  0  0  0
  139.5234   70.4509  224.6414 H   0  0  0  0  0  0  0  0  0  0  0  0
  140.9177   69.9927  223.4881 H   0  0  0  0  0  0  0  0  0  0  0  0
  139.7738   72.5627  224.1727 H   0  0  0  0  0  0  0  0  0  0  0  0
  141.4271   72.0206  223.5689 H   0  0  0  0  0  0  0  0  0  0  0  0
  139.1010   73.0559  222.1807 H   0  0  0  0  0  0  0  0  0  0  0  0
  140.0636   75.4336  221.9361 H   0  0  0  0  0  0  0  0  0  0  0  0
  142.2140   76.3910  220.9790 H   0  0  0  0  0  0  0  0  0  0  0  0
  144.6892   75.3048  219.9815 H   0  0  0  0  0  0  0  0  0  0  0  0
  145.8658   73.1936  219.5807 H   0  0  0  0  0  0  0  0  0  0  0  0
  144.7943   71.0126  220.1430 H   0  0  0  0  0  0  0  0  0  0  0  0
  142.4847   70.9858  221.1237 H   0  0  0  0  0  0  0  0  0  0  0  0
  139.7454   71.8016  220.0600 H   0  0  0  0  0  0  0  0  0  0  0  0
  140.8216   70.7772  220.9863 H   0  0  0  0  0  0  0  0  0  0  0  0
  137.8699   71.3159  221.7964 H   0  0  0  0  0  0  0  0  0  0  0  0
  138.3353   69.9148  220.8058 H   0  0  0  0  0  0  0  0  0  0  0  0
  1  2  2  0
  2  3  2  0
  2  4  1  0
  4  5  1  0
  5  6  2  0
  6  7  1  0
  7  8  2  0
  8  9  1  0
  9 10  2  0
  2 11  1  0
 11 12  1  0
 12 13  1  0
 13 14  1  0
 14 15  1  0
 15 16  2  0
 16 17  1  0
 17 18  1  0
 18 19  2  0
 19 20  1  0
 20 21  2  0
 21 22  1  0
 22 23  2  0
 14 24  1  0
 24 25  1  0
 10  5  1  0
 25 11  1  0
 23 15  1  0
 23 18  1  0
  4 26  1  0
  4 27  1  0
  6 28  1  0
  7 29  1  0
  8 30  1  0
  9 31  1  0
 12 32  1  0
 12 33  1  0
 13 34  1  0
 13 35  1  0
 14 36  1  0
 16 37  1  0
 17 38  1  0
 19 39  1  0
 20 40  1  0
 21 41  1  0
 22 42  1  0
 24 43  1  0
 24 44  1  0
 25 45  1  0
 25 46  1  0
M  END
>  <smiles>  (14) 
O=S(=O)(Cc1ccccn1)N1CCC(c2c[nH]c3ccccc23)CC1

>  <score_type>  (14) 
oracle

>  <origin>  (14) 
autodockgpu

>  <m_score__min__energy>  (14) 
-7.3300000000000001

>  <m_primary>  (14) 
energy

>  <meeko>  (14) 
{"free_energy": -7.33, "intermolecular_energy": -8.53, "internal_energy": -0.76, "cluster_size": 10, "cluster_id": 1, "rank_in_cluster": 1}

>  <energy>  (14) 
-7.14

>  <cluster_rmsd>  (14) 
0.06

>  <rmsd>  (14) 
271.32

>  <cluster>  (14) 
2

$$$$

     RDKit          3D

 46 49  0  0  0  0  0  0  0  0999 V2000
  137.9820   68.1710  223.0150 O   0  0  0  0  0  0  0  0  0  0  0  0
  137.4600   69.4920  223.5620 S   0  0  0  0  0  0  0  0  0  0  0  0
  136.0980   69.6750  222.9820 O   0  0  0  0  0  0  0  0  0  0  0  0
  137.3510   69.2650  225.3220 C   0  0  0  0  0  0  0  0  0  0  0  0
  138.7210   68.9280  225.7840 C   0  0  0  0  0  0  0  0  0  0  0  0
  139.5950   69.8920  226.2820 C   0  0  0  0  0  0  0  0  0  0  0  0
  140.8660   69.4870  226.6940 C   0  0  0  0  0  0  0  0  0  0  0  0
  141.2250   68.1450  226.6000 C   0  0  0  0  0  0  0  0  0  0  0  0
  140.3270   67.2420  226.1020 C   0  0  0  0  0  0  0  0  0  0  0  0
  139.1100   67.6240  225.7060 N   0  0  0  0  0  0  0  0  0  0  0  0
  138.5830   70.6930  223.1600 N   0  0  0  0  0  0  0  0  0  0  0  0
  138.1110   71.8660  222.5650 C   0  0  0  0  0  0  0  0  0  0  0  0
  138.9740   72.5460  221.5620 C   0  0  0  0  0  0  0  0  0  0  0  0
  140.4130   72.1530  221.5830 C   0  0  0  0  0  0  0  0  0  0  0  0
  141.3400   73.2680  221.2990 C   0  0  0  0  0  0  0  0  0  0  0  0
  141.0620   74.6140  221.4370 C   0  0  0  0  0  0  0  0  0  0  0  0
  142.1690   75.2780  221.0770 N   0  0  0  0  0  0  0  0  0  0  0  0
  143.1330   74.4300  220.7190 C   0  0  0  0  0  0  0  0  0  0  0  0
  144.4410   74.6190  220.2760 C   0  0  0  0  0  0  0  0  0  0  0  0
  145.2330   73.5530  219.9710 C   0  0  0  0  0  0  0  0  0  0  0  0
  144.7560   72.2460  220.0940 C   0  0  0  0  0  0  0  0  0  0  0  0
  143.4490   72.0320  220.5370 C   0  0  0  0  0  0  0  0  0  0  0  0
  142.6510   73.1330  220.8450 C   0  0  0  0  0  0  0  0  0  0  0  0
  140.7820   71.5290  222.9090 C   0  0  0  0  0  0  0  0  0  0  0  0
  139.9090   70.2670  222.9530 C   0  0  0  0  0  0  0  0  0  0  0  0
  137.0031   70.1902  225.8046 H   0  0  0  0  0  0  0  0  0  0  0  0
  136.6354   68.4702  225.5792 H   0  0  0  0  0  0  0  0  0  0  0  0
  139.2909   70.9470  226.3490 H   0  0  0  0  0  0  0  0  0  0  0  0
  141.5798   70.2240  227.0907 H   0  0  0  0  0  0  0  0  0  0  0  0
  142.2228   67.8139  226.9237 H   0  0  0  0  0  0  0  0  0  0  0  0
  140.6120   66.1823  226.0262 H   0  0  0  0  0  0  0  0  0  0  0  0
  137.1633   71.6184  222.0644 H   0  0  0  0  0  0  0  0  0  0  0  0
  138.0445   72.5836  223.3961 H   0  0  0  0  0  0  0  0  0  0  0  0
  138.5751   72.3195  220.5622 H   0  0  0  0  0  0  0  0  0  0  0  0
  138.9488   73.6158  221.8168 H   0  0  0  0  0  0  0  0  0  0  0  0
  140.5256   71.4203  220.7703 H   0  0  0  0  0  0  0  0  0  0  0  0
  140.1139   75.0560  221.7771 H   0  0  0  0  0  0  0  0  0  0  0  0
  142.2000   76.3370  221.0990 H   0  0  0  0  0  0  0  0  0  0  0  0
  144.8381   75.6395  220.1715 H   0  0  0  0  0  0  0  0  0  0  0  0
  146.2624   73.7241  219.6230 H   0  0  0  0  0  0  0  0  0  0  0  0
  145.4040   71.3929  219.8442 H   0  0  0  0  0  0  0  0  0  0  0  0
  143.0551   71.0103  220.6414 H   0  0  0  0  0  0  0  0  0  0  0  0
  141.8509   71.2713  222.9406 H   0  0  0  0  0  0  0  0  0  0  0  0
  140.6162   72.2003  223.7645 H   0  0  0  0  0  0  0  0  0  0  0  0
  139.9864   69.7203  222.0016 H   0  0  0  0  0  0  0  0  0  0  0  0
  140.2351   69.5910  223.7571 H   0  0  0  0  0  0  0  0  0  0  0  0
  1  2  2  0
  2  3  2  0
  2  4  1  0
  4  5  1  0
  5  6  2  0
  6  7  1  0
  7  8  2  0
  8  9  1  0
  9 10  2  0
  2 11  1  0
 11 12  1  0
 12 13  1  0
 13 14  1  0
 14 15  1  0
 15 16  2  0
 16 17  1  0
 17 18  1  0
 18 19  2  0
 19 20  1  0
 20 21  2  0
 21 22  1  0
 22 23  2  0
 14 24  1  0
 24 25  1  0
 10  5  1  0
 25 11  1  0
 23 15  1  0
 23 18  1  0
  4 26  1  0
  4 27  1  0
  6 28  1  0
  7 29  1  0
  8 30  1  0
  9 31  1  0
 12 32  1  0
 12 33  1  0
 13 34  1  0
 13 35  1  0
 14 36  1  0
 16 37  1  0
 17 38  1  0
 19 39  1  0
 20 40  1  0
 21 41  1  0
 22 42  1  0
 24 43  1  0
 24 44  1  0
 25 45  1  0
 25 46  1  0
M  END
>  <smiles>  (15) 
O=S(=O)(Cc1ccccn1)N1CCC(c2c[nH]c3ccccc23)CC1

>  <score_type>  (15) 
oracle

>  <origin>  (15) 
autodockgpu

>  <m_score__min__energy>  (15) 
-7.3300000000000001

>  <m_primary>  (15) 
energy

>  <meeko>  (15) 
{"free_energy": -6.95, "intermolecular_energy": -8.14, "internal_energy": -1.14, "cluster_size": 10, "cluster_id": 1, "rank_in_cluster": 6}

>  <energy>  (15) 
-7.14

>  <cluster_rmsd>  (15) 
0.07

>  <rmsd>  (15) 
271.29

>  <cluster>  (15) 
2

$$$$

     RDKit          3D

 46 49  0  0  0  0  0  0  0  0999 V2000
  138.0090   68.1880  223.0100 O   0  0  0  0  0  0  0  0  0  0  0  0
  137.4710   69.5050  223.5500 S   0  0  0  0  0  0  0  0  0  0  0  0
  136.1110   69.6740  222.9590 O   0  0  0  0  0  0  0  0  0  0  0  0
  137.3500   69.2810  225.3100 C   0  0  0  0  0  0  0  0  0  0  0  0
  138.7230   68.9810  225.7860 C   0  0  0  0  0  0  0  0  0  0  0  0
  139.5670   69.9680  226.2910 C   0  0  0  0  0  0  0  0  0  0  0  0
  140.8440   69.5970  226.7160 C   0  0  0  0  0  0  0  0  0  0  0  0
  141.2380   68.2650  226.6290 C   0  0  0  0  0  0  0  0  0  0  0  0
  140.3690   67.3370  226.1250 C   0  0  0  0  0  0  0  0  0  0  0  0
  139.1470   67.6870  225.7160 N   0  0  0  0  0  0  0  0  0  0  0  0
  138.5850   70.7160  223.1540 N   0  0  0  0  0  0  0  0  0  0  0  0
  138.1140   71.8620  222.5090 C   0  0  0  0  0  0  0  0  0  0  0  0
  139.0000   72.5310  221.5180 C   0  0  0  0  0  0  0  0  0  0  0  0
  140.4450   72.1660  221.6020 C   0  0  0  0  0  0  0  0  0  0  0  0
  141.3610   73.2900  221.3200 C   0  0  0  0  0  0  0  0  0  0  0  0
  141.0710   74.6340  221.4650 C   0  0  0  0  0  0  0  0  0  0  0  0
  142.1710   75.3090  221.1040 N   0  0  0  0  0  0  0  0  0  0  0  0
  143.1410   74.4710  220.7380 C   0  0  0  0  0  0  0  0  0  0  0  0
  144.4450   74.6730  220.2910 C   0  0  0  0  0  0  0  0  0  0  0  0
  145.2460   73.6150  219.9770 C   0  0  0  0  0  0  0  0  0  0  0  0
  144.7810   72.3040  220.0970 C   0  0  0  0  0  0  0  0  0  0  0  0
  143.4760   72.0770  220.5430 C   0  0  0  0  0  0  0  0  0  0  0  0
  142.6710   73.1700  220.8600 C   0  0  0  0  0  0  0  0  0  0  0  0
  140.7760   71.5870  222.9590 C   0  0  0  0  0  0  0  0  0  0  0  0
  139.9250   70.3100  223.0070 C   0  0  0  0  0  0  0  0  0  0  0  0
  136.9737   70.1985  225.7859 H   0  0  0  0  0  0  0  0  0  0  0  0
  136.6523   68.4691  225.5631 H   0  0  0  0  0  0  0  0  0  0  0  0
  139.2349   71.0148  226.3533 H   0  0  0  0  0  0  0  0  0  0  0  0
  141.5348   70.3531  227.1173 H   0  0  0  0  0  0  0  0  0  0  0  0
  142.2409   67.9609  226.9631 H   0  0  0  0  0  0  0  0  0  0  0  0
  140.6819   66.2847  226.0554 H   0  0  0  0  0  0  0  0  0  0  0  0
  137.1899   71.5820  221.9821 H   0  0  0  0  0  0  0  0  0  0  0  0
  138.0048   72.6011  223.3163 H   0  0  0  0  0  0  0  0  0  0  0  0
  138.6418   72.2692  220.5114 H   0  0  0  0  0  0  0  0  0  0  0  0
  138.9457   73.6069  221.7406 H   0  0  0  0  0  0  0  0  0  0  0  0
  140.6010   71.4130  220.8154 H   0  0  0  0  0  0  0  0  0  0  0  0
  140.1202   75.0662  221.8103 H   0  0  0  0  0  0  0  0  0  0  0  0
  142.1930   76.3680  221.1310 H   0  0  0  0  0  0  0  0  0  0  0  0
  144.8328   75.6974  220.1902 H   0  0  0  0  0  0  0  0  0  0  0  0
  146.2720   73.7968  219.6245 H   0  0  0  0  0  0  0  0  0  0  0  0
  145.4358   71.4574  219.8428 H   0  0  0  0  0  0  0  0  0  0  0  0
  143.0901   71.0517  220.6423 H   0  0  0  0  0  0  0  0  0  0  0  0
  141.8475   71.3511  223.0374 H   0  0  0  0  0  0  0  0  0  0  0  0
  140.5664   72.2788  223.7881 H   0  0  0  0  0  0  0  0  0  0  0  0
  140.0470   69.7390  222.0748 H   0  0  0  0  0  0  0  0  0  0  0  0
  140.2337   69.6626  223.8410 H   0  0  0  0  0  0  0  0  0  0  0  0
  1  2  2  0
  2  3  2  0
  2  4  1  0
  4  5  1  0
  5  6  2  0
  6  7  1  0
  7  8  2  0
  8  9  1  0
  9 10  2  0
  2 11  1  0
 11 12  1  0
 12 13  1  0
 13 14  1  0
 14 15  1  0
 15 16  2  0
 16 17  1  0
 17 18  1  0
 18 19  2  0
 19 20  1  0
 20 21  2  0
 21 22  1  0
 22 23  2  0
 14 24  1  0
 24 25  1  0
 10  5  1  0
 25 11  1  0
 23 15  1  0
 23 18  1  0
  4 26  1  0
  4 27  1  0
  6 28  1  0
  7 29  1  0
  8 30  1  0
  9 31  1  0
 12 32  1  0
 12 33  1  0
 13 34  1  0
 13 35  1  0
 14 36  1  0
 16 37  1  0
 17 38  1  0
 19 39  1  0
 20 40  1  0
 21 41  1  0
 22 42  1  0
 24 43  1  0
 24 44  1  0
 25 45  1  0
 25 46  1  0
M  END
>  <smiles>  (16) 
O=S(=O)(Cc1ccccn1)N1CCC(c2c[nH]c3ccccc23)CC1

>  <score_type>  (16) 
oracle

>  <origin>  (16) 
autodockgpu

>  <m_score__min__energy>  (16) 
-7.3300000000000001

>  <m_primary>  (16) 
energy

>  <meeko>  (16) 
{"free_energy": -6.94, "intermolecular_energy": -8.14, "internal_energy": -1.13, "cluster_size": 10, "cluster_id": 1, "rank_in_cluster": 8}

>  <energy>  (16) 
-7.02

>  <cluster_rmsd>  (16) 
0.84

>  <rmsd>  (16) 
271.21

>  <cluster>  (16) 
2

$$$$

     RDKit          3D

 46 49  0  0  0  0  0  0  0  0999 V2000
  141.5600   73.5930  216.8420 O   0  0  0  0  0  0  0  0  0  0  0  0
  142.3040   73.5770  218.1690 S   0  0  0  0  0  0  0  0  0  0  0  0
  142.2220   72.1760  218.6770 O   0  0  0  0  0  0  0  0  0  0  0  0
  143.9880   73.9860  217.7720 C   0  0  0  0  0  0  0  0  0  0  0  0
  144.7870   73.6860  218.9870 C   0  0  0  0  0  0  0  0  0  0  0  0
  144.7510   74.4970  220.1190 C   0  0  0  0  0  0  0  0  0  0  0  0
  145.5340   74.1400  221.2180 C   0  0  0  0  0  0  0  0  0  0  0  0
  146.3230   72.9950  221.1580 C   0  0  0  0  0  0  0  0  0  0  0  0
  146.3200   72.2360  220.0210 C   0  0  0  0  0  0  0  0  0  0  0  0
  145.5730   72.5720  218.9670 N   0  0  0  0  0  0  0  0  0  0  0  0
  141.6000   74.7490  219.1670 N   0  0  0  0  0  0  0  0  0  0  0  0
  141.6890   76.0880  218.7790 C   0  0  0  0  0  0  0  0  0  0  0  0
  141.8090   77.1250  219.8380 C   0  0  0  0  0  0  0  0  0  0  0  0
  141.4150   76.6880  221.2100 C   0  0  0  0  0  0  0  0  0  0  0  0
  140.7370   77.7380  221.9980 C   0  0  0  0  0  0  0  0  0  0  0  0
  139.3970   77.7660  222.3370 C   0  0  0  0  0  0  0  0  0  0  0  0
  139.2010   78.8840  223.0490 N   0  0  0  0  0  0  0  0  0  0  0  0
  140.3380   79.5670  223.1810 C   0  0  0  0  0  0  0  0  0  0  0  0
  140.6520   80.7660  223.8180 C   0  0  0  0  0  0  0  0  0  0  0  0
  141.9260   81.2520  223.7990 C   0  0  0  0  0  0  0  0  0  0  0  0
  142.9470   80.5620  223.1430 C   0  0  0  0  0  0  0  0  0  0  0  0
  142.6560   79.3570  222.4970 C   0  0  0  0  0  0  0  0  0  0  0  0
  141.3480   78.8740  222.5260 C   0  0  0  0  0  0  0  0  0  0  0  0
  140.5290   75.4650  221.1520 C   0  0  0  0  0  0  0  0  0  0  0  0
  141.4440   74.4050  220.5240 C   0  0  0  0  0  0  0  0  0  0  0  0
  144.3385   73.3771  216.9256 H   0  0  0  0  0  0  0  0  0  0  0  0
  144.0849   75.0422  217.4804 H   0  0  0  0  0  0  0  0  0  0  0  0
  144.1202   75.3978  220.1462 H   0  0  0  0  0  0  0  0  0  0  0  0
  145.5275   74.7602  222.1265 H   0  0  0  0  0  0  0  0  0  0  0  0
  146.9436   72.7033  222.0181 H   0  0  0  0  0  0  0  0  0  0  0  0
  146.9447   71.3318  219.9738 H   0  0  0  0  0  0  0  0  0  0  0  0
  142.5733   76.1808  218.1314 H   0  0  0  0  0  0  0  0  0  0  0  0
  140.7187   76.2970  218.3048 H   0  0  0  0  0  0  0  0  0  0  0  0
  142.8584   77.4528  219.8746 H   0  0  0  0  0  0  0  0  0  0  0  0
  141.1056   77.9240  219.5608 H   0  0  0  0  0  0  0  0  0  0  0  0
  142.3594   76.4533  221.7228 H   0  0  0  0  0  0  0  0  0  0  0  0
  138.6379   77.0150  222.0730 H   0  0  0  0  0  0  0  0  0  0  0  0
  138.2410   79.1280  223.4260 H   0  0  0  0  0  0  0  0  0  0  0  0
  139.8637   81.3265  224.3418 H   0  0  0  0  0  0  0  0  0  0  0  0
  142.1523   82.2008  224.3076 H   0  0  0  0  0  0  0  0  0  0  0  0
  143.9713   80.9629  223.1345 H   0  0  0  0  0  0  0  0  0  0  0  0
  143.4463   78.7985  221.9740 H   0  0  0  0  0  0  0  0  0  0  0  0
  140.2066   75.1623  222.1592 H   0  0  0  0  0  0  0  0  0  0  0  0
  139.6014   75.6284  220.5838 H   0  0  0  0  0  0  0  0  0  0  0  0
  142.4216   74.4029  221.0282 H   0  0  0  0  0  0  0  0  0  0  0  0
  141.0095   73.3997  220.6272 H   0  0  0  0  0  0  0  0  0  0  0  0
  1  2  2  0
  2  3  2  0
  2  4  1  0
  4  5  1  0
  5  6  2  0
  6  7  1  0
  7  8  2  0
  8  9  1  0
  9 10  2  0
  2 11  1  0
 11 12  1  0
 12 13  1  0
 13 14  1  0
 14 15  1  0
 15 16  2  0
 16 17  1  0
 17 18  1  0
 18 19  2  0
 19 20  1  0
 20 21  2  0
 21 22  1  0
 22 23  2  0
 14 24  1  0
 24 25  1  0
 10  5  1  0
 25 11  1  0
 23 15  1  0
 23 18  1  0
  4 26  1  0
  4 27  1  0
  6 28  1  0
  7 29  1  0
  8 30  1  0
  9 31  1  0
 12 32  1  0
 12 33  1  0
 13 34  1  0
 13 35  1  0
 14 36  1  0
 16 37  1  0
 17 38  1  0
 19 39  1  0
 20 40  1  0
 21 41  1  0
 22 42  1  0
 24 43  1  0
 24 44  1  0
 25 45  1  0
 25 46  1  0
M  END
>  <smiles>  (17) 
O=S(=O)(Cc1ccccn1)N1CCC(c2c[nH]c3ccccc23)CC1

>  <score_type>  (17) 
oracle

>  <origin>  (17) 
autodockgpu

>  <m_score__min__energy>  (17) 
-7.3300000000000001

>  <m_primary>  (17) 
energy

>  <meeko>  (17) 
{"free_energy": -6.78, "intermolecular_energy": -7.98, "internal_energy": -1.18, "cluster_size": 2, "cluster_id": 4, "rank_in_cluster": 2}

>  <energy>  (17) 
-7.15

>  <cluster_rmsd>  (17) 
0.0

>  <rmsd>  (17) 
270.97

>  <cluster>  (17) 
3

$$$$

     RDKit          3D

 46 49  0  0  0  0  0  0  0  0999 V2000
  140.3910   72.5690  218.4780 O   0  0  0  0  0  0  0  0  0  0  0  0
  141.5000   73.0380  219.4090 S   0  0  0  0  0  0  0  0  0  0  0  0
  141.7960   71.8910  220.3160 O   0  0  0  0  0  0  0  0  0  0  0  0
  142.8950   73.3620  218.3560 C   0  0  0  0  0  0  0  0  0  0  0  0
  144.0830   73.4180  219.2450 C   0  0  0  0  0  0  0  0  0  0  0  0
  144.3690   74.5290  220.0340 C   0  0  0  0  0  0  0  0  0  0  0  0
  145.5080   74.4970  220.8410 C   0  0  0  0  0  0  0  0  0  0  0  0
  146.3200   73.3670  220.8390 C   0  0  0  0  0  0  0  0  0  0  0  0
  145.9930   72.3040  220.0430 C   0  0  0  0  0  0  0  0  0  0  0  0
  144.9050   72.3300  219.2690 N   0  0  0  0  0  0  0  0  0  0  0  0
  140.9630   74.4470  220.1780 N   0  0  0  0  0  0  0  0  0  0  0  0
  141.2950   75.6780  219.6090 C   0  0  0  0  0  0  0  0  0  0  0  0
  141.5450   76.8320  220.5140 C   0  0  0  0  0  0  0  0  0  0  0  0
  141.0240   76.6790  221.9040 C   0  0  0  0  0  0  0  0  0  0  0  0
  140.5010   77.9330  222.4860 C   0  0  0  0  0  0  0  0  0  0  0  0
  139.1720   78.2330  222.7170 C   0  0  0  0  0  0  0  0  0  0  0  0
  139.1380   79.4620  223.2500 N   0  0  0  0  0  0  0  0  0  0  0  0
  140.3690   79.9590  223.3700 C   0  0  0  0  0  0  0  0  0  0  0  0
  140.8560   81.1710  223.8560 C   0  0  0  0  0  0  0  0  0  0  0  0
  142.1940   81.4310  223.8660 C   0  0  0  0  0  0  0  0  0  0  0  0
  143.1110   80.4900  223.3900 C   0  0  0  0  0  0  0  0  0  0  0  0
  142.6460   79.2680  222.8980 C   0  0  0  0  0  0  0  0  0  0  0  0
  141.2750   79.0180  222.8950 C   0  0  0  0  0  0  0  0  0  0  0  0
  139.9460   75.6210  221.9630 C   0  0  0  0  0  0  0  0  0  0  0  0
  140.6930   74.3430  221.5570 C   0  0  0  0  0  0  0  0  0  0  0  0
  143.0099   72.5555  217.6168 H   0  0  0  0  0  0  0  0  0  0  0  0
  142.7667   74.3023  217.7999 H   0  0  0  0  0  0  0  0  0  0  0  0
  143.7127   75.4117  220.0218 H   0  0  0  0  0  0  0  0  0  0  0  0
  145.7618   75.3597  221.4744 H   0  0  0  0  0  0  0  0  0  0  0  0
  147.2182   73.3290  221.4729 H   0  0  0  0  0  0  0  0  0  0  0  0
  146.6372   71.4124  220.0403 H   0  0  0  0  0  0  0  0  0  0  0  0
  142.2088   75.5261  219.0159 H   0  0  0  0  0  0  0  0  0  0  0  0
  140.3954   75.9665  219.0455 H   0  0  0  0  0  0  0  0  0  0  0  0
  142.6324   76.9870  220.5741 H   0  0  0  0  0  0  0  0  0  0  0  0
  141.0010   77.6829  220.0780 H   0  0  0  0  0  0  0  0  0  0  0  0
  141.8923   76.3754  222.5072 H   0  0  0  0  0  0  0  0  0  0  0  0
  138.3076   77.5868  222.5041 H   0  0  0  0  0  0  0  0  0  0  0  0
  138.2180   79.9150  223.5160 H   0  0  0  0  0  0  0  0  0  0  0  0
  140.1525   81.9265  224.2359 H   0  0  0  0  0  0  0  0  0  0  0  0
  142.5568   82.3943  224.2539 H   0  0  0  0  0  0  0  0  0  0  0  0
  144.1888   80.7095  223.4026 H   0  0  0  0  0  0  0  0  0  0  0  0
  143.3516   78.5142  222.5185 H   0  0  0  0  0  0  0  0  0  0  0  0
  139.5344   75.5323  222.9792 H   0  0  0  0  0  0  0  0  0  0  0  0
  139.0847   75.8435  221.3159 H   0  0  0  0  0  0  0  0  0  0  0  0
  141.6335   74.2592  222.1213 H   0  0  0  0  0  0  0  0  0  0  0  0
  140.0899   73.4489  221.7737 H   0  0  0  0  0  0  0  0  0  0  0  0
  1  2  2  0
  2  3  2  0
  2  4  1  0
  4  5  1  0
  5  6  2  0
  6  7  1  0
  7  8  2  0
  8  9  1  0
  9 10  2  0
  2 11  1  0
 11 12  1  0
 12 13  1  0
 13 14  1  0
 14 15  1  0
 15 16  2  0
 16 17  1  0
 17 18  1  0
 18 19  2  0
 19 20  1  0
 20 21  2  0
 21 22  1  0
 22 23  2  0
 14 24  1  0
 24 25  1  0
 10  5  1  0
 25 11  1  0
 23 15  1  0
 23 18  1  0
  4 26  1  0
  4 27  1  0
  6 28  1  0
  7 29  1  0
  8 30  1  0
  9 31  1  0
 12 32  1  0
 12 33  1  0
 13 34  1  0
 13 35  1  0
 14 36  1  0
 16 37  1  0
 17 38  1  0
 19 39  1  0
 20 40  1  0
 21 41  1  0
 22 42  1  0
 24 43  1  0
 24 44  1  0
 25 45  1  0
 25 46  1  0
M  END
>  <smiles>  (18) 
O=S(=O)(Cc1ccccn1)N1CCC(c2c[nH]c3ccccc23)CC1

>  <score_type>  (18) 
oracle

>  <origin>  (18) 
autodockgpu

>  <m_score__min__energy>  (18) 
-7.3300000000000001

>  <m_primary>  (18) 
energy

>  <meeko>  (18) 
{"free_energy": -6.83, "intermolecular_energy": -8.03, "internal_energy": -1.14, "cluster_size": 2, "cluster_id": 4, "rank_in_cluster": 1}

>  <energy>  (18) 
-6.97

>  <cluster_rmsd>  (18) 
1.1

>  <rmsd>  (18) 
270.91

>  <cluster>  (18) 
3

$$$$

     RDKit          3D

 46 49  0  0  0  0  0  0  0  0999 V2000
  138.6170   71.9790  220.8020 O   0  0  0  0  0  0  0  0  0  0  0  0
  139.1260   72.3850  222.1770 S   0  0  0  0  0  0  0  0  0  0  0  0
  137.9610   72.2750  223.1030 O   0  0  0  0  0  0  0  0  0  0  0  0
  140.3610   71.1770  222.6000 C   0  0  0  0  0  0  0  0  0  0  0  0
  140.2870   71.0050  224.0730 C   0  0  0  0  0  0  0  0  0  0  0  0
  139.5480   69.9830  224.6660 C   0  0  0  0  0  0  0  0  0  0  0  0
  139.5340   69.8960  226.0590 C   0  0  0  0  0  0  0  0  0  0  0  0
  140.2490   70.8200  226.8140 C   0  0  0  0  0  0  0  0  0  0  0  0
  140.9560   71.8040  226.1800 C   0  0  0  0  0  0  0  0  0  0  0  0
  140.9740   71.8930  224.8470 N   0  0  0  0  0  0  0  0  0  0  0  0
  139.7950   73.9340  222.0400 N   0  0  0  0  0  0  0  0  0  0  0  0
  138.9850   75.0330  222.3360 C   0  0  0  0  0  0  0  0  0  0  0  0
  139.1900   76.2900  221.5660 C   0  0  0  0  0  0  0  0  0  0  0  0
  140.4930   76.3950  220.8470 C   0  0  0  0  0  0  0  0  0  0  0  0
  141.0570   77.7610  220.8330 C   0  0  0  0  0  0  0  0  0  0  0  0
  141.3160   78.5250  219.7110 C   0  0  0  0  0  0  0  0  0  0  0  0
  141.8200   79.6900  220.1420 N   0  0  0  0  0  0  0  0  0  0  0  0
  141.8950   79.7080  221.4730 C   0  0  0  0  0  0  0  0  0  0  0  0
  142.3370   80.6680  222.3810 C   0  0  0  0  0  0  0  0  0  0  0  0
  142.3040   80.4270  223.7220 C   0  0  0  0  0  0  0  0  0  0  0  0
  141.8270   79.2120  224.2200 C   0  0  0  0  0  0  0  0  0  0  0  0
  141.3780   78.2340  223.3290 C   0  0  0  0  0  0  0  0  0  0  0  0
  141.4180   78.4980  221.9600 C   0  0  0  0  0  0  0  0  0  0  0  0
  141.5120   75.4470  221.4360 C   0  0  0  0  0  0  0  0  0  0  0  0
  140.8940   74.0670  221.1700 C   0  0  0  0  0  0  0  0  0  0  0  0
  140.1503   70.2233  222.0939 H   0  0  0  0  0  0  0  0  0  0  0  0
  141.3634   71.5023  222.2849 H   0  0  0  0  0  0  0  0  0  0  0  0
  138.9892   69.2622  224.0510 H   0  0  0  0  0  0  0  0  0  0  0  0
  138.9604   69.1007  226.5574 H   0  0  0  0  0  0  0  0  0  0  0  0
  140.2457   70.7596  227.9123 H   0  0  0  0  0  0  0  0  0  0  0  0
  141.5198   72.5351  226.7780 H   0  0  0  0  0  0  0  0  0  0  0  0
  137.9422   74.7207  222.1776 H   0  0  0  0  0  0  0  0  0  0  0  0
  139.2572   75.3000  223.3678 H   0  0  0  0  0  0  0  0  0  0  0  0
  138.3843   76.3669  220.8211 H   0  0  0  0  0  0  0  0  0  0  0  0
  139.1864   77.1031  222.3068 H   0  0  0  0  0  0  0  0  0  0  0  0
  140.2724   76.1211  219.8047 H   0  0  0  0  0  0  0  0  0  0  0  0
  141.1419   78.2331  218.6648 H   0  0  0  0  0  0  0  0  0  0  0  0
  142.0980   80.4480  219.4570 H   0  0  0  0  0  0  0  0  0  0  0  0
  142.7171   81.6317  222.0111 H   0  0  0  0  0  0  0  0  0  0  0  0
  142.6575   81.1991  224.4212 H   0  0  0  0  0  0  0  0  0  0  0  0
  141.8051   79.0270  225.3041 H   0  0  0  0  0  0  0  0  0  0  0  0
  140.9989   77.2709  223.7013 H   0  0  0  0  0  0  0  0  0  0  0  0
  142.4843   75.5486  220.9318 H   0  0  0  0  0  0  0  0  0  0  0  0
  141.7131   75.6339  222.5012 H   0  0  0  0  0  0  0  0  0  0  0  0
  140.5588   73.9983  220.1246 H   0  0  0  0  0  0  0  0  0  0  0  0
  141.6298   73.2675  221.3416 H   0  0  0  0  0  0  0  0  0  0  0  0
  1  2  2  0
  2  3  2  0
  2  4  1  0
  4  5  1  0
  5  6  2  0
  6  7  1  0
  7  8  2  0
  8  9  1  0
  9 10  2  0
  2 11  1  0
 11 12  1  0
 12 13  1  0
 13 14  1  0
 14 15  1  0
 15 16  2  0
 16 17  1  0
 17 18  1  0
 18 19  2  0
 19 20  1  0
 20 21  2  0
 21 22  1  0
 22 23  2  0
 14 24  1  0
 24 25  1  0
 10  5  1  0
 25 11  1  0
 23 15  1  0
 23 18  1  0
  4 26  1  0
  4 27  1  0
  6 28  1  0
  7 29  1  0
  8 30  1  0
  9 31  1  0
 12 32  1  0
 12 33  1  0
 13 34  1  0
 13 35  1  0
 14 36  1  0
 16 37  1  0
 17 38  1  0
 19 39  1  0
 20 40  1  0
 21 41  1  0
 22 42  1  0
 24 43  1  0
 24 44  1  0
 25 45  1  0
 25 46  1  0
M  END
>  <smiles>  (19) 
O=S(=O)(Cc1ccccn1)N1CCC(c2c[nH]c3ccccc23)CC1

>  <score_type>  (19) 
oracle

>  <origin>  (19) 
autodockgpu

>  <m_score__min__energy>  (19) 
-7.3300000000000001

>  <m_primary>  (19) 
energy

>  <meeko>  (19) 
{"free_energy": -7.15, "intermolecular_energy": -8.35, "internal_energy": -1.02, "cluster_size": 6, "cluster_id": 2, "rank_in_cluster": 1}

>  <energy>  (19) 
-6.83

>  <cluster_rmsd>  (19) 
0.0

>  <rmsd>  (19) 
271.18

>  <cluster>  (19) 
4

$$$$

     RDKit          3D

 46 49  0  0  0  0  0  0  0  0999 V2000
  137.7030   74.7160  221.6470 O   0  0  0  0  0  0  0  0  0  0  0  0
  138.2070   73.3850  221.1090 S   0  0  0  0  0  0  0  0  0  0  0  0
  137.1300   72.8590  220.2200 O   0  0  0  0  0  0  0  0  0  0  0  0
  139.6530   73.7780  220.1520 C   0  0  0  0  0  0  0  0  0  0  0  0
  140.1190   75.1050  220.6290 C   0  0  0  0  0  0  0  0  0  0  0  0
  140.3110   76.1800  219.7640 C   0  0  0  0  0  0  0  0  0  0  0  0
  140.7530   77.3920  220.2980 C   0  0  0  0  0  0  0  0  0  0  0  0
  140.9860   77.4960  221.6660 C   0  0  0  0  0  0  0  0  0  0  0  0
  140.7820   76.4080  222.4690 C   0  0  0  0  0  0  0  0  0  0  0  0
  140.3600   75.2460  221.9630 N   0  0  0  0  0  0  0  0  0  0  0  0
  138.5890   72.4060  222.4360 N   0  0  0  0  0  0  0  0  0  0  0  0
  139.9370   72.1660  222.7130 C   0  0  0  0  0  0  0  0  0  0  0  0
  140.3180   70.8430  223.2770 C   0  0  0  0  0  0  0  0  0  0  0  0
  139.2000   70.0540  223.8730 C   0  0  0  0  0  0  0  0  0  0  0  0
  139.5870   69.2840  225.0730 C   0  0  0  0  0  0  0  0  0  0  0  0
  139.4100   67.9270  225.2640 C   0  0  0  0  0  0  0  0  0  0  0  0
  139.8960   67.6390  226.4790 N   0  0  0  0  0  0  0  0  0  0  0  0
  140.3720   68.7350  227.0700 C   0  0  0  0  0  0  0  0  0  0  0  0
  140.9680   68.9570  228.3090 C   0  0  0  0  0  0  0  0  0  0  0  0
  141.3720   70.2070  228.6740 C   0  0  0  0  0  0  0  0  0  0  0  0
  141.2000   71.2950  227.8160 C   0  0  0  0  0  0  0  0  0  0  0  0
  140.6040   71.0970  226.5680 C   0  0  0  0  0  0  0  0  0  0  0  0
  140.1970   69.8120  226.2100 C   0  0  0  0  0  0  0  0  0  0  0  0
  138.0320   70.9500  224.2170 C   0  0  0  0  0  0  0  0  0  0  0  0
  137.5990   71.4940  222.8480 C   0  0  0  0  0  0  0  0  0  0  0  0
  140.4337   73.0198  220.3121 H   0  0  0  0  0  0  0  0  0  0  0  0
  139.4278   73.7960  219.0754 H   0  0  0  0  0  0  0  0  0  0  0  0
  140.1189   76.0764  218.6859 H   0  0  0  0  0  0  0  0  0  0  0  0
  140.9161   78.2593  219.6414 H   0  0  0  0  0  0  0  0  0  0  0  0
  141.3318   78.4465  222.0983 H   0  0  0  0  0  0  0  0  0  0  0  0
  140.9686   76.4911  223.5499 H   0  0  0  0  0  0  0  0  0  0  0  0
  140.4899   72.2891  221.7700 H   0  0  0  0  0  0  0  0  0  0  0  0
  140.1807   72.8814  223.5122 H   0  0  0  0  0  0  0  0  0  0  0  0
  140.7618   70.2445  222.4678 H   0  0  0  0  0  0  0  0  0  0  0  0
  141.0128   71.0549  224.1031 H   0  0  0  0  0  0  0  0  0  0  0  0
  138.9117   69.3282  223.0984 H   0  0  0  0  0  0  0  0  0  0  0  0
  138.9569   67.2189  224.5546 H   0  0  0  0  0  0  0  0  0  0  0  0
  139.8720   66.6480  226.8530 H   0  0  0  0  0  0  0  0  0  0  0  0
  141.1144   68.1144  229.0009 H   0  0  0  0  0  0  0  0  0  0  0  0
  141.8397   70.3604  229.6577 H   0  0  0  0  0  0  0  0  0  0  0  0
  141.5308   72.2991  228.1199 H   0  0  0  0  0  0  0  0  0  0  0  0
  140.4580   71.9415  225.8784 H   0  0  0  0  0  0  0  0  0  0  0  0
  137.2203   70.3775  224.6896 H   0  0  0  0  0  0  0  0  0  0  0  0
  138.2899   71.7414  224.9361 H   0  0  0  0  0  0  0  0  0  0  0  0
  137.5182   70.6709  222.1227 H   0  0  0  0  0  0  0  0  0  0  0  0
  136.6163   71.9840  222.9131 H   0  0  0  0  0  0  0  0  0  0  0  0
  1  2  2  0
  2  3  2  0
  2  4  1  0
  4  5  1  0
  5  6  2  0
  6  7  1  0
  7  8  2  0
  8  9  1  0
  9 10  2  0
  2 11  1  0
 11 12  1  0
 12 13  1  0
 13 14  1  0
 14 15  1  0
 15 16  2  0
 16 17  1  0
 17 18  1  0
 18 19  2  0
 19 20  1  0
 20 21  2  0
 21 22  1  0
 22 23  2  0
 14 24  1  0
 24 25  1  0
 10  5  1  0
 25 11  1  0
 23 15  1  0
 23 18  1  0
  4 26  1  0
  4 27  1  0
  6 28  1  0
  7 29  1  0
  8 30  1  0
  9 31  1  0
 12 32  1  0
 12 33  1  0
 13 34  1  0
 13 35  1  0
 14 36  1  0
 16 37  1  0
 17 38  1  0
 19 39  1  0
 20 40  1  0
 21 41  1  0
 22 42  1  0
 24 43  1  0
 24 44  1  0
 25 45  1  0
 25 46  1  0
M  END
>  <smiles>  (20) 
O=S(=O)(Cc1ccccn1)N1CCC(c2c[nH]c3ccccc23)CC1

>  <score_type>  (20) 
oracle

>  <origin>  (20) 
autodockgpu

>  <m_score__min__energy>  (20) 
-7.3300000000000001

>  <m_primary>  (20) 
energy

>  <meeko>  (20) 
{"free_energy": -6.97, "intermolecular_energy": -8.17, "internal_energy": -0.99, "cluster_size": 2, "cluster_id": 3, "rank_in_cluster": 2}

>  <energy>  (20) 
-6.78

>  <cluster_rmsd>  (20) 
0.95

>  <rmsd>  (20) 
270.96

>  <cluster>  (20) 
4

$$$$
