WCZRIPJXOMUAPT-QHCPKHFHNA-N
     RDKit          3D

 48 52  0  0  0  0  0  0  0  0999 V2000
  139.7100   78.3500  217.7840 O   0  0  0  0  0  0  0  0  0  0  0  0
  139.7450   78.4800  219.2810 S   0  0  0  0  0  0  0  0  0  0  0  0
  139.0920   77.2520  219.8460 O   0  0  0  0  0  0  0  0  0  0  0  0
  138.7640   79.9400  219.6800 C   0  0  0  0  0  0  0  0  0  0  0  0
  138.5630   80.1570  221.1560 C   0  0  0  0  0  0  0  0  0  0  0  0
  138.6660   81.4460  221.7060 C   0  0  0  0  0  0  0  0  0  0  0  0
  138.5580   81.6360  223.0880 C   0  0  0  0  0  0  0  0  0  0  0  0
  138.3670   80.5400  223.9320 C   0  0  0  0  0  0  0  0  0  0  0  0
  138.2900   79.2510  223.3980 C   0  0  0  0  0  0  0  0  0  0  0  0
  138.3920   79.0580  222.0170 C   0  0  0  0  0  0  0  0  0  0  0  0
  141.4460   78.5740  219.7470 N   0  0  0  0  0  0  0  0  0  0  0  0
  141.8250   79.9940  219.9150 C   0  0  0  0  0  0  0  0  0  0  0  0
  141.8350   80.2210  221.3800 C   0  0  0  0  0  0  0  0  0  0  0  0
  141.9640   81.4320  222.0630 C   0  0  0  0  0  0  0  0  0  0  0  0
  142.0790   81.4020  223.4610 C   0  0  0  0  0  0  0  0  0  0  0  0
  142.1070   80.1700  224.1420 C   0  0  0  0  0  0  0  0  0  0  0  0
  142.0050   78.9660  223.4270 C   0  0  0  0  0  0  0  0  0  0  0  0
  141.8150   79.0250  222.0420 C   0  0  0  0  0  0  0  0  0  0  0  0
  141.8250   77.9280  221.0390 C   0  0  1  0  0  0  0  0  0  0  0  0
  141.0740   76.6610  221.3940 C   0  0  0  0  0  0  0  0  0  0  0  0
  139.9940   76.4980  222.2600 C   0  0  0  0  0  0  0  0  0  0  0  0
  139.6440   75.1950  222.3470 N   0  0  0  0  0  0  0  0  0  0  0  0
  140.5030   74.5260  221.5610 C   0  0  0  0  0  0  0  0  0  0  0  0
  140.5460   73.1520  221.3330 C   0  0  0  0  0  0  0  0  0  0  0  0
  141.5410   72.6600  220.4690 C   0  0  0  0  0  0  0  0  0  0  0  0
  142.4610   73.5430  219.8610 C   0  0  0  0  0  0  0  0  0  0  0  0
  142.3930   74.9260  220.1100 C   0  0  0  0  0  0  0  0  0  0  0  0
  141.3950   75.3840  220.9710 C   0  0  0  0  0  0  0  0  0  0  0  0
  139.2736   80.8229  219.2667 H   0  0  0  0  0  0  0  0  0  0  0  0
  137.7671   79.7833  219.2423 H   0  0  0  0  0  0  0  0  0  0  0  0
  138.8325   82.3104  221.0464 H   0  0  0  0  0  0  0  0  0  0  0  0
  138.6236   82.6497  223.5101 H   0  0  0  0  0  0  0  0  0  0  0  0
  138.2771   80.6914  225.0178 H   0  0  0  0  0  0  0  0  0  0  0  0
  138.1490   78.3875  224.0647 H   0  0  0  0  0  0  0  0  0  0  0  0
  138.3382   78.0409  221.6015 H   0  0  0  0  0  0  0  0  0  0  0  0
  142.8217   80.1806  219.4886 H   0  0  0  0  0  0  0  0  0  0  0  0
  141.1281   80.6702  219.3982 H   0  0  0  0  0  0  0  0  0  0  0  0
  141.9752   82.3873  221.5177 H   0  0  0  0  0  0  0  0  0  0  0  0
  142.1474   82.3431  224.0263 H   0  0  0  0  0  0  0  0  0  0  0  0
  142.2090   80.1507  225.2371 H   0  0  0  0  0  0  0  0  0  0  0  0
  142.0730   77.9976  223.9443 H   0  0  0  0  0  0  0  0  0  0  0  0
  142.8297   77.4839  220.9806 H   0  0  0  0  0  0  0  0  0  0  0  0
  139.4950   77.3170  222.7987 H   0  0  0  0  0  0  0  0  0  0  0  0
  138.8710   74.7930  222.9230 H   0  0  0  0  0  0  0  0  0  0  0  0
  139.8251   72.4740  221.8132 H   0  0  0  0  0  0  0  0  0  0  0  0
  141.6032   71.5808  220.2654 H   0  0  0  0  0  0  0  0  0  0  0  0
  143.2358   73.1465  219.1883 H   0  0  0  0  0  0  0  0  0  0  0  0
  143.1031   75.6233  219.6414 H   0  0  0  0  0  0  0  0  0  0  0  0
  1  2  2  0
  2  3  2  0
  2  4  1  0
  4  5  1  0
  5  6  2  0
  6  7  1  0
  7  8  2  0
  8  9  1  0
  9 10  2  0
  2 11  1  0
 11 12  1  0
 12 13  1  0
 13 14  2  0
 14 15  1  0
 15 16  2  0
 16 17  1  0
 17 18  2  0
 18 19  1  0
 19 20  1  0
 20 21  2  0
 21 22  1  0
 22 23  1  0
 23 24  2  0
 24 25  1  0
 25 26  2  0
 26 27  1  0
 27 28  2  0
 10  5  1  0
 19 11  1  0
 28 20  1  0
 18 13  1  0
 28 23  1  0
  4 29  1  0
  4 30  1  0
  6 31  1  0
  7 32  1  0
  8 33  1  0
  9 34  1  0
 10 35  1  0
 12 36  1  0
 12 37  1  0
 14 38  1  0
 15 39  1  0
 16 40  1  0
 17 41  1  0
 19 42  1  6
 21 43  1  0
 22 44  1  0
 24 45  1  0
 25 46  1  0
 26 47  1  0
 27 48  1  0
M  END
>  <UniqueID>  (1) 
237

>  <SMILES>  (1) 
O=S(=O)(Cc1ccccc1)N1Cc2ccccc2[C@H]1c1c[nH]c2ccccc12

>  <Energy>  (1) 
89.91564993369039

>  <Genealogy>  (1) 
O=S(=O)(Cc1ccccc1)N1Cc2ccccc2[C@H]1c1c[nH]c2ccccc12 (3D coordinates assigned)
O=S(=O)(Cc1ccccc1)N1Cc2ccccc2[C@H]1c1c[nH]c2ccccc12 (nonaromatic ring conformer: 89.91564993369039 kcal/mol)

>  <smiles>  (1) 
O=S(=O)(Cc1ccccc1)N1Cc2ccccc2[C@H]1c1c[nH]c2ccccc12

>  <score_type>  (1) 
oracle

>  <origin>  (1) 
autodockgpu

>  <m_score__min__energy>  (1) 
-8.4100000000000001

>  <m_primary>  (1) 
energy

>  <meeko>  (1) 
{"free_energy": -6.84, "intermolecular_energy": -8.04, "internal_energy": -2.2, "cluster_size": 1, "cluster_id": 3, "rank_in_cluster": 1}

>  <energy>  (1) 
-8.41

>  <cluster_rmsd>  (1) 
0.0

>  <rmsd>  (1) 
269.16

>  <cluster>  (1) 
1

$$$$
WCZRIPJXOMUAPT-QHCPKHFHNA-N
     RDKit          3D

 48 52  0  0  0  0  0  0  0  0999 V2000
  138.8000   77.0780  222.8120 O   0  0  0  0  0  0  0  0  0  0  0  0
  139.9500   76.5100  222.0290 S   0  0  0  0  0  0  0  0  0  0  0  0
  139.9430   75.0240  222.2520 O   0  0  0  0  0  0  0  0  0  0  0  0
  141.4440   77.2330  222.7340 C   0  0  0  0  0  0  0  0  0  0  0  0
  141.4230   78.7360  222.8000 C   0  0  0  0  0  0  0  0  0  0  0  0
  142.5680   79.4780  222.4620 C   0  0  0  0  0  0  0  0  0  0  0  0
  142.5730   80.8710  222.5990 C   0  0  0  0  0  0  0  0  0  0  0  0
  141.4440   81.5300  223.0940 C   0  0  0  0  0  0  0  0  0  0  0  0
  140.3100   80.7980  223.4570 C   0  0  0  0  0  0  0  0  0  0  0  0
  140.3000   79.4070  223.3160 C   0  0  0  0  0  0  0  0  0  0  0  0
  139.6590   76.9040  220.3330 N   0  0  0  0  0  0  0  0  0  0  0  0
  138.9800   78.2160  220.2500 C   0  0  0  0  0  0  0  0  0  0  0  0
  140.0420   79.1770  219.8660 C   0  0  0  0  0  0  0  0  0  0  0  0
  139.9670   80.5700  219.8190 C   0  0  0  0  0  0  0  0  0  0  0  0
  141.0590   81.2820  219.2990 C   0  0  0  0  0  0  0  0  0  0  0  0
  142.1790   80.5910  218.7980 C   0  0  0  0  0  0  0  0  0  0  0  0
  142.2160   79.1870  218.8310 C   0  0  0  0  0  0  0  0  0  0  0  0
  141.1470   78.5040  219.4230 C   0  0  0  0  0  0  0  0  0  0  0  0
  140.8610   77.0460  219.4600 C   0  0  1  0  0  0  0  0  0  0  0  0
  142.0210   76.1230  219.7700 C   0  0  0  0  0  0  0  0  0  0  0  0
  143.3820   76.4200  219.8390 C   0  0  0  0  0  0  0  0  0  0  0  0
  144.1020   75.3040  220.0900 N   0  0  0  0  0  0  0  0  0  0  0  0
  143.2150   74.2980  220.1640 C   0  0  0  0  0  0  0  0  0  0  0  0
  143.4840   72.9500  220.4000 C   0  0  0  0  0  0  0  0  0  0  0  0
  142.3950   72.0600  220.4300 C   0  0  0  0  0  0  0  0  0  0  0  0
  141.0790   72.5310  220.2250 C   0  0  0  0  0  0  0  0  0  0  0  0
  140.8400   73.8970  219.9880 C   0  0  0  0  0  0  0  0  0  0  0  0
  141.9390   74.7560  219.9650 C   0  0  0  0  0  0  0  0  0  0  0  0
  141.5684   76.8434  223.7552 H   0  0  0  0  0  0  0  0  0  0  0  0
  142.2763   76.9547  222.0707 H   0  0  0  0  0  0  0  0  0  0  0  0
  143.4643   78.9615  222.0881 H   0  0  0  0  0  0  0  0  0  0  0  0
  143.4662   81.4477  222.3169 H   0  0  0  0  0  0  0  0  0  0  0  0
  141.4480   82.6251  223.1979 H   0  0  0  0  0  0  0  0  0  0  0  0
  139.4248   81.3166  223.8539 H   0  0  0  0  0  0  0  0  0  0  0  0
  139.4084   78.8340  223.6104 H   0  0  0  0  0  0  0  0  0  0  0  0
  138.1865   78.1927  219.4885 H   0  0  0  0  0  0  0  0  0  0  0  0
  138.4985   78.4917  221.1998 H   0  0  0  0  0  0  0  0  0  0  0  0
  139.0724   81.0977  220.1813 H   0  0  0  0  0  0  0  0  0  0  0  0
  141.0399   82.3817  219.2828 H   0  0  0  0  0  0  0  0  0  0  0  0
  143.0275   81.1522  218.3796 H   0  0  0  0  0  0  0  0  0  0  0  0
  143.0660   78.6367  218.4012 H   0  0  0  0  0  0  0  0  0  0  0  0
  140.6577   76.6786  218.4433 H   0  0  0  0  0  0  0  0  0  0  0  0
  143.8106   77.4245  219.7073 H   0  0  0  0  0  0  0  0  0  0  0  0
  145.1390   75.2400  220.1920 H   0  0  0  0  0  0  0  0  0  0  0  0
  144.5131   72.5947  220.5574 H   0  0  0  0  0  0  0  0  0  0  0  0
  142.5694   70.9897  220.6144 H   0  0  0  0  0  0  0  0  0  0  0  0
  140.2357   71.8251  220.2509 H   0  0  0  0  0  0  0  0  0  0  0  0
  139.8199   74.2754  219.8261 H   0  0  0  0  0  0  0  0  0  0  0  0
  1  2  2  0
  2  3  2  0
  2  4  1  0
  4  5  1  0
  5  6  2  0
  6  7  1  0
  7  8  2  0
  8  9  1  0
  9 10  2  0
  2 11  1  0
 11 12  1  0
 12 13  1  0
 13 14  2  0
 14 15  1  0
 15 16  2  0
 16 17  1  0
 17 18  2  0
 18 19  1  0
 19 20  1  0
 20 21  2  0
 21 22  1  0
 22 23  1  0
 23 24  2  0
 24 25  1  0
 25 26  2  0
 26 27  1  0
 27 28  2  0
 10  5  1  0
 19 11  1  0
 28 20  1  0
 18 13  1  0
 28 23  1  0
  4 29  1  0
  4 30  1  0
  6 31  1  0
  7 32  1  0
  8 33  1  0
  9 34  1  0
 10 35  1  0
 12 36  1  0
 12 37  1  0
 14 38  1  0
 15 39  1  0
 16 40  1  0
 17 41  1  0
 19 42  1  6
 21 43  1  0
 22 44  1  0
 24 45  1  0
 25 46  1  0
 26 47  1  0
 27 48  1  0
M  END
>  <UniqueID>  (2) 
237

>  <SMILES>  (2) 
O=S(=O)(Cc1ccccc1)N1Cc2ccccc2[C@H]1c1c[nH]c2ccccc12

>  <Energy>  (2) 
89.91564993369039

>  <Genealogy>  (2) 
O=S(=O)(Cc1ccccc1)N1Cc2ccccc2[C@H]1c1c[nH]c2ccccc12 (3D coordinates assigned)
O=S(=O)(Cc1ccccc1)N1Cc2ccccc2[C@H]1c1c[nH]c2ccccc12 (nonaromatic ring conformer: 89.91564993369039 kcal/mol)

>  <smiles>  (2) 
O=S(=O)(Cc1ccccc1)N1Cc2ccccc2[C@H]1c1c[nH]c2ccccc12

>  <score_type>  (2) 
oracle

>  <origin>  (2) 
autodockgpu

>  <m_score__min__energy>  (2) 
-8.4100000000000001

>  <m_primary>  (2) 
energy

>  <meeko>  (2) 
{"free_energy": -6.72, "intermolecular_energy": -7.91, "internal_energy": -2.47, "cluster_size": 12, "cluster_id": 4, "rank_in_cluster": 8}

>  <energy>  (2) 
-8.35

>  <cluster_rmsd>  (2) 
0.09

>  <rmsd>  (2) 
269.16

>  <cluster>  (2) 
1

$$$$
WCZRIPJXOMUAPT-QHCPKHFHNA-N
     RDKit          3D

 48 52  0  0  0  0  0  0  0  0999 V2000
  138.8030   77.0630  222.8270 O   0  0  0  0  0  0  0  0  0  0  0  0
  139.9540   76.4990  222.0430 S   0  0  0  0  0  0  0  0  0  0  0  0
  139.9540   75.0140  222.2660 O   0  0  0  0  0  0  0  0  0  0  0  0
  141.4460   77.2290  222.7450 C   0  0  0  0  0  0  0  0  0  0  0  0
  141.4190   78.7330  222.8100 C   0  0  0  0  0  0  0  0  0  0  0  0
  142.5580   79.4800  222.4660 C   0  0  0  0  0  0  0  0  0  0  0  0
  142.5580   80.8720  222.6020 C   0  0  0  0  0  0  0  0  0  0  0  0
  141.4280   81.5270  223.1000 C   0  0  0  0  0  0  0  0  0  0  0  0
  140.2990   80.7900  223.4690 C   0  0  0  0  0  0  0  0  0  0  0  0
  140.2940   79.3990  223.3300 C   0  0  0  0  0  0  0  0  0  0  0  0
  139.6590   76.8900  220.3460 N   0  0  0  0  0  0  0  0  0  0  0  0
  138.9760   78.2010  220.2630 C   0  0  0  0  0  0  0  0  0  0  0  0
  140.0350   79.1640  219.8770 C   0  0  0  0  0  0  0  0  0  0  0  0
  139.9550   80.5570  219.8280 C   0  0  0  0  0  0  0  0  0  0  0  0
  141.0440   81.2720  219.3060 C   0  0  0  0  0  0  0  0  0  0  0  0
  142.1650   80.5840  218.8040 C   0  0  0  0  0  0  0  0  0  0  0  0
  142.2070   79.1800  218.8380 C   0  0  0  0  0  0  0  0  0  0  0  0
  141.1410   78.4940  219.4330 C   0  0  0  0  0  0  0  0  0  0  0  0
  140.8600   77.0360  219.4720 C   0  0  1  0  0  0  0  0  0  0  0  0
  142.0230   76.1160  219.7810 C   0  0  0  0  0  0  0  0  0  0  0  0
  143.3830   76.4180  219.8470 C   0  0  0  0  0  0  0  0  0  0  0  0
  144.1070   75.3040  220.0990 N   0  0  0  0  0  0  0  0  0  0  0  0
  143.2240   74.2960  220.1740 C   0  0  0  0  0  0  0  0  0  0  0  0
  143.4970   72.9490  220.4110 C   0  0  0  0  0  0  0  0  0  0  0  0
  142.4110   72.0550  220.4430 C   0  0  0  0  0  0  0  0  0  0  0  0
  141.0940   72.5210  220.2400 C   0  0  0  0  0  0  0  0  0  0  0  0
  140.8490   73.8870  220.0020 C   0  0  0  0  0  0  0  0  0  0  0  0
  141.9460   74.7490  219.9760 C   0  0  0  0  0  0  0  0  0  0  0  0
  141.5736   76.8408  223.7663 H   0  0  0  0  0  0  0  0  0  0  0  0
  142.2783   76.9538  222.0805 H   0  0  0  0  0  0  0  0  0  0  0  0
  143.4547   78.9673  222.0876 H   0  0  0  0  0  0  0  0  0  0  0  0
  143.4481   81.4519  222.3168 H   0  0  0  0  0  0  0  0  0  0  0  0
  141.4272   82.6223  223.2015 H   0  0  0  0  0  0  0  0  0  0  0  0
  139.4134   81.3052  223.8692 H   0  0  0  0  0  0  0  0  0  0  0  0
  139.4062   78.8223  223.6286 H   0  0  0  0  0  0  0  0  0  0  0  0
  138.1816   78.1752  219.5026 H   0  0  0  0  0  0  0  0  0  0  0  0
  138.4949   78.4762  221.2132 H   0  0  0  0  0  0  0  0  0  0  0  0
  139.0589   81.0821  220.1903 H   0  0  0  0  0  0  0  0  0  0  0  0
  141.0216   82.3716  219.2891 H   0  0  0  0  0  0  0  0  0  0  0  0
  143.0110   81.1476  218.3837 H   0  0  0  0  0  0  0  0  0  0  0  0
  143.0579   78.6321  218.4070 H   0  0  0  0  0  0  0  0  0  0  0  0
  140.6572   76.6679  218.4554 H   0  0  0  0  0  0  0  0  0  0  0  0
  143.8081   77.4236  219.7126 H   0  0  0  0  0  0  0  0  0  0  0  0
  145.1450   75.2440  220.1990 H   0  0  0  0  0  0  0  0  0  0  0  0
  144.5273   72.5971  220.5677 H   0  0  0  0  0  0  0  0  0  0  0  0
  142.5894   70.9854  220.6275 H   0  0  0  0  0  0  0  0  0  0  0  0
  140.2534   71.8121  220.2680 H   0  0  0  0  0  0  0  0  0  0  0  0
  139.8273   74.2620  219.8420 H   0  0  0  0  0  0  0  0  0  0  0  0
  1  2  2  0
  2  3  2  0
  2  4  1  0
  4  5  1  0
  5  6  2  0
  6  7  1  0
  7  8  2  0
  8  9  1  0
  9 10  2  0
  2 11  1  0
 11 12  1  0
 12 13  1  0
 13 14  2  0
 14 15  1  0
 15 16  2  0
 16 17  1  0
 17 18  2  0
 18 19  1  0
 19 20  1  0
 20 21  2  0
 21 22  1  0
 22 23  1  0
 23 24  2  0
 24 25  1  0
 25 26  2  0
 26 27  1  0
 27 28  2  0
 10  5  1  0
 19 11  1  0
 28 20  1  0
 18 13  1  0
 28 23  1  0
  4 29  1  0
  4 30  1  0
  6 31  1  0
  7 32  1  0
  8 33  1  0
  9 34  1  0
 10 35  1  0
 12 36  1  0
 12 37  1  0
 14 38  1  0
 15 39  1  0
 16 40  1  0
 17 41  1  0
 19 42  1  6
 21 43  1  0
 22 44  1  0
 24 45  1  0
 25 46  1  0
 26 47  1  0
 27 48  1  0
M  END
>  <UniqueID>  (3) 
237

>  <SMILES>  (3) 
O=S(=O)(Cc1ccccc1)N1Cc2ccccc2[C@H]1c1c[nH]c2ccccc12

>  <Energy>  (3) 
89.91564993369039

>  <Genealogy>  (3) 
O=S(=O)(Cc1ccccc1)N1Cc2ccccc2[C@H]1c1c[nH]c2ccccc12 (3D coordinates assigned)
O=S(=O)(Cc1ccccc1)N1Cc2ccccc2[C@H]1c1c[nH]c2ccccc12 (nonaromatic ring conformer: 89.91564993369039 kcal/mol)

>  <smiles>  (3) 
O=S(=O)(Cc1ccccc1)N1Cc2ccccc2[C@H]1c1c[nH]c2ccccc12

>  <score_type>  (3) 
oracle

>  <origin>  (3) 
autodockgpu

>  <m_score__min__energy>  (3) 
-8.4100000000000001

>  <m_primary>  (3) 
energy

>  <meeko>  (3) 
{"free_energy": -6.72, "intermolecular_energy": -7.91, "internal_energy": -2.47, "cluster_size": 12, "cluster_id": 4, "rank_in_cluster": 5}

>  <energy>  (3) 
-7.53

>  <cluster_rmsd>  (3) 
0.0

>  <rmsd>  (3) 
268.72

>  <cluster>  (3) 
2

$$$$
WCZRIPJXOMUAPT-QHCPKHFHNA-N
     RDKit          3D

 48 52  0  0  0  0  0  0  0  0999 V2000
  138.8020   77.0770  222.8620 O   0  0  0  0  0  0  0  0  0  0  0  0
  139.9490   76.5170  222.0690 S   0  0  0  0  0  0  0  0  0  0  0  0
  139.9490   75.0310  222.2820 O   0  0  0  0  0  0  0  0  0  0  0  0
  141.4440   77.2420  222.7700 C   0  0  0  0  0  0  0  0  0  0  0  0
  141.4260   78.7460  222.8280 C   0  0  0  0  0  0  0  0  0  0  0  0
  142.5730   79.4840  222.4900 C   0  0  0  0  0  0  0  0  0  0  0  0
  142.5800   80.8770  222.6200 C   0  0  0  0  0  0  0  0  0  0  0  0
  141.4510   81.5410  223.1080 C   0  0  0  0  0  0  0  0  0  0  0  0
  140.3150   80.8130  223.4710 C   0  0  0  0  0  0  0  0  0  0  0  0
  140.3020   79.4210  223.3370 C   0  0  0  0  0  0  0  0  0  0  0  0
  139.6470   76.9210  220.3760 N   0  0  0  0  0  0  0  0  0  0  0  0
  138.9720   78.2360  220.3050 C   0  0  0  0  0  0  0  0  0  0  0  0
  140.0340   79.1960  219.9190 C   0  0  0  0  0  0  0  0  0  0  0  0
  139.9620   80.5890  219.8790 C   0  0  0  0  0  0  0  0  0  0  0  0
  141.0530   81.3010  219.3560 C   0  0  0  0  0  0  0  0  0  0  0  0
  142.1670   80.6090  218.8430 C   0  0  0  0  0  0  0  0  0  0  0  0
  142.2000   79.2050  218.8680 C   0  0  0  0  0  0  0  0  0  0  0  0
  141.1340   78.5220  219.4650 C   0  0  0  0  0  0  0  0  0  0  0  0
  140.8440   77.0650  219.4960 C   0  0  1  0  0  0  0  0  0  0  0  0
  142.0030   76.1370  219.7930 C   0  0  0  0  0  0  0  0  0  0  0  0
  143.3650   76.4300  219.8560 C   0  0  0  0  0  0  0  0  0  0  0  0
  144.0840   75.3110  220.0950 N   0  0  0  0  0  0  0  0  0  0  0  0
  143.1950   74.3060  220.1670 C   0  0  0  0  0  0  0  0  0  0  0  0
  143.4620   72.9570  220.3920 C   0  0  0  0  0  0  0  0  0  0  0  0
  142.3710   72.0680  220.4220 C   0  0  0  0  0  0  0  0  0  0  0  0
  141.0560   72.5430  220.2270 C   0  0  0  0  0  0  0  0  0  0  0  0
  140.8180   73.9120  220.0010 C   0  0  0  0  0  0  0  0  0  0  0  0
  141.9190   74.7690  219.9780 C   0  0  0  0  0  0  0  0  0  0  0  0
  141.5677   76.8578  223.7933 H   0  0  0  0  0  0  0  0  0  0  0  0
  142.2756   76.9590  222.1079 H   0  0  0  0  0  0  0  0  0  0  0  0
  143.4696   78.9641  222.1215 H   0  0  0  0  0  0  0  0  0  0  0  0
  143.4753   81.4505  222.3378 H   0  0  0  0  0  0  0  0  0  0  0  0
  141.4568   82.6366  223.2063 H   0  0  0  0  0  0  0  0  0  0  0  0
  139.4298   81.3354  223.8627 H   0  0  0  0  0  0  0  0  0  0  0  0
  139.4082   78.8512  223.6312 H   0  0  0  0  0  0  0  0  0  0  0  0
  138.1732   78.2195  219.5489 H   0  0  0  0  0  0  0  0  0  0  0  0
  138.4984   78.5079  221.2599 H   0  0  0  0  0  0  0  0  0  0  0  0
  139.0708   81.1171  220.2488 H   0  0  0  0  0  0  0  0  0  0  0  0
  141.0377   82.4009  219.3469 H   0  0  0  0  0  0  0  0  0  0  0  0
  143.0142   81.1698  218.4213 H   0  0  0  0  0  0  0  0  0  0  0  0
  143.0447   78.6545  218.4282 H   0  0  0  0  0  0  0  0  0  0  0  0
  140.6329   76.7042  218.4785 H   0  0  0  0  0  0  0  0  0  0  0  0
  143.7951   77.4344  219.7286 H   0  0  0  0  0  0  0  0  0  0  0  0
  145.1220   75.2440  220.1910 H   0  0  0  0  0  0  0  0  0  0  0  0
  144.4912   72.5987  220.5412 H   0  0  0  0  0  0  0  0  0  0  0  0
  142.5442   70.9962  220.5985 H   0  0  0  0  0  0  0  0  0  0  0  0
  140.2115   71.8386  220.2518 H   0  0  0  0  0  0  0  0  0  0  0  0
  139.7977   74.2935  219.8476 H   0  0  0  0  0  0  0  0  0  0  0  0
  1  2  2  0
  2  3  2  0
  2  4  1  0
  4  5  1  0
  5  6  2  0
  6  7  1  0
  7  8  2  0
  8  9  1  0
  9 10  2  0
  2 11  1  0
 11 12  1  0
 12 13  1  0
 13 14  2  0
 14 15  1  0
 15 16  2  0
 16 17  1  0
 17 18  2  0
 18 19  1  0
 19 20  1  0
 20 21  2  0
 21 22  1  0
 22 23  1  0
 23 24  2  0
 24 25  1  0
 25 26  2  0
 26 27  1  0
 27 28  2  0
 10  5  1  0
 19 11  1  0
 28 20  1  0
 18 13  1  0
 28 23  1  0
  4 29  1  0
  4 30  1  0
  6 31  1  0
  7 32  1  0
  8 33  1  0
  9 34  1  0
 10 35  1  0
 12 36  1  0
 12 37  1  0
 14 38  1  0
 15 39  1  0
 16 40  1  0
 17 41  1  0
 19 42  1  6
 21 43  1  0
 22 44  1  0
 24 45  1  0
 25 46  1  0
 26 47  1  0
 27 48  1  0
M  END
>  <UniqueID>  (4) 
237

>  <SMILES>  (4) 
O=S(=O)(Cc1ccccc1)N1Cc2ccccc2[C@H]1c1c[nH]c2ccccc12

>  <Energy>  (4) 
89.91564993369039

>  <Genealogy>  (4) 
O=S(=O)(Cc1ccccc1)N1Cc2ccccc2[C@H]1c1c[nH]c2ccccc12 (3D coordinates assigned)
O=S(=O)(Cc1ccccc1)N1Cc2ccccc2[C@H]1c1c[nH]c2ccccc12 (nonaromatic ring conformer: 89.91564993369039 kcal/mol)

>  <smiles>  (4) 
O=S(=O)(Cc1ccccc1)N1Cc2ccccc2[C@H]1c1c[nH]c2ccccc12

>  <score_type>  (4) 
oracle

>  <origin>  (4) 
autodockgpu

>  <m_score__min__energy>  (4) 
-8.4100000000000001

>  <m_primary>  (4) 
energy

>  <meeko>  (4) 
{"free_energy": -6.72, "intermolecular_energy": -7.92, "internal_energy": -2.47, "cluster_size": 12, "cluster_id": 4, "rank_in_cluster": 1}

>  <energy>  (4) 
-7.52

>  <cluster_rmsd>  (4) 
0.09

>  <rmsd>  (4) 
268.73

>  <cluster>  (4) 
2

$$$$
WCZRIPJXOMUAPT-QHCPKHFHNA-N
     RDKit          3D

 48 52  0  0  0  0  0  0  0  0999 V2000
  138.7930   77.0860  222.8280 O   0  0  0  0  0  0  0  0  0  0  0  0
  139.9420   76.5200  222.0430 S   0  0  0  0  0  0  0  0  0  0  0  0
  139.9350   75.0340  222.2610 O   0  0  0  0  0  0  0  0  0  0  0  0
  141.4360   77.2410  222.7500 C   0  0  0  0  0  0  0  0  0  0  0  0
  141.4190   78.7450  222.8120 C   0  0  0  0  0  0  0  0  0  0  0  0
  142.5650   79.4840  222.4740 C   0  0  0  0  0  0  0  0  0  0  0  0
  142.5740   80.8770  222.6090 C   0  0  0  0  0  0  0  0  0  0  0  0
  141.4460   81.5390  223.1000 C   0  0  0  0  0  0  0  0  0  0  0  0
  140.3100   80.8110  223.4630 C   0  0  0  0  0  0  0  0  0  0  0  0
  140.2960   79.4200  223.3250 C   0  0  0  0  0  0  0  0  0  0  0  0
  139.6500   76.9190  220.3480 N   0  0  0  0  0  0  0  0  0  0  0  0
  138.9760   78.2350  220.2690 C   0  0  0  0  0  0  0  0  0  0  0  0
  140.0420   79.1920  219.8860 C   0  0  0  0  0  0  0  0  0  0  0  0
  139.9730   80.5860  219.8420 C   0  0  0  0  0  0  0  0  0  0  0  0
  141.0670   81.2940  219.3220 C   0  0  0  0  0  0  0  0  0  0  0  0
  142.1840   80.5990  218.8180 C   0  0  0  0  0  0  0  0  0  0  0  0
  142.2140   79.1960  218.8470 C   0  0  0  0  0  0  0  0  0  0  0  0
  141.1440   78.5160  219.4400 C   0  0  0  0  0  0  0  0  0  0  0  0
  140.8520   77.0590  219.4740 C   0  0  1  0  0  0  0  0  0  0  0  0
  142.0080   76.1300  219.7800 C   0  0  0  0  0  0  0  0  0  0  0  0
  143.3700   76.4220  219.8510 C   0  0  0  0  0  0  0  0  0  0  0  0
  144.0860   75.3020  220.0970 N   0  0  0  0  0  0  0  0  0  0  0  0
  143.1960   74.2990  220.1650 C   0  0  0  0  0  0  0  0  0  0  0  0
  143.4590   72.9490  220.3950 C   0  0  0  0  0  0  0  0  0  0  0  0
  142.3670   72.0620  220.4200 C   0  0  0  0  0  0  0  0  0  0  0  0
  141.0540   72.5390  220.2170 C   0  0  0  0  0  0  0  0  0  0  0  0
  140.8190   73.9070  219.9860 C   0  0  0  0  0  0  0  0  0  0  0  0
  141.9210   74.7620  219.9670 C   0  0  0  0  0  0  0  0  0  0  0  0
  141.5566   76.8539  223.7725 H   0  0  0  0  0  0  0  0  0  0  0  0
  142.2692   76.9588  222.0896 H   0  0  0  0  0  0  0  0  0  0  0  0
  143.4603   78.9649  222.1012 H   0  0  0  0  0  0  0  0  0  0  0  0
  143.4696   81.4508  222.3284 H   0  0  0  0  0  0  0  0  0  0  0  0
  141.4522   82.6343  223.2009 H   0  0  0  0  0  0  0  0  0  0  0  0
  139.4258   81.3329  223.8577 H   0  0  0  0  0  0  0  0  0  0  0  0
  139.4023   78.8501  223.6190 H   0  0  0  0  0  0  0  0  0  0  0  0
  138.1815   78.2170  219.5084 H   0  0  0  0  0  0  0  0  0  0  0  0
  138.4967   78.5106  221.2199 H   0  0  0  0  0  0  0  0  0  0  0  0
  139.0813   81.1169  220.2067 H   0  0  0  0  0  0  0  0  0  0  0  0
  141.0525   82.3938  219.3078 H   0  0  0  0  0  0  0  0  0  0  0  0
  143.0349   81.1573  218.4006 H   0  0  0  0  0  0  0  0  0  0  0  0
  143.0601   78.6429  218.4131 H   0  0  0  0  0  0  0  0  0  0  0  0
  140.6462   76.6957  218.4563 H   0  0  0  0  0  0  0  0  0  0  0  0
  143.8021   77.4256  219.7243 H   0  0  0  0  0  0  0  0  0  0  0  0
  145.1230   75.2340  220.1990 H   0  0  0  0  0  0  0  0  0  0  0  0
  144.4866   72.5892  220.5518 H   0  0  0  0  0  0  0  0  0  0  0  0
  142.5375   70.9901  220.5989 H   0  0  0  0  0  0  0  0  0  0  0  0
  140.2082   71.8360  220.2396 H   0  0  0  0  0  0  0  0  0  0  0  0
  139.8002   74.2895  219.8257 H   0  0  0  0  0  0  0  0  0  0  0  0
  1  2  2  0
  2  3  2  0
  2  4  1  0
  4  5  1  0
  5  6  2  0
  6  7  1  0
  7  8  2  0
  8  9  1  0
  9 10  2  0
  2 11  1  0
 11 12  1  0
 12 13  1  0
 13 14  2  0
 14 15  1  0
 15 16  2  0
 16 17  1  0
 17 18  2  0
 18 19  1  0
 19 20  1  0
 20 21  2  0
 21 22  1  0
 22 23  1  0
 23 24  2  0
 24 25  1  0
 25 26  2  0
 26 27  1  0
 27 28  2  0
 10  5  1  0
 19 11  1  0
 28 20  1  0
 18 13  1  0
 28 23  1  0
  4 29  1  0
  4 30  1  0
  6 31  1  0
  7 32  1  0
  8 33  1  0
  9 34  1  0
 10 35  1  0
 12 36  1  0
 12 37  1  0
 14 38  1  0
 15 39  1  0
 16 40  1  0
 17 41  1  0
 19 42  1  6
 21 43  1  0
 22 44  1  0
 24 45  1  0
 25 46  1  0
 26 47  1  0
 27 48  1  0
M  END
>  <UniqueID>  (5) 
237

>  <SMILES>  (5) 
O=S(=O)(Cc1ccccc1)N1Cc2ccccc2[C@H]1c1c[nH]c2ccccc12

>  <Energy>  (5) 
89.91564993369039

>  <Genealogy>  (5) 
O=S(=O)(Cc1ccccc1)N1Cc2ccccc2[C@H]1c1c[nH]c2ccccc12 (3D coordinates assigned)
O=S(=O)(Cc1ccccc1)N1Cc2ccccc2[C@H]1c1c[nH]c2ccccc12 (nonaromatic ring conformer: 89.91564993369039 kcal/mol)

>  <smiles>  (5) 
O=S(=O)(Cc1ccccc1)N1Cc2ccccc2[C@H]1c1c[nH]c2ccccc12

>  <score_type>  (5) 
oracle

>  <origin>  (5) 
autodockgpu

>  <m_score__min__energy>  (5) 
-8.4100000000000001

>  <m_primary>  (5) 
energy

>  <meeko>  (5) 
{"free_energy": -6.71, "intermolecular_energy": -7.91, "internal_energy": -2.48, "cluster_size": 12, "cluster_id": 4, "rank_in_cluster": 10}

>  <energy>  (5) 
-7.51

>  <cluster_rmsd>  (5) 
0.37

>  <rmsd>  (5) 
268.74

>  <cluster>  (5) 
2

$$$$
WCZRIPJXOMUAPT-QHCPKHFHNA-N
     RDKit          3D

 48 52  0  0  0  0  0  0  0  0999 V2000
  141.4290   74.6150  221.7830 O   0  0  0  0  0  0  0  0  0  0  0  0
  141.3560   75.4290  220.5210 S   0  0  0  0  0  0  0  0  0  0  0  0
  140.7630   74.5460  219.4610 O   0  0  0  0  0  0  0  0  0  0  0  0
  143.0570   75.8480  220.0950 C   0  0  0  0  0  0  0  0  0  0  0  0
  143.9670   74.6550  219.9670 C   0  0  0  0  0  0  0  0  0  0  0  0
  143.6710   73.6300  219.0530 C   0  0  0  0  0  0  0  0  0  0  0  0
  144.4730   72.4850  218.9900 C   0  0  0  0  0  0  0  0  0  0  0  0
  145.5640   72.3470  219.8530 C   0  0  0  0  0  0  0  0  0  0  0  0
  145.8510   73.3490  220.7830 C   0  0  0  0  0  0  0  0  0  0  0  0
  145.0550   74.4970  220.8450 C   0  0  0  0  0  0  0  0  0  0  0  0
  140.3100   76.8100  220.8630 N   0  0  0  0  0  0  0  0  0  0  0  0
  140.2360   77.0110  222.3270 C   0  0  0  0  0  0  0  0  0  0  0  0
  141.1430   78.1510  222.6070 C   0  0  0  0  0  0  0  0  0  0  0  0
  141.5620   78.6330  223.8480 C   0  0  0  0  0  0  0  0  0  0  0  0
  142.3230   79.8110  223.8860 C   0  0  0  0  0  0  0  0  0  0  0  0
  142.6110   80.5050  222.6950 C   0  0  0  0  0  0  0  0  0  0  0  0
  142.1510   80.0130  221.4620 C   0  0  0  0  0  0  0  0  0  0  0  0
  141.4590   78.7960  221.4440 C   0  0  0  0  0  0  0  0  0  0  0  0
  140.7450   78.1320  220.3230 C   0  0  1  0  0  0  0  0  0  0  0  0
  141.4440   78.1040  218.9800 C   0  0  0  0  0  0  0  0  0  0  0  0
  142.5970   78.7780  218.5790 C   0  0  0  0  0  0  0  0  0  0  0  0
  142.8670   78.5300  217.2780 N   0  0  0  0  0  0  0  0  0  0  0  0
  141.8880   77.7200  216.8420 C   0  0  0  0  0  0  0  0  0  0  0  0
  141.7310   77.1980  215.5590 C   0  0  0  0  0  0  0  0  0  0  0  0
  140.6190   76.3690  215.3190 C   0  0  0  0  0  0  0  0  0  0  0  0
  139.7010   76.0870  216.3540 C   0  0  0  0  0  0  0  0  0  0  0  0
  139.8850   76.6300  217.6390 C   0  0  0  0  0  0  0  0  0  0  0  0
  140.9970   77.4470  217.8470 C   0  0  0  0  0  0  0  0  0  0  0  0
  143.0513   76.3836  219.1342 H   0  0  0  0  0  0  0  0  0  0  0  0
  143.4500   76.4616  220.9190 H   0  0  0  0  0  0  0  0  0  0  0  0
  142.8040   73.7280  218.3831 H   0  0  0  0  0  0  0  0  0  0  0  0
  144.2449   71.6933  218.2612 H   0  0  0  0  0  0  0  0  0  0  0  0
  146.1969   71.4489  219.7997 H   0  0  0  0  0  0  0  0  0  0  0  0
  146.7044   73.2348  221.4676 H   0  0  0  0  0  0  0  0  0  0  0  0
  145.2805   75.2802  221.5837 H   0  0  0  0  0  0  0  0  0  0  0  0
  139.2071   77.2522  222.6321 H   0  0  0  0  0  0  0  0  0  0  0  0
  140.5267   76.1070  222.8823 H   0  0  0  0  0  0  0  0  0  0  0  0
  141.3015   78.1014  224.7751 H   0  0  0  0  0  0  0  0  0  0  0  0
  142.6954   80.1932  224.8479 H   0  0  0  0  0  0  0  0  0  0  0  0
  143.1977   81.4348  222.7301 H   0  0  0  0  0  0  0  0  0  0  0  0
  142.3305   80.5715  220.5315 H   0  0  0  0  0  0  0  0  0  0  0  0
  139.8801   78.7395  220.0182 H   0  0  0  0  0  0  0  0  0  0  0  0
  143.2035   79.4230  219.2318 H   0  0  0  0  0  0  0  0  0  0  0  0
  143.6690   78.9050  216.7240 H   0  0  0  0  0  0  0  0  0  0  0  0
  142.4523   77.4264  214.7605 H   0  0  0  0  0  0  0  0  0  0  0  0
  140.4642   75.9382  214.3188 H   0  0  0  0  0  0  0  0  0  0  0  0
  138.8356   75.4380  216.1543 H   0  0  0  0  0  0  0  0  0  0  0  0
  139.1758   76.4175  218.4526 H   0  0  0  0  0  0  0  0  0  0  0  0
  1  2  2  0
  2  3  2  0
  2  4  1  0
  4  5  1  0
  5  6  2  0
  6  7  1  0
  7  8  2  0
  8  9  1  0
  9 10  2  0
  2 11  1  0
 11 12  1  0
 12 13  1  0
 13 14  2  0
 14 15  1  0
 15 16  2  0
 16 17  1  0
 17 18  2  0
 18 19  1  0
 19 20  1  0
 20 21  2  0
 21 22  1  0
 22 23  1  0
 23 24  2  0
 24 25  1  0
 25 26  2  0
 26 27  1  0
 27 28  2  0
 10  5  1  0
 19 11  1  0
 28 20  1  0
 18 13  1  0
 28 23  1  0
  4 29  1  0
  4 30  1  0
  6 31  1  0
  7 32  1  0
  8 33  1  0
  9 34  1  0
 10 35  1  0
 12 36  1  0
 12 37  1  0
 14 38  1  0
 15 39  1  0
 16 40  1  0
 17 41  1  0
 19 42  1  6
 21 43  1  0
 22 44  1  0
 24 45  1  0
 25 46  1  0
 26 47  1  0
 27 48  1  0
M  END
>  <UniqueID>  (6) 
237

>  <SMILES>  (6) 
O=S(=O)(Cc1ccccc1)N1Cc2ccccc2[C@H]1c1c[nH]c2ccccc12

>  <Energy>  (6) 
89.91564993369039

>  <Genealogy>  (6) 
O=S(=O)(Cc1ccccc1)N1Cc2ccccc2[C@H]1c1c[nH]c2ccccc12 (3D coordinates assigned)
O=S(=O)(Cc1ccccc1)N1Cc2ccccc2[C@H]1c1c[nH]c2ccccc12 (nonaromatic ring conformer: 89.91564993369039 kcal/mol)

>  <smiles>  (6) 
O=S(=O)(Cc1ccccc1)N1Cc2ccccc2[C@H]1c1c[nH]c2ccccc12

>  <score_type>  (6) 
oracle

>  <origin>  (6) 
autodockgpu

>  <m_score__min__energy>  (6) 
-8.4100000000000001

>  <m_primary>  (6) 
energy

>  <meeko>  (6) 
{"free_energy": -7.46, "intermolecular_energy": -8.65, "internal_energy": -1.75, "cluster_size": 5, "cluster_id": 2, "rank_in_cluster": 5}

>  <energy>  (6) 
-7.5

>  <cluster_rmsd>  (6) 
0.39

>  <rmsd>  (6) 
268.74

>  <cluster>  (6) 
2

$$$$
WCZRIPJXOMUAPT-QHCPKHFHNA-N
     RDKit          3D

 48 52  0  0  0  0  0  0  0  0999 V2000
  138.7970   77.0630  222.8340 O   0  0  0  0  0  0  0  0  0  0  0  0
  139.9470   76.4990  222.0480 S   0  0  0  0  0  0  0  0  0  0  0  0
  139.9450   75.0130  222.2680 O   0  0  0  0  0  0  0  0  0  0  0  0
  141.4400   77.2260  222.7500 C   0  0  0  0  0  0  0  0  0  0  0  0
  141.4160   78.7300  222.8140 C   0  0  0  0  0  0  0  0  0  0  0  0
  142.5580   79.4730  222.4720 C   0  0  0  0  0  0  0  0  0  0  0  0
  142.5610   80.8660  222.6070 C   0  0  0  0  0  0  0  0  0  0  0  0
  141.4320   81.5240  223.1030 C   0  0  0  0  0  0  0  0  0  0  0  0
  140.3010   80.7900  223.4700 C   0  0  0  0  0  0  0  0  0  0  0  0
  140.2930   79.3990  223.3310 C   0  0  0  0  0  0  0  0  0  0  0  0
  139.6500   76.8940  220.3520 N   0  0  0  0  0  0  0  0  0  0  0  0
  138.9680   78.2060  220.2730 C   0  0  0  0  0  0  0  0  0  0  0  0
  140.0270   79.1690  219.8870 C   0  0  0  0  0  0  0  0  0  0  0  0
  139.9490   80.5620  219.8420 C   0  0  0  0  0  0  0  0  0  0  0  0
  141.0380   81.2770  219.3200 C   0  0  0  0  0  0  0  0  0  0  0  0
  142.1580   80.5890  218.8160 C   0  0  0  0  0  0  0  0  0  0  0  0
  142.1980   79.1850  218.8460 C   0  0  0  0  0  0  0  0  0  0  0  0
  141.1320   78.4990  219.4410 C   0  0  0  0  0  0  0  0  0  0  0  0
  140.8500   77.0410  219.4770 C   0  0  1  0  0  0  0  0  0  0  0  0
  142.0120   76.1190  219.7830 C   0  0  0  0  0  0  0  0  0  0  0  0
  143.3720   76.4200  219.8470 C   0  0  0  0  0  0  0  0  0  0  0  0
  144.0960   75.3040  220.0950 N   0  0  0  0  0  0  0  0  0  0  0  0
  143.2120   74.2970  220.1710 C   0  0  0  0  0  0  0  0  0  0  0  0
  143.4840   72.9500  220.4050 C   0  0  0  0  0  0  0  0  0  0  0  0
  142.3970   72.0570  220.4380 C   0  0  0  0  0  0  0  0  0  0  0  0
  141.0800   72.5250  220.2370 C   0  0  0  0  0  0  0  0  0  0  0  0
  140.8360   73.8910  220.0020 C   0  0  0  0  0  0  0  0  0  0  0  0
  141.9340   74.7520  219.9760 C   0  0  0  0  0  0  0  0  0  0  0  0
  141.5664   76.8381  223.7716 H   0  0  0  0  0  0  0  0  0  0  0  0
  142.2720   76.9486  222.0861 H   0  0  0  0  0  0  0  0  0  0  0  0
  143.4542   78.9575  222.0963 H   0  0  0  0  0  0  0  0  0  0  0  0
  143.4528   81.4436  222.3224 H   0  0  0  0  0  0  0  0  0  0  0  0
  141.4338   82.6193  223.2044 H   0  0  0  0  0  0  0  0  0  0  0  0
  139.4159   81.3073  223.8688 H   0  0  0  0  0  0  0  0  0  0  0  0
  139.4030   78.8248  223.6278 H   0  0  0  0  0  0  0  0  0  0  0  0
  138.1721   78.1825  219.5140 H   0  0  0  0  0  0  0  0  0  0  0  0
  138.4891   78.4796  221.2247 H   0  0  0  0  0  0  0  0  0  0  0  0
  139.0543   81.0874  220.2074 H   0  0  0  0  0  0  0  0  0  0  0  0
  141.0164   82.3767  219.3047 H   0  0  0  0  0  0  0  0  0  0  0  0
  143.0047   81.1526  218.3972 H   0  0  0  0  0  0  0  0  0  0  0  0
  143.0473   78.6370  218.4120 H   0  0  0  0  0  0  0  0  0  0  0  0
  140.6463   76.6758  218.4596 H   0  0  0  0  0  0  0  0  0  0  0  0
  143.7975   77.4256  219.7142 H   0  0  0  0  0  0  0  0  0  0  0  0
  145.1340   75.2430  220.1930 H   0  0  0  0  0  0  0  0  0  0  0  0
  144.5143   72.5968  220.5588 H   0  0  0  0  0  0  0  0  0  0  0  0
  142.5744   70.9870  220.6216 H   0  0  0  0  0  0  0  0  0  0  0  0
  140.2387   71.8168  220.2643 H   0  0  0  0  0  0  0  0  0  0  0  0
  139.8145   74.2673  219.8442 H   0  0  0  0  0  0  0  0  0  0  0  0
  1  2  2  0
  2  3  2  0
  2  4  1  0
  4  5  1  0
  5  6  2  0
  6  7  1  0
  7  8  2  0
  8  9  1  0
  9 10  2  0
  2 11  1  0
 11 12  1  0
 12 13  1  0
 13 14  2  0
 14 15  1  0
 15 16  2  0
 16 17  1  0
 17 18  2  0
 18 19  1  0
 19 20  1  0
 20 21  2  0
 21 22  1  0
 22 23  1  0
 23 24  2  0
 24 25  1  0
 25 26  2  0
 26 27  1  0
 27 28  2  0
 10  5  1  0
 19 11  1  0
 28 20  1  0
 18 13  1  0
 28 23  1  0
  4 29  1  0
  4 30  1  0
  6 31  1  0
  7 32  1  0
  8 33  1  0
  9 34  1  0
 10 35  1  0
 12 36  1  0
 12 37  1  0
 14 38  1  0
 15 39  1  0
 16 40  1  0
 17 41  1  0
 19 42  1  6
 21 43  1  0
 22 44  1  0
 24 45  1  0
 25 46  1  0
 26 47  1  0
 27 48  1  0
M  END
>  <UniqueID>  (7) 
237

>  <SMILES>  (7) 
O=S(=O)(Cc1ccccc1)N1Cc2ccccc2[C@H]1c1c[nH]c2ccccc12

>  <Energy>  (7) 
89.91564993369039

>  <Genealogy>  (7) 
O=S(=O)(Cc1ccccc1)N1Cc2ccccc2[C@H]1c1c[nH]c2ccccc12 (3D coordinates assigned)
O=S(=O)(Cc1ccccc1)N1Cc2ccccc2[C@H]1c1c[nH]c2ccccc12 (nonaromatic ring conformer: 89.91564993369039 kcal/mol)

>  <smiles>  (7) 
O=S(=O)(Cc1ccccc1)N1Cc2ccccc2[C@H]1c1c[nH]c2ccccc12

>  <score_type>  (7) 
oracle

>  <origin>  (7) 
autodockgpu

>  <m_score__min__energy>  (7) 
-8.4100000000000001

>  <m_primary>  (7) 
energy

>  <meeko>  (7) 
{"free_energy": -6.72, "intermolecular_energy": -7.91, "internal_energy": -2.47, "cluster_size": 12, "cluster_id": 4, "rank_in_cluster": 2}

>  <energy>  (7) 
-7.46

>  <cluster_rmsd>  (7) 
0.41

>  <rmsd>  (7) 
268.72

>  <cluster>  (7) 
2

$$$$
WCZRIPJXOMUAPT-QHCPKHFHNA-N
     RDKit          3D

 48 52  0  0  0  0  0  0  0  0999 V2000
  138.8050   77.0790  222.8130 O   0  0  0  0  0  0  0  0  0  0  0  0
  139.9570   76.5120  222.0320 S   0  0  0  0  0  0  0  0  0  0  0  0
  139.9540   75.0270  222.2570 O   0  0  0  0  0  0  0  0  0  0  0  0
  141.4480   77.2400  222.7380 C   0  0  0  0  0  0  0  0  0  0  0  0
  141.4220   78.7440  222.8040 C   0  0  0  0  0  0  0  0  0  0  0  0
  142.5610   79.4910  222.4570 C   0  0  0  0  0  0  0  0  0  0  0  0
  142.5620   80.8830  222.5950 C   0  0  0  0  0  0  0  0  0  0  0  0
  141.4340   81.5370  223.0990 C   0  0  0  0  0  0  0  0  0  0  0  0
  140.3060   80.8010  223.4700 C   0  0  0  0  0  0  0  0  0  0  0  0
  140.3000   79.4100  223.3290 C   0  0  0  0  0  0  0  0  0  0  0  0
  139.6660   76.9020  220.3350 N   0  0  0  0  0  0  0  0  0  0  0  0
  138.9810   78.2110  220.2490 C   0  0  0  0  0  0  0  0  0  0  0  0
  140.0390   79.1770  219.8660 C   0  0  0  0  0  0  0  0  0  0  0  0
  139.9570   80.5700  219.8160 C   0  0  0  0  0  0  0  0  0  0  0  0
  141.0460   81.2860  219.2970 C   0  0  0  0  0  0  0  0  0  0  0  0
  142.1700   80.6000  218.7990 C   0  0  0  0  0  0  0  0  0  0  0  0
  142.2140   79.1970  218.8340 C   0  0  0  0  0  0  0  0  0  0  0  0
  141.1480   78.5090  219.4250 C   0  0  0  0  0  0  0  0  0  0  0  0
  140.8690   77.0500  219.4640 C   0  0  1  0  0  0  0  0  0  0  0  0
  142.0330   76.1330  219.7770 C   0  0  0  0  0  0  0  0  0  0  0  0
  143.3920   76.4370  219.8450 C   0  0  0  0  0  0  0  0  0  0  0  0
  144.1180   75.3240  220.1000 N   0  0  0  0  0  0  0  0  0  0  0  0
  143.2360   74.3140  220.1760 C   0  0  0  0  0  0  0  0  0  0  0  0
  143.5110   72.9690  220.4150 C   0  0  0  0  0  0  0  0  0  0  0  0
  142.4260   72.0730  220.4470 C   0  0  0  0  0  0  0  0  0  0  0  0
  141.1090   72.5370  220.2400 C   0  0  0  0  0  0  0  0  0  0  0  0
  140.8620   73.9020  219.9990 C   0  0  0  0  0  0  0  0  0  0  0  0
  141.9580   74.7660  219.9740 C   0  0  0  0  0  0  0  0  0  0  0  0
  141.5729   76.8509  223.7593 H   0  0  0  0  0  0  0  0  0  0  0  0
  142.2817   76.9645  222.0753 H   0  0  0  0  0  0  0  0  0  0  0  0
  143.4561   78.9783  222.0750 H   0  0  0  0  0  0  0  0  0  0  0  0
  143.4509   81.4633  222.3068 H   0  0  0  0  0  0  0  0  0  0  0  0
  141.4346   82.6320  223.2036 H   0  0  0  0  0  0  0  0  0  0  0  0
  139.4218   81.3163  223.8734 H   0  0  0  0  0  0  0  0  0  0  0  0
  139.4130   78.8334  223.6303 H   0  0  0  0  0  0  0  0  0  0  0  0
  138.1892   78.1830  219.4859 H   0  0  0  0  0  0  0  0  0  0  0  0
  138.4965   78.4854  221.1976 H   0  0  0  0  0  0  0  0  0  0  0  0
  139.0590   81.0940  220.1753 H   0  0  0  0  0  0  0  0  0  0  0  0
  141.0216   82.3856  219.2791 H   0  0  0  0  0  0  0  0  0  0  0  0
  143.0164   81.1649  218.3812 H   0  0  0  0  0  0  0  0  0  0  0  0
  143.0675   78.6506  218.4063 H   0  0  0  0  0  0  0  0  0  0  0  0
  140.6689   76.6810  218.4472 H   0  0  0  0  0  0  0  0  0  0  0  0
  143.8157   77.4431  219.7099 H   0  0  0  0  0  0  0  0  0  0  0  0
  145.1560   75.2660  220.2020 H   0  0  0  0  0  0  0  0  0  0  0  0
  144.5418   72.6191  220.5734 H   0  0  0  0  0  0  0  0  0  0  0  0
  142.6055   71.0041  220.6346 H   0  0  0  0  0  0  0  0  0  0  0  0
  140.2694   71.8268  220.2672 H   0  0  0  0  0  0  0  0  0  0  0  0
  139.8401   74.2749  219.8359 H   0  0  0  0  0  0  0  0  0  0  0  0
  1  2  2  0
  2  3  2  0
  2  4  1  0
  4  5  1  0
  5  6  2  0
  6  7  1  0
  7  8  2  0
  8  9  1  0
  9 10  2  0
  2 11  1  0
 11 12  1  0
 12 13  1  0
 13 14  2  0
 14 15  1  0
 15 16  2  0
 16 17  1  0
 17 18  2  0
 18 19  1  0
 19 20  1  0
 20 21  2  0
 21 22  1  0
 22 23  1  0
 23 24  2  0
 24 25  1  0
 25 26  2  0
 26 27  1  0
 27 28  2  0
 10  5  1  0
 19 11  1  0
 28 20  1  0
 18 13  1  0
 28 23  1  0
  4 29  1  0
  4 30  1  0
  6 31  1  0
  7 32  1  0
  8 33  1  0
  9 34  1  0
 10 35  1  0
 12 36  1  0
 12 37  1  0
 14 38  1  0
 15 39  1  0
 16 40  1  0
 17 41  1  0
 19 42  1  6
 21 43  1  0
 22 44  1  0
 24 45  1  0
 25 46  1  0
 26 47  1  0
 27 48  1  0
M  END
>  <UniqueID>  (8) 
237

>  <SMILES>  (8) 
O=S(=O)(Cc1ccccc1)N1Cc2ccccc2[C@H]1c1c[nH]c2ccccc12

>  <Energy>  (8) 
89.91564993369039

>  <Genealogy>  (8) 
O=S(=O)(Cc1ccccc1)N1Cc2ccccc2[C@H]1c1c[nH]c2ccccc12 (3D coordinates assigned)
O=S(=O)(Cc1ccccc1)N1Cc2ccccc2[C@H]1c1c[nH]c2ccccc12 (nonaromatic ring conformer: 89.91564993369039 kcal/mol)

>  <smiles>  (8) 
O=S(=O)(Cc1ccccc1)N1Cc2ccccc2[C@H]1c1c[nH]c2ccccc12

>  <score_type>  (8) 
oracle

>  <origin>  (8) 
autodockgpu

>  <m_score__min__energy>  (8) 
-8.4100000000000001

>  <m_primary>  (8) 
energy

>  <meeko>  (8) 
{"free_energy": -6.72, "intermolecular_energy": -7.91, "internal_energy": -2.48, "cluster_size": 12, "cluster_id": 4, "rank_in_cluster": 6}

>  <energy>  (8) 
-6.84

>  <cluster_rmsd>  (8) 
0.0

>  <rmsd>  (8) 
269.6

>  <cluster>  (8) 
3

$$$$
WCZRIPJXOMUAPT-QHCPKHFHNA-N
     RDKit          3D

 48 52  0  0  0  0  0  0  0  0999 V2000
  138.7980   77.0800  222.8360 O   0  0  0  0  0  0  0  0  0  0  0  0
  139.9450   76.5160  222.0470 S   0  0  0  0  0  0  0  0  0  0  0  0
  139.9420   75.0300  222.2650 O   0  0  0  0  0  0  0  0  0  0  0  0
  141.4400   77.2390  222.7500 C   0  0  0  0  0  0  0  0  0  0  0  0
  141.4210   78.7430  222.8110 C   0  0  0  0  0  0  0  0  0  0  0  0
  142.5670   79.4830  222.4710 C   0  0  0  0  0  0  0  0  0  0  0  0
  142.5730   80.8760  222.6040 C   0  0  0  0  0  0  0  0  0  0  0  0
  141.4450   81.5380  223.0960 C   0  0  0  0  0  0  0  0  0  0  0  0
  140.3100   80.8090  223.4600 C   0  0  0  0  0  0  0  0  0  0  0  0
  140.2980   79.4170  223.3240 C   0  0  0  0  0  0  0  0  0  0  0  0
  139.6470   76.9150  220.3530 N   0  0  0  0  0  0  0  0  0  0  0  0
  138.9680   78.2280  220.2770 C   0  0  0  0  0  0  0  0  0  0  0  0
  140.0290   79.1890  219.8910 C   0  0  0  0  0  0  0  0  0  0  0  0
  139.9540   80.5830  219.8480 C   0  0  0  0  0  0  0  0  0  0  0  0
  141.0440   81.2960  219.3260 C   0  0  0  0  0  0  0  0  0  0  0  0
  142.1620   80.6060  218.8190 C   0  0  0  0  0  0  0  0  0  0  0  0
  142.1990   79.2020  218.8470 C   0  0  0  0  0  0  0  0  0  0  0  0
  141.1320   78.5170  219.4420 C   0  0  0  0  0  0  0  0  0  0  0  0
  140.8460   77.0600  219.4760 C   0  0  1  0  0  0  0  0  0  0  0  0
  142.0070   76.1350  219.7790 C   0  0  0  0  0  0  0  0  0  0  0  0
  143.3680   76.4330  219.8450 C   0  0  0  0  0  0  0  0  0  0  0  0
  144.0890   75.3150  220.0900 N   0  0  0  0  0  0  0  0  0  0  0  0
  143.2030   74.3090  220.1600 C   0  0  0  0  0  0  0  0  0  0  0  0
  143.4720   72.9600  220.3890 C   0  0  0  0  0  0  0  0  0  0  0  0
  142.3840   72.0690  220.4180 C   0  0  0  0  0  0  0  0  0  0  0  0
  141.0680   72.5400  220.2180 C   0  0  0  0  0  0  0  0  0  0  0  0
  140.8270   73.9080  219.9880 C   0  0  0  0  0  0  0  0  0  0  0  0
  141.9260   74.7670  219.9660 C   0  0  0  0  0  0  0  0  0  0  0  0
  141.5636   76.8526  223.7725 H   0  0  0  0  0  0  0  0  0  0  0  0
  142.2721   76.9573  222.0880 H   0  0  0  0  0  0  0  0  0  0  0  0
  143.4630   78.9647  222.0987 H   0  0  0  0  0  0  0  0  0  0  0  0
  143.4671   81.4508  222.3208 H   0  0  0  0  0  0  0  0  0  0  0  0
  141.4506   82.6334  223.1967 H   0  0  0  0  0  0  0  0  0  0  0  0
  139.4251   81.3303  223.8539 H   0  0  0  0  0  0  0  0  0  0  0  0
  139.4055   78.8462  223.6198 H   0  0  0  0  0  0  0  0  0  0  0  0
  138.1711   78.2075  219.5191 H   0  0  0  0  0  0  0  0  0  0  0  0
  138.4908   78.5013  221.2297 H   0  0  0  0  0  0  0  0  0  0  0  0
  139.0608   81.1099  220.2150 H   0  0  0  0  0  0  0  0  0  0  0  0
  141.0252   82.3958  219.3128 H   0  0  0  0  0  0  0  0  0  0  0  0
  143.0093   81.1684  218.3996 H   0  0  0  0  0  0  0  0  0  0  0  0
  143.0469   78.6530  218.4115 H   0  0  0  0  0  0  0  0  0  0  0  0
  140.6390   76.6964  218.4587 H   0  0  0  0  0  0  0  0  0  0  0  0
  143.7958   77.4381  219.7157 H   0  0  0  0  0  0  0  0  0  0  0  0
  145.1270   75.2510  220.1880 H   0  0  0  0  0  0  0  0  0  0  0  0
  144.5016   72.6042  220.5420 H   0  0  0  0  0  0  0  0  0  0  0  0
  142.5596   70.9981  220.5977 H   0  0  0  0  0  0  0  0  0  0  0  0
  140.2253   71.8334  220.2420 H   0  0  0  0  0  0  0  0  0  0  0  0
  139.8063   74.2868  219.8309 H   0  0  0  0  0  0  0  0  0  0  0  0
  1  2  2  0
  2  3  2  0
  2  4  1  0
  4  5  1  0
  5  6  2  0
  6  7  1  0
  7  8  2  0
  8  9  1  0
  9 10  2  0
  2 11  1  0
 11 12  1  0
 12 13  1  0
 13 14  2  0
 14 15  1  0
 15 16  2  0
 16 17  1  0
 17 18  2  0
 18 19  1  0
 19 20  1  0
 20 21  2  0
 21 22  1  0
 22 23  1  0
 23 24  2  0
 24 25  1  0
 25 26  2  0
 26 27  1  0
 27 28  2  0
 10  5  1  0
 19 11  1  0
 28 20  1  0
 18 13  1  0
 28 23  1  0
  4 29  1  0
  4 30  1  0
  6 31  1  0
  7 32  1  0
  8 33  1  0
  9 34  1  0
 10 35  1  0
 12 36  1  0
 12 37  1  0
 14 38  1  0
 15 39  1  0
 16 40  1  0
 17 41  1  0
 19 42  1  6
 21 43  1  0
 22 44  1  0
 24 45  1  0
 25 46  1  0
 26 47  1  0
 27 48  1  0
M  END
>  <UniqueID>  (9) 
237

>  <SMILES>  (9) 
O=S(=O)(Cc1ccccc1)N1Cc2ccccc2[C@H]1c1c[nH]c2ccccc12

>  <Energy>  (9) 
89.91564993369039

>  <Genealogy>  (9) 
O=S(=O)(Cc1ccccc1)N1Cc2ccccc2[C@H]1c1c[nH]c2ccccc12 (3D coordinates assigned)
O=S(=O)(Cc1ccccc1)N1Cc2ccccc2[C@H]1c1c[nH]c2ccccc12 (nonaromatic ring conformer: 89.91564993369039 kcal/mol)

>  <smiles>  (9) 
O=S(=O)(Cc1ccccc1)N1Cc2ccccc2[C@H]1c1c[nH]c2ccccc12

>  <score_type>  (9) 
oracle

>  <origin>  (9) 
autodockgpu

>  <m_score__min__energy>  (9) 
-8.4100000000000001

>  <m_primary>  (9) 
energy

>  <meeko>  (9) 
{"free_energy": -6.71, "intermolecular_energy": -7.91, "internal_energy": -2.48, "cluster_size": 12, "cluster_id": 4, "rank_in_cluster": 11}

>  <energy>  (9) 
-6.72

>  <cluster_rmsd>  (9) 
0.0

>  <rmsd>  (9) 
269.45

>  <cluster>  (9) 
4

$$$$
WCZRIPJXOMUAPT-QHCPKHFHNA-N
     RDKit          3D

 48 52  0  0  0  0  0  0  0  0999 V2000
  141.1940   74.7510  221.8410 O   0  0  0  0  0  0  0  0  0  0  0  0
  141.1320   75.5320  220.5580 S   0  0  0  0  0  0  0  0  0  0  0  0
  140.4640   74.6540  219.5400 O   0  0  0  0  0  0  0  0  0  0  0  0
  142.8420   75.8440  220.0780 C   0  0  0  0  0  0  0  0  0  0  0  0
  143.7170   74.6180  220.0990 C   0  0  0  0  0  0  0  0  0  0  0  0
  143.1750   73.3530  219.8180 C   0  0  0  0  0  0  0  0  0  0  0  0
  143.9700   72.2060  219.9150 C   0  0  0  0  0  0  0  0  0  0  0  0
  145.3050   72.3120  220.3130 C   0  0  0  0  0  0  0  0  0  0  0  0
  145.8470   73.5630  220.6190 C   0  0  0  0  0  0  0  0  0  0  0  0
  145.0560   74.7120  220.5180 C   0  0  0  0  0  0  0  0  0  0  0  0
  140.1730   76.9780  220.8850 N   0  0  0  0  0  0  0  0  0  0  0  0
  140.1140   77.2000  222.3470 C   0  0  0  0  0  0  0  0  0  0  0  0
  141.0880   78.2860  222.6120 C   0  0  0  0  0  0  0  0  0  0  0  0
  141.5380   78.7560  223.8470 C   0  0  0  0  0  0  0  0  0  0  0  0
  142.3700   79.8860  223.8700 C   0  0  0  0  0  0  0  0  0  0  0  0
  142.6970   80.5470  222.6710 C   0  0  0  0  0  0  0  0  0  0  0  0
  142.2060   80.0700  221.4440 C   0  0  0  0  0  0  0  0  0  0  0  0
  141.4410   78.8970  221.4410 C   0  0  0  0  0  0  0  0  0  0  0  0
  140.6860   78.2640  220.3290 C   0  0  1  0  0  0  0  0  0  0  0  0
  141.3790   78.1780  218.9850 C   0  0  0  0  0  0  0  0  0  0  0  0
  142.5720   78.7750  218.5760 C   0  0  0  0  0  0  0  0  0  0  0  0
  142.8240   78.4960  217.2770 N   0  0  0  0  0  0  0  0  0  0  0  0
  141.7950   77.7450  216.8520 C   0  0  0  0  0  0  0  0  0  0  0  0
  141.6040   77.2190  215.5750 C   0  0  0  0  0  0  0  0  0  0  0  0
  140.4430   76.4580  215.3450 C   0  0  0  0  0  0  0  0  0  0  0  0
  139.5110   76.2440  216.3840 C   0  0  0  0  0  0  0  0  0  0  0  0
  139.7300   76.7890  217.6630 C   0  0  0  0  0  0  0  0  0  0  0  0
  140.8910   77.5380  217.8600 C   0  0  0  0  0  0  0  0  0  0  0  0
  142.8456   76.2542  219.0574 H   0  0  0  0  0  0  0  0  0  0  0  0
  143.2576   76.5447  220.8172 H   0  0  0  0  0  0  0  0  0  0  0  0
  142.1199   73.2638  219.5201 H   0  0  0  0  0  0  0  0  0  0  0  0
  143.5438   71.2201  219.6778 H   0  0  0  0  0  0  0  0  0  0  0  0
  145.9300   71.4097  220.3856 H   0  0  0  0  0  0  0  0  0  0  0  0
  146.8962   73.6442  220.9394 H   0  0  0  0  0  0  0  0  0  0  0  0
  145.4835   75.6943  220.7676 H   0  0  0  0  0  0  0  0  0  0  0  0
  139.1020   77.5062  222.6506 H   0  0  0  0  0  0  0  0  0  0  0  0
  140.3508   76.2867  222.9126 H   0  0  0  0  0  0  0  0  0  0  0  0
  141.2472   78.2523  224.7807 H   0  0  0  0  0  0  0  0  0  0  0  0
  142.7673   80.2558  224.8267 H   0  0  0  0  0  0  0  0  0  0  0  0
  143.3390   81.4399  222.6947 H   0  0  0  0  0  0  0  0  0  0  0  0
  142.4177   80.6058  220.5069 H   0  0  0  0  0  0  0  0  0  0  0  0
  139.8589   78.9192  220.0181 H   0  0  0  0  0  0  0  0  0  0  0  0
  143.2184   79.3881  219.2212 H   0  0  0  0  0  0  0  0  0  0  0  0
  143.6460   78.8150  216.7190 H   0  0  0  0  0  0  0  0  0  0  0  0
  142.3370   77.3932  214.7735 H   0  0  0  0  0  0  0  0  0  0  0  0
  140.2603   76.0271  214.3496 H   0  0  0  0  0  0  0  0  0  0  0  0
  138.6072   75.6470  216.1924 H   0  0  0  0  0  0  0  0  0  0  0  0
  139.0105   76.6300  218.4797 H   0  0  0  0  0  0  0  0  0  0  0  0
  1  2  2  0
  2  3  2  0
  2  4  1  0
  4  5  1  0
  5  6  2  0
  6  7  1  0
  7  8  2  0
  8  9  1  0
  9 10  2  0
  2 11  1  0
 11 12  1  0
 12 13  1  0
 13 14  2  0
 14 15  1  0
 15 16  2  0
 16 17  1  0
 17 18  2  0
 18 19  1  0
 19 20  1  0
 20 21  2  0
 21 22  1  0
 22 23  1  0
 23 24  2  0
 24 25  1  0
 25 26  2  0
 26 27  1  0
 27 28  2  0
 10  5  1  0
 19 11  1  0
 28 20  1  0
 18 13  1  0
 28 23  1  0
  4 29  1  0
  4 30  1  0
  6 31  1  0
  7 32  1  0
  8 33  1  0
  9 34  1  0
 10 35  1  0
 12 36  1  0
 12 37  1  0
 14 38  1  0
 15 39  1  0
 16 40  1  0
 17 41  1  0
 19 42  1  6
 21 43  1  0
 22 44  1  0
 24 45  1  0
 25 46  1  0
 26 47  1  0
 27 48  1  0
M  END
>  <UniqueID>  (10) 
237

>  <SMILES>  (10) 
O=S(=O)(Cc1ccccc1)N1Cc2ccccc2[C@H]1c1c[nH]c2ccccc12

>  <Energy>  (10) 
89.91564993369039

>  <Genealogy>  (10) 
O=S(=O)(Cc1ccccc1)N1Cc2ccccc2[C@H]1c1c[nH]c2ccccc12 (3D coordinates assigned)
O=S(=O)(Cc1ccccc1)N1Cc2ccccc2[C@H]1c1c[nH]c2ccccc12 (nonaromatic ring conformer: 89.91564993369039 kcal/mol)

>  <smiles>  (10) 
O=S(=O)(Cc1ccccc1)N1Cc2ccccc2[C@H]1c1c[nH]c2ccccc12

>  <score_type>  (10) 
oracle

>  <origin>  (10) 
autodockgpu

>  <m_score__min__energy>  (10) 
-8.4100000000000001

>  <m_primary>  (10) 
energy

>  <meeko>  (10) 
{"free_energy": -7.52, "intermolecular_energy": -8.71, "internal_energy": -1.68, "cluster_size": 5, "cluster_id": 2, "rank_in_cluster": 2}

>  <energy>  (10) 
-6.72

>  <cluster_rmsd>  (10) 
0.03

>  <rmsd>  (10) 
269.43

>  <cluster>  (10) 
4

$$$$
WCZRIPJXOMUAPT-QHCPKHFHNA-N
     RDKit          3D

 48 52  0  0  0  0  0  0  0  0999 V2000
  135.3580   68.8130  224.2300 O   0  0  0  0  0  0  0  0  0  0  0  0
  136.5070   69.7770  224.3230 S   0  0  0  0  0  0  0  0  0  0  0  0
  137.1520   69.5670  225.6620 O   0  0  0  0  0  0  0  0  0  0  0  0
  135.7840   71.4270  224.2380 C   0  0  0  0  0  0  0  0  0  0  0  0
  134.7010   71.6740  225.2540 C   0  0  0  0  0  0  0  0  0  0  0  0
  134.1030   72.9410  225.3620 C   0  0  0  0  0  0  0  0  0  0  0  0
  133.1540   73.1920  226.3590 C   0  0  0  0  0  0  0  0  0  0  0  0
  132.8100   72.1860  227.2670 C   0  0  0  0  0  0  0  0  0  0  0  0
  133.4180   70.9310  227.1830 C   0  0  0  0  0  0  0  0  0  0  0  0
  134.3630   70.6760  226.1850 C   0  0  0  0  0  0  0  0  0  0  0  0
  137.6170   69.3800  223.0080 N   0  0  0  0  0  0  0  0  0  0  0  0
  137.4250   70.3450  221.9030 C   0  0  0  0  0  0  0  0  0  0  0  0
  138.5550   71.2970  222.0220 C   0  0  0  0  0  0  0  0  0  0  0  0
  138.7500   72.4930  221.3290 C   0  0  0  0  0  0  0  0  0  0  0  0
  139.9630   73.1780  221.5030 C   0  0  0  0  0  0  0  0  0  0  0  0
  140.9690   72.6350  222.3260 C   0  0  0  0  0  0  0  0  0  0  0  0
  140.7570   71.4150  222.9880 C   0  0  0  0  0  0  0  0  0  0  0  0
  139.5110   70.7900  222.8580 C   0  0  0  0  0  0  0  0  0  0  0  0
  139.0750   69.4460  223.3170 C   0  0  1  0  0  0  0  0  0  0  0  0
  139.4780   69.0310  224.7170 C   0  0  0  0  0  0  0  0  0  0  0  0
  139.4650   67.7590  225.2900 C   0  0  0  0  0  0  0  0  0  0  0  0
  139.8490   67.8160  226.5850 N   0  0  0  0  0  0  0  0  0  0  0  0
  140.0870   69.1120  226.8470 C   0  0  0  0  0  0  0  0  0  0  0  0
  140.5010   69.6680  228.0560 C   0  0  0  0  0  0  0  0  0  0  0  0
  140.6860   71.0620  228.1080 C   0  0  0  0  0  0  0  0  0  0  0  0
  140.4550   71.8580  226.9650 C   0  0  0  0  0  0  0  0  0  0  0  0
  140.0370   71.2680  225.7580 C   0  0  0  0  0  0  0  0  0  0  0  0
  139.8630   69.8830  225.7360 C   0  0  0  0  0  0  0  0  0  0  0  0
  136.5844   72.1641  224.3995 H   0  0  0  0  0  0  0  0  0  0  0  0
  135.3170   71.5192  223.2463 H   0  0  0  0  0  0  0  0  0  0  0  0
  134.3824   73.7396  224.6591 H   0  0  0  0  0  0  0  0  0  0  0  0
  132.6783   74.1814  226.4285 H   0  0  0  0  0  0  0  0  0  0  0  0
  132.0605   72.3827  228.0477 H   0  0  0  0  0  0  0  0  0  0  0  0
  133.1528   70.1427  227.9029 H   0  0  0  0  0  0  0  0  0  0  0  0
  134.8450   69.6889  226.1277 H   0  0  0  0  0  0  0  0  0  0  0  0
  137.4541   69.8304  220.9312 H   0  0  0  0  0  0  0  0  0  0  0  0
  136.4506   70.8519  221.9627 H   0  0  0  0  0  0  0  0  0  0  0  0
  137.9708   72.8898  220.6616 H   0  0  0  0  0  0  0  0  0  0  0  0
  140.1281   74.1401  220.9960 H   0  0  0  0  0  0  0  0  0  0  0  0
  141.9231   73.1681  222.4504 H   0  0  0  0  0  0  0  0  0  0  0  0
  141.5530   70.9600  223.5958 H   0  0  0  0  0  0  0  0  0  0  0  0
  139.6303   68.6666  222.7746 H   0  0  0  0  0  0  0  0  0  0  0  0
  139.1815   66.8371  224.7611 H   0  0  0  0  0  0  0  0  0  0  0  0
  139.9290   67.0130  227.2480 H   0  0  0  0  0  0  0  0  0  0  0  0
  140.6773   69.0380  228.9403 H   0  0  0  0  0  0  0  0  0  0  0  0
  141.0129   71.5349  229.0458 H   0  0  0  0  0  0  0  0  0  0  0  0
  140.6028   72.9467  227.0185 H   0  0  0  0  0  0  0  0  0  0  0  0
  139.8534   71.8779  224.8612 H   0  0  0  0  0  0  0  0  0  0  0  0
  1  2  2  0
  2  3  2  0
  2  4  1  0
  4  5  1  0
  5  6  2  0
  6  7  1  0
  7  8  2  0
  8  9  1  0
  9 10  2  0
  2 11  1  0
 11 12  1  0
 12 13  1  0
 13 14  2  0
 14 15  1  0
 15 16  2  0
 16 17  1  0
 17 18  2  0
 18 19  1  0
 19 20  1  0
 20 21  2  0
 21 22  1  0
 22 23  1  0
 23 24  2  0
 24 25  1  0
 25 26  2  0
 26 27  1  0
 27 28  2  0
 10  5  1  0
 19 11  1  0
 28 20  1  0
 18 13  1  0
 28 23  1  0
  4 29  1  0
  4 30  1  0
  6 31  1  0
  7 32  1  0
  8 33  1  0
  9 34  1  0
 10 35  1  0
 12 36  1  0
 12 37  1  0
 14 38  1  0
 15 39  1  0
 16 40  1  0
 17 41  1  0
 19 42  1  6
 21 43  1  0
 22 44  1  0
 24 45  1  0
 25 46  1  0
 26 47  1  0
 27 48  1  0
M  END
>  <UniqueID>  (11) 
237

>  <SMILES>  (11) 
O=S(=O)(Cc1ccccc1)N1Cc2ccccc2[C@H]1c1c[nH]c2ccccc12

>  <Energy>  (11) 
89.91564993369039

>  <Genealogy>  (11) 
O=S(=O)(Cc1ccccc1)N1Cc2ccccc2[C@H]1c1c[nH]c2ccccc12 (3D coordinates assigned)
O=S(=O)(Cc1ccccc1)N1Cc2ccccc2[C@H]1c1c[nH]c2ccccc12 (nonaromatic ring conformer: 89.91564993369039 kcal/mol)

>  <smiles>  (11) 
O=S(=O)(Cc1ccccc1)N1Cc2ccccc2[C@H]1c1c[nH]c2ccccc12

>  <score_type>  (11) 
oracle

>  <origin>  (11) 
autodockgpu

>  <m_score__min__energy>  (11) 
-8.4100000000000001

>  <m_primary>  (11) 
energy

>  <meeko>  (11) 
{"free_energy": -8.41, "intermolecular_energy": -9.61, "internal_energy": -1.04, "cluster_size": 2, "cluster_id": 1, "rank_in_cluster": 1}

>  <energy>  (11) 
-6.72

>  <cluster_rmsd>  (11) 
0.04

>  <rmsd>  (11) 
269.42

>  <cluster>  (11) 
4

$$$$
WCZRIPJXOMUAPT-QHCPKHFHNA-N
     RDKit          3D

 48 52  0  0  0  0  0  0  0  0999 V2000
  138.7960   77.0820  222.8060 O   0  0  0  0  0  0  0  0  0  0  0  0
  139.9460   76.5100  222.0250 S   0  0  0  0  0  0  0  0  0  0  0  0
  139.9370   75.0260  222.2510 O   0  0  0  0  0  0  0  0  0  0  0  0
  141.4400   77.2320  222.7310 C   0  0  0  0  0  0  0  0  0  0  0  0
  141.4190   78.7360  222.8010 C   0  0  0  0  0  0  0  0  0  0  0  0
  142.5590   79.4800  222.4530 C   0  0  0  0  0  0  0  0  0  0  0  0
  142.5640   80.8720  222.5940 C   0  0  0  0  0  0  0  0  0  0  0  0
  141.4400   81.5290  223.1010 C   0  0  0  0  0  0  0  0  0  0  0  0
  140.3100   80.7950  223.4730 C   0  0  0  0  0  0  0  0  0  0  0  0
  140.3000   79.4040  223.3290 C   0  0  0  0  0  0  0  0  0  0  0  0
  139.6580   76.9020  220.3280 N   0  0  0  0  0  0  0  0  0  0  0  0
  138.9780   78.2140  220.2420 C   0  0  0  0  0  0  0  0  0  0  0  0
  140.0410   79.1740  219.8580 C   0  0  0  0  0  0  0  0  0  0  0  0
  139.9650   80.5670  219.8090 C   0  0  0  0  0  0  0  0  0  0  0  0
  141.0580   81.2790  219.2900 C   0  0  0  0  0  0  0  0  0  0  0  0
  142.1790   80.5880  218.7920 C   0  0  0  0  0  0  0  0  0  0  0  0
  142.2160   79.1840  218.8270 C   0  0  0  0  0  0  0  0  0  0  0  0
  141.1470   78.5010  219.4190 C   0  0  0  0  0  0  0  0  0  0  0  0
  140.8620   77.0440  219.4570 C   0  0  1  0  0  0  0  0  0  0  0  0
  142.0210   76.1210  219.7710 C   0  0  0  0  0  0  0  0  0  0  0  0
  143.3820   76.4190  219.8400 C   0  0  0  0  0  0  0  0  0  0  0  0
  144.1020   75.3040  220.0950 N   0  0  0  0  0  0  0  0  0  0  0  0
  143.2160   74.2980  220.1700 C   0  0  0  0  0  0  0  0  0  0  0  0
  143.4850   72.9510  220.4090 C   0  0  0  0  0  0  0  0  0  0  0  0
  142.3960   72.0600  220.4400 C   0  0  0  0  0  0  0  0  0  0  0  0
  141.0810   72.5300  220.2320 C   0  0  0  0  0  0  0  0  0  0  0  0
  140.8410   73.8950  219.9920 C   0  0  0  0  0  0  0  0  0  0  0  0
  141.9400   74.7550  219.9680 C   0  0  0  0  0  0  0  0  0  0  0  0
  141.5650   76.8399  223.7511 H   0  0  0  0  0  0  0  0  0  0  0  0
  142.2718   76.9558  222.0664 H   0  0  0  0  0  0  0  0  0  0  0  0
  143.4518   78.9656  222.0679 H   0  0  0  0  0  0  0  0  0  0  0  0
  143.4542   81.4500  222.3052 H   0  0  0  0  0  0  0  0  0  0  0  0
  141.4443   82.6238  223.2074 H   0  0  0  0  0  0  0  0  0  0  0  0
  139.4281   81.3119  223.8793 H   0  0  0  0  0  0  0  0  0  0  0  0
  139.4118   78.8293  223.6304 H   0  0  0  0  0  0  0  0  0  0  0  0
  138.1857   78.1893  219.4794 H   0  0  0  0  0  0  0  0  0  0  0  0
  138.4944   78.4912  221.1903 H   0  0  0  0  0  0  0  0  0  0  0  0
  139.0694   81.0947  220.1688 H   0  0  0  0  0  0  0  0  0  0  0  0
  141.0385   82.3787  219.2724 H   0  0  0  0  0  0  0  0  0  0  0  0
  143.0281   81.1489  218.3744 H   0  0  0  0  0  0  0  0  0  0  0  0
  143.0664   78.6334  218.3985 H   0  0  0  0  0  0  0  0  0  0  0  0
  140.6618   76.6764  218.4398 H   0  0  0  0  0  0  0  0  0  0  0  0
  143.8103   77.4232  219.7054 H   0  0  0  0  0  0  0  0  0  0  0  0
  145.1400   75.2410  220.1980 H   0  0  0  0  0  0  0  0  0  0  0  0
  144.5141   72.5965  220.5680 H   0  0  0  0  0  0  0  0  0  0  0  0
  142.5705   70.9903  220.6276 H   0  0  0  0  0  0  0  0  0  0  0  0
  140.2381   71.8236  220.2578 H   0  0  0  0  0  0  0  0  0  0  0  0
  139.8207   74.2723  219.8286 H   0  0  0  0  0  0  0  0  0  0  0  0
  1  2  2  0
  2  3  2  0
  2  4  1  0
  4  5  1  0
  5  6  2  0
  6  7  1  0
  7  8  2  0
  8  9  1  0
  9 10  2  0
  2 11  1  0
 11 12  1  0
 12 13  1  0
 13 14  2  0
 14 15  1  0
 15 16  2  0
 16 17  1  0
 17 18  2  0
 18 19  1  0
 19 20  1  0
 20 21  2  0
 21 22  1  0
 22 23  1  0
 23 24  2  0
 24 25  1  0
 25 26  2  0
 26 27  1  0
 27 28  2  0
 10  5  1  0
 19 11  1  0
 28 20  1  0
 18 13  1  0
 28 23  1  0
  4 29  1  0
  4 30  1  0
  6 31  1  0
  7 32  1  0
  8 33  1  0
  9 34  1  0
 10 35  1  0
 12 36  1  0
 12 37  1  0
 14 38  1  0
 15 39  1  0
 16 40  1  0
 17 41  1  0
 19 42  1  6
 21 43  1  0
 22 44  1  0
 24 45  1  0
 25 46  1  0
 26 47  1  0
 27 48  1  0
M  END
>  <UniqueID>  (12) 
237

>  <SMILES>  (12) 
O=S(=O)(Cc1ccccc1)N1Cc2ccccc2[C@H]1c1c[nH]c2ccccc12

>  <Energy>  (12) 
89.91564993369039

>  <Genealogy>  (12) 
O=S(=O)(Cc1ccccc1)N1Cc2ccccc2[C@H]1c1c[nH]c2ccccc12 (3D coordinates assigned)
O=S(=O)(Cc1ccccc1)N1Cc2ccccc2[C@H]1c1c[nH]c2ccccc12 (nonaromatic ring conformer: 89.91564993369039 kcal/mol)

>  <smiles>  (12) 
O=S(=O)(Cc1ccccc1)N1Cc2ccccc2[C@H]1c1c[nH]c2ccccc12

>  <score_type>  (12) 
oracle

>  <origin>  (12) 
autodockgpu

>  <m_score__min__energy>  (12) 
-8.4100000000000001

>  <m_primary>  (12) 
energy

>  <meeko>  (12) 
{"free_energy": -6.72, "intermolecular_energy": -7.91, "internal_energy": -2.47, "cluster_size": 12, "cluster_id": 4, "rank_in_cluster": 7}

>  <energy>  (12) 
-6.72

>  <cluster_rmsd>  (12) 
0.04

>  <rmsd>  (12) 
269.43

>  <cluster>  (12) 
4

$$$$
WCZRIPJXOMUAPT-QHCPKHFHNA-N
     RDKit          3D

 48 52  0  0  0  0  0  0  0  0999 V2000
  141.4310   74.6110  221.8650 O   0  0  0  0  0  0  0  0  0  0  0  0
  141.3340   75.3770  220.5760 S   0  0  0  0  0  0  0  0  0  0  0  0
  140.7120   74.4590  219.5630 O   0  0  0  0  0  0  0  0  0  0  0  0
  143.0280   75.7690  220.0970 C   0  0  0  0  0  0  0  0  0  0  0  0
  143.9370   74.5710  220.0310 C   0  0  0  0  0  0  0  0  0  0  0  0
  143.5690   73.4380  219.2870 C   0  0  0  0  0  0  0  0  0  0  0  0
  144.3770   72.2960  219.2900 C   0  0  0  0  0  0  0  0  0  0  0  0
  145.5480   72.2700  220.0530 C   0  0  0  0  0  0  0  0  0  0  0  0
  145.9100   73.3820  220.8170 C   0  0  0  0  0  0  0  0  0  0  0  0
  145.1070   74.5270  220.8120 C   0  0  0  0  0  0  0  0  0  0  0  0
  140.3040   76.7770  220.8880 N   0  0  0  0  0  0  0  0  0  0  0  0
  140.2280   77.0070  222.3480 C   0  0  0  0  0  0  0  0  0  0  0  0
  141.1480   78.1400  222.6090 C   0  0  0  0  0  0  0  0  0  0  0  0
  141.5690   78.6410  223.8420 C   0  0  0  0  0  0  0  0  0  0  0  0
  142.3450   79.8110  223.8600 C   0  0  0  0  0  0  0  0  0  0  0  0
  142.6440   80.4780  222.6570 C   0  0  0  0  0  0  0  0  0  0  0  0
  142.1810   79.9690  221.4320 C   0  0  0  0  0  0  0  0  0  0  0  0
  141.4750   78.7600  221.4350 C   0  0  0  0  0  0  0  0  0  0  0  0
  140.7560   78.0830  220.3250 C   0  0  1  0  0  0  0  0  0  0  0  0
  141.4580   78.0210  218.9840 C   0  0  0  0  0  0  0  0  0  0  0  0
  142.6100   78.6880  218.5680 C   0  0  0  0  0  0  0  0  0  0  0  0
  142.8840   78.4060  217.2750 N   0  0  0  0  0  0  0  0  0  0  0  0
  141.9080   77.5820  216.8590 C   0  0  0  0  0  0  0  0  0  0  0  0
  141.7560   77.0250  215.5900 C   0  0  0  0  0  0  0  0  0  0  0  0
  140.6470   76.1870  215.3700 C   0  0  0  0  0  0  0  0  0  0  0  0
  139.7280   75.9290  216.4100 C   0  0  0  0  0  0  0  0  0  0  0  0
  139.9070   76.5070  217.6810 C   0  0  0  0  0  0  0  0  0  0  0  0
  141.0160   77.3330  217.8690 C   0  0  0  0  0  0  0  0  0  0  0  0
  143.0063   76.2422  219.1042 H   0  0  0  0  0  0  0  0  0  0  0  0
  143.4331   76.4342  220.8737 H   0  0  0  0  0  0  0  0  0  0  0  0
  142.6398   73.4487  218.6984 H   0  0  0  0  0  0  0  0  0  0  0  0
  144.0908   71.4183  218.6918 H   0  0  0  0  0  0  0  0  0  0  0  0
  146.1849   71.3731  220.0518 H   0  0  0  0  0  0  0  0  0  0  0  0
  146.8276   73.3571  221.4232 H   0  0  0  0  0  0  0  0  0  0  0  0
  145.3912   75.3975  221.4215 H   0  0  0  0  0  0  0  0  0  0  0  0
  139.2013   77.2670  222.6450 H   0  0  0  0  0  0  0  0  0  0  0  0
  140.5055   76.1103  222.9215 H   0  0  0  0  0  0  0  0  0  0  0  0
  141.2989   78.1307  224.7783 H   0  0  0  0  0  0  0  0  0  0  0  0
  142.7198   80.2069  224.8154 H   0  0  0  0  0  0  0  0  0  0  0  0
  143.2422   81.4009  222.6761 H   0  0  0  0  0  0  0  0  0  0  0  0
  142.3690   80.5082  220.4918 H   0  0  0  0  0  0  0  0  0  0  0  0
  139.8992   78.6952  220.0070 H   0  0  0  0  0  0  0  0  0  0  0  0
  143.2127   79.3523  219.2047 H   0  0  0  0  0  0  0  0  0  0  0  0
  143.6860   78.7700  216.7130 H   0  0  0  0  0  0  0  0  0  0  0  0
  142.4788   77.2336  214.7875 H   0  0  0  0  0  0  0  0  0  0  0  0
  140.4953   75.7300  214.3810 H   0  0  0  0  0  0  0  0  0  0  0  0
  138.8656   75.2714  216.2259 H   0  0  0  0  0  0  0  0  0  0  0  0
  139.1967   76.3141  218.4984 H   0  0  0  0  0  0  0  0  0  0  0  0
  1  2  2  0
  2  3  2  0
  2  4  1  0
  4  5  1  0
  5  6  2  0
  6  7  1  0
  7  8  2  0
  8  9  1  0
  9 10  2  0
  2 11  1  0
 11 12  1  0
 12 13  1  0
 13 14  2  0
 14 15  1  0
 15 16  2  0
 16 17  1  0
 17 18  2  0
 18 19  1  0
 19 20  1  0
 20 21  2  0
 21 22  1  0
 22 23  1  0
 23 24  2  0
 24 25  1  0
 25 26  2  0
 26 27  1  0
 27 28  2  0
 10  5  1  0
 19 11  1  0
 28 20  1  0
 18 13  1  0
 28 23  1  0
  4 29  1  0
  4 30  1  0
  6 31  1  0
  7 32  1  0
  8 33  1  0
  9 34  1  0
 10 35  1  0
 12 36  1  0
 12 37  1  0
 14 38  1  0
 15 39  1  0
 16 40  1  0
 17 41  1  0
 19 42  1  6
 21 43  1  0
 22 44  1  0
 24 45  1  0
 25 46  1  0
 26 47  1  0
 27 48  1  0
M  END
>  <UniqueID>  (13) 
237

>  <SMILES>  (13) 
O=S(=O)(Cc1ccccc1)N1Cc2ccccc2[C@H]1c1c[nH]c2ccccc12

>  <Energy>  (13) 
89.91564993369039

>  <Genealogy>  (13) 
O=S(=O)(Cc1ccccc1)N1Cc2ccccc2[C@H]1c1c[nH]c2ccccc12 (3D coordinates assigned)
O=S(=O)(Cc1ccccc1)N1Cc2ccccc2[C@H]1c1c[nH]c2ccccc12 (nonaromatic ring conformer: 89.91564993369039 kcal/mol)

>  <smiles>  (13) 
O=S(=O)(Cc1ccccc1)N1Cc2ccccc2[C@H]1c1c[nH]c2ccccc12

>  <score_type>  (13) 
oracle

>  <origin>  (13) 
autodockgpu

>  <m_score__min__energy>  (13) 
-8.4100000000000001

>  <m_primary>  (13) 
energy

>  <meeko>  (13) 
{"free_energy": -7.51, "intermolecular_energy": -8.7, "internal_energy": -1.71, "cluster_size": 5, "cluster_id": 2, "rank_in_cluster": 3}

>  <energy>  (13) 
-6.72

>  <cluster_rmsd>  (13) 
0.04

>  <rmsd>  (13) 
269.43

>  <cluster>  (13) 
4

$$$$
WCZRIPJXOMUAPT-QHCPKHFHNA-N
     RDKit          3D

 48 52  0  0  0  0  0  0  0  0999 V2000
  135.3640   68.7270  224.2060 O   0  0  0  0  0  0  0  0  0  0  0  0
  136.5200   69.6790  224.3310 S   0  0  0  0  0  0  0  0  0  0  0  0
  137.1520   69.4310  225.6700 O   0  0  0  0  0  0  0  0  0  0  0  0
  135.8110   71.3370  224.2800 C   0  0  0  0  0  0  0  0  0  0  0  0
  134.7290   71.5710  225.3010 C   0  0  0  0  0  0  0  0  0  0  0  0
  134.1290   72.8350  225.4220 C   0  0  0  0  0  0  0  0  0  0  0  0
  133.1800   73.0740  226.4230 C   0  0  0  0  0  0  0  0  0  0  0  0
  132.8400   72.0590  227.3210 C   0  0  0  0  0  0  0  0  0  0  0  0
  133.4500   70.8060  227.2240 C   0  0  0  0  0  0  0  0  0  0  0  0
  134.3950   70.5620  226.2220 C   0  0  0  0  0  0  0  0  0  0  0  0
  137.6370   69.3050  223.0160 N   0  0  0  0  0  0  0  0  0  0  0  0
  137.4190   70.2610  221.9070 C   0  0  0  0  0  0  0  0  0  0  0  0
  138.5260   71.2410  222.0200 C   0  0  0  0  0  0  0  0  0  0  0  0
  138.6890   72.4390  221.3220 C   0  0  0  0  0  0  0  0  0  0  0  0
  139.8840   73.1550  221.4920 C   0  0  0  0  0  0  0  0  0  0  0  0
  140.9050   72.6410  222.3150 C   0  0  0  0  0  0  0  0  0  0  0  0
  140.7260   71.4180  222.9820 C   0  0  0  0  0  0  0  0  0  0  0  0
  139.4960   70.7620  222.8560 C   0  0  0  0  0  0  0  0  0  0  0  0
  139.0940   69.4090  223.3220 C   0  0  1  0  0  0  0  0  0  0  0  0
  139.5090   69.0090  224.7220 C   0  0  0  0  0  0  0  0  0  0  0  0
  139.5350   67.7400  225.2980 C   0  0  0  0  0  0  0  0  0  0  0  0
  139.9180   67.8110  226.5930 N   0  0  0  0  0  0  0  0  0  0  0  0
  140.1170   69.1130  226.8510 C   0  0  0  0  0  0  0  0  0  0  0  0
  140.5150   69.6850  228.0590 C   0  0  0  0  0  0  0  0  0  0  0  0
  140.6580   71.0840  228.1080 C   0  0  0  0  0  0  0  0  0  0  0  0
  140.4030   71.8690  226.9630 C   0  0  0  0  0  0  0  0  0  0  0  0
  140.0020   71.2640  225.7570 C   0  0  0  0  0  0  0  0  0  0  0  0
  139.8690   69.8750  225.7390 C   0  0  0  0  0  0  0  0  0  0  0  0
  136.6174   72.0638  224.4575 H   0  0  0  0  0  0  0  0  0  0  0  0
  135.3459   71.4545  223.2901 H   0  0  0  0  0  0  0  0  0  0  0  0
  134.4061   73.6412  224.7268 H   0  0  0  0  0  0  0  0  0  0  0  0
  132.7017   74.0614  226.5026 H   0  0  0  0  0  0  0  0  0  0  0  0
  132.0915   72.2467  228.1049 H   0  0  0  0  0  0  0  0  0  0  0  0
  133.1869   70.0103  227.9365 H   0  0  0  0  0  0  0  0  0  0  0  0
  134.8791   69.5766  226.1541 H   0  0  0  0  0  0  0  0  0  0  0  0
  137.4588   69.7433  220.9372 H   0  0  0  0  0  0  0  0  0  0  0  0
  136.4326   70.7441  221.9666 H   0  0  0  0  0  0  0  0  0  0  0  0
  137.8990   72.8131  220.6542 H   0  0  0  0  0  0  0  0  0  0  0  0
  140.0235   74.1194  220.9816 H   0  0  0  0  0  0  0  0  0  0  0  0
  141.8452   73.1990  222.4357 H   0  0  0  0  0  0  0  0  0  0  0  0
  141.5344   70.9854  223.5898 H   0  0  0  0  0  0  0  0  0  0  0  0
  139.6684   68.6421  222.7816 H   0  0  0  0  0  0  0  0  0  0  0  0
  139.2791   66.8087  224.7715 H   0  0  0  0  0  0  0  0  0  0  0  0
  140.0220   67.0120  227.2580 H   0  0  0  0  0  0  0  0  0  0  0  0
  140.7108   69.0628  228.9447 H   0  0  0  0  0  0  0  0  0  0  0  0
  140.9705   71.5689  229.0446 H   0  0  0  0  0  0  0  0  0  0  0  0
  140.5185   72.9618  227.0135 H   0  0  0  0  0  0  0  0  0  0  0  0
  139.8002   71.8660  224.8587 H   0  0  0  0  0  0  0  0  0  0  0  0
  1  2  2  0
  2  3  2  0
  2  4  1  0
  4  5  1  0
  5  6  2  0
  6  7  1  0
  7  8  2  0
  8  9  1  0
  9 10  2  0
  2 11  1  0
 11 12  1  0
 12 13  1  0
 13 14  2  0
 14 15  1  0
 15 16  2  0
 16 17  1  0
 17 18  2  0
 18 19  1  0
 19 20  1  0
 20 21  2  0
 21 22  1  0
 22 23  1  0
 23 24  2  0
 24 25  1  0
 25 26  2  0
 26 27  1  0
 27 28  2  0
 10  5  1  0
 19 11  1  0
 28 20  1  0
 18 13  1  0
 28 23  1  0
  4 29  1  0
  4 30  1  0
  6 31  1  0
  7 32  1  0
  8 33  1  0
  9 34  1  0
 10 35  1  0
 12 36  1  0
 12 37  1  0
 14 38  1  0
 15 39  1  0
 16 40  1  0
 17 41  1  0
 19 42  1  6
 21 43  1  0
 22 44  1  0
 24 45  1  0
 25 46  1  0
 26 47  1  0
 27 48  1  0
M  END
>  <UniqueID>  (14) 
237

>  <SMILES>  (14) 
O=S(=O)(Cc1ccccc1)N1Cc2ccccc2[C@H]1c1c[nH]c2ccccc12

>  <Energy>  (14) 
89.91564993369039

>  <Genealogy>  (14) 
O=S(=O)(Cc1ccccc1)N1Cc2ccccc2[C@H]1c1c[nH]c2ccccc12 (3D coordinates assigned)
O=S(=O)(Cc1ccccc1)N1Cc2ccccc2[C@H]1c1c[nH]c2ccccc12 (nonaromatic ring conformer: 89.91564993369039 kcal/mol)

>  <smiles>  (14) 
O=S(=O)(Cc1ccccc1)N1Cc2ccccc2[C@H]1c1c[nH]c2ccccc12

>  <score_type>  (14) 
oracle

>  <origin>  (14) 
autodockgpu

>  <m_score__min__energy>  (14) 
-8.4100000000000001

>  <m_primary>  (14) 
energy

>  <meeko>  (14) 
{"free_energy": -8.35, "intermolecular_energy": -9.54, "internal_energy": -1.09, "cluster_size": 2, "cluster_id": 1, "rank_in_cluster": 2}

>  <energy>  (14) 
-6.72

>  <cluster_rmsd>  (14) 
0.04

>  <rmsd>  (14) 
269.44

>  <cluster>  (14) 
4

$$$$
WCZRIPJXOMUAPT-QHCPKHFHNA-N
     RDKit          3D

 48 52  0  0  0  0  0  0  0  0999 V2000
  138.7990   77.1980  222.8920 O   0  0  0  0  0  0  0  0  0  0  0  0
  139.9110   76.5840  222.0890 S   0  0  0  0  0  0  0  0  0  0  0  0
  139.8430   75.0990  222.3040 O   0  0  0  0  0  0  0  0  0  0  0  0
  141.4450   77.2370  222.7760 C   0  0  0  0  0  0  0  0  0  0  0  0
  141.4540   78.7330  222.9400 C   0  0  0  0  0  0  0  0  0  0  0  0
  140.3040   79.4060  223.3870 C   0  0  0  0  0  0  0  0  0  0  0  0
  140.2870   80.8030  223.4640 C   0  0  0  0  0  0  0  0  0  0  0  0
  141.4100   81.5390  223.0770 C   0  0  0  0  0  0  0  0  0  0  0  0
  142.5500   80.8800  222.6080 C   0  0  0  0  0  0  0  0  0  0  0  0
  142.5720   79.4840  222.5340 C   0  0  0  0  0  0  0  0  0  0  0  0
  139.6130   77.0000  220.3990 N   0  0  0  0  0  0  0  0  0  0  0  0
  138.9490   78.3210  220.3360 C   0  0  0  0  0  0  0  0  0  0  0  0
  140.0200   79.2730  219.9540 C   0  0  0  0  0  0  0  0  0  0  0  0
  139.9610   80.6680  219.9230 C   0  0  0  0  0  0  0  0  0  0  0  0
  141.0570   81.3720  219.4030 C   0  0  0  0  0  0  0  0  0  0  0  0
  142.1660   80.6740  218.8870 C   0  0  0  0  0  0  0  0  0  0  0  0
  142.1860   79.2690  218.9040 C   0  0  0  0  0  0  0  0  0  0  0  0
  141.1130   78.5930  219.4960 C   0  0  0  0  0  0  0  0  0  0  0  0
  140.8100   77.1380  219.5200 C   0  0  1  0  0  0  0  0  0  0  0  0
  141.9610   76.1980  219.8110 C   0  0  0  0  0  0  0  0  0  0  0  0
  143.3270   76.4750  219.8590 C   0  0  0  0  0  0  0  0  0  0  0  0
  144.0350   75.3480  220.0990 N   0  0  0  0  0  0  0  0  0  0  0  0
  143.1350   74.3550  220.1850 C   0  0  0  0  0  0  0  0  0  0  0  0
  143.3880   73.0040  220.4150 C   0  0  0  0  0  0  0  0  0  0  0  0
  142.2860   72.1290  220.4610 C   0  0  0  0  0  0  0  0  0  0  0  0
  140.9750   72.6190  220.2760 C   0  0  0  0  0  0  0  0  0  0  0  0
  140.7510   73.9880  220.0440 C   0  0  0  0  0  0  0  0  0  0  0  0
  141.8630   74.8320  220.0050 C   0  0  0  0  0  0  0  0  0  0  0  0
  141.6039   76.7797  223.7638 H   0  0  0  0  0  0  0  0  0  0  0  0
  142.2442   76.9902  222.0616 H   0  0  0  0  0  0  0  0  0  0  0  0
  139.4123   78.8313  223.6779 H   0  0  0  0  0  0  0  0  0  0  0  0
  139.3888   81.3223  223.8295 H   0  0  0  0  0  0  0  0  0  0  0  0
  141.3969   82.6370  223.1414 H   0  0  0  0  0  0  0  0  0  0  0  0
  143.4310   81.4605  222.2967 H   0  0  0  0  0  0  0  0  0  0  0  0
  143.4683   78.9702  222.1563 H   0  0  0  0  0  0  0  0  0  0  0  0
  138.1493   78.3158  219.5807 H   0  0  0  0  0  0  0  0  0  0  0  0
  138.4781   78.5920  221.2925 H   0  0  0  0  0  0  0  0  0  0  0  0
  139.0755   81.2022  220.2977 H   0  0  0  0  0  0  0  0  0  0  0  0
  141.0503   82.4720  219.3982 H   0  0  0  0  0  0  0  0  0  0  0  0
  143.0185   81.2299  218.4697 H   0  0  0  0  0  0  0  0  0  0  0  0
  143.0260   78.7131  218.4620 H   0  0  0  0  0  0  0  0  0  0  0  0
  140.5951   76.7843  218.5008 H   0  0  0  0  0  0  0  0  0  0  0  0
  143.7680   77.4732  219.7206 H   0  0  0  0  0  0  0  0  0  0  0  0
  145.0730   75.2700  220.1850 H   0  0  0  0  0  0  0  0  0  0  0  0
  144.4142   72.6337  220.5559 H   0  0  0  0  0  0  0  0  0  0  0  0
  142.4476   71.0562  220.6423 H   0  0  0  0  0  0  0  0  0  0  0  0
  140.1224   71.9250  220.3136 H   0  0  0  0  0  0  0  0  0  0  0  0
  139.7339   74.3808  219.8982 H   0  0  0  0  0  0  0  0  0  0  0  0
  1  2  2  0
  2  3  2  0
  2  4  1  0
  4  5  1  0
  5  6  2  0
  6  7  1  0
  7  8  2  0
  8  9  1  0
  9 10  2  0
  2 11  1  0
 11 12  1  0
 12 13  1  0
 13 14  2  0
 14 15  1  0
 15 16  2  0
 16 17  1  0
 17 18  2  0
 18 19  1  0
 19 20  1  0
 20 21  2  0
 21 22  1  0
 22 23  1  0
 23 24  2  0
 24 25  1  0
 25 26  2  0
 26 27  1  0
 27 28  2  0
 10  5  1  0
 19 11  1  0
 28 20  1  0
 18 13  1  0
 28 23  1  0
  4 29  1  0
  4 30  1  0
  6 31  1  0
  7 32  1  0
  8 33  1  0
  9 34  1  0
 10 35  1  0
 12 36  1  0
 12 37  1  0
 14 38  1  0
 15 39  1  0
 16 40  1  0
 17 41  1  0
 19 42  1  6
 21 43  1  0
 22 44  1  0
 24 45  1  0
 25 46  1  0
 26 47  1  0
 27 48  1  0
M  END
>  <UniqueID>  (15) 
237

>  <SMILES>  (15) 
O=S(=O)(Cc1ccccc1)N1Cc2ccccc2[C@H]1c1c[nH]c2ccccc12

>  <Energy>  (15) 
89.91564993369039

>  <Genealogy>  (15) 
O=S(=O)(Cc1ccccc1)N1Cc2ccccc2[C@H]1c1c[nH]c2ccccc12 (3D coordinates assigned)
O=S(=O)(Cc1ccccc1)N1Cc2ccccc2[C@H]1c1c[nH]c2ccccc12 (nonaromatic ring conformer: 89.91564993369039 kcal/mol)

>  <smiles>  (15) 
O=S(=O)(Cc1ccccc1)N1Cc2ccccc2[C@H]1c1c[nH]c2ccccc12

>  <score_type>  (15) 
oracle

>  <origin>  (15) 
autodockgpu

>  <m_score__min__energy>  (15) 
-8.4100000000000001

>  <m_primary>  (15) 
energy

>  <meeko>  (15) 
{"free_energy": -6.67, "intermolecular_energy": -7.87, "internal_energy": -2.45, "cluster_size": 12, "cluster_id": 4, "rank_in_cluster": 12}

>  <energy>  (15) 
-6.72

>  <cluster_rmsd>  (15) 
0.04

>  <rmsd>  (15) 
269.43

>  <cluster>  (15) 
4

$$$$
WCZRIPJXOMUAPT-QHCPKHFHNA-N
     RDKit          3D

 48 52  0  0  0  0  0  0  0  0999 V2000
  141.4430   74.6150  221.8430 O   0  0  0  0  0  0  0  0  0  0  0  0
  141.3520   75.3890  220.5580 S   0  0  0  0  0  0  0  0  0  0  0  0
  140.7430   74.4740  219.5350 O   0  0  0  0  0  0  0  0  0  0  0  0
  143.0470   75.7930  220.0940 C   0  0  0  0  0  0  0  0  0  0  0  0
  143.9620   74.5990  220.0210 C   0  0  0  0  0  0  0  0  0  0  0  0
  143.6220   73.4900  219.2280 C   0  0  0  0  0  0  0  0  0  0  0  0
  144.4330   72.3500  219.2220 C   0  0  0  0  0  0  0  0  0  0  0  0
  145.5780   72.3020  220.0230 C   0  0  0  0  0  0  0  0  0  0  0  0
  145.9100   73.3900  220.8340 C   0  0  0  0  0  0  0  0  0  0  0  0
  145.1040   74.5330  220.8380 C   0  0  0  0  0  0  0  0  0  0  0  0
  140.3120   76.7810  220.8710 N   0  0  0  0  0  0  0  0  0  0  0  0
  140.2280   77.0040  222.3320 C   0  0  0  0  0  0  0  0  0  0  0  0
  141.1390   78.1420  222.6020 C   0  0  0  0  0  0  0  0  0  0  0  0
  141.5520   78.6390  223.8400 C   0  0  0  0  0  0  0  0  0  0  0  0
  142.3200   79.8140  223.8660 C   0  0  0  0  0  0  0  0  0  0  0  0
  142.6200   80.4880  222.6670 C   0  0  0  0  0  0  0  0  0  0  0  0
  142.1670   79.9810  221.4380 C   0  0  0  0  0  0  0  0  0  0  0  0
  141.4680   78.7690  221.4320 C   0  0  0  0  0  0  0  0  0  0  0  0
  140.7580   78.0920  220.3160 C   0  0  1  0  0  0  0  0  0  0  0  0
  141.4670   78.0400  218.9780 C   0  0  0  0  0  0  0  0  0  0  0  0
  142.6170   78.7150  218.5710 C   0  0  0  0  0  0  0  0  0  0  0  0
  142.8990   78.4410  217.2770 N   0  0  0  0  0  0  0  0  0  0  0  0
  141.9300   77.6140  216.8530 C   0  0  0  0  0  0  0  0  0  0  0  0
  141.7860   77.0620  215.5810 C   0  0  0  0  0  0  0  0  0  0  0  0
  140.6830   76.2190  215.3510 C   0  0  0  0  0  0  0  0  0  0  0  0
  139.7600   75.9520  216.3860 C   0  0  0  0  0  0  0  0  0  0  0  0
  139.9300   76.5240  217.6600 C   0  0  0  0  0  0  0  0  0  0  0  0
  141.0340   77.3550  217.8570 C   0  0  0  0  0  0  0  0  0  0  0  0
  143.0295   76.2766  219.1062 H   0  0  0  0  0  0  0  0  0  0  0  0
  143.4444   76.4516  220.8803 H   0  0  0  0  0  0  0  0  0  0  0  0
  142.7134   73.5183  218.6086 H   0  0  0  0  0  0  0  0  0  0  0  0
  144.1698   71.4912  218.5870 H   0  0  0  0  0  0  0  0  0  0  0  0
  146.2177   71.4072  220.0146 H   0  0  0  0  0  0  0  0  0  0  0  0
  146.8064   73.3477  221.4702 H   0  0  0  0  0  0  0  0  0  0  0  0
  145.3650   75.3845  221.4836 H   0  0  0  0  0  0  0  0  0  0  0  0
  139.1982   77.2556  222.6257 H   0  0  0  0  0  0  0  0  0  0  0  0
  140.5091   76.1066  222.9027 H   0  0  0  0  0  0  0  0  0  0  0  0
  141.2820   78.1221  224.7727 H   0  0  0  0  0  0  0  0  0  0  0  0
  142.6879   80.2085  224.8246 H   0  0  0  0  0  0  0  0  0  0  0  0
  143.2114   81.4152  222.6928 H   0  0  0  0  0  0  0  0  0  0  0  0
  142.3576   80.5247  220.5010 H   0  0  0  0  0  0  0  0  0  0  0  0
  139.8985   78.6999  219.9971 H   0  0  0  0  0  0  0  0  0  0  0  0
  143.2131   79.3792  219.2140 H   0  0  0  0  0  0  0  0  0  0  0  0
  143.7020   78.8110  216.7210 H   0  0  0  0  0  0  0  0  0  0  0  0
  142.5113   77.2784  214.7828 H   0  0  0  0  0  0  0  0  0  0  0  0
  140.5389   75.7654  214.3593 H   0  0  0  0  0  0  0  0  0  0  0  0
  138.9014   75.2916  216.1945 H   0  0  0  0  0  0  0  0  0  0  0  0
  139.2171   76.3232  218.4733 H   0  0  0  0  0  0  0  0  0  0  0  0
  1  2  2  0
  2  3  2  0
  2  4  1  0
  4  5  1  0
  5  6  2  0
  6  7  1  0
  7  8  2  0
  8  9  1  0
  9 10  2  0
  2 11  1  0
 11 12  1  0
 12 13  1  0
 13 14  2  0
 14 15  1  0
 15 16  2  0
 16 17  1  0
 17 18  2  0
 18 19  1  0
 19 20  1  0
 20 21  2  0
 21 22  1  0
 22 23  1  0
 23 24  2  0
 24 25  1  0
 25 26  2  0
 26 27  1  0
 27 28  2  0
 10  5  1  0
 19 11  1  0
 28 20  1  0
 18 13  1  0
 28 23  1  0
  4 29  1  0
  4 30  1  0
  6 31  1  0
  7 32  1  0
  8 33  1  0
  9 34  1  0
 10 35  1  0
 12 36  1  0
 12 37  1  0
 14 38  1  0
 15 39  1  0
 16 40  1  0
 17 41  1  0
 19 42  1  6
 21 43  1  0
 22 44  1  0
 24 45  1  0
 25 46  1  0
 26 47  1  0
 27 48  1  0
M  END
>  <UniqueID>  (16) 
237

>  <SMILES>  (16) 
O=S(=O)(Cc1ccccc1)N1Cc2ccccc2[C@H]1c1c[nH]c2ccccc12

>  <Energy>  (16) 
89.91564993369039

>  <Genealogy>  (16) 
O=S(=O)(Cc1ccccc1)N1Cc2ccccc2[C@H]1c1c[nH]c2ccccc12 (3D coordinates assigned)
O=S(=O)(Cc1ccccc1)N1Cc2ccccc2[C@H]1c1c[nH]c2ccccc12 (nonaromatic ring conformer: 89.91564993369039 kcal/mol)

>  <smiles>  (16) 
O=S(=O)(Cc1ccccc1)N1Cc2ccccc2[C@H]1c1c[nH]c2ccccc12

>  <score_type>  (16) 
oracle

>  <origin>  (16) 
autodockgpu

>  <m_score__min__energy>  (16) 
-8.4100000000000001

>  <m_primary>  (16) 
energy

>  <meeko>  (16) 
{"free_energy": -7.5, "intermolecular_energy": -8.7, "internal_energy": -1.72, "cluster_size": 5, "cluster_id": 2, "rank_in_cluster": 4}

>  <energy>  (16) 
-6.72

>  <cluster_rmsd>  (16) 
0.04

>  <rmsd>  (16) 
269.43

>  <cluster>  (16) 
4

$$$$
WCZRIPJXOMUAPT-QHCPKHFHNA-N
     RDKit          3D

 48 52  0  0  0  0  0  0  0  0999 V2000
  138.7880   77.0650  222.8120 O   0  0  0  0  0  0  0  0  0  0  0  0
  139.9420   76.5030  222.0300 S   0  0  0  0  0  0  0  0  0  0  0  0
  139.9440   75.0180  222.2530 O   0  0  0  0  0  0  0  0  0  0  0  0
  141.4300   77.2360  222.7370 C   0  0  0  0  0  0  0  0  0  0  0  0
  141.4000   78.7390  222.8050 C   0  0  0  0  0  0  0  0  0  0  0  0
  142.5360   79.4900  222.4600 C   0  0  0  0  0  0  0  0  0  0  0  0
  142.5330   80.8820  222.5980 C   0  0  0  0  0  0  0  0  0  0  0  0
  141.4030   81.5330  223.1010 C   0  0  0  0  0  0  0  0  0  0  0  0
  140.2770   80.7930  223.4710 C   0  0  0  0  0  0  0  0  0  0  0  0
  140.2750   79.4020  223.3290 C   0  0  0  0  0  0  0  0  0  0  0  0
  139.6510   76.8960  220.3330 N   0  0  0  0  0  0  0  0  0  0  0  0
  138.9660   78.2050  220.2490 C   0  0  0  0  0  0  0  0  0  0  0  0
  140.0240   79.1710  219.8660 C   0  0  0  0  0  0  0  0  0  0  0  0
  139.9430   80.5630  219.8180 C   0  0  0  0  0  0  0  0  0  0  0  0
  141.0320   81.2800  219.3000 C   0  0  0  0  0  0  0  0  0  0  0  0
  142.1560   80.5940  218.8000 C   0  0  0  0  0  0  0  0  0  0  0  0
  142.1990   79.1910  218.8330 C   0  0  0  0  0  0  0  0  0  0  0  0
  141.1330   78.5030  219.4250 C   0  0  0  0  0  0  0  0  0  0  0  0
  140.8530   77.0440  219.4620 C   0  0  1  0  0  0  0  0  0  0  0  0
  142.0170   76.1260  219.7730 C   0  0  0  0  0  0  0  0  0  0  0  0
  143.3760   76.4290  219.8420 C   0  0  0  0  0  0  0  0  0  0  0  0
  144.1020   75.3160  220.0950 N   0  0  0  0  0  0  0  0  0  0  0  0
  143.2190   74.3060  220.1690 C   0  0  0  0  0  0  0  0  0  0  0  0
  143.4940   72.9600  220.4060 C   0  0  0  0  0  0  0  0  0  0  0  0
  142.4090   72.0650  220.4360 C   0  0  0  0  0  0  0  0  0  0  0  0
  141.0910   72.5290  220.2290 C   0  0  0  0  0  0  0  0  0  0  0  0
  140.8460   73.8940  219.9910 C   0  0  0  0  0  0  0  0  0  0  0  0
  141.9410   74.7580  219.9680 C   0  0  0  0  0  0  0  0  0  0  0  0
  141.5559   76.8462  223.7579 H   0  0  0  0  0  0  0  0  0  0  0  0
  142.2642   76.9644  222.0735 H   0  0  0  0  0  0  0  0  0  0  0  0
  143.4333   78.9803  222.0791 H   0  0  0  0  0  0  0  0  0  0  0  0
  143.4206   81.4647  222.3105 H   0  0  0  0  0  0  0  0  0  0  0  0
  141.4002   82.6280  223.2056 H   0  0  0  0  0  0  0  0  0  0  0  0
  139.3911   81.3053  223.8744 H   0  0  0  0  0  0  0  0  0  0  0  0
  139.3891   78.8228  223.6286 H   0  0  0  0  0  0  0  0  0  0  0  0
  138.1735   78.1779  219.4866 H   0  0  0  0  0  0  0  0  0  0  0  0
  138.4822   78.4786  221.1983 H   0  0  0  0  0  0  0  0  0  0  0  0
  139.0452   81.0867  220.1783 H   0  0  0  0  0  0  0  0  0  0  0  0
  141.0080   82.3796  219.2843 H   0  0  0  0  0  0  0  0  0  0  0  0
  143.0025   81.1590  218.3825 H   0  0  0  0  0  0  0  0  0  0  0  0
  143.0514   78.6444  218.4032 H   0  0  0  0  0  0  0  0  0  0  0  0
  140.6519   76.6761  218.4450 H   0  0  0  0  0  0  0  0  0  0  0  0
  143.7999   77.4353  219.7089 H   0  0  0  0  0  0  0  0  0  0  0  0
  145.1390   75.2570  220.1970 H   0  0  0  0  0  0  0  0  0  0  0  0
  144.5246   72.6096  220.5642 H   0  0  0  0  0  0  0  0  0  0  0  0
  142.5884   70.9958  220.6221 H   0  0  0  0  0  0  0  0  0  0  0  0
  140.2512   71.8190  220.2540 H   0  0  0  0  0  0  0  0  0  0  0  0
  139.8243   74.2676  219.8284 H   0  0  0  0  0  0  0  0  0  0  0  0
  1  2  2  0
  2  3  2  0
  2  4  1  0
  4  5  1  0
  5  6  2  0
  6  7  1  0
  7  8  2  0
  8  9  1  0
  9 10  2  0
  2 11  1  0
 11 12  1  0
 12 13  1  0
 13 14  2  0
 14 15  1  0
 15 16  2  0
 16 17  1  0
 17 18  2  0
 18 19  1  0
 19 20  1  0
 20 21  2  0
 21 22  1  0
 22 23  1  0
 23 24  2  0
 24 25  1  0
 25 26  2  0
 26 27  1  0
 27 28  2  0
 10  5  1  0
 19 11  1  0
 28 20  1  0
 18 13  1  0
 28 23  1  0
  4 29  1  0
  4 30  1  0
  6 31  1  0
  7 32  1  0
  8 33  1  0
  9 34  1  0
 10 35  1  0
 12 36  1  0
 12 37  1  0
 14 38  1  0
 15 39  1  0
 16 40  1  0
 17 41  1  0
 19 42  1  6
 21 43  1  0
 22 44  1  0
 24 45  1  0
 25 46  1  0
 26 47  1  0
 27 48  1  0
M  END
>  <UniqueID>  (17) 
237

>  <SMILES>  (17) 
O=S(=O)(Cc1ccccc1)N1Cc2ccccc2[C@H]1c1c[nH]c2ccccc12

>  <Energy>  (17) 
89.91564993369039

>  <Genealogy>  (17) 
O=S(=O)(Cc1ccccc1)N1Cc2ccccc2[C@H]1c1c[nH]c2ccccc12 (3D coordinates assigned)
O=S(=O)(Cc1ccccc1)N1Cc2ccccc2[C@H]1c1c[nH]c2ccccc12 (nonaromatic ring conformer: 89.91564993369039 kcal/mol)

>  <smiles>  (17) 
O=S(=O)(Cc1ccccc1)N1Cc2ccccc2[C@H]1c1c[nH]c2ccccc12

>  <score_type>  (17) 
oracle

>  <origin>  (17) 
autodockgpu

>  <m_score__min__energy>  (17) 
-8.4100000000000001

>  <m_primary>  (17) 
energy

>  <meeko>  (17) 
{"free_energy": -6.72, "intermolecular_energy": -7.91, "internal_energy": -2.47, "cluster_size": 12, "cluster_id": 4, "rank_in_cluster": 3}

>  <energy>  (17) 
-6.72

>  <cluster_rmsd>  (17) 
0.02

>  <rmsd>  (17) 
269.44

>  <cluster>  (17) 
4

$$$$
WCZRIPJXOMUAPT-QHCPKHFHNA-N
     RDKit          3D

 48 52  0  0  0  0  0  0  0  0999 V2000
  141.1060   74.7290  221.7920 O   0  0  0  0  0  0  0  0  0  0  0  0
  141.0840   75.5440  220.5290 S   0  0  0  0  0  0  0  0  0  0  0  0
  140.4290   74.7020  219.4730 O   0  0  0  0  0  0  0  0  0  0  0  0
  142.8080   75.8450  220.0970 C   0  0  0  0  0  0  0  0  0  0  0  0
  143.6760   74.6160  220.1490 C   0  0  0  0  0  0  0  0  0  0  0  0
  143.1110   73.3400  219.9840 C   0  0  0  0  0  0  0  0  0  0  0  0
  143.9050   72.1940  220.1110 C   0  0  0  0  0  0  0  0  0  0  0  0
  145.2620   72.3130  220.4230 C   0  0  0  0  0  0  0  0  0  0  0  0
  145.8270   73.5770  220.6140 C   0  0  0  0  0  0  0  0  0  0  0  0
  145.0380   74.7240  220.4830 C   0  0  0  0  0  0  0  0  0  0  0  0
  140.1360   76.9940  220.8720 N   0  0  0  0  0  0  0  0  0  0  0  0
  140.0810   77.2020  222.3360 C   0  0  0  0  0  0  0  0  0  0  0  0
  141.0640   78.2770  222.6110 C   0  0  0  0  0  0  0  0  0  0  0  0
  141.5190   78.7320  223.8500 C   0  0  0  0  0  0  0  0  0  0  0  0
  142.3590   79.8550  223.8830 C   0  0  0  0  0  0  0  0  0  0  0  0
  142.6890   80.5260  222.6890 C   0  0  0  0  0  0  0  0  0  0  0  0
  142.1930   80.0650  221.4590 C   0  0  0  0  0  0  0  0  0  0  0  0
  141.4190   78.8980  221.4450 C   0  0  0  0  0  0  0  0  0  0  0  0
  140.6580   78.2820  220.3280 C   0  0  1  0  0  0  0  0  0  0  0  0
  141.3480   78.2040  218.9820 C   0  0  0  0  0  0  0  0  0  0  0  0
  142.5560   78.7770  218.5840 C   0  0  0  0  0  0  0  0  0  0  0  0
  142.8000   78.5180  217.2800 N   0  0  0  0  0  0  0  0  0  0  0  0
  141.7520   77.8020  216.8400 C   0  0  0  0  0  0  0  0  0  0  0  0
  141.5460   77.3080  215.5530 C   0  0  0  0  0  0  0  0  0  0  0  0
  140.3650   76.5830  215.3100 C   0  0  0  0  0  0  0  0  0  0  0  0
  139.4280   76.3740  216.3440 C   0  0  0  0  0  0  0  0  0  0  0  0
  139.6620   76.8860  217.6340 C   0  0  0  0  0  0  0  0  0  0  0  0
  140.8420   77.6000  217.8460 C   0  0  0  0  0  0  0  0  0  0  0  0
  142.8428   76.2500  219.0749 H   0  0  0  0  0  0  0  0  0  0  0  0
  143.2055   76.5471  220.8447 H   0  0  0  0  0  0  0  0  0  0  0  0
  142.0399   73.2411  219.7540 H   0  0  0  0  0  0  0  0  0  0  0  0
  143.4602   71.1986  219.9650 H   0  0  0  0  0  0  0  0  0  0  0  0
  145.8855   71.4118  220.5183 H   0  0  0  0  0  0  0  0  0  0  0  0
  146.8933   73.6696  220.8676 H   0  0  0  0  0  0  0  0  0  0  0  0
  145.4850   75.7164  220.6421 H   0  0  0  0  0  0  0  0  0  0  0  0
  139.0720   77.5134  222.6441 H   0  0  0  0  0  0  0  0  0  0  0  0
  140.3113   76.2811  222.8919 H   0  0  0  0  0  0  0  0  0  0  0  0
  141.2255   78.2215  224.7791 H   0  0  0  0  0  0  0  0  0  0  0  0
  142.7607   80.2123  224.8427 H   0  0  0  0  0  0  0  0  0  0  0  0
  143.3374   81.4140  222.7205 H   0  0  0  0  0  0  0  0  0  0  0  0
  142.4076   80.6085  220.5270 H   0  0  0  0  0  0  0  0  0  0  0  0
  139.8357   78.9468  220.0250 H   0  0  0  0  0  0  0  0  0  0  0  0
  143.2187   79.3594  219.2409 H   0  0  0  0  0  0  0  0  0  0  0  0
  143.6310   78.8260  216.7270 H   0  0  0  0  0  0  0  0  0  0  0  0
  142.2823   77.4793  214.7539 H   0  0  0  0  0  0  0  0  0  0  0  0
  140.1707   76.1762  214.3066 H   0  0  0  0  0  0  0  0  0  0  0  0
  138.5078   75.8067  216.1404 H   0  0  0  0  0  0  0  0  0  0  0  0
  138.9389   76.7286  218.4478 H   0  0  0  0  0  0  0  0  0  0  0  0
  1  2  2  0
  2  3  2  0
  2  4  1  0
  4  5  1  0
  5  6  2  0
  6  7  1  0
  7  8  2  0
  8  9  1  0
  9 10  2  0
  2 11  1  0
 11 12  1  0
 12 13  1  0
 13 14  2  0
 14 15  1  0
 15 16  2  0
 16 17  1  0
 17 18  2  0
 18 19  1  0
 19 20  1  0
 20 21  2  0
 21 22  1  0
 22 23  1  0
 23 24  2  0
 24 25  1  0
 25 26  2  0
 26 27  1  0
 27 28  2  0
 10  5  1  0
 19 11  1  0
 28 20  1  0
 18 13  1  0
 28 23  1  0
  4 29  1  0
  4 30  1  0
  6 31  1  0
  7 32  1  0
  8 33  1  0
  9 34  1  0
 10 35  1  0
 12 36  1  0
 12 37  1  0
 14 38  1  0
 15 39  1  0
 16 40  1  0
 17 41  1  0
 19 42  1  6
 21 43  1  0
 22 44  1  0
 24 45  1  0
 25 46  1  0
 26 47  1  0
 27 48  1  0
M  END
>  <UniqueID>  (18) 
237

>  <SMILES>  (18) 
O=S(=O)(Cc1ccccc1)N1Cc2ccccc2[C@H]1c1c[nH]c2ccccc12

>  <Energy>  (18) 
89.91564993369039

>  <Genealogy>  (18) 
O=S(=O)(Cc1ccccc1)N1Cc2ccccc2[C@H]1c1c[nH]c2ccccc12 (3D coordinates assigned)
O=S(=O)(Cc1ccccc1)N1Cc2ccccc2[C@H]1c1c[nH]c2ccccc12 (nonaromatic ring conformer: 89.91564993369039 kcal/mol)

>  <smiles>  (18) 
O=S(=O)(Cc1ccccc1)N1Cc2ccccc2[C@H]1c1c[nH]c2ccccc12

>  <score_type>  (18) 
oracle

>  <origin>  (18) 
autodockgpu

>  <m_score__min__energy>  (18) 
-8.4100000000000001

>  <m_primary>  (18) 
energy

>  <meeko>  (18) 
{"free_energy": -7.53, "intermolecular_energy": -8.72, "internal_energy": -1.7, "cluster_size": 5, "cluster_id": 2, "rank_in_cluster": 1}

>  <energy>  (18) 
-6.71

>  <cluster_rmsd>  (18) 
0.02

>  <rmsd>  (18) 
269.43

>  <cluster>  (18) 
4

$$$$
WCZRIPJXOMUAPT-QHCPKHFHNA-N
     RDKit          3D

 48 52  0  0  0  0  0  0  0  0999 V2000
  138.8040   77.0670  222.8310 O   0  0  0  0  0  0  0  0  0  0  0  0
  139.9540   76.5020  222.0460 S   0  0  0  0  0  0  0  0  0  0  0  0
  139.9540   75.0180  222.2700 O   0  0  0  0  0  0  0  0  0  0  0  0
  141.4470   77.2320  222.7470 C   0  0  0  0  0  0  0  0  0  0  0  0
  141.4210   78.7360  222.8110 C   0  0  0  0  0  0  0  0  0  0  0  0
  142.5610   79.4820  222.4660 C   0  0  0  0  0  0  0  0  0  0  0  0
  142.5610   80.8740  222.6010 C   0  0  0  0  0  0  0  0  0  0  0  0
  141.4330   81.5300  223.1000 C   0  0  0  0  0  0  0  0  0  0  0  0
  140.3030   80.7950  223.4700 C   0  0  0  0  0  0  0  0  0  0  0  0
  140.2970   79.4030  223.3310 C   0  0  0  0  0  0  0  0  0  0  0  0
  139.6570   76.8940  220.3500 N   0  0  0  0  0  0  0  0  0  0  0  0
  138.9730   78.2030  220.2670 C   0  0  0  0  0  0  0  0  0  0  0  0
  140.0300   79.1680  219.8800 C   0  0  0  0  0  0  0  0  0  0  0  0
  139.9490   80.5610  219.8320 C   0  0  0  0  0  0  0  0  0  0  0  0
  141.0370   81.2770  219.3090 C   0  0  0  0  0  0  0  0  0  0  0  0
  142.1590   80.5900  218.8060 C   0  0  0  0  0  0  0  0  0  0  0  0
  142.2010   79.1860  218.8400 C   0  0  0  0  0  0  0  0  0  0  0  0
  141.1370   78.4990  219.4350 C   0  0  0  0  0  0  0  0  0  0  0  0
  140.8570   77.0400  219.4740 C   0  0  1  0  0  0  0  0  0  0  0  0
  142.0210   76.1220  219.7830 C   0  0  0  0  0  0  0  0  0  0  0  0
  143.3810   76.4250  219.8470 C   0  0  0  0  0  0  0  0  0  0  0  0
  144.1060   75.3120  220.0980 N   0  0  0  0  0  0  0  0  0  0  0  0
  143.2240   74.3030  220.1750 C   0  0  0  0  0  0  0  0  0  0  0  0
  143.4990   72.9570  220.4120 C   0  0  0  0  0  0  0  0  0  0  0  0
  142.4130   72.0610  220.4460 C   0  0  0  0  0  0  0  0  0  0  0  0
  141.0960   72.5270  220.2440 C   0  0  0  0  0  0  0  0  0  0  0  0
  140.8500   73.8920  220.0060 C   0  0  0  0  0  0  0  0  0  0  0  0
  141.9460   74.7550  219.9780 C   0  0  0  0  0  0  0  0  0  0  0  0
  141.5749   76.8444  223.7685 H   0  0  0  0  0  0  0  0  0  0  0  0
  142.2788   76.9560  222.0822 H   0  0  0  0  0  0  0  0  0  0  0  0
  143.4574   78.9686  222.0880 H   0  0  0  0  0  0  0  0  0  0  0  0
  143.4508   81.4534  222.3137 H   0  0  0  0  0  0  0  0  0  0  0  0
  141.4341   82.6253  223.2018 H   0  0  0  0  0  0  0  0  0  0  0  0
  139.4182   81.3113  223.8706 H   0  0  0  0  0  0  0  0  0  0  0  0
  139.4087   78.8271  223.6299 H   0  0  0  0  0  0  0  0  0  0  0  0
  138.1781   78.1758  219.5071 H   0  0  0  0  0  0  0  0  0  0  0  0
  138.4926   78.4777  221.2176 H   0  0  0  0  0  0  0  0  0  0  0  0
  139.0530   81.0853  220.1957 H   0  0  0  0  0  0  0  0  0  0  0  0
  141.0134   82.3766  219.2919 H   0  0  0  0  0  0  0  0  0  0  0  0
  143.0045   81.1541  218.3855 H   0  0  0  0  0  0  0  0  0  0  0  0
  143.0519   78.6387  218.4082 H   0  0  0  0  0  0  0  0  0  0  0  0
  140.6533   76.6710  218.4580 H   0  0  0  0  0  0  0  0  0  0  0  0
  143.8051   77.4309  219.7119 H   0  0  0  0  0  0  0  0  0  0  0  0
  145.1440   75.2530  220.1970 H   0  0  0  0  0  0  0  0  0  0  0  0
  144.5300   72.6064  220.5673 H   0  0  0  0  0  0  0  0  0  0  0  0
  142.5922   70.9916  220.6311 H   0  0  0  0  0  0  0  0  0  0  0  0
  140.2556   71.8178  220.2728 H   0  0  0  0  0  0  0  0  0  0  0  0
  139.8278   74.2661  219.8473 H   0  0  0  0  0  0  0  0  0  0  0  0
  1  2  2  0
  2  3  2  0
  2  4  1  0
  4  5  1  0
  5  6  2  0
  6  7  1  0
  7  8  2  0
  8  9  1  0
  9 10  2  0
  2 11  1  0
 11 12  1  0
 12 13  1  0
 13 14  2  0
 14 15  1  0
 15 16  2  0
 16 17  1  0
 17 18  2  0
 18 19  1  0
 19 20  1  0
 20 21  2  0
 21 22  1  0
 22 23  1  0
 23 24  2  0
 24 25  1  0
 25 26  2  0
 26 27  1  0
 27 28  2  0
 10  5  1  0
 19 11  1  0
 28 20  1  0
 18 13  1  0
 28 23  1  0
  4 29  1  0
  4 30  1  0
  6 31  1  0
  7 32  1  0
  8 33  1  0
  9 34  1  0
 10 35  1  0
 12 36  1  0
 12 37  1  0
 14 38  1  0
 15 39  1  0
 16 40  1  0
 17 41  1  0
 19 42  1  6
 21 43  1  0
 22 44  1  0
 24 45  1  0
 25 46  1  0
 26 47  1  0
 27 48  1  0
M  END
>  <UniqueID>  (19) 
237

>  <SMILES>  (19) 
O=S(=O)(Cc1ccccc1)N1Cc2ccccc2[C@H]1c1c[nH]c2ccccc12

>  <Energy>  (19) 
89.91564993369039

>  <Genealogy>  (19) 
O=S(=O)(Cc1ccccc1)N1Cc2ccccc2[C@H]1c1c[nH]c2ccccc12 (3D coordinates assigned)
O=S(=O)(Cc1ccccc1)N1Cc2ccccc2[C@H]1c1c[nH]c2ccccc12 (nonaromatic ring conformer: 89.91564993369039 kcal/mol)

>  <smiles>  (19) 
O=S(=O)(Cc1ccccc1)N1Cc2ccccc2[C@H]1c1c[nH]c2ccccc12

>  <score_type>  (19) 
oracle

>  <origin>  (19) 
autodockgpu

>  <m_score__min__energy>  (19) 
-8.4100000000000001

>  <m_primary>  (19) 
energy

>  <meeko>  (19) 
{"free_energy": -6.72, "intermolecular_energy": -7.91, "internal_energy": -2.48, "cluster_size": 12, "cluster_id": 4, "rank_in_cluster": 4}

>  <energy>  (19) 
-6.71

>  <cluster_rmsd>  (19) 
0.02

>  <rmsd>  (19) 
269.43

>  <cluster>  (19) 
4

$$$$
WCZRIPJXOMUAPT-QHCPKHFHNA-N
     RDKit          3D

 48 52  0  0  0  0  0  0  0  0999 V2000
  138.8020   77.0740  222.8550 O   0  0  0  0  0  0  0  0  0  0  0  0
  139.9500   76.5130  222.0650 S   0  0  0  0  0  0  0  0  0  0  0  0
  139.9500   75.0270  222.2810 O   0  0  0  0  0  0  0  0  0  0  0  0
  141.4440   77.2390  222.7670 C   0  0  0  0  0  0  0  0  0  0  0  0
  141.4250   78.7430  222.8240 C   0  0  0  0  0  0  0  0  0  0  0  0
  142.5710   79.4820  222.4850 C   0  0  0  0  0  0  0  0  0  0  0  0
  142.5780   80.8750  222.6140 C   0  0  0  0  0  0  0  0  0  0  0  0
  141.4480   81.5380  223.1010 C   0  0  0  0  0  0  0  0  0  0  0  0
  140.3130   80.8100  223.4650 C   0  0  0  0  0  0  0  0  0  0  0  0
  140.3010   79.4180  223.3320 C   0  0  0  0  0  0  0  0  0  0  0  0
  139.6510   76.9130  220.3710 N   0  0  0  0  0  0  0  0  0  0  0  0
  138.9780   78.2290  220.2960 C   0  0  0  0  0  0  0  0  0  0  0  0
  140.0430   79.1850  219.9080 C   0  0  0  0  0  0  0  0  0  0  0  0
  139.9750   80.5790  219.8650 C   0  0  0  0  0  0  0  0  0  0  0  0
  141.0670   81.2870  219.3400 C   0  0  0  0  0  0  0  0  0  0  0  0
  142.1810   80.5910  218.8310 C   0  0  0  0  0  0  0  0  0  0  0  0
  142.2110   79.1870  218.8600 C   0  0  0  0  0  0  0  0  0  0  0  0
  141.1420   78.5080  219.4570 C   0  0  0  0  0  0  0  0  0  0  0  0
  140.8490   77.0520  219.4920 C   0  0  1  0  0  0  0  0  0  0  0  0
  142.0060   76.1220  219.7930 C   0  0  0  0  0  0  0  0  0  0  0  0
  143.3680   76.4130  219.8590 C   0  0  0  0  0  0  0  0  0  0  0  0
  144.0850   75.2920  220.1020 N   0  0  0  0  0  0  0  0  0  0  0  0
  143.1940   74.2890  220.1720 C   0  0  0  0  0  0  0  0  0  0  0  0
  143.4580   72.9400  220.3980 C   0  0  0  0  0  0  0  0  0  0  0  0
  142.3650   72.0530  220.4260 C   0  0  0  0  0  0  0  0  0  0  0  0
  141.0520   72.5300  220.2280 C   0  0  0  0  0  0  0  0  0  0  0  0
  140.8160   73.8990  220.0000 C   0  0  0  0  0  0  0  0  0  0  0  0
  141.9190   74.7540  219.9790 C   0  0  0  0  0  0  0  0  0  0  0  0
  141.5669   76.8555  223.7906 H   0  0  0  0  0  0  0  0  0  0  0  0
  142.2764   76.9559  222.1060 H   0  0  0  0  0  0  0  0  0  0  0  0
  143.4676   78.9624  222.1161 H   0  0  0  0  0  0  0  0  0  0  0  0
  143.4732   81.4488  222.3321 H   0  0  0  0  0  0  0  0  0  0  0  0
  141.4526   82.6337  223.1976 H   0  0  0  0  0  0  0  0  0  0  0  0
  139.4276   81.3322  223.8567 H   0  0  0  0  0  0  0  0  0  0  0  0
  139.4074   78.8480  223.6264 H   0  0  0  0  0  0  0  0  0  0  0  0
  138.1797   78.2121  219.5394 H   0  0  0  0  0  0  0  0  0  0  0  0
  138.5036   78.5046  221.2494 H   0  0  0  0  0  0  0  0  0  0  0  0
  139.0855   81.1103  220.2344 H   0  0  0  0  0  0  0  0  0  0  0  0
  141.0531   82.3868  219.3259 H   0  0  0  0  0  0  0  0  0  0  0  0
  143.0302   81.1489  218.4094 H   0  0  0  0  0  0  0  0  0  0  0  0
  143.0554   78.6334  218.4235 H   0  0  0  0  0  0  0  0  0  0  0  0
  140.6383   76.6889  218.4753 H   0  0  0  0  0  0  0  0  0  0  0  0
  143.8001   77.4164  219.7310 H   0  0  0  0  0  0  0  0  0  0  0  0
  145.1220   75.2240  220.2000 H   0  0  0  0  0  0  0  0  0  0  0  0
  144.4862   72.5798  220.5495 H   0  0  0  0  0  0  0  0  0  0  0  0
  142.5358   70.9809  220.6034 H   0  0  0  0  0  0  0  0  0  0  0  0
  140.2064   71.8269  220.2520 H   0  0  0  0  0  0  0  0  0  0  0  0
  139.7967   74.2819  219.8437 H   0  0  0  0  0  0  0  0  0  0  0  0
  1  2  2  0
  2  3  2  0
  2  4  1  0
  4  5  1  0
  5  6  2  0
  6  7  1  0
  7  8  2  0
  8  9  1  0
  9 10  2  0
  2 11  1  0
 11 12  1  0
 12 13  1  0
 13 14  2  0
 14 15  1  0
 15 16  2  0
 16 17  1  0
 17 18  2  0
 18 19  1  0
 19 20  1  0
 20 21  2  0
 21 22  1  0
 22 23  1  0
 23 24  2  0
 24 25  1  0
 25 26  2  0
 26 27  1  0
 27 28  2  0
 10  5  1  0
 19 11  1  0
 28 20  1  0
 18 13  1  0
 28 23  1  0
  4 29  1  0
  4 30  1  0
  6 31  1  0
  7 32  1  0
  8 33  1  0
  9 34  1  0
 10 35  1  0
 12 36  1  0
 12 37  1  0
 14 38  1  0
 15 39  1  0
 16 40  1  0
 17 41  1  0
 19 42  1  6
 21 43  1  0
 22 44  1  0
 24 45  1  0
 25 46  1  0
 26 47  1  0
 27 48  1  0
M  END
>  <UniqueID>  (20) 
237

>  <SMILES>  (20) 
O=S(=O)(Cc1ccccc1)N1Cc2ccccc2[C@H]1c1c[nH]c2ccccc12

>  <Energy>  (20) 
89.91564993369039

>  <Genealogy>  (20) 
O=S(=O)(Cc1ccccc1)N1Cc2ccccc2[C@H]1c1c[nH]c2ccccc12 (3D coordinates assigned)
O=S(=O)(Cc1ccccc1)N1Cc2ccccc2[C@H]1c1c[nH]c2ccccc12 (nonaromatic ring conformer: 89.91564993369039 kcal/mol)

>  <smiles>  (20) 
O=S(=O)(Cc1ccccc1)N1Cc2ccccc2[C@H]1c1c[nH]c2ccccc12

>  <score_type>  (20) 
oracle

>  <origin>  (20) 
autodockgpu

>  <m_score__min__energy>  (20) 
-8.4100000000000001

>  <m_primary>  (20) 
energy

>  <meeko>  (20) 
{"free_energy": -6.72, "intermolecular_energy": -7.91, "internal_energy": -2.48, "cluster_size": 12, "cluster_id": 4, "rank_in_cluster": 9}

>  <energy>  (20) 
-6.67

>  <cluster_rmsd>  (20) 
0.08

>  <rmsd>  (20) 
269.46

>  <cluster>  (20) 
4

$$$$
WCZRIPJXOMUAPT-QHCPKHFHNA-N
     RDKit          3D

 48 52  0  0  0  0  0  0  0  0999 V2000
  139.7100   78.3500  217.7840 O   0  0  0  0  0  0  0  0  0  0  0  0
  139.7450   78.4800  219.2810 S   0  0  0  0  0  0  0  0  0  0  0  0
  139.0920   77.2520  219.8460 O   0  0  0  0  0  0  0  0  0  0  0  0
  138.7640   79.9400  219.6800 C   0  0  0  0  0  0  0  0  0  0  0  0
  138.5630   80.1570  221.1560 C   0  0  0  0  0  0  0  0  0  0  0  0
  138.6660   81.4460  221.7060 C   0  0  0  0  0  0  0  0  0  0  0  0
  138.5580   81.6360  223.0880 C   0  0  0  0  0  0  0  0  0  0  0  0
  138.3670   80.5400  223.9320 C   0  0  0  0  0  0  0  0  0  0  0  0
  138.2900   79.2510  223.3980 C   0  0  0  0  0  0  0  0  0  0  0  0
  138.3920   79.0580  222.0170 C   0  0  0  0  0  0  0  0  0  0  0  0
  141.4460   78.5740  219.7470 N   0  0  0  0  0  0  0  0  0  0  0  0
  141.8250   79.9940  219.9150 C   0  0  0  0  0  0  0  0  0  0  0  0
  141.8350   80.2210  221.3800 C   0  0  0  0  0  0  0  0  0  0  0  0
  141.9640   81.4320  222.0630 C   0  0  0  0  0  0  0  0  0  0  0  0
  142.0790   81.4020  223.4610 C   0  0  0  0  0  0  0  0  0  0  0  0
  142.1070   80.1700  224.1420 C   0  0  0  0  0  0  0  0  0  0  0  0
  142.0050   78.9660  223.4270 C   0  0  0  0  0  0  0  0  0  0  0  0
  141.8150   79.0250  222.0420 C   0  0  0  0  0  0  0  0  0  0  0  0
  141.8250   77.9280  221.0390 C   0  0  1  0  0  0  0  0  0  0  0  0
  141.0740   76.6610  221.3940 C   0  0  0  0  0  0  0  0  0  0  0  0
  139.9940   76.4980  222.2600 C   0  0  0  0  0  0  0  0  0  0  0  0
  139.6440   75.1950  222.3470 N   0  0  0  0  0  0  0  0  0  0  0  0
  140.5030   74.5260  221.5610 C   0  0  0  0  0  0  0  0  0  0  0  0
  140.5460   73.1520  221.3330 C   0  0  0  0  0  0  0  0  0  0  0  0
  141.5410   72.6600  220.4690 C   0  0  0  0  0  0  0  0  0  0  0  0
  142.4610   73.5430  219.8610 C   0  0  0  0  0  0  0  0  0  0  0  0
  142.3930   74.9260  220.1100 C   0  0  0  0  0  0  0  0  0  0  0  0
  141.3950   75.3840  220.9710 C   0  0  0  0  0  0  0  0  0  0  0  0
  139.2736   80.8229  219.2667 H   0  0  0  0  0  0  0  0  0  0  0  0
  137.7671   79.7833  219.2423 H   0  0  0  0  0  0  0  0  0  0  0  0
  138.8325   82.3104  221.0464 H   0  0  0  0  0  0  0  0  0  0  0  0
  138.6236   82.6497  223.5101 H   0  0  0  0  0  0  0  0  0  0  0  0
  138.2771   80.6914  225.0178 H   0  0  0  0  0  0  0  0  0  0  0  0
  138.1490   78.3875  224.0647 H   0  0  0  0  0  0  0  0  0  0  0  0
  138.3382   78.0409  221.6015 H   0  0  0  0  0  0  0  0  0  0  0  0
  142.8217   80.1806  219.4886 H   0  0  0  0  0  0  0  0  0  0  0  0
  141.1281   80.6702  219.3982 H   0  0  0  0  0  0  0  0  0  0  0  0
  141.9752   82.3873  221.5177 H   0  0  0  0  0  0  0  0  0  0  0  0
  142.1474   82.3431  224.0263 H   0  0  0  0  0  0  0  0  0  0  0  0
  142.2090   80.1507  225.2371 H   0  0  0  0  0  0  0  0  0  0  0  0
  142.0730   77.9976  223.9443 H   0  0  0  0  0  0  0  0  0  0  0  0
  142.8297   77.4839  220.9806 H   0  0  0  0  0  0  0  0  0  0  0  0
  139.4950   77.3170  222.7987 H   0  0  0  0  0  0  0  0  0  0  0  0
  138.8710   74.7930  222.9230 H   0  0  0  0  0  0  0  0  0  0  0  0
  139.8251   72.4740  221.8132 H   0  0  0  0  0  0  0  0  0  0  0  0
  141.6032   71.5808  220.2654 H   0  0  0  0  0  0  0  0  0  0  0  0
  143.2358   73.1465  219.1883 H   0  0  0  0  0  0  0  0  0  0  0  0
  143.1031   75.6233  219.6414 H   0  0  0  0  0  0  0  0  0  0  0  0
  1  2  2  0
  2  3  2  0
  2  4  1  0
  4  5  1  0
  5  6  2  0
  6  7  1  0
  7  8  2  0
  8  9  1  0
  9 10  2  0
  2 11  1  0
 11 12  1  0
 12 13  1  0
 13 14  2  0
 14 15  1  0
 15 16  2  0
 16 17  1  0
 17 18  2  0
 18 19  1  0
 19 20  1  0
 20 21  2  0
 21 22  1  0
 22 23  1  0
 23 24  2  0
 24 25  1  0
 25 26  2  0
 26 27  1  0
 27 28  2  0
 10  5  1  0
 19 11  1  0
 28 20  1  0
 18 13  1  0
 28 23  1  0
  4 29  1  0
  4 30  1  0
  6 31  1  0
  7 32  1  0
  8 33  1  0
  9 34  1  0
 10 35  1  0
 12 36  1  0
 12 37  1  0
 14 38  1  0
 15 39  1  0
 16 40  1  0
 17 41  1  0
 19 42  1  6
 21 43  1  0
 22 44  1  0
 24 45  1  0
 25 46  1  0
 26 47  1  0
 27 48  1  0
M  END
>  <UniqueID>  (21) 
238

>  <SMILES>  (21) 
O=S(=O)(Cc1ccccc1)N1Cc2ccccc2[C@H]1c1c[nH]c2ccccc12

>  <Energy>  (21) 
91.28441718272475

>  <Genealogy>  (21) 
O=S(=O)(Cc1ccccc1)N1Cc2ccccc2[C@H]1c1c[nH]c2ccccc12 (3D coordinates assigned)
O=S(=O)(Cc1ccccc1)N1Cc2ccccc2[C@H]1c1c[nH]c2ccccc12 (nonaromatic ring conformer: 91.28441718272475 kcal/mol)

>  <smiles>  (21) 
O=S(=O)(Cc1ccccc1)N1Cc2ccccc2[C@H]1c1c[nH]c2ccccc12

>  <score_type>  (21) 
oracle

>  <origin>  (21) 
autodockgpu

>  <m_score__min__energy>  (21) 
-8.4100000000000001

>  <m_primary>  (21) 
energy

>  <meeko>  (21) 
{"free_energy": -6.84, "intermolecular_energy": -8.04, "internal_energy": -2.2, "cluster_size": 1, "cluster_id": 3, "rank_in_cluster": 1}

>  <energy>  (21) 
-8.41

>  <cluster_rmsd>  (21) 
0.0

>  <rmsd>  (21) 
269.16

>  <cluster>  (21) 
1

$$$$
WCZRIPJXOMUAPT-QHCPKHFHNA-N
     RDKit          3D

 48 52  0  0  0  0  0  0  0  0999 V2000
  138.8000   77.0780  222.8120 O   0  0  0  0  0  0  0  0  0  0  0  0
  139.9500   76.5100  222.0290 S   0  0  0  0  0  0  0  0  0  0  0  0
  139.9430   75.0240  222.2520 O   0  0  0  0  0  0  0  0  0  0  0  0
  141.4440   77.2330  222.7340 C   0  0  0  0  0  0  0  0  0  0  0  0
  141.4230   78.7360  222.8000 C   0  0  0  0  0  0  0  0  0  0  0  0
  142.5680   79.4780  222.4620 C   0  0  0  0  0  0  0  0  0  0  0  0
  142.5730   80.8710  222.5990 C   0  0  0  0  0  0  0  0  0  0  0  0
  141.4440   81.5300  223.0940 C   0  0  0  0  0  0  0  0  0  0  0  0
  140.3100   80.7980  223.4570 C   0  0  0  0  0  0  0  0  0  0  0  0
  140.3000   79.4070  223.3160 C   0  0  0  0  0  0  0  0  0  0  0  0
  139.6590   76.9040  220.3330 N   0  0  0  0  0  0  0  0  0  0  0  0
  138.9800   78.2160  220.2500 C   0  0  0  0  0  0  0  0  0  0  0  0
  140.0420   79.1770  219.8660 C   0  0  0  0  0  0  0  0  0  0  0  0
  139.9670   80.5700  219.8190 C   0  0  0  0  0  0  0  0  0  0  0  0
  141.0590   81.2820  219.2990 C   0  0  0  0  0  0  0  0  0  0  0  0
  142.1790   80.5910  218.7980 C   0  0  0  0  0  0  0  0  0  0  0  0
  142.2160   79.1870  218.8310 C   0  0  0  0  0  0  0  0  0  0  0  0
  141.1470   78.5040  219.4230 C   0  0  0  0  0  0  0  0  0  0  0  0
  140.8610   77.0460  219.4600 C   0  0  1  0  0  0  0  0  0  0  0  0
  142.0210   76.1230  219.7700 C   0  0  0  0  0  0  0  0  0  0  0  0
  143.3820   76.4200  219.8390 C   0  0  0  0  0  0  0  0  0  0  0  0
  144.1020   75.3040  220.0900 N   0  0  0  0  0  0  0  0  0  0  0  0
  143.2150   74.2980  220.1640 C   0  0  0  0  0  0  0  0  0  0  0  0
  143.4840   72.9500  220.4000 C   0  0  0  0  0  0  0  0  0  0  0  0
  142.3950   72.0600  220.4300 C   0  0  0  0  0  0  0  0  0  0  0  0
  141.0790   72.5310  220.2250 C   0  0  0  0  0  0  0  0  0  0  0  0
  140.8400   73.8970  219.9880 C   0  0  0  0  0  0  0  0  0  0  0  0
  141.9390   74.7560  219.9650 C   0  0  0  0  0  0  0  0  0  0  0  0
  141.5684   76.8434  223.7552 H   0  0  0  0  0  0  0  0  0  0  0  0
  142.2763   76.9547  222.0707 H   0  0  0  0  0  0  0  0  0  0  0  0
  143.4643   78.9615  222.0881 H   0  0  0  0  0  0  0  0  0  0  0  0
  143.4662   81.4477  222.3169 H   0  0  0  0  0  0  0  0  0  0  0  0
  141.4480   82.6251  223.1979 H   0  0  0  0  0  0  0  0  0  0  0  0
  139.4248   81.3166  223.8539 H   0  0  0  0  0  0  0  0  0  0  0  0
  139.4084   78.8340  223.6104 H   0  0  0  0  0  0  0  0  0  0  0  0
  138.1865   78.1927  219.4885 H   0  0  0  0  0  0  0  0  0  0  0  0
  138.4985   78.4917  221.1998 H   0  0  0  0  0  0  0  0  0  0  0  0
  139.0724   81.0977  220.1813 H   0  0  0  0  0  0  0  0  0  0  0  0
  141.0399   82.3817  219.2828 H   0  0  0  0  0  0  0  0  0  0  0  0
  143.0275   81.1522  218.3796 H   0  0  0  0  0  0  0  0  0  0  0  0
  143.0660   78.6367  218.4012 H   0  0  0  0  0  0  0  0  0  0  0  0
  140.6577   76.6786  218.4433 H   0  0  0  0  0  0  0  0  0  0  0  0
  143.8106   77.4245  219.7073 H   0  0  0  0  0  0  0  0  0  0  0  0
  145.1390   75.2400  220.1920 H   0  0  0  0  0  0  0  0  0  0  0  0
  144.5131   72.5947  220.5574 H   0  0  0  0  0  0  0  0  0  0  0  0
  142.5694   70.9897  220.6144 H   0  0  0  0  0  0  0  0  0  0  0  0
  140.2357   71.8251  220.2509 H   0  0  0  0  0  0  0  0  0  0  0  0
  139.8199   74.2754  219.8261 H   0  0  0  0  0  0  0  0  0  0  0  0
  1  2  2  0
  2  3  2  0
  2  4  1  0
  4  5  1  0
  5  6  2  0
  6  7  1  0
  7  8  2  0
  8  9  1  0
  9 10  2  0
  2 11  1  0
 11 12  1  0
 12 13  1  0
 13 14  2  0
 14 15  1  0
 15 16  2  0
 16 17  1  0
 17 18  2  0
 18 19  1  0
 19 20  1  0
 20 21  2  0
 21 22  1  0
 22 23  1  0
 23 24  2  0
 24 25  1  0
 25 26  2  0
 26 27  1  0
 27 28  2  0
 10  5  1  0
 19 11  1  0
 28 20  1  0
 18 13  1  0
 28 23  1  0
  4 29  1  0
  4 30  1  0
  6 31  1  0
  7 32  1  0
  8 33  1  0
  9 34  1  0
 10 35  1  0
 12 36  1  0
 12 37  1  0
 14 38  1  0
 15 39  1  0
 16 40  1  0
 17 41  1  0
 19 42  1  6
 21 43  1  0
 22 44  1  0
 24 45  1  0
 25 46  1  0
 26 47  1  0
 27 48  1  0
M  END
>  <UniqueID>  (22) 
238

>  <SMILES>  (22) 
O=S(=O)(Cc1ccccc1)N1Cc2ccccc2[C@H]1c1c[nH]c2ccccc12

>  <Energy>  (22) 
91.28441718272475

>  <Genealogy>  (22) 
O=S(=O)(Cc1ccccc1)N1Cc2ccccc2[C@H]1c1c[nH]c2ccccc12 (3D coordinates assigned)
O=S(=O)(Cc1ccccc1)N1Cc2ccccc2[C@H]1c1c[nH]c2ccccc12 (nonaromatic ring conformer: 91.28441718272475 kcal/mol)

>  <smiles>  (22) 
O=S(=O)(Cc1ccccc1)N1Cc2ccccc2[C@H]1c1c[nH]c2ccccc12

>  <score_type>  (22) 
oracle

>  <origin>  (22) 
autodockgpu

>  <m_score__min__energy>  (22) 
-8.4100000000000001

>  <m_primary>  (22) 
energy

>  <meeko>  (22) 
{"free_energy": -6.72, "intermolecular_energy": -7.91, "internal_energy": -2.47, "cluster_size": 12, "cluster_id": 4, "rank_in_cluster": 8}

>  <energy>  (22) 
-8.35

>  <cluster_rmsd>  (22) 
0.09

>  <rmsd>  (22) 
269.16

>  <cluster>  (22) 
1

$$$$
WCZRIPJXOMUAPT-QHCPKHFHNA-N
     RDKit          3D

 48 52  0  0  0  0  0  0  0  0999 V2000
  138.8030   77.0630  222.8270 O   0  0  0  0  0  0  0  0  0  0  0  0
  139.9540   76.4990  222.0430 S   0  0  0  0  0  0  0  0  0  0  0  0
  139.9540   75.0140  222.2660 O   0  0  0  0  0  0  0  0  0  0  0  0
  141.4460   77.2290  222.7450 C   0  0  0  0  0  0  0  0  0  0  0  0
  141.4190   78.7330  222.8100 C   0  0  0  0  0  0  0  0  0  0  0  0
  142.5580   79.4800  222.4660 C   0  0  0  0  0  0  0  0  0  0  0  0
  142.5580   80.8720  222.6020 C   0  0  0  0  0  0  0  0  0  0  0  0
  141.4280   81.5270  223.1000 C   0  0  0  0  0  0  0  0  0  0  0  0
  140.2990   80.7900  223.4690 C   0  0  0  0  0  0  0  0  0  0  0  0
  140.2940   79.3990  223.3300 C   0  0  0  0  0  0  0  0  0  0  0  0
  139.6590   76.8900  220.3460 N   0  0  0  0  0  0  0  0  0  0  0  0
  138.9760   78.2010  220.2630 C   0  0  0  0  0  0  0  0  0  0  0  0
  140.0350   79.1640  219.8770 C   0  0  0  0  0  0  0  0  0  0  0  0
  139.9550   80.5570  219.8280 C   0  0  0  0  0  0  0  0  0  0  0  0
  141.0440   81.2720  219.3060 C   0  0  0  0  0  0  0  0  0  0  0  0
  142.1650   80.5840  218.8040 C   0  0  0  0  0  0  0  0  0  0  0  0
  142.2070   79.1800  218.8380 C   0  0  0  0  0  0  0  0  0  0  0  0
  141.1410   78.4940  219.4330 C   0  0  0  0  0  0  0  0  0  0  0  0
  140.8600   77.0360  219.4720 C   0  0  1  0  0  0  0  0  0  0  0  0
  142.0230   76.1160  219.7810 C   0  0  0  0  0  0  0  0  0  0  0  0
  143.3830   76.4180  219.8470 C   0  0  0  0  0  0  0  0  0  0  0  0
  144.1070   75.3040  220.0990 N   0  0  0  0  0  0  0  0  0  0  0  0
  143.2240   74.2960  220.1740 C   0  0  0  0  0  0  0  0  0  0  0  0
  143.4970   72.9490  220.4110 C   0  0  0  0  0  0  0  0  0  0  0  0
  142.4110   72.0550  220.4430 C   0  0  0  0  0  0  0  0  0  0  0  0
  141.0940   72.5210  220.2400 C   0  0  0  0  0  0  0  0  0  0  0  0
  140.8490   73.8870  220.0020 C   0  0  0  0  0  0  0  0  0  0  0  0
  141.9460   74.7490  219.9760 C   0  0  0  0  0  0  0  0  0  0  0  0
  141.5736   76.8408  223.7663 H   0  0  0  0  0  0  0  0  0  0  0  0
  142.2783   76.9538  222.0805 H   0  0  0  0  0  0  0  0  0  0  0  0
  143.4547   78.9673  222.0876 H   0  0  0  0  0  0  0  0  0  0  0  0
  143.4481   81.4519  222.3168 H   0  0  0  0  0  0  0  0  0  0  0  0
  141.4272   82.6223  223.2015 H   0  0  0  0  0  0  0  0  0  0  0  0
  139.4134   81.3052  223.8692 H   0  0  0  0  0  0  0  0  0  0  0  0
  139.4062   78.8223  223.6286 H   0  0  0  0  0  0  0  0  0  0  0  0
  138.1816   78.1752  219.5026 H   0  0  0  0  0  0  0  0  0  0  0  0
  138.4949   78.4762  221.2132 H   0  0  0  0  0  0  0  0  0  0  0  0
  139.0589   81.0821  220.1903 H   0  0  0  0  0  0  0  0  0  0  0  0
  141.0216   82.3716  219.2891 H   0  0  0  0  0  0  0  0  0  0  0  0
  143.0110   81.1476  218.3837 H   0  0  0  0  0  0  0  0  0  0  0  0
  143.0579   78.6321  218.4070 H   0  0  0  0  0  0  0  0  0  0  0  0
  140.6572   76.6679  218.4554 H   0  0  0  0  0  0  0  0  0  0  0  0
  143.8081   77.4236  219.7126 H   0  0  0  0  0  0  0  0  0  0  0  0
  145.1450   75.2440  220.1990 H   0  0  0  0  0  0  0  0  0  0  0  0
  144.5273   72.5971  220.5677 H   0  0  0  0  0  0  0  0  0  0  0  0
  142.5894   70.9854  220.6275 H   0  0  0  0  0  0  0  0  0  0  0  0
  140.2534   71.8121  220.2680 H   0  0  0  0  0  0  0  0  0  0  0  0
  139.8273   74.2620  219.8420 H   0  0  0  0  0  0  0  0  0  0  0  0
  1  2  2  0
  2  3  2  0
  2  4  1  0
  4  5  1  0
  5  6  2  0
  6  7  1  0
  7  8  2  0
  8  9  1  0
  9 10  2  0
  2 11  1  0
 11 12  1  0
 12 13  1  0
 13 14  2  0
 14 15  1  0
 15 16  2  0
 16 17  1  0
 17 18  2  0
 18 19  1  0
 19 20  1  0
 20 21  2  0
 21 22  1  0
 22 23  1  0
 23 24  2  0
 24 25  1  0
 25 26  2  0
 26 27  1  0
 27 28  2  0
 10  5  1  0
 19 11  1  0
 28 20  1  0
 18 13  1  0
 28 23  1  0
  4 29  1  0
  4 30  1  0
  6 31  1  0
  7 32  1  0
  8 33  1  0
  9 34  1  0
 10 35  1  0
 12 36  1  0
 12 37  1  0
 14 38  1  0
 15 39  1  0
 16 40  1  0
 17 41  1  0
 19 42  1  6
 21 43  1  0
 22 44  1  0
 24 45  1  0
 25 46  1  0
 26 47  1  0
 27 48  1  0
M  END
>  <UniqueID>  (23) 
238

>  <SMILES>  (23) 
O=S(=O)(Cc1ccccc1)N1Cc2ccccc2[C@H]1c1c[nH]c2ccccc12

>  <Energy>  (23) 
91.28441718272475

>  <Genealogy>  (23) 
O=S(=O)(Cc1ccccc1)N1Cc2ccccc2[C@H]1c1c[nH]c2ccccc12 (3D coordinates assigned)
O=S(=O)(Cc1ccccc1)N1Cc2ccccc2[C@H]1c1c[nH]c2ccccc12 (nonaromatic ring conformer: 91.28441718272475 kcal/mol)

>  <smiles>  (23) 
O=S(=O)(Cc1ccccc1)N1Cc2ccccc2[C@H]1c1c[nH]c2ccccc12

>  <score_type>  (23) 
oracle

>  <origin>  (23) 
autodockgpu

>  <m_score__min__energy>  (23) 
-8.4100000000000001

>  <m_primary>  (23) 
energy

>  <meeko>  (23) 
{"free_energy": -6.72, "intermolecular_energy": -7.91, "internal_energy": -2.47, "cluster_size": 12, "cluster_id": 4, "rank_in_cluster": 5}

>  <energy>  (23) 
-7.53

>  <cluster_rmsd>  (23) 
0.0

>  <rmsd>  (23) 
268.72

>  <cluster>  (23) 
2

$$$$
WCZRIPJXOMUAPT-QHCPKHFHNA-N
     RDKit          3D

 48 52  0  0  0  0  0  0  0  0999 V2000
  138.8020   77.0770  222.8620 O   0  0  0  0  0  0  0  0  0  0  0  0
  139.9490   76.5170  222.0690 S   0  0  0  0  0  0  0  0  0  0  0  0
  139.9490   75.0310  222.2820 O   0  0  0  0  0  0  0  0  0  0  0  0
  141.4440   77.2420  222.7700 C   0  0  0  0  0  0  0  0  0  0  0  0
  141.4260   78.7460  222.8280 C   0  0  0  0  0  0  0  0  0  0  0  0
  142.5730   79.4840  222.4900 C   0  0  0  0  0  0  0  0  0  0  0  0
  142.5800   80.8770  222.6200 C   0  0  0  0  0  0  0  0  0  0  0  0
  141.4510   81.5410  223.1080 C   0  0  0  0  0  0  0  0  0  0  0  0
  140.3150   80.8130  223.4710 C   0  0  0  0  0  0  0  0  0  0  0  0
  140.3020   79.4210  223.3370 C   0  0  0  0  0  0  0  0  0  0  0  0
  139.6470   76.9210  220.3760 N   0  0  0  0  0  0  0  0  0  0  0  0
  138.9720   78.2360  220.3050 C   0  0  0  0  0  0  0  0  0  0  0  0
  140.0340   79.1960  219.9190 C   0  0  0  0  0  0  0  0  0  0  0  0
  139.9620   80.5890  219.8790 C   0  0  0  0  0  0  0  0  0  0  0  0
  141.0530   81.3010  219.3560 C   0  0  0  0  0  0  0  0  0  0  0  0
  142.1670   80.6090  218.8430 C   0  0  0  0  0  0  0  0  0  0  0  0
  142.2000   79.2050  218.8680 C   0  0  0  0  0  0  0  0  0  0  0  0
  141.1340   78.5220  219.4650 C   0  0  0  0  0  0  0  0  0  0  0  0
  140.8440   77.0650  219.4960 C   0  0  1  0  0  0  0  0  0  0  0  0
  142.0030   76.1370  219.7930 C   0  0  0  0  0  0  0  0  0  0  0  0
  143.3650   76.4300  219.8560 C   0  0  0  0  0  0  0  0  0  0  0  0
  144.0840   75.3110  220.0950 N   0  0  0  0  0  0  0  0  0  0  0  0
  143.1950   74.3060  220.1670 C   0  0  0  0  0  0  0  0  0  0  0  0
  143.4620   72.9570  220.3920 C   0  0  0  0  0  0  0  0  0  0  0  0
  142.3710   72.0680  220.4220 C   0  0  0  0  0  0  0  0  0  0  0  0
  141.0560   72.5430  220.2270 C   0  0  0  0  0  0  0  0  0  0  0  0
  140.8180   73.9120  220.0010 C   0  0  0  0  0  0  0  0  0  0  0  0
  141.9190   74.7690  219.9780 C   0  0  0  0  0  0  0  0  0  0  0  0
  141.5677   76.8578  223.7933 H   0  0  0  0  0  0  0  0  0  0  0  0
  142.2756   76.9590  222.1079 H   0  0  0  0  0  0  0  0  0  0  0  0
  143.4696   78.9641  222.1215 H   0  0  0  0  0  0  0  0  0  0  0  0
  143.4753   81.4505  222.3378 H   0  0  0  0  0  0  0  0  0  0  0  0
  141.4568   82.6366  223.2063 H   0  0  0  0  0  0  0  0  0  0  0  0
  139.4298   81.3354  223.8627 H   0  0  0  0  0  0  0  0  0  0  0  0
  139.4082   78.8512  223.6312 H   0  0  0  0  0  0  0  0  0  0  0  0
  138.1732   78.2195  219.5489 H   0  0  0  0  0  0  0  0  0  0  0  0
  138.4984   78.5079  221.2599 H   0  0  0  0  0  0  0  0  0  0  0  0
  139.0708   81.1171  220.2488 H   0  0  0  0  0  0  0  0  0  0  0  0
  141.0377   82.4009  219.3469 H   0  0  0  0  0  0  0  0  0  0  0  0
  143.0142   81.1698  218.4213 H   0  0  0  0  0  0  0  0  0  0  0  0
  143.0447   78.6545  218.4282 H   0  0  0  0  0  0  0  0  0  0  0  0
  140.6329   76.7042  218.4785 H   0  0  0  0  0  0  0  0  0  0  0  0
  143.7951   77.4344  219.7286 H   0  0  0  0  0  0  0  0  0  0  0  0
  145.1220   75.2440  220.1910 H   0  0  0  0  0  0  0  0  0  0  0  0
  144.4912   72.5987  220.5412 H   0  0  0  0  0  0  0  0  0  0  0  0
  142.5442   70.9962  220.5985 H   0  0  0  0  0  0  0  0  0  0  0  0
  140.2115   71.8386  220.2518 H   0  0  0  0  0  0  0  0  0  0  0  0
  139.7977   74.2935  219.8476 H   0  0  0  0  0  0  0  0  0  0  0  0
  1  2  2  0
  2  3  2  0
  2  4  1  0
  4  5  1  0
  5  6  2  0
  6  7  1  0
  7  8  2  0
  8  9  1  0
  9 10  2  0
  2 11  1  0
 11 12  1  0
 12 13  1  0
 13 14  2  0
 14 15  1  0
 15 16  2  0
 16 17  1  0
 17 18  2  0
 18 19  1  0
 19 20  1  0
 20 21  2  0
 21 22  1  0
 22 23  1  0
 23 24  2  0
 24 25  1  0
 25 26  2  0
 26 27  1  0
 27 28  2  0
 10  5  1  0
 19 11  1  0
 28 20  1  0
 18 13  1  0
 28 23  1  0
  4 29  1  0
  4 30  1  0
  6 31  1  0
  7 32  1  0
  8 33  1  0
  9 34  1  0
 10 35  1  0
 12 36  1  0
 12 37  1  0
 14 38  1  0
 15 39  1  0
 16 40  1  0
 17 41  1  0
 19 42  1  6
 21 43  1  0
 22 44  1  0
 24 45  1  0
 25 46  1  0
 26 47  1  0
 27 48  1  0
M  END
>  <UniqueID>  (24) 
238

>  <SMILES>  (24) 
O=S(=O)(Cc1ccccc1)N1Cc2ccccc2[C@H]1c1c[nH]c2ccccc12

>  <Energy>  (24) 
91.28441718272475

>  <Genealogy>  (24) 
O=S(=O)(Cc1ccccc1)N1Cc2ccccc2[C@H]1c1c[nH]c2ccccc12 (3D coordinates assigned)
O=S(=O)(Cc1ccccc1)N1Cc2ccccc2[C@H]1c1c[nH]c2ccccc12 (nonaromatic ring conformer: 91.28441718272475 kcal/mol)

>  <smiles>  (24) 
O=S(=O)(Cc1ccccc1)N1Cc2ccccc2[C@H]1c1c[nH]c2ccccc12

>  <score_type>  (24) 
oracle

>  <origin>  (24) 
autodockgpu

>  <m_score__min__energy>  (24) 
-8.4100000000000001

>  <m_primary>  (24) 
energy

>  <meeko>  (24) 
{"free_energy": -6.72, "intermolecular_energy": -7.92, "internal_energy": -2.47, "cluster_size": 12, "cluster_id": 4, "rank_in_cluster": 1}

>  <energy>  (24) 
-7.52

>  <cluster_rmsd>  (24) 
0.09

>  <rmsd>  (24) 
268.73

>  <cluster>  (24) 
2

$$$$
WCZRIPJXOMUAPT-QHCPKHFHNA-N
     RDKit          3D

 48 52  0  0  0  0  0  0  0  0999 V2000
  138.7930   77.0860  222.8280 O   0  0  0  0  0  0  0  0  0  0  0  0
  139.9420   76.5200  222.0430 S   0  0  0  0  0  0  0  0  0  0  0  0
  139.9350   75.0340  222.2610 O   0  0  0  0  0  0  0  0  0  0  0  0
  141.4360   77.2410  222.7500 C   0  0  0  0  0  0  0  0  0  0  0  0
  141.4190   78.7450  222.8120 C   0  0  0  0  0  0  0  0  0  0  0  0
  142.5650   79.4840  222.4740 C   0  0  0  0  0  0  0  0  0  0  0  0
  142.5740   80.8770  222.6090 C   0  0  0  0  0  0  0  0  0  0  0  0
  141.4460   81.5390  223.1000 C   0  0  0  0  0  0  0  0  0  0  0  0
  140.3100   80.8110  223.4630 C   0  0  0  0  0  0  0  0  0  0  0  0
  140.2960   79.4200  223.3250 C   0  0  0  0  0  0  0  0  0  0  0  0
  139.6500   76.9190  220.3480 N   0  0  0  0  0  0  0  0  0  0  0  0
  138.9760   78.2350  220.2690 C   0  0  0  0  0  0  0  0  0  0  0  0
  140.0420   79.1920  219.8860 C   0  0  0  0  0  0  0  0  0  0  0  0
  139.9730   80.5860  219.8420 C   0  0  0  0  0  0  0  0  0  0  0  0
  141.0670   81.2940  219.3220 C   0  0  0  0  0  0  0  0  0  0  0  0
  142.1840   80.5990  218.8180 C   0  0  0  0  0  0  0  0  0  0  0  0
  142.2140   79.1960  218.8470 C   0  0  0  0  0  0  0  0  0  0  0  0
  141.1440   78.5160  219.4400 C   0  0  0  0  0  0  0  0  0  0  0  0
  140.8520   77.0590  219.4740 C   0  0  1  0  0  0  0  0  0  0  0  0
  142.0080   76.1300  219.7800 C   0  0  0  0  0  0  0  0  0  0  0  0
  143.3700   76.4220  219.8510 C   0  0  0  0  0  0  0  0  0  0  0  0
  144.0860   75.3020  220.0970 N   0  0  0  0  0  0  0  0  0  0  0  0
  143.1960   74.2990  220.1650 C   0  0  0  0  0  0  0  0  0  0  0  0
  143.4590   72.9490  220.3950 C   0  0  0  0  0  0  0  0  0  0  0  0
  142.3670   72.0620  220.4200 C   0  0  0  0  0  0  0  0  0  0  0  0
  141.0540   72.5390  220.2170 C   0  0  0  0  0  0  0  0  0  0  0  0
  140.8190   73.9070  219.9860 C   0  0  0  0  0  0  0  0  0  0  0  0
  141.9210   74.7620  219.9670 C   0  0  0  0  0  0  0  0  0  0  0  0
  141.5566   76.8539  223.7725 H   0  0  0  0  0  0  0  0  0  0  0  0
  142.2692   76.9588  222.0896 H   0  0  0  0  0  0  0  0  0  0  0  0
  143.4603   78.9649  222.1012 H   0  0  0  0  0  0  0  0  0  0  0  0
  143.4696   81.4508  222.3284 H   0  0  0  0  0  0  0  0  0  0  0  0
  141.4522   82.6343  223.2009 H   0  0  0  0  0  0  0  0  0  0  0  0
  139.4258   81.3329  223.8577 H   0  0  0  0  0  0  0  0  0  0  0  0
  139.4023   78.8501  223.6190 H   0  0  0  0  0  0  0  0  0  0  0  0
  138.1815   78.2170  219.5084 H   0  0  0  0  0  0  0  0  0  0  0  0
  138.4967   78.5106  221.2199 H   0  0  0  0  0  0  0  0  0  0  0  0
  139.0813   81.1169  220.2067 H   0  0  0  0  0  0  0  0  0  0  0  0
  141.0525   82.3938  219.3078 H   0  0  0  0  0  0  0  0  0  0  0  0
  143.0349   81.1573  218.4006 H   0  0  0  0  0  0  0  0  0  0  0  0
  143.0601   78.6429  218.4131 H   0  0  0  0  0  0  0  0  0  0  0  0
  140.6462   76.6957  218.4563 H   0  0  0  0  0  0  0  0  0  0  0  0
  143.8021   77.4256  219.7243 H   0  0  0  0  0  0  0  0  0  0  0  0
  145.1230   75.2340  220.1990 H   0  0  0  0  0  0  0  0  0  0  0  0
  144.4866   72.5892  220.5518 H   0  0  0  0  0  0  0  0  0  0  0  0
  142.5375   70.9901  220.5989 H   0  0  0  0  0  0  0  0  0  0  0  0
  140.2082   71.8360  220.2396 H   0  0  0  0  0  0  0  0  0  0  0  0
  139.8002   74.2895  219.8257 H   0  0  0  0  0  0  0  0  0  0  0  0
  1  2  2  0
  2  3  2  0
  2  4  1  0
  4  5  1  0
  5  6  2  0
  6  7  1  0
  7  8  2  0
  8  9  1  0
  9 10  2  0
  2 11  1  0
 11 12  1  0
 12 13  1  0
 13 14  2  0
 14 15  1  0
 15 16  2  0
 16 17  1  0
 17 18  2  0
 18 19  1  0
 19 20  1  0
 20 21  2  0
 21 22  1  0
 22 23  1  0
 23 24  2  0
 24 25  1  0
 25 26  2  0
 26 27  1  0
 27 28  2  0
 10  5  1  0
 19 11  1  0
 28 20  1  0
 18 13  1  0
 28 23  1  0
  4 29  1  0
  4 30  1  0
  6 31  1  0
  7 32  1  0
  8 33  1  0
  9 34  1  0
 10 35  1  0
 12 36  1  0
 12 37  1  0
 14 38  1  0
 15 39  1  0
 16 40  1  0
 17 41  1  0
 19 42  1  6
 21 43  1  0
 22 44  1  0
 24 45  1  0
 25 46  1  0
 26 47  1  0
 27 48  1  0
M  END
>  <UniqueID>  (25) 
238

>  <SMILES>  (25) 
O=S(=O)(Cc1ccccc1)N1Cc2ccccc2[C@H]1c1c[nH]c2ccccc12

>  <Energy>  (25) 
91.28441718272475

>  <Genealogy>  (25) 
O=S(=O)(Cc1ccccc1)N1Cc2ccccc2[C@H]1c1c[nH]c2ccccc12 (3D coordinates assigned)
O=S(=O)(Cc1ccccc1)N1Cc2ccccc2[C@H]1c1c[nH]c2ccccc12 (nonaromatic ring conformer: 91.28441718272475 kcal/mol)

>  <smiles>  (25) 
O=S(=O)(Cc1ccccc1)N1Cc2ccccc2[C@H]1c1c[nH]c2ccccc12

>  <score_type>  (25) 
oracle

>  <origin>  (25) 
autodockgpu

>  <m_score__min__energy>  (25) 
-8.4100000000000001

>  <m_primary>  (25) 
energy

>  <meeko>  (25) 
{"free_energy": -6.71, "intermolecular_energy": -7.91, "internal_energy": -2.48, "cluster_size": 12, "cluster_id": 4, "rank_in_cluster": 10}

>  <energy>  (25) 
-7.51

>  <cluster_rmsd>  (25) 
0.37

>  <rmsd>  (25) 
268.74

>  <cluster>  (25) 
2

$$$$
WCZRIPJXOMUAPT-QHCPKHFHNA-N
     RDKit          3D

 48 52  0  0  0  0  0  0  0  0999 V2000
  141.4290   74.6150  221.7830 O   0  0  0  0  0  0  0  0  0  0  0  0
  141.3560   75.4290  220.5210 S   0  0  0  0  0  0  0  0  0  0  0  0
  140.7630   74.5460  219.4610 O   0  0  0  0  0  0  0  0  0  0  0  0
  143.0570   75.8480  220.0950 C   0  0  0  0  0  0  0  0  0  0  0  0
  143.9670   74.6550  219.9670 C   0  0  0  0  0  0  0  0  0  0  0  0
  143.6710   73.6300  219.0530 C   0  0  0  0  0  0  0  0  0  0  0  0
  144.4730   72.4850  218.9900 C   0  0  0  0  0  0  0  0  0  0  0  0
  145.5640   72.3470  219.8530 C   0  0  0  0  0  0  0  0  0  0  0  0
  145.8510   73.3490  220.7830 C   0  0  0  0  0  0  0  0  0  0  0  0
  145.0550   74.4970  220.8450 C   0  0  0  0  0  0  0  0  0  0  0  0
  140.3100   76.8100  220.8630 N   0  0  0  0  0  0  0  0  0  0  0  0
  140.2360   77.0110  222.3270 C   0  0  0  0  0  0  0  0  0  0  0  0
  141.1430   78.1510  222.6070 C   0  0  0  0  0  0  0  0  0  0  0  0
  141.5620   78.6330  223.8480 C   0  0  0  0  0  0  0  0  0  0  0  0
  142.3230   79.8110  223.8860 C   0  0  0  0  0  0  0  0  0  0  0  0
  142.6110   80.5050  222.6950 C   0  0  0  0  0  0  0  0  0  0  0  0
  142.1510   80.0130  221.4620 C   0  0  0  0  0  0  0  0  0  0  0  0
  141.4590   78.7960  221.4440 C   0  0  0  0  0  0  0  0  0  0  0  0
  140.7450   78.1320  220.3230 C   0  0  1  0  0  0  0  0  0  0  0  0
  141.4440   78.1040  218.9800 C   0  0  0  0  0  0  0  0  0  0  0  0
  142.5970   78.7780  218.5790 C   0  0  0  0  0  0  0  0  0  0  0  0
  142.8670   78.5300  217.2780 N   0  0  0  0  0  0  0  0  0  0  0  0
  141.8880   77.7200  216.8420 C   0  0  0  0  0  0  0  0  0  0  0  0
  141.7310   77.1980  215.5590 C   0  0  0  0  0  0  0  0  0  0  0  0
  140.6190   76.3690  215.3190 C   0  0  0  0  0  0  0  0  0  0  0  0
  139.7010   76.0870  216.3540 C   0  0  0  0  0  0  0  0  0  0  0  0
  139.8850   76.6300  217.6390 C   0  0  0  0  0  0  0  0  0  0  0  0
  140.9970   77.4470  217.8470 C   0  0  0  0  0  0  0  0  0  0  0  0
  143.0513   76.3836  219.1342 H   0  0  0  0  0  0  0  0  0  0  0  0
  143.4500   76.4616  220.9190 H   0  0  0  0  0  0  0  0  0  0  0  0
  142.8040   73.7280  218.3831 H   0  0  0  0  0  0  0  0  0  0  0  0
  144.2449   71.6933  218.2612 H   0  0  0  0  0  0  0  0  0  0  0  0
  146.1969   71.4489  219.7997 H   0  0  0  0  0  0  0  0  0  0  0  0
  146.7044   73.2348  221.4676 H   0  0  0  0  0  0  0  0  0  0  0  0
  145.2805   75.2802  221.5837 H   0  0  0  0  0  0  0  0  0  0  0  0
  139.2071   77.2522  222.6321 H   0  0  0  0  0  0  0  0  0  0  0  0
  140.5267   76.1070  222.8823 H   0  0  0  0  0  0  0  0  0  0  0  0
  141.3015   78.1014  224.7751 H   0  0  0  0  0  0  0  0  0  0  0  0
  142.6954   80.1932  224.8479 H   0  0  0  0  0  0  0  0  0  0  0  0
  143.1977   81.4348  222.7301 H   0  0  0  0  0  0  0  0  0  0  0  0
  142.3305   80.5715  220.5315 H   0  0  0  0  0  0  0  0  0  0  0  0
  139.8801   78.7395  220.0182 H   0  0  0  0  0  0  0  0  0  0  0  0
  143.2035   79.4230  219.2318 H   0  0  0  0  0  0  0  0  0  0  0  0
  143.6690   78.9050  216.7240 H   0  0  0  0  0  0  0  0  0  0  0  0
  142.4523   77.4264  214.7605 H   0  0  0  0  0  0  0  0  0  0  0  0
  140.4642   75.9382  214.3188 H   0  0  0  0  0  0  0  0  0  0  0  0
  138.8356   75.4380  216.1543 H   0  0  0  0  0  0  0  0  0  0  0  0
  139.1758   76.4175  218.4526 H   0  0  0  0  0  0  0  0  0  0  0  0
  1  2  2  0
  2  3  2  0
  2  4  1  0
  4  5  1  0
  5  6  2  0
  6  7  1  0
  7  8  2  0
  8  9  1  0
  9 10  2  0
  2 11  1  0
 11 12  1  0
 12 13  1  0
 13 14  2  0
 14 15  1  0
 15 16  2  0
 16 17  1  0
 17 18  2  0
 18 19  1  0
 19 20  1  0
 20 21  2  0
 21 22  1  0
 22 23  1  0
 23 24  2  0
 24 25  1  0
 25 26  2  0
 26 27  1  0
 27 28  2  0
 10  5  1  0
 19 11  1  0
 28 20  1  0
 18 13  1  0
 28 23  1  0
  4 29  1  0
  4 30  1  0
  6 31  1  0
  7 32  1  0
  8 33  1  0
  9 34  1  0
 10 35  1  0
 12 36  1  0
 12 37  1  0
 14 38  1  0
 15 39  1  0
 16 40  1  0
 17 41  1  0
 19 42  1  6
 21 43  1  0
 22 44  1  0
 24 45  1  0
 25 46  1  0
 26 47  1  0
 27 48  1  0
M  END
>  <UniqueID>  (26) 
238

>  <SMILES>  (26) 
O=S(=O)(Cc1ccccc1)N1Cc2ccccc2[C@H]1c1c[nH]c2ccccc12

>  <Energy>  (26) 
91.28441718272475

>  <Genealogy>  (26) 
O=S(=O)(Cc1ccccc1)N1Cc2ccccc2[C@H]1c1c[nH]c2ccccc12 (3D coordinates assigned)
O=S(=O)(Cc1ccccc1)N1Cc2ccccc2[C@H]1c1c[nH]c2ccccc12 (nonaromatic ring conformer: 91.28441718272475 kcal/mol)

>  <smiles>  (26) 
O=S(=O)(Cc1ccccc1)N1Cc2ccccc2[C@H]1c1c[nH]c2ccccc12

>  <score_type>  (26) 
oracle

>  <origin>  (26) 
autodockgpu

>  <m_score__min__energy>  (26) 
-8.4100000000000001

>  <m_primary>  (26) 
energy

>  <meeko>  (26) 
{"free_energy": -7.46, "intermolecular_energy": -8.65, "internal_energy": -1.75, "cluster_size": 5, "cluster_id": 2, "rank_in_cluster": 5}

>  <energy>  (26) 
-7.5

>  <cluster_rmsd>  (26) 
0.39

>  <rmsd>  (26) 
268.74

>  <cluster>  (26) 
2

$$$$
WCZRIPJXOMUAPT-QHCPKHFHNA-N
     RDKit          3D

 48 52  0  0  0  0  0  0  0  0999 V2000
  138.7970   77.0630  222.8340 O   0  0  0  0  0  0  0  0  0  0  0  0
  139.9470   76.4990  222.0480 S   0  0  0  0  0  0  0  0  0  0  0  0
  139.9450   75.0130  222.2680 O   0  0  0  0  0  0  0  0  0  0  0  0
  141.4400   77.2260  222.7500 C   0  0  0  0  0  0  0  0  0  0  0  0
  141.4160   78.7300  222.8140 C   0  0  0  0  0  0  0  0  0  0  0  0
  142.5580   79.4730  222.4720 C   0  0  0  0  0  0  0  0  0  0  0  0
  142.5610   80.8660  222.6070 C   0  0  0  0  0  0  0  0  0  0  0  0
  141.4320   81.5240  223.1030 C   0  0  0  0  0  0  0  0  0  0  0  0
  140.3010   80.7900  223.4700 C   0  0  0  0  0  0  0  0  0  0  0  0
  140.2930   79.3990  223.3310 C   0  0  0  0  0  0  0  0  0  0  0  0
  139.6500   76.8940  220.3520 N   0  0  0  0  0  0  0  0  0  0  0  0
  138.9680   78.2060  220.2730 C   0  0  0  0  0  0  0  0  0  0  0  0
  140.0270   79.1690  219.8870 C   0  0  0  0  0  0  0  0  0  0  0  0
  139.9490   80.5620  219.8420 C   0  0  0  0  0  0  0  0  0  0  0  0
  141.0380   81.2770  219.3200 C   0  0  0  0  0  0  0  0  0  0  0  0
  142.1580   80.5890  218.8160 C   0  0  0  0  0  0  0  0  0  0  0  0
  142.1980   79.1850  218.8460 C   0  0  0  0  0  0  0  0  0  0  0  0
  141.1320   78.4990  219.4410 C   0  0  0  0  0  0  0  0  0  0  0  0
  140.8500   77.0410  219.4770 C   0  0  1  0  0  0  0  0  0  0  0  0
  142.0120   76.1190  219.7830 C   0  0  0  0  0  0  0  0  0  0  0  0
  143.3720   76.4200  219.8470 C   0  0  0  0  0  0  0  0  0  0  0  0
  144.0960   75.3040  220.0950 N   0  0  0  0  0  0  0  0  0  0  0  0
  143.2120   74.2970  220.1710 C   0  0  0  0  0  0  0  0  0  0  0  0
  143.4840   72.9500  220.4050 C   0  0  0  0  0  0  0  0  0  0  0  0
  142.3970   72.0570  220.4380 C   0  0  0  0  0  0  0  0  0  0  0  0
  141.0800   72.5250  220.2370 C   0  0  0  0  0  0  0  0  0  0  0  0
  140.8360   73.8910  220.0020 C   0  0  0  0  0  0  0  0  0  0  0  0
  141.9340   74.7520  219.9760 C   0  0  0  0  0  0  0  0  0  0  0  0
  141.5664   76.8381  223.7716 H   0  0  0  0  0  0  0  0  0  0  0  0
  142.2720   76.9486  222.0861 H   0  0  0  0  0  0  0  0  0  0  0  0
  143.4542   78.9575  222.0963 H   0  0  0  0  0  0  0  0  0  0  0  0
  143.4528   81.4436  222.3224 H   0  0  0  0  0  0  0  0  0  0  0  0
  141.4338   82.6193  223.2044 H   0  0  0  0  0  0  0  0  0  0  0  0
  139.4159   81.3073  223.8688 H   0  0  0  0  0  0  0  0  0  0  0  0
  139.4030   78.8248  223.6278 H   0  0  0  0  0  0  0  0  0  0  0  0
  138.1721   78.1825  219.5140 H   0  0  0  0  0  0  0  0  0  0  0  0
  138.4891   78.4796  221.2247 H   0  0  0  0  0  0  0  0  0  0  0  0
  139.0543   81.0874  220.2074 H   0  0  0  0  0  0  0  0  0  0  0  0
  141.0164   82.3767  219.3047 H   0  0  0  0  0  0  0  0  0  0  0  0
  143.0047   81.1526  218.3972 H   0  0  0  0  0  0  0  0  0  0  0  0
  143.0473   78.6370  218.4120 H   0  0  0  0  0  0  0  0  0  0  0  0
  140.6463   76.6758  218.4596 H   0  0  0  0  0  0  0  0  0  0  0  0
  143.7975   77.4256  219.7142 H   0  0  0  0  0  0  0  0  0  0  0  0
  145.1340   75.2430  220.1930 H   0  0  0  0  0  0  0  0  0  0  0  0
  144.5143   72.5968  220.5588 H   0  0  0  0  0  0  0  0  0  0  0  0
  142.5744   70.9870  220.6216 H   0  0  0  0  0  0  0  0  0  0  0  0
  140.2387   71.8168  220.2643 H   0  0  0  0  0  0  0  0  0  0  0  0
  139.8145   74.2673  219.8442 H   0  0  0  0  0  0  0  0  0  0  0  0
  1  2  2  0
  2  3  2  0
  2  4  1  0
  4  5  1  0
  5  6  2  0
  6  7  1  0
  7  8  2  0
  8  9  1  0
  9 10  2  0
  2 11  1  0
 11 12  1  0
 12 13  1  0
 13 14  2  0
 14 15  1  0
 15 16  2  0
 16 17  1  0
 17 18  2  0
 18 19  1  0
 19 20  1  0
 20 21  2  0
 21 22  1  0
 22 23  1  0
 23 24  2  0
 24 25  1  0
 25 26  2  0
 26 27  1  0
 27 28  2  0
 10  5  1  0
 19 11  1  0
 28 20  1  0
 18 13  1  0
 28 23  1  0
  4 29  1  0
  4 30  1  0
  6 31  1  0
  7 32  1  0
  8 33  1  0
  9 34  1  0
 10 35  1  0
 12 36  1  0
 12 37  1  0
 14 38  1  0
 15 39  1  0
 16 40  1  0
 17 41  1  0
 19 42  1  6
 21 43  1  0
 22 44  1  0
 24 45  1  0
 25 46  1  0
 26 47  1  0
 27 48  1  0
M  END
>  <UniqueID>  (27) 
238

>  <SMILES>  (27) 
O=S(=O)(Cc1ccccc1)N1Cc2ccccc2[C@H]1c1c[nH]c2ccccc12

>  <Energy>  (27) 
91.28441718272475

>  <Genealogy>  (27) 
O=S(=O)(Cc1ccccc1)N1Cc2ccccc2[C@H]1c1c[nH]c2ccccc12 (3D coordinates assigned)
O=S(=O)(Cc1ccccc1)N1Cc2ccccc2[C@H]1c1c[nH]c2ccccc12 (nonaromatic ring conformer: 91.28441718272475 kcal/mol)

>  <smiles>  (27) 
O=S(=O)(Cc1ccccc1)N1Cc2ccccc2[C@H]1c1c[nH]c2ccccc12

>  <score_type>  (27) 
oracle

>  <origin>  (27) 
autodockgpu

>  <m_score__min__energy>  (27) 
-8.4100000000000001

>  <m_primary>  (27) 
energy

>  <meeko>  (27) 
{"free_energy": -6.72, "intermolecular_energy": -7.91, "internal_energy": -2.47, "cluster_size": 12, "cluster_id": 4, "rank_in_cluster": 2}

>  <energy>  (27) 
-7.46

>  <cluster_rmsd>  (27) 
0.41

>  <rmsd>  (27) 
268.72

>  <cluster>  (27) 
2

$$$$
WCZRIPJXOMUAPT-QHCPKHFHNA-N
     RDKit          3D

 48 52  0  0  0  0  0  0  0  0999 V2000
  138.8050   77.0790  222.8130 O   0  0  0  0  0  0  0  0  0  0  0  0
  139.9570   76.5120  222.0320 S   0  0  0  0  0  0  0  0  0  0  0  0
  139.9540   75.0270  222.2570 O   0  0  0  0  0  0  0  0  0  0  0  0
  141.4480   77.2400  222.7380 C   0  0  0  0  0  0  0  0  0  0  0  0
  141.4220   78.7440  222.8040 C   0  0  0  0  0  0  0  0  0  0  0  0
  142.5610   79.4910  222.4570 C   0  0  0  0  0  0  0  0  0  0  0  0
  142.5620   80.8830  222.5950 C   0  0  0  0  0  0  0  0  0  0  0  0
  141.4340   81.5370  223.0990 C   0  0  0  0  0  0  0  0  0  0  0  0
  140.3060   80.8010  223.4700 C   0  0  0  0  0  0  0  0  0  0  0  0
  140.3000   79.4100  223.3290 C   0  0  0  0  0  0  0  0  0  0  0  0
  139.6660   76.9020  220.3350 N   0  0  0  0  0  0  0  0  0  0  0  0
  138.9810   78.2110  220.2490 C   0  0  0  0  0  0  0  0  0  0  0  0
  140.0390   79.1770  219.8660 C   0  0  0  0  0  0  0  0  0  0  0  0
  139.9570   80.5700  219.8160 C   0  0  0  0  0  0  0  0  0  0  0  0
  141.0460   81.2860  219.2970 C   0  0  0  0  0  0  0  0  0  0  0  0
  142.1700   80.6000  218.7990 C   0  0  0  0  0  0  0  0  0  0  0  0
  142.2140   79.1970  218.8340 C   0  0  0  0  0  0  0  0  0  0  0  0
  141.1480   78.5090  219.4250 C   0  0  0  0  0  0  0  0  0  0  0  0
  140.8690   77.0500  219.4640 C   0  0  1  0  0  0  0  0  0  0  0  0
  142.0330   76.1330  219.7770 C   0  0  0  0  0  0  0  0  0  0  0  0
  143.3920   76.4370  219.8450 C   0  0  0  0  0  0  0  0  0  0  0  0
  144.1180   75.3240  220.1000 N   0  0  0  0  0  0  0  0  0  0  0  0
  143.2360   74.3140  220.1760 C   0  0  0  0  0  0  0  0  0  0  0  0
  143.5110   72.9690  220.4150 C   0  0  0  0  0  0  0  0  0  0  0  0
  142.4260   72.0730  220.4470 C   0  0  0  0  0  0  0  0  0  0  0  0
  141.1090   72.5370  220.2400 C   0  0  0  0  0  0  0  0  0  0  0  0
  140.8620   73.9020  219.9990 C   0  0  0  0  0  0  0  0  0  0  0  0
  141.9580   74.7660  219.9740 C   0  0  0  0  0  0  0  0  0  0  0  0
  141.5729   76.8509  223.7593 H   0  0  0  0  0  0  0  0  0  0  0  0
  142.2817   76.9645  222.0753 H   0  0  0  0  0  0  0  0  0  0  0  0
  143.4561   78.9783  222.0750 H   0  0  0  0  0  0  0  0  0  0  0  0
  143.4509   81.4633  222.3068 H   0  0  0  0  0  0  0  0  0  0  0  0
  141.4346   82.6320  223.2036 H   0  0  0  0  0  0  0  0  0  0  0  0
  139.4218   81.3163  223.8734 H   0  0  0  0  0  0  0  0  0  0  0  0
  139.4130   78.8334  223.6303 H   0  0  0  0  0  0  0  0  0  0  0  0
  138.1892   78.1830  219.4859 H   0  0  0  0  0  0  0  0  0  0  0  0
  138.4965   78.4854  221.1976 H   0  0  0  0  0  0  0  0  0  0  0  0
  139.0590   81.0940  220.1753 H   0  0  0  0  0  0  0  0  0  0  0  0
  141.0216   82.3856  219.2791 H   0  0  0  0  0  0  0  0  0  0  0  0
  143.0164   81.1649  218.3812 H   0  0  0  0  0  0  0  0  0  0  0  0
  143.0675   78.6506  218.4063 H   0  0  0  0  0  0  0  0  0  0  0  0
  140.6689   76.6810  218.4472 H   0  0  0  0  0  0  0  0  0  0  0  0
  143.8157   77.4431  219.7099 H   0  0  0  0  0  0  0  0  0  0  0  0
  145.1560   75.2660  220.2020 H   0  0  0  0  0  0  0  0  0  0  0  0
  144.5418   72.6191  220.5734 H   0  0  0  0  0  0  0  0  0  0  0  0
  142.6055   71.0041  220.6346 H   0  0  0  0  0  0  0  0  0  0  0  0
  140.2694   71.8268  220.2672 H   0  0  0  0  0  0  0  0  0  0  0  0
  139.8401   74.2749  219.8359 H   0  0  0  0  0  0  0  0  0  0  0  0
  1  2  2  0
  2  3  2  0
  2  4  1  0
  4  5  1  0
  5  6  2  0
  6  7  1  0
  7  8  2  0
  8  9  1  0
  9 10  2  0
  2 11  1  0
 11 12  1  0
 12 13  1  0
 13 14  2  0
 14 15  1  0
 15 16  2  0
 16 17  1  0
 17 18  2  0
 18 19  1  0
 19 20  1  0
 20 21  2  0
 21 22  1  0
 22 23  1  0
 23 24  2  0
 24 25  1  0
 25 26  2  0
 26 27  1  0
 27 28  2  0
 10  5  1  0
 19 11  1  0
 28 20  1  0
 18 13  1  0
 28 23  1  0
  4 29  1  0
  4 30  1  0
  6 31  1  0
  7 32  1  0
  8 33  1  0
  9 34  1  0
 10 35  1  0
 12 36  1  0
 12 37  1  0
 14 38  1  0
 15 39  1  0
 16 40  1  0
 17 41  1  0
 19 42  1  6
 21 43  1  0
 22 44  1  0
 24 45  1  0
 25 46  1  0
 26 47  1  0
 27 48  1  0
M  END
>  <UniqueID>  (28) 
238

>  <SMILES>  (28) 
O=S(=O)(Cc1ccccc1)N1Cc2ccccc2[C@H]1c1c[nH]c2ccccc12

>  <Energy>  (28) 
91.28441718272475

>  <Genealogy>  (28) 
O=S(=O)(Cc1ccccc1)N1Cc2ccccc2[C@H]1c1c[nH]c2ccccc12 (3D coordinates assigned)
O=S(=O)(Cc1ccccc1)N1Cc2ccccc2[C@H]1c1c[nH]c2ccccc12 (nonaromatic ring conformer: 91.28441718272475 kcal/mol)

>  <smiles>  (28) 
O=S(=O)(Cc1ccccc1)N1Cc2ccccc2[C@H]1c1c[nH]c2ccccc12

>  <score_type>  (28) 
oracle

>  <origin>  (28) 
autodockgpu

>  <m_score__min__energy>  (28) 
-8.4100000000000001

>  <m_primary>  (28) 
energy

>  <meeko>  (28) 
{"free_energy": -6.72, "intermolecular_energy": -7.91, "internal_energy": -2.48, "cluster_size": 12, "cluster_id": 4, "rank_in_cluster": 6}

>  <energy>  (28) 
-6.84

>  <cluster_rmsd>  (28) 
0.0

>  <rmsd>  (28) 
269.6

>  <cluster>  (28) 
3

$$$$
WCZRIPJXOMUAPT-QHCPKHFHNA-N
     RDKit          3D

 48 52  0  0  0  0  0  0  0  0999 V2000
  138.7980   77.0800  222.8360 O   0  0  0  0  0  0  0  0  0  0  0  0
  139.9450   76.5160  222.0470 S   0  0  0  0  0  0  0  0  0  0  0  0
  139.9420   75.0300  222.2650 O   0  0  0  0  0  0  0  0  0  0  0  0
  141.4400   77.2390  222.7500 C   0  0  0  0  0  0  0  0  0  0  0  0
  141.4210   78.7430  222.8110 C   0  0  0  0  0  0  0  0  0  0  0  0
  142.5670   79.4830  222.4710 C   0  0  0  0  0  0  0  0  0  0  0  0
  142.5730   80.8760  222.6040 C   0  0  0  0  0  0  0  0  0  0  0  0
  141.4450   81.5380  223.0960 C   0  0  0  0  0  0  0  0  0  0  0  0
  140.3100   80.8090  223.4600 C   0  0  0  0  0  0  0  0  0  0  0  0
  140.2980   79.4170  223.3240 C   0  0  0  0  0  0  0  0  0  0  0  0
  139.6470   76.9150  220.3530 N   0  0  0  0  0  0  0  0  0  0  0  0
  138.9680   78.2280  220.2770 C   0  0  0  0  0  0  0  0  0  0  0  0
  140.0290   79.1890  219.8910 C   0  0  0  0  0  0  0  0  0  0  0  0
  139.9540   80.5830  219.8480 C   0  0  0  0  0  0  0  0  0  0  0  0
  141.0440   81.2960  219.3260 C   0  0  0  0  0  0  0  0  0  0  0  0
  142.1620   80.6060  218.8190 C   0  0  0  0  0  0  0  0  0  0  0  0
  142.1990   79.2020  218.8470 C   0  0  0  0  0  0  0  0  0  0  0  0
  141.1320   78.5170  219.4420 C   0  0  0  0  0  0  0  0  0  0  0  0
  140.8460   77.0600  219.4760 C   0  0  1  0  0  0  0  0  0  0  0  0
  142.0070   76.1350  219.7790 C   0  0  0  0  0  0  0  0  0  0  0  0
  143.3680   76.4330  219.8450 C   0  0  0  0  0  0  0  0  0  0  0  0
  144.0890   75.3150  220.0900 N   0  0  0  0  0  0  0  0  0  0  0  0
  143.2030   74.3090  220.1600 C   0  0  0  0  0  0  0  0  0  0  0  0
  143.4720   72.9600  220.3890 C   0  0  0  0  0  0  0  0  0  0  0  0
  142.3840   72.0690  220.4180 C   0  0  0  0  0  0  0  0  0  0  0  0
  141.0680   72.5400  220.2180 C   0  0  0  0  0  0  0  0  0  0  0  0
  140.8270   73.9080  219.9880 C   0  0  0  0  0  0  0  0  0  0  0  0
  141.9260   74.7670  219.9660 C   0  0  0  0  0  0  0  0  0  0  0  0
  141.5636   76.8526  223.7725 H   0  0  0  0  0  0  0  0  0  0  0  0
  142.2721   76.9573  222.0880 H   0  0  0  0  0  0  0  0  0  0  0  0
  143.4630   78.9647  222.0987 H   0  0  0  0  0  0  0  0  0  0  0  0
  143.4671   81.4508  222.3208 H   0  0  0  0  0  0  0  0  0  0  0  0
  141.4506   82.6334  223.1967 H   0  0  0  0  0  0  0  0  0  0  0  0
  139.4251   81.3303  223.8539 H   0  0  0  0  0  0  0  0  0  0  0  0
  139.4055   78.8462  223.6198 H   0  0  0  0  0  0  0  0  0  0  0  0
  138.1711   78.2075  219.5191 H   0  0  0  0  0  0  0  0  0  0  0  0
  138.4908   78.5013  221.2297 H   0  0  0  0  0  0  0  0  0  0  0  0
  139.0608   81.1099  220.2150 H   0  0  0  0  0  0  0  0  0  0  0  0
  141.0252   82.3958  219.3128 H   0  0  0  0  0  0  0  0  0  0  0  0
  143.0093   81.1684  218.3996 H   0  0  0  0  0  0  0  0  0  0  0  0
  143.0469   78.6530  218.4115 H   0  0  0  0  0  0  0  0  0  0  0  0
  140.6390   76.6964  218.4587 H   0  0  0  0  0  0  0  0  0  0  0  0
  143.7958   77.4381  219.7157 H   0  0  0  0  0  0  0  0  0  0  0  0
  145.1270   75.2510  220.1880 H   0  0  0  0  0  0  0  0  0  0  0  0
  144.5016   72.6042  220.5420 H   0  0  0  0  0  0  0  0  0  0  0  0
  142.5596   70.9981  220.5977 H   0  0  0  0  0  0  0  0  0  0  0  0
  140.2253   71.8334  220.2420 H   0  0  0  0  0  0  0  0  0  0  0  0
  139.8063   74.2868  219.8309 H   0  0  0  0  0  0  0  0  0  0  0  0
  1  2  2  0
  2  3  2  0
  2  4  1  0
  4  5  1  0
  5  6  2  0
  6  7  1  0
  7  8  2  0
  8  9  1  0
  9 10  2  0
  2 11  1  0
 11 12  1  0
 12 13  1  0
 13 14  2  0
 14 15  1  0
 15 16  2  0
 16 17  1  0
 17 18  2  0
 18 19  1  0
 19 20  1  0
 20 21  2  0
 21 22  1  0
 22 23  1  0
 23 24  2  0
 24 25  1  0
 25 26  2  0
 26 27  1  0
 27 28  2  0
 10  5  1  0
 19 11  1  0
 28 20  1  0
 18 13  1  0
 28 23  1  0
  4 29  1  0
  4 30  1  0
  6 31  1  0
  7 32  1  0
  8 33  1  0
  9 34  1  0
 10 35  1  0
 12 36  1  0
 12 37  1  0
 14 38  1  0
 15 39  1  0
 16 40  1  0
 17 41  1  0
 19 42  1  6
 21 43  1  0
 22 44  1  0
 24 45  1  0
 25 46  1  0
 26 47  1  0
 27 48  1  0
M  END
>  <UniqueID>  (29) 
238

>  <SMILES>  (29) 
O=S(=O)(Cc1ccccc1)N1Cc2ccccc2[C@H]1c1c[nH]c2ccccc12

>  <Energy>  (29) 
91.28441718272475

>  <Genealogy>  (29) 
O=S(=O)(Cc1ccccc1)N1Cc2ccccc2[C@H]1c1c[nH]c2ccccc12 (3D coordinates assigned)
O=S(=O)(Cc1ccccc1)N1Cc2ccccc2[C@H]1c1c[nH]c2ccccc12 (nonaromatic ring conformer: 91.28441718272475 kcal/mol)

>  <smiles>  (29) 
O=S(=O)(Cc1ccccc1)N1Cc2ccccc2[C@H]1c1c[nH]c2ccccc12

>  <score_type>  (29) 
oracle

>  <origin>  (29) 
autodockgpu

>  <m_score__min__energy>  (29) 
-8.4100000000000001

>  <m_primary>  (29) 
energy

>  <meeko>  (29) 
{"free_energy": -6.71, "intermolecular_energy": -7.91, "internal_energy": -2.48, "cluster_size": 12, "cluster_id": 4, "rank_in_cluster": 11}

>  <energy>  (29) 
-6.72

>  <cluster_rmsd>  (29) 
0.0

>  <rmsd>  (29) 
269.45

>  <cluster>  (29) 
4

$$$$
WCZRIPJXOMUAPT-QHCPKHFHNA-N
     RDKit          3D

 48 52  0  0  0  0  0  0  0  0999 V2000
  141.1940   74.7510  221.8410 O   0  0  0  0  0  0  0  0  0  0  0  0
  141.1320   75.5320  220.5580 S   0  0  0  0  0  0  0  0  0  0  0  0
  140.4640   74.6540  219.5400 O   0  0  0  0  0  0  0  0  0  0  0  0
  142.8420   75.8440  220.0780 C   0  0  0  0  0  0  0  0  0  0  0  0
  143.7170   74.6180  220.0990 C   0  0  0  0  0  0  0  0  0  0  0  0
  143.1750   73.3530  219.8180 C   0  0  0  0  0  0  0  0  0  0  0  0
  143.9700   72.2060  219.9150 C   0  0  0  0  0  0  0  0  0  0  0  0
  145.3050   72.3120  220.3130 C   0  0  0  0  0  0  0  0  0  0  0  0
  145.8470   73.5630  220.6190 C   0  0  0  0  0  0  0  0  0  0  0  0
  145.0560   74.7120  220.5180 C   0  0  0  0  0  0  0  0  0  0  0  0
  140.1730   76.9780  220.8850 N   0  0  0  0  0  0  0  0  0  0  0  0
  140.1140   77.2000  222.3470 C   0  0  0  0  0  0  0  0  0  0  0  0
  141.0880   78.2860  222.6120 C   0  0  0  0  0  0  0  0  0  0  0  0
  141.5380   78.7560  223.8470 C   0  0  0  0  0  0  0  0  0  0  0  0
  142.3700   79.8860  223.8700 C   0  0  0  0  0  0  0  0  0  0  0  0
  142.6970   80.5470  222.6710 C   0  0  0  0  0  0  0  0  0  0  0  0
  142.2060   80.0700  221.4440 C   0  0  0  0  0  0  0  0  0  0  0  0
  141.4410   78.8970  221.4410 C   0  0  0  0  0  0  0  0  0  0  0  0
  140.6860   78.2640  220.3290 C   0  0  1  0  0  0  0  0  0  0  0  0
  141.3790   78.1780  218.9850 C   0  0  0  0  0  0  0  0  0  0  0  0
  142.5720   78.7750  218.5760 C   0  0  0  0  0  0  0  0  0  0  0  0
  142.8240   78.4960  217.2770 N   0  0  0  0  0  0  0  0  0  0  0  0
  141.7950   77.7450  216.8520 C   0  0  0  0  0  0  0  0  0  0  0  0
  141.6040   77.2190  215.5750 C   0  0  0  0  0  0  0  0  0  0  0  0
  140.4430   76.4580  215.3450 C   0  0  0  0  0  0  0  0  0  0  0  0
  139.5110   76.2440  216.3840 C   0  0  0  0  0  0  0  0  0  0  0  0
  139.7300   76.7890  217.6630 C   0  0  0  0  0  0  0  0  0  0  0  0
  140.8910   77.5380  217.8600 C   0  0  0  0  0  0  0  0  0  0  0  0
  142.8456   76.2542  219.0574 H   0  0  0  0  0  0  0  0  0  0  0  0
  143.2576   76.5447  220.8172 H   0  0  0  0  0  0  0  0  0  0  0  0
  142.1199   73.2638  219.5201 H   0  0  0  0  0  0  0  0  0  0  0  0
  143.5438   71.2201  219.6778 H   0  0  0  0  0  0  0  0  0  0  0  0
  145.9300   71.4097  220.3856 H   0  0  0  0  0  0  0  0  0  0  0  0
  146.8962   73.6442  220.9394 H   0  0  0  0  0  0  0  0  0  0  0  0
  145.4835   75.6943  220.7676 H   0  0  0  0  0  0  0  0  0  0  0  0
  139.1020   77.5062  222.6506 H   0  0  0  0  0  0  0  0  0  0  0  0
  140.3508   76.2867  222.9126 H   0  0  0  0  0  0  0  0  0  0  0  0
  141.2472   78.2523  224.7807 H   0  0  0  0  0  0  0  0  0  0  0  0
  142.7673   80.2558  224.8267 H   0  0  0  0  0  0  0  0  0  0  0  0
  143.3390   81.4399  222.6947 H   0  0  0  0  0  0  0  0  0  0  0  0
  142.4177   80.6058  220.5069 H   0  0  0  0  0  0  0  0  0  0  0  0
  139.8589   78.9192  220.0181 H   0  0  0  0  0  0  0  0  0  0  0  0
  143.2184   79.3881  219.2212 H   0  0  0  0  0  0  0  0  0  0  0  0
  143.6460   78.8150  216.7190 H   0  0  0  0  0  0  0  0  0  0  0  0
  142.3370   77.3932  214.7735 H   0  0  0  0  0  0  0  0  0  0  0  0
  140.2603   76.0271  214.3496 H   0  0  0  0  0  0  0  0  0  0  0  0
  138.6072   75.6470  216.1924 H   0  0  0  0  0  0  0  0  0  0  0  0
  139.0105   76.6300  218.4797 H   0  0  0  0  0  0  0  0  0  0  0  0
  1  2  2  0
  2  3  2  0
  2  4  1  0
  4  5  1  0
  5  6  2  0
  6  7  1  0
  7  8  2  0
  8  9  1  0
  9 10  2  0
  2 11  1  0
 11 12  1  0
 12 13  1  0
 13 14  2  0
 14 15  1  0
 15 16  2  0
 16 17  1  0
 17 18  2  0
 18 19  1  0
 19 20  1  0
 20 21  2  0
 21 22  1  0
 22 23  1  0
 23 24  2  0
 24 25  1  0
 25 26  2  0
 26 27  1  0
 27 28  2  0
 10  5  1  0
 19 11  1  0
 28 20  1  0
 18 13  1  0
 28 23  1  0
  4 29  1  0
  4 30  1  0
  6 31  1  0
  7 32  1  0
  8 33  1  0
  9 34  1  0
 10 35  1  0
 12 36  1  0
 12 37  1  0
 14 38  1  0
 15 39  1  0
 16 40  1  0
 17 41  1  0
 19 42  1  6
 21 43  1  0
 22 44  1  0
 24 45  1  0
 25 46  1  0
 26 47  1  0
 27 48  1  0
M  END
>  <UniqueID>  (30) 
238

>  <SMILES>  (30) 
O=S(=O)(Cc1ccccc1)N1Cc2ccccc2[C@H]1c1c[nH]c2ccccc12

>  <Energy>  (30) 
91.28441718272475

>  <Genealogy>  (30) 
O=S(=O)(Cc1ccccc1)N1Cc2ccccc2[C@H]1c1c[nH]c2ccccc12 (3D coordinates assigned)
O=S(=O)(Cc1ccccc1)N1Cc2ccccc2[C@H]1c1c[nH]c2ccccc12 (nonaromatic ring conformer: 91.28441718272475 kcal/mol)

>  <smiles>  (30) 
O=S(=O)(Cc1ccccc1)N1Cc2ccccc2[C@H]1c1c[nH]c2ccccc12

>  <score_type>  (30) 
oracle

>  <origin>  (30) 
autodockgpu

>  <m_score__min__energy>  (30) 
-8.4100000000000001

>  <m_primary>  (30) 
energy

>  <meeko>  (30) 
{"free_energy": -7.52, "intermolecular_energy": -8.71, "internal_energy": -1.68, "cluster_size": 5, "cluster_id": 2, "rank_in_cluster": 2}

>  <energy>  (30) 
-6.72

>  <cluster_rmsd>  (30) 
0.03

>  <rmsd>  (30) 
269.43

>  <cluster>  (30) 
4

$$$$
WCZRIPJXOMUAPT-QHCPKHFHNA-N
     RDKit          3D

 48 52  0  0  0  0  0  0  0  0999 V2000
  135.3580   68.8130  224.2300 O   0  0  0  0  0  0  0  0  0  0  0  0
  136.5070   69.7770  224.3230 S   0  0  0  0  0  0  0  0  0  0  0  0
  137.1520   69.5670  225.6620 O   0  0  0  0  0  0  0  0  0  0  0  0
  135.7840   71.4270  224.2380 C   0  0  0  0  0  0  0  0  0  0  0  0
  134.7010   71.6740  225.2540 C   0  0  0  0  0  0  0  0  0  0  0  0
  134.1030   72.9410  225.3620 C   0  0  0  0  0  0  0  0  0  0  0  0
  133.1540   73.1920  226.3590 C   0  0  0  0  0  0  0  0  0  0  0  0
  132.8100   72.1860  227.2670 C   0  0  0  0  0  0  0  0  0  0  0  0
  133.4180   70.9310  227.1830 C   0  0  0  0  0  0  0  0  0  0  0  0
  134.3630   70.6760  226.1850 C   0  0  0  0  0  0  0  0  0  0  0  0
  137.6170   69.3800  223.0080 N   0  0  0  0  0  0  0  0  0  0  0  0
  137.4250   70.3450  221.9030 C   0  0  0  0  0  0  0  0  0  0  0  0
  138.5550   71.2970  222.0220 C   0  0  0  0  0  0  0  0  0  0  0  0
  138.7500   72.4930  221.3290 C   0  0  0  0  0  0  0  0  0  0  0  0
  139.9630   73.1780  221.5030 C   0  0  0  0  0  0  0  0  0  0  0  0
  140.9690   72.6350  222.3260 C   0  0  0  0  0  0  0  0  0  0  0  0
  140.7570   71.4150  222.9880 C   0  0  0  0  0  0  0  0  0  0  0  0
  139.5110   70.7900  222.8580 C   0  0  0  0  0  0  0  0  0  0  0  0
  139.0750   69.4460  223.3170 C   0  0  1  0  0  0  0  0  0  0  0  0
  139.4780   69.0310  224.7170 C   0  0  0  0  0  0  0  0  0  0  0  0
  139.4650   67.7590  225.2900 C   0  0  0  0  0  0  0  0  0  0  0  0
  139.8490   67.8160  226.5850 N   0  0  0  0  0  0  0  0  0  0  0  0
  140.0870   69.1120  226.8470 C   0  0  0  0  0  0  0  0  0  0  0  0
  140.5010   69.6680  228.0560 C   0  0  0  0  0  0  0  0  0  0  0  0
  140.6860   71.0620  228.1080 C   0  0  0  0  0  0  0  0  0  0  0  0
  140.4550   71.8580  226.9650 C   0  0  0  0  0  0  0  0  0  0  0  0
  140.0370   71.2680  225.7580 C   0  0  0  0  0  0  0  0  0  0  0  0
  139.8630   69.8830  225.7360 C   0  0  0  0  0  0  0  0  0  0  0  0
  136.5844   72.1641  224.3995 H   0  0  0  0  0  0  0  0  0  0  0  0
  135.3170   71.5192  223.2463 H   0  0  0  0  0  0  0  0  0  0  0  0
  134.3824   73.7396  224.6591 H   0  0  0  0  0  0  0  0  0  0  0  0
  132.6783   74.1814  226.4285 H   0  0  0  0  0  0  0  0  0  0  0  0
  132.0605   72.3827  228.0477 H   0  0  0  0  0  0  0  0  0  0  0  0
  133.1528   70.1427  227.9029 H   0  0  0  0  0  0  0  0  0  0  0  0
  134.8450   69.6889  226.1277 H   0  0  0  0  0  0  0  0  0  0  0  0
  137.4541   69.8304  220.9312 H   0  0  0  0  0  0  0  0  0  0  0  0
  136.4506   70.8519  221.9627 H   0  0  0  0  0  0  0  0  0  0  0  0
  137.9708   72.8898  220.6616 H   0  0  0  0  0  0  0  0  0  0  0  0
  140.1281   74.1401  220.9960 H   0  0  0  0  0  0  0  0  0  0  0  0
  141.9231   73.1681  222.4504 H   0  0  0  0  0  0  0  0  0  0  0  0
  141.5530   70.9600  223.5958 H   0  0  0  0  0  0  0  0  0  0  0  0
  139.6303   68.6666  222.7746 H   0  0  0  0  0  0  0  0  0  0  0  0
  139.1815   66.8371  224.7611 H   0  0  0  0  0  0  0  0  0  0  0  0
  139.9290   67.0130  227.2480 H   0  0  0  0  0  0  0  0  0  0  0  0
  140.6773   69.0380  228.9403 H   0  0  0  0  0  0  0  0  0  0  0  0
  141.0129   71.5349  229.0458 H   0  0  0  0  0  0  0  0  0  0  0  0
  140.6028   72.9467  227.0185 H   0  0  0  0  0  0  0  0  0  0  0  0
  139.8534   71.8779  224.8612 H   0  0  0  0  0  0  0  0  0  0  0  0
  1  2  2  0
  2  3  2  0
  2  4  1  0
  4  5  1  0
  5  6  2  0
  6  7  1  0
  7  8  2  0
  8  9  1  0
  9 10  2  0
  2 11  1  0
 11 12  1  0
 12 13  1  0
 13 14  2  0
 14 15  1  0
 15 16  2  0
 16 17  1  0
 17 18  2  0
 18 19  1  0
 19 20  1  0
 20 21  2  0
 21 22  1  0
 22 23  1  0
 23 24  2  0
 24 25  1  0
 25 26  2  0
 26 27  1  0
 27 28  2  0
 10  5  1  0
 19 11  1  0
 28 20  1  0
 18 13  1  0
 28 23  1  0
  4 29  1  0
  4 30  1  0
  6 31  1  0
  7 32  1  0
  8 33  1  0
  9 34  1  0
 10 35  1  0
 12 36  1  0
 12 37  1  0
 14 38  1  0
 15 39  1  0
 16 40  1  0
 17 41  1  0
 19 42  1  6
 21 43  1  0
 22 44  1  0
 24 45  1  0
 25 46  1  0
 26 47  1  0
 27 48  1  0
M  END
>  <UniqueID>  (31) 
238

>  <SMILES>  (31) 
O=S(=O)(Cc1ccccc1)N1Cc2ccccc2[C@H]1c1c[nH]c2ccccc12

>  <Energy>  (31) 
91.28441718272475

>  <Genealogy>  (31) 
O=S(=O)(Cc1ccccc1)N1Cc2ccccc2[C@H]1c1c[nH]c2ccccc12 (3D coordinates assigned)
O=S(=O)(Cc1ccccc1)N1Cc2ccccc2[C@H]1c1c[nH]c2ccccc12 (nonaromatic ring conformer: 91.28441718272475 kcal/mol)

>  <smiles>  (31) 
O=S(=O)(Cc1ccccc1)N1Cc2ccccc2[C@H]1c1c[nH]c2ccccc12

>  <score_type>  (31) 
oracle

>  <origin>  (31) 
autodockgpu

>  <m_score__min__energy>  (31) 
-8.4100000000000001

>  <m_primary>  (31) 
energy

>  <meeko>  (31) 
{"free_energy": -8.41, "intermolecular_energy": -9.61, "internal_energy": -1.04, "cluster_size": 2, "cluster_id": 1, "rank_in_cluster": 1}

>  <energy>  (31) 
-6.72

>  <cluster_rmsd>  (31) 
0.04

>  <rmsd>  (31) 
269.42

>  <cluster>  (31) 
4

$$$$
WCZRIPJXOMUAPT-QHCPKHFHNA-N
     RDKit          3D

 48 52  0  0  0  0  0  0  0  0999 V2000
  138.7960   77.0820  222.8060 O   0  0  0  0  0  0  0  0  0  0  0  0
  139.9460   76.5100  222.0250 S   0  0  0  0  0  0  0  0  0  0  0  0
  139.9370   75.0260  222.2510 O   0  0  0  0  0  0  0  0  0  0  0  0
  141.4400   77.2320  222.7310 C   0  0  0  0  0  0  0  0  0  0  0  0
  141.4190   78.7360  222.8010 C   0  0  0  0  0  0  0  0  0  0  0  0
  142.5590   79.4800  222.4530 C   0  0  0  0  0  0  0  0  0  0  0  0
  142.5640   80.8720  222.5940 C   0  0  0  0  0  0  0  0  0  0  0  0
  141.4400   81.5290  223.1010 C   0  0  0  0  0  0  0  0  0  0  0  0
  140.3100   80.7950  223.4730 C   0  0  0  0  0  0  0  0  0  0  0  0
  140.3000   79.4040  223.3290 C   0  0  0  0  0  0  0  0  0  0  0  0
  139.6580   76.9020  220.3280 N   0  0  0  0  0  0  0  0  0  0  0  0
  138.9780   78.2140  220.2420 C   0  0  0  0  0  0  0  0  0  0  0  0
  140.0410   79.1740  219.8580 C   0  0  0  0  0  0  0  0  0  0  0  0
  139.9650   80.5670  219.8090 C   0  0  0  0  0  0  0  0  0  0  0  0
  141.0580   81.2790  219.2900 C   0  0  0  0  0  0  0  0  0  0  0  0
  142.1790   80.5880  218.7920 C   0  0  0  0  0  0  0  0  0  0  0  0
  142.2160   79.1840  218.8270 C   0  0  0  0  0  0  0  0  0  0  0  0
  141.1470   78.5010  219.4190 C   0  0  0  0  0  0  0  0  0  0  0  0
  140.8620   77.0440  219.4570 C   0  0  1  0  0  0  0  0  0  0  0  0
  142.0210   76.1210  219.7710 C   0  0  0  0  0  0  0  0  0  0  0  0
  143.3820   76.4190  219.8400 C   0  0  0  0  0  0  0  0  0  0  0  0
  144.1020   75.3040  220.0950 N   0  0  0  0  0  0  0  0  0  0  0  0
  143.2160   74.2980  220.1700 C   0  0  0  0  0  0  0  0  0  0  0  0
  143.4850   72.9510  220.4090 C   0  0  0  0  0  0  0  0  0  0  0  0
  142.3960   72.0600  220.4400 C   0  0  0  0  0  0  0  0  0  0  0  0
  141.0810   72.5300  220.2320 C   0  0  0  0  0  0  0  0  0  0  0  0
  140.8410   73.8950  219.9920 C   0  0  0  0  0  0  0  0  0  0  0  0
  141.9400   74.7550  219.9680 C   0  0  0  0  0  0  0  0  0  0  0  0
  141.5650   76.8399  223.7511 H   0  0  0  0  0  0  0  0  0  0  0  0
  142.2718   76.9558  222.0664 H   0  0  0  0  0  0  0  0  0  0  0  0
  143.4518   78.9656  222.0679 H   0  0  0  0  0  0  0  0  0  0  0  0
  143.4542   81.4500  222.3052 H   0  0  0  0  0  0  0  0  0  0  0  0
  141.4443   82.6238  223.2074 H   0  0  0  0  0  0  0  0  0  0  0  0
  139.4281   81.3119  223.8793 H   0  0  0  0  0  0  0  0  0  0  0  0
  139.4118   78.8293  223.6304 H   0  0  0  0  0  0  0  0  0  0  0  0
  138.1857   78.1893  219.4794 H   0  0  0  0  0  0  0  0  0  0  0  0
  138.4944   78.4912  221.1903 H   0  0  0  0  0  0  0  0  0  0  0  0
  139.0694   81.0947  220.1688 H   0  0  0  0  0  0  0  0  0  0  0  0
  141.0385   82.3787  219.2724 H   0  0  0  0  0  0  0  0  0  0  0  0
  143.0281   81.1489  218.3744 H   0  0  0  0  0  0  0  0  0  0  0  0
  143.0664   78.6334  218.3985 H   0  0  0  0  0  0  0  0  0  0  0  0
  140.6618   76.6764  218.4398 H   0  0  0  0  0  0  0  0  0  0  0  0
  143.8103   77.4232  219.7054 H   0  0  0  0  0  0  0  0  0  0  0  0
  145.1400   75.2410  220.1980 H   0  0  0  0  0  0  0  0  0  0  0  0
  144.5141   72.5965  220.5680 H   0  0  0  0  0  0  0  0  0  0  0  0
  142.5705   70.9903  220.6276 H   0  0  0  0  0  0  0  0  0  0  0  0
  140.2381   71.8236  220.2578 H   0  0  0  0  0  0  0  0  0  0  0  0
  139.8207   74.2723  219.8286 H   0  0  0  0  0  0  0  0  0  0  0  0
  1  2  2  0
  2  3  2  0
  2  4  1  0
  4  5  1  0
  5  6  2  0
  6  7  1  0
  7  8  2  0
  8  9  1  0
  9 10  2  0
  2 11  1  0
 11 12  1  0
 12 13  1  0
 13 14  2  0
 14 15  1  0
 15 16  2  0
 16 17  1  0
 17 18  2  0
 18 19  1  0
 19 20  1  0
 20 21  2  0
 21 22  1  0
 22 23  1  0
 23 24  2  0
 24 25  1  0
 25 26  2  0
 26 27  1  0
 27 28  2  0
 10  5  1  0
 19 11  1  0
 28 20  1  0
 18 13  1  0
 28 23  1  0
  4 29  1  0
  4 30  1  0
  6 31  1  0
  7 32  1  0
  8 33  1  0
  9 34  1  0
 10 35  1  0
 12 36  1  0
 12 37  1  0
 14 38  1  0
 15 39  1  0
 16 40  1  0
 17 41  1  0
 19 42  1  6
 21 43  1  0
 22 44  1  0
 24 45  1  0
 25 46  1  0
 26 47  1  0
 27 48  1  0
M  END
>  <UniqueID>  (32) 
238

>  <SMILES>  (32) 
O=S(=O)(Cc1ccccc1)N1Cc2ccccc2[C@H]1c1c[nH]c2ccccc12

>  <Energy>  (32) 
91.28441718272475

>  <Genealogy>  (32) 
O=S(=O)(Cc1ccccc1)N1Cc2ccccc2[C@H]1c1c[nH]c2ccccc12 (3D coordinates assigned)
O=S(=O)(Cc1ccccc1)N1Cc2ccccc2[C@H]1c1c[nH]c2ccccc12 (nonaromatic ring conformer: 91.28441718272475 kcal/mol)

>  <smiles>  (32) 
O=S(=O)(Cc1ccccc1)N1Cc2ccccc2[C@H]1c1c[nH]c2ccccc12

>  <score_type>  (32) 
oracle

>  <origin>  (32) 
autodockgpu

>  <m_score__min__energy>  (32) 
-8.4100000000000001

>  <m_primary>  (32) 
energy

>  <meeko>  (32) 
{"free_energy": -6.72, "intermolecular_energy": -7.91, "internal_energy": -2.47, "cluster_size": 12, "cluster_id": 4, "rank_in_cluster": 7}

>  <energy>  (32) 
-6.72

>  <cluster_rmsd>  (32) 
0.04

>  <rmsd>  (32) 
269.43

>  <cluster>  (32) 
4

$$$$
WCZRIPJXOMUAPT-QHCPKHFHNA-N
     RDKit          3D

 48 52  0  0  0  0  0  0  0  0999 V2000
  141.4310   74.6110  221.8650 O   0  0  0  0  0  0  0  0  0  0  0  0
  141.3340   75.3770  220.5760 S   0  0  0  0  0  0  0  0  0  0  0  0
  140.7120   74.4590  219.5630 O   0  0  0  0  0  0  0  0  0  0  0  0
  143.0280   75.7690  220.0970 C   0  0  0  0  0  0  0  0  0  0  0  0
  143.9370   74.5710  220.0310 C   0  0  0  0  0  0  0  0  0  0  0  0
  143.5690   73.4380  219.2870 C   0  0  0  0  0  0  0  0  0  0  0  0
  144.3770   72.2960  219.2900 C   0  0  0  0  0  0  0  0  0  0  0  0
  145.5480   72.2700  220.0530 C   0  0  0  0  0  0  0  0  0  0  0  0
  145.9100   73.3820  220.8170 C   0  0  0  0  0  0  0  0  0  0  0  0
  145.1070   74.5270  220.8120 C   0  0  0  0  0  0  0  0  0  0  0  0
  140.3040   76.7770  220.8880 N   0  0  0  0  0  0  0  0  0  0  0  0
  140.2280   77.0070  222.3480 C   0  0  0  0  0  0  0  0  0  0  0  0
  141.1480   78.1400  222.6090 C   0  0  0  0  0  0  0  0  0  0  0  0
  141.5690   78.6410  223.8420 C   0  0  0  0  0  0  0  0  0  0  0  0
  142.3450   79.8110  223.8600 C   0  0  0  0  0  0  0  0  0  0  0  0
  142.6440   80.4780  222.6570 C   0  0  0  0  0  0  0  0  0  0  0  0
  142.1810   79.9690  221.4320 C   0  0  0  0  0  0  0  0  0  0  0  0
  141.4750   78.7600  221.4350 C   0  0  0  0  0  0  0  0  0  0  0  0
  140.7560   78.0830  220.3250 C   0  0  1  0  0  0  0  0  0  0  0  0
  141.4580   78.0210  218.9840 C   0  0  0  0  0  0  0  0  0  0  0  0
  142.6100   78.6880  218.5680 C   0  0  0  0  0  0  0  0  0  0  0  0
  142.8840   78.4060  217.2750 N   0  0  0  0  0  0  0  0  0  0  0  0
  141.9080   77.5820  216.8590 C   0  0  0  0  0  0  0  0  0  0  0  0
  141.7560   77.0250  215.5900 C   0  0  0  0  0  0  0  0  0  0  0  0
  140.6470   76.1870  215.3700 C   0  0  0  0  0  0  0  0  0  0  0  0
  139.7280   75.9290  216.4100 C   0  0  0  0  0  0  0  0  0  0  0  0
  139.9070   76.5070  217.6810 C   0  0  0  0  0  0  0  0  0  0  0  0
  141.0160   77.3330  217.8690 C   0  0  0  0  0  0  0  0  0  0  0  0
  143.0063   76.2422  219.1042 H   0  0  0  0  0  0  0  0  0  0  0  0
  143.4331   76.4342  220.8737 H   0  0  0  0  0  0  0  0  0  0  0  0
  142.6398   73.4487  218.6984 H   0  0  0  0  0  0  0  0  0  0  0  0
  144.0908   71.4183  218.6918 H   0  0  0  0  0  0  0  0  0  0  0  0
  146.1849   71.3731  220.0518 H   0  0  0  0  0  0  0  0  0  0  0  0
  146.8276   73.3571  221.4232 H   0  0  0  0  0  0  0  0  0  0  0  0
  145.3912   75.3975  221.4215 H   0  0  0  0  0  0  0  0  0  0  0  0
  139.2013   77.2670  222.6450 H   0  0  0  0  0  0  0  0  0  0  0  0
  140.5055   76.1103  222.9215 H   0  0  0  0  0  0  0  0  0  0  0  0
  141.2989   78.1307  224.7783 H   0  0  0  0  0  0  0  0  0  0  0  0
  142.7198   80.2069  224.8154 H   0  0  0  0  0  0  0  0  0  0  0  0
  143.2422   81.4009  222.6761 H   0  0  0  0  0  0  0  0  0  0  0  0
  142.3690   80.5082  220.4918 H   0  0  0  0  0  0  0  0  0  0  0  0
  139.8992   78.6952  220.0070 H   0  0  0  0  0  0  0  0  0  0  0  0
  143.2127   79.3523  219.2047 H   0  0  0  0  0  0  0  0  0  0  0  0
  143.6860   78.7700  216.7130 H   0  0  0  0  0  0  0  0  0  0  0  0
  142.4788   77.2336  214.7875 H   0  0  0  0  0  0  0  0  0  0  0  0
  140.4953   75.7300  214.3810 H   0  0  0  0  0  0  0  0  0  0  0  0
  138.8656   75.2714  216.2259 H   0  0  0  0  0  0  0  0  0  0  0  0
  139.1967   76.3141  218.4984 H   0  0  0  0  0  0  0  0  0  0  0  0
  1  2  2  0
  2  3  2  0
  2  4  1  0
  4  5  1  0
  5  6  2  0
  6  7  1  0
  7  8  2  0
  8  9  1  0
  9 10  2  0
  2 11  1  0
 11 12  1  0
 12 13  1  0
 13 14  2  0
 14 15  1  0
 15 16  2  0
 16 17  1  0
 17 18  2  0
 18 19  1  0
 19 20  1  0
 20 21  2  0
 21 22  1  0
 22 23  1  0
 23 24  2  0
 24 25  1  0
 25 26  2  0
 26 27  1  0
 27 28  2  0
 10  5  1  0
 19 11  1  0
 28 20  1  0
 18 13  1  0
 28 23  1  0
  4 29  1  0
  4 30  1  0
  6 31  1  0
  7 32  1  0
  8 33  1  0
  9 34  1  0
 10 35  1  0
 12 36  1  0
 12 37  1  0
 14 38  1  0
 15 39  1  0
 16 40  1  0
 17 41  1  0
 19 42  1  6
 21 43  1  0
 22 44  1  0
 24 45  1  0
 25 46  1  0
 26 47  1  0
 27 48  1  0
M  END
>  <UniqueID>  (33) 
238

>  <SMILES>  (33) 
O=S(=O)(Cc1ccccc1)N1Cc2ccccc2[C@H]1c1c[nH]c2ccccc12

>  <Energy>  (33) 
91.28441718272475

>  <Genealogy>  (33) 
O=S(=O)(Cc1ccccc1)N1Cc2ccccc2[C@H]1c1c[nH]c2ccccc12 (3D coordinates assigned)
O=S(=O)(Cc1ccccc1)N1Cc2ccccc2[C@H]1c1c[nH]c2ccccc12 (nonaromatic ring conformer: 91.28441718272475 kcal/mol)

>  <smiles>  (33) 
O=S(=O)(Cc1ccccc1)N1Cc2ccccc2[C@H]1c1c[nH]c2ccccc12

>  <score_type>  (33) 
oracle

>  <origin>  (33) 
autodockgpu

>  <m_score__min__energy>  (33) 
-8.4100000000000001

>  <m_primary>  (33) 
energy

>  <meeko>  (33) 
{"free_energy": -7.51, "intermolecular_energy": -8.7, "internal_energy": -1.71, "cluster_size": 5, "cluster_id": 2, "rank_in_cluster": 3}

>  <energy>  (33) 
-6.72

>  <cluster_rmsd>  (33) 
0.04

>  <rmsd>  (33) 
269.43

>  <cluster>  (33) 
4

$$$$
WCZRIPJXOMUAPT-QHCPKHFHNA-N
     RDKit          3D

 48 52  0  0  0  0  0  0  0  0999 V2000
  135.3640   68.7270  224.2060 O   0  0  0  0  0  0  0  0  0  0  0  0
  136.5200   69.6790  224.3310 S   0  0  0  0  0  0  0  0  0  0  0  0
  137.1520   69.4310  225.6700 O   0  0  0  0  0  0  0  0  0  0  0  0
  135.8110   71.3370  224.2800 C   0  0  0  0  0  0  0  0  0  0  0  0
  134.7290   71.5710  225.3010 C   0  0  0  0  0  0  0  0  0  0  0  0
  134.1290   72.8350  225.4220 C   0  0  0  0  0  0  0  0  0  0  0  0
  133.1800   73.0740  226.4230 C   0  0  0  0  0  0  0  0  0  0  0  0
  132.8400   72.0590  227.3210 C   0  0  0  0  0  0  0  0  0  0  0  0
  133.4500   70.8060  227.2240 C   0  0  0  0  0  0  0  0  0  0  0  0
  134.3950   70.5620  226.2220 C   0  0  0  0  0  0  0  0  0  0  0  0
  137.6370   69.3050  223.0160 N   0  0  0  0  0  0  0  0  0  0  0  0
  137.4190   70.2610  221.9070 C   0  0  0  0  0  0  0  0  0  0  0  0
  138.5260   71.2410  222.0200 C   0  0  0  0  0  0  0  0  0  0  0  0
  138.6890   72.4390  221.3220 C   0  0  0  0  0  0  0  0  0  0  0  0
  139.8840   73.1550  221.4920 C   0  0  0  0  0  0  0  0  0  0  0  0
  140.9050   72.6410  222.3150 C   0  0  0  0  0  0  0  0  0  0  0  0
  140.7260   71.4180  222.9820 C   0  0  0  0  0  0  0  0  0  0  0  0
  139.4960   70.7620  222.8560 C   0  0  0  0  0  0  0  0  0  0  0  0
  139.0940   69.4090  223.3220 C   0  0  1  0  0  0  0  0  0  0  0  0
  139.5090   69.0090  224.7220 C   0  0  0  0  0  0  0  0  0  0  0  0
  139.5350   67.7400  225.2980 C   0  0  0  0  0  0  0  0  0  0  0  0
  139.9180   67.8110  226.5930 N   0  0  0  0  0  0  0  0  0  0  0  0
  140.1170   69.1130  226.8510 C   0  0  0  0  0  0  0  0  0  0  0  0
  140.5150   69.6850  228.0590 C   0  0  0  0  0  0  0  0  0  0  0  0
  140.6580   71.0840  228.1080 C   0  0  0  0  0  0  0  0  0  0  0  0
  140.4030   71.8690  226.9630 C   0  0  0  0  0  0  0  0  0  0  0  0
  140.0020   71.2640  225.7570 C   0  0  0  0  0  0  0  0  0  0  0  0
  139.8690   69.8750  225.7390 C   0  0  0  0  0  0  0  0  0  0  0  0
  136.6174   72.0638  224.4575 H   0  0  0  0  0  0  0  0  0  0  0  0
  135.3459   71.4545  223.2901 H   0  0  0  0  0  0  0  0  0  0  0  0
  134.4061   73.6412  224.7268 H   0  0  0  0  0  0  0  0  0  0  0  0
  132.7017   74.0614  226.5026 H   0  0  0  0  0  0  0  0  0  0  0  0
  132.0915   72.2467  228.1049 H   0  0  0  0  0  0  0  0  0  0  0  0
  133.1869   70.0103  227.9365 H   0  0  0  0  0  0  0  0  0  0  0  0
  134.8791   69.5766  226.1541 H   0  0  0  0  0  0  0  0  0  0  0  0
  137.4588   69.7433  220.9372 H   0  0  0  0  0  0  0  0  0  0  0  0
  136.4326   70.7441  221.9666 H   0  0  0  0  0  0  0  0  0  0  0  0
  137.8990   72.8131  220.6542 H   0  0  0  0  0  0  0  0  0  0  0  0
  140.0235   74.1194  220.9816 H   0  0  0  0  0  0  0  0  0  0  0  0
  141.8452   73.1990  222.4357 H   0  0  0  0  0  0  0  0  0  0  0  0
  141.5344   70.9854  223.5898 H   0  0  0  0  0  0  0  0  0  0  0  0
  139.6684   68.6421  222.7816 H   0  0  0  0  0  0  0  0  0  0  0  0
  139.2791   66.8087  224.7715 H   0  0  0  0  0  0  0  0  0  0  0  0
  140.0220   67.0120  227.2580 H   0  0  0  0  0  0  0  0  0  0  0  0
  140.7108   69.0628  228.9447 H   0  0  0  0  0  0  0  0  0  0  0  0
  140.9705   71.5689  229.0446 H   0  0  0  0  0  0  0  0  0  0  0  0
  140.5185   72.9618  227.0135 H   0  0  0  0  0  0  0  0  0  0  0  0
  139.8002   71.8660  224.8587 H   0  0  0  0  0  0  0  0  0  0  0  0
  1  2  2  0
  2  3  2  0
  2  4  1  0
  4  5  1  0
  5  6  2  0
  6  7  1  0
  7  8  2  0
  8  9  1  0
  9 10  2  0
  2 11  1  0
 11 12  1  0
 12 13  1  0
 13 14  2  0
 14 15  1  0
 15 16  2  0
 16 17  1  0
 17 18  2  0
 18 19  1  0
 19 20  1  0
 20 21  2  0
 21 22  1  0
 22 23  1  0
 23 24  2  0
 24 25  1  0
 25 26  2  0
 26 27  1  0
 27 28  2  0
 10  5  1  0
 19 11  1  0
 28 20  1  0
 18 13  1  0
 28 23  1  0
  4 29  1  0
  4 30  1  0
  6 31  1  0
  7 32  1  0
  8 33  1  0
  9 34  1  0
 10 35  1  0
 12 36  1  0
 12 37  1  0
 14 38  1  0
 15 39  1  0
 16 40  1  0
 17 41  1  0
 19 42  1  6
 21 43  1  0
 22 44  1  0
 24 45  1  0
 25 46  1  0
 26 47  1  0
 27 48  1  0
M  END
>  <UniqueID>  (34) 
238

>  <SMILES>  (34) 
O=S(=O)(Cc1ccccc1)N1Cc2ccccc2[C@H]1c1c[nH]c2ccccc12

>  <Energy>  (34) 
91.28441718272475

>  <Genealogy>  (34) 
O=S(=O)(Cc1ccccc1)N1Cc2ccccc2[C@H]1c1c[nH]c2ccccc12 (3D coordinates assigned)
O=S(=O)(Cc1ccccc1)N1Cc2ccccc2[C@H]1c1c[nH]c2ccccc12 (nonaromatic ring conformer: 91.28441718272475 kcal/mol)

>  <smiles>  (34) 
O=S(=O)(Cc1ccccc1)N1Cc2ccccc2[C@H]1c1c[nH]c2ccccc12

>  <score_type>  (34) 
oracle

>  <origin>  (34) 
autodockgpu

>  <m_score__min__energy>  (34) 
-8.4100000000000001

>  <m_primary>  (34) 
energy

>  <meeko>  (34) 
{"free_energy": -8.35, "intermolecular_energy": -9.54, "internal_energy": -1.09, "cluster_size": 2, "cluster_id": 1, "rank_in_cluster": 2}

>  <energy>  (34) 
-6.72

>  <cluster_rmsd>  (34) 
0.04

>  <rmsd>  (34) 
269.44

>  <cluster>  (34) 
4

$$$$
WCZRIPJXOMUAPT-QHCPKHFHNA-N
     RDKit          3D

 48 52  0  0  0  0  0  0  0  0999 V2000
  138.7990   77.1980  222.8920 O   0  0  0  0  0  0  0  0  0  0  0  0
  139.9110   76.5840  222.0890 S   0  0  0  0  0  0  0  0  0  0  0  0
  139.8430   75.0990  222.3040 O   0  0  0  0  0  0  0  0  0  0  0  0
  141.4450   77.2370  222.7760 C   0  0  0  0  0  0  0  0  0  0  0  0
  141.4540   78.7330  222.9400 C   0  0  0  0  0  0  0  0  0  0  0  0
  140.3040   79.4060  223.3870 C   0  0  0  0  0  0  0  0  0  0  0  0
  140.2870   80.8030  223.4640 C   0  0  0  0  0  0  0  0  0  0  0  0
  141.4100   81.5390  223.0770 C   0  0  0  0  0  0  0  0  0  0  0  0
  142.5500   80.8800  222.6080 C   0  0  0  0  0  0  0  0  0  0  0  0
  142.5720   79.4840  222.5340 C   0  0  0  0  0  0  0  0  0  0  0  0
  139.6130   77.0000  220.3990 N   0  0  0  0  0  0  0  0  0  0  0  0
  138.9490   78.3210  220.3360 C   0  0  0  0  0  0  0  0  0  0  0  0
  140.0200   79.2730  219.9540 C   0  0  0  0  0  0  0  0  0  0  0  0
  139.9610   80.6680  219.9230 C   0  0  0  0  0  0  0  0  0  0  0  0
  141.0570   81.3720  219.4030 C   0  0  0  0  0  0  0  0  0  0  0  0
  142.1660   80.6740  218.8870 C   0  0  0  0  0  0  0  0  0  0  0  0
  142.1860   79.2690  218.9040 C   0  0  0  0  0  0  0  0  0  0  0  0
  141.1130   78.5930  219.4960 C   0  0  0  0  0  0  0  0  0  0  0  0
  140.8100   77.1380  219.5200 C   0  0  1  0  0  0  0  0  0  0  0  0
  141.9610   76.1980  219.8110 C   0  0  0  0  0  0  0  0  0  0  0  0
  143.3270   76.4750  219.8590 C   0  0  0  0  0  0  0  0  0  0  0  0
  144.0350   75.3480  220.0990 N   0  0  0  0  0  0  0  0  0  0  0  0
  143.1350   74.3550  220.1850 C   0  0  0  0  0  0  0  0  0  0  0  0
  143.3880   73.0040  220.4150 C   0  0  0  0  0  0  0  0  0  0  0  0
  142.2860   72.1290  220.4610 C   0  0  0  0  0  0  0  0  0  0  0  0
  140.9750   72.6190  220.2760 C   0  0  0  0  0  0  0  0  0  0  0  0
  140.7510   73.9880  220.0440 C   0  0  0  0  0  0  0  0  0  0  0  0
  141.8630   74.8320  220.0050 C   0  0  0  0  0  0  0  0  0  0  0  0
  141.6039   76.7797  223.7638 H   0  0  0  0  0  0  0  0  0  0  0  0
  142.2442   76.9902  222.0616 H   0  0  0  0  0  0  0  0  0  0  0  0
  139.4123   78.8313  223.6779 H   0  0  0  0  0  0  0  0  0  0  0  0
  139.3888   81.3223  223.8295 H   0  0  0  0  0  0  0  0  0  0  0  0
  141.3969   82.6370  223.1414 H   0  0  0  0  0  0  0  0  0  0  0  0
  143.4310   81.4605  222.2967 H   0  0  0  0  0  0  0  0  0  0  0  0
  143.4683   78.9702  222.1563 H   0  0  0  0  0  0  0  0  0  0  0  0
  138.1493   78.3158  219.5807 H   0  0  0  0  0  0  0  0  0  0  0  0
  138.4781   78.5920  221.2925 H   0  0  0  0  0  0  0  0  0  0  0  0
  139.0755   81.2022  220.2977 H   0  0  0  0  0  0  0  0  0  0  0  0
  141.0503   82.4720  219.3982 H   0  0  0  0  0  0  0  0  0  0  0  0
  143.0185   81.2299  218.4697 H   0  0  0  0  0  0  0  0  0  0  0  0
  143.0260   78.7131  218.4620 H   0  0  0  0  0  0  0  0  0  0  0  0
  140.5951   76.7843  218.5008 H   0  0  0  0  0  0  0  0  0  0  0  0
  143.7680   77.4732  219.7206 H   0  0  0  0  0  0  0  0  0  0  0  0
  145.0730   75.2700  220.1850 H   0  0  0  0  0  0  0  0  0  0  0  0
  144.4142   72.6337  220.5559 H   0  0  0  0  0  0  0  0  0  0  0  0
  142.4476   71.0562  220.6423 H   0  0  0  0  0  0  0  0  0  0  0  0
  140.1224   71.9250  220.3136 H   0  0  0  0  0  0  0  0  0  0  0  0
  139.7339   74.3808  219.8982 H   0  0  0  0  0  0  0  0  0  0  0  0
  1  2  2  0
  2  3  2  0
  2  4  1  0
  4  5  1  0
  5  6  2  0
  6  7  1  0
  7  8  2  0
  8  9  1  0
  9 10  2  0
  2 11  1  0
 11 12  1  0
 12 13  1  0
 13 14  2  0
 14 15  1  0
 15 16  2  0
 16 17  1  0
 17 18  2  0
 18 19  1  0
 19 20  1  0
 20 21  2  0
 21 22  1  0
 22 23  1  0
 23 24  2  0
 24 25  1  0
 25 26  2  0
 26 27  1  0
 27 28  2  0
 10  5  1  0
 19 11  1  0
 28 20  1  0
 18 13  1  0
 28 23  1  0
  4 29  1  0
  4 30  1  0
  6 31  1  0
  7 32  1  0
  8 33  1  0
  9 34  1  0
 10 35  1  0
 12 36  1  0
 12 37  1  0
 14 38  1  0
 15 39  1  0
 16 40  1  0
 17 41  1  0
 19 42  1  6
 21 43  1  0
 22 44  1  0
 24 45  1  0
 25 46  1  0
 26 47  1  0
 27 48  1  0
M  END
>  <UniqueID>  (35) 
238

>  <SMILES>  (35) 
O=S(=O)(Cc1ccccc1)N1Cc2ccccc2[C@H]1c1c[nH]c2ccccc12

>  <Energy>  (35) 
91.28441718272475

>  <Genealogy>  (35) 
O=S(=O)(Cc1ccccc1)N1Cc2ccccc2[C@H]1c1c[nH]c2ccccc12 (3D coordinates assigned)
O=S(=O)(Cc1ccccc1)N1Cc2ccccc2[C@H]1c1c[nH]c2ccccc12 (nonaromatic ring conformer: 91.28441718272475 kcal/mol)

>  <smiles>  (35) 
O=S(=O)(Cc1ccccc1)N1Cc2ccccc2[C@H]1c1c[nH]c2ccccc12

>  <score_type>  (35) 
oracle

>  <origin>  (35) 
autodockgpu

>  <m_score__min__energy>  (35) 
-8.4100000000000001

>  <m_primary>  (35) 
energy

>  <meeko>  (35) 
{"free_energy": -6.67, "intermolecular_energy": -7.87, "internal_energy": -2.45, "cluster_size": 12, "cluster_id": 4, "rank_in_cluster": 12}

>  <energy>  (35) 
-6.72

>  <cluster_rmsd>  (35) 
0.04

>  <rmsd>  (35) 
269.43

>  <cluster>  (35) 
4

$$$$
WCZRIPJXOMUAPT-QHCPKHFHNA-N
     RDKit          3D

 48 52  0  0  0  0  0  0  0  0999 V2000
  141.4430   74.6150  221.8430 O   0  0  0  0  0  0  0  0  0  0  0  0
  141.3520   75.3890  220.5580 S   0  0  0  0  0  0  0  0  0  0  0  0
  140.7430   74.4740  219.5350 O   0  0  0  0  0  0  0  0  0  0  0  0
  143.0470   75.7930  220.0940 C   0  0  0  0  0  0  0  0  0  0  0  0
  143.9620   74.5990  220.0210 C   0  0  0  0  0  0  0  0  0  0  0  0
  143.6220   73.4900  219.2280 C   0  0  0  0  0  0  0  0  0  0  0  0
  144.4330   72.3500  219.2220 C   0  0  0  0  0  0  0  0  0  0  0  0
  145.5780   72.3020  220.0230 C   0  0  0  0  0  0  0  0  0  0  0  0
  145.9100   73.3900  220.8340 C   0  0  0  0  0  0  0  0  0  0  0  0
  145.1040   74.5330  220.8380 C   0  0  0  0  0  0  0  0  0  0  0  0
  140.3120   76.7810  220.8710 N   0  0  0  0  0  0  0  0  0  0  0  0
  140.2280   77.0040  222.3320 C   0  0  0  0  0  0  0  0  0  0  0  0
  141.1390   78.1420  222.6020 C   0  0  0  0  0  0  0  0  0  0  0  0
  141.5520   78.6390  223.8400 C   0  0  0  0  0  0  0  0  0  0  0  0
  142.3200   79.8140  223.8660 C   0  0  0  0  0  0  0  0  0  0  0  0
  142.6200   80.4880  222.6670 C   0  0  0  0  0  0  0  0  0  0  0  0
  142.1670   79.9810  221.4380 C   0  0  0  0  0  0  0  0  0  0  0  0
  141.4680   78.7690  221.4320 C   0  0  0  0  0  0  0  0  0  0  0  0
  140.7580   78.0920  220.3160 C   0  0  1  0  0  0  0  0  0  0  0  0
  141.4670   78.0400  218.9780 C   0  0  0  0  0  0  0  0  0  0  0  0
  142.6170   78.7150  218.5710 C   0  0  0  0  0  0  0  0  0  0  0  0
  142.8990   78.4410  217.2770 N   0  0  0  0  0  0  0  0  0  0  0  0
  141.9300   77.6140  216.8530 C   0  0  0  0  0  0  0  0  0  0  0  0
  141.7860   77.0620  215.5810 C   0  0  0  0  0  0  0  0  0  0  0  0
  140.6830   76.2190  215.3510 C   0  0  0  0  0  0  0  0  0  0  0  0
  139.7600   75.9520  216.3860 C   0  0  0  0  0  0  0  0  0  0  0  0
  139.9300   76.5240  217.6600 C   0  0  0  0  0  0  0  0  0  0  0  0
  141.0340   77.3550  217.8570 C   0  0  0  0  0  0  0  0  0  0  0  0
  143.0295   76.2766  219.1062 H   0  0  0  0  0  0  0  0  0  0  0  0
  143.4444   76.4516  220.8803 H   0  0  0  0  0  0  0  0  0  0  0  0
  142.7134   73.5183  218.6086 H   0  0  0  0  0  0  0  0  0  0  0  0
  144.1698   71.4912  218.5870 H   0  0  0  0  0  0  0  0  0  0  0  0
  146.2177   71.4072  220.0146 H   0  0  0  0  0  0  0  0  0  0  0  0
  146.8064   73.3477  221.4702 H   0  0  0  0  0  0  0  0  0  0  0  0
  145.3650   75.3845  221.4836 H   0  0  0  0  0  0  0  0  0  0  0  0
  139.1982   77.2556  222.6257 H   0  0  0  0  0  0  0  0  0  0  0  0
  140.5091   76.1066  222.9027 H   0  0  0  0  0  0  0  0  0  0  0  0
  141.2820   78.1221  224.7727 H   0  0  0  0  0  0  0  0  0  0  0  0
  142.6879   80.2085  224.8246 H   0  0  0  0  0  0  0  0  0  0  0  0
  143.2114   81.4152  222.6928 H   0  0  0  0  0  0  0  0  0  0  0  0
  142.3576   80.5247  220.5010 H   0  0  0  0  0  0  0  0  0  0  0  0
  139.8985   78.6999  219.9971 H   0  0  0  0  0  0  0  0  0  0  0  0
  143.2131   79.3792  219.2140 H   0  0  0  0  0  0  0  0  0  0  0  0
  143.7020   78.8110  216.7210 H   0  0  0  0  0  0  0  0  0  0  0  0
  142.5113   77.2784  214.7828 H   0  0  0  0  0  0  0  0  0  0  0  0
  140.5389   75.7654  214.3593 H   0  0  0  0  0  0  0  0  0  0  0  0
  138.9014   75.2916  216.1945 H   0  0  0  0  0  0  0  0  0  0  0  0
  139.2171   76.3232  218.4733 H   0  0  0  0  0  0  0  0  0  0  0  0
  1  2  2  0
  2  3  2  0
  2  4  1  0
  4  5  1  0
  5  6  2  0
  6  7  1  0
  7  8  2  0
  8  9  1  0
  9 10  2  0
  2 11  1  0
 11 12  1  0
 12 13  1  0
 13 14  2  0
 14 15  1  0
 15 16  2  0
 16 17  1  0
 17 18  2  0
 18 19  1  0
 19 20  1  0
 20 21  2  0
 21 22  1  0
 22 23  1  0
 23 24  2  0
 24 25  1  0
 25 26  2  0
 26 27  1  0
 27 28  2  0
 10  5  1  0
 19 11  1  0
 28 20  1  0
 18 13  1  0
 28 23  1  0
  4 29  1  0
  4 30  1  0
  6 31  1  0
  7 32  1  0
  8 33  1  0
  9 34  1  0
 10 35  1  0
 12 36  1  0
 12 37  1  0
 14 38  1  0
 15 39  1  0
 16 40  1  0
 17 41  1  0
 19 42  1  6
 21 43  1  0
 22 44  1  0
 24 45  1  0
 25 46  1  0
 26 47  1  0
 27 48  1  0
M  END
>  <UniqueID>  (36) 
238

>  <SMILES>  (36) 
O=S(=O)(Cc1ccccc1)N1Cc2ccccc2[C@H]1c1c[nH]c2ccccc12

>  <Energy>  (36) 
91.28441718272475

>  <Genealogy>  (36) 
O=S(=O)(Cc1ccccc1)N1Cc2ccccc2[C@H]1c1c[nH]c2ccccc12 (3D coordinates assigned)
O=S(=O)(Cc1ccccc1)N1Cc2ccccc2[C@H]1c1c[nH]c2ccccc12 (nonaromatic ring conformer: 91.28441718272475 kcal/mol)

>  <smiles>  (36) 
O=S(=O)(Cc1ccccc1)N1Cc2ccccc2[C@H]1c1c[nH]c2ccccc12

>  <score_type>  (36) 
oracle

>  <origin>  (36) 
autodockgpu

>  <m_score__min__energy>  (36) 
-8.4100000000000001

>  <m_primary>  (36) 
energy

>  <meeko>  (36) 
{"free_energy": -7.5, "intermolecular_energy": -8.7, "internal_energy": -1.72, "cluster_size": 5, "cluster_id": 2, "rank_in_cluster": 4}

>  <energy>  (36) 
-6.72

>  <cluster_rmsd>  (36) 
0.04

>  <rmsd>  (36) 
269.43

>  <cluster>  (36) 
4

$$$$
WCZRIPJXOMUAPT-QHCPKHFHNA-N
     RDKit          3D

 48 52  0  0  0  0  0  0  0  0999 V2000
  138.7880   77.0650  222.8120 O   0  0  0  0  0  0  0  0  0  0  0  0
  139.9420   76.5030  222.0300 S   0  0  0  0  0  0  0  0  0  0  0  0
  139.9440   75.0180  222.2530 O   0  0  0  0  0  0  0  0  0  0  0  0
  141.4300   77.2360  222.7370 C   0  0  0  0  0  0  0  0  0  0  0  0
  141.4000   78.7390  222.8050 C   0  0  0  0  0  0  0  0  0  0  0  0
  142.5360   79.4900  222.4600 C   0  0  0  0  0  0  0  0  0  0  0  0
  142.5330   80.8820  222.5980 C   0  0  0  0  0  0  0  0  0  0  0  0
  141.4030   81.5330  223.1010 C   0  0  0  0  0  0  0  0  0  0  0  0
  140.2770   80.7930  223.4710 C   0  0  0  0  0  0  0  0  0  0  0  0
  140.2750   79.4020  223.3290 C   0  0  0  0  0  0  0  0  0  0  0  0
  139.6510   76.8960  220.3330 N   0  0  0  0  0  0  0  0  0  0  0  0
  138.9660   78.2050  220.2490 C   0  0  0  0  0  0  0  0  0  0  0  0
  140.0240   79.1710  219.8660 C   0  0  0  0  0  0  0  0  0  0  0  0
  139.9430   80.5630  219.8180 C   0  0  0  0  0  0  0  0  0  0  0  0
  141.0320   81.2800  219.3000 C   0  0  0  0  0  0  0  0  0  0  0  0
  142.1560   80.5940  218.8000 C   0  0  0  0  0  0  0  0  0  0  0  0
  142.1990   79.1910  218.8330 C   0  0  0  0  0  0  0  0  0  0  0  0
  141.1330   78.5030  219.4250 C   0  0  0  0  0  0  0  0  0  0  0  0
  140.8530   77.0440  219.4620 C   0  0  1  0  0  0  0  0  0  0  0  0
  142.0170   76.1260  219.7730 C   0  0  0  0  0  0  0  0  0  0  0  0
  143.3760   76.4290  219.8420 C   0  0  0  0  0  0  0  0  0  0  0  0
  144.1020   75.3160  220.0950 N   0  0  0  0  0  0  0  0  0  0  0  0
  143.2190   74.3060  220.1690 C   0  0  0  0  0  0  0  0  0  0  0  0
  143.4940   72.9600  220.4060 C   0  0  0  0  0  0  0  0  0  0  0  0
  142.4090   72.0650  220.4360 C   0  0  0  0  0  0  0  0  0  0  0  0
  141.0910   72.5290  220.2290 C   0  0  0  0  0  0  0  0  0  0  0  0
  140.8460   73.8940  219.9910 C   0  0  0  0  0  0  0  0  0  0  0  0
  141.9410   74.7580  219.9680 C   0  0  0  0  0  0  0  0  0  0  0  0
  141.5559   76.8462  223.7579 H   0  0  0  0  0  0  0  0  0  0  0  0
  142.2642   76.9644  222.0735 H   0  0  0  0  0  0  0  0  0  0  0  0
  143.4333   78.9803  222.0791 H   0  0  0  0  0  0  0  0  0  0  0  0
  143.4206   81.4647  222.3105 H   0  0  0  0  0  0  0  0  0  0  0  0
  141.4002   82.6280  223.2056 H   0  0  0  0  0  0  0  0  0  0  0  0
  139.3911   81.3053  223.8744 H   0  0  0  0  0  0  0  0  0  0  0  0
  139.3891   78.8228  223.6286 H   0  0  0  0  0  0  0  0  0  0  0  0
  138.1735   78.1779  219.4866 H   0  0  0  0  0  0  0  0  0  0  0  0
  138.4822   78.4786  221.1983 H   0  0  0  0  0  0  0  0  0  0  0  0
  139.0452   81.0867  220.1783 H   0  0  0  0  0  0  0  0  0  0  0  0
  141.0080   82.3796  219.2843 H   0  0  0  0  0  0  0  0  0  0  0  0
  143.0025   81.1590  218.3825 H   0  0  0  0  0  0  0  0  0  0  0  0
  143.0514   78.6444  218.4032 H   0  0  0  0  0  0  0  0  0  0  0  0
  140.6519   76.6761  218.4450 H   0  0  0  0  0  0  0  0  0  0  0  0
  143.7999   77.4353  219.7089 H   0  0  0  0  0  0  0  0  0  0  0  0
  145.1390   75.2570  220.1970 H   0  0  0  0  0  0  0  0  0  0  0  0
  144.5246   72.6096  220.5642 H   0  0  0  0  0  0  0  0  0  0  0  0
  142.5884   70.9958  220.6221 H   0  0  0  0  0  0  0  0  0  0  0  0
  140.2512   71.8190  220.2540 H   0  0  0  0  0  0  0  0  0  0  0  0
  139.8243   74.2676  219.8284 H   0  0  0  0  0  0  0  0  0  0  0  0
  1  2  2  0
  2  3  2  0
  2  4  1  0
  4  5  1  0
  5  6  2  0
  6  7  1  0
  7  8  2  0
  8  9  1  0
  9 10  2  0
  2 11  1  0
 11 12  1  0
 12 13  1  0
 13 14  2  0
 14 15  1  0
 15 16  2  0
 16 17  1  0
 17 18  2  0
 18 19  1  0
 19 20  1  0
 20 21  2  0
 21 22  1  0
 22 23  1  0
 23 24  2  0
 24 25  1  0
 25 26  2  0
 26 27  1  0
 27 28  2  0
 10  5  1  0
 19 11  1  0
 28 20  1  0
 18 13  1  0
 28 23  1  0
  4 29  1  0
  4 30  1  0
  6 31  1  0
  7 32  1  0
  8 33  1  0
  9 34  1  0
 10 35  1  0
 12 36  1  0
 12 37  1  0
 14 38  1  0
 15 39  1  0
 16 40  1  0
 17 41  1  0
 19 42  1  6
 21 43  1  0
 22 44  1  0
 24 45  1  0
 25 46  1  0
 26 47  1  0
 27 48  1  0
M  END
>  <UniqueID>  (37) 
238

>  <SMILES>  (37) 
O=S(=O)(Cc1ccccc1)N1Cc2ccccc2[C@H]1c1c[nH]c2ccccc12

>  <Energy>  (37) 
91.28441718272475

>  <Genealogy>  (37) 
O=S(=O)(Cc1ccccc1)N1Cc2ccccc2[C@H]1c1c[nH]c2ccccc12 (3D coordinates assigned)
O=S(=O)(Cc1ccccc1)N1Cc2ccccc2[C@H]1c1c[nH]c2ccccc12 (nonaromatic ring conformer: 91.28441718272475 kcal/mol)

>  <smiles>  (37) 
O=S(=O)(Cc1ccccc1)N1Cc2ccccc2[C@H]1c1c[nH]c2ccccc12

>  <score_type>  (37) 
oracle

>  <origin>  (37) 
autodockgpu

>  <m_score__min__energy>  (37) 
-8.4100000000000001

>  <m_primary>  (37) 
energy

>  <meeko>  (37) 
{"free_energy": -6.72, "intermolecular_energy": -7.91, "internal_energy": -2.47, "cluster_size": 12, "cluster_id": 4, "rank_in_cluster": 3}

>  <energy>  (37) 
-6.72

>  <cluster_rmsd>  (37) 
0.02

>  <rmsd>  (37) 
269.44

>  <cluster>  (37) 
4

$$$$
WCZRIPJXOMUAPT-QHCPKHFHNA-N
     RDKit          3D

 48 52  0  0  0  0  0  0  0  0999 V2000
  141.1060   74.7290  221.7920 O   0  0  0  0  0  0  0  0  0  0  0  0
  141.0840   75.5440  220.5290 S   0  0  0  0  0  0  0  0  0  0  0  0
  140.4290   74.7020  219.4730 O   0  0  0  0  0  0  0  0  0  0  0  0
  142.8080   75.8450  220.0970 C   0  0  0  0  0  0  0  0  0  0  0  0
  143.6760   74.6160  220.1490 C   0  0  0  0  0  0  0  0  0  0  0  0
  143.1110   73.3400  219.9840 C   0  0  0  0  0  0  0  0  0  0  0  0
  143.9050   72.1940  220.1110 C   0  0  0  0  0  0  0  0  0  0  0  0
  145.2620   72.3130  220.4230 C   0  0  0  0  0  0  0  0  0  0  0  0
  145.8270   73.5770  220.6140 C   0  0  0  0  0  0  0  0  0  0  0  0
  145.0380   74.7240  220.4830 C   0  0  0  0  0  0  0  0  0  0  0  0
  140.1360   76.9940  220.8720 N   0  0  0  0  0  0  0  0  0  0  0  0
  140.0810   77.2020  222.3360 C   0  0  0  0  0  0  0  0  0  0  0  0
  141.0640   78.2770  222.6110 C   0  0  0  0  0  0  0  0  0  0  0  0
  141.5190   78.7320  223.8500 C   0  0  0  0  0  0  0  0  0  0  0  0
  142.3590   79.8550  223.8830 C   0  0  0  0  0  0  0  0  0  0  0  0
  142.6890   80.5260  222.6890 C   0  0  0  0  0  0  0  0  0  0  0  0
  142.1930   80.0650  221.4590 C   0  0  0  0  0  0  0  0  0  0  0  0
  141.4190   78.8980  221.4450 C   0  0  0  0  0  0  0  0  0  0  0  0
  140.6580   78.2820  220.3280 C   0  0  1  0  0  0  0  0  0  0  0  0
  141.3480   78.2040  218.9820 C   0  0  0  0  0  0  0  0  0  0  0  0
  142.5560   78.7770  218.5840 C   0  0  0  0  0  0  0  0  0  0  0  0
  142.8000   78.5180  217.2800 N   0  0  0  0  0  0  0  0  0  0  0  0
  141.7520   77.8020  216.8400 C   0  0  0  0  0  0  0  0  0  0  0  0
  141.5460   77.3080  215.5530 C   0  0  0  0  0  0  0  0  0  0  0  0
  140.3650   76.5830  215.3100 C   0  0  0  0  0  0  0  0  0  0  0  0
  139.4280   76.3740  216.3440 C   0  0  0  0  0  0  0  0  0  0  0  0
  139.6620   76.8860  217.6340 C   0  0  0  0  0  0  0  0  0  0  0  0
  140.8420   77.6000  217.8460 C   0  0  0  0  0  0  0  0  0  0  0  0
  142.8428   76.2500  219.0749 H   0  0  0  0  0  0  0  0  0  0  0  0
  143.2055   76.5471  220.8447 H   0  0  0  0  0  0  0  0  0  0  0  0
  142.0399   73.2411  219.7540 H   0  0  0  0  0  0  0  0  0  0  0  0
  143.4602   71.1986  219.9650 H   0  0  0  0  0  0  0  0  0  0  0  0
  145.8855   71.4118  220.5183 H   0  0  0  0  0  0  0  0  0  0  0  0
  146.8933   73.6696  220.8676 H   0  0  0  0  0  0  0  0  0  0  0  0
  145.4850   75.7164  220.6421 H   0  0  0  0  0  0  0  0  0  0  0  0
  139.0720   77.5134  222.6441 H   0  0  0  0  0  0  0  0  0  0  0  0
  140.3113   76.2811  222.8919 H   0  0  0  0  0  0  0  0  0  0  0  0
  141.2255   78.2215  224.7791 H   0  0  0  0  0  0  0  0  0  0  0  0
  142.7607   80.2123  224.8427 H   0  0  0  0  0  0  0  0  0  0  0  0
  143.3374   81.4140  222.7205 H   0  0  0  0  0  0  0  0  0  0  0  0
  142.4076   80.6085  220.5270 H   0  0  0  0  0  0  0  0  0  0  0  0
  139.8357   78.9468  220.0250 H   0  0  0  0  0  0  0  0  0  0  0  0
  143.2187   79.3594  219.2409 H   0  0  0  0  0  0  0  0  0  0  0  0
  143.6310   78.8260  216.7270 H   0  0  0  0  0  0  0  0  0  0  0  0
  142.2823   77.4793  214.7539 H   0  0  0  0  0  0  0  0  0  0  0  0
  140.1707   76.1762  214.3066 H   0  0  0  0  0  0  0  0  0  0  0  0
  138.5078   75.8067  216.1404 H   0  0  0  0  0  0  0  0  0  0  0  0
  138.9389   76.7286  218.4478 H   0  0  0  0  0  0  0  0  0  0  0  0
  1  2  2  0
  2  3  2  0
  2  4  1  0
  4  5  1  0
  5  6  2  0
  6  7  1  0
  7  8  2  0
  8  9  1  0
  9 10  2  0
  2 11  1  0
 11 12  1  0
 12 13  1  0
 13 14  2  0
 14 15  1  0
 15 16  2  0
 16 17  1  0
 17 18  2  0
 18 19  1  0
 19 20  1  0
 20 21  2  0
 21 22  1  0
 22 23  1  0
 23 24  2  0
 24 25  1  0
 25 26  2  0
 26 27  1  0
 27 28  2  0
 10  5  1  0
 19 11  1  0
 28 20  1  0
 18 13  1  0
 28 23  1  0
  4 29  1  0
  4 30  1  0
  6 31  1  0
  7 32  1  0
  8 33  1  0
  9 34  1  0
 10 35  1  0
 12 36  1  0
 12 37  1  0
 14 38  1  0
 15 39  1  0
 16 40  1  0
 17 41  1  0
 19 42  1  6
 21 43  1  0
 22 44  1  0
 24 45  1  0
 25 46  1  0
 26 47  1  0
 27 48  1  0
M  END
>  <UniqueID>  (38) 
238

>  <SMILES>  (38) 
O=S(=O)(Cc1ccccc1)N1Cc2ccccc2[C@H]1c1c[nH]c2ccccc12

>  <Energy>  (38) 
91.28441718272475

>  <Genealogy>  (38) 
O=S(=O)(Cc1ccccc1)N1Cc2ccccc2[C@H]1c1c[nH]c2ccccc12 (3D coordinates assigned)
O=S(=O)(Cc1ccccc1)N1Cc2ccccc2[C@H]1c1c[nH]c2ccccc12 (nonaromatic ring conformer: 91.28441718272475 kcal/mol)

>  <smiles>  (38) 
O=S(=O)(Cc1ccccc1)N1Cc2ccccc2[C@H]1c1c[nH]c2ccccc12

>  <score_type>  (38) 
oracle

>  <origin>  (38) 
autodockgpu

>  <m_score__min__energy>  (38) 
-8.4100000000000001

>  <m_primary>  (38) 
energy

>  <meeko>  (38) 
{"free_energy": -7.53, "intermolecular_energy": -8.72, "internal_energy": -1.7, "cluster_size": 5, "cluster_id": 2, "rank_in_cluster": 1}

>  <energy>  (38) 
-6.71

>  <cluster_rmsd>  (38) 
0.02

>  <rmsd>  (38) 
269.43

>  <cluster>  (38) 
4

$$$$
WCZRIPJXOMUAPT-QHCPKHFHNA-N
     RDKit          3D

 48 52  0  0  0  0  0  0  0  0999 V2000
  138.8040   77.0670  222.8310 O   0  0  0  0  0  0  0  0  0  0  0  0
  139.9540   76.5020  222.0460 S   0  0  0  0  0  0  0  0  0  0  0  0
  139.9540   75.0180  222.2700 O   0  0  0  0  0  0  0  0  0  0  0  0
  141.4470   77.2320  222.7470 C   0  0  0  0  0  0  0  0  0  0  0  0
  141.4210   78.7360  222.8110 C   0  0  0  0  0  0  0  0  0  0  0  0
  142.5610   79.4820  222.4660 C   0  0  0  0  0  0  0  0  0  0  0  0
  142.5610   80.8740  222.6010 C   0  0  0  0  0  0  0  0  0  0  0  0
  141.4330   81.5300  223.1000 C   0  0  0  0  0  0  0  0  0  0  0  0
  140.3030   80.7950  223.4700 C   0  0  0  0  0  0  0  0  0  0  0  0
  140.2970   79.4030  223.3310 C   0  0  0  0  0  0  0  0  0  0  0  0
  139.6570   76.8940  220.3500 N   0  0  0  0  0  0  0  0  0  0  0  0
  138.9730   78.2030  220.2670 C   0  0  0  0  0  0  0  0  0  0  0  0
  140.0300   79.1680  219.8800 C   0  0  0  0  0  0  0  0  0  0  0  0
  139.9490   80.5610  219.8320 C   0  0  0  0  0  0  0  0  0  0  0  0
  141.0370   81.2770  219.3090 C   0  0  0  0  0  0  0  0  0  0  0  0
  142.1590   80.5900  218.8060 C   0  0  0  0  0  0  0  0  0  0  0  0
  142.2010   79.1860  218.8400 C   0  0  0  0  0  0  0  0  0  0  0  0
  141.1370   78.4990  219.4350 C   0  0  0  0  0  0  0  0  0  0  0  0
  140.8570   77.0400  219.4740 C   0  0  1  0  0  0  0  0  0  0  0  0
  142.0210   76.1220  219.7830 C   0  0  0  0  0  0  0  0  0  0  0  0
  143.3810   76.4250  219.8470 C   0  0  0  0  0  0  0  0  0  0  0  0
  144.1060   75.3120  220.0980 N   0  0  0  0  0  0  0  0  0  0  0  0
  143.2240   74.3030  220.1750 C   0  0  0  0  0  0  0  0  0  0  0  0
  143.4990   72.9570  220.4120 C   0  0  0  0  0  0  0  0  0  0  0  0
  142.4130   72.0610  220.4460 C   0  0  0  0  0  0  0  0  0  0  0  0
  141.0960   72.5270  220.2440 C   0  0  0  0  0  0  0  0  0  0  0  0
  140.8500   73.8920  220.0060 C   0  0  0  0  0  0  0  0  0  0  0  0
  141.9460   74.7550  219.9780 C   0  0  0  0  0  0  0  0  0  0  0  0
  141.5749   76.8444  223.7685 H   0  0  0  0  0  0  0  0  0  0  0  0
  142.2788   76.9560  222.0822 H   0  0  0  0  0  0  0  0  0  0  0  0
  143.4574   78.9686  222.0880 H   0  0  0  0  0  0  0  0  0  0  0  0
  143.4508   81.4534  222.3137 H   0  0  0  0  0  0  0  0  0  0  0  0
  141.4341   82.6253  223.2018 H   0  0  0  0  0  0  0  0  0  0  0  0
  139.4182   81.3113  223.8706 H   0  0  0  0  0  0  0  0  0  0  0  0
  139.4087   78.8271  223.6299 H   0  0  0  0  0  0  0  0  0  0  0  0
  138.1781   78.1758  219.5071 H   0  0  0  0  0  0  0  0  0  0  0  0
  138.4926   78.4777  221.2176 H   0  0  0  0  0  0  0  0  0  0  0  0
  139.0530   81.0853  220.1957 H   0  0  0  0  0  0  0  0  0  0  0  0
  141.0134   82.3766  219.2919 H   0  0  0  0  0  0  0  0  0  0  0  0
  143.0045   81.1541  218.3855 H   0  0  0  0  0  0  0  0  0  0  0  0
  143.0519   78.6387  218.4082 H   0  0  0  0  0  0  0  0  0  0  0  0
  140.6533   76.6710  218.4580 H   0  0  0  0  0  0  0  0  0  0  0  0
  143.8051   77.4309  219.7119 H   0  0  0  0  0  0  0  0  0  0  0  0
  145.1440   75.2530  220.1970 H   0  0  0  0  0  0  0  0  0  0  0  0
  144.5300   72.6064  220.5673 H   0  0  0  0  0  0  0  0  0  0  0  0
  142.5922   70.9916  220.6311 H   0  0  0  0  0  0  0  0  0  0  0  0
  140.2556   71.8178  220.2728 H   0  0  0  0  0  0  0  0  0  0  0  0
  139.8278   74.2661  219.8473 H   0  0  0  0  0  0  0  0  0  0  0  0
  1  2  2  0
  2  3  2  0
  2  4  1  0
  4  5  1  0
  5  6  2  0
  6  7  1  0
  7  8  2  0
  8  9  1  0
  9 10  2  0
  2 11  1  0
 11 12  1  0
 12 13  1  0
 13 14  2  0
 14 15  1  0
 15 16  2  0
 16 17  1  0
 17 18  2  0
 18 19  1  0
 19 20  1  0
 20 21  2  0
 21 22  1  0
 22 23  1  0
 23 24  2  0
 24 25  1  0
 25 26  2  0
 26 27  1  0
 27 28  2  0
 10  5  1  0
 19 11  1  0
 28 20  1  0
 18 13  1  0
 28 23  1  0
  4 29  1  0
  4 30  1  0
  6 31  1  0
  7 32  1  0
  8 33  1  0
  9 34  1  0
 10 35  1  0
 12 36  1  0
 12 37  1  0
 14 38  1  0
 15 39  1  0
 16 40  1  0
 17 41  1  0
 19 42  1  6
 21 43  1  0
 22 44  1  0
 24 45  1  0
 25 46  1  0
 26 47  1  0
 27 48  1  0
M  END
>  <UniqueID>  (39) 
238

>  <SMILES>  (39) 
O=S(=O)(Cc1ccccc1)N1Cc2ccccc2[C@H]1c1c[nH]c2ccccc12

>  <Energy>  (39) 
91.28441718272475

>  <Genealogy>  (39) 
O=S(=O)(Cc1ccccc1)N1Cc2ccccc2[C@H]1c1c[nH]c2ccccc12 (3D coordinates assigned)
O=S(=O)(Cc1ccccc1)N1Cc2ccccc2[C@H]1c1c[nH]c2ccccc12 (nonaromatic ring conformer: 91.28441718272475 kcal/mol)

>  <smiles>  (39) 
O=S(=O)(Cc1ccccc1)N1Cc2ccccc2[C@H]1c1c[nH]c2ccccc12

>  <score_type>  (39) 
oracle

>  <origin>  (39) 
autodockgpu

>  <m_score__min__energy>  (39) 
-8.4100000000000001

>  <m_primary>  (39) 
energy

>  <meeko>  (39) 
{"free_energy": -6.72, "intermolecular_energy": -7.91, "internal_energy": -2.48, "cluster_size": 12, "cluster_id": 4, "rank_in_cluster": 4}

>  <energy>  (39) 
-6.71

>  <cluster_rmsd>  (39) 
0.02

>  <rmsd>  (39) 
269.43

>  <cluster>  (39) 
4

$$$$
WCZRIPJXOMUAPT-QHCPKHFHNA-N
     RDKit          3D

 48 52  0  0  0  0  0  0  0  0999 V2000
  138.8020   77.0740  222.8550 O   0  0  0  0  0  0  0  0  0  0  0  0
  139.9500   76.5130  222.0650 S   0  0  0  0  0  0  0  0  0  0  0  0
  139.9500   75.0270  222.2810 O   0  0  0  0  0  0  0  0  0  0  0  0
  141.4440   77.2390  222.7670 C   0  0  0  0  0  0  0  0  0  0  0  0
  141.4250   78.7430  222.8240 C   0  0  0  0  0  0  0  0  0  0  0  0
  142.5710   79.4820  222.4850 C   0  0  0  0  0  0  0  0  0  0  0  0
  142.5780   80.8750  222.6140 C   0  0  0  0  0  0  0  0  0  0  0  0
  141.4480   81.5380  223.1010 C   0  0  0  0  0  0  0  0  0  0  0  0
  140.3130   80.8100  223.4650 C   0  0  0  0  0  0  0  0  0  0  0  0
  140.3010   79.4180  223.3320 C   0  0  0  0  0  0  0  0  0  0  0  0
  139.6510   76.9130  220.3710 N   0  0  0  0  0  0  0  0  0  0  0  0
  138.9780   78.2290  220.2960 C   0  0  0  0  0  0  0  0  0  0  0  0
  140.0430   79.1850  219.9080 C   0  0  0  0  0  0  0  0  0  0  0  0
  139.9750   80.5790  219.8650 C   0  0  0  0  0  0  0  0  0  0  0  0
  141.0670   81.2870  219.3400 C   0  0  0  0  0  0  0  0  0  0  0  0
  142.1810   80.5910  218.8310 C   0  0  0  0  0  0  0  0  0  0  0  0
  142.2110   79.1870  218.8600 C   0  0  0  0  0  0  0  0  0  0  0  0
  141.1420   78.5080  219.4570 C   0  0  0  0  0  0  0  0  0  0  0  0
  140.8490   77.0520  219.4920 C   0  0  1  0  0  0  0  0  0  0  0  0
  142.0060   76.1220  219.7930 C   0  0  0  0  0  0  0  0  0  0  0  0
  143.3680   76.4130  219.8590 C   0  0  0  0  0  0  0  0  0  0  0  0
  144.0850   75.2920  220.1020 N   0  0  0  0  0  0  0  0  0  0  0  0
  143.1940   74.2890  220.1720 C   0  0  0  0  0  0  0  0  0  0  0  0
  143.4580   72.9400  220.3980 C   0  0  0  0  0  0  0  0  0  0  0  0
  142.3650   72.0530  220.4260 C   0  0  0  0  0  0  0  0  0  0  0  0
  141.0520   72.5300  220.2280 C   0  0  0  0  0  0  0  0  0  0  0  0
  140.8160   73.8990  220.0000 C   0  0  0  0  0  0  0  0  0  0  0  0
  141.9190   74.7540  219.9790 C   0  0  0  0  0  0  0  0  0  0  0  0
  141.5669   76.8555  223.7906 H   0  0  0  0  0  0  0  0  0  0  0  0
  142.2764   76.9559  222.1060 H   0  0  0  0  0  0  0  0  0  0  0  0
  143.4676   78.9624  222.1161 H   0  0  0  0  0  0  0  0  0  0  0  0
  143.4732   81.4488  222.3321 H   0  0  0  0  0  0  0  0  0  0  0  0
  141.4526   82.6337  223.1976 H   0  0  0  0  0  0  0  0  0  0  0  0
  139.4276   81.3322  223.8567 H   0  0  0  0  0  0  0  0  0  0  0  0
  139.4074   78.8480  223.6264 H   0  0  0  0  0  0  0  0  0  0  0  0
  138.1797   78.2121  219.5394 H   0  0  0  0  0  0  0  0  0  0  0  0
  138.5036   78.5046  221.2494 H   0  0  0  0  0  0  0  0  0  0  0  0
  139.0855   81.1103  220.2344 H   0  0  0  0  0  0  0  0  0  0  0  0
  141.0531   82.3868  219.3259 H   0  0  0  0  0  0  0  0  0  0  0  0
  143.0302   81.1489  218.4094 H   0  0  0  0  0  0  0  0  0  0  0  0
  143.0554   78.6334  218.4235 H   0  0  0  0  0  0  0  0  0  0  0  0
  140.6383   76.6889  218.4753 H   0  0  0  0  0  0  0  0  0  0  0  0
  143.8001   77.4164  219.7310 H   0  0  0  0  0  0  0  0  0  0  0  0
  145.1220   75.2240  220.2000 H   0  0  0  0  0  0  0  0  0  0  0  0
  144.4862   72.5798  220.5495 H   0  0  0  0  0  0  0  0  0  0  0  0
  142.5358   70.9809  220.6034 H   0  0  0  0  0  0  0  0  0  0  0  0
  140.2064   71.8269  220.2520 H   0  0  0  0  0  0  0  0  0  0  0  0
  139.7967   74.2819  219.8437 H   0  0  0  0  0  0  0  0  0  0  0  0
  1  2  2  0
  2  3  2  0
  2  4  1  0
  4  5  1  0
  5  6  2  0
  6  7  1  0
  7  8  2  0
  8  9  1  0
  9 10  2  0
  2 11  1  0
 11 12  1  0
 12 13  1  0
 13 14  2  0
 14 15  1  0
 15 16  2  0
 16 17  1  0
 17 18  2  0
 18 19  1  0
 19 20  1  0
 20 21  2  0
 21 22  1  0
 22 23  1  0
 23 24  2  0
 24 25  1  0
 25 26  2  0
 26 27  1  0
 27 28  2  0
 10  5  1  0
 19 11  1  0
 28 20  1  0
 18 13  1  0
 28 23  1  0
  4 29  1  0
  4 30  1  0
  6 31  1  0
  7 32  1  0
  8 33  1  0
  9 34  1  0
 10 35  1  0
 12 36  1  0
 12 37  1  0
 14 38  1  0
 15 39  1  0
 16 40  1  0
 17 41  1  0
 19 42  1  6
 21 43  1  0
 22 44  1  0
 24 45  1  0
 25 46  1  0
 26 47  1  0
 27 48  1  0
M  END
>  <UniqueID>  (40) 
238

>  <SMILES>  (40) 
O=S(=O)(Cc1ccccc1)N1Cc2ccccc2[C@H]1c1c[nH]c2ccccc12

>  <Energy>  (40) 
91.28441718272475

>  <Genealogy>  (40) 
O=S(=O)(Cc1ccccc1)N1Cc2ccccc2[C@H]1c1c[nH]c2ccccc12 (3D coordinates assigned)
O=S(=O)(Cc1ccccc1)N1Cc2ccccc2[C@H]1c1c[nH]c2ccccc12 (nonaromatic ring conformer: 91.28441718272475 kcal/mol)

>  <smiles>  (40) 
O=S(=O)(Cc1ccccc1)N1Cc2ccccc2[C@H]1c1c[nH]c2ccccc12

>  <score_type>  (40) 
oracle

>  <origin>  (40) 
autodockgpu

>  <m_score__min__energy>  (40) 
-8.4100000000000001

>  <m_primary>  (40) 
energy

>  <meeko>  (40) 
{"free_energy": -6.72, "intermolecular_energy": -7.91, "internal_energy": -2.48, "cluster_size": 12, "cluster_id": 4, "rank_in_cluster": 9}

>  <energy>  (40) 
-6.67

>  <cluster_rmsd>  (40) 
0.08

>  <rmsd>  (40) 
269.46

>  <cluster>  (40) 
4

$$$$
WCZRIPJXOMUAPT-QHCPKHFHNA-N
     RDKit          3D

 48 52  0  0  0  0  0  0  0  0999 V2000
  139.7100   78.3500  217.7840 O   0  0  0  0  0  0  0  0  0  0  0  0
  139.7450   78.4800  219.2810 S   0  0  0  0  0  0  0  0  0  0  0  0
  139.0920   77.2520  219.8460 O   0  0  0  0  0  0  0  0  0  0  0  0
  138.7640   79.9400  219.6800 C   0  0  0  0  0  0  0  0  0  0  0  0
  138.5630   80.1570  221.1560 C   0  0  0  0  0  0  0  0  0  0  0  0
  138.6660   81.4460  221.7060 C   0  0  0  0  0  0  0  0  0  0  0  0
  138.5580   81.6360  223.0880 C   0  0  0  0  0  0  0  0  0  0  0  0
  138.3670   80.5400  223.9320 C   0  0  0  0  0  0  0  0  0  0  0  0
  138.2900   79.2510  223.3980 C   0  0  0  0  0  0  0  0  0  0  0  0
  138.3920   79.0580  222.0170 C   0  0  0  0  0  0  0  0  0  0  0  0
  141.4460   78.5740  219.7470 N   0  0  0  0  0  0  0  0  0  0  0  0
  141.8250   79.9940  219.9150 C   0  0  0  0  0  0  0  0  0  0  0  0
  141.8350   80.2210  221.3800 C   0  0  0  0  0  0  0  0  0  0  0  0
  141.9640   81.4320  222.0630 C   0  0  0  0  0  0  0  0  0  0  0  0
  142.0790   81.4020  223.4610 C   0  0  0  0  0  0  0  0  0  0  0  0
  142.1070   80.1700  224.1420 C   0  0  0  0  0  0  0  0  0  0  0  0
  142.0050   78.9660  223.4270 C   0  0  0  0  0  0  0  0  0  0  0  0
  141.8150   79.0250  222.0420 C   0  0  0  0  0  0  0  0  0  0  0  0
  141.8250   77.9280  221.0390 C   0  0  1  0  0  0  0  0  0  0  0  0
  141.0740   76.6610  221.3940 C   0  0  0  0  0  0  0  0  0  0  0  0
  139.9940   76.4980  222.2600 C   0  0  0  0  0  0  0  0  0  0  0  0
  139.6440   75.1950  222.3470 N   0  0  0  0  0  0  0  0  0  0  0  0
  140.5030   74.5260  221.5610 C   0  0  0  0  0  0  0  0  0  0  0  0
  140.5460   73.1520  221.3330 C   0  0  0  0  0  0  0  0  0  0  0  0
  141.5410   72.6600  220.4690 C   0  0  0  0  0  0  0  0  0  0  0  0
  142.4610   73.5430  219.8610 C   0  0  0  0  0  0  0  0  0  0  0  0
  142.3930   74.9260  220.1100 C   0  0  0  0  0  0  0  0  0  0  0  0
  141.3950   75.3840  220.9710 C   0  0  0  0  0  0  0  0  0  0  0  0
  139.2736   80.8229  219.2667 H   0  0  0  0  0  0  0  0  0  0  0  0
  137.7671   79.7833  219.2423 H   0  0  0  0  0  0  0  0  0  0  0  0
  138.8325   82.3104  221.0464 H   0  0  0  0  0  0  0  0  0  0  0  0
  138.6236   82.6497  223.5101 H   0  0  0  0  0  0  0  0  0  0  0  0
  138.2771   80.6914  225.0178 H   0  0  0  0  0  0  0  0  0  0  0  0
  138.1490   78.3875  224.0647 H   0  0  0  0  0  0  0  0  0  0  0  0
  138.3382   78.0409  221.6015 H   0  0  0  0  0  0  0  0  0  0  0  0
  142.8217   80.1806  219.4886 H   0  0  0  0  0  0  0  0  0  0  0  0
  141.1281   80.6702  219.3982 H   0  0  0  0  0  0  0  0  0  0  0  0
  141.9752   82.3873  221.5177 H   0  0  0  0  0  0  0  0  0  0  0  0
  142.1474   82.3431  224.0263 H   0  0  0  0  0  0  0  0  0  0  0  0
  142.2090   80.1507  225.2371 H   0  0  0  0  0  0  0  0  0  0  0  0
  142.0730   77.9976  223.9443 H   0  0  0  0  0  0  0  0  0  0  0  0
  142.8297   77.4839  220.9806 H   0  0  0  0  0  0  0  0  0  0  0  0
  139.4950   77.3170  222.7987 H   0  0  0  0  0  0  0  0  0  0  0  0
  138.8710   74.7930  222.9230 H   0  0  0  0  0  0  0  0  0  0  0  0
  139.8251   72.4740  221.8132 H   0  0  0  0  0  0  0  0  0  0  0  0
  141.6032   71.5808  220.2654 H   0  0  0  0  0  0  0  0  0  0  0  0
  143.2358   73.1465  219.1883 H   0  0  0  0  0  0  0  0  0  0  0  0
  143.1031   75.6233  219.6414 H   0  0  0  0  0  0  0  0  0  0  0  0
  1  2  2  0
  2  3  2  0
  2  4  1  0
  4  5  1  0
  5  6  2  0
  6  7  1  0
  7  8  2  0
  8  9  1  0
  9 10  2  0
  2 11  1  0
 11 12  1  0
 12 13  1  0
 13 14  2  0
 14 15  1  0
 15 16  2  0
 16 17  1  0
 17 18  2  0
 18 19  1  0
 19 20  1  0
 20 21  2  0
 21 22  1  0
 22 23  1  0
 23 24  2  0
 24 25  1  0
 25 26  2  0
 26 27  1  0
 27 28  2  0
 10  5  1  0
 19 11  1  0
 28 20  1  0
 18 13  1  0
 28 23  1  0
  4 29  1  0
  4 30  1  0
  6 31  1  0
  7 32  1  0
  8 33  1  0
  9 34  1  0
 10 35  1  0
 12 36  1  0
 12 37  1  0
 14 38  1  0
 15 39  1  0
 16 40  1  0
 17 41  1  0
 19 42  1  6
 21 43  1  0
 22 44  1  0
 24 45  1  0
 25 46  1  0
 26 47  1  0
 27 48  1  0
M  END
>  <UniqueID>  (41) 
239

>  <SMILES>  (41) 
O=S(=O)(Cc1ccccc1)N1Cc2ccccc2[C@H]1c1c[nH]c2ccccc12

>  <Energy>  (41) 
97.41607876318156

>  <Genealogy>  (41) 
O=S(=O)(Cc1ccccc1)N1Cc2ccccc2[C@H]1c1c[nH]c2ccccc12 (3D coordinates assigned)
O=S(=O)(Cc1ccccc1)N1Cc2ccccc2[C@H]1c1c[nH]c2ccccc12 (nonaromatic ring conformer: 97.41607876318156 kcal/mol)

>  <smiles>  (41) 
O=S(=O)(Cc1ccccc1)N1Cc2ccccc2[C@H]1c1c[nH]c2ccccc12

>  <score_type>  (41) 
oracle

>  <origin>  (41) 
autodockgpu

>  <m_score__min__energy>  (41) 
-8.4100000000000001

>  <m_primary>  (41) 
energy

>  <meeko>  (41) 
{"free_energy": -6.84, "intermolecular_energy": -8.04, "internal_energy": -2.2, "cluster_size": 1, "cluster_id": 3, "rank_in_cluster": 1}

>  <energy>  (41) 
-8.41

>  <cluster_rmsd>  (41) 
0.0

>  <rmsd>  (41) 
269.16

>  <cluster>  (41) 
1

$$$$
WCZRIPJXOMUAPT-QHCPKHFHNA-N
     RDKit          3D

 48 52  0  0  0  0  0  0  0  0999 V2000
  138.8000   77.0780  222.8120 O   0  0  0  0  0  0  0  0  0  0  0  0
  139.9500   76.5100  222.0290 S   0  0  0  0  0  0  0  0  0  0  0  0
  139.9430   75.0240  222.2520 O   0  0  0  0  0  0  0  0  0  0  0  0
  141.4440   77.2330  222.7340 C   0  0  0  0  0  0  0  0  0  0  0  0
  141.4230   78.7360  222.8000 C   0  0  0  0  0  0  0  0  0  0  0  0
  142.5680   79.4780  222.4620 C   0  0  0  0  0  0  0  0  0  0  0  0
  142.5730   80.8710  222.5990 C   0  0  0  0  0  0  0  0  0  0  0  0
  141.4440   81.5300  223.0940 C   0  0  0  0  0  0  0  0  0  0  0  0
  140.3100   80.7980  223.4570 C   0  0  0  0  0  0  0  0  0  0  0  0
  140.3000   79.4070  223.3160 C   0  0  0  0  0  0  0  0  0  0  0  0
  139.6590   76.9040  220.3330 N   0  0  0  0  0  0  0  0  0  0  0  0
  138.9800   78.2160  220.2500 C   0  0  0  0  0  0  0  0  0  0  0  0
  140.0420   79.1770  219.8660 C   0  0  0  0  0  0  0  0  0  0  0  0
  139.9670   80.5700  219.8190 C   0  0  0  0  0  0  0  0  0  0  0  0
  141.0590   81.2820  219.2990 C   0  0  0  0  0  0  0  0  0  0  0  0
  142.1790   80.5910  218.7980 C   0  0  0  0  0  0  0  0  0  0  0  0
  142.2160   79.1870  218.8310 C   0  0  0  0  0  0  0  0  0  0  0  0
  141.1470   78.5040  219.4230 C   0  0  0  0  0  0  0  0  0  0  0  0
  140.8610   77.0460  219.4600 C   0  0  1  0  0  0  0  0  0  0  0  0
  142.0210   76.1230  219.7700 C   0  0  0  0  0  0  0  0  0  0  0  0
  143.3820   76.4200  219.8390 C   0  0  0  0  0  0  0  0  0  0  0  0
  144.1020   75.3040  220.0900 N   0  0  0  0  0  0  0  0  0  0  0  0
  143.2150   74.2980  220.1640 C   0  0  0  0  0  0  0  0  0  0  0  0
  143.4840   72.9500  220.4000 C   0  0  0  0  0  0  0  0  0  0  0  0
  142.3950   72.0600  220.4300 C   0  0  0  0  0  0  0  0  0  0  0  0
  141.0790   72.5310  220.2250 C   0  0  0  0  0  0  0  0  0  0  0  0
  140.8400   73.8970  219.9880 C   0  0  0  0  0  0  0  0  0  0  0  0
  141.9390   74.7560  219.9650 C   0  0  0  0  0  0  0  0  0  0  0  0
  141.5684   76.8434  223.7552 H   0  0  0  0  0  0  0  0  0  0  0  0
  142.2763   76.9547  222.0707 H   0  0  0  0  0  0  0  0  0  0  0  0
  143.4643   78.9615  222.0881 H   0  0  0  0  0  0  0  0  0  0  0  0
  143.4662   81.4477  222.3169 H   0  0  0  0  0  0  0  0  0  0  0  0
  141.4480   82.6251  223.1979 H   0  0  0  0  0  0  0  0  0  0  0  0
  139.4248   81.3166  223.8539 H   0  0  0  0  0  0  0  0  0  0  0  0
  139.4084   78.8340  223.6104 H   0  0  0  0  0  0  0  0  0  0  0  0
  138.1865   78.1927  219.4885 H   0  0  0  0  0  0  0  0  0  0  0  0
  138.4985   78.4917  221.1998 H   0  0  0  0  0  0  0  0  0  0  0  0
  139.0724   81.0977  220.1813 H   0  0  0  0  0  0  0  0  0  0  0  0
  141.0399   82.3817  219.2828 H   0  0  0  0  0  0  0  0  0  0  0  0
  143.0275   81.1522  218.3796 H   0  0  0  0  0  0  0  0  0  0  0  0
  143.0660   78.6367  218.4012 H   0  0  0  0  0  0  0  0  0  0  0  0
  140.6577   76.6786  218.4433 H   0  0  0  0  0  0  0  0  0  0  0  0
  143.8106   77.4245  219.7073 H   0  0  0  0  0  0  0  0  0  0  0  0
  145.1390   75.2400  220.1920 H   0  0  0  0  0  0  0  0  0  0  0  0
  144.5131   72.5947  220.5574 H   0  0  0  0  0  0  0  0  0  0  0  0
  142.5694   70.9897  220.6144 H   0  0  0  0  0  0  0  0  0  0  0  0
  140.2357   71.8251  220.2509 H   0  0  0  0  0  0  0  0  0  0  0  0
  139.8199   74.2754  219.8261 H   0  0  0  0  0  0  0  0  0  0  0  0
  1  2  2  0
  2  3  2  0
  2  4  1  0
  4  5  1  0
  5  6  2  0
  6  7  1  0
  7  8  2  0
  8  9  1  0
  9 10  2  0
  2 11  1  0
 11 12  1  0
 12 13  1  0
 13 14  2  0
 14 15  1  0
 15 16  2  0
 16 17  1  0
 17 18  2  0
 18 19  1  0
 19 20  1  0
 20 21  2  0
 21 22  1  0
 22 23  1  0
 23 24  2  0
 24 25  1  0
 25 26  2  0
 26 27  1  0
 27 28  2  0
 10  5  1  0
 19 11  1  0
 28 20  1  0
 18 13  1  0
 28 23  1  0
  4 29  1  0
  4 30  1  0
  6 31  1  0
  7 32  1  0
  8 33  1  0
  9 34  1  0
 10 35  1  0
 12 36  1  0
 12 37  1  0
 14 38  1  0
 15 39  1  0
 16 40  1  0
 17 41  1  0
 19 42  1  6
 21 43  1  0
 22 44  1  0
 24 45  1  0
 25 46  1  0
 26 47  1  0
 27 48  1  0
M  END
>  <UniqueID>  (42) 
239

>  <SMILES>  (42) 
O=S(=O)(Cc1ccccc1)N1Cc2ccccc2[C@H]1c1c[nH]c2ccccc12

>  <Energy>  (42) 
97.41607876318156

>  <Genealogy>  (42) 
O=S(=O)(Cc1ccccc1)N1Cc2ccccc2[C@H]1c1c[nH]c2ccccc12 (3D coordinates assigned)
O=S(=O)(Cc1ccccc1)N1Cc2ccccc2[C@H]1c1c[nH]c2ccccc12 (nonaromatic ring conformer: 97.41607876318156 kcal/mol)

>  <smiles>  (42) 
O=S(=O)(Cc1ccccc1)N1Cc2ccccc2[C@H]1c1c[nH]c2ccccc12

>  <score_type>  (42) 
oracle

>  <origin>  (42) 
autodockgpu

>  <m_score__min__energy>  (42) 
-8.4100000000000001

>  <m_primary>  (42) 
energy

>  <meeko>  (42) 
{"free_energy": -6.72, "intermolecular_energy": -7.91, "internal_energy": -2.47, "cluster_size": 12, "cluster_id": 4, "rank_in_cluster": 8}

>  <energy>  (42) 
-8.35

>  <cluster_rmsd>  (42) 
0.09

>  <rmsd>  (42) 
269.16

>  <cluster>  (42) 
1

$$$$
WCZRIPJXOMUAPT-QHCPKHFHNA-N
     RDKit          3D

 48 52  0  0  0  0  0  0  0  0999 V2000
  138.8030   77.0630  222.8270 O   0  0  0  0  0  0  0  0  0  0  0  0
  139.9540   76.4990  222.0430 S   0  0  0  0  0  0  0  0  0  0  0  0
  139.9540   75.0140  222.2660 O   0  0  0  0  0  0  0  0  0  0  0  0
  141.4460   77.2290  222.7450 C   0  0  0  0  0  0  0  0  0  0  0  0
  141.4190   78.7330  222.8100 C   0  0  0  0  0  0  0  0  0  0  0  0
  142.5580   79.4800  222.4660 C   0  0  0  0  0  0  0  0  0  0  0  0
  142.5580   80.8720  222.6020 C   0  0  0  0  0  0  0  0  0  0  0  0
  141.4280   81.5270  223.1000 C   0  0  0  0  0  0  0  0  0  0  0  0
  140.2990   80.7900  223.4690 C   0  0  0  0  0  0  0  0  0  0  0  0
  140.2940   79.3990  223.3300 C   0  0  0  0  0  0  0  0  0  0  0  0
  139.6590   76.8900  220.3460 N   0  0  0  0  0  0  0  0  0  0  0  0
  138.9760   78.2010  220.2630 C   0  0  0  0  0  0  0  0  0  0  0  0
  140.0350   79.1640  219.8770 C   0  0  0  0  0  0  0  0  0  0  0  0
  139.9550   80.5570  219.8280 C   0  0  0  0  0  0  0  0  0  0  0  0
  141.0440   81.2720  219.3060 C   0  0  0  0  0  0  0  0  0  0  0  0
  142.1650   80.5840  218.8040 C   0  0  0  0  0  0  0  0  0  0  0  0
  142.2070   79.1800  218.8380 C   0  0  0  0  0  0  0  0  0  0  0  0
  141.1410   78.4940  219.4330 C   0  0  0  0  0  0  0  0  0  0  0  0
  140.8600   77.0360  219.4720 C   0  0  1  0  0  0  0  0  0  0  0  0
  142.0230   76.1160  219.7810 C   0  0  0  0  0  0  0  0  0  0  0  0
  143.3830   76.4180  219.8470 C   0  0  0  0  0  0  0  0  0  0  0  0
  144.1070   75.3040  220.0990 N   0  0  0  0  0  0  0  0  0  0  0  0
  143.2240   74.2960  220.1740 C   0  0  0  0  0  0  0  0  0  0  0  0
  143.4970   72.9490  220.4110 C   0  0  0  0  0  0  0  0  0  0  0  0
  142.4110   72.0550  220.4430 C   0  0  0  0  0  0  0  0  0  0  0  0
  141.0940   72.5210  220.2400 C   0  0  0  0  0  0  0  0  0  0  0  0
  140.8490   73.8870  220.0020 C   0  0  0  0  0  0  0  0  0  0  0  0
  141.9460   74.7490  219.9760 C   0  0  0  0  0  0  0  0  0  0  0  0
  141.5736   76.8408  223.7663 H   0  0  0  0  0  0  0  0  0  0  0  0
  142.2783   76.9538  222.0805 H   0  0  0  0  0  0  0  0  0  0  0  0
  143.4547   78.9673  222.0876 H   0  0  0  0  0  0  0  0  0  0  0  0
  143.4481   81.4519  222.3168 H   0  0  0  0  0  0  0  0  0  0  0  0
  141.4272   82.6223  223.2015 H   0  0  0  0  0  0  0  0  0  0  0  0
  139.4134   81.3052  223.8692 H   0  0  0  0  0  0  0  0  0  0  0  0
  139.4062   78.8223  223.6286 H   0  0  0  0  0  0  0  0  0  0  0  0
  138.1816   78.1752  219.5026 H   0  0  0  0  0  0  0  0  0  0  0  0
  138.4949   78.4762  221.2132 H   0  0  0  0  0  0  0  0  0  0  0  0
  139.0589   81.0821  220.1903 H   0  0  0  0  0  0  0  0  0  0  0  0
  141.0216   82.3716  219.2891 H   0  0  0  0  0  0  0  0  0  0  0  0
  143.0110   81.1476  218.3837 H   0  0  0  0  0  0  0  0  0  0  0  0
  143.0579   78.6321  218.4070 H   0  0  0  0  0  0  0  0  0  0  0  0
  140.6572   76.6679  218.4554 H   0  0  0  0  0  0  0  0  0  0  0  0
  143.8081   77.4236  219.7126 H   0  0  0  0  0  0  0  0  0  0  0  0
  145.1450   75.2440  220.1990 H   0  0  0  0  0  0  0  0  0  0  0  0
  144.5273   72.5971  220.5677 H   0  0  0  0  0  0  0  0  0  0  0  0
  142.5894   70.9854  220.6275 H   0  0  0  0  0  0  0  0  0  0  0  0
  140.2534   71.8121  220.2680 H   0  0  0  0  0  0  0  0  0  0  0  0
  139.8273   74.2620  219.8420 H   0  0  0  0  0  0  0  0  0  0  0  0
  1  2  2  0
  2  3  2  0
  2  4  1  0
  4  5  1  0
  5  6  2  0
  6  7  1  0
  7  8  2  0
  8  9  1  0
  9 10  2  0
  2 11  1  0
 11 12  1  0
 12 13  1  0
 13 14  2  0
 14 15  1  0
 15 16  2  0
 16 17  1  0
 17 18  2  0
 18 19  1  0
 19 20  1  0
 20 21  2  0
 21 22  1  0
 22 23  1  0
 23 24  2  0
 24 25  1  0
 25 26  2  0
 26 27  1  0
 27 28  2  0
 10  5  1  0
 19 11  1  0
 28 20  1  0
 18 13  1  0
 28 23  1  0
  4 29  1  0
  4 30  1  0
  6 31  1  0
  7 32  1  0
  8 33  1  0
  9 34  1  0
 10 35  1  0
 12 36  1  0
 12 37  1  0
 14 38  1  0
 15 39  1  0
 16 40  1  0
 17 41  1  0
 19 42  1  6
 21 43  1  0
 22 44  1  0
 24 45  1  0
 25 46  1  0
 26 47  1  0
 27 48  1  0
M  END
>  <UniqueID>  (43) 
239

>  <SMILES>  (43) 
O=S(=O)(Cc1ccccc1)N1Cc2ccccc2[C@H]1c1c[nH]c2ccccc12

>  <Energy>  (43) 
97.41607876318156

>  <Genealogy>  (43) 
O=S(=O)(Cc1ccccc1)N1Cc2ccccc2[C@H]1c1c[nH]c2ccccc12 (3D coordinates assigned)
O=S(=O)(Cc1ccccc1)N1Cc2ccccc2[C@H]1c1c[nH]c2ccccc12 (nonaromatic ring conformer: 97.41607876318156 kcal/mol)

>  <smiles>  (43) 
O=S(=O)(Cc1ccccc1)N1Cc2ccccc2[C@H]1c1c[nH]c2ccccc12

>  <score_type>  (43) 
oracle

>  <origin>  (43) 
autodockgpu

>  <m_score__min__energy>  (43) 
-8.4100000000000001

>  <m_primary>  (43) 
energy

>  <meeko>  (43) 
{"free_energy": -6.72, "intermolecular_energy": -7.91, "internal_energy": -2.47, "cluster_size": 12, "cluster_id": 4, "rank_in_cluster": 5}

>  <energy>  (43) 
-7.53

>  <cluster_rmsd>  (43) 
0.0

>  <rmsd>  (43) 
268.72

>  <cluster>  (43) 
2

$$$$
WCZRIPJXOMUAPT-QHCPKHFHNA-N
     RDKit          3D

 48 52  0  0  0  0  0  0  0  0999 V2000
  138.8020   77.0770  222.8620 O   0  0  0  0  0  0  0  0  0  0  0  0
  139.9490   76.5170  222.0690 S   0  0  0  0  0  0  0  0  0  0  0  0
  139.9490   75.0310  222.2820 O   0  0  0  0  0  0  0  0  0  0  0  0
  141.4440   77.2420  222.7700 C   0  0  0  0  0  0  0  0  0  0  0  0
  141.4260   78.7460  222.8280 C   0  0  0  0  0  0  0  0  0  0  0  0
  142.5730   79.4840  222.4900 C   0  0  0  0  0  0  0  0  0  0  0  0
  142.5800   80.8770  222.6200 C   0  0  0  0  0  0  0  0  0  0  0  0
  141.4510   81.5410  223.1080 C   0  0  0  0  0  0  0  0  0  0  0  0
  140.3150   80.8130  223.4710 C   0  0  0  0  0  0  0  0  0  0  0  0
  140.3020   79.4210  223.3370 C   0  0  0  0  0  0  0  0  0  0  0  0
  139.6470   76.9210  220.3760 N   0  0  0  0  0  0  0  0  0  0  0  0
  138.9720   78.2360  220.3050 C   0  0  0  0  0  0  0  0  0  0  0  0
  140.0340   79.1960  219.9190 C   0  0  0  0  0  0  0  0  0  0  0  0
  139.9620   80.5890  219.8790 C   0  0  0  0  0  0  0  0  0  0  0  0
  141.0530   81.3010  219.3560 C   0  0  0  0  0  0  0  0  0  0  0  0
  142.1670   80.6090  218.8430 C   0  0  0  0  0  0  0  0  0  0  0  0
  142.2000   79.2050  218.8680 C   0  0  0  0  0  0  0  0  0  0  0  0
  141.1340   78.5220  219.4650 C   0  0  0  0  0  0  0  0  0  0  0  0
  140.8440   77.0650  219.4960 C   0  0  1  0  0  0  0  0  0  0  0  0
  142.0030   76.1370  219.7930 C   0  0  0  0  0  0  0  0  0  0  0  0
  143.3650   76.4300  219.8560 C   0  0  0  0  0  0  0  0  0  0  0  0
  144.0840   75.3110  220.0950 N   0  0  0  0  0  0  0  0  0  0  0  0
  143.1950   74.3060  220.1670 C   0  0  0  0  0  0  0  0  0  0  0  0
  143.4620   72.9570  220.3920 C   0  0  0  0  0  0  0  0  0  0  0  0
  142.3710   72.0680  220.4220 C   0  0  0  0  0  0  0  0  0  0  0  0
  141.0560   72.5430  220.2270 C   0  0  0  0  0  0  0  0  0  0  0  0
  140.8180   73.9120  220.0010 C   0  0  0  0  0  0  0  0  0  0  0  0
  141.9190   74.7690  219.9780 C   0  0  0  0  0  0  0  0  0  0  0  0
  141.5677   76.8578  223.7933 H   0  0  0  0  0  0  0  0  0  0  0  0
  142.2756   76.9590  222.1079 H   0  0  0  0  0  0  0  0  0  0  0  0
  143.4696   78.9641  222.1215 H   0  0  0  0  0  0  0  0  0  0  0  0
  143.4753   81.4505  222.3378 H   0  0  0  0  0  0  0  0  0  0  0  0
  141.4568   82.6366  223.2063 H   0  0  0  0  0  0  0  0  0  0  0  0
  139.4298   81.3354  223.8627 H   0  0  0  0  0  0  0  0  0  0  0  0
  139.4082   78.8512  223.6312 H   0  0  0  0  0  0  0  0  0  0  0  0
  138.1732   78.2195  219.5489 H   0  0  0  0  0  0  0  0  0  0  0  0
  138.4984   78.5079  221.2599 H   0  0  0  0  0  0  0  0  0  0  0  0
  139.0708   81.1171  220.2488 H   0  0  0  0  0  0  0  0  0  0  0  0
  141.0377   82.4009  219.3469 H   0  0  0  0  0  0  0  0  0  0  0  0
  143.0142   81.1698  218.4213 H   0  0  0  0  0  0  0  0  0  0  0  0
  143.0447   78.6545  218.4282 H   0  0  0  0  0  0  0  0  0  0  0  0
  140.6329   76.7042  218.4785 H   0  0  0  0  0  0  0  0  0  0  0  0
  143.7951   77.4344  219.7286 H   0  0  0  0  0  0  0  0  0  0  0  0
  145.1220   75.2440  220.1910 H   0  0  0  0  0  0  0  0  0  0  0  0
  144.4912   72.5987  220.5412 H   0  0  0  0  0  0  0  0  0  0  0  0
  142.5442   70.9962  220.5985 H   0  0  0  0  0  0  0  0  0  0  0  0
  140.2115   71.8386  220.2518 H   0  0  0  0  0  0  0  0  0  0  0  0
  139.7977   74.2935  219.8476 H   0  0  0  0  0  0  0  0  0  0  0  0
  1  2  2  0
  2  3  2  0
  2  4  1  0
  4  5  1  0
  5  6  2  0
  6  7  1  0
  7  8  2  0
  8  9  1  0
  9 10  2  0
  2 11  1  0
 11 12  1  0
 12 13  1  0
 13 14  2  0
 14 15  1  0
 15 16  2  0
 16 17  1  0
 17 18  2  0
 18 19  1  0
 19 20  1  0
 20 21  2  0
 21 22  1  0
 22 23  1  0
 23 24  2  0
 24 25  1  0
 25 26  2  0
 26 27  1  0
 27 28  2  0
 10  5  1  0
 19 11  1  0
 28 20  1  0
 18 13  1  0
 28 23  1  0
  4 29  1  0
  4 30  1  0
  6 31  1  0
  7 32  1  0
  8 33  1  0
  9 34  1  0
 10 35  1  0
 12 36  1  0
 12 37  1  0
 14 38  1  0
 15 39  1  0
 16 40  1  0
 17 41  1  0
 19 42  1  6
 21 43  1  0
 22 44  1  0
 24 45  1  0
 25 46  1  0
 26 47  1  0
 27 48  1  0
M  END
>  <UniqueID>  (44) 
239

>  <SMILES>  (44) 
O=S(=O)(Cc1ccccc1)N1Cc2ccccc2[C@H]1c1c[nH]c2ccccc12

>  <Energy>  (44) 
97.41607876318156

>  <Genealogy>  (44) 
O=S(=O)(Cc1ccccc1)N1Cc2ccccc2[C@H]1c1c[nH]c2ccccc12 (3D coordinates assigned)
O=S(=O)(Cc1ccccc1)N1Cc2ccccc2[C@H]1c1c[nH]c2ccccc12 (nonaromatic ring conformer: 97.41607876318156 kcal/mol)

>  <smiles>  (44) 
O=S(=O)(Cc1ccccc1)N1Cc2ccccc2[C@H]1c1c[nH]c2ccccc12

>  <score_type>  (44) 
oracle

>  <origin>  (44) 
autodockgpu

>  <m_score__min__energy>  (44) 
-8.4100000000000001

>  <m_primary>  (44) 
energy

>  <meeko>  (44) 
{"free_energy": -6.72, "intermolecular_energy": -7.92, "internal_energy": -2.47, "cluster_size": 12, "cluster_id": 4, "rank_in_cluster": 1}

>  <energy>  (44) 
-7.52

>  <cluster_rmsd>  (44) 
0.09

>  <rmsd>  (44) 
268.73

>  <cluster>  (44) 
2

$$$$
WCZRIPJXOMUAPT-QHCPKHFHNA-N
     RDKit          3D

 48 52  0  0  0  0  0  0  0  0999 V2000
  138.7930   77.0860  222.8280 O   0  0  0  0  0  0  0  0  0  0  0  0
  139.9420   76.5200  222.0430 S   0  0  0  0  0  0  0  0  0  0  0  0
  139.9350   75.0340  222.2610 O   0  0  0  0  0  0  0  0  0  0  0  0
  141.4360   77.2410  222.7500 C   0  0  0  0  0  0  0  0  0  0  0  0
  141.4190   78.7450  222.8120 C   0  0  0  0  0  0  0  0  0  0  0  0
  142.5650   79.4840  222.4740 C   0  0  0  0  0  0  0  0  0  0  0  0
  142.5740   80.8770  222.6090 C   0  0  0  0  0  0  0  0  0  0  0  0
  141.4460   81.5390  223.1000 C   0  0  0  0  0  0  0  0  0  0  0  0
  140.3100   80.8110  223.4630 C   0  0  0  0  0  0  0  0  0  0  0  0
  140.2960   79.4200  223.3250 C   0  0  0  0  0  0  0  0  0  0  0  0
  139.6500   76.9190  220.3480 N   0  0  0  0  0  0  0  0  0  0  0  0
  138.9760   78.2350  220.2690 C   0  0  0  0  0  0  0  0  0  0  0  0
  140.0420   79.1920  219.8860 C   0  0  0  0  0  0  0  0  0  0  0  0
  139.9730   80.5860  219.8420 C   0  0  0  0  0  0  0  0  0  0  0  0
  141.0670   81.2940  219.3220 C   0  0  0  0  0  0  0  0  0  0  0  0
  142.1840   80.5990  218.8180 C   0  0  0  0  0  0  0  0  0  0  0  0
  142.2140   79.1960  218.8470 C   0  0  0  0  0  0  0  0  0  0  0  0
  141.1440   78.5160  219.4400 C   0  0  0  0  0  0  0  0  0  0  0  0
  140.8520   77.0590  219.4740 C   0  0  1  0  0  0  0  0  0  0  0  0
  142.0080   76.1300  219.7800 C   0  0  0  0  0  0  0  0  0  0  0  0
  143.3700   76.4220  219.8510 C   0  0  0  0  0  0  0  0  0  0  0  0
  144.0860   75.3020  220.0970 N   0  0  0  0  0  0  0  0  0  0  0  0
  143.1960   74.2990  220.1650 C   0  0  0  0  0  0  0  0  0  0  0  0
  143.4590   72.9490  220.3950 C   0  0  0  0  0  0  0  0  0  0  0  0
  142.3670   72.0620  220.4200 C   0  0  0  0  0  0  0  0  0  0  0  0
  141.0540   72.5390  220.2170 C   0  0  0  0  0  0  0  0  0  0  0  0
  140.8190   73.9070  219.9860 C   0  0  0  0  0  0  0  0  0  0  0  0
  141.9210   74.7620  219.9670 C   0  0  0  0  0  0  0  0  0  0  0  0
  141.5566   76.8539  223.7725 H   0  0  0  0  0  0  0  0  0  0  0  0
  142.2692   76.9588  222.0896 H   0  0  0  0  0  0  0  0  0  0  0  0
  143.4603   78.9649  222.1012 H   0  0  0  0  0  0  0  0  0  0  0  0
  143.4696   81.4508  222.3284 H   0  0  0  0  0  0  0  0  0  0  0  0
  141.4522   82.6343  223.2009 H   0  0  0  0  0  0  0  0  0  0  0  0
  139.4258   81.3329  223.8577 H   0  0  0  0  0  0  0  0  0  0  0  0
  139.4023   78.8501  223.6190 H   0  0  0  0  0  0  0  0  0  0  0  0
  138.1815   78.2170  219.5084 H   0  0  0  0  0  0  0  0  0  0  0  0
  138.4967   78.5106  221.2199 H   0  0  0  0  0  0  0  0  0  0  0  0
  139.0813   81.1169  220.2067 H   0  0  0  0  0  0  0  0  0  0  0  0
  141.0525   82.3938  219.3078 H   0  0  0  0  0  0  0  0  0  0  0  0
  143.0349   81.1573  218.4006 H   0  0  0  0  0  0  0  0  0  0  0  0
  143.0601   78.6429  218.4131 H   0  0  0  0  0  0  0  0  0  0  0  0
  140.6462   76.6957  218.4563 H   0  0  0  0  0  0  0  0  0  0  0  0
  143.8021   77.4256  219.7243 H   0  0  0  0  0  0  0  0  0  0  0  0
  145.1230   75.2340  220.1990 H   0  0  0  0  0  0  0  0  0  0  0  0
  144.4866   72.5892  220.5518 H   0  0  0  0  0  0  0  0  0  0  0  0
  142.5375   70.9901  220.5989 H   0  0  0  0  0  0  0  0  0  0  0  0
  140.2082   71.8360  220.2396 H   0  0  0  0  0  0  0  0  0  0  0  0
  139.8002   74.2895  219.8257 H   0  0  0  0  0  0  0  0  0  0  0  0
  1  2  2  0
  2  3  2  0
  2  4  1  0
  4  5  1  0
  5  6  2  0
  6  7  1  0
  7  8  2  0
  8  9  1  0
  9 10  2  0
  2 11  1  0
 11 12  1  0
 12 13  1  0
 13 14  2  0
 14 15  1  0
 15 16  2  0
 16 17  1  0
 17 18  2  0
 18 19  1  0
 19 20  1  0
 20 21  2  0
 21 22  1  0
 22 23  1  0
 23 24  2  0
 24 25  1  0
 25 26  2  0
 26 27  1  0
 27 28  2  0
 10  5  1  0
 19 11  1  0
 28 20  1  0
 18 13  1  0
 28 23  1  0
  4 29  1  0
  4 30  1  0
  6 31  1  0
  7 32  1  0
  8 33  1  0
  9 34  1  0
 10 35  1  0
 12 36  1  0
 12 37  1  0
 14 38  1  0
 15 39  1  0
 16 40  1  0
 17 41  1  0
 19 42  1  6
 21 43  1  0
 22 44  1  0
 24 45  1  0
 25 46  1  0
 26 47  1  0
 27 48  1  0
M  END
>  <UniqueID>  (45) 
239

>  <SMILES>  (45) 
O=S(=O)(Cc1ccccc1)N1Cc2ccccc2[C@H]1c1c[nH]c2ccccc12

>  <Energy>  (45) 
97.41607876318156

>  <Genealogy>  (45) 
O=S(=O)(Cc1ccccc1)N1Cc2ccccc2[C@H]1c1c[nH]c2ccccc12 (3D coordinates assigned)
O=S(=O)(Cc1ccccc1)N1Cc2ccccc2[C@H]1c1c[nH]c2ccccc12 (nonaromatic ring conformer: 97.41607876318156 kcal/mol)

>  <smiles>  (45) 
O=S(=O)(Cc1ccccc1)N1Cc2ccccc2[C@H]1c1c[nH]c2ccccc12

>  <score_type>  (45) 
oracle

>  <origin>  (45) 
autodockgpu

>  <m_score__min__energy>  (45) 
-8.4100000000000001

>  <m_primary>  (45) 
energy

>  <meeko>  (45) 
{"free_energy": -6.71, "intermolecular_energy": -7.91, "internal_energy": -2.48, "cluster_size": 12, "cluster_id": 4, "rank_in_cluster": 10}

>  <energy>  (45) 
-7.51

>  <cluster_rmsd>  (45) 
0.37

>  <rmsd>  (45) 
268.74

>  <cluster>  (45) 
2

$$$$
WCZRIPJXOMUAPT-QHCPKHFHNA-N
     RDKit          3D

 48 52  0  0  0  0  0  0  0  0999 V2000
  141.4290   74.6150  221.7830 O   0  0  0  0  0  0  0  0  0  0  0  0
  141.3560   75.4290  220.5210 S   0  0  0  0  0  0  0  0  0  0  0  0
  140.7630   74.5460  219.4610 O   0  0  0  0  0  0  0  0  0  0  0  0
  143.0570   75.8480  220.0950 C   0  0  0  0  0  0  0  0  0  0  0  0
  143.9670   74.6550  219.9670 C   0  0  0  0  0  0  0  0  0  0  0  0
  143.6710   73.6300  219.0530 C   0  0  0  0  0  0  0  0  0  0  0  0
  144.4730   72.4850  218.9900 C   0  0  0  0  0  0  0  0  0  0  0  0
  145.5640   72.3470  219.8530 C   0  0  0  0  0  0  0  0  0  0  0  0
  145.8510   73.3490  220.7830 C   0  0  0  0  0  0  0  0  0  0  0  0
  145.0550   74.4970  220.8450 C   0  0  0  0  0  0  0  0  0  0  0  0
  140.3100   76.8100  220.8630 N   0  0  0  0  0  0  0  0  0  0  0  0
  140.2360   77.0110  222.3270 C   0  0  0  0  0  0  0  0  0  0  0  0
  141.1430   78.1510  222.6070 C   0  0  0  0  0  0  0  0  0  0  0  0
  141.5620   78.6330  223.8480 C   0  0  0  0  0  0  0  0  0  0  0  0
  142.3230   79.8110  223.8860 C   0  0  0  0  0  0  0  0  0  0  0  0
  142.6110   80.5050  222.6950 C   0  0  0  0  0  0  0  0  0  0  0  0
  142.1510   80.0130  221.4620 C   0  0  0  0  0  0  0  0  0  0  0  0
  141.4590   78.7960  221.4440 C   0  0  0  0  0  0  0  0  0  0  0  0
  140.7450   78.1320  220.3230 C   0  0  1  0  0  0  0  0  0  0  0  0
  141.4440   78.1040  218.9800 C   0  0  0  0  0  0  0  0  0  0  0  0
  142.5970   78.7780  218.5790 C   0  0  0  0  0  0  0  0  0  0  0  0
  142.8670   78.5300  217.2780 N   0  0  0  0  0  0  0  0  0  0  0  0
  141.8880   77.7200  216.8420 C   0  0  0  0  0  0  0  0  0  0  0  0
  141.7310   77.1980  215.5590 C   0  0  0  0  0  0  0  0  0  0  0  0
  140.6190   76.3690  215.3190 C   0  0  0  0  0  0  0  0  0  0  0  0
  139.7010   76.0870  216.3540 C   0  0  0  0  0  0  0  0  0  0  0  0
  139.8850   76.6300  217.6390 C   0  0  0  0  0  0  0  0  0  0  0  0
  140.9970   77.4470  217.8470 C   0  0  0  0  0  0  0  0  0  0  0  0
  143.0513   76.3836  219.1342 H   0  0  0  0  0  0  0  0  0  0  0  0
  143.4500   76.4616  220.9190 H   0  0  0  0  0  0  0  0  0  0  0  0
  142.8040   73.7280  218.3831 H   0  0  0  0  0  0  0  0  0  0  0  0
  144.2449   71.6933  218.2612 H   0  0  0  0  0  0  0  0  0  0  0  0
  146.1969   71.4489  219.7997 H   0  0  0  0  0  0  0  0  0  0  0  0
  146.7044   73.2348  221.4676 H   0  0  0  0  0  0  0  0  0  0  0  0
  145.2805   75.2802  221.5837 H   0  0  0  0  0  0  0  0  0  0  0  0
  139.2071   77.2522  222.6321 H   0  0  0  0  0  0  0  0  0  0  0  0
  140.5267   76.1070  222.8823 H   0  0  0  0  0  0  0  0  0  0  0  0
  141.3015   78.1014  224.7751 H   0  0  0  0  0  0  0  0  0  0  0  0
  142.6954   80.1932  224.8479 H   0  0  0  0  0  0  0  0  0  0  0  0
  143.1977   81.4348  222.7301 H   0  0  0  0  0  0  0  0  0  0  0  0
  142.3305   80.5715  220.5315 H   0  0  0  0  0  0  0  0  0  0  0  0
  139.8801   78.7395  220.0182 H   0  0  0  0  0  0  0  0  0  0  0  0
  143.2035   79.4230  219.2318 H   0  0  0  0  0  0  0  0  0  0  0  0
  143.6690   78.9050  216.7240 H   0  0  0  0  0  0  0  0  0  0  0  0
  142.4523   77.4264  214.7605 H   0  0  0  0  0  0  0  0  0  0  0  0
  140.4642   75.9382  214.3188 H   0  0  0  0  0  0  0  0  0  0  0  0
  138.8356   75.4380  216.1543 H   0  0  0  0  0  0  0  0  0  0  0  0
  139.1758   76.4175  218.4526 H   0  0  0  0  0  0  0  0  0  0  0  0
  1  2  2  0
  2  3  2  0
  2  4  1  0
  4  5  1  0
  5  6  2  0
  6  7  1  0
  7  8  2  0
  8  9  1  0
  9 10  2  0
  2 11  1  0
 11 12  1  0
 12 13  1  0
 13 14  2  0
 14 15  1  0
 15 16  2  0
 16 17  1  0
 17 18  2  0
 18 19  1  0
 19 20  1  0
 20 21  2  0
 21 22  1  0
 22 23  1  0
 23 24  2  0
 24 25  1  0
 25 26  2  0
 26 27  1  0
 27 28  2  0
 10  5  1  0
 19 11  1  0
 28 20  1  0
 18 13  1  0
 28 23  1  0
  4 29  1  0
  4 30  1  0
  6 31  1  0
  7 32  1  0
  8 33  1  0
  9 34  1  0
 10 35  1  0
 12 36  1  0
 12 37  1  0
 14 38  1  0
 15 39  1  0
 16 40  1  0
 17 41  1  0
 19 42  1  6
 21 43  1  0
 22 44  1  0
 24 45  1  0
 25 46  1  0
 26 47  1  0
 27 48  1  0
M  END
>  <UniqueID>  (46) 
239

>  <SMILES>  (46) 
O=S(=O)(Cc1ccccc1)N1Cc2ccccc2[C@H]1c1c[nH]c2ccccc12

>  <Energy>  (46) 
97.41607876318156

>  <Genealogy>  (46) 
O=S(=O)(Cc1ccccc1)N1Cc2ccccc2[C@H]1c1c[nH]c2ccccc12 (3D coordinates assigned)
O=S(=O)(Cc1ccccc1)N1Cc2ccccc2[C@H]1c1c[nH]c2ccccc12 (nonaromatic ring conformer: 97.41607876318156 kcal/mol)

>  <smiles>  (46) 
O=S(=O)(Cc1ccccc1)N1Cc2ccccc2[C@H]1c1c[nH]c2ccccc12

>  <score_type>  (46) 
oracle

>  <origin>  (46) 
autodockgpu

>  <m_score__min__energy>  (46) 
-8.4100000000000001

>  <m_primary>  (46) 
energy

>  <meeko>  (46) 
{"free_energy": -7.46, "intermolecular_energy": -8.65, "internal_energy": -1.75, "cluster_size": 5, "cluster_id": 2, "rank_in_cluster": 5}

>  <energy>  (46) 
-7.5

>  <cluster_rmsd>  (46) 
0.39

>  <rmsd>  (46) 
268.74

>  <cluster>  (46) 
2

$$$$
WCZRIPJXOMUAPT-QHCPKHFHNA-N
     RDKit          3D

 48 52  0  0  0  0  0  0  0  0999 V2000
  138.7970   77.0630  222.8340 O   0  0  0  0  0  0  0  0  0  0  0  0
  139.9470   76.4990  222.0480 S   0  0  0  0  0  0  0  0  0  0  0  0
  139.9450   75.0130  222.2680 O   0  0  0  0  0  0  0  0  0  0  0  0
  141.4400   77.2260  222.7500 C   0  0  0  0  0  0  0  0  0  0  0  0
  141.4160   78.7300  222.8140 C   0  0  0  0  0  0  0  0  0  0  0  0
  142.5580   79.4730  222.4720 C   0  0  0  0  0  0  0  0  0  0  0  0
  142.5610   80.8660  222.6070 C   0  0  0  0  0  0  0  0  0  0  0  0
  141.4320   81.5240  223.1030 C   0  0  0  0  0  0  0  0  0  0  0  0
  140.3010   80.7900  223.4700 C   0  0  0  0  0  0  0  0  0  0  0  0
  140.2930   79.3990  223.3310 C   0  0  0  0  0  0  0  0  0  0  0  0
  139.6500   76.8940  220.3520 N   0  0  0  0  0  0  0  0  0  0  0  0
  138.9680   78.2060  220.2730 C   0  0  0  0  0  0  0  0  0  0  0  0
  140.0270   79.1690  219.8870 C   0  0  0  0  0  0  0  0  0  0  0  0
  139.9490   80.5620  219.8420 C   0  0  0  0  0  0  0  0  0  0  0  0
  141.0380   81.2770  219.3200 C   0  0  0  0  0  0  0  0  0  0  0  0
  142.1580   80.5890  218.8160 C   0  0  0  0  0  0  0  0  0  0  0  0
  142.1980   79.1850  218.8460 C   0  0  0  0  0  0  0  0  0  0  0  0
  141.1320   78.4990  219.4410 C   0  0  0  0  0  0  0  0  0  0  0  0
  140.8500   77.0410  219.4770 C   0  0  1  0  0  0  0  0  0  0  0  0
  142.0120   76.1190  219.7830 C   0  0  0  0  0  0  0  0  0  0  0  0
  143.3720   76.4200  219.8470 C   0  0  0  0  0  0  0  0  0  0  0  0
  144.0960   75.3040  220.0950 N   0  0  0  0  0  0  0  0  0  0  0  0
  143.2120   74.2970  220.1710 C   0  0  0  0  0  0  0  0  0  0  0  0
  143.4840   72.9500  220.4050 C   0  0  0  0  0  0  0  0  0  0  0  0
  142.3970   72.0570  220.4380 C   0  0  0  0  0  0  0  0  0  0  0  0
  141.0800   72.5250  220.2370 C   0  0  0  0  0  0  0  0  0  0  0  0
  140.8360   73.8910  220.0020 C   0  0  0  0  0  0  0  0  0  0  0  0
  141.9340   74.7520  219.9760 C   0  0  0  0  0  0  0  0  0  0  0  0
  141.5664   76.8381  223.7716 H   0  0  0  0  0  0  0  0  0  0  0  0
  142.2720   76.9486  222.0861 H   0  0  0  0  0  0  0  0  0  0  0  0
  143.4542   78.9575  222.0963 H   0  0  0  0  0  0  0  0  0  0  0  0
  143.4528   81.4436  222.3224 H   0  0  0  0  0  0  0  0  0  0  0  0
  141.4338   82.6193  223.2044 H   0  0  0  0  0  0  0  0  0  0  0  0
  139.4159   81.3073  223.8688 H   0  0  0  0  0  0  0  0  0  0  0  0
  139.4030   78.8248  223.6278 H   0  0  0  0  0  0  0  0  0  0  0  0
  138.1721   78.1825  219.5140 H   0  0  0  0  0  0  0  0  0  0  0  0
  138.4891   78.4796  221.2247 H   0  0  0  0  0  0  0  0  0  0  0  0
  139.0543   81.0874  220.2074 H   0  0  0  0  0  0  0  0  0  0  0  0
  141.0164   82.3767  219.3047 H   0  0  0  0  0  0  0  0  0  0  0  0
  143.0047   81.1526  218.3972 H   0  0  0  0  0  0  0  0  0  0  0  0
  143.0473   78.6370  218.4120 H   0  0  0  0  0  0  0  0  0  0  0  0
  140.6463   76.6758  218.4596 H   0  0  0  0  0  0  0  0  0  0  0  0
  143.7975   77.4256  219.7142 H   0  0  0  0  0  0  0  0  0  0  0  0
  145.1340   75.2430  220.1930 H   0  0  0  0  0  0  0  0  0  0  0  0
  144.5143   72.5968  220.5588 H   0  0  0  0  0  0  0  0  0  0  0  0
  142.5744   70.9870  220.6216 H   0  0  0  0  0  0  0  0  0  0  0  0
  140.2387   71.8168  220.2643 H   0  0  0  0  0  0  0  0  0  0  0  0
  139.8145   74.2673  219.8442 H   0  0  0  0  0  0  0  0  0  0  0  0
  1  2  2  0
  2  3  2  0
  2  4  1  0
  4  5  1  0
  5  6  2  0
  6  7  1  0
  7  8  2  0
  8  9  1  0
  9 10  2  0
  2 11  1  0
 11 12  1  0
 12 13  1  0
 13 14  2  0
 14 15  1  0
 15 16  2  0
 16 17  1  0
 17 18  2  0
 18 19  1  0
 19 20  1  0
 20 21  2  0
 21 22  1  0
 22 23  1  0
 23 24  2  0
 24 25  1  0
 25 26  2  0
 26 27  1  0
 27 28  2  0
 10  5  1  0
 19 11  1  0
 28 20  1  0
 18 13  1  0
 28 23  1  0
  4 29  1  0
  4 30  1  0
  6 31  1  0
  7 32  1  0
  8 33  1  0
  9 34  1  0
 10 35  1  0
 12 36  1  0
 12 37  1  0
 14 38  1  0
 15 39  1  0
 16 40  1  0
 17 41  1  0
 19 42  1  6
 21 43  1  0
 22 44  1  0
 24 45  1  0
 25 46  1  0
 26 47  1  0
 27 48  1  0
M  END
>  <UniqueID>  (47) 
239

>  <SMILES>  (47) 
O=S(=O)(Cc1ccccc1)N1Cc2ccccc2[C@H]1c1c[nH]c2ccccc12

>  <Energy>  (47) 
97.41607876318156

>  <Genealogy>  (47) 
O=S(=O)(Cc1ccccc1)N1Cc2ccccc2[C@H]1c1c[nH]c2ccccc12 (3D coordinates assigned)
O=S(=O)(Cc1ccccc1)N1Cc2ccccc2[C@H]1c1c[nH]c2ccccc12 (nonaromatic ring conformer: 97.41607876318156 kcal/mol)

>  <smiles>  (47) 
O=S(=O)(Cc1ccccc1)N1Cc2ccccc2[C@H]1c1c[nH]c2ccccc12

>  <score_type>  (47) 
oracle

>  <origin>  (47) 
autodockgpu

>  <m_score__min__energy>  (47) 
-8.4100000000000001

>  <m_primary>  (47) 
energy

>  <meeko>  (47) 
{"free_energy": -6.72, "intermolecular_energy": -7.91, "internal_energy": -2.47, "cluster_size": 12, "cluster_id": 4, "rank_in_cluster": 2}

>  <energy>  (47) 
-7.46

>  <cluster_rmsd>  (47) 
0.41

>  <rmsd>  (47) 
268.72

>  <cluster>  (47) 
2

$$$$
WCZRIPJXOMUAPT-QHCPKHFHNA-N
     RDKit          3D

 48 52  0  0  0  0  0  0  0  0999 V2000
  138.8050   77.0790  222.8130 O   0  0  0  0  0  0  0  0  0  0  0  0
  139.9570   76.5120  222.0320 S   0  0  0  0  0  0  0  0  0  0  0  0
  139.9540   75.0270  222.2570 O   0  0  0  0  0  0  0  0  0  0  0  0
  141.4480   77.2400  222.7380 C   0  0  0  0  0  0  0  0  0  0  0  0
  141.4220   78.7440  222.8040 C   0  0  0  0  0  0  0  0  0  0  0  0
  142.5610   79.4910  222.4570 C   0  0  0  0  0  0  0  0  0  0  0  0
  142.5620   80.8830  222.5950 C   0  0  0  0  0  0  0  0  0  0  0  0
  141.4340   81.5370  223.0990 C   0  0  0  0  0  0  0  0  0  0  0  0
  140.3060   80.8010  223.4700 C   0  0  0  0  0  0  0  0  0  0  0  0
  140.3000   79.4100  223.3290 C   0  0  0  0  0  0  0  0  0  0  0  0
  139.6660   76.9020  220.3350 N   0  0  0  0  0  0  0  0  0  0  0  0
  138.9810   78.2110  220.2490 C   0  0  0  0  0  0  0  0  0  0  0  0
  140.0390   79.1770  219.8660 C   0  0  0  0  0  0  0  0  0  0  0  0
  139.9570   80.5700  219.8160 C   0  0  0  0  0  0  0  0  0  0  0  0
  141.0460   81.2860  219.2970 C   0  0  0  0  0  0  0  0  0  0  0  0
  142.1700   80.6000  218.7990 C   0  0  0  0  0  0  0  0  0  0  0  0
  142.2140   79.1970  218.8340 C   0  0  0  0  0  0  0  0  0  0  0  0
  141.1480   78.5090  219.4250 C   0  0  0  0  0  0  0  0  0  0  0  0
  140.8690   77.0500  219.4640 C   0  0  1  0  0  0  0  0  0  0  0  0
  142.0330   76.1330  219.7770 C   0  0  0  0  0  0  0  0  0  0  0  0
  143.3920   76.4370  219.8450 C   0  0  0  0  0  0  0  0  0  0  0  0
  144.1180   75.3240  220.1000 N   0  0  0  0  0  0  0  0  0  0  0  0
  143.2360   74.3140  220.1760 C   0  0  0  0  0  0  0  0  0  0  0  0
  143.5110   72.9690  220.4150 C   0  0  0  0  0  0  0  0  0  0  0  0
  142.4260   72.0730  220.4470 C   0  0  0  0  0  0  0  0  0  0  0  0
  141.1090   72.5370  220.2400 C   0  0  0  0  0  0  0  0  0  0  0  0
  140.8620   73.9020  219.9990 C   0  0  0  0  0  0  0  0  0  0  0  0
  141.9580   74.7660  219.9740 C   0  0  0  0  0  0  0  0  0  0  0  0
  141.5729   76.8509  223.7593 H   0  0  0  0  0  0  0  0  0  0  0  0
  142.2817   76.9645  222.0753 H   0  0  0  0  0  0  0  0  0  0  0  0
  143.4561   78.9783  222.0750 H   0  0  0  0  0  0  0  0  0  0  0  0
  143.4509   81.4633  222.3068 H   0  0  0  0  0  0  0  0  0  0  0  0
  141.4346   82.6320  223.2036 H   0  0  0  0  0  0  0  0  0  0  0  0
  139.4218   81.3163  223.8734 H   0  0  0  0  0  0  0  0  0  0  0  0
  139.4130   78.8334  223.6303 H   0  0  0  0  0  0  0  0  0  0  0  0
  138.1892   78.1830  219.4859 H   0  0  0  0  0  0  0  0  0  0  0  0
  138.4965   78.4854  221.1976 H   0  0  0  0  0  0  0  0  0  0  0  0
  139.0590   81.0940  220.1753 H   0  0  0  0  0  0  0  0  0  0  0  0
  141.0216   82.3856  219.2791 H   0  0  0  0  0  0  0  0  0  0  0  0
  143.0164   81.1649  218.3812 H   0  0  0  0  0  0  0  0  0  0  0  0
  143.0675   78.6506  218.4063 H   0  0  0  0  0  0  0  0  0  0  0  0
  140.6689   76.6810  218.4472 H   0  0  0  0  0  0  0  0  0  0  0  0
  143.8157   77.4431  219.7099 H   0  0  0  0  0  0  0  0  0  0  0  0
  145.1560   75.2660  220.2020 H   0  0  0  0  0  0  0  0  0  0  0  0
  144.5418   72.6191  220.5734 H   0  0  0  0  0  0  0  0  0  0  0  0
  142.6055   71.0041  220.6346 H   0  0  0  0  0  0  0  0  0  0  0  0
  140.2694   71.8268  220.2672 H   0  0  0  0  0  0  0  0  0  0  0  0
  139.8401   74.2749  219.8359 H   0  0  0  0  0  0  0  0  0  0  0  0
  1  2  2  0
  2  3  2  0
  2  4  1  0
  4  5  1  0
  5  6  2  0
  6  7  1  0
  7  8  2  0
  8  9  1  0
  9 10  2  0
  2 11  1  0
 11 12  1  0
 12 13  1  0
 13 14  2  0
 14 15  1  0
 15 16  2  0
 16 17  1  0
 17 18  2  0
 18 19  1  0
 19 20  1  0
 20 21  2  0
 21 22  1  0
 22 23  1  0
 23 24  2  0
 24 25  1  0
 25 26  2  0
 26 27  1  0
 27 28  2  0
 10  5  1  0
 19 11  1  0
 28 20  1  0
 18 13  1  0
 28 23  1  0
  4 29  1  0
  4 30  1  0
  6 31  1  0
  7 32  1  0
  8 33  1  0
  9 34  1  0
 10 35  1  0
 12 36  1  0
 12 37  1  0
 14 38  1  0
 15 39  1  0
 16 40  1  0
 17 41  1  0
 19 42  1  6
 21 43  1  0
 22 44  1  0
 24 45  1  0
 25 46  1  0
 26 47  1  0
 27 48  1  0
M  END
>  <UniqueID>  (48) 
239

>  <SMILES>  (48) 
O=S(=O)(Cc1ccccc1)N1Cc2ccccc2[C@H]1c1c[nH]c2ccccc12

>  <Energy>  (48) 
97.41607876318156

>  <Genealogy>  (48) 
O=S(=O)(Cc1ccccc1)N1Cc2ccccc2[C@H]1c1c[nH]c2ccccc12 (3D coordinates assigned)
O=S(=O)(Cc1ccccc1)N1Cc2ccccc2[C@H]1c1c[nH]c2ccccc12 (nonaromatic ring conformer: 97.41607876318156 kcal/mol)

>  <smiles>  (48) 
O=S(=O)(Cc1ccccc1)N1Cc2ccccc2[C@H]1c1c[nH]c2ccccc12

>  <score_type>  (48) 
oracle

>  <origin>  (48) 
autodockgpu

>  <m_score__min__energy>  (48) 
-8.4100000000000001

>  <m_primary>  (48) 
energy

>  <meeko>  (48) 
{"free_energy": -6.72, "intermolecular_energy": -7.91, "internal_energy": -2.48, "cluster_size": 12, "cluster_id": 4, "rank_in_cluster": 6}

>  <energy>  (48) 
-6.84

>  <cluster_rmsd>  (48) 
0.0

>  <rmsd>  (48) 
269.6

>  <cluster>  (48) 
3

$$$$
WCZRIPJXOMUAPT-QHCPKHFHNA-N
     RDKit          3D

 48 52  0  0  0  0  0  0  0  0999 V2000
  138.7980   77.0800  222.8360 O   0  0  0  0  0  0  0  0  0  0  0  0
  139.9450   76.5160  222.0470 S   0  0  0  0  0  0  0  0  0  0  0  0
  139.9420   75.0300  222.2650 O   0  0  0  0  0  0  0  0  0  0  0  0
  141.4400   77.2390  222.7500 C   0  0  0  0  0  0  0  0  0  0  0  0
  141.4210   78.7430  222.8110 C   0  0  0  0  0  0  0  0  0  0  0  0
  142.5670   79.4830  222.4710 C   0  0  0  0  0  0  0  0  0  0  0  0
  142.5730   80.8760  222.6040 C   0  0  0  0  0  0  0  0  0  0  0  0
  141.4450   81.5380  223.0960 C   0  0  0  0  0  0  0  0  0  0  0  0
  140.3100   80.8090  223.4600 C   0  0  0  0  0  0  0  0  0  0  0  0
  140.2980   79.4170  223.3240 C   0  0  0  0  0  0  0  0  0  0  0  0
  139.6470   76.9150  220.3530 N   0  0  0  0  0  0  0  0  0  0  0  0
  138.9680   78.2280  220.2770 C   0  0  0  0  0  0  0  0  0  0  0  0
  140.0290   79.1890  219.8910 C   0  0  0  0  0  0  0  0  0  0  0  0
  139.9540   80.5830  219.8480 C   0  0  0  0  0  0  0  0  0  0  0  0
  141.0440   81.2960  219.3260 C   0  0  0  0  0  0  0  0  0  0  0  0
  142.1620   80.6060  218.8190 C   0  0  0  0  0  0  0  0  0  0  0  0
  142.1990   79.2020  218.8470 C   0  0  0  0  0  0  0  0  0  0  0  0
  141.1320   78.5170  219.4420 C   0  0  0  0  0  0  0  0  0  0  0  0
  140.8460   77.0600  219.4760 C   0  0  1  0  0  0  0  0  0  0  0  0
  142.0070   76.1350  219.7790 C   0  0  0  0  0  0  0  0  0  0  0  0
  143.3680   76.4330  219.8450 C   0  0  0  0  0  0  0  0  0  0  0  0
  144.0890   75.3150  220.0900 N   0  0  0  0  0  0  0  0  0  0  0  0
  143.2030   74.3090  220.1600 C   0  0  0  0  0  0  0  0  0  0  0  0
  143.4720   72.9600  220.3890 C   0  0  0  0  0  0  0  0  0  0  0  0
  142.3840   72.0690  220.4180 C   0  0  0  0  0  0  0  0  0  0  0  0
  141.0680   72.5400  220.2180 C   0  0  0  0  0  0  0  0  0  0  0  0
  140.8270   73.9080  219.9880 C   0  0  0  0  0  0  0  0  0  0  0  0
  141.9260   74.7670  219.9660 C   0  0  0  0  0  0  0  0  0  0  0  0
  141.5636   76.8526  223.7725 H   0  0  0  0  0  0  0  0  0  0  0  0
  142.2721   76.9573  222.0880 H   0  0  0  0  0  0  0  0  0  0  0  0
  143.4630   78.9647  222.0987 H   0  0  0  0  0  0  0  0  0  0  0  0
  143.4671   81.4508  222.3208 H   0  0  0  0  0  0  0  0  0  0  0  0
  141.4506   82.6334  223.1967 H   0  0  0  0  0  0  0  0  0  0  0  0
  139.4251   81.3303  223.8539 H   0  0  0  0  0  0  0  0  0  0  0  0
  139.4055   78.8462  223.6198 H   0  0  0  0  0  0  0  0  0  0  0  0
  138.1711   78.2075  219.5191 H   0  0  0  0  0  0  0  0  0  0  0  0
  138.4908   78.5013  221.2297 H   0  0  0  0  0  0  0  0  0  0  0  0
  139.0608   81.1099  220.2150 H   0  0  0  0  0  0  0  0  0  0  0  0
  141.0252   82.3958  219.3128 H   0  0  0  0  0  0  0  0  0  0  0  0
  143.0093   81.1684  218.3996 H   0  0  0  0  0  0  0  0  0  0  0  0
  143.0469   78.6530  218.4115 H   0  0  0  0  0  0  0  0  0  0  0  0
  140.6390   76.6964  218.4587 H   0  0  0  0  0  0  0  0  0  0  0  0
  143.7958   77.4381  219.7157 H   0  0  0  0  0  0  0  0  0  0  0  0
  145.1270   75.2510  220.1880 H   0  0  0  0  0  0  0  0  0  0  0  0
  144.5016   72.6042  220.5420 H   0  0  0  0  0  0  0  0  0  0  0  0
  142.5596   70.9981  220.5977 H   0  0  0  0  0  0  0  0  0  0  0  0
  140.2253   71.8334  220.2420 H   0  0  0  0  0  0  0  0  0  0  0  0
  139.8063   74.2868  219.8309 H   0  0  0  0  0  0  0  0  0  0  0  0
  1  2  2  0
  2  3  2  0
  2  4  1  0
  4  5  1  0
  5  6  2  0
  6  7  1  0
  7  8  2  0
  8  9  1  0
  9 10  2  0
  2 11  1  0
 11 12  1  0
 12 13  1  0
 13 14  2  0
 14 15  1  0
 15 16  2  0
 16 17  1  0
 17 18  2  0
 18 19  1  0
 19 20  1  0
 20 21  2  0
 21 22  1  0
 22 23  1  0
 23 24  2  0
 24 25  1  0
 25 26  2  0
 26 27  1  0
 27 28  2  0
 10  5  1  0
 19 11  1  0
 28 20  1  0
 18 13  1  0
 28 23  1  0
  4 29  1  0
  4 30  1  0
  6 31  1  0
  7 32  1  0
  8 33  1  0
  9 34  1  0
 10 35  1  0
 12 36  1  0
 12 37  1  0
 14 38  1  0
 15 39  1  0
 16 40  1  0
 17 41  1  0
 19 42  1  6
 21 43  1  0
 22 44  1  0
 24 45  1  0
 25 46  1  0
 26 47  1  0
 27 48  1  0
M  END
>  <UniqueID>  (49) 
239

>  <SMILES>  (49) 
O=S(=O)(Cc1ccccc1)N1Cc2ccccc2[C@H]1c1c[nH]c2ccccc12

>  <Energy>  (49) 
97.41607876318156

>  <Genealogy>  (49) 
O=S(=O)(Cc1ccccc1)N1Cc2ccccc2[C@H]1c1c[nH]c2ccccc12 (3D coordinates assigned)
O=S(=O)(Cc1ccccc1)N1Cc2ccccc2[C@H]1c1c[nH]c2ccccc12 (nonaromatic ring conformer: 97.41607876318156 kcal/mol)

>  <smiles>  (49) 
O=S(=O)(Cc1ccccc1)N1Cc2ccccc2[C@H]1c1c[nH]c2ccccc12

>  <score_type>  (49) 
oracle

>  <origin>  (49) 
autodockgpu

>  <m_score__min__energy>  (49) 
-8.4100000000000001

>  <m_primary>  (49) 
energy

>  <meeko>  (49) 
{"free_energy": -6.71, "intermolecular_energy": -7.91, "internal_energy": -2.48, "cluster_size": 12, "cluster_id": 4, "rank_in_cluster": 11}

>  <energy>  (49) 
-6.72

>  <cluster_rmsd>  (49) 
0.0

>  <rmsd>  (49) 
269.45

>  <cluster>  (49) 
4

$$$$
WCZRIPJXOMUAPT-QHCPKHFHNA-N
     RDKit          3D

 48 52  0  0  0  0  0  0  0  0999 V2000
  141.1940   74.7510  221.8410 O   0  0  0  0  0  0  0  0  0  0  0  0
  141.1320   75.5320  220.5580 S   0  0  0  0  0  0  0  0  0  0  0  0
  140.4640   74.6540  219.5400 O   0  0  0  0  0  0  0  0  0  0  0  0
  142.8420   75.8440  220.0780 C   0  0  0  0  0  0  0  0  0  0  0  0
  143.7170   74.6180  220.0990 C   0  0  0  0  0  0  0  0  0  0  0  0
  143.1750   73.3530  219.8180 C   0  0  0  0  0  0  0  0  0  0  0  0
  143.9700   72.2060  219.9150 C   0  0  0  0  0  0  0  0  0  0  0  0
  145.3050   72.3120  220.3130 C   0  0  0  0  0  0  0  0  0  0  0  0
  145.8470   73.5630  220.6190 C   0  0  0  0  0  0  0  0  0  0  0  0
  145.0560   74.7120  220.5180 C   0  0  0  0  0  0  0  0  0  0  0  0
  140.1730   76.9780  220.8850 N   0  0  0  0  0  0  0  0  0  0  0  0
  140.1140   77.2000  222.3470 C   0  0  0  0  0  0  0  0  0  0  0  0
  141.0880   78.2860  222.6120 C   0  0  0  0  0  0  0  0  0  0  0  0
  141.5380   78.7560  223.8470 C   0  0  0  0  0  0  0  0  0  0  0  0
  142.3700   79.8860  223.8700 C   0  0  0  0  0  0  0  0  0  0  0  0
  142.6970   80.5470  222.6710 C   0  0  0  0  0  0  0  0  0  0  0  0
  142.2060   80.0700  221.4440 C   0  0  0  0  0  0  0  0  0  0  0  0
  141.4410   78.8970  221.4410 C   0  0  0  0  0  0  0  0  0  0  0  0
  140.6860   78.2640  220.3290 C   0  0  1  0  0  0  0  0  0  0  0  0
  141.3790   78.1780  218.9850 C   0  0  0  0  0  0  0  0  0  0  0  0
  142.5720   78.7750  218.5760 C   0  0  0  0  0  0  0  0  0  0  0  0
  142.8240   78.4960  217.2770 N   0  0  0  0  0  0  0  0  0  0  0  0
  141.7950   77.7450  216.8520 C   0  0  0  0  0  0  0  0  0  0  0  0
  141.6040   77.2190  215.5750 C   0  0  0  0  0  0  0  0  0  0  0  0
  140.4430   76.4580  215.3450 C   0  0  0  0  0  0  0  0  0  0  0  0
  139.5110   76.2440  216.3840 C   0  0  0  0  0  0  0  0  0  0  0  0
  139.7300   76.7890  217.6630 C   0  0  0  0  0  0  0  0  0  0  0  0
  140.8910   77.5380  217.8600 C   0  0  0  0  0  0  0  0  0  0  0  0
  142.8456   76.2542  219.0574 H   0  0  0  0  0  0  0  0  0  0  0  0
  143.2576   76.5447  220.8172 H   0  0  0  0  0  0  0  0  0  0  0  0
  142.1199   73.2638  219.5201 H   0  0  0  0  0  0  0  0  0  0  0  0
  143.5438   71.2201  219.6778 H   0  0  0  0  0  0  0  0  0  0  0  0
  145.9300   71.4097  220.3856 H   0  0  0  0  0  0  0  0  0  0  0  0
  146.8962   73.6442  220.9394 H   0  0  0  0  0  0  0  0  0  0  0  0
  145.4835   75.6943  220.7676 H   0  0  0  0  0  0  0  0  0  0  0  0
  139.1020   77.5062  222.6506 H   0  0  0  0  0  0  0  0  0  0  0  0
  140.3508   76.2867  222.9126 H   0  0  0  0  0  0  0  0  0  0  0  0
  141.2472   78.2523  224.7807 H   0  0  0  0  0  0  0  0  0  0  0  0
  142.7673   80.2558  224.8267 H   0  0  0  0  0  0  0  0  0  0  0  0
  143.3390   81.4399  222.6947 H   0  0  0  0  0  0  0  0  0  0  0  0
  142.4177   80.6058  220.5069 H   0  0  0  0  0  0  0  0  0  0  0  0
  139.8589   78.9192  220.0181 H   0  0  0  0  0  0  0  0  0  0  0  0
  143.2184   79.3881  219.2212 H   0  0  0  0  0  0  0  0  0  0  0  0
  143.6460   78.8150  216.7190 H   0  0  0  0  0  0  0  0  0  0  0  0
  142.3370   77.3932  214.7735 H   0  0  0  0  0  0  0  0  0  0  0  0
  140.2603   76.0271  214.3496 H   0  0  0  0  0  0  0  0  0  0  0  0
  138.6072   75.6470  216.1924 H   0  0  0  0  0  0  0  0  0  0  0  0
  139.0105   76.6300  218.4797 H   0  0  0  0  0  0  0  0  0  0  0  0
  1  2  2  0
  2  3  2  0
  2  4  1  0
  4  5  1  0
  5  6  2  0
  6  7  1  0
  7  8  2  0
  8  9  1  0
  9 10  2  0
  2 11  1  0
 11 12  1  0
 12 13  1  0
 13 14  2  0
 14 15  1  0
 15 16  2  0
 16 17  1  0
 17 18  2  0
 18 19  1  0
 19 20  1  0
 20 21  2  0
 21 22  1  0
 22 23  1  0
 23 24  2  0
 24 25  1  0
 25 26  2  0
 26 27  1  0
 27 28  2  0
 10  5  1  0
 19 11  1  0
 28 20  1  0
 18 13  1  0
 28 23  1  0
  4 29  1  0
  4 30  1  0
  6 31  1  0
  7 32  1  0
  8 33  1  0
  9 34  1  0
 10 35  1  0
 12 36  1  0
 12 37  1  0
 14 38  1  0
 15 39  1  0
 16 40  1  0
 17 41  1  0
 19 42  1  6
 21 43  1  0
 22 44  1  0
 24 45  1  0
 25 46  1  0
 26 47  1  0
 27 48  1  0
M  END
>  <UniqueID>  (50) 
239

>  <SMILES>  (50) 
O=S(=O)(Cc1ccccc1)N1Cc2ccccc2[C@H]1c1c[nH]c2ccccc12

>  <Energy>  (50) 
97.41607876318156

>  <Genealogy>  (50) 
O=S(=O)(Cc1ccccc1)N1Cc2ccccc2[C@H]1c1c[nH]c2ccccc12 (3D coordinates assigned)
O=S(=O)(Cc1ccccc1)N1Cc2ccccc2[C@H]1c1c[nH]c2ccccc12 (nonaromatic ring conformer: 97.41607876318156 kcal/mol)

>  <smiles>  (50) 
O=S(=O)(Cc1ccccc1)N1Cc2ccccc2[C@H]1c1c[nH]c2ccccc12

>  <score_type>  (50) 
oracle

>  <origin>  (50) 
autodockgpu

>  <m_score__min__energy>  (50) 
-8.4100000000000001

>  <m_primary>  (50) 
energy

>  <meeko>  (50) 
{"free_energy": -7.52, "intermolecular_energy": -8.71, "internal_energy": -1.68, "cluster_size": 5, "cluster_id": 2, "rank_in_cluster": 2}

>  <energy>  (50) 
-6.72

>  <cluster_rmsd>  (50) 
0.03

>  <rmsd>  (50) 
269.43

>  <cluster>  (50) 
4

$$$$
WCZRIPJXOMUAPT-QHCPKHFHNA-N
     RDKit          3D

 48 52  0  0  0  0  0  0  0  0999 V2000
  135.3580   68.8130  224.2300 O   0  0  0  0  0  0  0  0  0  0  0  0
  136.5070   69.7770  224.3230 S   0  0  0  0  0  0  0  0  0  0  0  0
  137.1520   69.5670  225.6620 O   0  0  0  0  0  0  0  0  0  0  0  0
  135.7840   71.4270  224.2380 C   0  0  0  0  0  0  0  0  0  0  0  0
  134.7010   71.6740  225.2540 C   0  0  0  0  0  0  0  0  0  0  0  0
  134.1030   72.9410  225.3620 C   0  0  0  0  0  0  0  0  0  0  0  0
  133.1540   73.1920  226.3590 C   0  0  0  0  0  0  0  0  0  0  0  0
  132.8100   72.1860  227.2670 C   0  0  0  0  0  0  0  0  0  0  0  0
  133.4180   70.9310  227.1830 C   0  0  0  0  0  0  0  0  0  0  0  0
  134.3630   70.6760  226.1850 C   0  0  0  0  0  0  0  0  0  0  0  0
  137.6170   69.3800  223.0080 N   0  0  0  0  0  0  0  0  0  0  0  0
  137.4250   70.3450  221.9030 C   0  0  0  0  0  0  0  0  0  0  0  0
  138.5550   71.2970  222.0220 C   0  0  0  0  0  0  0  0  0  0  0  0
  138.7500   72.4930  221.3290 C   0  0  0  0  0  0  0  0  0  0  0  0
  139.9630   73.1780  221.5030 C   0  0  0  0  0  0  0  0  0  0  0  0
  140.9690   72.6350  222.3260 C   0  0  0  0  0  0  0  0  0  0  0  0
  140.7570   71.4150  222.9880 C   0  0  0  0  0  0  0  0  0  0  0  0
  139.5110   70.7900  222.8580 C   0  0  0  0  0  0  0  0  0  0  0  0
  139.0750   69.4460  223.3170 C   0  0  1  0  0  0  0  0  0  0  0  0
  139.4780   69.0310  224.7170 C   0  0  0  0  0  0  0  0  0  0  0  0
  139.4650   67.7590  225.2900 C   0  0  0  0  0  0  0  0  0  0  0  0
  139.8490   67.8160  226.5850 N   0  0  0  0  0  0  0  0  0  0  0  0
  140.0870   69.1120  226.8470 C   0  0  0  0  0  0  0  0  0  0  0  0
  140.5010   69.6680  228.0560 C   0  0  0  0  0  0  0  0  0  0  0  0
  140.6860   71.0620  228.1080 C   0  0  0  0  0  0  0  0  0  0  0  0
  140.4550   71.8580  226.9650 C   0  0  0  0  0  0  0  0  0  0  0  0
  140.0370   71.2680  225.7580 C   0  0  0  0  0  0  0  0  0  0  0  0
  139.8630   69.8830  225.7360 C   0  0  0  0  0  0  0  0  0  0  0  0
  136.5844   72.1641  224.3995 H   0  0  0  0  0  0  0  0  0  0  0  0
  135.3170   71.5192  223.2463 H   0  0  0  0  0  0  0  0  0  0  0  0
  134.3824   73.7396  224.6591 H   0  0  0  0  0  0  0  0  0  0  0  0
  132.6783   74.1814  226.4285 H   0  0  0  0  0  0  0  0  0  0  0  0
  132.0605   72.3827  228.0477 H   0  0  0  0  0  0  0  0  0  0  0  0
  133.1528   70.1427  227.9029 H   0  0  0  0  0  0  0  0  0  0  0  0
  134.8450   69.6889  226.1277 H   0  0  0  0  0  0  0  0  0  0  0  0
  137.4541   69.8304  220.9312 H   0  0  0  0  0  0  0  0  0  0  0  0
  136.4506   70.8519  221.9627 H   0  0  0  0  0  0  0  0  0  0  0  0
  137.9708   72.8898  220.6616 H   0  0  0  0  0  0  0  0  0  0  0  0
  140.1281   74.1401  220.9960 H   0  0  0  0  0  0  0  0  0  0  0  0
  141.9231   73.1681  222.4504 H   0  0  0  0  0  0  0  0  0  0  0  0
  141.5530   70.9600  223.5958 H   0  0  0  0  0  0  0  0  0  0  0  0
  139.6303   68.6666  222.7746 H   0  0  0  0  0  0  0  0  0  0  0  0
  139.1815   66.8371  224.7611 H   0  0  0  0  0  0  0  0  0  0  0  0
  139.9290   67.0130  227.2480 H   0  0  0  0  0  0  0  0  0  0  0  0
  140.6773   69.0380  228.9403 H   0  0  0  0  0  0  0  0  0  0  0  0
  141.0129   71.5349  229.0458 H   0  0  0  0  0  0  0  0  0  0  0  0
  140.6028   72.9467  227.0185 H   0  0  0  0  0  0  0  0  0  0  0  0
  139.8534   71.8779  224.8612 H   0  0  0  0  0  0  0  0  0  0  0  0
  1  2  2  0
  2  3  2  0
  2  4  1  0
  4  5  1  0
  5  6  2  0
  6  7  1  0
  7  8  2  0
  8  9  1  0
  9 10  2  0
  2 11  1  0
 11 12  1  0
 12 13  1  0
 13 14  2  0
 14 15  1  0
 15 16  2  0
 16 17  1  0
 17 18  2  0
 18 19  1  0
 19 20  1  0
 20 21  2  0
 21 22  1  0
 22 23  1  0
 23 24  2  0
 24 25  1  0
 25 26  2  0
 26 27  1  0
 27 28  2  0
 10  5  1  0
 19 11  1  0
 28 20  1  0
 18 13  1  0
 28 23  1  0
  4 29  1  0
  4 30  1  0
  6 31  1  0
  7 32  1  0
  8 33  1  0
  9 34  1  0
 10 35  1  0
 12 36  1  0
 12 37  1  0
 14 38  1  0
 15 39  1  0
 16 40  1  0
 17 41  1  0
 19 42  1  6
 21 43  1  0
 22 44  1  0
 24 45  1  0
 25 46  1  0
 26 47  1  0
 27 48  1  0
M  END
>  <UniqueID>  (51) 
239

>  <SMILES>  (51) 
O=S(=O)(Cc1ccccc1)N1Cc2ccccc2[C@H]1c1c[nH]c2ccccc12

>  <Energy>  (51) 
97.41607876318156

>  <Genealogy>  (51) 
O=S(=O)(Cc1ccccc1)N1Cc2ccccc2[C@H]1c1c[nH]c2ccccc12 (3D coordinates assigned)
O=S(=O)(Cc1ccccc1)N1Cc2ccccc2[C@H]1c1c[nH]c2ccccc12 (nonaromatic ring conformer: 97.41607876318156 kcal/mol)

>  <smiles>  (51) 
O=S(=O)(Cc1ccccc1)N1Cc2ccccc2[C@H]1c1c[nH]c2ccccc12

>  <score_type>  (51) 
oracle

>  <origin>  (51) 
autodockgpu

>  <m_score__min__energy>  (51) 
-8.4100000000000001

>  <m_primary>  (51) 
energy

>  <meeko>  (51) 
{"free_energy": -8.41, "intermolecular_energy": -9.61, "internal_energy": -1.04, "cluster_size": 2, "cluster_id": 1, "rank_in_cluster": 1}

>  <energy>  (51) 
-6.72

>  <cluster_rmsd>  (51) 
0.04

>  <rmsd>  (51) 
269.42

>  <cluster>  (51) 
4

$$$$
WCZRIPJXOMUAPT-QHCPKHFHNA-N
     RDKit          3D

 48 52  0  0  0  0  0  0  0  0999 V2000
  138.7960   77.0820  222.8060 O   0  0  0  0  0  0  0  0  0  0  0  0
  139.9460   76.5100  222.0250 S   0  0  0  0  0  0  0  0  0  0  0  0
  139.9370   75.0260  222.2510 O   0  0  0  0  0  0  0  0  0  0  0  0
  141.4400   77.2320  222.7310 C   0  0  0  0  0  0  0  0  0  0  0  0
  141.4190   78.7360  222.8010 C   0  0  0  0  0  0  0  0  0  0  0  0
  142.5590   79.4800  222.4530 C   0  0  0  0  0  0  0  0  0  0  0  0
  142.5640   80.8720  222.5940 C   0  0  0  0  0  0  0  0  0  0  0  0
  141.4400   81.5290  223.1010 C   0  0  0  0  0  0  0  0  0  0  0  0
  140.3100   80.7950  223.4730 C   0  0  0  0  0  0  0  0  0  0  0  0
  140.3000   79.4040  223.3290 C   0  0  0  0  0  0  0  0  0  0  0  0
  139.6580   76.9020  220.3280 N   0  0  0  0  0  0  0  0  0  0  0  0
  138.9780   78.2140  220.2420 C   0  0  0  0  0  0  0  0  0  0  0  0
  140.0410   79.1740  219.8580 C   0  0  0  0  0  0  0  0  0  0  0  0
  139.9650   80.5670  219.8090 C   0  0  0  0  0  0  0  0  0  0  0  0
  141.0580   81.2790  219.2900 C   0  0  0  0  0  0  0  0  0  0  0  0
  142.1790   80.5880  218.7920 C   0  0  0  0  0  0  0  0  0  0  0  0
  142.2160   79.1840  218.8270 C   0  0  0  0  0  0  0  0  0  0  0  0
  141.1470   78.5010  219.4190 C   0  0  0  0  0  0  0  0  0  0  0  0
  140.8620   77.0440  219.4570 C   0  0  1  0  0  0  0  0  0  0  0  0
  142.0210   76.1210  219.7710 C   0  0  0  0  0  0  0  0  0  0  0  0
  143.3820   76.4190  219.8400 C   0  0  0  0  0  0  0  0  0  0  0  0
  144.1020   75.3040  220.0950 N   0  0  0  0  0  0  0  0  0  0  0  0
  143.2160   74.2980  220.1700 C   0  0  0  0  0  0  0  0  0  0  0  0
  143.4850   72.9510  220.4090 C   0  0  0  0  0  0  0  0  0  0  0  0
  142.3960   72.0600  220.4400 C   0  0  0  0  0  0  0  0  0  0  0  0
  141.0810   72.5300  220.2320 C   0  0  0  0  0  0  0  0  0  0  0  0
  140.8410   73.8950  219.9920 C   0  0  0  0  0  0  0  0  0  0  0  0
  141.9400   74.7550  219.9680 C   0  0  0  0  0  0  0  0  0  0  0  0
  141.5650   76.8399  223.7511 H   0  0  0  0  0  0  0  0  0  0  0  0
  142.2718   76.9558  222.0664 H   0  0  0  0  0  0  0  0  0  0  0  0
  143.4518   78.9656  222.0679 H   0  0  0  0  0  0  0  0  0  0  0  0
  143.4542   81.4500  222.3052 H   0  0  0  0  0  0  0  0  0  0  0  0
  141.4443   82.6238  223.2074 H   0  0  0  0  0  0  0  0  0  0  0  0
  139.4281   81.3119  223.8793 H   0  0  0  0  0  0  0  0  0  0  0  0
  139.4118   78.8293  223.6304 H   0  0  0  0  0  0  0  0  0  0  0  0
  138.1857   78.1893  219.4794 H   0  0  0  0  0  0  0  0  0  0  0  0
  138.4944   78.4912  221.1903 H   0  0  0  0  0  0  0  0  0  0  0  0
  139.0694   81.0947  220.1688 H   0  0  0  0  0  0  0  0  0  0  0  0
  141.0385   82.3787  219.2724 H   0  0  0  0  0  0  0  0  0  0  0  0
  143.0281   81.1489  218.3744 H   0  0  0  0  0  0  0  0  0  0  0  0
  143.0664   78.6334  218.3985 H   0  0  0  0  0  0  0  0  0  0  0  0
  140.6618   76.6764  218.4398 H   0  0  0  0  0  0  0  0  0  0  0  0
  143.8103   77.4232  219.7054 H   0  0  0  0  0  0  0  0  0  0  0  0
  145.1400   75.2410  220.1980 H   0  0  0  0  0  0  0  0  0  0  0  0
  144.5141   72.5965  220.5680 H   0  0  0  0  0  0  0  0  0  0  0  0
  142.5705   70.9903  220.6276 H   0  0  0  0  0  0  0  0  0  0  0  0
  140.2381   71.8236  220.2578 H   0  0  0  0  0  0  0  0  0  0  0  0
  139.8207   74.2723  219.8286 H   0  0  0  0  0  0  0  0  0  0  0  0
  1  2  2  0
  2  3  2  0
  2  4  1  0
  4  5  1  0
  5  6  2  0
  6  7  1  0
  7  8  2  0
  8  9  1  0
  9 10  2  0
  2 11  1  0
 11 12  1  0
 12 13  1  0
 13 14  2  0
 14 15  1  0
 15 16  2  0
 16 17  1  0
 17 18  2  0
 18 19  1  0
 19 20  1  0
 20 21  2  0
 21 22  1  0
 22 23  1  0
 23 24  2  0
 24 25  1  0
 25 26  2  0
 26 27  1  0
 27 28  2  0
 10  5  1  0
 19 11  1  0
 28 20  1  0
 18 13  1  0
 28 23  1  0
  4 29  1  0
  4 30  1  0
  6 31  1  0
  7 32  1  0
  8 33  1  0
  9 34  1  0
 10 35  1  0
 12 36  1  0
 12 37  1  0
 14 38  1  0
 15 39  1  0
 16 40  1  0
 17 41  1  0
 19 42  1  6
 21 43  1  0
 22 44  1  0
 24 45  1  0
 25 46  1  0
 26 47  1  0
 27 48  1  0
M  END
>  <UniqueID>  (52) 
239

>  <SMILES>  (52) 
O=S(=O)(Cc1ccccc1)N1Cc2ccccc2[C@H]1c1c[nH]c2ccccc12

>  <Energy>  (52) 
97.41607876318156

>  <Genealogy>  (52) 
O=S(=O)(Cc1ccccc1)N1Cc2ccccc2[C@H]1c1c[nH]c2ccccc12 (3D coordinates assigned)
O=S(=O)(Cc1ccccc1)N1Cc2ccccc2[C@H]1c1c[nH]c2ccccc12 (nonaromatic ring conformer: 97.41607876318156 kcal/mol)

>  <smiles>  (52) 
O=S(=O)(Cc1ccccc1)N1Cc2ccccc2[C@H]1c1c[nH]c2ccccc12

>  <score_type>  (52) 
oracle

>  <origin>  (52) 
autodockgpu

>  <m_score__min__energy>  (52) 
-8.4100000000000001

>  <m_primary>  (52) 
energy

>  <meeko>  (52) 
{"free_energy": -6.72, "intermolecular_energy": -7.91, "internal_energy": -2.47, "cluster_size": 12, "cluster_id": 4, "rank_in_cluster": 7}

>  <energy>  (52) 
-6.72

>  <cluster_rmsd>  (52) 
0.04

>  <rmsd>  (52) 
269.43

>  <cluster>  (52) 
4

$$$$
WCZRIPJXOMUAPT-QHCPKHFHNA-N
     RDKit          3D

 48 52  0  0  0  0  0  0  0  0999 V2000
  141.4310   74.6110  221.8650 O   0  0  0  0  0  0  0  0  0  0  0  0
  141.3340   75.3770  220.5760 S   0  0  0  0  0  0  0  0  0  0  0  0
  140.7120   74.4590  219.5630 O   0  0  0  0  0  0  0  0  0  0  0  0
  143.0280   75.7690  220.0970 C   0  0  0  0  0  0  0  0  0  0  0  0
  143.9370   74.5710  220.0310 C   0  0  0  0  0  0  0  0  0  0  0  0
  143.5690   73.4380  219.2870 C   0  0  0  0  0  0  0  0  0  0  0  0
  144.3770   72.2960  219.2900 C   0  0  0  0  0  0  0  0  0  0  0  0
  145.5480   72.2700  220.0530 C   0  0  0  0  0  0  0  0  0  0  0  0
  145.9100   73.3820  220.8170 C   0  0  0  0  0  0  0  0  0  0  0  0
  145.1070   74.5270  220.8120 C   0  0  0  0  0  0  0  0  0  0  0  0
  140.3040   76.7770  220.8880 N   0  0  0  0  0  0  0  0  0  0  0  0
  140.2280   77.0070  222.3480 C   0  0  0  0  0  0  0  0  0  0  0  0
  141.1480   78.1400  222.6090 C   0  0  0  0  0  0  0  0  0  0  0  0
  141.5690   78.6410  223.8420 C   0  0  0  0  0  0  0  0  0  0  0  0
  142.3450   79.8110  223.8600 C   0  0  0  0  0  0  0  0  0  0  0  0
  142.6440   80.4780  222.6570 C   0  0  0  0  0  0  0  0  0  0  0  0
  142.1810   79.9690  221.4320 C   0  0  0  0  0  0  0  0  0  0  0  0
  141.4750   78.7600  221.4350 C   0  0  0  0  0  0  0  0  0  0  0  0
  140.7560   78.0830  220.3250 C   0  0  1  0  0  0  0  0  0  0  0  0
  141.4580   78.0210  218.9840 C   0  0  0  0  0  0  0  0  0  0  0  0
  142.6100   78.6880  218.5680 C   0  0  0  0  0  0  0  0  0  0  0  0
  142.8840   78.4060  217.2750 N   0  0  0  0  0  0  0  0  0  0  0  0
  141.9080   77.5820  216.8590 C   0  0  0  0  0  0  0  0  0  0  0  0
  141.7560   77.0250  215.5900 C   0  0  0  0  0  0  0  0  0  0  0  0
  140.6470   76.1870  215.3700 C   0  0  0  0  0  0  0  0  0  0  0  0
  139.7280   75.9290  216.4100 C   0  0  0  0  0  0  0  0  0  0  0  0
  139.9070   76.5070  217.6810 C   0  0  0  0  0  0  0  0  0  0  0  0
  141.0160   77.3330  217.8690 C   0  0  0  0  0  0  0  0  0  0  0  0
  143.0063   76.2422  219.1042 H   0  0  0  0  0  0  0  0  0  0  0  0
  143.4331   76.4342  220.8737 H   0  0  0  0  0  0  0  0  0  0  0  0
  142.6398   73.4487  218.6984 H   0  0  0  0  0  0  0  0  0  0  0  0
  144.0908   71.4183  218.6918 H   0  0  0  0  0  0  0  0  0  0  0  0
  146.1849   71.3731  220.0518 H   0  0  0  0  0  0  0  0  0  0  0  0
  146.8276   73.3571  221.4232 H   0  0  0  0  0  0  0  0  0  0  0  0
  145.3912   75.3975  221.4215 H   0  0  0  0  0  0  0  0  0  0  0  0
  139.2013   77.2670  222.6450 H   0  0  0  0  0  0  0  0  0  0  0  0
  140.5055   76.1103  222.9215 H   0  0  0  0  0  0  0  0  0  0  0  0
  141.2989   78.1307  224.7783 H   0  0  0  0  0  0  0  0  0  0  0  0
  142.7198   80.2069  224.8154 H   0  0  0  0  0  0  0  0  0  0  0  0
  143.2422   81.4009  222.6761 H   0  0  0  0  0  0  0  0  0  0  0  0
  142.3690   80.5082  220.4918 H   0  0  0  0  0  0  0  0  0  0  0  0
  139.8992   78.6952  220.0070 H   0  0  0  0  0  0  0  0  0  0  0  0
  143.2127   79.3523  219.2047 H   0  0  0  0  0  0  0  0  0  0  0  0
  143.6860   78.7700  216.7130 H   0  0  0  0  0  0  0  0  0  0  0  0
  142.4788   77.2336  214.7875 H   0  0  0  0  0  0  0  0  0  0  0  0
  140.4953   75.7300  214.3810 H   0  0  0  0  0  0  0  0  0  0  0  0
  138.8656   75.2714  216.2259 H   0  0  0  0  0  0  0  0  0  0  0  0
  139.1967   76.3141  218.4984 H   0  0  0  0  0  0  0  0  0  0  0  0
  1  2  2  0
  2  3  2  0
  2  4  1  0
  4  5  1  0
  5  6  2  0
  6  7  1  0
  7  8  2  0
  8  9  1  0
  9 10  2  0
  2 11  1  0
 11 12  1  0
 12 13  1  0
 13 14  2  0
 14 15  1  0
 15 16  2  0
 16 17  1  0
 17 18  2  0
 18 19  1  0
 19 20  1  0
 20 21  2  0
 21 22  1  0
 22 23  1  0
 23 24  2  0
 24 25  1  0
 25 26  2  0
 26 27  1  0
 27 28  2  0
 10  5  1  0
 19 11  1  0
 28 20  1  0
 18 13  1  0
 28 23  1  0
  4 29  1  0
  4 30  1  0
  6 31  1  0
  7 32  1  0
  8 33  1  0
  9 34  1  0
 10 35  1  0
 12 36  1  0
 12 37  1  0
 14 38  1  0
 15 39  1  0
 16 40  1  0
 17 41  1  0
 19 42  1  6
 21 43  1  0
 22 44  1  0
 24 45  1  0
 25 46  1  0
 26 47  1  0
 27 48  1  0
M  END
>  <UniqueID>  (53) 
239

>  <SMILES>  (53) 
O=S(=O)(Cc1ccccc1)N1Cc2ccccc2[C@H]1c1c[nH]c2ccccc12

>  <Energy>  (53) 
97.41607876318156

>  <Genealogy>  (53) 
O=S(=O)(Cc1ccccc1)N1Cc2ccccc2[C@H]1c1c[nH]c2ccccc12 (3D coordinates assigned)
O=S(=O)(Cc1ccccc1)N1Cc2ccccc2[C@H]1c1c[nH]c2ccccc12 (nonaromatic ring conformer: 97.41607876318156 kcal/mol)

>  <smiles>  (53) 
O=S(=O)(Cc1ccccc1)N1Cc2ccccc2[C@H]1c1c[nH]c2ccccc12

>  <score_type>  (53) 
oracle

>  <origin>  (53) 
autodockgpu

>  <m_score__min__energy>  (53) 
-8.4100000000000001

>  <m_primary>  (53) 
energy

>  <meeko>  (53) 
{"free_energy": -7.51, "intermolecular_energy": -8.7, "internal_energy": -1.71, "cluster_size": 5, "cluster_id": 2, "rank_in_cluster": 3}

>  <energy>  (53) 
-6.72

>  <cluster_rmsd>  (53) 
0.04

>  <rmsd>  (53) 
269.43

>  <cluster>  (53) 
4

$$$$
WCZRIPJXOMUAPT-QHCPKHFHNA-N
     RDKit          3D

 48 52  0  0  0  0  0  0  0  0999 V2000
  135.3640   68.7270  224.2060 O   0  0  0  0  0  0  0  0  0  0  0  0
  136.5200   69.6790  224.3310 S   0  0  0  0  0  0  0  0  0  0  0  0
  137.1520   69.4310  225.6700 O   0  0  0  0  0  0  0  0  0  0  0  0
  135.8110   71.3370  224.2800 C   0  0  0  0  0  0  0  0  0  0  0  0
  134.7290   71.5710  225.3010 C   0  0  0  0  0  0  0  0  0  0  0  0
  134.1290   72.8350  225.4220 C   0  0  0  0  0  0  0  0  0  0  0  0
  133.1800   73.0740  226.4230 C   0  0  0  0  0  0  0  0  0  0  0  0
  132.8400   72.0590  227.3210 C   0  0  0  0  0  0  0  0  0  0  0  0
  133.4500   70.8060  227.2240 C   0  0  0  0  0  0  0  0  0  0  0  0
  134.3950   70.5620  226.2220 C   0  0  0  0  0  0  0  0  0  0  0  0
  137.6370   69.3050  223.0160 N   0  0  0  0  0  0  0  0  0  0  0  0
  137.4190   70.2610  221.9070 C   0  0  0  0  0  0  0  0  0  0  0  0
  138.5260   71.2410  222.0200 C   0  0  0  0  0  0  0  0  0  0  0  0
  138.6890   72.4390  221.3220 C   0  0  0  0  0  0  0  0  0  0  0  0
  139.8840   73.1550  221.4920 C   0  0  0  0  0  0  0  0  0  0  0  0
  140.9050   72.6410  222.3150 C   0  0  0  0  0  0  0  0  0  0  0  0
  140.7260   71.4180  222.9820 C   0  0  0  0  0  0  0  0  0  0  0  0
  139.4960   70.7620  222.8560 C   0  0  0  0  0  0  0  0  0  0  0  0
  139.0940   69.4090  223.3220 C   0  0  1  0  0  0  0  0  0  0  0  0
  139.5090   69.0090  224.7220 C   0  0  0  0  0  0  0  0  0  0  0  0
  139.5350   67.7400  225.2980 C   0  0  0  0  0  0  0  0  0  0  0  0
  139.9180   67.8110  226.5930 N   0  0  0  0  0  0  0  0  0  0  0  0
  140.1170   69.1130  226.8510 C   0  0  0  0  0  0  0  0  0  0  0  0
  140.5150   69.6850  228.0590 C   0  0  0  0  0  0  0  0  0  0  0  0
  140.6580   71.0840  228.1080 C   0  0  0  0  0  0  0  0  0  0  0  0
  140.4030   71.8690  226.9630 C   0  0  0  0  0  0  0  0  0  0  0  0
  140.0020   71.2640  225.7570 C   0  0  0  0  0  0  0  0  0  0  0  0
  139.8690   69.8750  225.7390 C   0  0  0  0  0  0  0  0  0  0  0  0
  136.6174   72.0638  224.4575 H   0  0  0  0  0  0  0  0  0  0  0  0
  135.3459   71.4545  223.2901 H   0  0  0  0  0  0  0  0  0  0  0  0
  134.4061   73.6412  224.7268 H   0  0  0  0  0  0  0  0  0  0  0  0
  132.7017   74.0614  226.5026 H   0  0  0  0  0  0  0  0  0  0  0  0
  132.0915   72.2467  228.1049 H   0  0  0  0  0  0  0  0  0  0  0  0
  133.1869   70.0103  227.9365 H   0  0  0  0  0  0  0  0  0  0  0  0
  134.8791   69.5766  226.1541 H   0  0  0  0  0  0  0  0  0  0  0  0
  137.4588   69.7433  220.9372 H   0  0  0  0  0  0  0  0  0  0  0  0
  136.4326   70.7441  221.9666 H   0  0  0  0  0  0  0  0  0  0  0  0
  137.8990   72.8131  220.6542 H   0  0  0  0  0  0  0  0  0  0  0  0
  140.0235   74.1194  220.9816 H   0  0  0  0  0  0  0  0  0  0  0  0
  141.8452   73.1990  222.4357 H   0  0  0  0  0  0  0  0  0  0  0  0
  141.5344   70.9854  223.5898 H   0  0  0  0  0  0  0  0  0  0  0  0
  139.6684   68.6421  222.7816 H   0  0  0  0  0  0  0  0  0  0  0  0
  139.2791   66.8087  224.7715 H   0  0  0  0  0  0  0  0  0  0  0  0
  140.0220   67.0120  227.2580 H   0  0  0  0  0  0  0  0  0  0  0  0
  140.7108   69.0628  228.9447 H   0  0  0  0  0  0  0  0  0  0  0  0
  140.9705   71.5689  229.0446 H   0  0  0  0  0  0  0  0  0  0  0  0
  140.5185   72.9618  227.0135 H   0  0  0  0  0  0  0  0  0  0  0  0
  139.8002   71.8660  224.8587 H   0  0  0  0  0  0  0  0  0  0  0  0
  1  2  2  0
  2  3  2  0
  2  4  1  0
  4  5  1  0
  5  6  2  0
  6  7  1  0
  7  8  2  0
  8  9  1  0
  9 10  2  0
  2 11  1  0
 11 12  1  0
 12 13  1  0
 13 14  2  0
 14 15  1  0
 15 16  2  0
 16 17  1  0
 17 18  2  0
 18 19  1  0
 19 20  1  0
 20 21  2  0
 21 22  1  0
 22 23  1  0
 23 24  2  0
 24 25  1  0
 25 26  2  0
 26 27  1  0
 27 28  2  0
 10  5  1  0
 19 11  1  0
 28 20  1  0
 18 13  1  0
 28 23  1  0
  4 29  1  0
  4 30  1  0
  6 31  1  0
  7 32  1  0
  8 33  1  0
  9 34  1  0
 10 35  1  0
 12 36  1  0
 12 37  1  0
 14 38  1  0
 15 39  1  0
 16 40  1  0
 17 41  1  0
 19 42  1  6
 21 43  1  0
 22 44  1  0
 24 45  1  0
 25 46  1  0
 26 47  1  0
 27 48  1  0
M  END
>  <UniqueID>  (54) 
239

>  <SMILES>  (54) 
O=S(=O)(Cc1ccccc1)N1Cc2ccccc2[C@H]1c1c[nH]c2ccccc12

>  <Energy>  (54) 
97.41607876318156

>  <Genealogy>  (54) 
O=S(=O)(Cc1ccccc1)N1Cc2ccccc2[C@H]1c1c[nH]c2ccccc12 (3D coordinates assigned)
O=S(=O)(Cc1ccccc1)N1Cc2ccccc2[C@H]1c1c[nH]c2ccccc12 (nonaromatic ring conformer: 97.41607876318156 kcal/mol)

>  <smiles>  (54) 
O=S(=O)(Cc1ccccc1)N1Cc2ccccc2[C@H]1c1c[nH]c2ccccc12

>  <score_type>  (54) 
oracle

>  <origin>  (54) 
autodockgpu

>  <m_score__min__energy>  (54) 
-8.4100000000000001

>  <m_primary>  (54) 
energy

>  <meeko>  (54) 
{"free_energy": -8.35, "intermolecular_energy": -9.54, "internal_energy": -1.09, "cluster_size": 2, "cluster_id": 1, "rank_in_cluster": 2}

>  <energy>  (54) 
-6.72

>  <cluster_rmsd>  (54) 
0.04

>  <rmsd>  (54) 
269.44

>  <cluster>  (54) 
4

$$$$
WCZRIPJXOMUAPT-QHCPKHFHNA-N
     RDKit          3D

 48 52  0  0  0  0  0  0  0  0999 V2000
  138.7990   77.1980  222.8920 O   0  0  0  0  0  0  0  0  0  0  0  0
  139.9110   76.5840  222.0890 S   0  0  0  0  0  0  0  0  0  0  0  0
  139.8430   75.0990  222.3040 O   0  0  0  0  0  0  0  0  0  0  0  0
  141.4450   77.2370  222.7760 C   0  0  0  0  0  0  0  0  0  0  0  0
  141.4540   78.7330  222.9400 C   0  0  0  0  0  0  0  0  0  0  0  0
  140.3040   79.4060  223.3870 C   0  0  0  0  0  0  0  0  0  0  0  0
  140.2870   80.8030  223.4640 C   0  0  0  0  0  0  0  0  0  0  0  0
  141.4100   81.5390  223.0770 C   0  0  0  0  0  0  0  0  0  0  0  0
  142.5500   80.8800  222.6080 C   0  0  0  0  0  0  0  0  0  0  0  0
  142.5720   79.4840  222.5340 C   0  0  0  0  0  0  0  0  0  0  0  0
  139.6130   77.0000  220.3990 N   0  0  0  0  0  0  0  0  0  0  0  0
  138.9490   78.3210  220.3360 C   0  0  0  0  0  0  0  0  0  0  0  0
  140.0200   79.2730  219.9540 C   0  0  0  0  0  0  0  0  0  0  0  0
  139.9610   80.6680  219.9230 C   0  0  0  0  0  0  0  0  0  0  0  0
  141.0570   81.3720  219.4030 C   0  0  0  0  0  0  0  0  0  0  0  0
  142.1660   80.6740  218.8870 C   0  0  0  0  0  0  0  0  0  0  0  0
  142.1860   79.2690  218.9040 C   0  0  0  0  0  0  0  0  0  0  0  0
  141.1130   78.5930  219.4960 C   0  0  0  0  0  0  0  0  0  0  0  0
  140.8100   77.1380  219.5200 C   0  0  1  0  0  0  0  0  0  0  0  0
  141.9610   76.1980  219.8110 C   0  0  0  0  0  0  0  0  0  0  0  0
  143.3270   76.4750  219.8590 C   0  0  0  0  0  0  0  0  0  0  0  0
  144.0350   75.3480  220.0990 N   0  0  0  0  0  0  0  0  0  0  0  0
  143.1350   74.3550  220.1850 C   0  0  0  0  0  0  0  0  0  0  0  0
  143.3880   73.0040  220.4150 C   0  0  0  0  0  0  0  0  0  0  0  0
  142.2860   72.1290  220.4610 C   0  0  0  0  0  0  0  0  0  0  0  0
  140.9750   72.6190  220.2760 C   0  0  0  0  0  0  0  0  0  0  0  0
  140.7510   73.9880  220.0440 C   0  0  0  0  0  0  0  0  0  0  0  0
  141.8630   74.8320  220.0050 C   0  0  0  0  0  0  0  0  0  0  0  0
  141.6039   76.7797  223.7638 H   0  0  0  0  0  0  0  0  0  0  0  0
  142.2442   76.9902  222.0616 H   0  0  0  0  0  0  0  0  0  0  0  0
  139.4123   78.8313  223.6779 H   0  0  0  0  0  0  0  0  0  0  0  0
  139.3888   81.3223  223.8295 H   0  0  0  0  0  0  0  0  0  0  0  0
  141.3969   82.6370  223.1414 H   0  0  0  0  0  0  0  0  0  0  0  0
  143.4310   81.4605  222.2967 H   0  0  0  0  0  0  0  0  0  0  0  0
  143.4683   78.9702  222.1563 H   0  0  0  0  0  0  0  0  0  0  0  0
  138.1493   78.3158  219.5807 H   0  0  0  0  0  0  0  0  0  0  0  0
  138.4781   78.5920  221.2925 H   0  0  0  0  0  0  0  0  0  0  0  0
  139.0755   81.2022  220.2977 H   0  0  0  0  0  0  0  0  0  0  0  0
  141.0503   82.4720  219.3982 H   0  0  0  0  0  0  0  0  0  0  0  0
  143.0185   81.2299  218.4697 H   0  0  0  0  0  0  0  0  0  0  0  0
  143.0260   78.7131  218.4620 H   0  0  0  0  0  0  0  0  0  0  0  0
  140.5951   76.7843  218.5008 H   0  0  0  0  0  0  0  0  0  0  0  0
  143.7680   77.4732  219.7206 H   0  0  0  0  0  0  0  0  0  0  0  0
  145.0730   75.2700  220.1850 H   0  0  0  0  0  0  0  0  0  0  0  0
  144.4142   72.6337  220.5559 H   0  0  0  0  0  0  0  0  0  0  0  0
  142.4476   71.0562  220.6423 H   0  0  0  0  0  0  0  0  0  0  0  0
  140.1224   71.9250  220.3136 H   0  0  0  0  0  0  0  0  0  0  0  0
  139.7339   74.3808  219.8982 H   0  0  0  0  0  0  0  0  0  0  0  0
  1  2  2  0
  2  3  2  0
  2  4  1  0
  4  5  1  0
  5  6  2  0
  6  7  1  0
  7  8  2  0
  8  9  1  0
  9 10  2  0
  2 11  1  0
 11 12  1  0
 12 13  1  0
 13 14  2  0
 14 15  1  0
 15 16  2  0
 16 17  1  0
 17 18  2  0
 18 19  1  0
 19 20  1  0
 20 21  2  0
 21 22  1  0
 22 23  1  0
 23 24  2  0
 24 25  1  0
 25 26  2  0
 26 27  1  0
 27 28  2  0
 10  5  1  0
 19 11  1  0
 28 20  1  0
 18 13  1  0
 28 23  1  0
  4 29  1  0
  4 30  1  0
  6 31  1  0
  7 32  1  0
  8 33  1  0
  9 34  1  0
 10 35  1  0
 12 36  1  0
 12 37  1  0
 14 38  1  0
 15 39  1  0
 16 40  1  0
 17 41  1  0
 19 42  1  6
 21 43  1  0
 22 44  1  0
 24 45  1  0
 25 46  1  0
 26 47  1  0
 27 48  1  0
M  END
>  <UniqueID>  (55) 
239

>  <SMILES>  (55) 
O=S(=O)(Cc1ccccc1)N1Cc2ccccc2[C@H]1c1c[nH]c2ccccc12

>  <Energy>  (55) 
97.41607876318156

>  <Genealogy>  (55) 
O=S(=O)(Cc1ccccc1)N1Cc2ccccc2[C@H]1c1c[nH]c2ccccc12 (3D coordinates assigned)
O=S(=O)(Cc1ccccc1)N1Cc2ccccc2[C@H]1c1c[nH]c2ccccc12 (nonaromatic ring conformer: 97.41607876318156 kcal/mol)

>  <smiles>  (55) 
O=S(=O)(Cc1ccccc1)N1Cc2ccccc2[C@H]1c1c[nH]c2ccccc12

>  <score_type>  (55) 
oracle

>  <origin>  (55) 
autodockgpu

>  <m_score__min__energy>  (55) 
-8.4100000000000001

>  <m_primary>  (55) 
energy

>  <meeko>  (55) 
{"free_energy": -6.67, "intermolecular_energy": -7.87, "internal_energy": -2.45, "cluster_size": 12, "cluster_id": 4, "rank_in_cluster": 12}

>  <energy>  (55) 
-6.72

>  <cluster_rmsd>  (55) 
0.04

>  <rmsd>  (55) 
269.43

>  <cluster>  (55) 
4

$$$$
WCZRIPJXOMUAPT-QHCPKHFHNA-N
     RDKit          3D

 48 52  0  0  0  0  0  0  0  0999 V2000
  141.4430   74.6150  221.8430 O   0  0  0  0  0  0  0  0  0  0  0  0
  141.3520   75.3890  220.5580 S   0  0  0  0  0  0  0  0  0  0  0  0
  140.7430   74.4740  219.5350 O   0  0  0  0  0  0  0  0  0  0  0  0
  143.0470   75.7930  220.0940 C   0  0  0  0  0  0  0  0  0  0  0  0
  143.9620   74.5990  220.0210 C   0  0  0  0  0  0  0  0  0  0  0  0
  143.6220   73.4900  219.2280 C   0  0  0  0  0  0  0  0  0  0  0  0
  144.4330   72.3500  219.2220 C   0  0  0  0  0  0  0  0  0  0  0  0
  145.5780   72.3020  220.0230 C   0  0  0  0  0  0  0  0  0  0  0  0
  145.9100   73.3900  220.8340 C   0  0  0  0  0  0  0  0  0  0  0  0
  145.1040   74.5330  220.8380 C   0  0  0  0  0  0  0  0  0  0  0  0
  140.3120   76.7810  220.8710 N   0  0  0  0  0  0  0  0  0  0  0  0
  140.2280   77.0040  222.3320 C   0  0  0  0  0  0  0  0  0  0  0  0
  141.1390   78.1420  222.6020 C   0  0  0  0  0  0  0  0  0  0  0  0
  141.5520   78.6390  223.8400 C   0  0  0  0  0  0  0  0  0  0  0  0
  142.3200   79.8140  223.8660 C   0  0  0  0  0  0  0  0  0  0  0  0
  142.6200   80.4880  222.6670 C   0  0  0  0  0  0  0  0  0  0  0  0
  142.1670   79.9810  221.4380 C   0  0  0  0  0  0  0  0  0  0  0  0
  141.4680   78.7690  221.4320 C   0  0  0  0  0  0  0  0  0  0  0  0
  140.7580   78.0920  220.3160 C   0  0  1  0  0  0  0  0  0  0  0  0
  141.4670   78.0400  218.9780 C   0  0  0  0  0  0  0  0  0  0  0  0
  142.6170   78.7150  218.5710 C   0  0  0  0  0  0  0  0  0  0  0  0
  142.8990   78.4410  217.2770 N   0  0  0  0  0  0  0  0  0  0  0  0
  141.9300   77.6140  216.8530 C   0  0  0  0  0  0  0  0  0  0  0  0
  141.7860   77.0620  215.5810 C   0  0  0  0  0  0  0  0  0  0  0  0
  140.6830   76.2190  215.3510 C   0  0  0  0  0  0  0  0  0  0  0  0
  139.7600   75.9520  216.3860 C   0  0  0  0  0  0  0  0  0  0  0  0
  139.9300   76.5240  217.6600 C   0  0  0  0  0  0  0  0  0  0  0  0
  141.0340   77.3550  217.8570 C   0  0  0  0  0  0  0  0  0  0  0  0
  143.0295   76.2766  219.1062 H   0  0  0  0  0  0  0  0  0  0  0  0
  143.4444   76.4516  220.8803 H   0  0  0  0  0  0  0  0  0  0  0  0
  142.7134   73.5183  218.6086 H   0  0  0  0  0  0  0  0  0  0  0  0
  144.1698   71.4912  218.5870 H   0  0  0  0  0  0  0  0  0  0  0  0
  146.2177   71.4072  220.0146 H   0  0  0  0  0  0  0  0  0  0  0  0
  146.8064   73.3477  221.4702 H   0  0  0  0  0  0  0  0  0  0  0  0
  145.3650   75.3845  221.4836 H   0  0  0  0  0  0  0  0  0  0  0  0
  139.1982   77.2556  222.6257 H   0  0  0  0  0  0  0  0  0  0  0  0
  140.5091   76.1066  222.9027 H   0  0  0  0  0  0  0  0  0  0  0  0
  141.2820   78.1221  224.7727 H   0  0  0  0  0  0  0  0  0  0  0  0
  142.6879   80.2085  224.8246 H   0  0  0  0  0  0  0  0  0  0  0  0
  143.2114   81.4152  222.6928 H   0  0  0  0  0  0  0  0  0  0  0  0
  142.3576   80.5247  220.5010 H   0  0  0  0  0  0  0  0  0  0  0  0
  139.8985   78.6999  219.9971 H   0  0  0  0  0  0  0  0  0  0  0  0
  143.2131   79.3792  219.2140 H   0  0  0  0  0  0  0  0  0  0  0  0
  143.7020   78.8110  216.7210 H   0  0  0  0  0  0  0  0  0  0  0  0
  142.5113   77.2784  214.7828 H   0  0  0  0  0  0  0  0  0  0  0  0
  140.5389   75.7654  214.3593 H   0  0  0  0  0  0  0  0  0  0  0  0
  138.9014   75.2916  216.1945 H   0  0  0  0  0  0  0  0  0  0  0  0
  139.2171   76.3232  218.4733 H   0  0  0  0  0  0  0  0  0  0  0  0
  1  2  2  0
  2  3  2  0
  2  4  1  0
  4  5  1  0
  5  6  2  0
  6  7  1  0
  7  8  2  0
  8  9  1  0
  9 10  2  0
  2 11  1  0
 11 12  1  0
 12 13  1  0
 13 14  2  0
 14 15  1  0
 15 16  2  0
 16 17  1  0
 17 18  2  0
 18 19  1  0
 19 20  1  0
 20 21  2  0
 21 22  1  0
 22 23  1  0
 23 24  2  0
 24 25  1  0
 25 26  2  0
 26 27  1  0
 27 28  2  0
 10  5  1  0
 19 11  1  0
 28 20  1  0
 18 13  1  0
 28 23  1  0
  4 29  1  0
  4 30  1  0
  6 31  1  0
  7 32  1  0
  8 33  1  0
  9 34  1  0
 10 35  1  0
 12 36  1  0
 12 37  1  0
 14 38  1  0
 15 39  1  0
 16 40  1  0
 17 41  1  0
 19 42  1  6
 21 43  1  0
 22 44  1  0
 24 45  1  0
 25 46  1  0
 26 47  1  0
 27 48  1  0
M  END
>  <UniqueID>  (56) 
239

>  <SMILES>  (56) 
O=S(=O)(Cc1ccccc1)N1Cc2ccccc2[C@H]1c1c[nH]c2ccccc12

>  <Energy>  (56) 
97.41607876318156

>  <Genealogy>  (56) 
O=S(=O)(Cc1ccccc1)N1Cc2ccccc2[C@H]1c1c[nH]c2ccccc12 (3D coordinates assigned)
O=S(=O)(Cc1ccccc1)N1Cc2ccccc2[C@H]1c1c[nH]c2ccccc12 (nonaromatic ring conformer: 97.41607876318156 kcal/mol)

>  <smiles>  (56) 
O=S(=O)(Cc1ccccc1)N1Cc2ccccc2[C@H]1c1c[nH]c2ccccc12

>  <score_type>  (56) 
oracle

>  <origin>  (56) 
autodockgpu

>  <m_score__min__energy>  (56) 
-8.4100000000000001

>  <m_primary>  (56) 
energy

>  <meeko>  (56) 
{"free_energy": -7.5, "intermolecular_energy": -8.7, "internal_energy": -1.72, "cluster_size": 5, "cluster_id": 2, "rank_in_cluster": 4}

>  <energy>  (56) 
-6.72

>  <cluster_rmsd>  (56) 
0.04

>  <rmsd>  (56) 
269.43

>  <cluster>  (56) 
4

$$$$
WCZRIPJXOMUAPT-QHCPKHFHNA-N
     RDKit          3D

 48 52  0  0  0  0  0  0  0  0999 V2000
  138.7880   77.0650  222.8120 O   0  0  0  0  0  0  0  0  0  0  0  0
  139.9420   76.5030  222.0300 S   0  0  0  0  0  0  0  0  0  0  0  0
  139.9440   75.0180  222.2530 O   0  0  0  0  0  0  0  0  0  0  0  0
  141.4300   77.2360  222.7370 C   0  0  0  0  0  0  0  0  0  0  0  0
  141.4000   78.7390  222.8050 C   0  0  0  0  0  0  0  0  0  0  0  0
  142.5360   79.4900  222.4600 C   0  0  0  0  0  0  0  0  0  0  0  0
  142.5330   80.8820  222.5980 C   0  0  0  0  0  0  0  0  0  0  0  0
  141.4030   81.5330  223.1010 C   0  0  0  0  0  0  0  0  0  0  0  0
  140.2770   80.7930  223.4710 C   0  0  0  0  0  0  0  0  0  0  0  0
  140.2750   79.4020  223.3290 C   0  0  0  0  0  0  0  0  0  0  0  0
  139.6510   76.8960  220.3330 N   0  0  0  0  0  0  0  0  0  0  0  0
  138.9660   78.2050  220.2490 C   0  0  0  0  0  0  0  0  0  0  0  0
  140.0240   79.1710  219.8660 C   0  0  0  0  0  0  0  0  0  0  0  0
  139.9430   80.5630  219.8180 C   0  0  0  0  0  0  0  0  0  0  0  0
  141.0320   81.2800  219.3000 C   0  0  0  0  0  0  0  0  0  0  0  0
  142.1560   80.5940  218.8000 C   0  0  0  0  0  0  0  0  0  0  0  0
  142.1990   79.1910  218.8330 C   0  0  0  0  0  0  0  0  0  0  0  0
  141.1330   78.5030  219.4250 C   0  0  0  0  0  0  0  0  0  0  0  0
  140.8530   77.0440  219.4620 C   0  0  1  0  0  0  0  0  0  0  0  0
  142.0170   76.1260  219.7730 C   0  0  0  0  0  0  0  0  0  0  0  0
  143.3760   76.4290  219.8420 C   0  0  0  0  0  0  0  0  0  0  0  0
  144.1020   75.3160  220.0950 N   0  0  0  0  0  0  0  0  0  0  0  0
  143.2190   74.3060  220.1690 C   0  0  0  0  0  0  0  0  0  0  0  0
  143.4940   72.9600  220.4060 C   0  0  0  0  0  0  0  0  0  0  0  0
  142.4090   72.0650  220.4360 C   0  0  0  0  0  0  0  0  0  0  0  0
  141.0910   72.5290  220.2290 C   0  0  0  0  0  0  0  0  0  0  0  0
  140.8460   73.8940  219.9910 C   0  0  0  0  0  0  0  0  0  0  0  0
  141.9410   74.7580  219.9680 C   0  0  0  0  0  0  0  0  0  0  0  0
  141.5559   76.8462  223.7579 H   0  0  0  0  0  0  0  0  0  0  0  0
  142.2642   76.9644  222.0735 H   0  0  0  0  0  0  0  0  0  0  0  0
  143.4333   78.9803  222.0791 H   0  0  0  0  0  0  0  0  0  0  0  0
  143.4206   81.4647  222.3105 H   0  0  0  0  0  0  0  0  0  0  0  0
  141.4002   82.6280  223.2056 H   0  0  0  0  0  0  0  0  0  0  0  0
  139.3911   81.3053  223.8744 H   0  0  0  0  0  0  0  0  0  0  0  0
  139.3891   78.8228  223.6286 H   0  0  0  0  0  0  0  0  0  0  0  0
  138.1735   78.1779  219.4866 H   0  0  0  0  0  0  0  0  0  0  0  0
  138.4822   78.4786  221.1983 H   0  0  0  0  0  0  0  0  0  0  0  0
  139.0452   81.0867  220.1783 H   0  0  0  0  0  0  0  0  0  0  0  0
  141.0080   82.3796  219.2843 H   0  0  0  0  0  0  0  0  0  0  0  0
  143.0025   81.1590  218.3825 H   0  0  0  0  0  0  0  0  0  0  0  0
  143.0514   78.6444  218.4032 H   0  0  0  0  0  0  0  0  0  0  0  0
  140.6519   76.6761  218.4450 H   0  0  0  0  0  0  0  0  0  0  0  0
  143.7999   77.4353  219.7089 H   0  0  0  0  0  0  0  0  0  0  0  0
  145.1390   75.2570  220.1970 H   0  0  0  0  0  0  0  0  0  0  0  0
  144.5246   72.6096  220.5642 H   0  0  0  0  0  0  0  0  0  0  0  0
  142.5884   70.9958  220.6221 H   0  0  0  0  0  0  0  0  0  0  0  0
  140.2512   71.8190  220.2540 H   0  0  0  0  0  0  0  0  0  0  0  0
  139.8243   74.2676  219.8284 H   0  0  0  0  0  0  0  0  0  0  0  0
  1  2  2  0
  2  3  2  0
  2  4  1  0
  4  5  1  0
  5  6  2  0
  6  7  1  0
  7  8  2  0
  8  9  1  0
  9 10  2  0
  2 11  1  0
 11 12  1  0
 12 13  1  0
 13 14  2  0
 14 15  1  0
 15 16  2  0
 16 17  1  0
 17 18  2  0
 18 19  1  0
 19 20  1  0
 20 21  2  0
 21 22  1  0
 22 23  1  0
 23 24  2  0
 24 25  1  0
 25 26  2  0
 26 27  1  0
 27 28  2  0
 10  5  1  0
 19 11  1  0
 28 20  1  0
 18 13  1  0
 28 23  1  0
  4 29  1  0
  4 30  1  0
  6 31  1  0
  7 32  1  0
  8 33  1  0
  9 34  1  0
 10 35  1  0
 12 36  1  0
 12 37  1  0
 14 38  1  0
 15 39  1  0
 16 40  1  0
 17 41  1  0
 19 42  1  6
 21 43  1  0
 22 44  1  0
 24 45  1  0
 25 46  1  0
 26 47  1  0
 27 48  1  0
M  END
>  <UniqueID>  (57) 
239

>  <SMILES>  (57) 
O=S(=O)(Cc1ccccc1)N1Cc2ccccc2[C@H]1c1c[nH]c2ccccc12

>  <Energy>  (57) 
97.41607876318156

>  <Genealogy>  (57) 
O=S(=O)(Cc1ccccc1)N1Cc2ccccc2[C@H]1c1c[nH]c2ccccc12 (3D coordinates assigned)
O=S(=O)(Cc1ccccc1)N1Cc2ccccc2[C@H]1c1c[nH]c2ccccc12 (nonaromatic ring conformer: 97.41607876318156 kcal/mol)

>  <smiles>  (57) 
O=S(=O)(Cc1ccccc1)N1Cc2ccccc2[C@H]1c1c[nH]c2ccccc12

>  <score_type>  (57) 
oracle

>  <origin>  (57) 
autodockgpu

>  <m_score__min__energy>  (57) 
-8.4100000000000001

>  <m_primary>  (57) 
energy

>  <meeko>  (57) 
{"free_energy": -6.72, "intermolecular_energy": -7.91, "internal_energy": -2.47, "cluster_size": 12, "cluster_id": 4, "rank_in_cluster": 3}

>  <energy>  (57) 
-6.72

>  <cluster_rmsd>  (57) 
0.02

>  <rmsd>  (57) 
269.44

>  <cluster>  (57) 
4

$$$$
WCZRIPJXOMUAPT-QHCPKHFHNA-N
     RDKit          3D

 48 52  0  0  0  0  0  0  0  0999 V2000
  141.1060   74.7290  221.7920 O   0  0  0  0  0  0  0  0  0  0  0  0
  141.0840   75.5440  220.5290 S   0  0  0  0  0  0  0  0  0  0  0  0
  140.4290   74.7020  219.4730 O   0  0  0  0  0  0  0  0  0  0  0  0
  142.8080   75.8450  220.0970 C   0  0  0  0  0  0  0  0  0  0  0  0
  143.6760   74.6160  220.1490 C   0  0  0  0  0  0  0  0  0  0  0  0
  143.1110   73.3400  219.9840 C   0  0  0  0  0  0  0  0  0  0  0  0
  143.9050   72.1940  220.1110 C   0  0  0  0  0  0  0  0  0  0  0  0
  145.2620   72.3130  220.4230 C   0  0  0  0  0  0  0  0  0  0  0  0
  145.8270   73.5770  220.6140 C   0  0  0  0  0  0  0  0  0  0  0  0
  145.0380   74.7240  220.4830 C   0  0  0  0  0  0  0  0  0  0  0  0
  140.1360   76.9940  220.8720 N   0  0  0  0  0  0  0  0  0  0  0  0
  140.0810   77.2020  222.3360 C   0  0  0  0  0  0  0  0  0  0  0  0
  141.0640   78.2770  222.6110 C   0  0  0  0  0  0  0  0  0  0  0  0
  141.5190   78.7320  223.8500 C   0  0  0  0  0  0  0  0  0  0  0  0
  142.3590   79.8550  223.8830 C   0  0  0  0  0  0  0  0  0  0  0  0
  142.6890   80.5260  222.6890 C   0  0  0  0  0  0  0  0  0  0  0  0
  142.1930   80.0650  221.4590 C   0  0  0  0  0  0  0  0  0  0  0  0
  141.4190   78.8980  221.4450 C   0  0  0  0  0  0  0  0  0  0  0  0
  140.6580   78.2820  220.3280 C   0  0  1  0  0  0  0  0  0  0  0  0
  141.3480   78.2040  218.9820 C   0  0  0  0  0  0  0  0  0  0  0  0
  142.5560   78.7770  218.5840 C   0  0  0  0  0  0  0  0  0  0  0  0
  142.8000   78.5180  217.2800 N   0  0  0  0  0  0  0  0  0  0  0  0
  141.7520   77.8020  216.8400 C   0  0  0  0  0  0  0  0  0  0  0  0
  141.5460   77.3080  215.5530 C   0  0  0  0  0  0  0  0  0  0  0  0
  140.3650   76.5830  215.3100 C   0  0  0  0  0  0  0  0  0  0  0  0
  139.4280   76.3740  216.3440 C   0  0  0  0  0  0  0  0  0  0  0  0
  139.6620   76.8860  217.6340 C   0  0  0  0  0  0  0  0  0  0  0  0
  140.8420   77.6000  217.8460 C   0  0  0  0  0  0  0  0  0  0  0  0
  142.8428   76.2500  219.0749 H   0  0  0  0  0  0  0  0  0  0  0  0
  143.2055   76.5471  220.8447 H   0  0  0  0  0  0  0  0  0  0  0  0
  142.0399   73.2411  219.7540 H   0  0  0  0  0  0  0  0  0  0  0  0
  143.4602   71.1986  219.9650 H   0  0  0  0  0  0  0  0  0  0  0  0
  145.8855   71.4118  220.5183 H   0  0  0  0  0  0  0  0  0  0  0  0
  146.8933   73.6696  220.8676 H   0  0  0  0  0  0  0  0  0  0  0  0
  145.4850   75.7164  220.6421 H   0  0  0  0  0  0  0  0  0  0  0  0
  139.0720   77.5134  222.6441 H   0  0  0  0  0  0  0  0  0  0  0  0
  140.3113   76.2811  222.8919 H   0  0  0  0  0  0  0  0  0  0  0  0
  141.2255   78.2215  224.7791 H   0  0  0  0  0  0  0  0  0  0  0  0
  142.7607   80.2123  224.8427 H   0  0  0  0  0  0  0  0  0  0  0  0
  143.3374   81.4140  222.7205 H   0  0  0  0  0  0  0  0  0  0  0  0
  142.4076   80.6085  220.5270 H   0  0  0  0  0  0  0  0  0  0  0  0
  139.8357   78.9468  220.0250 H   0  0  0  0  0  0  0  0  0  0  0  0
  143.2187   79.3594  219.2409 H   0  0  0  0  0  0  0  0  0  0  0  0
  143.6310   78.8260  216.7270 H   0  0  0  0  0  0  0  0  0  0  0  0
  142.2823   77.4793  214.7539 H   0  0  0  0  0  0  0  0  0  0  0  0
  140.1707   76.1762  214.3066 H   0  0  0  0  0  0  0  0  0  0  0  0
  138.5078   75.8067  216.1404 H   0  0  0  0  0  0  0  0  0  0  0  0
  138.9389   76.7286  218.4478 H   0  0  0  0  0  0  0  0  0  0  0  0
  1  2  2  0
  2  3  2  0
  2  4  1  0
  4  5  1  0
  5  6  2  0
  6  7  1  0
  7  8  2  0
  8  9  1  0
  9 10  2  0
  2 11  1  0
 11 12  1  0
 12 13  1  0
 13 14  2  0
 14 15  1  0
 15 16  2  0
 16 17  1  0
 17 18  2  0
 18 19  1  0
 19 20  1  0
 20 21  2  0
 21 22  1  0
 22 23  1  0
 23 24  2  0
 24 25  1  0
 25 26  2  0
 26 27  1  0
 27 28  2  0
 10  5  1  0
 19 11  1  0
 28 20  1  0
 18 13  1  0
 28 23  1  0
  4 29  1  0
  4 30  1  0
  6 31  1  0
  7 32  1  0
  8 33  1  0
  9 34  1  0
 10 35  1  0
 12 36  1  0
 12 37  1  0
 14 38  1  0
 15 39  1  0
 16 40  1  0
 17 41  1  0
 19 42  1  6
 21 43  1  0
 22 44  1  0
 24 45  1  0
 25 46  1  0
 26 47  1  0
 27 48  1  0
M  END
>  <UniqueID>  (58) 
239

>  <SMILES>  (58) 
O=S(=O)(Cc1ccccc1)N1Cc2ccccc2[C@H]1c1c[nH]c2ccccc12

>  <Energy>  (58) 
97.41607876318156

>  <Genealogy>  (58) 
O=S(=O)(Cc1ccccc1)N1Cc2ccccc2[C@H]1c1c[nH]c2ccccc12 (3D coordinates assigned)
O=S(=O)(Cc1ccccc1)N1Cc2ccccc2[C@H]1c1c[nH]c2ccccc12 (nonaromatic ring conformer: 97.41607876318156 kcal/mol)

>  <smiles>  (58) 
O=S(=O)(Cc1ccccc1)N1Cc2ccccc2[C@H]1c1c[nH]c2ccccc12

>  <score_type>  (58) 
oracle

>  <origin>  (58) 
autodockgpu

>  <m_score__min__energy>  (58) 
-8.4100000000000001

>  <m_primary>  (58) 
energy

>  <meeko>  (58) 
{"free_energy": -7.53, "intermolecular_energy": -8.72, "internal_energy": -1.7, "cluster_size": 5, "cluster_id": 2, "rank_in_cluster": 1}

>  <energy>  (58) 
-6.71

>  <cluster_rmsd>  (58) 
0.02

>  <rmsd>  (58) 
269.43

>  <cluster>  (58) 
4

$$$$
WCZRIPJXOMUAPT-QHCPKHFHNA-N
     RDKit          3D

 48 52  0  0  0  0  0  0  0  0999 V2000
  138.8040   77.0670  222.8310 O   0  0  0  0  0  0  0  0  0  0  0  0
  139.9540   76.5020  222.0460 S   0  0  0  0  0  0  0  0  0  0  0  0
  139.9540   75.0180  222.2700 O   0  0  0  0  0  0  0  0  0  0  0  0
  141.4470   77.2320  222.7470 C   0  0  0  0  0  0  0  0  0  0  0  0
  141.4210   78.7360  222.8110 C   0  0  0  0  0  0  0  0  0  0  0  0
  142.5610   79.4820  222.4660 C   0  0  0  0  0  0  0  0  0  0  0  0
  142.5610   80.8740  222.6010 C   0  0  0  0  0  0  0  0  0  0  0  0
  141.4330   81.5300  223.1000 C   0  0  0  0  0  0  0  0  0  0  0  0
  140.3030   80.7950  223.4700 C   0  0  0  0  0  0  0  0  0  0  0  0
  140.2970   79.4030  223.3310 C   0  0  0  0  0  0  0  0  0  0  0  0
  139.6570   76.8940  220.3500 N   0  0  0  0  0  0  0  0  0  0  0  0
  138.9730   78.2030  220.2670 C   0  0  0  0  0  0  0  0  0  0  0  0
  140.0300   79.1680  219.8800 C   0  0  0  0  0  0  0  0  0  0  0  0
  139.9490   80.5610  219.8320 C   0  0  0  0  0  0  0  0  0  0  0  0
  141.0370   81.2770  219.3090 C   0  0  0  0  0  0  0  0  0  0  0  0
  142.1590   80.5900  218.8060 C   0  0  0  0  0  0  0  0  0  0  0  0
  142.2010   79.1860  218.8400 C   0  0  0  0  0  0  0  0  0  0  0  0
  141.1370   78.4990  219.4350 C   0  0  0  0  0  0  0  0  0  0  0  0
  140.8570   77.0400  219.4740 C   0  0  1  0  0  0  0  0  0  0  0  0
  142.0210   76.1220  219.7830 C   0  0  0  0  0  0  0  0  0  0  0  0
  143.3810   76.4250  219.8470 C   0  0  0  0  0  0  0  0  0  0  0  0
  144.1060   75.3120  220.0980 N   0  0  0  0  0  0  0  0  0  0  0  0
  143.2240   74.3030  220.1750 C   0  0  0  0  0  0  0  0  0  0  0  0
  143.4990   72.9570  220.4120 C   0  0  0  0  0  0  0  0  0  0  0  0
  142.4130   72.0610  220.4460 C   0  0  0  0  0  0  0  0  0  0  0  0
  141.0960   72.5270  220.2440 C   0  0  0  0  0  0  0  0  0  0  0  0
  140.8500   73.8920  220.0060 C   0  0  0  0  0  0  0  0  0  0  0  0
  141.9460   74.7550  219.9780 C   0  0  0  0  0  0  0  0  0  0  0  0
  141.5749   76.8444  223.7685 H   0  0  0  0  0  0  0  0  0  0  0  0
  142.2788   76.9560  222.0822 H   0  0  0  0  0  0  0  0  0  0  0  0
  143.4574   78.9686  222.0880 H   0  0  0  0  0  0  0  0  0  0  0  0
  143.4508   81.4534  222.3137 H   0  0  0  0  0  0  0  0  0  0  0  0
  141.4341   82.6253  223.2018 H   0  0  0  0  0  0  0  0  0  0  0  0
  139.4182   81.3113  223.8706 H   0  0  0  0  0  0  0  0  0  0  0  0
  139.4087   78.8271  223.6299 H   0  0  0  0  0  0  0  0  0  0  0  0
  138.1781   78.1758  219.5071 H   0  0  0  0  0  0  0  0  0  0  0  0
  138.4926   78.4777  221.2176 H   0  0  0  0  0  0  0  0  0  0  0  0
  139.0530   81.0853  220.1957 H   0  0  0  0  0  0  0  0  0  0  0  0
  141.0134   82.3766  219.2919 H   0  0  0  0  0  0  0  0  0  0  0  0
  143.0045   81.1541  218.3855 H   0  0  0  0  0  0  0  0  0  0  0  0
  143.0519   78.6387  218.4082 H   0  0  0  0  0  0  0  0  0  0  0  0
  140.6533   76.6710  218.4580 H   0  0  0  0  0  0  0  0  0  0  0  0
  143.8051   77.4309  219.7119 H   0  0  0  0  0  0  0  0  0  0  0  0
  145.1440   75.2530  220.1970 H   0  0  0  0  0  0  0  0  0  0  0  0
  144.5300   72.6064  220.5673 H   0  0  0  0  0  0  0  0  0  0  0  0
  142.5922   70.9916  220.6311 H   0  0  0  0  0  0  0  0  0  0  0  0
  140.2556   71.8178  220.2728 H   0  0  0  0  0  0  0  0  0  0  0  0
  139.8278   74.2661  219.8473 H   0  0  0  0  0  0  0  0  0  0  0  0
  1  2  2  0
  2  3  2  0
  2  4  1  0
  4  5  1  0
  5  6  2  0
  6  7  1  0
  7  8  2  0
  8  9  1  0
  9 10  2  0
  2 11  1  0
 11 12  1  0
 12 13  1  0
 13 14  2  0
 14 15  1  0
 15 16  2  0
 16 17  1  0
 17 18  2  0
 18 19  1  0
 19 20  1  0
 20 21  2  0
 21 22  1  0
 22 23  1  0
 23 24  2  0
 24 25  1  0
 25 26  2  0
 26 27  1  0
 27 28  2  0
 10  5  1  0
 19 11  1  0
 28 20  1  0
 18 13  1  0
 28 23  1  0
  4 29  1  0
  4 30  1  0
  6 31  1  0
  7 32  1  0
  8 33  1  0
  9 34  1  0
 10 35  1  0
 12 36  1  0
 12 37  1  0
 14 38  1  0
 15 39  1  0
 16 40  1  0
 17 41  1  0
 19 42  1  6
 21 43  1  0
 22 44  1  0
 24 45  1  0
 25 46  1  0
 26 47  1  0
 27 48  1  0
M  END
>  <UniqueID>  (59) 
239

>  <SMILES>  (59) 
O=S(=O)(Cc1ccccc1)N1Cc2ccccc2[C@H]1c1c[nH]c2ccccc12

>  <Energy>  (59) 
97.41607876318156

>  <Genealogy>  (59) 
O=S(=O)(Cc1ccccc1)N1Cc2ccccc2[C@H]1c1c[nH]c2ccccc12 (3D coordinates assigned)
O=S(=O)(Cc1ccccc1)N1Cc2ccccc2[C@H]1c1c[nH]c2ccccc12 (nonaromatic ring conformer: 97.41607876318156 kcal/mol)

>  <smiles>  (59) 
O=S(=O)(Cc1ccccc1)N1Cc2ccccc2[C@H]1c1c[nH]c2ccccc12

>  <score_type>  (59) 
oracle

>  <origin>  (59) 
autodockgpu

>  <m_score__min__energy>  (59) 
-8.4100000000000001

>  <m_primary>  (59) 
energy

>  <meeko>  (59) 
{"free_energy": -6.72, "intermolecular_energy": -7.91, "internal_energy": -2.48, "cluster_size": 12, "cluster_id": 4, "rank_in_cluster": 4}

>  <energy>  (59) 
-6.71

>  <cluster_rmsd>  (59) 
0.02

>  <rmsd>  (59) 
269.43

>  <cluster>  (59) 
4

$$$$
WCZRIPJXOMUAPT-QHCPKHFHNA-N
     RDKit          3D

 48 52  0  0  0  0  0  0  0  0999 V2000
  138.8020   77.0740  222.8550 O   0  0  0  0  0  0  0  0  0  0  0  0
  139.9500   76.5130  222.0650 S   0  0  0  0  0  0  0  0  0  0  0  0
  139.9500   75.0270  222.2810 O   0  0  0  0  0  0  0  0  0  0  0  0
  141.4440   77.2390  222.7670 C   0  0  0  0  0  0  0  0  0  0  0  0
  141.4250   78.7430  222.8240 C   0  0  0  0  0  0  0  0  0  0  0  0
  142.5710   79.4820  222.4850 C   0  0  0  0  0  0  0  0  0  0  0  0
  142.5780   80.8750  222.6140 C   0  0  0  0  0  0  0  0  0  0  0  0
  141.4480   81.5380  223.1010 C   0  0  0  0  0  0  0  0  0  0  0  0
  140.3130   80.8100  223.4650 C   0  0  0  0  0  0  0  0  0  0  0  0
  140.3010   79.4180  223.3320 C   0  0  0  0  0  0  0  0  0  0  0  0
  139.6510   76.9130  220.3710 N   0  0  0  0  0  0  0  0  0  0  0  0
  138.9780   78.2290  220.2960 C   0  0  0  0  0  0  0  0  0  0  0  0
  140.0430   79.1850  219.9080 C   0  0  0  0  0  0  0  0  0  0  0  0
  139.9750   80.5790  219.8650 C   0  0  0  0  0  0  0  0  0  0  0  0
  141.0670   81.2870  219.3400 C   0  0  0  0  0  0  0  0  0  0  0  0
  142.1810   80.5910  218.8310 C   0  0  0  0  0  0  0  0  0  0  0  0
  142.2110   79.1870  218.8600 C   0  0  0  0  0  0  0  0  0  0  0  0
  141.1420   78.5080  219.4570 C   0  0  0  0  0  0  0  0  0  0  0  0
  140.8490   77.0520  219.4920 C   0  0  1  0  0  0  0  0  0  0  0  0
  142.0060   76.1220  219.7930 C   0  0  0  0  0  0  0  0  0  0  0  0
  143.3680   76.4130  219.8590 C   0  0  0  0  0  0  0  0  0  0  0  0
  144.0850   75.2920  220.1020 N   0  0  0  0  0  0  0  0  0  0  0  0
  143.1940   74.2890  220.1720 C   0  0  0  0  0  0  0  0  0  0  0  0
  143.4580   72.9400  220.3980 C   0  0  0  0  0  0  0  0  0  0  0  0
  142.3650   72.0530  220.4260 C   0  0  0  0  0  0  0  0  0  0  0  0
  141.0520   72.5300  220.2280 C   0  0  0  0  0  0  0  0  0  0  0  0
  140.8160   73.8990  220.0000 C   0  0  0  0  0  0  0  0  0  0  0  0
  141.9190   74.7540  219.9790 C   0  0  0  0  0  0  0  0  0  0  0  0
  141.5669   76.8555  223.7906 H   0  0  0  0  0  0  0  0  0  0  0  0
  142.2764   76.9559  222.1060 H   0  0  0  0  0  0  0  0  0  0  0  0
  143.4676   78.9624  222.1161 H   0  0  0  0  0  0  0  0  0  0  0  0
  143.4732   81.4488  222.3321 H   0  0  0  0  0  0  0  0  0  0  0  0
  141.4526   82.6337  223.1976 H   0  0  0  0  0  0  0  0  0  0  0  0
  139.4276   81.3322  223.8567 H   0  0  0  0  0  0  0  0  0  0  0  0
  139.4074   78.8480  223.6264 H   0  0  0  0  0  0  0  0  0  0  0  0
  138.1797   78.2121  219.5394 H   0  0  0  0  0  0  0  0  0  0  0  0
  138.5036   78.5046  221.2494 H   0  0  0  0  0  0  0  0  0  0  0  0
  139.0855   81.1103  220.2344 H   0  0  0  0  0  0  0  0  0  0  0  0
  141.0531   82.3868  219.3259 H   0  0  0  0  0  0  0  0  0  0  0  0
  143.0302   81.1489  218.4094 H   0  0  0  0  0  0  0  0  0  0  0  0
  143.0554   78.6334  218.4235 H   0  0  0  0  0  0  0  0  0  0  0  0
  140.6383   76.6889  218.4753 H   0  0  0  0  0  0  0  0  0  0  0  0
  143.8001   77.4164  219.7310 H   0  0  0  0  0  0  0  0  0  0  0  0
  145.1220   75.2240  220.2000 H   0  0  0  0  0  0  0  0  0  0  0  0
  144.4862   72.5798  220.5495 H   0  0  0  0  0  0  0  0  0  0  0  0
  142.5358   70.9809  220.6034 H   0  0  0  0  0  0  0  0  0  0  0  0
  140.2064   71.8269  220.2520 H   0  0  0  0  0  0  0  0  0  0  0  0
  139.7967   74.2819  219.8437 H   0  0  0  0  0  0  0  0  0  0  0  0
  1  2  2  0
  2  3  2  0
  2  4  1  0
  4  5  1  0
  5  6  2  0
  6  7  1  0
  7  8  2  0
  8  9  1  0
  9 10  2  0
  2 11  1  0
 11 12  1  0
 12 13  1  0
 13 14  2  0
 14 15  1  0
 15 16  2  0
 16 17  1  0
 17 18  2  0
 18 19  1  0
 19 20  1  0
 20 21  2  0
 21 22  1  0
 22 23  1  0
 23 24  2  0
 24 25  1  0
 25 26  2  0
 26 27  1  0
 27 28  2  0
 10  5  1  0
 19 11  1  0
 28 20  1  0
 18 13  1  0
 28 23  1  0
  4 29  1  0
  4 30  1  0
  6 31  1  0
  7 32  1  0
  8 33  1  0
  9 34  1  0
 10 35  1  0
 12 36  1  0
 12 37  1  0
 14 38  1  0
 15 39  1  0
 16 40  1  0
 17 41  1  0
 19 42  1  6
 21 43  1  0
 22 44  1  0
 24 45  1  0
 25 46  1  0
 26 47  1  0
 27 48  1  0
M  END
>  <UniqueID>  (60) 
239

>  <SMILES>  (60) 
O=S(=O)(Cc1ccccc1)N1Cc2ccccc2[C@H]1c1c[nH]c2ccccc12

>  <Energy>  (60) 
97.41607876318156

>  <Genealogy>  (60) 
O=S(=O)(Cc1ccccc1)N1Cc2ccccc2[C@H]1c1c[nH]c2ccccc12 (3D coordinates assigned)
O=S(=O)(Cc1ccccc1)N1Cc2ccccc2[C@H]1c1c[nH]c2ccccc12 (nonaromatic ring conformer: 97.41607876318156 kcal/mol)

>  <smiles>  (60) 
O=S(=O)(Cc1ccccc1)N1Cc2ccccc2[C@H]1c1c[nH]c2ccccc12

>  <score_type>  (60) 
oracle

>  <origin>  (60) 
autodockgpu

>  <m_score__min__energy>  (60) 
-8.4100000000000001

>  <m_primary>  (60) 
energy

>  <meeko>  (60) 
{"free_energy": -6.72, "intermolecular_energy": -7.91, "internal_energy": -2.48, "cluster_size": 12, "cluster_id": 4, "rank_in_cluster": 9}

>  <energy>  (60) 
-6.67

>  <cluster_rmsd>  (60) 
0.08

>  <rmsd>  (60) 
269.46

>  <cluster>  (60) 
4

$$$$
WCZRIPJXOMUAPT-QHCPKHFHNA-N
     RDKit          3D

 48 52  0  0  0  0  0  0  0  0999 V2000
  139.7100   78.3500  217.7840 O   0  0  0  0  0  0  0  0  0  0  0  0
  139.7450   78.4800  219.2810 S   0  0  0  0  0  0  0  0  0  0  0  0
  139.0920   77.2520  219.8460 O   0  0  0  0  0  0  0  0  0  0  0  0
  138.7640   79.9400  219.6800 C   0  0  0  0  0  0  0  0  0  0  0  0
  138.5630   80.1570  221.1560 C   0  0  0  0  0  0  0  0  0  0  0  0
  138.6660   81.4460  221.7060 C   0  0  0  0  0  0  0  0  0  0  0  0
  138.5580   81.6360  223.0880 C   0  0  0  0  0  0  0  0  0  0  0  0
  138.3670   80.5400  223.9320 C   0  0  0  0  0  0  0  0  0  0  0  0
  138.2900   79.2510  223.3980 C   0  0  0  0  0  0  0  0  0  0  0  0
  138.3920   79.0580  222.0170 C   0  0  0  0  0  0  0  0  0  0  0  0
  141.4460   78.5740  219.7470 N   0  0  0  0  0  0  0  0  0  0  0  0
  141.8250   79.9940  219.9150 C   0  0  0  0  0  0  0  0  0  0  0  0
  141.8350   80.2210  221.3800 C   0  0  0  0  0  0  0  0  0  0  0  0
  141.9640   81.4320  222.0630 C   0  0  0  0  0  0  0  0  0  0  0  0
  142.0790   81.4020  223.4610 C   0  0  0  0  0  0  0  0  0  0  0  0
  142.1070   80.1700  224.1420 C   0  0  0  0  0  0  0  0  0  0  0  0
  142.0050   78.9660  223.4270 C   0  0  0  0  0  0  0  0  0  0  0  0
  141.8150   79.0250  222.0420 C   0  0  0  0  0  0  0  0  0  0  0  0
  141.8250   77.9280  221.0390 C   0  0  1  0  0  0  0  0  0  0  0  0
  141.0740   76.6610  221.3940 C   0  0  0  0  0  0  0  0  0  0  0  0
  139.9940   76.4980  222.2600 C   0  0  0  0  0  0  0  0  0  0  0  0
  139.6440   75.1950  222.3470 N   0  0  0  0  0  0  0  0  0  0  0  0
  140.5030   74.5260  221.5610 C   0  0  0  0  0  0  0  0  0  0  0  0
  140.5460   73.1520  221.3330 C   0  0  0  0  0  0  0  0  0  0  0  0
  141.5410   72.6600  220.4690 C   0  0  0  0  0  0  0  0  0  0  0  0
  142.4610   73.5430  219.8610 C   0  0  0  0  0  0  0  0  0  0  0  0
  142.3930   74.9260  220.1100 C   0  0  0  0  0  0  0  0  0  0  0  0
  141.3950   75.3840  220.9710 C   0  0  0  0  0  0  0  0  0  0  0  0
  139.2736   80.8229  219.2667 H   0  0  0  0  0  0  0  0  0  0  0  0
  137.7671   79.7833  219.2423 H   0  0  0  0  0  0  0  0  0  0  0  0
  138.8325   82.3104  221.0464 H   0  0  0  0  0  0  0  0  0  0  0  0
  138.6236   82.6497  223.5101 H   0  0  0  0  0  0  0  0  0  0  0  0
  138.2771   80.6914  225.0178 H   0  0  0  0  0  0  0  0  0  0  0  0
  138.1490   78.3875  224.0647 H   0  0  0  0  0  0  0  0  0  0  0  0
  138.3382   78.0409  221.6015 H   0  0  0  0  0  0  0  0  0  0  0  0
  142.8217   80.1806  219.4886 H   0  0  0  0  0  0  0  0  0  0  0  0
  141.1281   80.6702  219.3982 H   0  0  0  0  0  0  0  0  0  0  0  0
  141.9752   82.3873  221.5177 H   0  0  0  0  0  0  0  0  0  0  0  0
  142.1474   82.3431  224.0263 H   0  0  0  0  0  0  0  0  0  0  0  0
  142.2090   80.1507  225.2371 H   0  0  0  0  0  0  0  0  0  0  0  0
  142.0730   77.9976  223.9443 H   0  0  0  0  0  0  0  0  0  0  0  0
  142.8297   77.4839  220.9806 H   0  0  0  0  0  0  0  0  0  0  0  0
  139.4950   77.3170  222.7987 H   0  0  0  0  0  0  0  0  0  0  0  0
  138.8710   74.7930  222.9230 H   0  0  0  0  0  0  0  0  0  0  0  0
  139.8251   72.4740  221.8132 H   0  0  0  0  0  0  0  0  0  0  0  0
  141.6032   71.5808  220.2654 H   0  0  0  0  0  0  0  0  0  0  0  0
  143.2358   73.1465  219.1883 H   0  0  0  0  0  0  0  0  0  0  0  0
  143.1031   75.6233  219.6414 H   0  0  0  0  0  0  0  0  0  0  0  0
  1  2  2  0
  2  3  2  0
  2  4  1  0
  4  5  1  0
  5  6  2  0
  6  7  1  0
  7  8  2  0
  8  9  1  0
  9 10  2  0
  2 11  1  0
 11 12  1  0
 12 13  1  0
 13 14  2  0
 14 15  1  0
 15 16  2  0
 16 17  1  0
 17 18  2  0
 18 19  1  0
 19 20  1  0
 20 21  2  0
 21 22  1  0
 22 23  1  0
 23 24  2  0
 24 25  1  0
 25 26  2  0
 26 27  1  0
 27 28  2  0
 10  5  1  0
 19 11  1  0
 28 20  1  0
 18 13  1  0
 28 23  1  0
  4 29  1  0
  4 30  1  0
  6 31  1  0
  7 32  1  0
  8 33  1  0
  9 34  1  0
 10 35  1  0
 12 36  1  0
 12 37  1  0
 14 38  1  0
 15 39  1  0
 16 40  1  0
 17 41  1  0
 19 42  1  6
 21 43  1  0
 22 44  1  0
 24 45  1  0
 25 46  1  0
 26 47  1  0
 27 48  1  0
M  END
>  <UniqueID>  (61) 
240

>  <SMILES>  (61) 
O=S(=O)(Cc1ccccc1)N1Cc2ccccc2[C@H]1c1c[nH]c2ccccc12

>  <Energy>  (61) 
103.4226599959764

>  <Genealogy>  (61) 
O=S(=O)(Cc1ccccc1)N1Cc2ccccc2[C@H]1c1c[nH]c2ccccc12 (3D coordinates assigned)
O=S(=O)(Cc1ccccc1)N1Cc2ccccc2[C@H]1c1c[nH]c2ccccc12 (nonaromatic ring conformer: 103.4226599959764 kcal/mol)

>  <smiles>  (61) 
O=S(=O)(Cc1ccccc1)N1Cc2ccccc2[C@H]1c1c[nH]c2ccccc12

>  <score_type>  (61) 
oracle

>  <origin>  (61) 
autodockgpu

>  <m_score__min__energy>  (61) 
-8.4100000000000001

>  <m_primary>  (61) 
energy

>  <meeko>  (61) 
{"free_energy": -6.84, "intermolecular_energy": -8.04, "internal_energy": -2.2, "cluster_size": 1, "cluster_id": 3, "rank_in_cluster": 1}

>  <energy>  (61) 
-8.41

>  <cluster_rmsd>  (61) 
0.0

>  <rmsd>  (61) 
269.16

>  <cluster>  (61) 
1

$$$$
WCZRIPJXOMUAPT-QHCPKHFHNA-N
     RDKit          3D

 48 52  0  0  0  0  0  0  0  0999 V2000
  138.8000   77.0780  222.8120 O   0  0  0  0  0  0  0  0  0  0  0  0
  139.9500   76.5100  222.0290 S   0  0  0  0  0  0  0  0  0  0  0  0
  139.9430   75.0240  222.2520 O   0  0  0  0  0  0  0  0  0  0  0  0
  141.4440   77.2330  222.7340 C   0  0  0  0  0  0  0  0  0  0  0  0
  141.4230   78.7360  222.8000 C   0  0  0  0  0  0  0  0  0  0  0  0
  142.5680   79.4780  222.4620 C   0  0  0  0  0  0  0  0  0  0  0  0
  142.5730   80.8710  222.5990 C   0  0  0  0  0  0  0  0  0  0  0  0
  141.4440   81.5300  223.0940 C   0  0  0  0  0  0  0  0  0  0  0  0
  140.3100   80.7980  223.4570 C   0  0  0  0  0  0  0  0  0  0  0  0
  140.3000   79.4070  223.3160 C   0  0  0  0  0  0  0  0  0  0  0  0
  139.6590   76.9040  220.3330 N   0  0  0  0  0  0  0  0  0  0  0  0
  138.9800   78.2160  220.2500 C   0  0  0  0  0  0  0  0  0  0  0  0
  140.0420   79.1770  219.8660 C   0  0  0  0  0  0  0  0  0  0  0  0
  139.9670   80.5700  219.8190 C   0  0  0  0  0  0  0  0  0  0  0  0
  141.0590   81.2820  219.2990 C   0  0  0  0  0  0  0  0  0  0  0  0
  142.1790   80.5910  218.7980 C   0  0  0  0  0  0  0  0  0  0  0  0
  142.2160   79.1870  218.8310 C   0  0  0  0  0  0  0  0  0  0  0  0
  141.1470   78.5040  219.4230 C   0  0  0  0  0  0  0  0  0  0  0  0
  140.8610   77.0460  219.4600 C   0  0  1  0  0  0  0  0  0  0  0  0
  142.0210   76.1230  219.7700 C   0  0  0  0  0  0  0  0  0  0  0  0
  143.3820   76.4200  219.8390 C   0  0  0  0  0  0  0  0  0  0  0  0
  144.1020   75.3040  220.0900 N   0  0  0  0  0  0  0  0  0  0  0  0
  143.2150   74.2980  220.1640 C   0  0  0  0  0  0  0  0  0  0  0  0
  143.4840   72.9500  220.4000 C   0  0  0  0  0  0  0  0  0  0  0  0
  142.3950   72.0600  220.4300 C   0  0  0  0  0  0  0  0  0  0  0  0
  141.0790   72.5310  220.2250 C   0  0  0  0  0  0  0  0  0  0  0  0
  140.8400   73.8970  219.9880 C   0  0  0  0  0  0  0  0  0  0  0  0
  141.9390   74.7560  219.9650 C   0  0  0  0  0  0  0  0  0  0  0  0
  141.5684   76.8434  223.7552 H   0  0  0  0  0  0  0  0  0  0  0  0
  142.2763   76.9547  222.0707 H   0  0  0  0  0  0  0  0  0  0  0  0
  143.4643   78.9615  222.0881 H   0  0  0  0  0  0  0  0  0  0  0  0
  143.4662   81.4477  222.3169 H   0  0  0  0  0  0  0  0  0  0  0  0
  141.4480   82.6251  223.1979 H   0  0  0  0  0  0  0  0  0  0  0  0
  139.4248   81.3166  223.8539 H   0  0  0  0  0  0  0  0  0  0  0  0
  139.4084   78.8340  223.6104 H   0  0  0  0  0  0  0  0  0  0  0  0
  138.1865   78.1927  219.4885 H   0  0  0  0  0  0  0  0  0  0  0  0
  138.4985   78.4917  221.1998 H   0  0  0  0  0  0  0  0  0  0  0  0
  139.0724   81.0977  220.1813 H   0  0  0  0  0  0  0  0  0  0  0  0
  141.0399   82.3817  219.2828 H   0  0  0  0  0  0  0  0  0  0  0  0
  143.0275   81.1522  218.3796 H   0  0  0  0  0  0  0  0  0  0  0  0
  143.0660   78.6367  218.4012 H   0  0  0  0  0  0  0  0  0  0  0  0
  140.6577   76.6786  218.4433 H   0  0  0  0  0  0  0  0  0  0  0  0
  143.8106   77.4245  219.7073 H   0  0  0  0  0  0  0  0  0  0  0  0
  145.1390   75.2400  220.1920 H   0  0  0  0  0  0  0  0  0  0  0  0
  144.5131   72.5947  220.5574 H   0  0  0  0  0  0  0  0  0  0  0  0
  142.5694   70.9897  220.6144 H   0  0  0  0  0  0  0  0  0  0  0  0
  140.2357   71.8251  220.2509 H   0  0  0  0  0  0  0  0  0  0  0  0
  139.8199   74.2754  219.8261 H   0  0  0  0  0  0  0  0  0  0  0  0
  1  2  2  0
  2  3  2  0
  2  4  1  0
  4  5  1  0
  5  6  2  0
  6  7  1  0
  7  8  2  0
  8  9  1  0
  9 10  2  0
  2 11  1  0
 11 12  1  0
 12 13  1  0
 13 14  2  0
 14 15  1  0
 15 16  2  0
 16 17  1  0
 17 18  2  0
 18 19  1  0
 19 20  1  0
 20 21  2  0
 21 22  1  0
 22 23  1  0
 23 24  2  0
 24 25  1  0
 25 26  2  0
 26 27  1  0
 27 28  2  0
 10  5  1  0
 19 11  1  0
 28 20  1  0
 18 13  1  0
 28 23  1  0
  4 29  1  0
  4 30  1  0
  6 31  1  0
  7 32  1  0
  8 33  1  0
  9 34  1  0
 10 35  1  0
 12 36  1  0
 12 37  1  0
 14 38  1  0
 15 39  1  0
 16 40  1  0
 17 41  1  0
 19 42  1  6
 21 43  1  0
 22 44  1  0
 24 45  1  0
 25 46  1  0
 26 47  1  0
 27 48  1  0
M  END
>  <UniqueID>  (62) 
240

>  <SMILES>  (62) 
O=S(=O)(Cc1ccccc1)N1Cc2ccccc2[C@H]1c1c[nH]c2ccccc12

>  <Energy>  (62) 
103.4226599959764

>  <Genealogy>  (62) 
O=S(=O)(Cc1ccccc1)N1Cc2ccccc2[C@H]1c1c[nH]c2ccccc12 (3D coordinates assigned)
O=S(=O)(Cc1ccccc1)N1Cc2ccccc2[C@H]1c1c[nH]c2ccccc12 (nonaromatic ring conformer: 103.4226599959764 kcal/mol)

>  <smiles>  (62) 
O=S(=O)(Cc1ccccc1)N1Cc2ccccc2[C@H]1c1c[nH]c2ccccc12

>  <score_type>  (62) 
oracle

>  <origin>  (62) 
autodockgpu

>  <m_score__min__energy>  (62) 
-8.4100000000000001

>  <m_primary>  (62) 
energy

>  <meeko>  (62) 
{"free_energy": -6.72, "intermolecular_energy": -7.91, "internal_energy": -2.47, "cluster_size": 12, "cluster_id": 4, "rank_in_cluster": 8}

>  <energy>  (62) 
-8.35

>  <cluster_rmsd>  (62) 
0.09

>  <rmsd>  (62) 
269.16

>  <cluster>  (62) 
1

$$$$
WCZRIPJXOMUAPT-QHCPKHFHNA-N
     RDKit          3D

 48 52  0  0  0  0  0  0  0  0999 V2000
  138.8030   77.0630  222.8270 O   0  0  0  0  0  0  0  0  0  0  0  0
  139.9540   76.4990  222.0430 S   0  0  0  0  0  0  0  0  0  0  0  0
  139.9540   75.0140  222.2660 O   0  0  0  0  0  0  0  0  0  0  0  0
  141.4460   77.2290  222.7450 C   0  0  0  0  0  0  0  0  0  0  0  0
  141.4190   78.7330  222.8100 C   0  0  0  0  0  0  0  0  0  0  0  0
  142.5580   79.4800  222.4660 C   0  0  0  0  0  0  0  0  0  0  0  0
  142.5580   80.8720  222.6020 C   0  0  0  0  0  0  0  0  0  0  0  0
  141.4280   81.5270  223.1000 C   0  0  0  0  0  0  0  0  0  0  0  0
  140.2990   80.7900  223.4690 C   0  0  0  0  0  0  0  0  0  0  0  0
  140.2940   79.3990  223.3300 C   0  0  0  0  0  0  0  0  0  0  0  0
  139.6590   76.8900  220.3460 N   0  0  0  0  0  0  0  0  0  0  0  0
  138.9760   78.2010  220.2630 C   0  0  0  0  0  0  0  0  0  0  0  0
  140.0350   79.1640  219.8770 C   0  0  0  0  0  0  0  0  0  0  0  0
  139.9550   80.5570  219.8280 C   0  0  0  0  0  0  0  0  0  0  0  0
  141.0440   81.2720  219.3060 C   0  0  0  0  0  0  0  0  0  0  0  0
  142.1650   80.5840  218.8040 C   0  0  0  0  0  0  0  0  0  0  0  0
  142.2070   79.1800  218.8380 C   0  0  0  0  0  0  0  0  0  0  0  0
  141.1410   78.4940  219.4330 C   0  0  0  0  0  0  0  0  0  0  0  0
  140.8600   77.0360  219.4720 C   0  0  1  0  0  0  0  0  0  0  0  0
  142.0230   76.1160  219.7810 C   0  0  0  0  0  0  0  0  0  0  0  0
  143.3830   76.4180  219.8470 C   0  0  0  0  0  0  0  0  0  0  0  0
  144.1070   75.3040  220.0990 N   0  0  0  0  0  0  0  0  0  0  0  0
  143.2240   74.2960  220.1740 C   0  0  0  0  0  0  0  0  0  0  0  0
  143.4970   72.9490  220.4110 C   0  0  0  0  0  0  0  0  0  0  0  0
  142.4110   72.0550  220.4430 C   0  0  0  0  0  0  0  0  0  0  0  0
  141.0940   72.5210  220.2400 C   0  0  0  0  0  0  0  0  0  0  0  0
  140.8490   73.8870  220.0020 C   0  0  0  0  0  0  0  0  0  0  0  0
  141.9460   74.7490  219.9760 C   0  0  0  0  0  0  0  0  0  0  0  0
  141.5736   76.8408  223.7663 H   0  0  0  0  0  0  0  0  0  0  0  0
  142.2783   76.9538  222.0805 H   0  0  0  0  0  0  0  0  0  0  0  0
  143.4547   78.9673  222.0876 H   0  0  0  0  0  0  0  0  0  0  0  0
  143.4481   81.4519  222.3168 H   0  0  0  0  0  0  0  0  0  0  0  0
  141.4272   82.6223  223.2015 H   0  0  0  0  0  0  0  0  0  0  0  0
  139.4134   81.3052  223.8692 H   0  0  0  0  0  0  0  0  0  0  0  0
  139.4062   78.8223  223.6286 H   0  0  0  0  0  0  0  0  0  0  0  0
  138.1816   78.1752  219.5026 H   0  0  0  0  0  0  0  0  0  0  0  0
  138.4949   78.4762  221.2132 H   0  0  0  0  0  0  0  0  0  0  0  0
  139.0589   81.0821  220.1903 H   0  0  0  0  0  0  0  0  0  0  0  0
  141.0216   82.3716  219.2891 H   0  0  0  0  0  0  0  0  0  0  0  0
  143.0110   81.1476  218.3837 H   0  0  0  0  0  0  0  0  0  0  0  0
  143.0579   78.6321  218.4070 H   0  0  0  0  0  0  0  0  0  0  0  0
  140.6572   76.6679  218.4554 H   0  0  0  0  0  0  0  0  0  0  0  0
  143.8081   77.4236  219.7126 H   0  0  0  0  0  0  0  0  0  0  0  0
  145.1450   75.2440  220.1990 H   0  0  0  0  0  0  0  0  0  0  0  0
  144.5273   72.5971  220.5677 H   0  0  0  0  0  0  0  0  0  0  0  0
  142.5894   70.9854  220.6275 H   0  0  0  0  0  0  0  0  0  0  0  0
  140.2534   71.8121  220.2680 H   0  0  0  0  0  0  0  0  0  0  0  0
  139.8273   74.2620  219.8420 H   0  0  0  0  0  0  0  0  0  0  0  0
  1  2  2  0
  2  3  2  0
  2  4  1  0
  4  5  1  0
  5  6  2  0
  6  7  1  0
  7  8  2  0
  8  9  1  0
  9 10  2  0
  2 11  1  0
 11 12  1  0
 12 13  1  0
 13 14  2  0
 14 15  1  0
 15 16  2  0
 16 17  1  0
 17 18  2  0
 18 19  1  0
 19 20  1  0
 20 21  2  0
 21 22  1  0
 22 23  1  0
 23 24  2  0
 24 25  1  0
 25 26  2  0
 26 27  1  0
 27 28  2  0
 10  5  1  0
 19 11  1  0
 28 20  1  0
 18 13  1  0
 28 23  1  0
  4 29  1  0
  4 30  1  0
  6 31  1  0
  7 32  1  0
  8 33  1  0
  9 34  1  0
 10 35  1  0
 12 36  1  0
 12 37  1  0
 14 38  1  0
 15 39  1  0
 16 40  1  0
 17 41  1  0
 19 42  1  6
 21 43  1  0
 22 44  1  0
 24 45  1  0
 25 46  1  0
 26 47  1  0
 27 48  1  0
M  END
>  <UniqueID>  (63) 
240

>  <SMILES>  (63) 
O=S(=O)(Cc1ccccc1)N1Cc2ccccc2[C@H]1c1c[nH]c2ccccc12

>  <Energy>  (63) 
103.4226599959764

>  <Genealogy>  (63) 
O=S(=O)(Cc1ccccc1)N1Cc2ccccc2[C@H]1c1c[nH]c2ccccc12 (3D coordinates assigned)
O=S(=O)(Cc1ccccc1)N1Cc2ccccc2[C@H]1c1c[nH]c2ccccc12 (nonaromatic ring conformer: 103.4226599959764 kcal/mol)

>  <smiles>  (63) 
O=S(=O)(Cc1ccccc1)N1Cc2ccccc2[C@H]1c1c[nH]c2ccccc12

>  <score_type>  (63) 
oracle

>  <origin>  (63) 
autodockgpu

>  <m_score__min__energy>  (63) 
-8.4100000000000001

>  <m_primary>  (63) 
energy

>  <meeko>  (63) 
{"free_energy": -6.72, "intermolecular_energy": -7.91, "internal_energy": -2.47, "cluster_size": 12, "cluster_id": 4, "rank_in_cluster": 5}

>  <energy>  (63) 
-7.53

>  <cluster_rmsd>  (63) 
0.0

>  <rmsd>  (63) 
268.72

>  <cluster>  (63) 
2

$$$$
WCZRIPJXOMUAPT-QHCPKHFHNA-N
     RDKit          3D

 48 52  0  0  0  0  0  0  0  0999 V2000
  138.8020   77.0770  222.8620 O   0  0  0  0  0  0  0  0  0  0  0  0
  139.9490   76.5170  222.0690 S   0  0  0  0  0  0  0  0  0  0  0  0
  139.9490   75.0310  222.2820 O   0  0  0  0  0  0  0  0  0  0  0  0
  141.4440   77.2420  222.7700 C   0  0  0  0  0  0  0  0  0  0  0  0
  141.4260   78.7460  222.8280 C   0  0  0  0  0  0  0  0  0  0  0  0
  142.5730   79.4840  222.4900 C   0  0  0  0  0  0  0  0  0  0  0  0
  142.5800   80.8770  222.6200 C   0  0  0  0  0  0  0  0  0  0  0  0
  141.4510   81.5410  223.1080 C   0  0  0  0  0  0  0  0  0  0  0  0
  140.3150   80.8130  223.4710 C   0  0  0  0  0  0  0  0  0  0  0  0
  140.3020   79.4210  223.3370 C   0  0  0  0  0  0  0  0  0  0  0  0
  139.6470   76.9210  220.3760 N   0  0  0  0  0  0  0  0  0  0  0  0
  138.9720   78.2360  220.3050 C   0  0  0  0  0  0  0  0  0  0  0  0
  140.0340   79.1960  219.9190 C   0  0  0  0  0  0  0  0  0  0  0  0
  139.9620   80.5890  219.8790 C   0  0  0  0  0  0  0  0  0  0  0  0
  141.0530   81.3010  219.3560 C   0  0  0  0  0  0  0  0  0  0  0  0
  142.1670   80.6090  218.8430 C   0  0  0  0  0  0  0  0  0  0  0  0
  142.2000   79.2050  218.8680 C   0  0  0  0  0  0  0  0  0  0  0  0
  141.1340   78.5220  219.4650 C   0  0  0  0  0  0  0  0  0  0  0  0
  140.8440   77.0650  219.4960 C   0  0  1  0  0  0  0  0  0  0  0  0
  142.0030   76.1370  219.7930 C   0  0  0  0  0  0  0  0  0  0  0  0
  143.3650   76.4300  219.8560 C   0  0  0  0  0  0  0  0  0  0  0  0
  144.0840   75.3110  220.0950 N   0  0  0  0  0  0  0  0  0  0  0  0
  143.1950   74.3060  220.1670 C   0  0  0  0  0  0  0  0  0  0  0  0
  143.4620   72.9570  220.3920 C   0  0  0  0  0  0  0  0  0  0  0  0
  142.3710   72.0680  220.4220 C   0  0  0  0  0  0  0  0  0  0  0  0
  141.0560   72.5430  220.2270 C   0  0  0  0  0  0  0  0  0  0  0  0
  140.8180   73.9120  220.0010 C   0  0  0  0  0  0  0  0  0  0  0  0
  141.9190   74.7690  219.9780 C   0  0  0  0  0  0  0  0  0  0  0  0
  141.5677   76.8578  223.7933 H   0  0  0  0  0  0  0  0  0  0  0  0
  142.2756   76.9590  222.1079 H   0  0  0  0  0  0  0  0  0  0  0  0
  143.4696   78.9641  222.1215 H   0  0  0  0  0  0  0  0  0  0  0  0
  143.4753   81.4505  222.3378 H   0  0  0  0  0  0  0  0  0  0  0  0
  141.4568   82.6366  223.2063 H   0  0  0  0  0  0  0  0  0  0  0  0
  139.4298   81.3354  223.8627 H   0  0  0  0  0  0  0  0  0  0  0  0
  139.4082   78.8512  223.6312 H   0  0  0  0  0  0  0  0  0  0  0  0
  138.1732   78.2195  219.5489 H   0  0  0  0  0  0  0  0  0  0  0  0
  138.4984   78.5079  221.2599 H   0  0  0  0  0  0  0  0  0  0  0  0
  139.0708   81.1171  220.2488 H   0  0  0  0  0  0  0  0  0  0  0  0
  141.0377   82.4009  219.3469 H   0  0  0  0  0  0  0  0  0  0  0  0
  143.0142   81.1698  218.4213 H   0  0  0  0  0  0  0  0  0  0  0  0
  143.0447   78.6545  218.4282 H   0  0  0  0  0  0  0  0  0  0  0  0
  140.6329   76.7042  218.4785 H   0  0  0  0  0  0  0  0  0  0  0  0
  143.7951   77.4344  219.7286 H   0  0  0  0  0  0  0  0  0  0  0  0
  145.1220   75.2440  220.1910 H   0  0  0  0  0  0  0  0  0  0  0  0
  144.4912   72.5987  220.5412 H   0  0  0  0  0  0  0  0  0  0  0  0
  142.5442   70.9962  220.5985 H   0  0  0  0  0  0  0  0  0  0  0  0
  140.2115   71.8386  220.2518 H   0  0  0  0  0  0  0  0  0  0  0  0
  139.7977   74.2935  219.8476 H   0  0  0  0  0  0  0  0  0  0  0  0
  1  2  2  0
  2  3  2  0
  2  4  1  0
  4  5  1  0
  5  6  2  0
  6  7  1  0
  7  8  2  0
  8  9  1  0
  9 10  2  0
  2 11  1  0
 11 12  1  0
 12 13  1  0
 13 14  2  0
 14 15  1  0
 15 16  2  0
 16 17  1  0
 17 18  2  0
 18 19  1  0
 19 20  1  0
 20 21  2  0
 21 22  1  0
 22 23  1  0
 23 24  2  0
 24 25  1  0
 25 26  2  0
 26 27  1  0
 27 28  2  0
 10  5  1  0
 19 11  1  0
 28 20  1  0
 18 13  1  0
 28 23  1  0
  4 29  1  0
  4 30  1  0
  6 31  1  0
  7 32  1  0
  8 33  1  0
  9 34  1  0
 10 35  1  0
 12 36  1  0
 12 37  1  0
 14 38  1  0
 15 39  1  0
 16 40  1  0
 17 41  1  0
 19 42  1  6
 21 43  1  0
 22 44  1  0
 24 45  1  0
 25 46  1  0
 26 47  1  0
 27 48  1  0
M  END
>  <UniqueID>  (64) 
240

>  <SMILES>  (64) 
O=S(=O)(Cc1ccccc1)N1Cc2ccccc2[C@H]1c1c[nH]c2ccccc12

>  <Energy>  (64) 
103.4226599959764

>  <Genealogy>  (64) 
O=S(=O)(Cc1ccccc1)N1Cc2ccccc2[C@H]1c1c[nH]c2ccccc12 (3D coordinates assigned)
O=S(=O)(Cc1ccccc1)N1Cc2ccccc2[C@H]1c1c[nH]c2ccccc12 (nonaromatic ring conformer: 103.4226599959764 kcal/mol)

>  <smiles>  (64) 
O=S(=O)(Cc1ccccc1)N1Cc2ccccc2[C@H]1c1c[nH]c2ccccc12

>  <score_type>  (64) 
oracle

>  <origin>  (64) 
autodockgpu

>  <m_score__min__energy>  (64) 
-8.4100000000000001

>  <m_primary>  (64) 
energy

>  <meeko>  (64) 
{"free_energy": -6.72, "intermolecular_energy": -7.92, "internal_energy": -2.47, "cluster_size": 12, "cluster_id": 4, "rank_in_cluster": 1}

>  <energy>  (64) 
-7.52

>  <cluster_rmsd>  (64) 
0.09

>  <rmsd>  (64) 
268.73

>  <cluster>  (64) 
2

$$$$
WCZRIPJXOMUAPT-QHCPKHFHNA-N
     RDKit          3D

 48 52  0  0  0  0  0  0  0  0999 V2000
  138.7930   77.0860  222.8280 O   0  0  0  0  0  0  0  0  0  0  0  0
  139.9420   76.5200  222.0430 S   0  0  0  0  0  0  0  0  0  0  0  0
  139.9350   75.0340  222.2610 O   0  0  0  0  0  0  0  0  0  0  0  0
  141.4360   77.2410  222.7500 C   0  0  0  0  0  0  0  0  0  0  0  0
  141.4190   78.7450  222.8120 C   0  0  0  0  0  0  0  0  0  0  0  0
  142.5650   79.4840  222.4740 C   0  0  0  0  0  0  0  0  0  0  0  0
  142.5740   80.8770  222.6090 C   0  0  0  0  0  0  0  0  0  0  0  0
  141.4460   81.5390  223.1000 C   0  0  0  0  0  0  0  0  0  0  0  0
  140.3100   80.8110  223.4630 C   0  0  0  0  0  0  0  0  0  0  0  0
  140.2960   79.4200  223.3250 C   0  0  0  0  0  0  0  0  0  0  0  0
  139.6500   76.9190  220.3480 N   0  0  0  0  0  0  0  0  0  0  0  0
  138.9760   78.2350  220.2690 C   0  0  0  0  0  0  0  0  0  0  0  0
  140.0420   79.1920  219.8860 C   0  0  0  0  0  0  0  0  0  0  0  0
  139.9730   80.5860  219.8420 C   0  0  0  0  0  0  0  0  0  0  0  0
  141.0670   81.2940  219.3220 C   0  0  0  0  0  0  0  0  0  0  0  0
  142.1840   80.5990  218.8180 C   0  0  0  0  0  0  0  0  0  0  0  0
  142.2140   79.1960  218.8470 C   0  0  0  0  0  0  0  0  0  0  0  0
  141.1440   78.5160  219.4400 C   0  0  0  0  0  0  0  0  0  0  0  0
  140.8520   77.0590  219.4740 C   0  0  1  0  0  0  0  0  0  0  0  0
  142.0080   76.1300  219.7800 C   0  0  0  0  0  0  0  0  0  0  0  0
  143.3700   76.4220  219.8510 C   0  0  0  0  0  0  0  0  0  0  0  0
  144.0860   75.3020  220.0970 N   0  0  0  0  0  0  0  0  0  0  0  0
  143.1960   74.2990  220.1650 C   0  0  0  0  0  0  0  0  0  0  0  0
  143.4590   72.9490  220.3950 C   0  0  0  0  0  0  0  0  0  0  0  0
  142.3670   72.0620  220.4200 C   0  0  0  0  0  0  0  0  0  0  0  0
  141.0540   72.5390  220.2170 C   0  0  0  0  0  0  0  0  0  0  0  0
  140.8190   73.9070  219.9860 C   0  0  0  0  0  0  0  0  0  0  0  0
  141.9210   74.7620  219.9670 C   0  0  0  0  0  0  0  0  0  0  0  0
  141.5566   76.8539  223.7725 H   0  0  0  0  0  0  0  0  0  0  0  0
  142.2692   76.9588  222.0896 H   0  0  0  0  0  0  0  0  0  0  0  0
  143.4603   78.9649  222.1012 H   0  0  0  0  0  0  0  0  0  0  0  0
  143.4696   81.4508  222.3284 H   0  0  0  0  0  0  0  0  0  0  0  0
  141.4522   82.6343  223.2009 H   0  0  0  0  0  0  0  0  0  0  0  0
  139.4258   81.3329  223.8577 H   0  0  0  0  0  0  0  0  0  0  0  0
  139.4023   78.8501  223.6190 H   0  0  0  0  0  0  0  0  0  0  0  0
  138.1815   78.2170  219.5084 H   0  0  0  0  0  0  0  0  0  0  0  0
  138.4967   78.5106  221.2199 H   0  0  0  0  0  0  0  0  0  0  0  0
  139.0813   81.1169  220.2067 H   0  0  0  0  0  0  0  0  0  0  0  0
  141.0525   82.3938  219.3078 H   0  0  0  0  0  0  0  0  0  0  0  0
  143.0349   81.1573  218.4006 H   0  0  0  0  0  0  0  0  0  0  0  0
  143.0601   78.6429  218.4131 H   0  0  0  0  0  0  0  0  0  0  0  0
  140.6462   76.6957  218.4563 H   0  0  0  0  0  0  0  0  0  0  0  0
  143.8021   77.4256  219.7243 H   0  0  0  0  0  0  0  0  0  0  0  0
  145.1230   75.2340  220.1990 H   0  0  0  0  0  0  0  0  0  0  0  0
  144.4866   72.5892  220.5518 H   0  0  0  0  0  0  0  0  0  0  0  0
  142.5375   70.9901  220.5989 H   0  0  0  0  0  0  0  0  0  0  0  0
  140.2082   71.8360  220.2396 H   0  0  0  0  0  0  0  0  0  0  0  0
  139.8002   74.2895  219.8257 H   0  0  0  0  0  0  0  0  0  0  0  0
  1  2  2  0
  2  3  2  0
  2  4  1  0
  4  5  1  0
  5  6  2  0
  6  7  1  0
  7  8  2  0
  8  9  1  0
  9 10  2  0
  2 11  1  0
 11 12  1  0
 12 13  1  0
 13 14  2  0
 14 15  1  0
 15 16  2  0
 16 17  1  0
 17 18  2  0
 18 19  1  0
 19 20  1  0
 20 21  2  0
 21 22  1  0
 22 23  1  0
 23 24  2  0
 24 25  1  0
 25 26  2  0
 26 27  1  0
 27 28  2  0
 10  5  1  0
 19 11  1  0
 28 20  1  0
 18 13  1  0
 28 23  1  0
  4 29  1  0
  4 30  1  0
  6 31  1  0
  7 32  1  0
  8 33  1  0
  9 34  1  0
 10 35  1  0
 12 36  1  0
 12 37  1  0
 14 38  1  0
 15 39  1  0
 16 40  1  0
 17 41  1  0
 19 42  1  6
 21 43  1  0
 22 44  1  0
 24 45  1  0
 25 46  1  0
 26 47  1  0
 27 48  1  0
M  END
>  <UniqueID>  (65) 
240

>  <SMILES>  (65) 
O=S(=O)(Cc1ccccc1)N1Cc2ccccc2[C@H]1c1c[nH]c2ccccc12

>  <Energy>  (65) 
103.4226599959764

>  <Genealogy>  (65) 
O=S(=O)(Cc1ccccc1)N1Cc2ccccc2[C@H]1c1c[nH]c2ccccc12 (3D coordinates assigned)
O=S(=O)(Cc1ccccc1)N1Cc2ccccc2[C@H]1c1c[nH]c2ccccc12 (nonaromatic ring conformer: 103.4226599959764 kcal/mol)

>  <smiles>  (65) 
O=S(=O)(Cc1ccccc1)N1Cc2ccccc2[C@H]1c1c[nH]c2ccccc12

>  <score_type>  (65) 
oracle

>  <origin>  (65) 
autodockgpu

>  <m_score__min__energy>  (65) 
-8.4100000000000001

>  <m_primary>  (65) 
energy

>  <meeko>  (65) 
{"free_energy": -6.71, "intermolecular_energy": -7.91, "internal_energy": -2.48, "cluster_size": 12, "cluster_id": 4, "rank_in_cluster": 10}

>  <energy>  (65) 
-7.51

>  <cluster_rmsd>  (65) 
0.37

>  <rmsd>  (65) 
268.74

>  <cluster>  (65) 
2

$$$$
WCZRIPJXOMUAPT-QHCPKHFHNA-N
     RDKit          3D

 48 52  0  0  0  0  0  0  0  0999 V2000
  141.4290   74.6150  221.7830 O   0  0  0  0  0  0  0  0  0  0  0  0
  141.3560   75.4290  220.5210 S   0  0  0  0  0  0  0  0  0  0  0  0
  140.7630   74.5460  219.4610 O   0  0  0  0  0  0  0  0  0  0  0  0
  143.0570   75.8480  220.0950 C   0  0  0  0  0  0  0  0  0  0  0  0
  143.9670   74.6550  219.9670 C   0  0  0  0  0  0  0  0  0  0  0  0
  143.6710   73.6300  219.0530 C   0  0  0  0  0  0  0  0  0  0  0  0
  144.4730   72.4850  218.9900 C   0  0  0  0  0  0  0  0  0  0  0  0
  145.5640   72.3470  219.8530 C   0  0  0  0  0  0  0  0  0  0  0  0
  145.8510   73.3490  220.7830 C   0  0  0  0  0  0  0  0  0  0  0  0
  145.0550   74.4970  220.8450 C   0  0  0  0  0  0  0  0  0  0  0  0
  140.3100   76.8100  220.8630 N   0  0  0  0  0  0  0  0  0  0  0  0
  140.2360   77.0110  222.3270 C   0  0  0  0  0  0  0  0  0  0  0  0
  141.1430   78.1510  222.6070 C   0  0  0  0  0  0  0  0  0  0  0  0
  141.5620   78.6330  223.8480 C   0  0  0  0  0  0  0  0  0  0  0  0
  142.3230   79.8110  223.8860 C   0  0  0  0  0  0  0  0  0  0  0  0
  142.6110   80.5050  222.6950 C   0  0  0  0  0  0  0  0  0  0  0  0
  142.1510   80.0130  221.4620 C   0  0  0  0  0  0  0  0  0  0  0  0
  141.4590   78.7960  221.4440 C   0  0  0  0  0  0  0  0  0  0  0  0
  140.7450   78.1320  220.3230 C   0  0  1  0  0  0  0  0  0  0  0  0
  141.4440   78.1040  218.9800 C   0  0  0  0  0  0  0  0  0  0  0  0
  142.5970   78.7780  218.5790 C   0  0  0  0  0  0  0  0  0  0  0  0
  142.8670   78.5300  217.2780 N   0  0  0  0  0  0  0  0  0  0  0  0
  141.8880   77.7200  216.8420 C   0  0  0  0  0  0  0  0  0  0  0  0
  141.7310   77.1980  215.5590 C   0  0  0  0  0  0  0  0  0  0  0  0
  140.6190   76.3690  215.3190 C   0  0  0  0  0  0  0  0  0  0  0  0
  139.7010   76.0870  216.3540 C   0  0  0  0  0  0  0  0  0  0  0  0
  139.8850   76.6300  217.6390 C   0  0  0  0  0  0  0  0  0  0  0  0
  140.9970   77.4470  217.8470 C   0  0  0  0  0  0  0  0  0  0  0  0
  143.0513   76.3836  219.1342 H   0  0  0  0  0  0  0  0  0  0  0  0
  143.4500   76.4616  220.9190 H   0  0  0  0  0  0  0  0  0  0  0  0
  142.8040   73.7280  218.3831 H   0  0  0  0  0  0  0  0  0  0  0  0
  144.2449   71.6933  218.2612 H   0  0  0  0  0  0  0  0  0  0  0  0
  146.1969   71.4489  219.7997 H   0  0  0  0  0  0  0  0  0  0  0  0
  146.7044   73.2348  221.4676 H   0  0  0  0  0  0  0  0  0  0  0  0
  145.2805   75.2802  221.5837 H   0  0  0  0  0  0  0  0  0  0  0  0
  139.2071   77.2522  222.6321 H   0  0  0  0  0  0  0  0  0  0  0  0
  140.5267   76.1070  222.8823 H   0  0  0  0  0  0  0  0  0  0  0  0
  141.3015   78.1014  224.7751 H   0  0  0  0  0  0  0  0  0  0  0  0
  142.6954   80.1932  224.8479 H   0  0  0  0  0  0  0  0  0  0  0  0
  143.1977   81.4348  222.7301 H   0  0  0  0  0  0  0  0  0  0  0  0
  142.3305   80.5715  220.5315 H   0  0  0  0  0  0  0  0  0  0  0  0
  139.8801   78.7395  220.0182 H   0  0  0  0  0  0  0  0  0  0  0  0
  143.2035   79.4230  219.2318 H   0  0  0  0  0  0  0  0  0  0  0  0
  143.6690   78.9050  216.7240 H   0  0  0  0  0  0  0  0  0  0  0  0
  142.4523   77.4264  214.7605 H   0  0  0  0  0  0  0  0  0  0  0  0
  140.4642   75.9382  214.3188 H   0  0  0  0  0  0  0  0  0  0  0  0
  138.8356   75.4380  216.1543 H   0  0  0  0  0  0  0  0  0  0  0  0
  139.1758   76.4175  218.4526 H   0  0  0  0  0  0  0  0  0  0  0  0
  1  2  2  0
  2  3  2  0
  2  4  1  0
  4  5  1  0
  5  6  2  0
  6  7  1  0
  7  8  2  0
  8  9  1  0
  9 10  2  0
  2 11  1  0
 11 12  1  0
 12 13  1  0
 13 14  2  0
 14 15  1  0
 15 16  2  0
 16 17  1  0
 17 18  2  0
 18 19  1  0
 19 20  1  0
 20 21  2  0
 21 22  1  0
 22 23  1  0
 23 24  2  0
 24 25  1  0
 25 26  2  0
 26 27  1  0
 27 28  2  0
 10  5  1  0
 19 11  1  0
 28 20  1  0
 18 13  1  0
 28 23  1  0
  4 29  1  0
  4 30  1  0
  6 31  1  0
  7 32  1  0
  8 33  1  0
  9 34  1  0
 10 35  1  0
 12 36  1  0
 12 37  1  0
 14 38  1  0
 15 39  1  0
 16 40  1  0
 17 41  1  0
 19 42  1  6
 21 43  1  0
 22 44  1  0
 24 45  1  0
 25 46  1  0
 26 47  1  0
 27 48  1  0
M  END
>  <UniqueID>  (66) 
240

>  <SMILES>  (66) 
O=S(=O)(Cc1ccccc1)N1Cc2ccccc2[C@H]1c1c[nH]c2ccccc12

>  <Energy>  (66) 
103.4226599959764

>  <Genealogy>  (66) 
O=S(=O)(Cc1ccccc1)N1Cc2ccccc2[C@H]1c1c[nH]c2ccccc12 (3D coordinates assigned)
O=S(=O)(Cc1ccccc1)N1Cc2ccccc2[C@H]1c1c[nH]c2ccccc12 (nonaromatic ring conformer: 103.4226599959764 kcal/mol)

>  <smiles>  (66) 
O=S(=O)(Cc1ccccc1)N1Cc2ccccc2[C@H]1c1c[nH]c2ccccc12

>  <score_type>  (66) 
oracle

>  <origin>  (66) 
autodockgpu

>  <m_score__min__energy>  (66) 
-8.4100000000000001

>  <m_primary>  (66) 
energy

>  <meeko>  (66) 
{"free_energy": -7.46, "intermolecular_energy": -8.65, "internal_energy": -1.75, "cluster_size": 5, "cluster_id": 2, "rank_in_cluster": 5}

>  <energy>  (66) 
-7.5

>  <cluster_rmsd>  (66) 
0.39

>  <rmsd>  (66) 
268.74

>  <cluster>  (66) 
2

$$$$
WCZRIPJXOMUAPT-QHCPKHFHNA-N
     RDKit          3D

 48 52  0  0  0  0  0  0  0  0999 V2000
  138.7970   77.0630  222.8340 O   0  0  0  0  0  0  0  0  0  0  0  0
  139.9470   76.4990  222.0480 S   0  0  0  0  0  0  0  0  0  0  0  0
  139.9450   75.0130  222.2680 O   0  0  0  0  0  0  0  0  0  0  0  0
  141.4400   77.2260  222.7500 C   0  0  0  0  0  0  0  0  0  0  0  0
  141.4160   78.7300  222.8140 C   0  0  0  0  0  0  0  0  0  0  0  0
  142.5580   79.4730  222.4720 C   0  0  0  0  0  0  0  0  0  0  0  0
  142.5610   80.8660  222.6070 C   0  0  0  0  0  0  0  0  0  0  0  0
  141.4320   81.5240  223.1030 C   0  0  0  0  0  0  0  0  0  0  0  0
  140.3010   80.7900  223.4700 C   0  0  0  0  0  0  0  0  0  0  0  0
  140.2930   79.3990  223.3310 C   0  0  0  0  0  0  0  0  0  0  0  0
  139.6500   76.8940  220.3520 N   0  0  0  0  0  0  0  0  0  0  0  0
  138.9680   78.2060  220.2730 C   0  0  0  0  0  0  0  0  0  0  0  0
  140.0270   79.1690  219.8870 C   0  0  0  0  0  0  0  0  0  0  0  0
  139.9490   80.5620  219.8420 C   0  0  0  0  0  0  0  0  0  0  0  0
  141.0380   81.2770  219.3200 C   0  0  0  0  0  0  0  0  0  0  0  0
  142.1580   80.5890  218.8160 C   0  0  0  0  0  0  0  0  0  0  0  0
  142.1980   79.1850  218.8460 C   0  0  0  0  0  0  0  0  0  0  0  0
  141.1320   78.4990  219.4410 C   0  0  0  0  0  0  0  0  0  0  0  0
  140.8500   77.0410  219.4770 C   0  0  1  0  0  0  0  0  0  0  0  0
  142.0120   76.1190  219.7830 C   0  0  0  0  0  0  0  0  0  0  0  0
  143.3720   76.4200  219.8470 C   0  0  0  0  0  0  0  0  0  0  0  0
  144.0960   75.3040  220.0950 N   0  0  0  0  0  0  0  0  0  0  0  0
  143.2120   74.2970  220.1710 C   0  0  0  0  0  0  0  0  0  0  0  0
  143.4840   72.9500  220.4050 C   0  0  0  0  0  0  0  0  0  0  0  0
  142.3970   72.0570  220.4380 C   0  0  0  0  0  0  0  0  0  0  0  0
  141.0800   72.5250  220.2370 C   0  0  0  0  0  0  0  0  0  0  0  0
  140.8360   73.8910  220.0020 C   0  0  0  0  0  0  0  0  0  0  0  0
  141.9340   74.7520  219.9760 C   0  0  0  0  0  0  0  0  0  0  0  0
  141.5664   76.8381  223.7716 H   0  0  0  0  0  0  0  0  0  0  0  0
  142.2720   76.9486  222.0861 H   0  0  0  0  0  0  0  0  0  0  0  0
  143.4542   78.9575  222.0963 H   0  0  0  0  0  0  0  0  0  0  0  0
  143.4528   81.4436  222.3224 H   0  0  0  0  0  0  0  0  0  0  0  0
  141.4338   82.6193  223.2044 H   0  0  0  0  0  0  0  0  0  0  0  0
  139.4159   81.3073  223.8688 H   0  0  0  0  0  0  0  0  0  0  0  0
  139.4030   78.8248  223.6278 H   0  0  0  0  0  0  0  0  0  0  0  0
  138.1721   78.1825  219.5140 H   0  0  0  0  0  0  0  0  0  0  0  0
  138.4891   78.4796  221.2247 H   0  0  0  0  0  0  0  0  0  0  0  0
  139.0543   81.0874  220.2074 H   0  0  0  0  0  0  0  0  0  0  0  0
  141.0164   82.3767  219.3047 H   0  0  0  0  0  0  0  0  0  0  0  0
  143.0047   81.1526  218.3972 H   0  0  0  0  0  0  0  0  0  0  0  0
  143.0473   78.6370  218.4120 H   0  0  0  0  0  0  0  0  0  0  0  0
  140.6463   76.6758  218.4596 H   0  0  0  0  0  0  0  0  0  0  0  0
  143.7975   77.4256  219.7142 H   0  0  0  0  0  0  0  0  0  0  0  0
  145.1340   75.2430  220.1930 H   0  0  0  0  0  0  0  0  0  0  0  0
  144.5143   72.5968  220.5588 H   0  0  0  0  0  0  0  0  0  0  0  0
  142.5744   70.9870  220.6216 H   0  0  0  0  0  0  0  0  0  0  0  0
  140.2387   71.8168  220.2643 H   0  0  0  0  0  0  0  0  0  0  0  0
  139.8145   74.2673  219.8442 H   0  0  0  0  0  0  0  0  0  0  0  0
  1  2  2  0
  2  3  2  0
  2  4  1  0
  4  5  1  0
  5  6  2  0
  6  7  1  0
  7  8  2  0
  8  9  1  0
  9 10  2  0
  2 11  1  0
 11 12  1  0
 12 13  1  0
 13 14  2  0
 14 15  1  0
 15 16  2  0
 16 17  1  0
 17 18  2  0
 18 19  1  0
 19 20  1  0
 20 21  2  0
 21 22  1  0
 22 23  1  0
 23 24  2  0
 24 25  1  0
 25 26  2  0
 26 27  1  0
 27 28  2  0
 10  5  1  0
 19 11  1  0
 28 20  1  0
 18 13  1  0
 28 23  1  0
  4 29  1  0
  4 30  1  0
  6 31  1  0
  7 32  1  0
  8 33  1  0
  9 34  1  0
 10 35  1  0
 12 36  1  0
 12 37  1  0
 14 38  1  0
 15 39  1  0
 16 40  1  0
 17 41  1  0
 19 42  1  6
 21 43  1  0
 22 44  1  0
 24 45  1  0
 25 46  1  0
 26 47  1  0
 27 48  1  0
M  END
>  <UniqueID>  (67) 
240

>  <SMILES>  (67) 
O=S(=O)(Cc1ccccc1)N1Cc2ccccc2[C@H]1c1c[nH]c2ccccc12

>  <Energy>  (67) 
103.4226599959764

>  <Genealogy>  (67) 
O=S(=O)(Cc1ccccc1)N1Cc2ccccc2[C@H]1c1c[nH]c2ccccc12 (3D coordinates assigned)
O=S(=O)(Cc1ccccc1)N1Cc2ccccc2[C@H]1c1c[nH]c2ccccc12 (nonaromatic ring conformer: 103.4226599959764 kcal/mol)

>  <smiles>  (67) 
O=S(=O)(Cc1ccccc1)N1Cc2ccccc2[C@H]1c1c[nH]c2ccccc12

>  <score_type>  (67) 
oracle

>  <origin>  (67) 
autodockgpu

>  <m_score__min__energy>  (67) 
-8.4100000000000001

>  <m_primary>  (67) 
energy

>  <meeko>  (67) 
{"free_energy": -6.72, "intermolecular_energy": -7.91, "internal_energy": -2.47, "cluster_size": 12, "cluster_id": 4, "rank_in_cluster": 2}

>  <energy>  (67) 
-7.46

>  <cluster_rmsd>  (67) 
0.41

>  <rmsd>  (67) 
268.72

>  <cluster>  (67) 
2

$$$$
WCZRIPJXOMUAPT-QHCPKHFHNA-N
     RDKit          3D

 48 52  0  0  0  0  0  0  0  0999 V2000
  138.8050   77.0790  222.8130 O   0  0  0  0  0  0  0  0  0  0  0  0
  139.9570   76.5120  222.0320 S   0  0  0  0  0  0  0  0  0  0  0  0
  139.9540   75.0270  222.2570 O   0  0  0  0  0  0  0  0  0  0  0  0
  141.4480   77.2400  222.7380 C   0  0  0  0  0  0  0  0  0  0  0  0
  141.4220   78.7440  222.8040 C   0  0  0  0  0  0  0  0  0  0  0  0
  142.5610   79.4910  222.4570 C   0  0  0  0  0  0  0  0  0  0  0  0
  142.5620   80.8830  222.5950 C   0  0  0  0  0  0  0  0  0  0  0  0
  141.4340   81.5370  223.0990 C   0  0  0  0  0  0  0  0  0  0  0  0
  140.3060   80.8010  223.4700 C   0  0  0  0  0  0  0  0  0  0  0  0
  140.3000   79.4100  223.3290 C   0  0  0  0  0  0  0  0  0  0  0  0
  139.6660   76.9020  220.3350 N   0  0  0  0  0  0  0  0  0  0  0  0
  138.9810   78.2110  220.2490 C   0  0  0  0  0  0  0  0  0  0  0  0
  140.0390   79.1770  219.8660 C   0  0  0  0  0  0  0  0  0  0  0  0
  139.9570   80.5700  219.8160 C   0  0  0  0  0  0  0  0  0  0  0  0
  141.0460   81.2860  219.2970 C   0  0  0  0  0  0  0  0  0  0  0  0
  142.1700   80.6000  218.7990 C   0  0  0  0  0  0  0  0  0  0  0  0
  142.2140   79.1970  218.8340 C   0  0  0  0  0  0  0  0  0  0  0  0
  141.1480   78.5090  219.4250 C   0  0  0  0  0  0  0  0  0  0  0  0
  140.8690   77.0500  219.4640 C   0  0  1  0  0  0  0  0  0  0  0  0
  142.0330   76.1330  219.7770 C   0  0  0  0  0  0  0  0  0  0  0  0
  143.3920   76.4370  219.8450 C   0  0  0  0  0  0  0  0  0  0  0  0
  144.1180   75.3240  220.1000 N   0  0  0  0  0  0  0  0  0  0  0  0
  143.2360   74.3140  220.1760 C   0  0  0  0  0  0  0  0  0  0  0  0
  143.5110   72.9690  220.4150 C   0  0  0  0  0  0  0  0  0  0  0  0
  142.4260   72.0730  220.4470 C   0  0  0  0  0  0  0  0  0  0  0  0
  141.1090   72.5370  220.2400 C   0  0  0  0  0  0  0  0  0  0  0  0
  140.8620   73.9020  219.9990 C   0  0  0  0  0  0  0  0  0  0  0  0
  141.9580   74.7660  219.9740 C   0  0  0  0  0  0  0  0  0  0  0  0
  141.5729   76.8509  223.7593 H   0  0  0  0  0  0  0  0  0  0  0  0
  142.2817   76.9645  222.0753 H   0  0  0  0  0  0  0  0  0  0  0  0
  143.4561   78.9783  222.0750 H   0  0  0  0  0  0  0  0  0  0  0  0
  143.4509   81.4633  222.3068 H   0  0  0  0  0  0  0  0  0  0  0  0
  141.4346   82.6320  223.2036 H   0  0  0  0  0  0  0  0  0  0  0  0
  139.4218   81.3163  223.8734 H   0  0  0  0  0  0  0  0  0  0  0  0
  139.4130   78.8334  223.6303 H   0  0  0  0  0  0  0  0  0  0  0  0
  138.1892   78.1830  219.4859 H   0  0  0  0  0  0  0  0  0  0  0  0
  138.4965   78.4854  221.1976 H   0  0  0  0  0  0  0  0  0  0  0  0
  139.0590   81.0940  220.1753 H   0  0  0  0  0  0  0  0  0  0  0  0
  141.0216   82.3856  219.2791 H   0  0  0  0  0  0  0  0  0  0  0  0
  143.0164   81.1649  218.3812 H   0  0  0  0  0  0  0  0  0  0  0  0
  143.0675   78.6506  218.4063 H   0  0  0  0  0  0  0  0  0  0  0  0
  140.6689   76.6810  218.4472 H   0  0  0  0  0  0  0  0  0  0  0  0
  143.8157   77.4431  219.7099 H   0  0  0  0  0  0  0  0  0  0  0  0
  145.1560   75.2660  220.2020 H   0  0  0  0  0  0  0  0  0  0  0  0
  144.5418   72.6191  220.5734 H   0  0  0  0  0  0  0  0  0  0  0  0
  142.6055   71.0041  220.6346 H   0  0  0  0  0  0  0  0  0  0  0  0
  140.2694   71.8268  220.2672 H   0  0  0  0  0  0  0  0  0  0  0  0
  139.8401   74.2749  219.8359 H   0  0  0  0  0  0  0  0  0  0  0  0
  1  2  2  0
  2  3  2  0
  2  4  1  0
  4  5  1  0
  5  6  2  0
  6  7  1  0
  7  8  2  0
  8  9  1  0
  9 10  2  0
  2 11  1  0
 11 12  1  0
 12 13  1  0
 13 14  2  0
 14 15  1  0
 15 16  2  0
 16 17  1  0
 17 18  2  0
 18 19  1  0
 19 20  1  0
 20 21  2  0
 21 22  1  0
 22 23  1  0
 23 24  2  0
 24 25  1  0
 25 26  2  0
 26 27  1  0
 27 28  2  0
 10  5  1  0
 19 11  1  0
 28 20  1  0
 18 13  1  0
 28 23  1  0
  4 29  1  0
  4 30  1  0
  6 31  1  0
  7 32  1  0
  8 33  1  0
  9 34  1  0
 10 35  1  0
 12 36  1  0
 12 37  1  0
 14 38  1  0
 15 39  1  0
 16 40  1  0
 17 41  1  0
 19 42  1  6
 21 43  1  0
 22 44  1  0
 24 45  1  0
 25 46  1  0
 26 47  1  0
 27 48  1  0
M  END
>  <UniqueID>  (68) 
240

>  <SMILES>  (68) 
O=S(=O)(Cc1ccccc1)N1Cc2ccccc2[C@H]1c1c[nH]c2ccccc12

>  <Energy>  (68) 
103.4226599959764

>  <Genealogy>  (68) 
O=S(=O)(Cc1ccccc1)N1Cc2ccccc2[C@H]1c1c[nH]c2ccccc12 (3D coordinates assigned)
O=S(=O)(Cc1ccccc1)N1Cc2ccccc2[C@H]1c1c[nH]c2ccccc12 (nonaromatic ring conformer: 103.4226599959764 kcal/mol)

>  <smiles>  (68) 
O=S(=O)(Cc1ccccc1)N1Cc2ccccc2[C@H]1c1c[nH]c2ccccc12

>  <score_type>  (68) 
oracle

>  <origin>  (68) 
autodockgpu

>  <m_score__min__energy>  (68) 
-8.4100000000000001

>  <m_primary>  (68) 
energy

>  <meeko>  (68) 
{"free_energy": -6.72, "intermolecular_energy": -7.91, "internal_energy": -2.48, "cluster_size": 12, "cluster_id": 4, "rank_in_cluster": 6}

>  <energy>  (68) 
-6.84

>  <cluster_rmsd>  (68) 
0.0

>  <rmsd>  (68) 
269.6

>  <cluster>  (68) 
3

$$$$
WCZRIPJXOMUAPT-QHCPKHFHNA-N
     RDKit          3D

 48 52  0  0  0  0  0  0  0  0999 V2000
  138.7980   77.0800  222.8360 O   0  0  0  0  0  0  0  0  0  0  0  0
  139.9450   76.5160  222.0470 S   0  0  0  0  0  0  0  0  0  0  0  0
  139.9420   75.0300  222.2650 O   0  0  0  0  0  0  0  0  0  0  0  0
  141.4400   77.2390  222.7500 C   0  0  0  0  0  0  0  0  0  0  0  0
  141.4210   78.7430  222.8110 C   0  0  0  0  0  0  0  0  0  0  0  0
  142.5670   79.4830  222.4710 C   0  0  0  0  0  0  0  0  0  0  0  0
  142.5730   80.8760  222.6040 C   0  0  0  0  0  0  0  0  0  0  0  0
  141.4450   81.5380  223.0960 C   0  0  0  0  0  0  0  0  0  0  0  0
  140.3100   80.8090  223.4600 C   0  0  0  0  0  0  0  0  0  0  0  0
  140.2980   79.4170  223.3240 C   0  0  0  0  0  0  0  0  0  0  0  0
  139.6470   76.9150  220.3530 N   0  0  0  0  0  0  0  0  0  0  0  0
  138.9680   78.2280  220.2770 C   0  0  0  0  0  0  0  0  0  0  0  0
  140.0290   79.1890  219.8910 C   0  0  0  0  0  0  0  0  0  0  0  0
  139.9540   80.5830  219.8480 C   0  0  0  0  0  0  0  0  0  0  0  0
  141.0440   81.2960  219.3260 C   0  0  0  0  0  0  0  0  0  0  0  0
  142.1620   80.6060  218.8190 C   0  0  0  0  0  0  0  0  0  0  0  0
  142.1990   79.2020  218.8470 C   0  0  0  0  0  0  0  0  0  0  0  0
  141.1320   78.5170  219.4420 C   0  0  0  0  0  0  0  0  0  0  0  0
  140.8460   77.0600  219.4760 C   0  0  1  0  0  0  0  0  0  0  0  0
  142.0070   76.1350  219.7790 C   0  0  0  0  0  0  0  0  0  0  0  0
  143.3680   76.4330  219.8450 C   0  0  0  0  0  0  0  0  0  0  0  0
  144.0890   75.3150  220.0900 N   0  0  0  0  0  0  0  0  0  0  0  0
  143.2030   74.3090  220.1600 C   0  0  0  0  0  0  0  0  0  0  0  0
  143.4720   72.9600  220.3890 C   0  0  0  0  0  0  0  0  0  0  0  0
  142.3840   72.0690  220.4180 C   0  0  0  0  0  0  0  0  0  0  0  0
  141.0680   72.5400  220.2180 C   0  0  0  0  0  0  0  0  0  0  0  0
  140.8270   73.9080  219.9880 C   0  0  0  0  0  0  0  0  0  0  0  0
  141.9260   74.7670  219.9660 C   0  0  0  0  0  0  0  0  0  0  0  0
  141.5636   76.8526  223.7725 H   0  0  0  0  0  0  0  0  0  0  0  0
  142.2721   76.9573  222.0880 H   0  0  0  0  0  0  0  0  0  0  0  0
  143.4630   78.9647  222.0987 H   0  0  0  0  0  0  0  0  0  0  0  0
  143.4671   81.4508  222.3208 H   0  0  0  0  0  0  0  0  0  0  0  0
  141.4506   82.6334  223.1967 H   0  0  0  0  0  0  0  0  0  0  0  0
  139.4251   81.3303  223.8539 H   0  0  0  0  0  0  0  0  0  0  0  0
  139.4055   78.8462  223.6198 H   0  0  0  0  0  0  0  0  0  0  0  0
  138.1711   78.2075  219.5191 H   0  0  0  0  0  0  0  0  0  0  0  0
  138.4908   78.5013  221.2297 H   0  0  0  0  0  0  0  0  0  0  0  0
  139.0608   81.1099  220.2150 H   0  0  0  0  0  0  0  0  0  0  0  0
  141.0252   82.3958  219.3128 H   0  0  0  0  0  0  0  0  0  0  0  0
  143.0093   81.1684  218.3996 H   0  0  0  0  0  0  0  0  0  0  0  0
  143.0469   78.6530  218.4115 H   0  0  0  0  0  0  0  0  0  0  0  0
  140.6390   76.6964  218.4587 H   0  0  0  0  0  0  0  0  0  0  0  0
  143.7958   77.4381  219.7157 H   0  0  0  0  0  0  0  0  0  0  0  0
  145.1270   75.2510  220.1880 H   0  0  0  0  0  0  0  0  0  0  0  0
  144.5016   72.6042  220.5420 H   0  0  0  0  0  0  0  0  0  0  0  0
  142.5596   70.9981  220.5977 H   0  0  0  0  0  0  0  0  0  0  0  0
  140.2253   71.8334  220.2420 H   0  0  0  0  0  0  0  0  0  0  0  0
  139.8063   74.2868  219.8309 H   0  0  0  0  0  0  0  0  0  0  0  0
  1  2  2  0
  2  3  2  0
  2  4  1  0
  4  5  1  0
  5  6  2  0
  6  7  1  0
  7  8  2  0
  8  9  1  0
  9 10  2  0
  2 11  1  0
 11 12  1  0
 12 13  1  0
 13 14  2  0
 14 15  1  0
 15 16  2  0
 16 17  1  0
 17 18  2  0
 18 19  1  0
 19 20  1  0
 20 21  2  0
 21 22  1  0
 22 23  1  0
 23 24  2  0
 24 25  1  0
 25 26  2  0
 26 27  1  0
 27 28  2  0
 10  5  1  0
 19 11  1  0
 28 20  1  0
 18 13  1  0
 28 23  1  0
  4 29  1  0
  4 30  1  0
  6 31  1  0
  7 32  1  0
  8 33  1  0
  9 34  1  0
 10 35  1  0
 12 36  1  0
 12 37  1  0
 14 38  1  0
 15 39  1  0
 16 40  1  0
 17 41  1  0
 19 42  1  6
 21 43  1  0
 22 44  1  0
 24 45  1  0
 25 46  1  0
 26 47  1  0
 27 48  1  0
M  END
>  <UniqueID>  (69) 
240

>  <SMILES>  (69) 
O=S(=O)(Cc1ccccc1)N1Cc2ccccc2[C@H]1c1c[nH]c2ccccc12

>  <Energy>  (69) 
103.4226599959764

>  <Genealogy>  (69) 
O=S(=O)(Cc1ccccc1)N1Cc2ccccc2[C@H]1c1c[nH]c2ccccc12 (3D coordinates assigned)
O=S(=O)(Cc1ccccc1)N1Cc2ccccc2[C@H]1c1c[nH]c2ccccc12 (nonaromatic ring conformer: 103.4226599959764 kcal/mol)

>  <smiles>  (69) 
O=S(=O)(Cc1ccccc1)N1Cc2ccccc2[C@H]1c1c[nH]c2ccccc12

>  <score_type>  (69) 
oracle

>  <origin>  (69) 
autodockgpu

>  <m_score__min__energy>  (69) 
-8.4100000000000001

>  <m_primary>  (69) 
energy

>  <meeko>  (69) 
{"free_energy": -6.71, "intermolecular_energy": -7.91, "internal_energy": -2.48, "cluster_size": 12, "cluster_id": 4, "rank_in_cluster": 11}

>  <energy>  (69) 
-6.72

>  <cluster_rmsd>  (69) 
0.0

>  <rmsd>  (69) 
269.45

>  <cluster>  (69) 
4

$$$$
WCZRIPJXOMUAPT-QHCPKHFHNA-N
     RDKit          3D

 48 52  0  0  0  0  0  0  0  0999 V2000
  141.1940   74.7510  221.8410 O   0  0  0  0  0  0  0  0  0  0  0  0
  141.1320   75.5320  220.5580 S   0  0  0  0  0  0  0  0  0  0  0  0
  140.4640   74.6540  219.5400 O   0  0  0  0  0  0  0  0  0  0  0  0
  142.8420   75.8440  220.0780 C   0  0  0  0  0  0  0  0  0  0  0  0
  143.7170   74.6180  220.0990 C   0  0  0  0  0  0  0  0  0  0  0  0
  143.1750   73.3530  219.8180 C   0  0  0  0  0  0  0  0  0  0  0  0
  143.9700   72.2060  219.9150 C   0  0  0  0  0  0  0  0  0  0  0  0
  145.3050   72.3120  220.3130 C   0  0  0  0  0  0  0  0  0  0  0  0
  145.8470   73.5630  220.6190 C   0  0  0  0  0  0  0  0  0  0  0  0
  145.0560   74.7120  220.5180 C   0  0  0  0  0  0  0  0  0  0  0  0
  140.1730   76.9780  220.8850 N   0  0  0  0  0  0  0  0  0  0  0  0
  140.1140   77.2000  222.3470 C   0  0  0  0  0  0  0  0  0  0  0  0
  141.0880   78.2860  222.6120 C   0  0  0  0  0  0  0  0  0  0  0  0
  141.5380   78.7560  223.8470 C   0  0  0  0  0  0  0  0  0  0  0  0
  142.3700   79.8860  223.8700 C   0  0  0  0  0  0  0  0  0  0  0  0
  142.6970   80.5470  222.6710 C   0  0  0  0  0  0  0  0  0  0  0  0
  142.2060   80.0700  221.4440 C   0  0  0  0  0  0  0  0  0  0  0  0
  141.4410   78.8970  221.4410 C   0  0  0  0  0  0  0  0  0  0  0  0
  140.6860   78.2640  220.3290 C   0  0  1  0  0  0  0  0  0  0  0  0
  141.3790   78.1780  218.9850 C   0  0  0  0  0  0  0  0  0  0  0  0
  142.5720   78.7750  218.5760 C   0  0  0  0  0  0  0  0  0  0  0  0
  142.8240   78.4960  217.2770 N   0  0  0  0  0  0  0  0  0  0  0  0
  141.7950   77.7450  216.8520 C   0  0  0  0  0  0  0  0  0  0  0  0
  141.6040   77.2190  215.5750 C   0  0  0  0  0  0  0  0  0  0  0  0
  140.4430   76.4580  215.3450 C   0  0  0  0  0  0  0  0  0  0  0  0
  139.5110   76.2440  216.3840 C   0  0  0  0  0  0  0  0  0  0  0  0
  139.7300   76.7890  217.6630 C   0  0  0  0  0  0  0  0  0  0  0  0
  140.8910   77.5380  217.8600 C   0  0  0  0  0  0  0  0  0  0  0  0
  142.8456   76.2542  219.0574 H   0  0  0  0  0  0  0  0  0  0  0  0
  143.2576   76.5447  220.8172 H   0  0  0  0  0  0  0  0  0  0  0  0
  142.1199   73.2638  219.5201 H   0  0  0  0  0  0  0  0  0  0  0  0
  143.5438   71.2201  219.6778 H   0  0  0  0  0  0  0  0  0  0  0  0
  145.9300   71.4097  220.3856 H   0  0  0  0  0  0  0  0  0  0  0  0
  146.8962   73.6442  220.9394 H   0  0  0  0  0  0  0  0  0  0  0  0
  145.4835   75.6943  220.7676 H   0  0  0  0  0  0  0  0  0  0  0  0
  139.1020   77.5062  222.6506 H   0  0  0  0  0  0  0  0  0  0  0  0
  140.3508   76.2867  222.9126 H   0  0  0  0  0  0  0  0  0  0  0  0
  141.2472   78.2523  224.7807 H   0  0  0  0  0  0  0  0  0  0  0  0
  142.7673   80.2558  224.8267 H   0  0  0  0  0  0  0  0  0  0  0  0
  143.3390   81.4399  222.6947 H   0  0  0  0  0  0  0  0  0  0  0  0
  142.4177   80.6058  220.5069 H   0  0  0  0  0  0  0  0  0  0  0  0
  139.8589   78.9192  220.0181 H   0  0  0  0  0  0  0  0  0  0  0  0
  143.2184   79.3881  219.2212 H   0  0  0  0  0  0  0  0  0  0  0  0
  143.6460   78.8150  216.7190 H   0  0  0  0  0  0  0  0  0  0  0  0
  142.3370   77.3932  214.7735 H   0  0  0  0  0  0  0  0  0  0  0  0
  140.2603   76.0271  214.3496 H   0  0  0  0  0  0  0  0  0  0  0  0
  138.6072   75.6470  216.1924 H   0  0  0  0  0  0  0  0  0  0  0  0
  139.0105   76.6300  218.4797 H   0  0  0  0  0  0  0  0  0  0  0  0
  1  2  2  0
  2  3  2  0
  2  4  1  0
  4  5  1  0
  5  6  2  0
  6  7  1  0
  7  8  2  0
  8  9  1  0
  9 10  2  0
  2 11  1  0
 11 12  1  0
 12 13  1  0
 13 14  2  0
 14 15  1  0
 15 16  2  0
 16 17  1  0
 17 18  2  0
 18 19  1  0
 19 20  1  0
 20 21  2  0
 21 22  1  0
 22 23  1  0
 23 24  2  0
 24 25  1  0
 25 26  2  0
 26 27  1  0
 27 28  2  0
 10  5  1  0
 19 11  1  0
 28 20  1  0
 18 13  1  0
 28 23  1  0
  4 29  1  0
  4 30  1  0
  6 31  1  0
  7 32  1  0
  8 33  1  0
  9 34  1  0
 10 35  1  0
 12 36  1  0
 12 37  1  0
 14 38  1  0
 15 39  1  0
 16 40  1  0
 17 41  1  0
 19 42  1  6
 21 43  1  0
 22 44  1  0
 24 45  1  0
 25 46  1  0
 26 47  1  0
 27 48  1  0
M  END
>  <UniqueID>  (70) 
240

>  <SMILES>  (70) 
O=S(=O)(Cc1ccccc1)N1Cc2ccccc2[C@H]1c1c[nH]c2ccccc12

>  <Energy>  (70) 
103.4226599959764

>  <Genealogy>  (70) 
O=S(=O)(Cc1ccccc1)N1Cc2ccccc2[C@H]1c1c[nH]c2ccccc12 (3D coordinates assigned)
O=S(=O)(Cc1ccccc1)N1Cc2ccccc2[C@H]1c1c[nH]c2ccccc12 (nonaromatic ring conformer: 103.4226599959764 kcal/mol)

>  <smiles>  (70) 
O=S(=O)(Cc1ccccc1)N1Cc2ccccc2[C@H]1c1c[nH]c2ccccc12

>  <score_type>  (70) 
oracle

>  <origin>  (70) 
autodockgpu

>  <m_score__min__energy>  (70) 
-8.4100000000000001

>  <m_primary>  (70) 
energy

>  <meeko>  (70) 
{"free_energy": -7.52, "intermolecular_energy": -8.71, "internal_energy": -1.68, "cluster_size": 5, "cluster_id": 2, "rank_in_cluster": 2}

>  <energy>  (70) 
-6.72

>  <cluster_rmsd>  (70) 
0.03

>  <rmsd>  (70) 
269.43

>  <cluster>  (70) 
4

$$$$
WCZRIPJXOMUAPT-QHCPKHFHNA-N
     RDKit          3D

 48 52  0  0  0  0  0  0  0  0999 V2000
  135.3580   68.8130  224.2300 O   0  0  0  0  0  0  0  0  0  0  0  0
  136.5070   69.7770  224.3230 S   0  0  0  0  0  0  0  0  0  0  0  0
  137.1520   69.5670  225.6620 O   0  0  0  0  0  0  0  0  0  0  0  0
  135.7840   71.4270  224.2380 C   0  0  0  0  0  0  0  0  0  0  0  0
  134.7010   71.6740  225.2540 C   0  0  0  0  0  0  0  0  0  0  0  0
  134.1030   72.9410  225.3620 C   0  0  0  0  0  0  0  0  0  0  0  0
  133.1540   73.1920  226.3590 C   0  0  0  0  0  0  0  0  0  0  0  0
  132.8100   72.1860  227.2670 C   0  0  0  0  0  0  0  0  0  0  0  0
  133.4180   70.9310  227.1830 C   0  0  0  0  0  0  0  0  0  0  0  0
  134.3630   70.6760  226.1850 C   0  0  0  0  0  0  0  0  0  0  0  0
  137.6170   69.3800  223.0080 N   0  0  0  0  0  0  0  0  0  0  0  0
  137.4250   70.3450  221.9030 C   0  0  0  0  0  0  0  0  0  0  0  0
  138.5550   71.2970  222.0220 C   0  0  0  0  0  0  0  0  0  0  0  0
  138.7500   72.4930  221.3290 C   0  0  0  0  0  0  0  0  0  0  0  0
  139.9630   73.1780  221.5030 C   0  0  0  0  0  0  0  0  0  0  0  0
  140.9690   72.6350  222.3260 C   0  0  0  0  0  0  0  0  0  0  0  0
  140.7570   71.4150  222.9880 C   0  0  0  0  0  0  0  0  0  0  0  0
  139.5110   70.7900  222.8580 C   0  0  0  0  0  0  0  0  0  0  0  0
  139.0750   69.4460  223.3170 C   0  0  1  0  0  0  0  0  0  0  0  0
  139.4780   69.0310  224.7170 C   0  0  0  0  0  0  0  0  0  0  0  0
  139.4650   67.7590  225.2900 C   0  0  0  0  0  0  0  0  0  0  0  0
  139.8490   67.8160  226.5850 N   0  0  0  0  0  0  0  0  0  0  0  0
  140.0870   69.1120  226.8470 C   0  0  0  0  0  0  0  0  0  0  0  0
  140.5010   69.6680  228.0560 C   0  0  0  0  0  0  0  0  0  0  0  0
  140.6860   71.0620  228.1080 C   0  0  0  0  0  0  0  0  0  0  0  0
  140.4550   71.8580  226.9650 C   0  0  0  0  0  0  0  0  0  0  0  0
  140.0370   71.2680  225.7580 C   0  0  0  0  0  0  0  0  0  0  0  0
  139.8630   69.8830  225.7360 C   0  0  0  0  0  0  0  0  0  0  0  0
  136.5844   72.1641  224.3995 H   0  0  0  0  0  0  0  0  0  0  0  0
  135.3170   71.5192  223.2463 H   0  0  0  0  0  0  0  0  0  0  0  0
  134.3824   73.7396  224.6591 H   0  0  0  0  0  0  0  0  0  0  0  0
  132.6783   74.1814  226.4285 H   0  0  0  0  0  0  0  0  0  0  0  0
  132.0605   72.3827  228.0477 H   0  0  0  0  0  0  0  0  0  0  0  0
  133.1528   70.1427  227.9029 H   0  0  0  0  0  0  0  0  0  0  0  0
  134.8450   69.6889  226.1277 H   0  0  0  0  0  0  0  0  0  0  0  0
  137.4541   69.8304  220.9312 H   0  0  0  0  0  0  0  0  0  0  0  0
  136.4506   70.8519  221.9627 H   0  0  0  0  0  0  0  0  0  0  0  0
  137.9708   72.8898  220.6616 H   0  0  0  0  0  0  0  0  0  0  0  0
  140.1281   74.1401  220.9960 H   0  0  0  0  0  0  0  0  0  0  0  0
  141.9231   73.1681  222.4504 H   0  0  0  0  0  0  0  0  0  0  0  0
  141.5530   70.9600  223.5958 H   0  0  0  0  0  0  0  0  0  0  0  0
  139.6303   68.6666  222.7746 H   0  0  0  0  0  0  0  0  0  0  0  0
  139.1815   66.8371  224.7611 H   0  0  0  0  0  0  0  0  0  0  0  0
  139.9290   67.0130  227.2480 H   0  0  0  0  0  0  0  0  0  0  0  0
  140.6773   69.0380  228.9403 H   0  0  0  0  0  0  0  0  0  0  0  0
  141.0129   71.5349  229.0458 H   0  0  0  0  0  0  0  0  0  0  0  0
  140.6028   72.9467  227.0185 H   0  0  0  0  0  0  0  0  0  0  0  0
  139.8534   71.8779  224.8612 H   0  0  0  0  0  0  0  0  0  0  0  0
  1  2  2  0
  2  3  2  0
  2  4  1  0
  4  5  1  0
  5  6  2  0
  6  7  1  0
  7  8  2  0
  8  9  1  0
  9 10  2  0
  2 11  1  0
 11 12  1  0
 12 13  1  0
 13 14  2  0
 14 15  1  0
 15 16  2  0
 16 17  1  0
 17 18  2  0
 18 19  1  0
 19 20  1  0
 20 21  2  0
 21 22  1  0
 22 23  1  0
 23 24  2  0
 24 25  1  0
 25 26  2  0
 26 27  1  0
 27 28  2  0
 10  5  1  0
 19 11  1  0
 28 20  1  0
 18 13  1  0
 28 23  1  0
  4 29  1  0
  4 30  1  0
  6 31  1  0
  7 32  1  0
  8 33  1  0
  9 34  1  0
 10 35  1  0
 12 36  1  0
 12 37  1  0
 14 38  1  0
 15 39  1  0
 16 40  1  0
 17 41  1  0
 19 42  1  6
 21 43  1  0
 22 44  1  0
 24 45  1  0
 25 46  1  0
 26 47  1  0
 27 48  1  0
M  END
>  <UniqueID>  (71) 
240

>  <SMILES>  (71) 
O=S(=O)(Cc1ccccc1)N1Cc2ccccc2[C@H]1c1c[nH]c2ccccc12

>  <Energy>  (71) 
103.4226599959764

>  <Genealogy>  (71) 
O=S(=O)(Cc1ccccc1)N1Cc2ccccc2[C@H]1c1c[nH]c2ccccc12 (3D coordinates assigned)
O=S(=O)(Cc1ccccc1)N1Cc2ccccc2[C@H]1c1c[nH]c2ccccc12 (nonaromatic ring conformer: 103.4226599959764 kcal/mol)

>  <smiles>  (71) 
O=S(=O)(Cc1ccccc1)N1Cc2ccccc2[C@H]1c1c[nH]c2ccccc12

>  <score_type>  (71) 
oracle

>  <origin>  (71) 
autodockgpu

>  <m_score__min__energy>  (71) 
-8.4100000000000001

>  <m_primary>  (71) 
energy

>  <meeko>  (71) 
{"free_energy": -8.41, "intermolecular_energy": -9.61, "internal_energy": -1.04, "cluster_size": 2, "cluster_id": 1, "rank_in_cluster": 1}

>  <energy>  (71) 
-6.72

>  <cluster_rmsd>  (71) 
0.04

>  <rmsd>  (71) 
269.42

>  <cluster>  (71) 
4

$$$$
WCZRIPJXOMUAPT-QHCPKHFHNA-N
     RDKit          3D

 48 52  0  0  0  0  0  0  0  0999 V2000
  138.7960   77.0820  222.8060 O   0  0  0  0  0  0  0  0  0  0  0  0
  139.9460   76.5100  222.0250 S   0  0  0  0  0  0  0  0  0  0  0  0
  139.9370   75.0260  222.2510 O   0  0  0  0  0  0  0  0  0  0  0  0
  141.4400   77.2320  222.7310 C   0  0  0  0  0  0  0  0  0  0  0  0
  141.4190   78.7360  222.8010 C   0  0  0  0  0  0  0  0  0  0  0  0
  142.5590   79.4800  222.4530 C   0  0  0  0  0  0  0  0  0  0  0  0
  142.5640   80.8720  222.5940 C   0  0  0  0  0  0  0  0  0  0  0  0
  141.4400   81.5290  223.1010 C   0  0  0  0  0  0  0  0  0  0  0  0
  140.3100   80.7950  223.4730 C   0  0  0  0  0  0  0  0  0  0  0  0
  140.3000   79.4040  223.3290 C   0  0  0  0  0  0  0  0  0  0  0  0
  139.6580   76.9020  220.3280 N   0  0  0  0  0  0  0  0  0  0  0  0
  138.9780   78.2140  220.2420 C   0  0  0  0  0  0  0  0  0  0  0  0
  140.0410   79.1740  219.8580 C   0  0  0  0  0  0  0  0  0  0  0  0
  139.9650   80.5670  219.8090 C   0  0  0  0  0  0  0  0  0  0  0  0
  141.0580   81.2790  219.2900 C   0  0  0  0  0  0  0  0  0  0  0  0
  142.1790   80.5880  218.7920 C   0  0  0  0  0  0  0  0  0  0  0  0
  142.2160   79.1840  218.8270 C   0  0  0  0  0  0  0  0  0  0  0  0
  141.1470   78.5010  219.4190 C   0  0  0  0  0  0  0  0  0  0  0  0
  140.8620   77.0440  219.4570 C   0  0  1  0  0  0  0  0  0  0  0  0
  142.0210   76.1210  219.7710 C   0  0  0  0  0  0  0  0  0  0  0  0
  143.3820   76.4190  219.8400 C   0  0  0  0  0  0  0  0  0  0  0  0
  144.1020   75.3040  220.0950 N   0  0  0  0  0  0  0  0  0  0  0  0
  143.2160   74.2980  220.1700 C   0  0  0  0  0  0  0  0  0  0  0  0
  143.4850   72.9510  220.4090 C   0  0  0  0  0  0  0  0  0  0  0  0
  142.3960   72.0600  220.4400 C   0  0  0  0  0  0  0  0  0  0  0  0
  141.0810   72.5300  220.2320 C   0  0  0  0  0  0  0  0  0  0  0  0
  140.8410   73.8950  219.9920 C   0  0  0  0  0  0  0  0  0  0  0  0
  141.9400   74.7550  219.9680 C   0  0  0  0  0  0  0  0  0  0  0  0
  141.5650   76.8399  223.7511 H   0  0  0  0  0  0  0  0  0  0  0  0
  142.2718   76.9558  222.0664 H   0  0  0  0  0  0  0  0  0  0  0  0
  143.4518   78.9656  222.0679 H   0  0  0  0  0  0  0  0  0  0  0  0
  143.4542   81.4500  222.3052 H   0  0  0  0  0  0  0  0  0  0  0  0
  141.4443   82.6238  223.2074 H   0  0  0  0  0  0  0  0  0  0  0  0
  139.4281   81.3119  223.8793 H   0  0  0  0  0  0  0  0  0  0  0  0
  139.4118   78.8293  223.6304 H   0  0  0  0  0  0  0  0  0  0  0  0
  138.1857   78.1893  219.4794 H   0  0  0  0  0  0  0  0  0  0  0  0
  138.4944   78.4912  221.1903 H   0  0  0  0  0  0  0  0  0  0  0  0
  139.0694   81.0947  220.1688 H   0  0  0  0  0  0  0  0  0  0  0  0
  141.0385   82.3787  219.2724 H   0  0  0  0  0  0  0  0  0  0  0  0
  143.0281   81.1489  218.3744 H   0  0  0  0  0  0  0  0  0  0  0  0
  143.0664   78.6334  218.3985 H   0  0  0  0  0  0  0  0  0  0  0  0
  140.6618   76.6764  218.4398 H   0  0  0  0  0  0  0  0  0  0  0  0
  143.8103   77.4232  219.7054 H   0  0  0  0  0  0  0  0  0  0  0  0
  145.1400   75.2410  220.1980 H   0  0  0  0  0  0  0  0  0  0  0  0
  144.5141   72.5965  220.5680 H   0  0  0  0  0  0  0  0  0  0  0  0
  142.5705   70.9903  220.6276 H   0  0  0  0  0  0  0  0  0  0  0  0
  140.2381   71.8236  220.2578 H   0  0  0  0  0  0  0  0  0  0  0  0
  139.8207   74.2723  219.8286 H   0  0  0  0  0  0  0  0  0  0  0  0
  1  2  2  0
  2  3  2  0
  2  4  1  0
  4  5  1  0
  5  6  2  0
  6  7  1  0
  7  8  2  0
  8  9  1  0
  9 10  2  0
  2 11  1  0
 11 12  1  0
 12 13  1  0
 13 14  2  0
 14 15  1  0
 15 16  2  0
 16 17  1  0
 17 18  2  0
 18 19  1  0
 19 20  1  0
 20 21  2  0
 21 22  1  0
 22 23  1  0
 23 24  2  0
 24 25  1  0
 25 26  2  0
 26 27  1  0
 27 28  2  0
 10  5  1  0
 19 11  1  0
 28 20  1  0
 18 13  1  0
 28 23  1  0
  4 29  1  0
  4 30  1  0
  6 31  1  0
  7 32  1  0
  8 33  1  0
  9 34  1  0
 10 35  1  0
 12 36  1  0
 12 37  1  0
 14 38  1  0
 15 39  1  0
 16 40  1  0
 17 41  1  0
 19 42  1  6
 21 43  1  0
 22 44  1  0
 24 45  1  0
 25 46  1  0
 26 47  1  0
 27 48  1  0
M  END
>  <UniqueID>  (72) 
240

>  <SMILES>  (72) 
O=S(=O)(Cc1ccccc1)N1Cc2ccccc2[C@H]1c1c[nH]c2ccccc12

>  <Energy>  (72) 
103.4226599959764

>  <Genealogy>  (72) 
O=S(=O)(Cc1ccccc1)N1Cc2ccccc2[C@H]1c1c[nH]c2ccccc12 (3D coordinates assigned)
O=S(=O)(Cc1ccccc1)N1Cc2ccccc2[C@H]1c1c[nH]c2ccccc12 (nonaromatic ring conformer: 103.4226599959764 kcal/mol)

>  <smiles>  (72) 
O=S(=O)(Cc1ccccc1)N1Cc2ccccc2[C@H]1c1c[nH]c2ccccc12

>  <score_type>  (72) 
oracle

>  <origin>  (72) 
autodockgpu

>  <m_score__min__energy>  (72) 
-8.4100000000000001

>  <m_primary>  (72) 
energy

>  <meeko>  (72) 
{"free_energy": -6.72, "intermolecular_energy": -7.91, "internal_energy": -2.47, "cluster_size": 12, "cluster_id": 4, "rank_in_cluster": 7}

>  <energy>  (72) 
-6.72

>  <cluster_rmsd>  (72) 
0.04

>  <rmsd>  (72) 
269.43

>  <cluster>  (72) 
4

$$$$
WCZRIPJXOMUAPT-QHCPKHFHNA-N
     RDKit          3D

 48 52  0  0  0  0  0  0  0  0999 V2000
  141.4310   74.6110  221.8650 O   0  0  0  0  0  0  0  0  0  0  0  0
  141.3340   75.3770  220.5760 S   0  0  0  0  0  0  0  0  0  0  0  0
  140.7120   74.4590  219.5630 O   0  0  0  0  0  0  0  0  0  0  0  0
  143.0280   75.7690  220.0970 C   0  0  0  0  0  0  0  0  0  0  0  0
  143.9370   74.5710  220.0310 C   0  0  0  0  0  0  0  0  0  0  0  0
  143.5690   73.4380  219.2870 C   0  0  0  0  0  0  0  0  0  0  0  0
  144.3770   72.2960  219.2900 C   0  0  0  0  0  0  0  0  0  0  0  0
  145.5480   72.2700  220.0530 C   0  0  0  0  0  0  0  0  0  0  0  0
  145.9100   73.3820  220.8170 C   0  0  0  0  0  0  0  0  0  0  0  0
  145.1070   74.5270  220.8120 C   0  0  0  0  0  0  0  0  0  0  0  0
  140.3040   76.7770  220.8880 N   0  0  0  0  0  0  0  0  0  0  0  0
  140.2280   77.0070  222.3480 C   0  0  0  0  0  0  0  0  0  0  0  0
  141.1480   78.1400  222.6090 C   0  0  0  0  0  0  0  0  0  0  0  0
  141.5690   78.6410  223.8420 C   0  0  0  0  0  0  0  0  0  0  0  0
  142.3450   79.8110  223.8600 C   0  0  0  0  0  0  0  0  0  0  0  0
  142.6440   80.4780  222.6570 C   0  0  0  0  0  0  0  0  0  0  0  0
  142.1810   79.9690  221.4320 C   0  0  0  0  0  0  0  0  0  0  0  0
  141.4750   78.7600  221.4350 C   0  0  0  0  0  0  0  0  0  0  0  0
  140.7560   78.0830  220.3250 C   0  0  1  0  0  0  0  0  0  0  0  0
  141.4580   78.0210  218.9840 C   0  0  0  0  0  0  0  0  0  0  0  0
  142.6100   78.6880  218.5680 C   0  0  0  0  0  0  0  0  0  0  0  0
  142.8840   78.4060  217.2750 N   0  0  0  0  0  0  0  0  0  0  0  0
  141.9080   77.5820  216.8590 C   0  0  0  0  0  0  0  0  0  0  0  0
  141.7560   77.0250  215.5900 C   0  0  0  0  0  0  0  0  0  0  0  0
  140.6470   76.1870  215.3700 C   0  0  0  0  0  0  0  0  0  0  0  0
  139.7280   75.9290  216.4100 C   0  0  0  0  0  0  0  0  0  0  0  0
  139.9070   76.5070  217.6810 C   0  0  0  0  0  0  0  0  0  0  0  0
  141.0160   77.3330  217.8690 C   0  0  0  0  0  0  0  0  0  0  0  0
  143.0063   76.2422  219.1042 H   0  0  0  0  0  0  0  0  0  0  0  0
  143.4331   76.4342  220.8737 H   0  0  0  0  0  0  0  0  0  0  0  0
  142.6398   73.4487  218.6984 H   0  0  0  0  0  0  0  0  0  0  0  0
  144.0908   71.4183  218.6918 H   0  0  0  0  0  0  0  0  0  0  0  0
  146.1849   71.3731  220.0518 H   0  0  0  0  0  0  0  0  0  0  0  0
  146.8276   73.3571  221.4232 H   0  0  0  0  0  0  0  0  0  0  0  0
  145.3912   75.3975  221.4215 H   0  0  0  0  0  0  0  0  0  0  0  0
  139.2013   77.2670  222.6450 H   0  0  0  0  0  0  0  0  0  0  0  0
  140.5055   76.1103  222.9215 H   0  0  0  0  0  0  0  0  0  0  0  0
  141.2989   78.1307  224.7783 H   0  0  0  0  0  0  0  0  0  0  0  0
  142.7198   80.2069  224.8154 H   0  0  0  0  0  0  0  0  0  0  0  0
  143.2422   81.4009  222.6761 H   0  0  0  0  0  0  0  0  0  0  0  0
  142.3690   80.5082  220.4918 H   0  0  0  0  0  0  0  0  0  0  0  0
  139.8992   78.6952  220.0070 H   0  0  0  0  0  0  0  0  0  0  0  0
  143.2127   79.3523  219.2047 H   0  0  0  0  0  0  0  0  0  0  0  0
  143.6860   78.7700  216.7130 H   0  0  0  0  0  0  0  0  0  0  0  0
  142.4788   77.2336  214.7875 H   0  0  0  0  0  0  0  0  0  0  0  0
  140.4953   75.7300  214.3810 H   0  0  0  0  0  0  0  0  0  0  0  0
  138.8656   75.2714  216.2259 H   0  0  0  0  0  0  0  0  0  0  0  0
  139.1967   76.3141  218.4984 H   0  0  0  0  0  0  0  0  0  0  0  0
  1  2  2  0
  2  3  2  0
  2  4  1  0
  4  5  1  0
  5  6  2  0
  6  7  1  0
  7  8  2  0
  8  9  1  0
  9 10  2  0
  2 11  1  0
 11 12  1  0
 12 13  1  0
 13 14  2  0
 14 15  1  0
 15 16  2  0
 16 17  1  0
 17 18  2  0
 18 19  1  0
 19 20  1  0
 20 21  2  0
 21 22  1  0
 22 23  1  0
 23 24  2  0
 24 25  1  0
 25 26  2  0
 26 27  1  0
 27 28  2  0
 10  5  1  0
 19 11  1  0
 28 20  1  0
 18 13  1  0
 28 23  1  0
  4 29  1  0
  4 30  1  0
  6 31  1  0
  7 32  1  0
  8 33  1  0
  9 34  1  0
 10 35  1  0
 12 36  1  0
 12 37  1  0
 14 38  1  0
 15 39  1  0
 16 40  1  0
 17 41  1  0
 19 42  1  6
 21 43  1  0
 22 44  1  0
 24 45  1  0
 25 46  1  0
 26 47  1  0
 27 48  1  0
M  END
>  <UniqueID>  (73) 
240

>  <SMILES>  (73) 
O=S(=O)(Cc1ccccc1)N1Cc2ccccc2[C@H]1c1c[nH]c2ccccc12

>  <Energy>  (73) 
103.4226599959764

>  <Genealogy>  (73) 
O=S(=O)(Cc1ccccc1)N1Cc2ccccc2[C@H]1c1c[nH]c2ccccc12 (3D coordinates assigned)
O=S(=O)(Cc1ccccc1)N1Cc2ccccc2[C@H]1c1c[nH]c2ccccc12 (nonaromatic ring conformer: 103.4226599959764 kcal/mol)

>  <smiles>  (73) 
O=S(=O)(Cc1ccccc1)N1Cc2ccccc2[C@H]1c1c[nH]c2ccccc12

>  <score_type>  (73) 
oracle

>  <origin>  (73) 
autodockgpu

>  <m_score__min__energy>  (73) 
-8.4100000000000001

>  <m_primary>  (73) 
energy

>  <meeko>  (73) 
{"free_energy": -7.51, "intermolecular_energy": -8.7, "internal_energy": -1.71, "cluster_size": 5, "cluster_id": 2, "rank_in_cluster": 3}

>  <energy>  (73) 
-6.72

>  <cluster_rmsd>  (73) 
0.04

>  <rmsd>  (73) 
269.43

>  <cluster>  (73) 
4

$$$$
WCZRIPJXOMUAPT-QHCPKHFHNA-N
     RDKit          3D

 48 52  0  0  0  0  0  0  0  0999 V2000
  135.3640   68.7270  224.2060 O   0  0  0  0  0  0  0  0  0  0  0  0
  136.5200   69.6790  224.3310 S   0  0  0  0  0  0  0  0  0  0  0  0
  137.1520   69.4310  225.6700 O   0  0  0  0  0  0  0  0  0  0  0  0
  135.8110   71.3370  224.2800 C   0  0  0  0  0  0  0  0  0  0  0  0
  134.7290   71.5710  225.3010 C   0  0  0  0  0  0  0  0  0  0  0  0
  134.1290   72.8350  225.4220 C   0  0  0  0  0  0  0  0  0  0  0  0
  133.1800   73.0740  226.4230 C   0  0  0  0  0  0  0  0  0  0  0  0
  132.8400   72.0590  227.3210 C   0  0  0  0  0  0  0  0  0  0  0  0
  133.4500   70.8060  227.2240 C   0  0  0  0  0  0  0  0  0  0  0  0
  134.3950   70.5620  226.2220 C   0  0  0  0  0  0  0  0  0  0  0  0
  137.6370   69.3050  223.0160 N   0  0  0  0  0  0  0  0  0  0  0  0
  137.4190   70.2610  221.9070 C   0  0  0  0  0  0  0  0  0  0  0  0
  138.5260   71.2410  222.0200 C   0  0  0  0  0  0  0  0  0  0  0  0
  138.6890   72.4390  221.3220 C   0  0  0  0  0  0  0  0  0  0  0  0
  139.8840   73.1550  221.4920 C   0  0  0  0  0  0  0  0  0  0  0  0
  140.9050   72.6410  222.3150 C   0  0  0  0  0  0  0  0  0  0  0  0
  140.7260   71.4180  222.9820 C   0  0  0  0  0  0  0  0  0  0  0  0
  139.4960   70.7620  222.8560 C   0  0  0  0  0  0  0  0  0  0  0  0
  139.0940   69.4090  223.3220 C   0  0  1  0  0  0  0  0  0  0  0  0
  139.5090   69.0090  224.7220 C   0  0  0  0  0  0  0  0  0  0  0  0
  139.5350   67.7400  225.2980 C   0  0  0  0  0  0  0  0  0  0  0  0
  139.9180   67.8110  226.5930 N   0  0  0  0  0  0  0  0  0  0  0  0
  140.1170   69.1130  226.8510 C   0  0  0  0  0  0  0  0  0  0  0  0
  140.5150   69.6850  228.0590 C   0  0  0  0  0  0  0  0  0  0  0  0
  140.6580   71.0840  228.1080 C   0  0  0  0  0  0  0  0  0  0  0  0
  140.4030   71.8690  226.9630 C   0  0  0  0  0  0  0  0  0  0  0  0
  140.0020   71.2640  225.7570 C   0  0  0  0  0  0  0  0  0  0  0  0
  139.8690   69.8750  225.7390 C   0  0  0  0  0  0  0  0  0  0  0  0
  136.6174   72.0638  224.4575 H   0  0  0  0  0  0  0  0  0  0  0  0
  135.3459   71.4545  223.2901 H   0  0  0  0  0  0  0  0  0  0  0  0
  134.4061   73.6412  224.7268 H   0  0  0  0  0  0  0  0  0  0  0  0
  132.7017   74.0614  226.5026 H   0  0  0  0  0  0  0  0  0  0  0  0
  132.0915   72.2467  228.1049 H   0  0  0  0  0  0  0  0  0  0  0  0
  133.1869   70.0103  227.9365 H   0  0  0  0  0  0  0  0  0  0  0  0
  134.8791   69.5766  226.1541 H   0  0  0  0  0  0  0  0  0  0  0  0
  137.4588   69.7433  220.9372 H   0  0  0  0  0  0  0  0  0  0  0  0
  136.4326   70.7441  221.9666 H   0  0  0  0  0  0  0  0  0  0  0  0
  137.8990   72.8131  220.6542 H   0  0  0  0  0  0  0  0  0  0  0  0
  140.0235   74.1194  220.9816 H   0  0  0  0  0  0  0  0  0  0  0  0
  141.8452   73.1990  222.4357 H   0  0  0  0  0  0  0  0  0  0  0  0
  141.5344   70.9854  223.5898 H   0  0  0  0  0  0  0  0  0  0  0  0
  139.6684   68.6421  222.7816 H   0  0  0  0  0  0  0  0  0  0  0  0
  139.2791   66.8087  224.7715 H   0  0  0  0  0  0  0  0  0  0  0  0
  140.0220   67.0120  227.2580 H   0  0  0  0  0  0  0  0  0  0  0  0
  140.7108   69.0628  228.9447 H   0  0  0  0  0  0  0  0  0  0  0  0
  140.9705   71.5689  229.0446 H   0  0  0  0  0  0  0  0  0  0  0  0
  140.5185   72.9618  227.0135 H   0  0  0  0  0  0  0  0  0  0  0  0
  139.8002   71.8660  224.8587 H   0  0  0  0  0  0  0  0  0  0  0  0
  1  2  2  0
  2  3  2  0
  2  4  1  0
  4  5  1  0
  5  6  2  0
  6  7  1  0
  7  8  2  0
  8  9  1  0
  9 10  2  0
  2 11  1  0
 11 12  1  0
 12 13  1  0
 13 14  2  0
 14 15  1  0
 15 16  2  0
 16 17  1  0
 17 18  2  0
 18 19  1  0
 19 20  1  0
 20 21  2  0
 21 22  1  0
 22 23  1  0
 23 24  2  0
 24 25  1  0
 25 26  2  0
 26 27  1  0
 27 28  2  0
 10  5  1  0
 19 11  1  0
 28 20  1  0
 18 13  1  0
 28 23  1  0
  4 29  1  0
  4 30  1  0
  6 31  1  0
  7 32  1  0
  8 33  1  0
  9 34  1  0
 10 35  1  0
 12 36  1  0
 12 37  1  0
 14 38  1  0
 15 39  1  0
 16 40  1  0
 17 41  1  0
 19 42  1  6
 21 43  1  0
 22 44  1  0
 24 45  1  0
 25 46  1  0
 26 47  1  0
 27 48  1  0
M  END
>  <UniqueID>  (74) 
240

>  <SMILES>  (74) 
O=S(=O)(Cc1ccccc1)N1Cc2ccccc2[C@H]1c1c[nH]c2ccccc12

>  <Energy>  (74) 
103.4226599959764

>  <Genealogy>  (74) 
O=S(=O)(Cc1ccccc1)N1Cc2ccccc2[C@H]1c1c[nH]c2ccccc12 (3D coordinates assigned)
O=S(=O)(Cc1ccccc1)N1Cc2ccccc2[C@H]1c1c[nH]c2ccccc12 (nonaromatic ring conformer: 103.4226599959764 kcal/mol)

>  <smiles>  (74) 
O=S(=O)(Cc1ccccc1)N1Cc2ccccc2[C@H]1c1c[nH]c2ccccc12

>  <score_type>  (74) 
oracle

>  <origin>  (74) 
autodockgpu

>  <m_score__min__energy>  (74) 
-8.4100000000000001

>  <m_primary>  (74) 
energy

>  <meeko>  (74) 
{"free_energy": -8.35, "intermolecular_energy": -9.54, "internal_energy": -1.09, "cluster_size": 2, "cluster_id": 1, "rank_in_cluster": 2}

>  <energy>  (74) 
-6.72

>  <cluster_rmsd>  (74) 
0.04

>  <rmsd>  (74) 
269.44

>  <cluster>  (74) 
4

$$$$
WCZRIPJXOMUAPT-QHCPKHFHNA-N
     RDKit          3D

 48 52  0  0  0  0  0  0  0  0999 V2000
  138.7990   77.1980  222.8920 O   0  0  0  0  0  0  0  0  0  0  0  0
  139.9110   76.5840  222.0890 S   0  0  0  0  0  0  0  0  0  0  0  0
  139.8430   75.0990  222.3040 O   0  0  0  0  0  0  0  0  0  0  0  0
  141.4450   77.2370  222.7760 C   0  0  0  0  0  0  0  0  0  0  0  0
  141.4540   78.7330  222.9400 C   0  0  0  0  0  0  0  0  0  0  0  0
  140.3040   79.4060  223.3870 C   0  0  0  0  0  0  0  0  0  0  0  0
  140.2870   80.8030  223.4640 C   0  0  0  0  0  0  0  0  0  0  0  0
  141.4100   81.5390  223.0770 C   0  0  0  0  0  0  0  0  0  0  0  0
  142.5500   80.8800  222.6080 C   0  0  0  0  0  0  0  0  0  0  0  0
  142.5720   79.4840  222.5340 C   0  0  0  0  0  0  0  0  0  0  0  0
  139.6130   77.0000  220.3990 N   0  0  0  0  0  0  0  0  0  0  0  0
  138.9490   78.3210  220.3360 C   0  0  0  0  0  0  0  0  0  0  0  0
  140.0200   79.2730  219.9540 C   0  0  0  0  0  0  0  0  0  0  0  0
  139.9610   80.6680  219.9230 C   0  0  0  0  0  0  0  0  0  0  0  0
  141.0570   81.3720  219.4030 C   0  0  0  0  0  0  0  0  0  0  0  0
  142.1660   80.6740  218.8870 C   0  0  0  0  0  0  0  0  0  0  0  0
  142.1860   79.2690  218.9040 C   0  0  0  0  0  0  0  0  0  0  0  0
  141.1130   78.5930  219.4960 C   0  0  0  0  0  0  0  0  0  0  0  0
  140.8100   77.1380  219.5200 C   0  0  1  0  0  0  0  0  0  0  0  0
  141.9610   76.1980  219.8110 C   0  0  0  0  0  0  0  0  0  0  0  0
  143.3270   76.4750  219.8590 C   0  0  0  0  0  0  0  0  0  0  0  0
  144.0350   75.3480  220.0990 N   0  0  0  0  0  0  0  0  0  0  0  0
  143.1350   74.3550  220.1850 C   0  0  0  0  0  0  0  0  0  0  0  0
  143.3880   73.0040  220.4150 C   0  0  0  0  0  0  0  0  0  0  0  0
  142.2860   72.1290  220.4610 C   0  0  0  0  0  0  0  0  0  0  0  0
  140.9750   72.6190  220.2760 C   0  0  0  0  0  0  0  0  0  0  0  0
  140.7510   73.9880  220.0440 C   0  0  0  0  0  0  0  0  0  0  0  0
  141.8630   74.8320  220.0050 C   0  0  0  0  0  0  0  0  0  0  0  0
  141.6039   76.7797  223.7638 H   0  0  0  0  0  0  0  0  0  0  0  0
  142.2442   76.9902  222.0616 H   0  0  0  0  0  0  0  0  0  0  0  0
  139.4123   78.8313  223.6779 H   0  0  0  0  0  0  0  0  0  0  0  0
  139.3888   81.3223  223.8295 H   0  0  0  0  0  0  0  0  0  0  0  0
  141.3969   82.6370  223.1414 H   0  0  0  0  0  0  0  0  0  0  0  0
  143.4310   81.4605  222.2967 H   0  0  0  0  0  0  0  0  0  0  0  0
  143.4683   78.9702  222.1563 H   0  0  0  0  0  0  0  0  0  0  0  0
  138.1493   78.3158  219.5807 H   0  0  0  0  0  0  0  0  0  0  0  0
  138.4781   78.5920  221.2925 H   0  0  0  0  0  0  0  0  0  0  0  0
  139.0755   81.2022  220.2977 H   0  0  0  0  0  0  0  0  0  0  0  0
  141.0503   82.4720  219.3982 H   0  0  0  0  0  0  0  0  0  0  0  0
  143.0185   81.2299  218.4697 H   0  0  0  0  0  0  0  0  0  0  0  0
  143.0260   78.7131  218.4620 H   0  0  0  0  0  0  0  0  0  0  0  0
  140.5951   76.7843  218.5008 H   0  0  0  0  0  0  0  0  0  0  0  0
  143.7680   77.4732  219.7206 H   0  0  0  0  0  0  0  0  0  0  0  0
  145.0730   75.2700  220.1850 H   0  0  0  0  0  0  0  0  0  0  0  0
  144.4142   72.6337  220.5559 H   0  0  0  0  0  0  0  0  0  0  0  0
  142.4476   71.0562  220.6423 H   0  0  0  0  0  0  0  0  0  0  0  0
  140.1224   71.9250  220.3136 H   0  0  0  0  0  0  0  0  0  0  0  0
  139.7339   74.3808  219.8982 H   0  0  0  0  0  0  0  0  0  0  0  0
  1  2  2  0
  2  3  2  0
  2  4  1  0
  4  5  1  0
  5  6  2  0
  6  7  1  0
  7  8  2  0
  8  9  1  0
  9 10  2  0
  2 11  1  0
 11 12  1  0
 12 13  1  0
 13 14  2  0
 14 15  1  0
 15 16  2  0
 16 17  1  0
 17 18  2  0
 18 19  1  0
 19 20  1  0
 20 21  2  0
 21 22  1  0
 22 23  1  0
 23 24  2  0
 24 25  1  0
 25 26  2  0
 26 27  1  0
 27 28  2  0
 10  5  1  0
 19 11  1  0
 28 20  1  0
 18 13  1  0
 28 23  1  0
  4 29  1  0
  4 30  1  0
  6 31  1  0
  7 32  1  0
  8 33  1  0
  9 34  1  0
 10 35  1  0
 12 36  1  0
 12 37  1  0
 14 38  1  0
 15 39  1  0
 16 40  1  0
 17 41  1  0
 19 42  1  6
 21 43  1  0
 22 44  1  0
 24 45  1  0
 25 46  1  0
 26 47  1  0
 27 48  1  0
M  END
>  <UniqueID>  (75) 
240

>  <SMILES>  (75) 
O=S(=O)(Cc1ccccc1)N1Cc2ccccc2[C@H]1c1c[nH]c2ccccc12

>  <Energy>  (75) 
103.4226599959764

>  <Genealogy>  (75) 
O=S(=O)(Cc1ccccc1)N1Cc2ccccc2[C@H]1c1c[nH]c2ccccc12 (3D coordinates assigned)
O=S(=O)(Cc1ccccc1)N1Cc2ccccc2[C@H]1c1c[nH]c2ccccc12 (nonaromatic ring conformer: 103.4226599959764 kcal/mol)

>  <smiles>  (75) 
O=S(=O)(Cc1ccccc1)N1Cc2ccccc2[C@H]1c1c[nH]c2ccccc12

>  <score_type>  (75) 
oracle

>  <origin>  (75) 
autodockgpu

>  <m_score__min__energy>  (75) 
-8.4100000000000001

>  <m_primary>  (75) 
energy

>  <meeko>  (75) 
{"free_energy": -6.67, "intermolecular_energy": -7.87, "internal_energy": -2.45, "cluster_size": 12, "cluster_id": 4, "rank_in_cluster": 12}

>  <energy>  (75) 
-6.72

>  <cluster_rmsd>  (75) 
0.04

>  <rmsd>  (75) 
269.43

>  <cluster>  (75) 
4

$$$$
WCZRIPJXOMUAPT-QHCPKHFHNA-N
     RDKit          3D

 48 52  0  0  0  0  0  0  0  0999 V2000
  141.4430   74.6150  221.8430 O   0  0  0  0  0  0  0  0  0  0  0  0
  141.3520   75.3890  220.5580 S   0  0  0  0  0  0  0  0  0  0  0  0
  140.7430   74.4740  219.5350 O   0  0  0  0  0  0  0  0  0  0  0  0
  143.0470   75.7930  220.0940 C   0  0  0  0  0  0  0  0  0  0  0  0
  143.9620   74.5990  220.0210 C   0  0  0  0  0  0  0  0  0  0  0  0
  143.6220   73.4900  219.2280 C   0  0  0  0  0  0  0  0  0  0  0  0
  144.4330   72.3500  219.2220 C   0  0  0  0  0  0  0  0  0  0  0  0
  145.5780   72.3020  220.0230 C   0  0  0  0  0  0  0  0  0  0  0  0
  145.9100   73.3900  220.8340 C   0  0  0  0  0  0  0  0  0  0  0  0
  145.1040   74.5330  220.8380 C   0  0  0  0  0  0  0  0  0  0  0  0
  140.3120   76.7810  220.8710 N   0  0  0  0  0  0  0  0  0  0  0  0
  140.2280   77.0040  222.3320 C   0  0  0  0  0  0  0  0  0  0  0  0
  141.1390   78.1420  222.6020 C   0  0  0  0  0  0  0  0  0  0  0  0
  141.5520   78.6390  223.8400 C   0  0  0  0  0  0  0  0  0  0  0  0
  142.3200   79.8140  223.8660 C   0  0  0  0  0  0  0  0  0  0  0  0
  142.6200   80.4880  222.6670 C   0  0  0  0  0  0  0  0  0  0  0  0
  142.1670   79.9810  221.4380 C   0  0  0  0  0  0  0  0  0  0  0  0
  141.4680   78.7690  221.4320 C   0  0  0  0  0  0  0  0  0  0  0  0
  140.7580   78.0920  220.3160 C   0  0  1  0  0  0  0  0  0  0  0  0
  141.4670   78.0400  218.9780 C   0  0  0  0  0  0  0  0  0  0  0  0
  142.6170   78.7150  218.5710 C   0  0  0  0  0  0  0  0  0  0  0  0
  142.8990   78.4410  217.2770 N   0  0  0  0  0  0  0  0  0  0  0  0
  141.9300   77.6140  216.8530 C   0  0  0  0  0  0  0  0  0  0  0  0
  141.7860   77.0620  215.5810 C   0  0  0  0  0  0  0  0  0  0  0  0
  140.6830   76.2190  215.3510 C   0  0  0  0  0  0  0  0  0  0  0  0
  139.7600   75.9520  216.3860 C   0  0  0  0  0  0  0  0  0  0  0  0
  139.9300   76.5240  217.6600 C   0  0  0  0  0  0  0  0  0  0  0  0
  141.0340   77.3550  217.8570 C   0  0  0  0  0  0  0  0  0  0  0  0
  143.0295   76.2766  219.1062 H   0  0  0  0  0  0  0  0  0  0  0  0
  143.4444   76.4516  220.8803 H   0  0  0  0  0  0  0  0  0  0  0  0
  142.7134   73.5183  218.6086 H   0  0  0  0  0  0  0  0  0  0  0  0
  144.1698   71.4912  218.5870 H   0  0  0  0  0  0  0  0  0  0  0  0
  146.2177   71.4072  220.0146 H   0  0  0  0  0  0  0  0  0  0  0  0
  146.8064   73.3477  221.4702 H   0  0  0  0  0  0  0  0  0  0  0  0
  145.3650   75.3845  221.4836 H   0  0  0  0  0  0  0  0  0  0  0  0
  139.1982   77.2556  222.6257 H   0  0  0  0  0  0  0  0  0  0  0  0
  140.5091   76.1066  222.9027 H   0  0  0  0  0  0  0  0  0  0  0  0
  141.2820   78.1221  224.7727 H   0  0  0  0  0  0  0  0  0  0  0  0
  142.6879   80.2085  224.8246 H   0  0  0  0  0  0  0  0  0  0  0  0
  143.2114   81.4152  222.6928 H   0  0  0  0  0  0  0  0  0  0  0  0
  142.3576   80.5247  220.5010 H   0  0  0  0  0  0  0  0  0  0  0  0
  139.8985   78.6999  219.9971 H   0  0  0  0  0  0  0  0  0  0  0  0
  143.2131   79.3792  219.2140 H   0  0  0  0  0  0  0  0  0  0  0  0
  143.7020   78.8110  216.7210 H   0  0  0  0  0  0  0  0  0  0  0  0
  142.5113   77.2784  214.7828 H   0  0  0  0  0  0  0  0  0  0  0  0
  140.5389   75.7654  214.3593 H   0  0  0  0  0  0  0  0  0  0  0  0
  138.9014   75.2916  216.1945 H   0  0  0  0  0  0  0  0  0  0  0  0
  139.2171   76.3232  218.4733 H   0  0  0  0  0  0  0  0  0  0  0  0
  1  2  2  0
  2  3  2  0
  2  4  1  0
  4  5  1  0
  5  6  2  0
  6  7  1  0
  7  8  2  0
  8  9  1  0
  9 10  2  0
  2 11  1  0
 11 12  1  0
 12 13  1  0
 13 14  2  0
 14 15  1  0
 15 16  2  0
 16 17  1  0
 17 18  2  0
 18 19  1  0
 19 20  1  0
 20 21  2  0
 21 22  1  0
 22 23  1  0
 23 24  2  0
 24 25  1  0
 25 26  2  0
 26 27  1  0
 27 28  2  0
 10  5  1  0
 19 11  1  0
 28 20  1  0
 18 13  1  0
 28 23  1  0
  4 29  1  0
  4 30  1  0
  6 31  1  0
  7 32  1  0
  8 33  1  0
  9 34  1  0
 10 35  1  0
 12 36  1  0
 12 37  1  0
 14 38  1  0
 15 39  1  0
 16 40  1  0
 17 41  1  0
 19 42  1  6
 21 43  1  0
 22 44  1  0
 24 45  1  0
 25 46  1  0
 26 47  1  0
 27 48  1  0
M  END
>  <UniqueID>  (76) 
240

>  <SMILES>  (76) 
O=S(=O)(Cc1ccccc1)N1Cc2ccccc2[C@H]1c1c[nH]c2ccccc12

>  <Energy>  (76) 
103.4226599959764

>  <Genealogy>  (76) 
O=S(=O)(Cc1ccccc1)N1Cc2ccccc2[C@H]1c1c[nH]c2ccccc12 (3D coordinates assigned)
O=S(=O)(Cc1ccccc1)N1Cc2ccccc2[C@H]1c1c[nH]c2ccccc12 (nonaromatic ring conformer: 103.4226599959764 kcal/mol)

>  <smiles>  (76) 
O=S(=O)(Cc1ccccc1)N1Cc2ccccc2[C@H]1c1c[nH]c2ccccc12

>  <score_type>  (76) 
oracle

>  <origin>  (76) 
autodockgpu

>  <m_score__min__energy>  (76) 
-8.4100000000000001

>  <m_primary>  (76) 
energy

>  <meeko>  (76) 
{"free_energy": -7.5, "intermolecular_energy": -8.7, "internal_energy": -1.72, "cluster_size": 5, "cluster_id": 2, "rank_in_cluster": 4}

>  <energy>  (76) 
-6.72

>  <cluster_rmsd>  (76) 
0.04

>  <rmsd>  (76) 
269.43

>  <cluster>  (76) 
4

$$$$
WCZRIPJXOMUAPT-QHCPKHFHNA-N
     RDKit          3D

 48 52  0  0  0  0  0  0  0  0999 V2000
  138.7880   77.0650  222.8120 O   0  0  0  0  0  0  0  0  0  0  0  0
  139.9420   76.5030  222.0300 S   0  0  0  0  0  0  0  0  0  0  0  0
  139.9440   75.0180  222.2530 O   0  0  0  0  0  0  0  0  0  0  0  0
  141.4300   77.2360  222.7370 C   0  0  0  0  0  0  0  0  0  0  0  0
  141.4000   78.7390  222.8050 C   0  0  0  0  0  0  0  0  0  0  0  0
  142.5360   79.4900  222.4600 C   0  0  0  0  0  0  0  0  0  0  0  0
  142.5330   80.8820  222.5980 C   0  0  0  0  0  0  0  0  0  0  0  0
  141.4030   81.5330  223.1010 C   0  0  0  0  0  0  0  0  0  0  0  0
  140.2770   80.7930  223.4710 C   0  0  0  0  0  0  0  0  0  0  0  0
  140.2750   79.4020  223.3290 C   0  0  0  0  0  0  0  0  0  0  0  0
  139.6510   76.8960  220.3330 N   0  0  0  0  0  0  0  0  0  0  0  0
  138.9660   78.2050  220.2490 C   0  0  0  0  0  0  0  0  0  0  0  0
  140.0240   79.1710  219.8660 C   0  0  0  0  0  0  0  0  0  0  0  0
  139.9430   80.5630  219.8180 C   0  0  0  0  0  0  0  0  0  0  0  0
  141.0320   81.2800  219.3000 C   0  0  0  0  0  0  0  0  0  0  0  0
  142.1560   80.5940  218.8000 C   0  0  0  0  0  0  0  0  0  0  0  0
  142.1990   79.1910  218.8330 C   0  0  0  0  0  0  0  0  0  0  0  0
  141.1330   78.5030  219.4250 C   0  0  0  0  0  0  0  0  0  0  0  0
  140.8530   77.0440  219.4620 C   0  0  1  0  0  0  0  0  0  0  0  0
  142.0170   76.1260  219.7730 C   0  0  0  0  0  0  0  0  0  0  0  0
  143.3760   76.4290  219.8420 C   0  0  0  0  0  0  0  0  0  0  0  0
  144.1020   75.3160  220.0950 N   0  0  0  0  0  0  0  0  0  0  0  0
  143.2190   74.3060  220.1690 C   0  0  0  0  0  0  0  0  0  0  0  0
  143.4940   72.9600  220.4060 C   0  0  0  0  0  0  0  0  0  0  0  0
  142.4090   72.0650  220.4360 C   0  0  0  0  0  0  0  0  0  0  0  0
  141.0910   72.5290  220.2290 C   0  0  0  0  0  0  0  0  0  0  0  0
  140.8460   73.8940  219.9910 C   0  0  0  0  0  0  0  0  0  0  0  0
  141.9410   74.7580  219.9680 C   0  0  0  0  0  0  0  0  0  0  0  0
  141.5559   76.8462  223.7579 H   0  0  0  0  0  0  0  0  0  0  0  0
  142.2642   76.9644  222.0735 H   0  0  0  0  0  0  0  0  0  0  0  0
  143.4333   78.9803  222.0791 H   0  0  0  0  0  0  0  0  0  0  0  0
  143.4206   81.4647  222.3105 H   0  0  0  0  0  0  0  0  0  0  0  0
  141.4002   82.6280  223.2056 H   0  0  0  0  0  0  0  0  0  0  0  0
  139.3911   81.3053  223.8744 H   0  0  0  0  0  0  0  0  0  0  0  0
  139.3891   78.8228  223.6286 H   0  0  0  0  0  0  0  0  0  0  0  0
  138.1735   78.1779  219.4866 H   0  0  0  0  0  0  0  0  0  0  0  0
  138.4822   78.4786  221.1983 H   0  0  0  0  0  0  0  0  0  0  0  0
  139.0452   81.0867  220.1783 H   0  0  0  0  0  0  0  0  0  0  0  0
  141.0080   82.3796  219.2843 H   0  0  0  0  0  0  0  0  0  0  0  0
  143.0025   81.1590  218.3825 H   0  0  0  0  0  0  0  0  0  0  0  0
  143.0514   78.6444  218.4032 H   0  0  0  0  0  0  0  0  0  0  0  0
  140.6519   76.6761  218.4450 H   0  0  0  0  0  0  0  0  0  0  0  0
  143.7999   77.4353  219.7089 H   0  0  0  0  0  0  0  0  0  0  0  0
  145.1390   75.2570  220.1970 H   0  0  0  0  0  0  0  0  0  0  0  0
  144.5246   72.6096  220.5642 H   0  0  0  0  0  0  0  0  0  0  0  0
  142.5884   70.9958  220.6221 H   0  0  0  0  0  0  0  0  0  0  0  0
  140.2512   71.8190  220.2540 H   0  0  0  0  0  0  0  0  0  0  0  0
  139.8243   74.2676  219.8284 H   0  0  0  0  0  0  0  0  0  0  0  0
  1  2  2  0
  2  3  2  0
  2  4  1  0
  4  5  1  0
  5  6  2  0
  6  7  1  0
  7  8  2  0
  8  9  1  0
  9 10  2  0
  2 11  1  0
 11 12  1  0
 12 13  1  0
 13 14  2  0
 14 15  1  0
 15 16  2  0
 16 17  1  0
 17 18  2  0
 18 19  1  0
 19 20  1  0
 20 21  2  0
 21 22  1  0
 22 23  1  0
 23 24  2  0
 24 25  1  0
 25 26  2  0
 26 27  1  0
 27 28  2  0
 10  5  1  0
 19 11  1  0
 28 20  1  0
 18 13  1  0
 28 23  1  0
  4 29  1  0
  4 30  1  0
  6 31  1  0
  7 32  1  0
  8 33  1  0
  9 34  1  0
 10 35  1  0
 12 36  1  0
 12 37  1  0
 14 38  1  0
 15 39  1  0
 16 40  1  0
 17 41  1  0
 19 42  1  6
 21 43  1  0
 22 44  1  0
 24 45  1  0
 25 46  1  0
 26 47  1  0
 27 48  1  0
M  END
>  <UniqueID>  (77) 
240

>  <SMILES>  (77) 
O=S(=O)(Cc1ccccc1)N1Cc2ccccc2[C@H]1c1c[nH]c2ccccc12

>  <Energy>  (77) 
103.4226599959764

>  <Genealogy>  (77) 
O=S(=O)(Cc1ccccc1)N1Cc2ccccc2[C@H]1c1c[nH]c2ccccc12 (3D coordinates assigned)
O=S(=O)(Cc1ccccc1)N1Cc2ccccc2[C@H]1c1c[nH]c2ccccc12 (nonaromatic ring conformer: 103.4226599959764 kcal/mol)

>  <smiles>  (77) 
O=S(=O)(Cc1ccccc1)N1Cc2ccccc2[C@H]1c1c[nH]c2ccccc12

>  <score_type>  (77) 
oracle

>  <origin>  (77) 
autodockgpu

>  <m_score__min__energy>  (77) 
-8.4100000000000001

>  <m_primary>  (77) 
energy

>  <meeko>  (77) 
{"free_energy": -6.72, "intermolecular_energy": -7.91, "internal_energy": -2.47, "cluster_size": 12, "cluster_id": 4, "rank_in_cluster": 3}

>  <energy>  (77) 
-6.72

>  <cluster_rmsd>  (77) 
0.02

>  <rmsd>  (77) 
269.44

>  <cluster>  (77) 
4

$$$$
WCZRIPJXOMUAPT-QHCPKHFHNA-N
     RDKit          3D

 48 52  0  0  0  0  0  0  0  0999 V2000
  141.1060   74.7290  221.7920 O   0  0  0  0  0  0  0  0  0  0  0  0
  141.0840   75.5440  220.5290 S   0  0  0  0  0  0  0  0  0  0  0  0
  140.4290   74.7020  219.4730 O   0  0  0  0  0  0  0  0  0  0  0  0
  142.8080   75.8450  220.0970 C   0  0  0  0  0  0  0  0  0  0  0  0
  143.6760   74.6160  220.1490 C   0  0  0  0  0  0  0  0  0  0  0  0
  143.1110   73.3400  219.9840 C   0  0  0  0  0  0  0  0  0  0  0  0
  143.9050   72.1940  220.1110 C   0  0  0  0  0  0  0  0  0  0  0  0
  145.2620   72.3130  220.4230 C   0  0  0  0  0  0  0  0  0  0  0  0
  145.8270   73.5770  220.6140 C   0  0  0  0  0  0  0  0  0  0  0  0
  145.0380   74.7240  220.4830 C   0  0  0  0  0  0  0  0  0  0  0  0
  140.1360   76.9940  220.8720 N   0  0  0  0  0  0  0  0  0  0  0  0
  140.0810   77.2020  222.3360 C   0  0  0  0  0  0  0  0  0  0  0  0
  141.0640   78.2770  222.6110 C   0  0  0  0  0  0  0  0  0  0  0  0
  141.5190   78.7320  223.8500 C   0  0  0  0  0  0  0  0  0  0  0  0
  142.3590   79.8550  223.8830 C   0  0  0  0  0  0  0  0  0  0  0  0
  142.6890   80.5260  222.6890 C   0  0  0  0  0  0  0  0  0  0  0  0
  142.1930   80.0650  221.4590 C   0  0  0  0  0  0  0  0  0  0  0  0
  141.4190   78.8980  221.4450 C   0  0  0  0  0  0  0  0  0  0  0  0
  140.6580   78.2820  220.3280 C   0  0  1  0  0  0  0  0  0  0  0  0
  141.3480   78.2040  218.9820 C   0  0  0  0  0  0  0  0  0  0  0  0
  142.5560   78.7770  218.5840 C   0  0  0  0  0  0  0  0  0  0  0  0
  142.8000   78.5180  217.2800 N   0  0  0  0  0  0  0  0  0  0  0  0
  141.7520   77.8020  216.8400 C   0  0  0  0  0  0  0  0  0  0  0  0
  141.5460   77.3080  215.5530 C   0  0  0  0  0  0  0  0  0  0  0  0
  140.3650   76.5830  215.3100 C   0  0  0  0  0  0  0  0  0  0  0  0
  139.4280   76.3740  216.3440 C   0  0  0  0  0  0  0  0  0  0  0  0
  139.6620   76.8860  217.6340 C   0  0  0  0  0  0  0  0  0  0  0  0
  140.8420   77.6000  217.8460 C   0  0  0  0  0  0  0  0  0  0  0  0
  142.8428   76.2500  219.0749 H   0  0  0  0  0  0  0  0  0  0  0  0
  143.2055   76.5471  220.8447 H   0  0  0  0  0  0  0  0  0  0  0  0
  142.0399   73.2411  219.7540 H   0  0  0  0  0  0  0  0  0  0  0  0
  143.4602   71.1986  219.9650 H   0  0  0  0  0  0  0  0  0  0  0  0
  145.8855   71.4118  220.5183 H   0  0  0  0  0  0  0  0  0  0  0  0
  146.8933   73.6696  220.8676 H   0  0  0  0  0  0  0  0  0  0  0  0
  145.4850   75.7164  220.6421 H   0  0  0  0  0  0  0  0  0  0  0  0
  139.0720   77.5134  222.6441 H   0  0  0  0  0  0  0  0  0  0  0  0
  140.3113   76.2811  222.8919 H   0  0  0  0  0  0  0  0  0  0  0  0
  141.2255   78.2215  224.7791 H   0  0  0  0  0  0  0  0  0  0  0  0
  142.7607   80.2123  224.8427 H   0  0  0  0  0  0  0  0  0  0  0  0
  143.3374   81.4140  222.7205 H   0  0  0  0  0  0  0  0  0  0  0  0
  142.4076   80.6085  220.5270 H   0  0  0  0  0  0  0  0  0  0  0  0
  139.8357   78.9468  220.0250 H   0  0  0  0  0  0  0  0  0  0  0  0
  143.2187   79.3594  219.2409 H   0  0  0  0  0  0  0  0  0  0  0  0
  143.6310   78.8260  216.7270 H   0  0  0  0  0  0  0  0  0  0  0  0
  142.2823   77.4793  214.7539 H   0  0  0  0  0  0  0  0  0  0  0  0
  140.1707   76.1762  214.3066 H   0  0  0  0  0  0  0  0  0  0  0  0
  138.5078   75.8067  216.1404 H   0  0  0  0  0  0  0  0  0  0  0  0
  138.9389   76.7286  218.4478 H   0  0  0  0  0  0  0  0  0  0  0  0
  1  2  2  0
  2  3  2  0
  2  4  1  0
  4  5  1  0
  5  6  2  0
  6  7  1  0
  7  8  2  0
  8  9  1  0
  9 10  2  0
  2 11  1  0
 11 12  1  0
 12 13  1  0
 13 14  2  0
 14 15  1  0
 15 16  2  0
 16 17  1  0
 17 18  2  0
 18 19  1  0
 19 20  1  0
 20 21  2  0
 21 22  1  0
 22 23  1  0
 23 24  2  0
 24 25  1  0
 25 26  2  0
 26 27  1  0
 27 28  2  0
 10  5  1  0
 19 11  1  0
 28 20  1  0
 18 13  1  0
 28 23  1  0
  4 29  1  0
  4 30  1  0
  6 31  1  0
  7 32  1  0
  8 33  1  0
  9 34  1  0
 10 35  1  0
 12 36  1  0
 12 37  1  0
 14 38  1  0
 15 39  1  0
 16 40  1  0
 17 41  1  0
 19 42  1  6
 21 43  1  0
 22 44  1  0
 24 45  1  0
 25 46  1  0
 26 47  1  0
 27 48  1  0
M  END
>  <UniqueID>  (78) 
240

>  <SMILES>  (78) 
O=S(=O)(Cc1ccccc1)N1Cc2ccccc2[C@H]1c1c[nH]c2ccccc12

>  <Energy>  (78) 
103.4226599959764

>  <Genealogy>  (78) 
O=S(=O)(Cc1ccccc1)N1Cc2ccccc2[C@H]1c1c[nH]c2ccccc12 (3D coordinates assigned)
O=S(=O)(Cc1ccccc1)N1Cc2ccccc2[C@H]1c1c[nH]c2ccccc12 (nonaromatic ring conformer: 103.4226599959764 kcal/mol)

>  <smiles>  (78) 
O=S(=O)(Cc1ccccc1)N1Cc2ccccc2[C@H]1c1c[nH]c2ccccc12

>  <score_type>  (78) 
oracle

>  <origin>  (78) 
autodockgpu

>  <m_score__min__energy>  (78) 
-8.4100000000000001

>  <m_primary>  (78) 
energy

>  <meeko>  (78) 
{"free_energy": -7.53, "intermolecular_energy": -8.72, "internal_energy": -1.7, "cluster_size": 5, "cluster_id": 2, "rank_in_cluster": 1}

>  <energy>  (78) 
-6.71

>  <cluster_rmsd>  (78) 
0.02

>  <rmsd>  (78) 
269.43

>  <cluster>  (78) 
4

$$$$
WCZRIPJXOMUAPT-QHCPKHFHNA-N
     RDKit          3D

 48 52  0  0  0  0  0  0  0  0999 V2000
  138.8040   77.0670  222.8310 O   0  0  0  0  0  0  0  0  0  0  0  0
  139.9540   76.5020  222.0460 S   0  0  0  0  0  0  0  0  0  0  0  0
  139.9540   75.0180  222.2700 O   0  0  0  0  0  0  0  0  0  0  0  0
  141.4470   77.2320  222.7470 C   0  0  0  0  0  0  0  0  0  0  0  0
  141.4210   78.7360  222.8110 C   0  0  0  0  0  0  0  0  0  0  0  0
  142.5610   79.4820  222.4660 C   0  0  0  0  0  0  0  0  0  0  0  0
  142.5610   80.8740  222.6010 C   0  0  0  0  0  0  0  0  0  0  0  0
  141.4330   81.5300  223.1000 C   0  0  0  0  0  0  0  0  0  0  0  0
  140.3030   80.7950  223.4700 C   0  0  0  0  0  0  0  0  0  0  0  0
  140.2970   79.4030  223.3310 C   0  0  0  0  0  0  0  0  0  0  0  0
  139.6570   76.8940  220.3500 N   0  0  0  0  0  0  0  0  0  0  0  0
  138.9730   78.2030  220.2670 C   0  0  0  0  0  0  0  0  0  0  0  0
  140.0300   79.1680  219.8800 C   0  0  0  0  0  0  0  0  0  0  0  0
  139.9490   80.5610  219.8320 C   0  0  0  0  0  0  0  0  0  0  0  0
  141.0370   81.2770  219.3090 C   0  0  0  0  0  0  0  0  0  0  0  0
  142.1590   80.5900  218.8060 C   0  0  0  0  0  0  0  0  0  0  0  0
  142.2010   79.1860  218.8400 C   0  0  0  0  0  0  0  0  0  0  0  0
  141.1370   78.4990  219.4350 C   0  0  0  0  0  0  0  0  0  0  0  0
  140.8570   77.0400  219.4740 C   0  0  1  0  0  0  0  0  0  0  0  0
  142.0210   76.1220  219.7830 C   0  0  0  0  0  0  0  0  0  0  0  0
  143.3810   76.4250  219.8470 C   0  0  0  0  0  0  0  0  0  0  0  0
  144.1060   75.3120  220.0980 N   0  0  0  0  0  0  0  0  0  0  0  0
  143.2240   74.3030  220.1750 C   0  0  0  0  0  0  0  0  0  0  0  0
  143.4990   72.9570  220.4120 C   0  0  0  0  0  0  0  0  0  0  0  0
  142.4130   72.0610  220.4460 C   0  0  0  0  0  0  0  0  0  0  0  0
  141.0960   72.5270  220.2440 C   0  0  0  0  0  0  0  0  0  0  0  0
  140.8500   73.8920  220.0060 C   0  0  0  0  0  0  0  0  0  0  0  0
  141.9460   74.7550  219.9780 C   0  0  0  0  0  0  0  0  0  0  0  0
  141.5749   76.8444  223.7685 H   0  0  0  0  0  0  0  0  0  0  0  0
  142.2788   76.9560  222.0822 H   0  0  0  0  0  0  0  0  0  0  0  0
  143.4574   78.9686  222.0880 H   0  0  0  0  0  0  0  0  0  0  0  0
  143.4508   81.4534  222.3137 H   0  0  0  0  0  0  0  0  0  0  0  0
  141.4341   82.6253  223.2018 H   0  0  0  0  0  0  0  0  0  0  0  0
  139.4182   81.3113  223.8706 H   0  0  0  0  0  0  0  0  0  0  0  0
  139.4087   78.8271  223.6299 H   0  0  0  0  0  0  0  0  0  0  0  0
  138.1781   78.1758  219.5071 H   0  0  0  0  0  0  0  0  0  0  0  0
  138.4926   78.4777  221.2176 H   0  0  0  0  0  0  0  0  0  0  0  0
  139.0530   81.0853  220.1957 H   0  0  0  0  0  0  0  0  0  0  0  0
  141.0134   82.3766  219.2919 H   0  0  0  0  0  0  0  0  0  0  0  0
  143.0045   81.1541  218.3855 H   0  0  0  0  0  0  0  0  0  0  0  0
  143.0519   78.6387  218.4082 H   0  0  0  0  0  0  0  0  0  0  0  0
  140.6533   76.6710  218.4580 H   0  0  0  0  0  0  0  0  0  0  0  0
  143.8051   77.4309  219.7119 H   0  0  0  0  0  0  0  0  0  0  0  0
  145.1440   75.2530  220.1970 H   0  0  0  0  0  0  0  0  0  0  0  0
  144.5300   72.6064  220.5673 H   0  0  0  0  0  0  0  0  0  0  0  0
  142.5922   70.9916  220.6311 H   0  0  0  0  0  0  0  0  0  0  0  0
  140.2556   71.8178  220.2728 H   0  0  0  0  0  0  0  0  0  0  0  0
  139.8278   74.2661  219.8473 H   0  0  0  0  0  0  0  0  0  0  0  0
  1  2  2  0
  2  3  2  0
  2  4  1  0
  4  5  1  0
  5  6  2  0
  6  7  1  0
  7  8  2  0
  8  9  1  0
  9 10  2  0
  2 11  1  0
 11 12  1  0
 12 13  1  0
 13 14  2  0
 14 15  1  0
 15 16  2  0
 16 17  1  0
 17 18  2  0
 18 19  1  0
 19 20  1  0
 20 21  2  0
 21 22  1  0
 22 23  1  0
 23 24  2  0
 24 25  1  0
 25 26  2  0
 26 27  1  0
 27 28  2  0
 10  5  1  0
 19 11  1  0
 28 20  1  0
 18 13  1  0
 28 23  1  0
  4 29  1  0
  4 30  1  0
  6 31  1  0
  7 32  1  0
  8 33  1  0
  9 34  1  0
 10 35  1  0
 12 36  1  0
 12 37  1  0
 14 38  1  0
 15 39  1  0
 16 40  1  0
 17 41  1  0
 19 42  1  6
 21 43  1  0
 22 44  1  0
 24 45  1  0
 25 46  1  0
 26 47  1  0
 27 48  1  0
M  END
>  <UniqueID>  (79) 
240

>  <SMILES>  (79) 
O=S(=O)(Cc1ccccc1)N1Cc2ccccc2[C@H]1c1c[nH]c2ccccc12

>  <Energy>  (79) 
103.4226599959764

>  <Genealogy>  (79) 
O=S(=O)(Cc1ccccc1)N1Cc2ccccc2[C@H]1c1c[nH]c2ccccc12 (3D coordinates assigned)
O=S(=O)(Cc1ccccc1)N1Cc2ccccc2[C@H]1c1c[nH]c2ccccc12 (nonaromatic ring conformer: 103.4226599959764 kcal/mol)

>  <smiles>  (79) 
O=S(=O)(Cc1ccccc1)N1Cc2ccccc2[C@H]1c1c[nH]c2ccccc12

>  <score_type>  (79) 
oracle

>  <origin>  (79) 
autodockgpu

>  <m_score__min__energy>  (79) 
-8.4100000000000001

>  <m_primary>  (79) 
energy

>  <meeko>  (79) 
{"free_energy": -6.72, "intermolecular_energy": -7.91, "internal_energy": -2.48, "cluster_size": 12, "cluster_id": 4, "rank_in_cluster": 4}

>  <energy>  (79) 
-6.71

>  <cluster_rmsd>  (79) 
0.02

>  <rmsd>  (79) 
269.43

>  <cluster>  (79) 
4

$$$$
WCZRIPJXOMUAPT-QHCPKHFHNA-N
     RDKit          3D

 48 52  0  0  0  0  0  0  0  0999 V2000
  138.8020   77.0740  222.8550 O   0  0  0  0  0  0  0  0  0  0  0  0
  139.9500   76.5130  222.0650 S   0  0  0  0  0  0  0  0  0  0  0  0
  139.9500   75.0270  222.2810 O   0  0  0  0  0  0  0  0  0  0  0  0
  141.4440   77.2390  222.7670 C   0  0  0  0  0  0  0  0  0  0  0  0
  141.4250   78.7430  222.8240 C   0  0  0  0  0  0  0  0  0  0  0  0
  142.5710   79.4820  222.4850 C   0  0  0  0  0  0  0  0  0  0  0  0
  142.5780   80.8750  222.6140 C   0  0  0  0  0  0  0  0  0  0  0  0
  141.4480   81.5380  223.1010 C   0  0  0  0  0  0  0  0  0  0  0  0
  140.3130   80.8100  223.4650 C   0  0  0  0  0  0  0  0  0  0  0  0
  140.3010   79.4180  223.3320 C   0  0  0  0  0  0  0  0  0  0  0  0
  139.6510   76.9130  220.3710 N   0  0  0  0  0  0  0  0  0  0  0  0
  138.9780   78.2290  220.2960 C   0  0  0  0  0  0  0  0  0  0  0  0
  140.0430   79.1850  219.9080 C   0  0  0  0  0  0  0  0  0  0  0  0
  139.9750   80.5790  219.8650 C   0  0  0  0  0  0  0  0  0  0  0  0
  141.0670   81.2870  219.3400 C   0  0  0  0  0  0  0  0  0  0  0  0
  142.1810   80.5910  218.8310 C   0  0  0  0  0  0  0  0  0  0  0  0
  142.2110   79.1870  218.8600 C   0  0  0  0  0  0  0  0  0  0  0  0
  141.1420   78.5080  219.4570 C   0  0  0  0  0  0  0  0  0  0  0  0
  140.8490   77.0520  219.4920 C   0  0  1  0  0  0  0  0  0  0  0  0
  142.0060   76.1220  219.7930 C   0  0  0  0  0  0  0  0  0  0  0  0
  143.3680   76.4130  219.8590 C   0  0  0  0  0  0  0  0  0  0  0  0
  144.0850   75.2920  220.1020 N   0  0  0  0  0  0  0  0  0  0  0  0
  143.1940   74.2890  220.1720 C   0  0  0  0  0  0  0  0  0  0  0  0
  143.4580   72.9400  220.3980 C   0  0  0  0  0  0  0  0  0  0  0  0
  142.3650   72.0530  220.4260 C   0  0  0  0  0  0  0  0  0  0  0  0
  141.0520   72.5300  220.2280 C   0  0  0  0  0  0  0  0  0  0  0  0
  140.8160   73.8990  220.0000 C   0  0  0  0  0  0  0  0  0  0  0  0
  141.9190   74.7540  219.9790 C   0  0  0  0  0  0  0  0  0  0  0  0
  141.5669   76.8555  223.7906 H   0  0  0  0  0  0  0  0  0  0  0  0
  142.2764   76.9559  222.1060 H   0  0  0  0  0  0  0  0  0  0  0  0
  143.4676   78.9624  222.1161 H   0  0  0  0  0  0  0  0  0  0  0  0
  143.4732   81.4488  222.3321 H   0  0  0  0  0  0  0  0  0  0  0  0
  141.4526   82.6337  223.1976 H   0  0  0  0  0  0  0  0  0  0  0  0
  139.4276   81.3322  223.8567 H   0  0  0  0  0  0  0  0  0  0  0  0
  139.4074   78.8480  223.6264 H   0  0  0  0  0  0  0  0  0  0  0  0
  138.1797   78.2121  219.5394 H   0  0  0  0  0  0  0  0  0  0  0  0
  138.5036   78.5046  221.2494 H   0  0  0  0  0  0  0  0  0  0  0  0
  139.0855   81.1103  220.2344 H   0  0  0  0  0  0  0  0  0  0  0  0
  141.0531   82.3868  219.3259 H   0  0  0  0  0  0  0  0  0  0  0  0
  143.0302   81.1489  218.4094 H   0  0  0  0  0  0  0  0  0  0  0  0
  143.0554   78.6334  218.4235 H   0  0  0  0  0  0  0  0  0  0  0  0
  140.6383   76.6889  218.4753 H   0  0  0  0  0  0  0  0  0  0  0  0
  143.8001   77.4164  219.7310 H   0  0  0  0  0  0  0  0  0  0  0  0
  145.1220   75.2240  220.2000 H   0  0  0  0  0  0  0  0  0  0  0  0
  144.4862   72.5798  220.5495 H   0  0  0  0  0  0  0  0  0  0  0  0
  142.5358   70.9809  220.6034 H   0  0  0  0  0  0  0  0  0  0  0  0
  140.2064   71.8269  220.2520 H   0  0  0  0  0  0  0  0  0  0  0  0
  139.7967   74.2819  219.8437 H   0  0  0  0  0  0  0  0  0  0  0  0
  1  2  2  0
  2  3  2  0
  2  4  1  0
  4  5  1  0
  5  6  2  0
  6  7  1  0
  7  8  2  0
  8  9  1  0
  9 10  2  0
  2 11  1  0
 11 12  1  0
 12 13  1  0
 13 14  2  0
 14 15  1  0
 15 16  2  0
 16 17  1  0
 17 18  2  0
 18 19  1  0
 19 20  1  0
 20 21  2  0
 21 22  1  0
 22 23  1  0
 23 24  2  0
 24 25  1  0
 25 26  2  0
 26 27  1  0
 27 28  2  0
 10  5  1  0
 19 11  1  0
 28 20  1  0
 18 13  1  0
 28 23  1  0
  4 29  1  0
  4 30  1  0
  6 31  1  0
  7 32  1  0
  8 33  1  0
  9 34  1  0
 10 35  1  0
 12 36  1  0
 12 37  1  0
 14 38  1  0
 15 39  1  0
 16 40  1  0
 17 41  1  0
 19 42  1  6
 21 43  1  0
 22 44  1  0
 24 45  1  0
 25 46  1  0
 26 47  1  0
 27 48  1  0
M  END
>  <UniqueID>  (80) 
240

>  <SMILES>  (80) 
O=S(=O)(Cc1ccccc1)N1Cc2ccccc2[C@H]1c1c[nH]c2ccccc12

>  <Energy>  (80) 
103.4226599959764

>  <Genealogy>  (80) 
O=S(=O)(Cc1ccccc1)N1Cc2ccccc2[C@H]1c1c[nH]c2ccccc12 (3D coordinates assigned)
O=S(=O)(Cc1ccccc1)N1Cc2ccccc2[C@H]1c1c[nH]c2ccccc12 (nonaromatic ring conformer: 103.4226599959764 kcal/mol)

>  <smiles>  (80) 
O=S(=O)(Cc1ccccc1)N1Cc2ccccc2[C@H]1c1c[nH]c2ccccc12

>  <score_type>  (80) 
oracle

>  <origin>  (80) 
autodockgpu

>  <m_score__min__energy>  (80) 
-8.4100000000000001

>  <m_primary>  (80) 
energy

>  <meeko>  (80) 
{"free_energy": -6.72, "intermolecular_energy": -7.91, "internal_energy": -2.48, "cluster_size": 12, "cluster_id": 4, "rank_in_cluster": 9}

>  <energy>  (80) 
-6.67

>  <cluster_rmsd>  (80) 
0.08

>  <rmsd>  (80) 
269.46

>  <cluster>  (80) 
4

$$$$
