
     RDKit          3D

 37 39  0  0  0  0  0  0  0  0999 V2000
  140.3820   72.0080  225.0990 O   0  0  0  0  0  0  0  0  0  0  0  0
  139.8950   70.8470  225.1390 C   0  0  0  0  0  0  0  0  0  0  0  0
  140.2170   70.0760  226.2240 C   0  0  0  0  0  0  0  0  0  0  0  0
  141.0350   70.5640  227.2100 C   0  0  0  0  0  0  0  0  0  0  0  0
  141.3300   69.7380  228.2910 C   0  0  0  0  0  0  0  0  0  0  0  0
  140.7850   68.4700  228.3110 C   0  0  0  0  0  0  0  0  0  0  0  0
  141.0860   67.6760  229.3770 F   0  0  0  0  0  0  0  0  0  0  0  0
  139.9610   67.9890  227.3060 C   0  0  0  0  0  0  0  0  0  0  0  0
  139.6880   68.8130  226.2650 C   0  0  0  0  0  0  0  0  0  0  0  0
  138.9110   68.4090  225.2820 N   0  0  0  0  0  0  0  0  0  0  0  0
  138.5700   69.1540  224.1850 C   0  0  0  0  0  0  0  0  0  0  0  0
  137.6880   68.5130  223.2550 C   0  0  0  0  0  0  0  0  0  0  0  0
  136.4080   68.5610  223.0970 C   0  0  0  0  0  0  0  0  0  0  0  0
  135.4520   68.9860  224.1430 C   0  0  0  0  0  0  0  0  0  0  0  0
  135.4830   70.2090  224.7380 C   0  0  0  0  0  0  0  0  0  0  0  0
  134.5430   70.5240  225.7140 C   0  0  0  0  0  0  0  0  0  0  0  0
  133.5690   69.6320  226.1040 C   0  0  0  0  0  0  0  0  0  0  0  0
  133.5690   68.4010  225.4780 C   0  0  0  0  0  0  0  0  0  0  0  0
  134.4870   68.1300  224.5450 N   0  0  0  0  0  0  0  0  0  0  0  0
  139.0770   70.3850  224.1300 N   0  0  0  0  0  0  0  0  0  0  0  0
  138.8260   71.3230  223.0760 C   0  0  0  0  0  0  0  0  0  0  0  0
  140.0710   71.8090  222.3650 C   0  0  0  0  0  0  0  0  0  0  0  0
  140.3360   73.1660  222.6350 O   0  0  0  0  0  0  0  0  0  0  0  0
  141.4475   71.5819  227.1485 H   0  0  0  0  0  0  0  0  0  0  0  0
  141.9799   70.0864  229.1072 H   0  0  0  0  0  0  0  0  0  0  0  0
  139.5426   66.9727  227.3515 H   0  0  0  0  0  0  0  0  0  0  0  0
  138.2000   67.8538  222.5386 H   0  0  0  0  0  0  0  0  0  0  0  0
  136.0004   68.2661  222.1188 H   0  0  0  0  0  0  0  0  0  0  0  0
  136.2475   70.9451  224.4488 H   0  0  0  0  0  0  0  0  0  0  0  0
  134.5788   71.5157  226.1886 H   0  0  0  0  0  0  0  0  0  0  0  0
  132.8279   69.8873  226.8757 H   0  0  0  0  0  0  0  0  0  0  0  0
  132.8157   67.6457  225.7464 H   0  0  0  0  0  0  0  0  0  0  0  0
  138.1718   70.8411  222.3345 H   0  0  0  0  0  0  0  0  0  0  0  0
  138.3651   72.2058  223.5431 H   0  0  0  0  0  0  0  0  0  0  0  0
  140.9287   71.2063  222.6984 H   0  0  0  0  0  0  0  0  0  0  0  0
  139.9077   71.7031  221.2824 H   0  0  0  0  0  0  0  0  0  0  0  0
  139.8890   73.3770  223.4850 H   0  0  0  0  0  0  0  0  0  0  0  0
  1  2  2  0
  2  3  1  0
  3  4  2  0
  4  5  1  0
  5  6  2  0
  6  7  1  0
  6  8  1  0
  8  9  2  0
  9 10  1  0
 10 11  2  0
 11 12  1  0
 12 13  2  0
 13 14  1  0
 14 15  2  0
 15 16  1  0
 16 17  2  0
 17 18  1  0
 18 19  2  0
 11 20  1  0
 20 21  1  0
 21 22  1  0
 22 23  1  0
 20  2  1  0
  9  3  1  0
 19 14  1  0
  4 24  1  0
  5 25  1  0
  8 26  1  0
 12 27  1  0
 13 28  1  0
 15 29  1  0
 16 30  1  0
 17 31  1  0
 18 32  1  0
 21 33  1  0
 21 34  1  0
 22 35  1  0
 22 36  1  0
 23 37  1  0
M  END
>  <smiles>  (1) 
O=c1c2ccc(F)cc2nc(/C=C/c2ccccn2)n1CCO

>  <score_type>  (1) 
oracle

>  <origin>  (1) 
autodockgpu

>  <m_score__min__energy>  (1) 
-6.6600000000000001

>  <m_primary>  (1) 
energy

>  <meeko>  (1) 
{"free_energy": -6.65, "intermolecular_energy": -8.44, "internal_energy": -1.47, "cluster_size": 6, "cluster_id": 1, "rank_in_cluster": 2}

>  <energy>  (1) 
-6.66

>  <cluster_rmsd>  (1) 
0.0

>  <rmsd>  (1) 
272.11

>  <cluster>  (1) 
1

$$$$

     RDKit          3D

 37 39  0  0  0  0  0  0  0  0999 V2000
  140.3660   72.0050  225.1150 O   0  0  0  0  0  0  0  0  0  0  0  0
  139.8810   70.8440  225.1530 C   0  0  0  0  0  0  0  0  0  0  0  0
  140.2090   70.0690  226.2340 C   0  0  0  0  0  0  0  0  0  0  0  0
  141.0300   70.5550  227.2190 C   0  0  0  0  0  0  0  0  0  0  0  0
  141.3310   69.7250  228.2950 C   0  0  0  0  0  0  0  0  0  0  0  0
  140.7890   68.4560  228.3130 C   0  0  0  0  0  0  0  0  0  0  0  0
  141.0960   67.6590  229.3740 F   0  0  0  0  0  0  0  0  0  0  0  0
  139.9610   67.9780  227.3100 C   0  0  0  0  0  0  0  0  0  0  0  0
  139.6820   68.8050  226.2730 C   0  0  0  0  0  0  0  0  0  0  0  0
  138.9020   68.4030  225.2920 N   0  0  0  0  0  0  0  0  0  0  0  0
  138.5550   69.1510  224.1980 C   0  0  0  0  0  0  0  0  0  0  0  0
  137.6700   68.5120  223.2700 C   0  0  0  0  0  0  0  0  0  0  0  0
  136.3970   68.6060  223.0780 C   0  0  0  0  0  0  0  0  0  0  0  0
  135.4240   69.0270  224.1090 C   0  0  0  0  0  0  0  0  0  0  0  0
  135.3800   70.2810  224.6330 C   0  0  0  0  0  0  0  0  0  0  0  0
  134.4300   70.5900  225.6020 C   0  0  0  0  0  0  0  0  0  0  0  0
  133.5200   69.6590  226.0540 C   0  0  0  0  0  0  0  0  0  0  0  0
  133.5960   68.3970  225.5000 C   0  0  0  0  0  0  0  0  0  0  0  0
  134.5220   68.1340  224.5720 N   0  0  0  0  0  0  0  0  0  0  0  0
  139.0590   70.3830  224.1460 N   0  0  0  0  0  0  0  0  0  0  0  0
  138.8030   71.3250  223.0960 C   0  0  0  0  0  0  0  0  0  0  0  0
  140.0400   71.7840  222.3550 C   0  0  0  0  0  0  0  0  0  0  0  0
  140.3320   73.1400  222.6080 O   0  0  0  0  0  0  0  0  0  0  0  0
  141.4399   71.5741  227.1603 H   0  0  0  0  0  0  0  0  0  0  0  0
  141.9838   70.0715  229.1097 H   0  0  0  0  0  0  0  0  0  0  0  0
  139.5439   66.9611  227.3539 H   0  0  0  0  0  0  0  0  0  0  0  0
  138.1712   67.8063  222.5913 H   0  0  0  0  0  0  0  0  0  0  0  0
  136.0095   68.3559  222.0794 H   0  0  0  0  0  0  0  0  0  0  0  0
  136.0918   71.0475  224.2927 H   0  0  0  0  0  0  0  0  0  0  0  0
  134.4047   71.6074  226.0194 H   0  0  0  0  0  0  0  0  0  0  0  0
  132.7699   69.9093  226.8187 H   0  0  0  0  0  0  0  0  0  0  0  0
  132.8972   67.6104  225.8208 H   0  0  0  0  0  0  0  0  0  0  0  0
  138.1215   70.8559  222.3711 H   0  0  0  0  0  0  0  0  0  0  0  0
  138.3721   72.2179  223.5724 H   0  0  0  0  0  0  0  0  0  0  0  0
  140.8948   71.1704  222.6757 H   0  0  0  0  0  0  0  0  0  0  0  0
  139.8529   71.6711  221.2769 H   0  0  0  0  0  0  0  0  0  0  0  0
  139.9220   73.3600  223.4740 H   0  0  0  0  0  0  0  0  0  0  0  0
  1  2  2  0
  2  3  1  0
  3  4  2  0
  4  5  1  0
  5  6  2  0
  6  7  1  0
  6  8  1  0
  8  9  2  0
  9 10  1  0
 10 11  2  0
 11 12  1  0
 12 13  2  0
 13 14  1  0
 14 15  2  0
 15 16  1  0
 16 17  2  0
 17 18  1  0
 18 19  2  0
 11 20  1  0
 20 21  1  0
 21 22  1  0
 22 23  1  0
 20  2  1  0
  9  3  1  0
 19 14  1  0
  4 24  1  0
  5 25  1  0
  8 26  1  0
 12 27  1  0
 13 28  1  0
 15 29  1  0
 16 30  1  0
 17 31  1  0
 18 32  1  0
 21 33  1  0
 21 34  1  0
 22 35  1  0
 22 36  1  0
 23 37  1  0
M  END
>  <smiles>  (2) 
O=c1c2ccc(F)cc2nc(/C=C/c2ccccn2)n1CCO

>  <score_type>  (2) 
oracle

>  <origin>  (2) 
autodockgpu

>  <m_score__min__energy>  (2) 
-6.6600000000000001

>  <m_primary>  (2) 
energy

>  <meeko>  (2) 
{"free_energy": -6.63, "intermolecular_energy": -8.42, "internal_energy": -1.49, "cluster_size": 6, "cluster_id": 1, "rank_in_cluster": 3}

>  <energy>  (2) 
-6.65

>  <cluster_rmsd>  (2) 
0.03

>  <rmsd>  (2) 
272.12

>  <cluster>  (2) 
1

$$$$

     RDKit          3D

 37 39  0  0  0  0  0  0  0  0999 V2000
  139.0580   67.7770  225.3200 O   0  0  0  0  0  0  0  0  0  0  0  0
  139.4220   68.9560  225.0750 C   0  0  0  0  0  0  0  0  0  0  0  0
  140.0020   69.6530  226.1020 C   0  0  0  0  0  0  0  0  0  0  0  0
  140.1680   69.0740  227.3340 C   0  0  0  0  0  0  0  0  0  0  0  0
  140.7630   69.8260  228.3420 C   0  0  0  0  0  0  0  0  0  0  0  0
  141.1530   71.1180  228.0490 C   0  0  0  0  0  0  0  0  0  0  0  0
  141.7320   71.8390  229.0490 F   0  0  0  0  0  0  0  0  0  0  0  0
  140.9780   71.6910  226.8000 C   0  0  0  0  0  0  0  0  0  0  0  0
  140.3970   70.9380  225.8340 C   0  0  0  0  0  0  0  0  0  0  0  0
  140.2050   71.4310  224.6290 N   0  0  0  0  0  0  0  0  0  0  0  0
  139.6300   70.7620  223.5820 C   0  0  0  0  0  0  0  0  0  0  0  0
  139.5500   71.4950  222.3530 C   0  0  0  0  0  0  0  0  0  0  0  0
  140.4320   72.1470  221.6710 C   0  0  0  0  0  0  0  0  0  0  0  0
  140.5250   73.6220  221.6200 C   0  0  0  0  0  0  0  0  0  0  0  0
  141.4670   74.2910  220.9020 C   0  0  0  0  0  0  0  0  0  0  0  0
  141.4800   75.6820  220.9110 C   0  0  0  0  0  0  0  0  0  0  0  0
  140.5630   76.4160  221.6300 C   0  0  0  0  0  0  0  0  0  0  0  0
  139.6230   75.7030  222.3480 C   0  0  0  0  0  0  0  0  0  0  0  0
  139.6390   74.3660  222.3170 N   0  0  0  0  0  0  0  0  0  0  0  0
  139.2410   69.5120  223.8260 N   0  0  0  0  0  0  0  0  0  0  0  0
  138.6340   68.6430  222.8600 C   0  0  0  0  0  0  0  0  0  0  0  0
  137.1330   68.7930  222.7440 C   0  0  0  0  0  0  0  0  0  0  0  0
  136.5160   68.9090  224.0060 O   0  0  0  0  0  0  0  0  0  0  0  0
  139.8390   68.0411  227.5205 H   0  0  0  0  0  0  0  0  0  0  0  0
  140.9186   69.4029  229.3454 H   0  0  0  0  0  0  0  0  0  0  0  0
  141.3000   72.7234  226.5986 H   0  0  0  0  0  0  0  0  0  0  0  0
  138.5454   71.5040  221.9049 H   0  0  0  0  0  0  0  0  0  0  0  0
  141.1629   71.5663  221.0892 H   0  0  0  0  0  0  0  0  0  0  0  0
  142.2146   73.7349  220.3173 H   0  0  0  0  0  0  0  0  0  0  0  0
  142.2461   76.2118  220.3259 H   0  0  0  0  0  0  0  0  0  0  0  0
  140.5785   77.5159  221.6323 H   0  0  0  0  0  0  0  0  0  0  0  0
  138.8643   76.2326  222.9429 H   0  0  0  0  0  0  0  0  0  0  0  0
  139.0786   68.8568  221.8768 H   0  0  0  0  0  0  0  0  0  0  0  0
  138.8224   67.6139  223.1997 H   0  0  0  0  0  0  0  0  0  0  0  0
  136.9105   69.6952  222.1554 H   0  0  0  0  0  0  0  0  0  0  0  0
  136.7378   67.8912  222.2536 H   0  0  0  0  0  0  0  0  0  0  0  0
  137.1410   68.5260  224.6620 H   0  0  0  0  0  0  0  0  0  0  0  0
  1  2  2  0
  2  3  1  0
  3  4  2  0
  4  5  1  0
  5  6  2  0
  6  7  1  0
  6  8  1  0
  8  9  2  0
  9 10  1  0
 10 11  2  0
 11 12  1  0
 12 13  2  0
 13 14  1  0
 14 15  2  0
 15 16  1  0
 16 17  2  0
 17 18  1  0
 18 19  2  0
 11 20  1  0
 20 21  1  0
 21 22  1  0
 22 23  1  0
 20  2  1  0
  9  3  1  0
 19 14  1  0
  4 24  1  0
  5 25  1  0
  8 26  1  0
 12 27  1  0
 13 28  1  0
 15 29  1  0
 16 30  1  0
 17 31  1  0
 18 32  1  0
 21 33  1  0
 21 34  1  0
 22 35  1  0
 22 36  1  0
 23 37  1  0
M  END
>  <smiles>  (3) 
O=c1c2ccc(F)cc2nc(/C=C/c2ccccn2)n1CCO

>  <score_type>  (3) 
oracle

>  <origin>  (3) 
autodockgpu

>  <m_score__min__energy>  (3) 
-6.6600000000000001

>  <m_primary>  (3) 
energy

>  <meeko>  (3) 
{"free_energy": -6.63, "intermolecular_energy": -8.42, "internal_energy": -1.43, "cluster_size": 12, "cluster_id": 2, "rank_in_cluster": 4}

>  <energy>  (3) 
-6.63

>  <cluster_rmsd>  (3) 
0.06

>  <rmsd>  (3) 
272.1

>  <cluster>  (3) 
1

$$$$

     RDKit          3D

 37 39  0  0  0  0  0  0  0  0999 V2000
  139.0330   67.7650  225.3850 O   0  0  0  0  0  0  0  0  0  0  0  0
  139.3620   68.9550  225.1410 C   0  0  0  0  0  0  0  0  0  0  0  0
  139.9830   69.6470  226.1470 C   0  0  0  0  0  0  0  0  0  0  0  0
  140.2240   69.0520  227.3580 C   0  0  0  0  0  0  0  0  0  0  0  0
  140.8580   69.8000  228.3460 C   0  0  0  0  0  0  0  0  0  0  0  0
  141.2080   71.1030  228.0540 C   0  0  0  0  0  0  0  0  0  0  0  0
  141.8260   71.8200  229.0330 F   0  0  0  0  0  0  0  0  0  0  0  0
  140.9560   71.6920  226.8250 C   0  0  0  0  0  0  0  0  0  0  0  0
  140.3390   70.9430  225.8790 C   0  0  0  0  0  0  0  0  0  0  0  0
  140.0740   71.4500  224.6940 N   0  0  0  0  0  0  0  0  0  0  0  0
  139.4560   70.7870  223.6680 C   0  0  0  0  0  0  0  0  0  0  0  0
  139.2980   71.5370  222.4570 C   0  0  0  0  0  0  0  0  0  0  0  0
  140.1410   71.9330  221.5640 C   0  0  0  0  0  0  0  0  0  0  0  0
  140.6350   73.3210  221.4380 C   0  0  0  0  0  0  0  0  0  0  0  0
  141.7700   73.6570  220.7670 C   0  0  0  0  0  0  0  0  0  0  0  0
  142.1610   74.9910  220.6990 C   0  0  0  0  0  0  0  0  0  0  0  0
  141.4300   75.9960  221.2930 C   0  0  0  0  0  0  0  0  0  0  0  0
  140.2850   75.6170  221.9660 C   0  0  0  0  0  0  0  0  0  0  0  0
  139.9390   74.3260  222.0120 N   0  0  0  0  0  0  0  0  0  0  0  0
  139.1040   69.5260  223.9120 N   0  0  0  0  0  0  0  0  0  0  0  0
  138.4630   68.6600  222.9650 C   0  0  0  0  0  0  0  0  0  0  0  0
  136.9530   68.7670  222.9470 C   0  0  0  0  0  0  0  0  0  0  0  0
  136.4190   68.9020  224.2440 O   0  0  0  0  0  0  0  0  0  0  0  0
  139.9241   68.0102  227.5443 H   0  0  0  0  0  0  0  0  0  0  0  0
  141.0743   69.3646  229.3327 H   0  0  0  0  0  0  0  0  0  0  0  0
  141.2473   72.7335  226.6240 H   0  0  0  0  0  0  0  0  0  0  0  0
  138.2588   71.8315  222.2489 H   0  0  0  0  0  0  0  0  0  0  0  0
  140.5176   71.1876  220.8480 H   0  0  0  0  0  0  0  0  0  0  0  0
  142.3756   72.8781  220.2806 H   0  0  0  0  0  0  0  0  0  0  0  0
  143.0811   75.2504  220.1548 H   0  0  0  0  0  0  0  0  0  0  0  0
  141.7428   77.0489  221.2342 H   0  0  0  0  0  0  0  0  0  0  0  0
  139.6601   76.3741  222.4623 H   0  0  0  0  0  0  0  0  0  0  0  0
  138.8382   68.9089  221.9614 H   0  0  0  0  0  0  0  0  0  0  0  0
  138.7026   67.6298  223.2671 H   0  0  0  0  0  0  0  0  0  0  0  0
  136.6661   69.6461  222.3513 H   0  0  0  0  0  0  0  0  0  0  0  0
  136.5515   67.8416  222.5083 H   0  0  0  0  0  0  0  0  0  0  0  0
  137.0810   68.5180  224.8620 H   0  0  0  0  0  0  0  0  0  0  0  0
  1  2  2  0
  2  3  1  0
  3  4  2  0
  4  5  1  0
  5  6  2  0
  6  7  1  0
  6  8  1  0
  8  9  2  0
  9 10  1  0
 10 11  2  0
 11 12  1  0
 12 13  2  0
 13 14  1  0
 14 15  2  0
 15 16  1  0
 16 17  2  0
 17 18  1  0
 18 19  2  0
 11 20  1  0
 20 21  1  0
 21 22  1  0
 22 23  1  0
 20  2  1  0
  9  3  1  0
 19 14  1  0
  4 24  1  0
  5 25  1  0
  8 26  1  0
 12 27  1  0
 13 28  1  0
 15 29  1  0
 16 30  1  0
 17 31  1  0
 18 32  1  0
 21 33  1  0
 21 34  1  0
 22 35  1  0
 22 36  1  0
 23 37  1  0
M  END
>  <smiles>  (4) 
O=c1c2ccc(F)cc2nc(/C=C/c2ccccn2)n1CCO

>  <score_type>  (4) 
oracle

>  <origin>  (4) 
autodockgpu

>  <m_score__min__energy>  (4) 
-6.6600000000000001

>  <m_primary>  (4) 
energy

>  <meeko>  (4) 
{"free_energy": -6.62, "intermolecular_energy": -8.41, "internal_energy": -1.43, "cluster_size": 12, "cluster_id": 2, "rank_in_cluster": 6}

>  <energy>  (4) 
-6.61

>  <cluster_rmsd>  (4) 
0.08

>  <rmsd>  (4) 
272.11

>  <cluster>  (4) 
1

$$$$

     RDKit          3D

 37 39  0  0  0  0  0  0  0  0999 V2000
  138.8380   67.5360  225.5190 O   0  0  0  0  0  0  0  0  0  0  0  0
  139.0980   68.7360  225.2430 C   0  0  0  0  0  0  0  0  0  0  0  0
  139.7780   69.4580  226.1880 C   0  0  0  0  0  0  0  0  0  0  0  0
  140.1480   68.8800  227.3750 C   0  0  0  0  0  0  0  0  0  0  0  0
  140.8360   69.6590  228.3000 C   0  0  0  0  0  0  0  0  0  0  0  0
  141.1100   70.9720  227.9740 C   0  0  0  0  0  0  0  0  0  0  0  0
  141.7840   71.7180  228.8930 F   0  0  0  0  0  0  0  0  0  0  0  0
  140.7290   71.5430  226.7700 C   0  0  0  0  0  0  0  0  0  0  0  0
  140.0600   70.7640  225.8850 C   0  0  0  0  0  0  0  0  0  0  0  0
  139.6730   71.2530  224.7260 N   0  0  0  0  0  0  0  0  0  0  0  0
  138.9930   70.5600  223.7610 C   0  0  0  0  0  0  0  0  0  0  0  0
  138.7000   71.2950  222.5660 C   0  0  0  0  0  0  0  0  0  0  0  0
  138.7150   72.5580  222.2970 C   0  0  0  0  0  0  0  0  0  0  0  0
  139.8990   73.2930  221.8050 C   0  0  0  0  0  0  0  0  0  0  0  0
  140.9480   72.6960  221.1770 C   0  0  0  0  0  0  0  0  0  0  0  0
  142.0230   73.4680  220.7460 C   0  0  0  0  0  0  0  0  0  0  0  0
  142.0640   74.8310  220.9350 C   0  0  0  0  0  0  0  0  0  0  0  0
  140.9830   75.4020  221.5770 C   0  0  0  0  0  0  0  0  0  0  0  0
  139.9660   74.6310  221.9780 N   0  0  0  0  0  0  0  0  0  0  0  0
  138.7110   69.2880  224.0400 N   0  0  0  0  0  0  0  0  0  0  0  0
  138.0230   68.3930  223.1560 C   0  0  0  0  0  0  0  0  0  0  0  0
  138.9330   67.4850  222.3570 C   0  0  0  0  0  0  0  0  0  0  0  0
  139.1970   66.2770  223.0340 O   0  0  0  0  0  0  0  0  0  0  0  0
  139.9073   67.8285  227.5902 H   0  0  0  0  0  0  0  0  0  0  0  0
  141.1534   69.2394  229.2660 H   0  0  0  0  0  0  0  0  0  0  0  0
  140.9617   72.5933  226.5402 H   0  0  0  0  0  0  0  0  0  0  0  0
  138.4062   70.6624  221.7154 H   0  0  0  0  0  0  0  0  0  0  0  0
  137.7838   73.1249  222.4440 H   0  0  0  0  0  0  0  0  0  0  0  0
  140.9465   71.6086  221.0107 H   0  0  0  0  0  0  0  0  0  0  0  0
  142.8651   72.9742  220.2391 H   0  0  0  0  0  0  0  0  0  0  0  0
  142.9162   75.4357  220.5914 H   0  0  0  0  0  0  0  0  0  0  0  0
  140.9582   76.4867  221.7580 H   0  0  0  0  0  0  0  0  0  0  0  0
  137.3504   67.7639  223.7576 H   0  0  0  0  0  0  0  0  0  0  0  0
  137.4857   69.0195  222.4289 H   0  0  0  0  0  0  0  0  0  0  0  0
  138.4510   67.2556  221.3952 H   0  0  0  0  0  0  0  0  0  0  0  0
  139.8893   68.0075  222.2069 H   0  0  0  0  0  0  0  0  0  0  0  0
  139.5890   66.5200  223.9020 H   0  0  0  0  0  0  0  0  0  0  0  0
  1  2  2  0
  2  3  1  0
  3  4  2  0
  4  5  1  0
  5  6  2  0
  6  7  1  0
  6  8  1  0
  8  9  2  0
  9 10  1  0
 10 11  2  0
 11 12  1  0
 12 13  2  0
 13 14  1  0
 14 15  2  0
 15 16  1  0
 16 17  2  0
 17 18  1  0
 18 19  2  0
 11 20  1  0
 20 21  1  0
 21 22  1  0
 22 23  1  0
 20  2  1  0
  9  3  1  0
 19 14  1  0
  4 24  1  0
  5 25  1  0
  8 26  1  0
 12 27  1  0
 13 28  1  0
 15 29  1  0
 16 30  1  0
 17 31  1  0
 18 32  1  0
 21 33  1  0
 21 34  1  0
 22 35  1  0
 22 36  1  0
 23 37  1  0
M  END
>  <smiles>  (5) 
O=c1c2ccc(F)cc2nc(/C=C/c2ccccn2)n1CCO

>  <score_type>  (5) 
oracle

>  <origin>  (5) 
autodockgpu

>  <m_score__min__energy>  (5) 
-6.6600000000000001

>  <m_primary>  (5) 
energy

>  <meeko>  (5) 
{"free_energy": -6.56, "intermolecular_energy": -8.35, "internal_energy": -1.42, "cluster_size": 12, "cluster_id": 2, "rank_in_cluster": 9}

>  <energy>  (5) 
-6.61

>  <cluster_rmsd>  (5) 
0.1

>  <rmsd>  (5) 
272.06

>  <cluster>  (5) 
1

$$$$

     RDKit          3D

 37 39  0  0  0  0  0  0  0  0999 V2000
  138.5740   67.9900  225.6370 O   0  0  0  0  0  0  0  0  0  0  0  0
  139.0470   69.1030  225.2870 C   0  0  0  0  0  0  0  0  0  0  0  0
  139.7890   69.7820  226.2170 C   0  0  0  0  0  0  0  0  0  0  0  0
  139.9940   69.2570  227.4660 C   0  0  0  0  0  0  0  0  0  0  0  0
  140.7550   69.9890  228.3730 C   0  0  0  0  0  0  0  0  0  0  0  0
  141.2630   71.2060  227.9660 C   0  0  0  0  0  0  0  0  0  0  0  0
  142.0050   71.9090  228.8660 F   0  0  0  0  0  0  0  0  0  0  0  0
  141.0470   71.7260  226.6990 C   0  0  0  0  0  0  0  0  0  0  0  0
  140.3030   70.9940  225.8350 C   0  0  0  0  0  0  0  0  0  0  0  0
  140.0640   71.4370  224.6190 N   0  0  0  0  0  0  0  0  0  0  0  0
  139.3280   70.7850  223.6670 C   0  0  0  0  0  0  0  0  0  0  0  0
  139.2260   71.4510  222.4030 C   0  0  0  0  0  0  0  0  0  0  0  0
  140.1080   71.9990  221.6350 C   0  0  0  0  0  0  0  0  0  0  0  0
  140.4370   73.4400  221.6350 C   0  0  0  0  0  0  0  0  0  0  0  0
  141.5330   73.9610  221.0220 C   0  0  0  0  0  0  0  0  0  0  0  0
  141.7650   75.3320  221.0730 C   0  0  0  0  0  0  0  0  0  0  0  0
  140.9130   76.1920  221.7290 C   0  0  0  0  0  0  0  0  0  0  0  0
  139.8110   75.6270  222.3410 C   0  0  0  0  0  0  0  0  0  0  0  0
  139.6190   74.3060  222.2720 N   0  0  0  0  0  0  0  0  0  0  0  0
  138.8220   69.6040  224.0230 N   0  0  0  0  0  0  0  0  0  0  0  0
  138.0390   68.7610  223.1670 C   0  0  0  0  0  0  0  0  0  0  0  0
  138.8190   67.6370  222.5190 C   0  0  0  0  0  0  0  0  0  0  0  0
  139.1820   66.6430  223.4500 O   0  0  0  0  0  0  0  0  0  0  0  0
  139.5680   68.2819  227.7448 H   0  0  0  0  0  0  0  0  0  0  0  0
  140.9464   69.6077  229.3869 H   0  0  0  0  0  0  0  0  0  0  0  0
  141.4655   72.6999  226.4052 H   0  0  0  0  0  0  0  0  0  0  0  0
  138.1996   71.5063  222.0113 H   0  0  0  0  0  0  0  0  0  0  0  0
  140.6513   71.3492  220.9332 H   0  0  0  0  0  0  0  0  0  0  0  0
  142.2332   73.3017  220.4881 H   0  0  0  0  0  0  0  0  0  0  0  0
  142.6559   75.7411  220.5742 H   0  0  0  0  0  0  0  0  0  0  0  0
  141.1006   77.2753  221.7640 H   0  0  0  0  0  0  0  0  0  0  0  0
  139.0944   76.2616  222.8829 H   0  0  0  0  0  0  0  0  0  0  0  0
  137.2295   68.3183  223.7659 H   0  0  0  0  0  0  0  0  0  0  0  0
  137.6669   69.3982  222.3512 H   0  0  0  0  0  0  0  0  0  0  0  0
  138.1981   67.1796  221.7347 H   0  0  0  0  0  0  0  0  0  0  0  0
  139.7419   68.0619  222.0974 H   0  0  0  0  0  0  0  0  0  0  0  0
  139.6010   67.1070  224.2090 H   0  0  0  0  0  0  0  0  0  0  0  0
  1  2  2  0
  2  3  1  0
  3  4  2  0
  4  5  1  0
  5  6  2  0
  6  7  1  0
  6  8  1  0
  8  9  2  0
  9 10  1  0
 10 11  2  0
 11 12  1  0
 12 13  2  0
 13 14  1  0
 14 15  2  0
 15 16  1  0
 16 17  2  0
 17 18  1  0
 18 19  2  0
 11 20  1  0
 20 21  1  0
 21 22  1  0
 22 23  1  0
 20  2  1  0
  9  3  1  0
 19 14  1  0
  4 24  1  0
  5 25  1  0
  8 26  1  0
 12 27  1  0
 13 28  1  0
 15 29  1  0
 16 30  1  0
 17 31  1  0
 18 32  1  0
 21 33  1  0
 21 34  1  0
 22 35  1  0
 22 36  1  0
 23 37  1  0
M  END
>  <smiles>  (6) 
O=c1c2ccc(F)cc2nc(/C=C/c2ccccn2)n1CCO

>  <score_type>  (6) 
oracle

>  <origin>  (6) 
autodockgpu

>  <m_score__min__energy>  (6) 
-6.6600000000000001

>  <m_primary>  (6) 
energy

>  <meeko>  (6) 
{"free_energy": -6.6, "intermolecular_energy": -8.39, "internal_energy": -1.37, "cluster_size": 12, "cluster_id": 2, "rank_in_cluster": 8}

>  <energy>  (6) 
-6.53

>  <cluster_rmsd>  (6) 
0.31

>  <rmsd>  (6) 
271.91

>  <cluster>  (6) 
1

$$$$

     RDKit          3D

 37 39  0  0  0  0  0  0  0  0999 V2000
  140.5260   74.1070  221.6800 O   0  0  0  0  0  0  0  0  0  0  0  0
  141.4130   74.7340  221.0440 C   0  0  0  0  0  0  0  0  0  0  0  0
  142.5690   74.0570  220.7600 C   0  0  0  0  0  0  0  0  0  0  0  0
  142.7330   72.7560  221.1610 C   0  0  0  0  0  0  0  0  0  0  0  0
  143.9280   72.1150  220.8470 C   0  0  0  0  0  0  0  0  0  0  0  0
  144.8850   72.8230  220.1490 C   0  0  0  0  0  0  0  0  0  0  0  0
  146.0480   72.1790  219.8510 F   0  0  0  0  0  0  0  0  0  0  0  0
  144.7060   74.1390  219.7510 C   0  0  0  0  0  0  0  0  0  0  0  0
  143.5340   74.7410  220.0690 C   0  0  0  0  0  0  0  0  0  0  0  0
  143.3100   75.9890  219.7170 N   0  0  0  0  0  0  0  0  0  0  0  0
  142.1670   76.6950  219.9850 C   0  0  0  0  0  0  0  0  0  0  0  0
  142.1370   78.0350  219.4790 C   0  0  0  0  0  0  0  0  0  0  0  0
  141.4990   79.0920  219.8550 C   0  0  0  0  0  0  0  0  0  0  0  0
  141.7300   79.7970  221.1340 C   0  0  0  0  0  0  0  0  0  0  0  0
  141.2700   81.0500  221.3960 C   0  0  0  0  0  0  0  0  0  0  0  0
  141.5350   81.6370  222.6290 C   0  0  0  0  0  0  0  0  0  0  0  0
  142.2540   80.9870  223.6080 C   0  0  0  0  0  0  0  0  0  0  0  0
  142.7060   79.7180  223.3060 C   0  0  0  0  0  0  0  0  0  0  0  0
  142.4340   79.1830  222.1100 N   0  0  0  0  0  0  0  0  0  0  0  0
  141.2180   76.0430  220.6560 N   0  0  0  0  0  0  0  0  0  0  0  0
  139.9470   76.5990  221.0180 C   0  0  0  0  0  0  0  0  0  0  0  0
  139.9040   77.2040  222.4050 C   0  0  0  0  0  0  0  0  0  0  0  0
  141.1190   77.0260  223.0940 O   0  0  0  0  0  0  0  0  0  0  0  0
  141.9408   72.2325  221.7164 H   0  0  0  0  0  0  0  0  0  0  0  0
  144.1048   71.0717  221.1473 H   0  0  0  0  0  0  0  0  0  0  0  0
  145.4889   74.6765  219.1958 H   0  0  0  0  0  0  0  0  0  0  0  0
  142.7814   78.1933  218.6017 H   0  0  0  0  0  0  0  0  0  0  0  0
  140.7315   79.4957  219.1782 H   0  0  0  0  0  0  0  0  0  0  0  0
  140.6913   81.5964  220.6366 H   0  0  0  0  0  0  0  0  0  0  0  0
  141.1589   82.6513  222.8284 H   0  0  0  0  0  0  0  0  0  0  0  0
  142.4578   81.4559  224.5820 H   0  0  0  0  0  0  0  0  0  0  0  0
  143.2877   79.1487  224.0459 H   0  0  0  0  0  0  0  0  0  0  0  0
  139.6954   77.3854  220.2912 H   0  0  0  0  0  0  0  0  0  0  0  0
  139.2269   75.7675  221.0146 H   0  0  0  0  0  0  0  0  0  0  0  0
  139.6999   78.2813  222.3168 H   0  0  0  0  0  0  0  0  0  0  0  0
  139.1120   76.6953  222.9741 H   0  0  0  0  0  0  0  0  0  0  0  0
  141.8380   77.1370  222.4330 H   0  0  0  0  0  0  0  0  0  0  0  0
  1  2  2  0
  2  3  1  0
  3  4  2  0
  4  5  1  0
  5  6  2  0
  6  7  1  0
  6  8  1  0
  8  9  2  0
  9 10  1  0
 10 11  2  0
 11 12  1  0
 12 13  2  0
 13 14  1  0
 14 15  2  0
 15 16  1  0
 16 17  2  0
 17 18  1  0
 18 19  2  0
 11 20  1  0
 20 21  1  0
 21 22  1  0
 22 23  1  0
 20  2  1  0
  9  3  1  0
 19 14  1  0
  4 24  1  0
  5 25  1  0
  8 26  1  0
 12 27  1  0
 13 28  1  0
 15 29  1  0
 16 30  1  0
 17 31  1  0
 18 32  1  0
 21 33  1  0
 21 34  1  0
 22 35  1  0
 22 36  1  0
 23 37  1  0
M  END
>  <smiles>  (7) 
O=c1c2ccc(F)cc2nc(/C=C/c2ccccn2)n1CCO

>  <score_type>  (7) 
oracle

>  <origin>  (7) 
autodockgpu

>  <m_score__min__energy>  (7) 
-6.6600000000000001

>  <m_primary>  (7) 
energy

>  <meeko>  (7) 
{"free_energy": -5.84, "intermolecular_energy": -7.63, "internal_energy": -1.77, "cluster_size": 1, "cluster_id": 4, "rank_in_cluster": 1}

>  <energy>  (7) 
-6.64

>  <cluster_rmsd>  (7) 
0.0

>  <rmsd>  (7) 
272.33

>  <cluster>  (7) 
2

$$$$

     RDKit          3D

 37 39  0  0  0  0  0  0  0  0999 V2000
  139.1110   67.7560  225.3410 O   0  0  0  0  0  0  0  0  0  0  0  0
  139.3970   68.9640  225.1280 C   0  0  0  0  0  0  0  0  0  0  0  0
  140.0080   69.6470  226.1460 C   0  0  0  0  0  0  0  0  0  0  0  0
  140.2860   69.0250  227.3350 C   0  0  0  0  0  0  0  0  0  0  0  0
  140.9080   69.7650  228.3370 C   0  0  0  0  0  0  0  0  0  0  0  0
  141.2100   71.0870  228.0800 C   0  0  0  0  0  0  0  0  0  0  0  0
  141.8180   71.7950  229.0720 F   0  0  0  0  0  0  0  0  0  0  0  0
  140.9220   71.7030  226.8720 C   0  0  0  0  0  0  0  0  0  0  0  0
  140.3170   70.9610  225.9130 C   0  0  0  0  0  0  0  0  0  0  0  0
  140.0190   71.4940  224.7470 N   0  0  0  0  0  0  0  0  0  0  0  0
  139.4090   70.8410  223.7090 C   0  0  0  0  0  0  0  0  0  0  0  0
  139.2090   71.6190  222.5230 C   0  0  0  0  0  0  0  0  0  0  0  0
  140.0310   72.1100  221.6570 C   0  0  0  0  0  0  0  0  0  0  0  0
  140.4230   73.5340  221.5890 C   0  0  0  0  0  0  0  0  0  0  0  0
  141.4930   73.9860  220.8810 C   0  0  0  0  0  0  0  0  0  0  0  0
  141.7900   75.3450  220.8730 C   0  0  0  0  0  0  0  0  0  0  0  0
  141.0280   76.2620  221.5640 C   0  0  0  0  0  0  0  0  0  0  0  0
  139.9510   75.7660  222.2720 C   0  0  0  0  0  0  0  0  0  0  0  0
  139.6950   74.4540  222.2580 N   0  0  0  0  0  0  0  0  0  0  0  0
  139.1030   69.5610  223.9200 N   0  0  0  0  0  0  0  0  0  0  0  0
  138.4780   68.7030  222.9560 C   0  0  0  0  0  0  0  0  0  0  0  0
  136.9650   68.7310  222.9860 C   0  0  0  0  0  0  0  0  0  0  0  0
  136.4670   68.8940  224.2940 O   0  0  0  0  0  0  0  0  0  0  0  0
  140.0245   67.9684  227.4937 H   0  0  0  0  0  0  0  0  0  0  0  0
  141.1522   69.3083  229.3075 H   0  0  0  0  0  0  0  0  0  0  0  0
  141.1761   72.7590  226.6977 H   0  0  0  0  0  0  0  0  0  0  0  0
  138.1530   71.8405  222.3092 H   0  0  0  0  0  0  0  0  0  0  0  0
  140.4697   71.4219  220.9194 H   0  0  0  0  0  0  0  0  0  0  0  0
  142.1206   73.2800  220.3173 H   0  0  0  0  0  0  0  0  0  0  0  0
  142.6588   75.6981  220.2981 H   0  0  0  0  0  0  0  0  0  0  0  0
  141.2658   77.3359  221.5522 H   0  0  0  0  0  0  0  0  0  0  0  0
  139.3061   76.4481  222.8454 H   0  0  0  0  0  0  0  0  0  0  0  0
  138.8085   69.0127  221.9536 H   0  0  0  0  0  0  0  0  0  0  0  0
  138.7792   67.6752  223.2068 H   0  0  0  0  0  0  0  0  0  0  0  0
  136.6127   69.5676  222.3648 H   0  0  0  0  0  0  0  0  0  0  0  0
  136.5991   67.7681  222.6001 H   0  0  0  0  0  0  0  0  0  0  0  0
  137.1320   68.4980  224.9000 H   0  0  0  0  0  0  0  0  0  0  0  0
  1  2  2  0
  2  3  1  0
  3  4  2  0
  4  5  1  0
  5  6  2  0
  6  7  1  0
  6  8  1  0
  8  9  2  0
  9 10  1  0
 10 11  2  0
 11 12  1  0
 12 13  2  0
 13 14  1  0
 14 15  2  0
 15 16  1  0
 16 17  2  0
 17 18  1  0
 18 19  2  0
 11 20  1  0
 20 21  1  0
 21 22  1  0
 22 23  1  0
 20  2  1  0
  9  3  1  0
 19 14  1  0
  4 24  1  0
  5 25  1  0
  8 26  1  0
 12 27  1  0
 13 28  1  0
 15 29  1  0
 16 30  1  0
 17 31  1  0
 18 32  1  0
 21 33  1  0
 21 34  1  0
 22 35  1  0
 22 36  1  0
 23 37  1  0
M  END
>  <smiles>  (8) 
O=c1c2ccc(F)cc2nc(/C=C/c2ccccn2)n1CCO

>  <score_type>  (8) 
oracle

>  <origin>  (8) 
autodockgpu

>  <m_score__min__energy>  (8) 
-6.6600000000000001

>  <m_primary>  (8) 
energy

>  <meeko>  (8) 
{"free_energy": -6.61, "intermolecular_energy": -8.4, "internal_energy": -1.43, "cluster_size": 12, "cluster_id": 2, "rank_in_cluster": 7}

>  <energy>  (8) 
-6.64

>  <cluster_rmsd>  (8) 
0.04

>  <rmsd>  (8) 
272.33

>  <cluster>  (8) 
2

$$$$

     RDKit          3D

 37 39  0  0  0  0  0  0  0  0999 V2000
  140.3800   72.0050  225.0930 O   0  0  0  0  0  0  0  0  0  0  0  0
  139.8900   70.8460  225.1410 C   0  0  0  0  0  0  0  0  0  0  0  0
  140.2070   70.0820  226.2330 C   0  0  0  0  0  0  0  0  0  0  0  0
  141.0240   70.5760  227.2170 C   0  0  0  0  0  0  0  0  0  0  0  0
  141.3140   69.7570  228.3050 C   0  0  0  0  0  0  0  0  0  0  0  0
  140.7660   68.4910  228.3340 C   0  0  0  0  0  0  0  0  0  0  0  0
  141.0620   67.7050  229.4060 F   0  0  0  0  0  0  0  0  0  0  0  0
  139.9420   68.0050  227.3310 C   0  0  0  0  0  0  0  0  0  0  0  0
  139.6740   68.8210  226.2830 C   0  0  0  0  0  0  0  0  0  0  0  0
  138.8990   68.4120  225.3010 N   0  0  0  0  0  0  0  0  0  0  0  0
  138.5620   69.1490  224.1970 C   0  0  0  0  0  0  0  0  0  0  0  0
  137.6810   68.5030  223.2700 C   0  0  0  0  0  0  0  0  0  0  0  0
  136.4030   68.5710  223.0950 C   0  0  0  0  0  0  0  0  0  0  0  0
  135.4380   68.9950  224.1320 C   0  0  0  0  0  0  0  0  0  0  0  0
  135.4690   70.2140  224.7340 C   0  0  0  0  0  0  0  0  0  0  0  0
  134.5200   70.5300  225.7010 C   0  0  0  0  0  0  0  0  0  0  0  0
  133.5370   69.6410  226.0750 C   0  0  0  0  0  0  0  0  0  0  0  0
  133.5370   68.4130  225.4430 C   0  0  0  0  0  0  0  0  0  0  0  0
  134.4650   68.1420  224.5180 N   0  0  0  0  0  0  0  0  0  0  0  0
  139.0720   70.3780  224.1340 N   0  0  0  0  0  0  0  0  0  0  0  0
  138.8270   71.3090  223.0710 C   0  0  0  0  0  0  0  0  0  0  0  0
  140.0760   71.7940  222.3680 C   0  0  0  0  0  0  0  0  0  0  0  0
  140.3100   73.1650  222.5960 O   0  0  0  0  0  0  0  0  0  0  0  0
  141.4393   71.5923  227.1487 H   0  0  0  0  0  0  0  0  0  0  0  0
  141.9629   70.1100  229.1200 H   0  0  0  0  0  0  0  0  0  0  0  0
  139.5197   66.9907  227.3840 H   0  0  0  0  0  0  0  0  0  0  0  0
  138.1898   67.8189  222.5750 H   0  0  0  0  0  0  0  0  0  0  0  0
  136.0055   68.2947  222.1073 H   0  0  0  0  0  0  0  0  0  0  0  0
  136.2411   70.9471  224.4575 H   0  0  0  0  0  0  0  0  0  0  0  0
  134.5559   71.5191  226.1810 H   0  0  0  0  0  0  0  0  0  0  0  0
  132.7886   69.8964  226.8396 H   0  0  0  0  0  0  0  0  0  0  0  0
  132.7768   67.6604  225.6992 H   0  0  0  0  0  0  0  0  0  0  0  0
  138.1807   70.8202  222.3271 H   0  0  0  0  0  0  0  0  0  0  0  0
  138.3593   72.1934  223.5283 H   0  0  0  0  0  0  0  0  0  0  0  0
  140.9380   71.2199  222.7386 H   0  0  0  0  0  0  0  0  0  0  0  0
  139.9366   71.6477  221.2867 H   0  0  0  0  0  0  0  0  0  0  0  0
  139.9180   73.3760  223.4730 H   0  0  0  0  0  0  0  0  0  0  0  0
  1  2  2  0
  2  3  1  0
  3  4  2  0
  4  5  1  0
  5  6  2  0
  6  7  1  0
  6  8  1  0
  8  9  2  0
  9 10  1  0
 10 11  2  0
 11 12  1  0
 12 13  2  0
 13 14  1  0
 14 15  2  0
 15 16  1  0
 16 17  2  0
 17 18  1  0
 18 19  2  0
 11 20  1  0
 20 21  1  0
 21 22  1  0
 22 23  1  0
 20  2  1  0
  9  3  1  0
 19 14  1  0
  4 24  1  0
  5 25  1  0
  8 26  1  0
 12 27  1  0
 13 28  1  0
 15 29  1  0
 16 30  1  0
 17 31  1  0
 18 32  1  0
 21 33  1  0
 21 34  1  0
 22 35  1  0
 22 36  1  0
 23 37  1  0
M  END
>  <smiles>  (9) 
O=c1c2ccc(F)cc2nc(/C=C/c2ccccn2)n1CCO

>  <score_type>  (9) 
oracle

>  <origin>  (9) 
autodockgpu

>  <m_score__min__energy>  (9) 
-6.6600000000000001

>  <m_primary>  (9) 
energy

>  <meeko>  (9) 
{"free_energy": -6.66, "intermolecular_energy": -8.45, "internal_energy": -1.47, "cluster_size": 6, "cluster_id": 1, "rank_in_cluster": 1}

>  <energy>  (9) 
-6.63

>  <cluster_rmsd>  (9) 
0.17

>  <rmsd>  (9) 
272.36

>  <cluster>  (9) 
2

$$$$

     RDKit          3D

 37 39  0  0  0  0  0  0  0  0999 V2000
  139.2820   76.2970  222.6980 O   0  0  0  0  0  0  0  0  0  0  0  0
  140.2280   76.7830  222.0240 C   0  0  0  0  0  0  0  0  0  0  0  0
  140.6920   78.0150  222.4030 C   0  0  0  0  0  0  0  0  0  0  0  0
  140.1360   78.6720  223.4700 C   0  0  0  0  0  0  0  0  0  0  0  0
  140.6450   79.9210  223.8130 C   0  0  0  0  0  0  0  0  0  0  0  0
  141.6820   80.4330  223.0580 C   0  0  0  0  0  0  0  0  0  0  0  0
  142.1660   81.6570  223.4090 F   0  0  0  0  0  0  0  0  0  0  0  0
  142.2330   79.7570  221.9820 C   0  0  0  0  0  0  0  0  0  0  0  0
  141.7210   78.5420  221.6680 C   0  0  0  0  0  0  0  0  0  0  0  0
  142.2050   77.8560  220.6550 N   0  0  0  0  0  0  0  0  0  0  0  0
  141.7650   76.6240  220.2500 C   0  0  0  0  0  0  0  0  0  0  0  0
  142.4640   76.0570  219.1350 C   0  0  0  0  0  0  0  0  0  0  0  0
  142.7980   74.8440  218.8450 C   0  0  0  0  0  0  0  0  0  0  0  0
  143.8780   74.0910  219.5200 C   0  0  0  0  0  0  0  0  0  0  0  0
  144.1650   72.7880  219.2540 C   0  0  0  0  0  0  0  0  0  0  0  0
  145.2000   72.1570  219.9370 C   0  0  0  0  0  0  0  0  0  0  0  0
  145.9550   72.8130  220.8850 C   0  0  0  0  0  0  0  0  0  0  0  0
  145.6330   74.1340  221.1290 C   0  0  0  0  0  0  0  0  0  0  0  0
  144.6320   74.7090  220.4540 N   0  0  0  0  0  0  0  0  0  0  0  0
  140.7650   76.0970  220.9550 N   0  0  0  0  0  0  0  0  0  0  0  0
  140.1760   74.8140  220.7020 C   0  0  0  0  0  0  0  0  0  0  0  0
  140.7210   73.6970  221.5660 C   0  0  0  0  0  0  0  0  0  0  0  0
  139.9120   73.4640  222.6950 O   0  0  0  0  0  0  0  0  0  0  0  0
  139.3091   78.2236  224.0402 H   0  0  0  0  0  0  0  0  0  0  0  0
  140.2326   80.4852  224.6625 H   0  0  0  0  0  0  0  0  0  0  0  0
  143.0595   80.1922  221.4010 H   0  0  0  0  0  0  0  0  0  0  0  0
  142.7755   76.7963  218.3824 H   0  0  0  0  0  0  0  0  0  0  0  0
  142.2425   74.3365  218.0425 H   0  0  0  0  0  0  0  0  0  0  0  0
  143.5815   72.2359  218.5025 H   0  0  0  0  0  0  0  0  0  0  0  0
  145.4222   71.1031  219.7136 H   0  0  0  0  0  0  0  0  0  0  0  0
  146.7734   72.3098  221.4208 H   0  0  0  0  0  0  0  0  0  0  0  0
  146.1980   74.7109  221.8759 H   0  0  0  0  0  0  0  0  0  0  0  0
  139.0933   74.8907  220.8806 H   0  0  0  0  0  0  0  0  0  0  0  0
  140.4203   74.5550  219.6612 H   0  0  0  0  0  0  0  0  0  0  0  0
  140.7697   72.7756  220.9671 H   0  0  0  0  0  0  0  0  0  0  0  0
  141.7198   73.9945  221.9178 H   0  0  0  0  0  0  0  0  0  0  0  0
  139.2450   74.1860  222.7190 H   0  0  0  0  0  0  0  0  0  0  0  0
  1  2  2  0
  2  3  1  0
  3  4  2  0
  4  5  1  0
  5  6  2  0
  6  7  1  0
  6  8  1  0
  8  9  2  0
  9 10  1  0
 10 11  2  0
 11 12  1  0
 12 13  2  0
 13 14  1  0
 14 15  2  0
 15 16  1  0
 16 17  2  0
 17 18  1  0
 18 19  2  0
 11 20  1  0
 20 21  1  0
 21 22  1  0
 22 23  1  0
 20  2  1  0
  9  3  1  0
 19 14  1  0
  4 24  1  0
  5 25  1  0
  8 26  1  0
 12 27  1  0
 13 28  1  0
 15 29  1  0
 16 30  1  0
 17 31  1  0
 18 32  1  0
 21 33  1  0
 21 34  1  0
 22 35  1  0
 22 36  1  0
 23 37  1  0
M  END
>  <smiles>  (10) 
O=c1c2ccc(F)cc2nc(/C=C/c2ccccn2)n1CCO

>  <score_type>  (10) 
oracle

>  <origin>  (10) 
autodockgpu

>  <m_score__min__energy>  (10) 
-6.6600000000000001

>  <m_primary>  (10) 
energy

>  <meeko>  (10) 
{"free_energy": -6.15, "intermolecular_energy": -7.94, "internal_energy": -1.54, "cluster_size": 1, "cluster_id": 3, "rank_in_cluster": 1}

>  <energy>  (10) 
-6.63

>  <cluster_rmsd>  (10) 
0.1

>  <rmsd>  (10) 
272.37

>  <cluster>  (10) 
2

$$$$

     RDKit          3D

 37 39  0  0  0  0  0  0  0  0999 V2000
  138.8560   67.7990  225.3840 O   0  0  0  0  0  0  0  0  0  0  0  0
  139.2650   68.9570  225.1080 C   0  0  0  0  0  0  0  0  0  0  0  0
  139.8860   69.6520  226.1120 C   0  0  0  0  0  0  0  0  0  0  0  0
  140.0430   69.0940  227.3540 C   0  0  0  0  0  0  0  0  0  0  0  0
  140.6800   69.8440  228.3380 C   0  0  0  0  0  0  0  0  0  0  0  0
  141.1190   71.1110  228.0120 C   0  0  0  0  0  0  0  0  0  0  0  0
  141.7390   71.8300  228.9880 F   0  0  0  0  0  0  0  0  0  0  0  0
  140.9520   71.6630  226.7510 C   0  0  0  0  0  0  0  0  0  0  0  0
  140.3300   70.9130  225.8100 C   0  0  0  0  0  0  0  0  0  0  0  0
  140.1430   71.3860  224.5960 N   0  0  0  0  0  0  0  0  0  0  0  0
  139.5280   70.7190  223.5710 C   0  0  0  0  0  0  0  0  0  0  0  0
  139.4630   71.4260  222.3270 C   0  0  0  0  0  0  0  0  0  0  0  0
  140.3490   72.0770  221.6500 C   0  0  0  0  0  0  0  0  0  0  0  0
  140.4750   73.5510  221.6380 C   0  0  0  0  0  0  0  0  0  0  0  0
  141.4690   74.2150  220.9900 C   0  0  0  0  0  0  0  0  0  0  0  0
  141.5090   75.6050  221.0320 C   0  0  0  0  0  0  0  0  0  0  0  0
  140.5670   76.3430  221.7140 C   0  0  0  0  0  0  0  0  0  0  0  0
  139.5740   75.6340  222.3610 C   0  0  0  0  0  0  0  0  0  0  0  0
  139.5650   74.2980  222.3010 N   0  0  0  0  0  0  0  0  0  0  0  0
  139.0910   69.4910  223.8490 N   0  0  0  0  0  0  0  0  0  0  0  0
  138.4380   68.6260  222.9100 C   0  0  0  0  0  0  0  0  0  0  0  0
  136.9480   68.8600  222.7800 C   0  0  0  0  0  0  0  0  0  0  0  0
  136.3040   68.8530  224.0330 O   0  0  0  0  0  0  0  0  0  0  0  0
  139.6750   68.0796  227.5674 H   0  0  0  0  0  0  0  0  0  0  0  0
  140.8296   69.4376  229.3491 H   0  0  0  0  0  0  0  0  0  0  0  0
  141.3128   72.6767  226.5223 H   0  0  0  0  0  0  0  0  0  0  0  0
  138.4677   71.4116  221.8588 H   0  0  0  0  0  0  0  0  0  0  0  0
  141.0578   71.4966  221.0412 H   0  0  0  0  0  0  0  0  0  0  0  0
  142.2373   73.6562  220.4356 H   0  0  0  0  0  0  0  0  0  0  0  0
  142.3181   76.1310  220.5041 H   0  0  0  0  0  0  0  0  0  0  0  0
  140.6038   77.4420  221.7420 H   0  0  0  0  0  0  0  0  0  0  0  0
  138.7931   76.1664  222.9238 H   0  0  0  0  0  0  0  0  0  0  0  0
  138.8983   68.7790  221.9227 H   0  0  0  0  0  0  0  0  0  0  0  0
  138.5643   67.6000  223.2859 H   0  0  0  0  0  0  0  0  0  0  0  0
  136.7818   69.8357  222.3001 H   0  0  0  0  0  0  0  0  0  0  0  0
  136.5261   68.0437  222.1752 H   0  0  0  0  0  0  0  0  0  0  0  0
  136.9590   68.5190  224.6860 H   0  0  0  0  0  0  0  0  0  0  0  0
  1  2  2  0
  2  3  1  0
  3  4  2  0
  4  5  1  0
  5  6  2  0
  6  7  1  0
  6  8  1  0
  8  9  2  0
  9 10  1  0
 10 11  2  0
 11 12  1  0
 12 13  2  0
 13 14  1  0
 14 15  2  0
 15 16  1  0
 16 17  2  0
 17 18  1  0
 18 19  2  0
 11 20  1  0
 20 21  1  0
 21 22  1  0
 22 23  1  0
 20  2  1  0
  9  3  1  0
 19 14  1  0
  4 24  1  0
  5 25  1  0
  8 26  1  0
 12 27  1  0
 13 28  1  0
 15 29  1  0
 16 30  1  0
 17 31  1  0
 18 32  1  0
 21 33  1  0
 21 34  1  0
 22 35  1  0
 22 36  1  0
 23 37  1  0
M  END
>  <smiles>  (11) 
O=c1c2ccc(F)cc2nc(/C=C/c2ccccn2)n1CCO

>  <score_type>  (11) 
oracle

>  <origin>  (11) 
autodockgpu

>  <m_score__min__energy>  (11) 
-6.6600000000000001

>  <m_primary>  (11) 
energy

>  <meeko>  (11) 
{"free_energy": -6.63, "intermolecular_energy": -8.42, "internal_energy": -1.43, "cluster_size": 12, "cluster_id": 2, "rank_in_cluster": 5}

>  <energy>  (11) 
-6.63

>  <cluster_rmsd>  (11) 
0.05

>  <rmsd>  (11) 
272.32

>  <cluster>  (11) 
2

$$$$

     RDKit          3D

 37 39  0  0  0  0  0  0  0  0999 V2000
  138.8700   67.8230  225.3620 O   0  0  0  0  0  0  0  0  0  0  0  0
  139.2870   68.9800  225.0940 C   0  0  0  0  0  0  0  0  0  0  0  0
  139.9000   69.6690  226.1070 C   0  0  0  0  0  0  0  0  0  0  0  0
  140.0430   69.1050  227.3490 C   0  0  0  0  0  0  0  0  0  0  0  0
  140.6730   69.8490  228.3420 C   0  0  0  0  0  0  0  0  0  0  0  0
  141.1210   71.1160  228.0250 C   0  0  0  0  0  0  0  0  0  0  0  0
  141.7350   71.8280  229.0100 F   0  0  0  0  0  0  0  0  0  0  0  0
  140.9690   71.6730  226.7650 C   0  0  0  0  0  0  0  0  0  0  0  0
  140.3530   70.9290  225.8150 C   0  0  0  0  0  0  0  0  0  0  0  0
  140.1800   71.4070  224.6010 N   0  0  0  0  0  0  0  0  0  0  0  0
  139.5720   70.7470  223.5670 C   0  0  0  0  0  0  0  0  0  0  0  0
  139.5230   71.4590  222.3250 C   0  0  0  0  0  0  0  0  0  0  0  0
  140.4180   72.1110  221.6610 C   0  0  0  0  0  0  0  0  0  0  0  0
  140.5220   73.5860  221.6230 C   0  0  0  0  0  0  0  0  0  0  0  0
  141.4800   74.2550  220.9270 C   0  0  0  0  0  0  0  0  0  0  0  0
  141.5020   75.6450  220.9480 C   0  0  0  0  0  0  0  0  0  0  0  0
  140.5760   76.3790  221.6560 C   0  0  0  0  0  0  0  0  0  0  0  0
  139.6190   75.6660  222.3510 C   0  0  0  0  0  0  0  0  0  0  0  0
  139.6270   74.3300  222.3100 N   0  0  0  0  0  0  0  0  0  0  0  0
  139.1280   69.5200  223.8350 N   0  0  0  0  0  0  0  0  0  0  0  0
  138.4800   68.6620  222.8870 C   0  0  0  0  0  0  0  0  0  0  0  0
  136.9930   68.9050  222.7410 C   0  0  0  0  0  0  0  0  0  0  0  0
  136.3330   68.8910  223.9860 O   0  0  0  0  0  0  0  0  0  0  0  0
  139.6694   68.0910  227.5548 H   0  0  0  0  0  0  0  0  0  0  0  0
  140.8105   69.4384  229.3532 H   0  0  0  0  0  0  0  0  0  0  0  0
  141.3364   72.6859  226.5436 H   0  0  0  0  0  0  0  0  0  0  0  0
  138.5333   71.4482  221.8450 H   0  0  0  0  0  0  0  0  0  0  0  0
  141.1530   71.5302  221.0844 H   0  0  0  0  0  0  0  0  0  0  0  0
  142.2338   73.6990  220.3502 H   0  0  0  0  0  0  0  0  0  0  0  0
  142.2825   76.1746  220.3821 H   0  0  0  0  0  0  0  0  0  0  0  0
  140.5977   77.4787  221.6673 H   0  0  0  0  0  0  0  0  0  0  0  0
  138.8529   76.1957  222.9362 H   0  0  0  0  0  0  0  0  0  0  0  0
  138.9520   68.8149  221.9052 H   0  0  0  0  0  0  0  0  0  0  0  0
  138.5958   67.6344  223.2619 H   0  0  0  0  0  0  0  0  0  0  0  0
  136.8378   69.8856  222.2674 H   0  0  0  0  0  0  0  0  0  0  0  0
  136.5745   68.0958  222.1245 H   0  0  0  0  0  0  0  0  0  0  0  0
  136.9770   68.5420  224.6430 H   0  0  0  0  0  0  0  0  0  0  0  0
  1  2  2  0
  2  3  1  0
  3  4  2  0
  4  5  1  0
  5  6  2  0
  6  7  1  0
  6  8  1  0
  8  9  2  0
  9 10  1  0
 10 11  2  0
 11 12  1  0
 12 13  2  0
 13 14  1  0
 14 15  2  0
 15 16  1  0
 16 17  2  0
 17 18  1  0
 18 19  2  0
 11 20  1  0
 20 21  1  0
 21 22  1  0
 22 23  1  0
 20  2  1  0
  9  3  1  0
 19 14  1  0
  4 24  1  0
  5 25  1  0
  8 26  1  0
 12 27  1  0
 13 28  1  0
 15 29  1  0
 16 30  1  0
 17 31  1  0
 18 32  1  0
 21 33  1  0
 21 34  1  0
 22 35  1  0
 22 36  1  0
 23 37  1  0
M  END
>  <smiles>  (12) 
O=c1c2ccc(F)cc2nc(/C=C/c2ccccn2)n1CCO

>  <score_type>  (12) 
oracle

>  <origin>  (12) 
autodockgpu

>  <m_score__min__energy>  (12) 
-6.6600000000000001

>  <m_primary>  (12) 
energy

>  <meeko>  (12) 
{"free_energy": -6.64, "intermolecular_energy": -8.43, "internal_energy": -1.43, "cluster_size": 12, "cluster_id": 2, "rank_in_cluster": 1}

>  <energy>  (12) 
-6.62

>  <cluster_rmsd>  (12) 
0.36

>  <rmsd>  (12) 
272.36

>  <cluster>  (12) 
2

$$$$

     RDKit          3D

 37 39  0  0  0  0  0  0  0  0999 V2000
  140.3360   71.9860  225.1520 O   0  0  0  0  0  0  0  0  0  0  0  0
  139.8590   70.8220  225.1680 C   0  0  0  0  0  0  0  0  0  0  0  0
  140.1860   70.0310  226.2380 C   0  0  0  0  0  0  0  0  0  0  0  0
  140.9990   70.5060  227.2350 C   0  0  0  0  0  0  0  0  0  0  0  0
  141.3000   69.6610  228.2990 C   0  0  0  0  0  0  0  0  0  0  0  0
  140.7650   68.3880  228.2930 C   0  0  0  0  0  0  0  0  0  0  0  0
  141.0710   67.5760  229.3430 F   0  0  0  0  0  0  0  0  0  0  0  0
  139.9450   67.9210  227.2780 C   0  0  0  0  0  0  0  0  0  0  0  0
  139.6660   68.7630  226.2540 C   0  0  0  0  0  0  0  0  0  0  0  0
  138.8940   68.3740  225.2620 N   0  0  0  0  0  0  0  0  0  0  0  0
  138.5480   69.1370  224.1790 C   0  0  0  0  0  0  0  0  0  0  0  0
  137.6710   68.5080  223.2360 C   0  0  0  0  0  0  0  0  0  0  0  0
  136.3880   68.5280  223.0950 C   0  0  0  0  0  0  0  0  0  0  0  0
  135.4400   68.9910  224.1320 C   0  0  0  0  0  0  0  0  0  0  0  0
  135.4470   70.2490  224.6480 C   0  0  0  0  0  0  0  0  0  0  0  0
  134.5170   70.5990  225.6220 C   0  0  0  0  0  0  0  0  0  0  0  0
  133.5770   69.7060  226.0870 C   0  0  0  0  0  0  0  0  0  0  0  0
  133.6010   68.4380  225.5410 C   0  0  0  0  0  0  0  0  0  0  0  0
  134.5090   68.1350  224.6070 N   0  0  0  0  0  0  0  0  0  0  0  0
  139.0450   70.3730  224.1500 N   0  0  0  0  0  0  0  0  0  0  0  0
  138.7880   71.3310  223.1140 C   0  0  0  0  0  0  0  0  0  0  0  0
  140.0260   71.8060  222.3840 C   0  0  0  0  0  0  0  0  0  0  0  0
  140.3190   73.1540  222.6670 O   0  0  0  0  0  0  0  0  0  0  0  0
  141.4027   71.5284  227.1948 H   0  0  0  0  0  0  0  0  0  0  0  0
  141.9467   69.9981  229.1225 H   0  0  0  0  0  0  0  0  0  0  0  0
  139.5344   66.9008  227.3030 H   0  0  0  0  0  0  0  0  0  0  0  0
  138.1908   67.8897  222.4893 H   0  0  0  0  0  0  0  0  0  0  0  0
  135.9715   68.1771  222.1393 H   0  0  0  0  0  0  0  0  0  0  0  0
  136.1841   70.9863  224.2972 H   0  0  0  0  0  0  0  0  0  0  0  0
  134.5329   71.6193  226.0329 H   0  0  0  0  0  0  0  0  0  0  0  0
  132.8430   69.9892  226.8558 H   0  0  0  0  0  0  0  0  0  0  0  0
  132.8762   67.6801  225.8729 H   0  0  0  0  0  0  0  0  0  0  0  0
  138.1103   70.8710  222.3798 H   0  0  0  0  0  0  0  0  0  0  0  0
  138.3521   72.2146  223.6030 H   0  0  0  0  0  0  0  0  0  0  0  0
  140.8801   71.1846  222.6912 H   0  0  0  0  0  0  0  0  0  0  0  0
  139.8390   71.7179  221.3036 H   0  0  0  0  0  0  0  0  0  0  0  0
  139.9080   73.3560  223.5380 H   0  0  0  0  0  0  0  0  0  0  0  0
  1  2  2  0
  2  3  1  0
  3  4  2  0
  4  5  1  0
  5  6  2  0
  6  7  1  0
  6  8  1  0
  8  9  2  0
  9 10  1  0
 10 11  2  0
 11 12  1  0
 12 13  2  0
 13 14  1  0
 14 15  2  0
 15 16  1  0
 16 17  2  0
 17 18  1  0
 18 19  2  0
 11 20  1  0
 20 21  1  0
 21 22  1  0
 22 23  1  0
 20  2  1  0
  9  3  1  0
 19 14  1  0
  4 24  1  0
  5 25  1  0
  8 26  1  0
 12 27  1  0
 13 28  1  0
 15 29  1  0
 16 30  1  0
 17 31  1  0
 18 32  1  0
 21 33  1  0
 21 34  1  0
 22 35  1  0
 22 36  1  0
 23 37  1  0
M  END
>  <smiles>  (13) 
O=c1c2ccc(F)cc2nc(/C=C/c2ccccn2)n1CCO

>  <score_type>  (13) 
oracle

>  <origin>  (13) 
autodockgpu

>  <m_score__min__energy>  (13) 
-6.6600000000000001

>  <m_primary>  (13) 
energy

>  <meeko>  (13) 
{"free_energy": -6.61, "intermolecular_energy": -8.4, "internal_energy": -1.51, "cluster_size": 6, "cluster_id": 1, "rank_in_cluster": 4}

>  <energy>  (13) 
-6.61

>  <cluster_rmsd>  (13) 
0.26

>  <rmsd>  (13) 
272.4

>  <cluster>  (13) 
2

$$$$

     RDKit          3D

 37 39  0  0  0  0  0  0  0  0999 V2000
  138.8400   67.8550  225.3740 O   0  0  0  0  0  0  0  0  0  0  0  0
  139.2740   69.0040  225.0970 C   0  0  0  0  0  0  0  0  0  0  0  0
  139.8870   69.6970  226.1070 C   0  0  0  0  0  0  0  0  0  0  0  0
  140.0120   69.1460  227.3560 C   0  0  0  0  0  0  0  0  0  0  0  0
  140.6430   69.8940  228.3460 C   0  0  0  0  0  0  0  0  0  0  0  0
  141.1100   71.1510  228.0170 C   0  0  0  0  0  0  0  0  0  0  0  0
  141.7240   71.8670  228.9990 F   0  0  0  0  0  0  0  0  0  0  0  0
  140.9760   71.6950  226.7500 C   0  0  0  0  0  0  0  0  0  0  0  0
  140.3580   70.9470  225.8030 C   0  0  0  0  0  0  0  0  0  0  0  0
  140.2020   71.4130  224.5820 N   0  0  0  0  0  0  0  0  0  0  0  0
  139.5950   70.7480  223.5510 C   0  0  0  0  0  0  0  0  0  0  0  0
  139.5650   71.4460  222.3000 C   0  0  0  0  0  0  0  0  0  0  0  0
  140.4600   72.1230  221.6620 C   0  0  0  0  0  0  0  0  0  0  0  0
  140.5270   73.6000  221.6330 C   0  0  0  0  0  0  0  0  0  0  0  0
  141.4810   74.2960  220.9570 C   0  0  0  0  0  0  0  0  0  0  0  0
  141.4670   75.6870  220.9850 C   0  0  0  0  0  0  0  0  0  0  0  0
  140.5110   76.3940  221.6790 C   0  0  0  0  0  0  0  0  0  0  0  0
  139.5600   75.6540  222.3530 C   0  0  0  0  0  0  0  0  0  0  0  0
  139.6020   74.3180  222.3060 N   0  0  0  0  0  0  0  0  0  0  0  0
  139.1320   69.5300  223.8300 N   0  0  0  0  0  0  0  0  0  0  0  0
  138.4820   68.6690  222.8860 C   0  0  0  0  0  0  0  0  0  0  0  0
  137.0020   68.9380  222.7140 C   0  0  0  0  0  0  0  0  0  0  0  0
  136.3140   68.8970  223.9430 O   0  0  0  0  0  0  0  0  0  0  0  0
  139.6239   68.1393  227.5703 H   0  0  0  0  0  0  0  0  0  0  0  0
  140.7663   69.4943  229.3633 H   0  0  0  0  0  0  0  0  0  0  0  0
  141.3583   72.7004  226.5199 H   0  0  0  0  0  0  0  0  0  0  0  0
  138.5943   71.3953  221.7851 H   0  0  0  0  0  0  0  0  0  0  0  0
  141.2242   71.5637  221.1023 H   0  0  0  0  0  0  0  0  0  0  0  0
  142.2589   73.7620  220.3916 H   0  0  0  0  0  0  0  0  0  0  0  0
  142.2438   76.2390  220.4356 H   0  0  0  0  0  0  0  0  0  0  0  0
  140.5051   77.4939  221.6957 H   0  0  0  0  0  0  0  0  0  0  0  0
  138.7705   76.1615  222.9267 H   0  0  0  0  0  0  0  0  0  0  0  0
  138.9713   68.7970  221.9092 H   0  0  0  0  0  0  0  0  0  0  0  0
  138.5727   67.6454  223.2786 H   0  0  0  0  0  0  0  0  0  0  0  0
  136.8713   69.9343  222.2664 H   0  0  0  0  0  0  0  0  0  0  0  0
  136.5863   68.1537  222.0644 H   0  0  0  0  0  0  0  0  0  0  0  0
  136.9580   68.5870  224.6180 H   0  0  0  0  0  0  0  0  0  0  0  0
  1  2  2  0
  2  3  1  0
  3  4  2  0
  4  5  1  0
  5  6  2  0
  6  7  1  0
  6  8  1  0
  8  9  2  0
  9 10  1  0
 10 11  2  0
 11 12  1  0
 12 13  2  0
 13 14  1  0
 14 15  2  0
 15 16  1  0
 16 17  2  0
 17 18  1  0
 18 19  2  0
 11 20  1  0
 20 21  1  0
 21 22  1  0
 22 23  1  0
 20  2  1  0
  9  3  1  0
 19 14  1  0
  4 24  1  0
  5 25  1  0
  8 26  1  0
 12 27  1  0
 13 28  1  0
 15 29  1  0
 16 30  1  0
 17 31  1  0
 18 32  1  0
 21 33  1  0
 21 34  1  0
 22 35  1  0
 22 36  1  0
 23 37  1  0
M  END
>  <smiles>  (14) 
O=c1c2ccc(F)cc2nc(/C=C/c2ccccn2)n1CCO

>  <score_type>  (14) 
oracle

>  <origin>  (14) 
autodockgpu

>  <m_score__min__energy>  (14) 
-6.6600000000000001

>  <m_primary>  (14) 
energy

>  <meeko>  (14) 
{"free_energy": -6.64, "intermolecular_energy": -8.43, "internal_energy": -1.43, "cluster_size": 12, "cluster_id": 2, "rank_in_cluster": 2}

>  <energy>  (14) 
-6.6

>  <cluster_rmsd>  (14) 
0.85

>  <rmsd>  (14) 
272.42

>  <cluster>  (14) 
2

$$$$

     RDKit          3D

 37 39  0  0  0  0  0  0  0  0999 V2000
  138.8630   67.8410  225.3480 O   0  0  0  0  0  0  0  0  0  0  0  0
  139.3380   68.9720  225.0620 C   0  0  0  0  0  0  0  0  0  0  0  0
  139.9300   69.6720  226.0800 C   0  0  0  0  0  0  0  0  0  0  0  0
  139.9900   69.1480  227.3460 C   0  0  0  0  0  0  0  0  0  0  0  0
  140.6030   69.9020  228.3430 C   0  0  0  0  0  0  0  0  0  0  0  0
  141.1160   71.1380  228.0050 C   0  0  0  0  0  0  0  0  0  0  0  0
  141.7110   71.8610  228.9940 F   0  0  0  0  0  0  0  0  0  0  0  0
  141.0470   71.6550  226.7210 C   0  0  0  0  0  0  0  0  0  0  0  0
  140.4460   70.9020  225.7680 C   0  0  0  0  0  0  0  0  0  0  0  0
  140.3510   71.3430  224.5310 N   0  0  0  0  0  0  0  0  0  0  0  0
  139.7670   70.6700  223.4920 C   0  0  0  0  0  0  0  0  0  0  0  0
  139.8060   71.3390  222.2250 C   0  0  0  0  0  0  0  0  0  0  0  0
  139.2450   72.4190  221.7960 C   0  0  0  0  0  0  0  0  0  0  0  0
  139.9280   73.7260  221.6810 C   0  0  0  0  0  0  0  0  0  0  0  0
  141.0530   73.9240  220.9420 C   0  0  0  0  0  0  0  0  0  0  0  0
  141.6290   75.1890  220.8900 C   0  0  0  0  0  0  0  0  0  0  0  0
  141.0940   76.2630  221.5670 C   0  0  0  0  0  0  0  0  0  0  0  0
  139.9530   76.0240  222.3070 C   0  0  0  0  0  0  0  0  0  0  0  0
  139.4250   74.7950  222.3350 N   0  0  0  0  0  0  0  0  0  0  0  0
  139.2610   69.4710  223.7800 N   0  0  0  0  0  0  0  0  0  0  0  0
  138.6250   68.6060  222.8300 C   0  0  0  0  0  0  0  0  0  0  0  0
  137.1430   68.8590  222.6520 C   0  0  0  0  0  0  0  0  0  0  0  0
  136.4640   68.8960  223.8850 O   0  0  0  0  0  0  0  0  0  0  0  0
  139.5650   68.1580  227.5678 H   0  0  0  0  0  0  0  0  0  0  0  0
  140.6765   69.5227  229.3729 H   0  0  0  0  0  0  0  0  0  0  0  0
  141.4662   72.6438  226.4833 H   0  0  0  0  0  0  0  0  0  0  0  0
  140.4341   70.8357  221.4752 H   0  0  0  0  0  0  0  0  0  0  0  0
  138.1882   72.3640  221.4958 H   0  0  0  0  0  0  0  0  0  0  0  0
  141.5049   73.0878  220.3883 H   0  0  0  0  0  0  0  0  0  0  0  0
  142.5392   75.3363  220.2902 H   0  0  0  0  0  0  0  0  0  0  0  0
  141.5531   77.2615  221.5203 H   0  0  0  0  0  0  0  0  0  0  0  0
  139.4799   76.8411  222.8714 H   0  0  0  0  0  0  0  0  0  0  0  0
  139.1173   68.7428  221.8559 H   0  0  0  0  0  0  0  0  0  0  0  0
  138.7253   67.5822  223.2195 H   0  0  0  0  0  0  0  0  0  0  0  0
  137.0059   69.8237  222.1416 H   0  0  0  0  0  0  0  0  0  0  0  0
  136.7254   68.0327  222.0580 H   0  0  0  0  0  0  0  0  0  0  0  0
  137.0520   68.4660  224.5450 H   0  0  0  0  0  0  0  0  0  0  0  0
  1  2  2  0
  2  3  1  0
  3  4  2  0
  4  5  1  0
  5  6  2  0
  6  7  1  0
  6  8  1  0
  8  9  2  0
  9 10  1  0
 10 11  2  0
 11 12  1  0
 12 13  2  0
 13 14  1  0
 14 15  2  0
 15 16  1  0
 16 17  2  0
 17 18  1  0
 18 19  2  0
 11 20  1  0
 20 21  1  0
 21 22  1  0
 22 23  1  0
 20  2  1  0
  9  3  1  0
 19 14  1  0
  4 24  1  0
  5 25  1  0
  8 26  1  0
 12 27  1  0
 13 28  1  0
 15 29  1  0
 16 30  1  0
 17 31  1  0
 18 32  1  0
 21 33  1  0
 21 34  1  0
 22 35  1  0
 22 36  1  0
 23 37  1  0
M  END
>  <smiles>  (15) 
O=c1c2ccc(F)cc2nc(/C=C/c2ccccn2)n1CCO

>  <score_type>  (15) 
oracle

>  <origin>  (15) 
autodockgpu

>  <m_score__min__energy>  (15) 
-6.6600000000000001

>  <m_primary>  (15) 
energy

>  <meeko>  (15) 
{"free_energy": -6.41, "intermolecular_energy": -8.2, "internal_energy": -1.45, "cluster_size": 12, "cluster_id": 2, "rank_in_cluster": 12}

>  <energy>  (15) 
-6.56

>  <cluster_rmsd>  (15) 
1.12

>  <rmsd>  (15) 
272.22

>  <cluster>  (15) 
2

$$$$

     RDKit          3D

 37 39  0  0  0  0  0  0  0  0999 V2000
  140.3220   72.1110  224.8090 O   0  0  0  0  0  0  0  0  0  0  0  0
  139.7840   70.9730  224.8510 C   0  0  0  0  0  0  0  0  0  0  0  0
  140.0610   70.1960  225.9450 C   0  0  0  0  0  0  0  0  0  0  0  0
  140.8890   70.6550  226.9360 C   0  0  0  0  0  0  0  0  0  0  0  0
  141.1370   69.8250  228.0250 C   0  0  0  0  0  0  0  0  0  0  0  0
  140.5360   68.5820  228.0490 C   0  0  0  0  0  0  0  0  0  0  0  0
  140.7910   67.7840  229.1230 F   0  0  0  0  0  0  0  0  0  0  0  0
  139.7010   68.1310  227.0390 C   0  0  0  0  0  0  0  0  0  0  0  0
  139.4750   68.9580  225.9900 C   0  0  0  0  0  0  0  0  0  0  0  0
  138.6910   68.5820  225.0020 N   0  0  0  0  0  0  0  0  0  0  0  0
  138.3940   69.3330  223.8960 C   0  0  0  0  0  0  0  0  0  0  0  0
  137.4940   68.7250  222.9620 C   0  0  0  0  0  0  0  0  0  0  0  0
  136.2180   68.5260  222.9880 C   0  0  0  0  0  0  0  0  0  0  0  0
  135.3220   68.9870  224.0710 C   0  0  0  0  0  0  0  0  0  0  0  0
  135.3760   70.2340  224.6120 C   0  0  0  0  0  0  0  0  0  0  0  0
  134.4930   70.5820  225.6290 C   0  0  0  0  0  0  0  0  0  0  0  0
  133.5540   69.7000  226.1140 C   0  0  0  0  0  0  0  0  0  0  0  0
  133.5300   68.4430  225.5420 C   0  0  0  0  0  0  0  0  0  0  0  0
  134.3930   68.1410  224.5660 N   0  0  0  0  0  0  0  0  0  0  0  0
  138.9560   70.5400  223.8380 N   0  0  0  0  0  0  0  0  0  0  0  0
  138.7570   71.4810  222.7740 C   0  0  0  0  0  0  0  0  0  0  0  0
  140.0370   71.9850  222.1420 C   0  0  0  0  0  0  0  0  0  0  0  0
  140.2840   73.3350  222.4580 O   0  0  0  0  0  0  0  0  0  0  0  0
  141.3457   71.6537  226.8722 H   0  0  0  0  0  0  0  0  0  0  0  0
  141.7942   70.1504  228.8449 H   0  0  0  0  0  0  0  0  0  0  0  0
  139.2372   67.1347  227.0875 H   0  0  0  0  0  0  0  0  0  0  0  0
  137.9830   68.3573  222.0479 H   0  0  0  0  0  0  0  0  0  0  0  0
  135.7673   67.9767  222.1483 H   0  0  0  0  0  0  0  0  0  0  0  0
  136.1141   70.9634  224.2471 H   0  0  0  0  0  0  0  0  0  0  0  0
  134.5468   71.5931  226.0589 H   0  0  0  0  0  0  0  0  0  0  0  0
  132.8574   69.9822  226.9172 H   0  0  0  0  0  0  0  0  0  0  0  0
  132.8036   67.6929  225.8880 H   0  0  0  0  0  0  0  0  0  0  0  0
  138.1546   70.9951  221.9923 H   0  0  0  0  0  0  0  0  0  0  0  0
  138.2576   72.3558  223.2158 H   0  0  0  0  0  0  0  0  0  0  0  0
  140.8771   71.3753  222.5060 H   0  0  0  0  0  0  0  0  0  0  0  0
  139.9319   71.9048  221.0500 H   0  0  0  0  0  0  0  0  0  0  0  0
  139.7600   73.5370  223.2650 H   0  0  0  0  0  0  0  0  0  0  0  0
  1  2  2  0
  2  3  1  0
  3  4  2  0
  4  5  1  0
  5  6  2  0
  6  7  1  0
  6  8  1  0
  8  9  2  0
  9 10  1  0
 10 11  2  0
 11 12  1  0
 12 13  2  0
 13 14  1  0
 14 15  2  0
 15 16  1  0
 16 17  2  0
 17 18  1  0
 18 19  2  0
 11 20  1  0
 20 21  1  0
 21 22  1  0
 22 23  1  0
 20  2  1  0
  9  3  1  0
 19 14  1  0
  4 24  1  0
  5 25  1  0
  8 26  1  0
 12 27  1  0
 13 28  1  0
 15 29  1  0
 16 30  1  0
 17 31  1  0
 18 32  1  0
 21 33  1  0
 21 34  1  0
 22 35  1  0
 22 36  1  0
 23 37  1  0
M  END
>  <smiles>  (16) 
O=c1c2ccc(F)cc2nc(/C=C/c2ccccn2)n1CCO

>  <score_type>  (16) 
oracle

>  <origin>  (16) 
autodockgpu

>  <m_score__min__energy>  (16) 
-6.6600000000000001

>  <m_primary>  (16) 
energy

>  <meeko>  (16) 
{"free_energy": -6.53, "intermolecular_energy": -8.32, "internal_energy": -1.4, "cluster_size": 6, "cluster_id": 1, "rank_in_cluster": 6}

>  <energy>  (16) 
-6.53

>  <cluster_rmsd>  (16) 
0.66

>  <rmsd>  (16) 
272.29

>  <cluster>  (16) 
2

$$$$

     RDKit          3D

 37 39  0  0  0  0  0  0  0  0999 V2000
  138.8450   67.7710  225.4160 O   0  0  0  0  0  0  0  0  0  0  0  0
  139.1710   68.9580  225.1530 C   0  0  0  0  0  0  0  0  0  0  0  0
  139.8270   69.6540  226.1350 C   0  0  0  0  0  0  0  0  0  0  0  0
  140.1040   69.0650  227.3410 C   0  0  0  0  0  0  0  0  0  0  0  0
  140.7720   69.8170  228.3040 C   0  0  0  0  0  0  0  0  0  0  0  0
  141.1190   71.1160  227.9920 C   0  0  0  0  0  0  0  0  0  0  0  0
  141.7710   71.8360  228.9470 F   0  0  0  0  0  0  0  0  0  0  0  0
  140.8310   71.6990  226.7680 C   0  0  0  0  0  0  0  0  0  0  0  0
  140.1810   70.9460  225.8470 C   0  0  0  0  0  0  0  0  0  0  0  0
  139.8810   71.4470  224.6680 N   0  0  0  0  0  0  0  0  0  0  0  0
  139.2280   70.7800  223.6660 C   0  0  0  0  0  0  0  0  0  0  0  0
  139.0340   71.5230  222.4560 C   0  0  0  0  0  0  0  0  0  0  0  0
  139.7750   72.3790  221.8340 C   0  0  0  0  0  0  0  0  0  0  0  0
  139.6070   73.8450  221.9170 C   0  0  0  0  0  0  0  0  0  0  0  0
  138.3950   74.4630  221.9420 C   0  0  0  0  0  0  0  0  0  0  0  0
  138.3300   75.8500  222.0220 C   0  0  0  0  0  0  0  0  0  0  0  0
  139.4630   76.6310  222.0780 C   0  0  0  0  0  0  0  0  0  0  0  0
  140.6750   75.9700  222.0500 C   0  0  0  0  0  0  0  0  0  0  0  0
  140.7010   74.6350  221.9720 N   0  0  0  0  0  0  0  0  0  0  0  0
  138.8770   69.5220  223.9300 N   0  0  0  0  0  0  0  0  0  0  0  0
  138.2020   68.6540  223.0100 C   0  0  0  0  0  0  0  0  0  0  0  0
  136.6960   68.7960  223.0100 C   0  0  0  0  0  0  0  0  0  0  0  0
  136.1760   68.8820  224.3170 O   0  0  0  0  0  0  0  0  0  0  0  0
  139.8065   68.0255  227.5430 H   0  0  0  0  0  0  0  0  0  0  0  0
  141.0165   69.3875  229.2867 H   0  0  0  0  0  0  0  0  0  0  0  0
  141.1202   72.7379  226.5512 H   0  0  0  0  0  0  0  0  0  0  0  0
  138.0704   71.3270  221.9629 H   0  0  0  0  0  0  0  0  0  0  0  0
  140.5856   71.9906  221.1999 H   0  0  0  0  0  0  0  0  0  0  0  0
  137.4707   73.8682  221.8991 H   0  0  0  0  0  0  0  0  0  0  0  0
  137.3442   76.3377  222.0411 H   0  0  0  0  0  0  0  0  0  0  0  0
  139.4052   77.7276  222.1419 H   0  0  0  0  0  0  0  0  0  0  0  0
  141.6154   76.5391  222.0917 H   0  0  0  0  0  0  0  0  0  0  0  0
  138.5687   68.8742  221.9966 H   0  0  0  0  0  0  0  0  0  0  0  0
  138.4211   67.6246  223.3300 H   0  0  0  0  0  0  0  0  0  0  0  0
  136.4249   69.7085  222.4587 H   0  0  0  0  0  0  0  0  0  0  0  0
  136.2694   67.9020  222.5317 H   0  0  0  0  0  0  0  0  0  0  0  0
  136.8680   68.5290  224.9200 H   0  0  0  0  0  0  0  0  0  0  0  0
  1  2  2  0
  2  3  1  0
  3  4  2  0
  4  5  1  0
  5  6  2  0
  6  7  1  0
  6  8  1  0
  8  9  2  0
  9 10  1  0
 10 11  2  0
 11 12  1  0
 12 13  2  0
 13 14  1  0
 14 15  2  0
 15 16  1  0
 16 17  2  0
 17 18  1  0
 18 19  2  0
 11 20  1  0
 20 21  1  0
 21 22  1  0
 22 23  1  0
 20  2  1  0
  9  3  1  0
 19 14  1  0
  4 24  1  0
  5 25  1  0
  8 26  1  0
 12 27  1  0
 13 28  1  0
 15 29  1  0
 16 30  1  0
 17 31  1  0
 18 32  1  0
 21 33  1  0
 21 34  1  0
 22 35  1  0
 22 36  1  0
 23 37  1  0
M  END
>  <smiles>  (17) 
O=c1c2ccc(F)cc2nc(/C=C/c2ccccn2)n1CCO

>  <score_type>  (17) 
oracle

>  <origin>  (17) 
autodockgpu

>  <m_score__min__energy>  (17) 
-6.6600000000000001

>  <m_primary>  (17) 
energy

>  <meeko>  (17) 
{"free_energy": -6.53, "intermolecular_energy": -8.32, "internal_energy": -1.44, "cluster_size": 12, "cluster_id": 2, "rank_in_cluster": 10}

>  <energy>  (17) 
-6.52

>  <cluster_rmsd>  (17) 
0.64

>  <rmsd>  (17) 
272.3

>  <cluster>  (17) 
2

$$$$

     RDKit          3D

 37 39  0  0  0  0  0  0  0  0999 V2000
  138.9390   67.7940  225.3470 O   0  0  0  0  0  0  0  0  0  0  0  0
  139.3070   68.9720  225.0970 C   0  0  0  0  0  0  0  0  0  0  0  0
  139.9230   69.6580  226.1100 C   0  0  0  0  0  0  0  0  0  0  0  0
  140.1210   69.0700  227.3330 C   0  0  0  0  0  0  0  0  0  0  0  0
  140.7520   69.8120  228.3270 C   0  0  0  0  0  0  0  0  0  0  0  0
  141.1450   71.1010  228.0290 C   0  0  0  0  0  0  0  0  0  0  0  0
  141.7600   71.8120  229.0150 F   0  0  0  0  0  0  0  0  0  0  0  0
  140.9380   71.6830  226.7880 C   0  0  0  0  0  0  0  0  0  0  0  0
  140.3220   70.9400  225.8370 C   0  0  0  0  0  0  0  0  0  0  0  0
  140.0980   71.4420  224.6410 N   0  0  0  0  0  0  0  0  0  0  0  0
  139.4850   70.7840  223.6080 C   0  0  0  0  0  0  0  0  0  0  0  0
  139.3760   71.5240  222.3860 C   0  0  0  0  0  0  0  0  0  0  0  0
  138.6530   72.5390  222.0460 C   0  0  0  0  0  0  0  0  0  0  0  0
  139.1420   73.9330  221.9940 C   0  0  0  0  0  0  0  0  0  0  0  0
  138.3210   75.0170  221.9690 C   0  0  0  0  0  0  0  0  0  0  0  0
  138.8690   76.2950  221.9210 C   0  0  0  0  0  0  0  0  0  0  0  0
  140.2300   76.5050  221.8980 C   0  0  0  0  0  0  0  0  0  0  0  0
  141.0320   75.3810  221.9240 C   0  0  0  0  0  0  0  0  0  0  0  0
  140.4720   74.1680  221.9700 N   0  0  0  0  0  0  0  0  0  0  0  0
  139.0930   69.5360  223.8570 N   0  0  0  0  0  0  0  0  0  0  0  0
  138.4500   68.6780  222.9050 C   0  0  0  0  0  0  0  0  0  0  0  0
  136.9510   68.8690  222.8070 C   0  0  0  0  0  0  0  0  0  0  0  0
  136.3390   68.8830  224.0760 O   0  0  0  0  0  0  0  0  0  0  0  0
  139.7896   68.0385  227.5234 H   0  0  0  0  0  0  0  0  0  0  0  0
  140.9327   69.3826  229.3235 H   0  0  0  0  0  0  0  0  0  0  0  0
  141.2630   72.7135  226.5822 H   0  0  0  0  0  0  0  0  0  0  0  0
  140.0338   71.1578  221.5840 H   0  0  0  0  0  0  0  0  0  0  0  0
  137.6026   72.3535  221.7770 H   0  0  0  0  0  0  0  0  0  0  0  0
  137.2292   74.8840  221.9866 H   0  0  0  0  0  0  0  0  0  0  0  0
  138.1949   77.1640  221.9008 H   0  0  0  0  0  0  0  0  0  0  0  0
  140.6571   77.5180  221.8607 H   0  0  0  0  0  0  0  0  0  0  0  0
  142.1271   75.4834  221.9069 H   0  0  0  0  0  0  0  0  0  0  0  0
  138.8876   68.8730  221.9148 H   0  0  0  0  0  0  0  0  0  0  0  0
  138.6143   67.6463  223.2493 H   0  0  0  0  0  0  0  0  0  0  0  0
  136.7465   69.8251  222.3030 H   0  0  0  0  0  0  0  0  0  0  0  0
  136.5362   68.0240  222.2378 H   0  0  0  0  0  0  0  0  0  0  0  0
  137.0050   68.5430  224.7150 H   0  0  0  0  0  0  0  0  0  0  0  0
  1  2  2  0
  2  3  1  0
  3  4  2  0
  4  5  1  0
  5  6  2  0
  6  7  1  0
  6  8  1  0
  8  9  2  0
  9 10  1  0
 10 11  2  0
 11 12  1  0
 12 13  2  0
 13 14  1  0
 14 15  2  0
 15 16  1  0
 16 17  2  0
 17 18  1  0
 18 19  2  0
 11 20  1  0
 20 21  1  0
 21 22  1  0
 22 23  1  0
 20  2  1  0
  9  3  1  0
 19 14  1  0
  4 24  1  0
  5 25  1  0
  8 26  1  0
 12 27  1  0
 13 28  1  0
 15 29  1  0
 16 30  1  0
 17 31  1  0
 18 32  1  0
 21 33  1  0
 21 34  1  0
 22 35  1  0
 22 36  1  0
 23 37  1  0
M  END
>  <smiles>  (18) 
O=c1c2ccc(F)cc2nc(/C=C/c2ccccn2)n1CCO

>  <score_type>  (18) 
oracle

>  <origin>  (18) 
autodockgpu

>  <m_score__min__energy>  (18) 
-6.6600000000000001

>  <m_primary>  (18) 
energy

>  <meeko>  (18) 
{"free_energy": -6.52, "intermolecular_energy": -8.31, "internal_energy": -1.44, "cluster_size": 12, "cluster_id": 2, "rank_in_cluster": 11}

>  <energy>  (18) 
-6.41

>  <cluster_rmsd>  (18) 
0.37

>  <rmsd>  (18) 
272.3

>  <cluster>  (18) 
2

$$$$

     RDKit          3D

 37 39  0  0  0  0  0  0  0  0999 V2000
  138.8620   67.8100  225.3380 O   0  0  0  0  0  0  0  0  0  0  0  0
  139.2690   68.9780  225.1020 C   0  0  0  0  0  0  0  0  0  0  0  0
  139.9050   69.6320  226.1240 C   0  0  0  0  0  0  0  0  0  0  0  0
  140.0800   69.0240  227.3410 C   0  0  0  0  0  0  0  0  0  0  0  0
  140.7330   69.7330  228.3440 C   0  0  0  0  0  0  0  0  0  0  0  0
  141.1680   71.0120  228.0630 C   0  0  0  0  0  0  0  0  0  0  0  0
  141.8040   71.6910  229.0570 F   0  0  0  0  0  0  0  0  0  0  0  0
  140.9840   71.6150  226.8280 C   0  0  0  0  0  0  0  0  0  0  0  0
  140.3460   70.9030  225.8670 C   0  0  0  0  0  0  0  0  0  0  0  0
  140.1420   71.4250  224.6760 N   0  0  0  0  0  0  0  0  0  0  0  0
  139.5110   70.8000  223.6340 C   0  0  0  0  0  0  0  0  0  0  0  0
  139.4280   71.5570  222.4200 C   0  0  0  0  0  0  0  0  0  0  0  0
  140.3300   72.0930  221.6680 C   0  0  0  0  0  0  0  0  0  0  0  0
  140.5950   73.5460  221.5860 C   0  0  0  0  0  0  0  0  0  0  0  0
  141.6080   74.0850  220.8570 C   0  0  0  0  0  0  0  0  0  0  0  0
  141.7840   75.4650  220.8380 C   0  0  0  0  0  0  0  0  0  0  0  0
  140.9570   76.3160  221.5370 C   0  0  0  0  0  0  0  0  0  0  0  0
  139.9400   75.7320  222.2660 C   0  0  0  0  0  0  0  0  0  0  0  0
  139.8000   74.4030  222.2640 N   0  0  0  0  0  0  0  0  0  0  0  0
  139.0770   69.5620  223.8680 N   0  0  0  0  0  0  0  0  0  0  0  0
  138.4080   68.7370  222.9050 C   0  0  0  0  0  0  0  0  0  0  0  0
  136.9120   68.9550  222.8300 C   0  0  0  0  0  0  0  0  0  0  0  0
  136.3070   68.8950  224.1010 O   0  0  0  0  0  0  0  0  0  0  0  0
  139.7135   68.0023  227.5192 H   0  0  0  0  0  0  0  0  0  0  0  0
  140.8983   69.2857  229.3353 H   0  0  0  0  0  0  0  0  0  0  0  0
  141.3435   72.6364  226.6347 H   0  0  0  0  0  0  0  0  0  0  0  0
  138.3998   71.7106  222.0605 H   0  0  0  0  0  0  0  0  0  0  0  0
  140.9430   71.4240  221.0461 H   0  0  0  0  0  0  0  0  0  0  0  0
  142.2850   73.4334  220.2851 H   0  0  0  0  0  0  0  0  0  0  0  0
  142.6088   75.8893  220.2467 H   0  0  0  0  0  0  0  0  0  0  0  0
  141.0995   77.4065  221.5156 H   0  0  0  0  0  0  0  0  0  0  0  0
  139.2472   76.3588  222.8466 H   0  0  0  0  0  0  0  0  0  0  0  0
  138.8369   68.9472  221.9141 H   0  0  0  0  0  0  0  0  0  0  0  0
  138.5589   67.6951  223.2239 H   0  0  0  0  0  0  0  0  0  0  0  0
  136.7186   69.9448  222.3907 H   0  0  0  0  0  0  0  0  0  0  0  0
  136.4820   68.1545  222.2101 H   0  0  0  0  0  0  0  0  0  0  0  0
  136.9760   68.5190  224.7150 H   0  0  0  0  0  0  0  0  0  0  0  0
  1  2  2  0
  2  3  1  0
  3  4  2  0
  4  5  1  0
  5  6  2  0
  6  7  1  0
  6  8  1  0
  8  9  2  0
  9 10  1  0
 10 11  2  0
 11 12  1  0
 12 13  2  0
 13 14  1  0
 14 15  2  0
 15 16  1  0
 16 17  2  0
 17 18  1  0
 18 19  2  0
 11 20  1  0
 20 21  1  0
 21 22  1  0
 22 23  1  0
 20  2  1  0
  9  3  1  0
 19 14  1  0
  4 24  1  0
  5 25  1  0
  8 26  1  0
 12 27  1  0
 13 28  1  0
 15 29  1  0
 16 30  1  0
 17 31  1  0
 18 32  1  0
 21 33  1  0
 21 34  1  0
 22 35  1  0
 22 36  1  0
 23 37  1  0
M  END
>  <smiles>  (19) 
O=c1c2ccc(F)cc2nc(/C=C/c2ccccn2)n1CCO

>  <score_type>  (19) 
oracle

>  <origin>  (19) 
autodockgpu

>  <m_score__min__energy>  (19) 
-6.6600000000000001

>  <m_primary>  (19) 
energy

>  <meeko>  (19) 
{"free_energy": -6.63, "intermolecular_energy": -8.42, "internal_energy": -1.42, "cluster_size": 12, "cluster_id": 2, "rank_in_cluster": 3}

>  <energy>  (19) 
-6.15

>  <cluster_rmsd>  (19) 
0.0

>  <rmsd>  (19) 
272.46

>  <cluster>  (19) 
3

$$$$

     RDKit          3D

 37 39  0  0  0  0  0  0  0  0999 V2000
  140.3360   72.0360  225.0470 O   0  0  0  0  0  0  0  0  0  0  0  0
  139.8420   70.8780  225.0790 C   0  0  0  0  0  0  0  0  0  0  0  0
  140.1400   70.1050  226.1700 C   0  0  0  0  0  0  0  0  0  0  0  0
  140.9420   70.5900  227.1710 C   0  0  0  0  0  0  0  0  0  0  0  0
  141.2130   69.7630  228.2570 C   0  0  0  0  0  0  0  0  0  0  0  0
  140.6620   68.4970  228.2680 C   0  0  0  0  0  0  0  0  0  0  0  0
  140.9390   67.7030  229.3390 F   0  0  0  0  0  0  0  0  0  0  0  0
  139.8530   68.0210  227.2480 C   0  0  0  0  0  0  0  0  0  0  0  0
  139.6040   68.8450  226.2020 C   0  0  0  0  0  0  0  0  0  0  0  0
  138.8430   68.4450  225.2050 N   0  0  0  0  0  0  0  0  0  0  0  0
  138.5260   69.1900  224.1010 C   0  0  0  0  0  0  0  0  0  0  0  0
  137.6580   68.5530  223.1560 C   0  0  0  0  0  0  0  0  0  0  0  0
  136.3720   68.4970  223.0580 C   0  0  0  0  0  0  0  0  0  0  0  0
  135.4330   68.9700  224.0980 C   0  0  0  0  0  0  0  0  0  0  0  0
  135.4600   70.2250  224.6200 C   0  0  0  0  0  0  0  0  0  0  0  0
  134.5370   70.5850  225.5970 C   0  0  0  0  0  0  0  0  0  0  0  0
  133.5840   69.7050  226.0590 C   0  0  0  0  0  0  0  0  0  0  0  0
  133.5870   68.4390  225.5070 C   0  0  0  0  0  0  0  0  0  0  0  0
  134.4890   68.1270  224.5700 N   0  0  0  0  0  0  0  0  0  0  0  0
  139.0400   70.4190  224.0550 N   0  0  0  0  0  0  0  0  0  0  0  0
  138.8140   71.3580  222.9960 C   0  0  0  0  0  0  0  0  0  0  0  0
  140.0770   71.8590  222.3270 C   0  0  0  0  0  0  0  0  0  0  0  0
  140.3350   73.2100  222.6350 O   0  0  0  0  0  0  0  0  0  0  0  0
  141.3601   71.6060  227.1170 H   0  0  0  0  0  0  0  0  0  0  0  0
  141.8494   70.1088  229.0849 H   0  0  0  0  0  0  0  0  0  0  0  0
  139.4272   67.0075  227.2867 H   0  0  0  0  0  0  0  0  0  0  0  0
  138.1888   68.0072  222.3621 H   0  0  0  0  0  0  0  0  0  0  0  0
  135.9459   68.0685  222.1389 H   0  0  0  0  0  0  0  0  0  0  0  0
  136.2080   70.9524  224.2716 H   0  0  0  0  0  0  0  0  0  0  0  0
  134.5696   71.6029  226.0127 H   0  0  0  0  0  0  0  0  0  0  0  0
  132.8557   69.9962  226.8302 H   0  0  0  0  0  0  0  0  0  0  0  0
  132.8510   67.6908  225.8364 H   0  0  0  0  0  0  0  0  0  0  0  0
  138.1891   70.8720  222.2322 H   0  0  0  0  0  0  0  0  0  0  0  0
  138.3293   72.2347  223.4505 H   0  0  0  0  0  0  0  0  0  0  0  0
  140.9261   71.2483  222.6677 H   0  0  0  0  0  0  0  0  0  0  0  0
  139.9412   71.7777  221.2384 H   0  0  0  0  0  0  0  0  0  0  0  0
  139.8340   73.4120  223.4570 H   0  0  0  0  0  0  0  0  0  0  0  0
  1  2  2  0
  2  3  1  0
  3  4  2  0
  4  5  1  0
  5  6  2  0
  6  7  1  0
  6  8  1  0
  8  9  2  0
  9 10  1  0
 10 11  2  0
 11 12  1  0
 12 13  2  0
 13 14  1  0
 14 15  2  0
 15 16  1  0
 16 17  2  0
 17 18  1  0
 18 19  2  0
 11 20  1  0
 20 21  1  0
 21 22  1  0
 22 23  1  0
 20  2  1  0
  9  3  1  0
 19 14  1  0
  4 24  1  0
  5 25  1  0
  8 26  1  0
 12 27  1  0
 13 28  1  0
 15 29  1  0
 16 30  1  0
 17 31  1  0
 18 32  1  0
 21 33  1  0
 21 34  1  0
 22 35  1  0
 22 36  1  0
 23 37  1  0
M  END
>  <smiles>  (20) 
O=c1c2ccc(F)cc2nc(/C=C/c2ccccn2)n1CCO

>  <score_type>  (20) 
oracle

>  <origin>  (20) 
autodockgpu

>  <m_score__min__energy>  (20) 
-6.6600000000000001

>  <m_primary>  (20) 
energy

>  <meeko>  (20) 
{"free_energy": -6.61, "intermolecular_energy": -8.4, "internal_energy": -1.47, "cluster_size": 6, "cluster_id": 1, "rank_in_cluster": 5}

>  <energy>  (20) 
-5.84

>  <cluster_rmsd>  (20) 
0.0

>  <rmsd>  (20) 
272.57

>  <cluster>  (20) 
4

$$$$
