KZWACXAMTSGJSU-FYSMJZIKNA-N
     RDKit          3D

 55 60  0  0  0  0  0  0  0  0999 V2000
  141.0040   71.5500  220.9550 O   0  0  0  0  0  0  0  0  0  0  0  0
  140.4450   72.0860  221.9490 C   0  0  0  0  0  0  0  0  0  0  0  0
  140.2830   71.3140  223.1940 C   0  0  0  0  0  0  0  0  0  0  0  0
  140.6210   71.7690  224.4670 C   0  0  0  0  0  0  0  0  0  0  0  0
  140.3240   70.7210  225.3130 C   0  0  0  0  0  0  0  0  0  0  0  0
  140.4510   70.5970  226.6980 C   0  0  0  0  0  0  0  0  0  0  0  0
  141.0720   71.9090  227.6850 Cl  0  0  0  0  0  0  0  0  0  0  0  0
  140.0630   69.3780  227.2860 C   0  0  0  0  0  0  0  0  0  0  0  0
  139.5640   68.3250  226.4880 C   0  0  0  0  0  0  0  0  0  0  0  0
  139.4490   68.4790  225.0950 C   0  0  0  0  0  0  0  0  0  0  0  0
  139.8400   69.6960  224.5400 C   0  0  0  0  0  0  0  0  0  0  0  0
  139.8130   70.0440  223.2430 N   0  0  0  0  0  0  0  0  0  0  0  0
  139.9320   73.4200  221.8330 N   0  0  0  0  0  0  0  0  0  0  0  0
  140.7730   74.6050  221.6740 C   0  0  0  0  0  0  0  0  0  0  0  0
  139.7860   75.8080  221.5140 C   0  0  2  0  0  0  0  0  0  0  0  0
  139.8140   76.4290  220.1210 C   0  0  0  0  0  0  0  0  0  0  0  0
  139.4380   77.8880  220.3350 C   0  0  0  0  0  0  0  0  0  0  0  0
  139.6370   78.2100  221.7600 N   0  0  0  0  0  0  0  0  0  0  0  0
  140.4790   79.4180  221.9670 C   0  0  1  0  0  0  0  0  0  0  0  0
  140.6700   79.7440  223.4470 C   0  0  0  0  0  0  0  0  0  0  0  0
  142.1660   79.9470  223.6170 C   0  0  0  0  0  0  0  0  0  0  0  0
  142.8290   79.2560  222.5160 N   0  0  0  0  0  0  0  0  0  0  0  0
  141.9000   79.3130  221.3890 C   0  0  0  0  0  0  0  0  0  0  0  0
  140.0940   76.9840  222.4450 C   0  0  0  0  0  0  0  0  0  0  0  0
  138.4460   75.1820  221.8080 C   0  0  0  0  0  0  0  0  0  0  0  0
  137.1970   75.8040  221.9460 C   0  0  0  0  0  0  0  0  0  0  0  0
  136.0820   75.0140  222.2650 C   0  0  0  0  0  0  0  0  0  0  0  0
  136.2280   73.6280  222.4570 C   0  0  0  0  0  0  0  0  0  0  0  0
  137.4870   73.0250  222.3230 C   0  0  0  0  0  0  0  0  0  0  0  0
  138.5800   73.8280  221.9730 C   0  0  0  0  0  0  0  0  0  0  0  0
  141.0350   72.7513  224.7384 H   0  0  0  0  0  0  0  0  0  0  0  0
  140.1491   69.2448  228.3745 H   0  0  0  0  0  0  0  0  0  0  0  0
  139.2632   67.3778  226.9595 H   0  0  0  0  0  0  0  0  0  0  0  0
  139.0629   67.6651  224.4638 H   0  0  0  0  0  0  0  0  0  0  0  0
  139.5100   69.4460  222.4420 H   0  0  0  0  0  0  0  0  0  0  0  0
  141.4084   74.7459  222.5608 H   0  0  0  0  0  0  0  0  0  0  0  0
  141.4437   74.5128  220.8070 H   0  0  0  0  0  0  0  0  0  0  0  0
  140.8193   76.3488  219.6817 H   0  0  0  0  0  0  0  0  0  0  0  0
  139.1270   75.9218  219.4276 H   0  0  0  0  0  0  0  0  0  0  0  0
  140.0781   78.5325  219.7146 H   0  0  0  0  0  0  0  0  0  0  0  0
  138.3889   78.0561  220.0501 H   0  0  0  0  0  0  0  0  0  0  0  0
  139.9141   80.1985  221.4362 H   0  0  0  0  0  0  0  0  0  0  0  0
  140.1230   80.6601  223.7145 H   0  0  0  0  0  0  0  0  0  0  0  0
  140.2856   78.9452  224.0982 H   0  0  0  0  0  0  0  0  0  0  0  0
  142.4056   81.0201  223.5858 H   0  0  0  0  0  0  0  0  0  0  0  0
  142.5041   79.5485  224.5849 H   0  0  0  0  0  0  0  0  0  0  0  0
  143.7070   79.7680  222.2670 H   0  0  0  0  0  0  0  0  0  0  0  0
  142.1183   80.1932  220.7664 H   0  0  0  0  0  0  0  0  0  0  0  0
  141.9975   78.4156  220.7605 H   0  0  0  0  0  0  0  0  0  0  0  0
  141.1756   77.0399  222.6374 H   0  0  0  0  0  0  0  0  0  0  0  0
  139.5843   76.8622  223.4122 H   0  0  0  0  0  0  0  0  0  0  0  0
  137.0932   76.8902  221.8069 H   0  0  0  0  0  0  0  0  0  0  0  0
  135.0906   75.4799  222.3653 H   0  0  0  0  0  0  0  0  0  0  0  0
  135.3513   73.0150  222.7132 H   0  0  0  0  0  0  0  0  0  0  0  0
  137.6134   71.9450  222.4891 H   0  0  0  0  0  0  0  0  0  0  0  0
  1  2  2  0
  2  3  1  0
  3  4  2  0
  4  5  1  0
  5  6  2  0
  6  7  1  0
  6  8  1  0
  8  9  2  0
  9 10  1  0
 10 11  2  0
 11 12  1  0
  2 13  1  0
 13 14  1  0
 15 14  1  6
 15 16  1  0
 16 17  1  0
 17 18  1  0
 18 19  1  0
 19 20  1  0
 20 21  1  0
 21 22  1  0
 22 23  1  0
 18 24  1  0
 15 25  1  0
 25 26  2  0
 26 27  1  0
 27 28  2  0
 28 29  1  0
 29 30  2  0
 12  3  1  0
 30 13  1  0
 11  5  1  0
 24 15  1  0
 30 25  1  0
 23 19  1  0
  4 31  1  0
  8 32  1  0
  9 33  1  0
 10 34  1  0
 12 35  1  0
 14 36  1  0
 14 37  1  0
 16 38  1  0
 16 39  1  0
 17 40  1  0
 17 41  1  0
 19 42  1  6
 20 43  1  0
 20 44  1  0
 21 45  1  0
 21 46  1  0
 22 47  1  0
 23 48  1  0
 23 49  1  0
 24 50  1  0
 24 51  1  0
 26 52  1  0
 27 53  1  0
 28 54  1  0
 29 55  1  0
M  END
>  <UniqueID>  (1) 
161

>  <SMILES>  (1) 
O=C(c1cc2c(Cl)cccc2[nH]1)N1C[C@@]2(CCN([C@H]3CCNC3)C2)c2ccccc21

>  <Energy>  (1) 
121.21411238253026

>  <Genealogy>  (1) 
O=C(c1cc2c(Cl)cccc2[nH]1)N1C[C@@]2(CCN([C@H]3CCNC3)C2)c2ccccc21 (chirality)
O=C(c1cc2c(Cl)cccc2[nH]1)N1C[C@@]2(CCN([C@H]3CCNC3)C2)c2ccccc21 (3D coordinates assigned)
O=C(c1cc2c(Cl)cccc2[nH]1)N1C[C@@]2(CCN([C@H]3CCNC3)C2)c2ccccc21 (nonaromatic ring conformer: 121.21411238253026 kcal/mol)

>  <smiles>  (1) 
O=C(c1cc2c(Cl)cccc2[nH]1)N1C[C@@]2(CCN(C3CCNC3)C2)c2ccccc21

>  <score_type>  (1) 
oracle

>  <origin>  (1) 
autodockgpu

>  <m_score__min__energy>  (1) 
-8.7400000000000002

>  <m_primary>  (1) 
energy

>  <meeko>  (1) 
{"free_energy": -8.74, "intermolecular_energy": -9.63, "internal_energy": -1.26, "cluster_size": 19, "cluster_id": 1, "rank_in_cluster": 2}

>  <energy>  (1) 
-8.74

>  <cluster_rmsd>  (1) 
0.0

>  <rmsd>  (1) 
271.79

>  <cluster>  (1) 
1

$$$$
KZWACXAMTSGJSU-FYSMJZIKNA-N
     RDKit          3D

 55 60  0  0  0  0  0  0  0  0999 V2000
  138.1840   77.2890  222.6480 O   0  0  0  0  0  0  0  0  0  0  0  0
  139.3050   77.2690  222.0740 C   0  0  0  0  0  0  0  0  0  0  0  0
  139.9820   75.9780  221.8500 C   0  0  0  0  0  0  0  0  0  0  0  0
  141.2010   75.8190  221.1950 C   0  0  0  0  0  0  0  0  0  0  0  0
  141.4340   74.4590  221.1980 C   0  0  0  0  0  0  0  0  0  0  0  0
  142.4960   73.7110  220.6880 C   0  0  0  0  0  0  0  0  0  0  0  0
  143.8550   74.4740  219.8800 Cl  0  0  0  0  0  0  0  0  0  0  0  0
  142.4470   72.3120  220.8410 C   0  0  0  0  0  0  0  0  0  0  0  0
  141.3510   71.7020  221.4920 C   0  0  0  0  0  0  0  0  0  0  0  0
  140.2950   72.4820  221.9940 C   0  0  0  0  0  0  0  0  0  0  0  0
  140.3710   73.8640  221.8290 C   0  0  0  0  0  0  0  0  0  0  0  0
  139.4750   74.7810  222.2290 N   0  0  0  0  0  0  0  0  0  0  0  0
  139.9240   78.5050  221.6960 N   0  0  0  0  0  0  0  0  0  0  0  0
  139.7800   79.1180  220.3760 C   0  0  0  0  0  0  0  0  0  0  0  0
  140.5570   80.4730  220.4490 C   0  0  2  0  0  0  0  0  0  0  0  0
  139.6460   81.6950  220.3720 C   0  0  0  0  0  0  0  0  0  0  0  0
  140.5020   82.7820  219.7380 C   0  0  0  0  0  0  0  0  0  0  0  0
  141.6450   82.1350  219.0690 N   0  0  0  0  0  0  0  0  0  0  0  0
  141.8000   82.5590  217.6520 C   0  0  1  0  0  0  0  0  0  0  0  0
  142.4100   83.9530  217.5290 C   0  0  0  0  0  0  0  0  0  0  0  0
  143.5360   83.8030  216.5200 C   0  0  0  0  0  0  0  0  0  0  0  0
  143.9180   82.3950  216.4960 N   0  0  0  0  0  0  0  0  0  0  0  0
  142.7030   81.6450  216.8070 C   0  0  0  0  0  0  0  0  0  0  0  0
  141.5440   80.6800  219.2960 C   0  0  0  0  0  0  0  0  0  0  0  0
  141.2490   80.3890  221.7870 C   0  0  0  0  0  0  0  0  0  0  0  0
  142.1960   81.2610  222.3420 C   0  0  0  0  0  0  0  0  0  0  0  0
  142.7390   80.9550  223.5980 C   0  0  0  0  0  0  0  0  0  0  0  0
  142.3470   79.7840  224.2730 C   0  0  0  0  0  0  0  0  0  0  0  0
  141.4040   78.9200  223.6980 C   0  0  0  0  0  0  0  0  0  0  0  0
  140.8520   79.2620  222.4570 C   0  0  0  0  0  0  0  0  0  0  0  0
  141.8393   76.6066  220.7681 H   0  0  0  0  0  0  0  0  0  0  0  0
  143.2667   71.6903  220.4515 H   0  0  0  0  0  0  0  0  0  0  0  0
  141.3241   70.6083  221.6067 H   0  0  0  0  0  0  0  0  0  0  0  0
  139.4365   72.0169  222.5006 H   0  0  0  0  0  0  0  0  0  0  0  0
  138.5680   74.5980  222.7130 H   0  0  0  0  0  0  0  0  0  0  0  0
  140.2149   78.4682  219.6023 H   0  0  0  0  0  0  0  0  0  0  0  0
  138.7228   79.2710  220.1136 H   0  0  0  0  0  0  0  0  0  0  0  0
  138.7654   81.4826  219.7479 H   0  0  0  0  0  0  0  0  0  0  0  0
  139.2659   81.9912  221.3608 H   0  0  0  0  0  0  0  0  0  0  0  0
  139.9074   83.3422  219.0013 H   0  0  0  0  0  0  0  0  0  0  0  0
  140.8584   83.4827  220.5074 H   0  0  0  0  0  0  0  0  0  0  0  0
  140.7676   82.5196  217.2744 H   0  0  0  0  0  0  0  0  0  0  0  0
  141.6604   84.6723  217.1675 H   0  0  0  0  0  0  0  0  0  0  0  0
  142.7705   84.3326  218.4964 H   0  0  0  0  0  0  0  0  0  0  0  0
  143.1914   84.1158  215.5233 H   0  0  0  0  0  0  0  0  0  0  0  0
  144.3935   84.4326  216.7996 H   0  0  0  0  0  0  0  0  0  0  0  0
  144.2440   82.1430  215.5340 H   0  0  0  0  0  0  0  0  0  0  0  0
  142.1873   81.3629  215.8772 H   0  0  0  0  0  0  0  0  0  0  0  0
  142.9460   80.7241  217.3573 H   0  0  0  0  0  0  0  0  0  0  0  0
  141.1741   80.1810  218.3882 H   0  0  0  0  0  0  0  0  0  0  0  0
  142.5275   80.2520  219.5401 H   0  0  0  0  0  0  0  0  0  0  0  0
  142.5071   82.1678  221.8026 H   0  0  0  0  0  0  0  0  0  0  0  0
  143.4739   81.6325  224.0573 H   0  0  0  0  0  0  0  0  0  0  0  0
  142.7818   79.5457  225.2549 H   0  0  0  0  0  0  0  0  0  0  0  0
  141.1044   77.9939  224.2104 H   0  0  0  0  0  0  0  0  0  0  0  0
  1  2  2  0
  2  3  1  0
  3  4  2  0
  4  5  1  0
  5  6  2  0
  6  7  1  0
  6  8  1  0
  8  9  2  0
  9 10  1  0
 10 11  2  0
 11 12  1  0
  2 13  1  0
 13 14  1  0
 15 14  1  6
 15 16  1  0
 16 17  1  0
 17 18  1  0
 18 19  1  0
 19 20  1  0
 20 21  1  0
 21 22  1  0
 22 23  1  0
 18 24  1  0
 15 25  1  0
 25 26  2  0
 26 27  1  0
 27 28  2  0
 28 29  1  0
 29 30  2  0
 12  3  1  0
 30 13  1  0
 11  5  1  0
 24 15  1  0
 30 25  1  0
 23 19  1  0
  4 31  1  0
  8 32  1  0
  9 33  1  0
 10 34  1  0
 12 35  1  0
 14 36  1  0
 14 37  1  0
 16 38  1  0
 16 39  1  0
 17 40  1  0
 17 41  1  0
 19 42  1  6
 20 43  1  0
 20 44  1  0
 21 45  1  0
 21 46  1  0
 22 47  1  0
 23 48  1  0
 23 49  1  0
 24 50  1  0
 24 51  1  0
 26 52  1  0
 27 53  1  0
 28 54  1  0
 29 55  1  0
M  END
>  <UniqueID>  (2) 
161

>  <SMILES>  (2) 
O=C(c1cc2c(Cl)cccc2[nH]1)N1C[C@@]2(CCN([C@H]3CCNC3)C2)c2ccccc21

>  <Energy>  (2) 
121.21411238253026

>  <Genealogy>  (2) 
O=C(c1cc2c(Cl)cccc2[nH]1)N1C[C@@]2(CCN([C@H]3CCNC3)C2)c2ccccc21 (chirality)
O=C(c1cc2c(Cl)cccc2[nH]1)N1C[C@@]2(CCN([C@H]3CCNC3)C2)c2ccccc21 (3D coordinates assigned)
O=C(c1cc2c(Cl)cccc2[nH]1)N1C[C@@]2(CCN([C@H]3CCNC3)C2)c2ccccc21 (nonaromatic ring conformer: 121.21411238253026 kcal/mol)

>  <smiles>  (2) 
O=C(c1cc2c(Cl)cccc2[nH]1)N1C[C@@]2(CCN(C3CCNC3)C2)c2ccccc21

>  <score_type>  (2) 
oracle

>  <origin>  (2) 
autodockgpu

>  <m_score__min__energy>  (2) 
-8.7400000000000002

>  <m_primary>  (2) 
energy

>  <meeko>  (2) 
{"free_energy": -8.06, "intermolecular_energy": -8.96, "internal_energy": -1.24, "cluster_size": 1, "cluster_id": 2, "rank_in_cluster": 1}

>  <energy>  (2) 
-8.74

>  <cluster_rmsd>  (2) 
0.03

>  <rmsd>  (2) 
271.78

>  <cluster>  (2) 
1

$$$$
KZWACXAMTSGJSU-FYSMJZIKNA-N
     RDKit          3D

 55 60  0  0  0  0  0  0  0  0999 V2000
  140.9340   71.5730  220.9430 O   0  0  0  0  0  0  0  0  0  0  0  0
  140.3990   72.1150  221.9470 C   0  0  0  0  0  0  0  0  0  0  0  0
  140.2550   71.3430  223.1950 C   0  0  0  0  0  0  0  0  0  0  0  0
  140.6000   71.8040  224.4640 C   0  0  0  0  0  0  0  0  0  0  0  0
  140.3190   70.7550  225.3150 C   0  0  0  0  0  0  0  0  0  0  0  0
  140.4600   70.6360  226.6990 C   0  0  0  0  0  0  0  0  0  0  0  0
  141.0790   71.9550  227.6780 Cl  0  0  0  0  0  0  0  0  0  0  0  0
  140.0870   69.4150  227.2930 C   0  0  0  0  0  0  0  0  0  0  0  0
  139.5900   68.3560  226.5010 C   0  0  0  0  0  0  0  0  0  0  0  0
  139.4610   68.5060  225.1090 C   0  0  0  0  0  0  0  0  0  0  0  0
  139.8370   69.7250  224.5480 C   0  0  0  0  0  0  0  0  0  0  0  0
  139.7960   70.0700  223.2510 N   0  0  0  0  0  0  0  0  0  0  0  0
  139.8960   73.4530  221.8410 N   0  0  0  0  0  0  0  0  0  0  0  0
  140.7450   74.6320  221.6850 C   0  0  0  0  0  0  0  0  0  0  0  0
  139.7670   75.8440  221.5370 C   0  0  2  0  0  0  0  0  0  0  0  0
  139.7940   76.4730  220.1460 C   0  0  0  0  0  0  0  0  0  0  0  0
  139.4300   77.9330  220.3710 C   0  0  0  0  0  0  0  0  0  0  0  0
  139.6380   78.2450  221.7970 N   0  0  0  0  0  0  0  0  0  0  0  0
  140.4900   79.4460  222.0070 C   0  0  1  0  0  0  0  0  0  0  0  0
  140.6900   79.7620  223.4870 C   0  0  0  0  0  0  0  0  0  0  0  0
  142.1880   79.9520  223.6520 C   0  0  0  0  0  0  0  0  0  0  0  0
  142.8400   79.2620  222.5430 N   0  0  0  0  0  0  0  0  0  0  0  0
  141.9070   79.3330  221.4210 C   0  0  0  0  0  0  0  0  0  0  0  0
  140.0880   77.0120  222.4720 C   0  0  0  0  0  0  0  0  0  0  0  0
  138.4230   75.2260  221.8330 C   0  0  0  0  0  0  0  0  0  0  0  0
  137.1800   75.8570  221.9800 C   0  0  0  0  0  0  0  0  0  0  0  0
  136.0610   75.0740  222.2990 C   0  0  0  0  0  0  0  0  0  0  0  0
  136.1970   73.6860  222.4830 C   0  0  0  0  0  0  0  0  0  0  0  0
  137.4500   73.0730  222.3400 C   0  0  0  0  0  0  0  0  0  0  0  0
  138.5480   73.8700  221.9900 C   0  0  0  0  0  0  0  0  0  0  0  0
  141.0079   72.7904  224.7296 H   0  0  0  0  0  0  0  0  0  0  0  0
  140.1833   69.2849  228.3810 H   0  0  0  0  0  0  0  0  0  0  0  0
  139.3018   67.4071  226.9769 H   0  0  0  0  0  0  0  0  0  0  0  0
  139.0757   67.6876  224.4830 H   0  0  0  0  0  0  0  0  0  0  0  0
  139.4900   69.4680  222.4530 H   0  0  0  0  0  0  0  0  0  0  0  0
  141.3858   74.7625  222.5695 H   0  0  0  0  0  0  0  0  0  0  0  0
  141.4105   74.5397  220.8140 H   0  0  0  0  0  0  0  0  0  0  0  0
  140.7968   76.3879  219.7019 H   0  0  0  0  0  0  0  0  0  0  0  0
  139.1008   75.9750  219.4522 H   0  0  0  0  0  0  0  0  0  0  0  0
  140.0719   78.5766  219.7515 H   0  0  0  0  0  0  0  0  0  0  0  0
  138.3808   78.1104  220.0923 H   0  0  0  0  0  0  0  0  0  0  0  0
  139.9288   80.2343  221.4839 H   0  0  0  0  0  0  0  0  0  0  0  0
  140.1516   80.6810  223.7619 H   0  0  0  0  0  0  0  0  0  0  0  0
  140.3020   78.9625  224.1353 H   0  0  0  0  0  0  0  0  0  0  0  0
  142.4363   81.0233  223.6264 H   0  0  0  0  0  0  0  0  0  0  0  0
  142.5274   79.5453  224.6160 H   0  0  0  0  0  0  0  0  0  0  0  0
  143.7220   79.7690  222.2930 H   0  0  0  0  0  0  0  0  0  0  0  0
  142.1294   80.2150  220.8025 H   0  0  0  0  0  0  0  0  0  0  0  0
  141.9944   78.4388  220.7863 H   0  0  0  0  0  0  0  0  0  0  0  0
  141.1709   77.0584  222.6597 H   0  0  0  0  0  0  0  0  0  0  0  0
  139.5812   76.8887  223.4405 H   0  0  0  0  0  0  0  0  0  0  0  0
  137.0841   76.9448  221.8478 H   0  0  0  0  0  0  0  0  0  0  0  0
  135.0736   75.5469  222.4057 H   0  0  0  0  0  0  0  0  0  0  0  0
  135.3165   73.0789  222.7402 H   0  0  0  0  0  0  0  0  0  0  0  0
  137.5683   71.9910  222.4990 H   0  0  0  0  0  0  0  0  0  0  0  0
  1  2  2  0
  2  3  1  0
  3  4  2  0
  4  5  1  0
  5  6  2  0
  6  7  1  0
  6  8  1  0
  8  9  2  0
  9 10  1  0
 10 11  2  0
 11 12  1  0
  2 13  1  0
 13 14  1  0
 15 14  1  6
 15 16  1  0
 16 17  1  0
 17 18  1  0
 18 19  1  0
 19 20  1  0
 20 21  1  0
 21 22  1  0
 22 23  1  0
 18 24  1  0
 15 25  1  0
 25 26  2  0
 26 27  1  0
 27 28  2  0
 28 29  1  0
 29 30  2  0
 12  3  1  0
 30 13  1  0
 11  5  1  0
 24 15  1  0
 30 25  1  0
 23 19  1  0
  4 31  1  0
  8 32  1  0
  9 33  1  0
 10 34  1  0
 12 35  1  0
 14 36  1  0
 14 37  1  0
 16 38  1  0
 16 39  1  0
 17 40  1  0
 17 41  1  0
 19 42  1  6
 20 43  1  0
 20 44  1  0
 21 45  1  0
 21 46  1  0
 22 47  1  0
 23 48  1  0
 23 49  1  0
 24 50  1  0
 24 51  1  0
 26 52  1  0
 27 53  1  0
 28 54  1  0
 29 55  1  0
M  END
>  <UniqueID>  (3) 
161

>  <SMILES>  (3) 
O=C(c1cc2c(Cl)cccc2[nH]1)N1C[C@@]2(CCN([C@H]3CCNC3)C2)c2ccccc21

>  <Energy>  (3) 
121.21411238253026

>  <Genealogy>  (3) 
O=C(c1cc2c(Cl)cccc2[nH]1)N1C[C@@]2(CCN([C@H]3CCNC3)C2)c2ccccc21 (chirality)
O=C(c1cc2c(Cl)cccc2[nH]1)N1C[C@@]2(CCN([C@H]3CCNC3)C2)c2ccccc21 (3D coordinates assigned)
O=C(c1cc2c(Cl)cccc2[nH]1)N1C[C@@]2(CCN([C@H]3CCNC3)C2)c2ccccc21 (nonaromatic ring conformer: 121.21411238253026 kcal/mol)

>  <smiles>  (3) 
O=C(c1cc2c(Cl)cccc2[nH]1)N1C[C@@]2(CCN(C3CCNC3)C2)c2ccccc21

>  <score_type>  (3) 
oracle

>  <origin>  (3) 
autodockgpu

>  <m_score__min__energy>  (3) 
-8.7400000000000002

>  <m_primary>  (3) 
energy

>  <meeko>  (3) 
{"free_energy": -8.73, "intermolecular_energy": -9.63, "internal_energy": -1.26, "cluster_size": 19, "cluster_id": 1, "rank_in_cluster": 8}

>  <energy>  (3) 
-8.74

>  <cluster_rmsd>  (3) 
0.02

>  <rmsd>  (3) 
271.78

>  <cluster>  (3) 
1

$$$$
KZWACXAMTSGJSU-FYSMJZIKNA-N
     RDKit          3D

 55 60  0  0  0  0  0  0  0  0999 V2000
  141.1340   71.7430  221.0170 O   0  0  0  0  0  0  0  0  0  0  0  0
  140.5190   72.2550  221.9900 C   0  0  0  0  0  0  0  0  0  0  0  0
  140.3030   71.4570  223.2110 C   0  0  0  0  0  0  0  0  0  0  0  0
  140.6360   71.8640  224.5010 C   0  0  0  0  0  0  0  0  0  0  0  0
  140.2810   70.8070  225.3130 C   0  0  0  0  0  0  0  0  0  0  0  0
  140.3780   70.6420  226.6960 C   0  0  0  0  0  0  0  0  0  0  0  0
  141.0340   71.9000  227.7300 Cl  0  0  0  0  0  0  0  0  0  0  0  0
  139.9290   69.4240  227.2440 C   0  0  0  0  0  0  0  0  0  0  0  0
  139.4020   68.4140  226.4090 C   0  0  0  0  0  0  0  0  0  0  0  0
  139.3190   68.6100  225.0190 C   0  0  0  0  0  0  0  0  0  0  0  0
  139.7690   69.8240  224.5040 C   0  0  0  0  0  0  0  0  0  0  0  0
  139.7800   70.2070  223.2170 N   0  0  0  0  0  0  0  0  0  0  0  0
  139.9970   73.5850  221.8730 N   0  0  0  0  0  0  0  0  0  0  0  0
  140.8320   74.7800  221.7560 C   0  0  0  0  0  0  0  0  0  0  0  0
  139.8390   75.9760  221.5770 C   0  0  2  0  0  0  0  0  0  0  0  0
  139.9070   76.6130  220.1930 C   0  0  0  0  0  0  0  0  0  0  0  0
  139.5100   78.0660  220.4120 C   0  0  0  0  0  0  0  0  0  0  0  0
  139.6590   78.3720  221.8470 N   0  0  0  0  0  0  0  0  0  0  0  0
  140.4820   79.5860  222.0950 C   0  0  1  0  0  0  0  0  0  0  0  0
  140.8400   79.7500  223.5710 C   0  0  0  0  0  0  0  0  0  0  0  0
  142.3380   79.9980  223.5880 C   0  0  0  0  0  0  0  0  0  0  0  0
  142.8840   79.4680  222.3430 N   0  0  0  0  0  0  0  0  0  0  0  0
  141.8250   79.6110  221.3470 C   0  0  0  0  0  0  0  0  0  0  0  0
  140.1050   77.1430  222.5320 C   0  0  0  0  0  0  0  0  0  0  0  0
  138.4960   75.3330  221.8190 C   0  0  0  0  0  0  0  0  0  0  0  0
  137.2380   75.9410  221.9220 C   0  0  0  0  0  0  0  0  0  0  0  0
  136.1200   75.1380  222.1950 C   0  0  0  0  0  0  0  0  0  0  0  0
  136.2730   73.7510  222.3760 C   0  0  0  0  0  0  0  0  0  0  0  0
  137.5410   73.1610  222.2770 C   0  0  0  0  0  0  0  0  0  0  0  0
  138.6380   73.9780  221.9730 C   0  0  0  0  0  0  0  0  0  0  0  0
  141.0848   72.8209  224.8060 H   0  0  0  0  0  0  0  0  0  0  0  0
  139.9893   69.2585  228.3298 H   0  0  0  0  0  0  0  0  0  0  0  0
  139.0542   67.4677  226.8490 H   0  0  0  0  0  0  0  0  0  0  0  0
  138.9118   67.8297  224.3592 H   0  0  0  0  0  0  0  0  0  0  0  0
  139.4670   69.6440  222.3950 H   0  0  0  0  0  0  0  0  0  0  0  0
  141.4361   74.9161  222.6652 H   0  0  0  0  0  0  0  0  0  0  0  0
  141.5322   74.7043  220.9110 H   0  0  0  0  0  0  0  0  0  0  0  0
  140.9269   76.5474  219.7862 H   0  0  0  0  0  0  0  0  0  0  0  0
  139.2485   76.1076  219.4712 H   0  0  0  0  0  0  0  0  0  0  0  0
  140.1639   78.7240  219.8209 H   0  0  0  0  0  0  0  0  0  0  0  0
  138.4693   78.2280  220.0945 H   0  0  0  0  0  0  0  0  0  0  0  0
  139.8336   80.3957  221.7291 H   0  0  0  0  0  0  0  0  0  0  0  0
  140.3018   80.6048  224.0065 H   0  0  0  0  0  0  0  0  0  0  0  0
  140.5612   78.8665  224.1640 H   0  0  0  0  0  0  0  0  0  0  0  0
  142.5393   81.0772  223.6571 H   0  0  0  0  0  0  0  0  0  0  0  0
  142.8025   79.5062  224.4554 H   0  0  0  0  0  0  0  0  0  0  0  0
  143.7100   80.0440  222.0560 H   0  0  0  0  0  0  0  0  0  0  0  0
  141.9391   80.5651  220.8115 H   0  0  0  0  0  0  0  0  0  0  0  0
  141.8735   78.7962  220.6097 H   0  0  0  0  0  0  0  0  0  0  0  0
  141.1791   77.2066  222.7607 H   0  0  0  0  0  0  0  0  0  0  0  0
  139.5654   77.0046  223.4805 H   0  0  0  0  0  0  0  0  0  0  0  0
  137.1287   77.0277  221.7913 H   0  0  0  0  0  0  0  0  0  0  0  0
  135.1216   75.5940  222.2677 H   0  0  0  0  0  0  0  0  0  0  0  0
  135.3942   73.1271  222.5961 H   0  0  0  0  0  0  0  0  0  0  0  0
  137.6718   72.0802  222.4345 H   0  0  0  0  0  0  0  0  0  0  0  0
  1  2  2  0
  2  3  1  0
  3  4  2  0
  4  5  1  0
  5  6  2  0
  6  7  1  0
  6  8  1  0
  8  9  2  0
  9 10  1  0
 10 11  2  0
 11 12  1  0
  2 13  1  0
 13 14  1  0
 15 14  1  6
 15 16  1  0
 16 17  1  0
 17 18  1  0
 18 19  1  0
 19 20  1  0
 20 21  1  0
 21 22  1  0
 22 23  1  0
 18 24  1  0
 15 25  1  0
 25 26  2  0
 26 27  1  0
 27 28  2  0
 28 29  1  0
 29 30  2  0
 12  3  1  0
 30 13  1  0
 11  5  1  0
 24 15  1  0
 30 25  1  0
 23 19  1  0
  4 31  1  0
  8 32  1  0
  9 33  1  0
 10 34  1  0
 12 35  1  0
 14 36  1  0
 14 37  1  0
 16 38  1  0
 16 39  1  0
 17 40  1  0
 17 41  1  0
 19 42  1  6
 20 43  1  0
 20 44  1  0
 21 45  1  0
 21 46  1  0
 22 47  1  0
 23 48  1  0
 23 49  1  0
 24 50  1  0
 24 51  1  0
 26 52  1  0
 27 53  1  0
 28 54  1  0
 29 55  1  0
M  END
>  <UniqueID>  (4) 
161

>  <SMILES>  (4) 
O=C(c1cc2c(Cl)cccc2[nH]1)N1C[C@@]2(CCN([C@H]3CCNC3)C2)c2ccccc21

>  <Energy>  (4) 
121.21411238253026

>  <Genealogy>  (4) 
O=C(c1cc2c(Cl)cccc2[nH]1)N1C[C@@]2(CCN([C@H]3CCNC3)C2)c2ccccc21 (chirality)
O=C(c1cc2c(Cl)cccc2[nH]1)N1C[C@@]2(CCN([C@H]3CCNC3)C2)c2ccccc21 (3D coordinates assigned)
O=C(c1cc2c(Cl)cccc2[nH]1)N1C[C@@]2(CCN([C@H]3CCNC3)C2)c2ccccc21 (nonaromatic ring conformer: 121.21411238253026 kcal/mol)

>  <smiles>  (4) 
O=C(c1cc2c(Cl)cccc2[nH]1)N1C[C@@]2(CCN(C3CCNC3)C2)c2ccccc21

>  <score_type>  (4) 
oracle

>  <origin>  (4) 
autodockgpu

>  <m_score__min__energy>  (4) 
-8.7400000000000002

>  <m_primary>  (4) 
energy

>  <meeko>  (4) 
{"free_energy": -8.7, "intermolecular_energy": -9.59, "internal_energy": -1.26, "cluster_size": 19, "cluster_id": 1, "rank_in_cluster": 17}

>  <energy>  (4) 
-8.74

>  <cluster_rmsd>  (4) 
0.02

>  <rmsd>  (4) 
271.79

>  <cluster>  (4) 
1

$$$$
KZWACXAMTSGJSU-FYSMJZIKNA-N
     RDKit          3D

 55 60  0  0  0  0  0  0  0  0999 V2000
  140.9710   71.5700  220.9240 O   0  0  0  0  0  0  0  0  0  0  0  0
  140.4230   72.1090  221.9240 C   0  0  0  0  0  0  0  0  0  0  0  0
  140.2700   71.3360  223.1700 C   0  0  0  0  0  0  0  0  0  0  0  0
  140.6120   71.7930  224.4410 C   0  0  0  0  0  0  0  0  0  0  0  0
  140.3230   70.7440  225.2890 C   0  0  0  0  0  0  0  0  0  0  0  0
  140.4570   70.6220  226.6730 C   0  0  0  0  0  0  0  0  0  0  0  0
  141.0790   71.9360  227.6570 Cl  0  0  0  0  0  0  0  0  0  0  0  0
  140.0760   69.4020  227.2630 C   0  0  0  0  0  0  0  0  0  0  0  0
  139.5760   68.3470  226.4680 C   0  0  0  0  0  0  0  0  0  0  0  0
  139.4540   68.5000  225.0760 C   0  0  0  0  0  0  0  0  0  0  0  0
  139.8380   69.7180  224.5180 C   0  0  0  0  0  0  0  0  0  0  0  0
  139.8040   70.0650  223.2210 N   0  0  0  0  0  0  0  0  0  0  0  0
  139.9150   73.4450  221.8130 N   0  0  0  0  0  0  0  0  0  0  0  0
  140.7600   74.6260  221.6470 C   0  0  0  0  0  0  0  0  0  0  0  0
  139.7780   75.8340  221.4970 C   0  0  2  0  0  0  0  0  0  0  0  0
  139.7960   76.4560  220.1040 C   0  0  0  0  0  0  0  0  0  0  0  0
  139.4280   77.9160  220.3230 C   0  0  0  0  0  0  0  0  0  0  0  0
  139.6420   78.2360  221.7460 N   0  0  0  0  0  0  0  0  0  0  0  0
  140.4910   79.4410  221.9460 C   0  0  1  0  0  0  0  0  0  0  0  0
  140.6850   79.7730  223.4230 C   0  0  0  0  0  0  0  0  0  0  0  0
  142.1820   79.9680  223.5910 C   0  0  0  0  0  0  0  0  0  0  0  0
  142.8400   79.2670  222.4930 N   0  0  0  0  0  0  0  0  0  0  0  0
  141.9110   79.3240  221.3670 C   0  0  0  0  0  0  0  0  0  0  0  0
  140.1000   77.0080  222.4260 C   0  0  0  0  0  0  0  0  0  0  0  0
  138.4370   75.2140  221.8030 C   0  0  0  0  0  0  0  0  0  0  0  0
  137.1930   75.8410  221.9530 C   0  0  0  0  0  0  0  0  0  0  0  0
  136.0780   75.0560  222.2810 C   0  0  0  0  0  0  0  0  0  0  0  0
  136.2190   73.6700  222.4720 C   0  0  0  0  0  0  0  0  0  0  0  0
  137.4730   73.0600  222.3250 C   0  0  0  0  0  0  0  0  0  0  0  0
  138.5670   73.8590  221.9660 C   0  0  0  0  0  0  0  0  0  0  0  0
  141.0233   72.7771  224.7100 H   0  0  0  0  0  0  0  0  0  0  0  0
  140.1684   69.2693  228.3511 H   0  0  0  0  0  0  0  0  0  0  0  0
  139.2801   67.3992  226.9414 H   0  0  0  0  0  0  0  0  0  0  0  0
  139.0677   67.6843  224.4471 H   0  0  0  0  0  0  0  0  0  0  0  0
  139.4990   69.4660  222.4220 H   0  0  0  0  0  0  0  0  0  0  0  0
  141.4043   74.7631  222.5280 H   0  0  0  0  0  0  0  0  0  0  0  0
  141.4219   74.5311  220.7736 H   0  0  0  0  0  0  0  0  0  0  0  0
  140.7969   76.3722  219.6555 H   0  0  0  0  0  0  0  0  0  0  0  0
  139.1009   75.9522  219.4163 H   0  0  0  0  0  0  0  0  0  0  0  0
  140.0646   78.5585  219.6969 H   0  0  0  0  0  0  0  0  0  0  0  0
  138.3768   78.0884  220.0485 H   0  0  0  0  0  0  0  0  0  0  0  0
  139.9304   80.2224  221.4121 H   0  0  0  0  0  0  0  0  0  0  0  0
  140.1436   80.6936  223.6863 H   0  0  0  0  0  0  0  0  0  0  0  0
  140.2964   78.9796  224.0784 H   0  0  0  0  0  0  0  0  0  0  0  0
  142.4280   81.0395  223.5539 H   0  0  0  0  0  0  0  0  0  0  0  0
  142.5185   79.5728  224.5608 H   0  0  0  0  0  0  0  0  0  0  0  0
  143.7210   79.7730  222.2410 H   0  0  0  0  0  0  0  0  0  0  0  0
  142.1343   80.1995  220.7396 H   0  0  0  0  0  0  0  0  0  0  0  0
  142.0023   78.4228  220.7429 H   0  0  0  0  0  0  0  0  0  0  0  0
  141.1836   77.0591  222.6083 H   0  0  0  0  0  0  0  0  0  0  0  0
  139.5991   76.8878  223.3979 H   0  0  0  0  0  0  0  0  0  0  0  0
  137.0928   76.9279  221.8162 H   0  0  0  0  0  0  0  0  0  0  0  0
  135.0895   75.5263  222.3893 H   0  0  0  0  0  0  0  0  0  0  0  0
  135.3419   73.0617  222.7378 H   0  0  0  0  0  0  0  0  0  0  0  0
  137.5953   71.9790  222.4877 H   0  0  0  0  0  0  0  0  0  0  0  0
  1  2  2  0
  2  3  1  0
  3  4  2  0
  4  5  1  0
  5  6  2  0
  6  7  1  0
  6  8  1  0
  8  9  2  0
  9 10  1  0
 10 11  2  0
 11 12  1  0
  2 13  1  0
 13 14  1  0
 15 14  1  6
 15 16  1  0
 16 17  1  0
 17 18  1  0
 18 19  1  0
 19 20  1  0
 20 21  1  0
 21 22  1  0
 22 23  1  0
 18 24  1  0
 15 25  1  0
 25 26  2  0
 26 27  1  0
 27 28  2  0
 28 29  1  0
 29 30  2  0
 12  3  1  0
 30 13  1  0
 11  5  1  0
 24 15  1  0
 30 25  1  0
 23 19  1  0
  4 31  1  0
  8 32  1  0
  9 33  1  0
 10 34  1  0
 12 35  1  0
 14 36  1  0
 14 37  1  0
 16 38  1  0
 16 39  1  0
 17 40  1  0
 17 41  1  0
 19 42  1  6
 20 43  1  0
 20 44  1  0
 21 45  1  0
 21 46  1  0
 22 47  1  0
 23 48  1  0
 23 49  1  0
 24 50  1  0
 24 51  1  0
 26 52  1  0
 27 53  1  0
 28 54  1  0
 29 55  1  0
M  END
>  <UniqueID>  (5) 
161

>  <SMILES>  (5) 
O=C(c1cc2c(Cl)cccc2[nH]1)N1C[C@@]2(CCN([C@H]3CCNC3)C2)c2ccccc21

>  <Energy>  (5) 
121.21411238253026

>  <Genealogy>  (5) 
O=C(c1cc2c(Cl)cccc2[nH]1)N1C[C@@]2(CCN([C@H]3CCNC3)C2)c2ccccc21 (chirality)
O=C(c1cc2c(Cl)cccc2[nH]1)N1C[C@@]2(CCN([C@H]3CCNC3)C2)c2ccccc21 (3D coordinates assigned)
O=C(c1cc2c(Cl)cccc2[nH]1)N1C[C@@]2(CCN([C@H]3CCNC3)C2)c2ccccc21 (nonaromatic ring conformer: 121.21411238253026 kcal/mol)

>  <smiles>  (5) 
O=C(c1cc2c(Cl)cccc2[nH]1)N1C[C@@]2(CCN(C3CCNC3)C2)c2ccccc21

>  <score_type>  (5) 
oracle

>  <origin>  (5) 
autodockgpu

>  <m_score__min__energy>  (5) 
-8.7400000000000002

>  <m_primary>  (5) 
energy

>  <meeko>  (5) 
{"free_energy": -8.73, "intermolecular_energy": -9.63, "internal_energy": -1.26, "cluster_size": 19, "cluster_id": 1, "rank_in_cluster": 9}

>  <energy>  (5) 
-8.73

>  <cluster_rmsd>  (5) 
0.02

>  <rmsd>  (5) 
271.78

>  <cluster>  (5) 
1

$$$$
KZWACXAMTSGJSU-FYSMJZIKNA-N
     RDKit          3D

 55 60  0  0  0  0  0  0  0  0999 V2000
  141.2600   71.8470  221.0340 O   0  0  0  0  0  0  0  0  0  0  0  0
  140.5960   72.3390  221.9850 C   0  0  0  0  0  0  0  0  0  0  0  0
  140.3420   71.5250  223.1880 C   0  0  0  0  0  0  0  0  0  0  0  0
  140.6840   71.8920  224.4880 C   0  0  0  0  0  0  0  0  0  0  0  0
  140.2830   70.8340  225.2760 C   0  0  0  0  0  0  0  0  0  0  0  0
  140.3660   70.6370  226.6560 C   0  0  0  0  0  0  0  0  0  0  0  0
  141.0670   71.8460  227.7180 Cl  0  0  0  0  0  0  0  0  0  0  0  0
  139.8670   69.4270  227.1770 C   0  0  0  0  0  0  0  0  0  0  0  0
  139.3050   68.4560  226.3190 C   0  0  0  0  0  0  0  0  0  0  0  0
  139.2370   68.6830  224.9330 C   0  0  0  0  0  0  0  0  0  0  0  0
  139.7380   69.8890  224.4450 C   0  0  0  0  0  0  0  0  0  0  0  0
  139.7700   70.2970  223.1660 N   0  0  0  0  0  0  0  0  0  0  0  0
  140.0560   73.6610  221.8580 N   0  0  0  0  0  0  0  0  0  0  0  0
  140.8750   74.8640  221.7140 C   0  0  0  0  0  0  0  0  0  0  0  0
  139.8660   76.0460  221.5340 C   0  0  2  0  0  0  0  0  0  0  0  0
  139.9080   76.6660  220.1400 C   0  0  0  0  0  0  0  0  0  0  0  0
  139.4960   78.1170  220.3460 C   0  0  0  0  0  0  0  0  0  0  0  0
  139.6610   78.4430  221.7750 N   0  0  0  0  0  0  0  0  0  0  0  0
  140.4730   79.6700  221.9960 C   0  0  1  0  0  0  0  0  0  0  0  0
  140.7650   79.9110  223.4760 C   0  0  0  0  0  0  0  0  0  0  0  0
  142.2610   80.1620  223.5470 C   0  0  0  0  0  0  0  0  0  0  0  0
  142.8620   79.5690  222.3570 N   0  0  0  0  0  0  0  0  0  0  0  0
  141.8480   79.6580  221.3080 C   0  0  0  0  0  0  0  0  0  0  0  0
  140.1310   77.2290  222.4690 C   0  0  0  0  0  0  0  0  0  0  0  0
  138.5340   75.3910  221.8030 C   0  0  0  0  0  0  0  0  0  0  0  0
  137.2700   75.9850  221.9160 C   0  0  0  0  0  0  0  0  0  0  0  0
  136.1660   75.1720  222.2140 C   0  0  0  0  0  0  0  0  0  0  0  0
  136.3380   73.7900  222.4110 C   0  0  0  0  0  0  0  0  0  0  0  0
  137.6120   73.2140  222.3010 C   0  0  0  0  0  0  0  0  0  0  0  0
  138.6940   74.0400  221.9710 C   0  0  0  0  0  0  0  0  0  0  0  0
  141.1688   72.8238  224.8148 H   0  0  0  0  0  0  0  0  0  0  0  0
  139.9154   69.2371  228.2594 H   0  0  0  0  0  0  0  0  0  0  0  0
  138.9177   67.5155  226.7380 H   0  0  0  0  0  0  0  0  0  0  0  0
  138.8025   67.9331  224.2556 H   0  0  0  0  0  0  0  0  0  0  0  0
  139.4400   69.7640  222.3310 H   0  0  0  0  0  0  0  0  0  0  0  0
  141.4901   75.0187  222.6127 H   0  0  0  0  0  0  0  0  0  0  0  0
  141.5639   74.7855  220.8601 H   0  0  0  0  0  0  0  0  0  0  0  0
  140.9232   76.6075  219.7205 H   0  0  0  0  0  0  0  0  0  0  0  0
  139.2465   76.1433  219.4334 H   0  0  0  0  0  0  0  0  0  0  0  0
  140.1335   78.7753  219.7376 H   0  0  0  0  0  0  0  0  0  0  0  0
  138.4492   78.2624  220.0409 H   0  0  0  0  0  0  0  0  0  0  0  0
  139.8422   80.4587  221.5602 H   0  0  0  0  0  0  0  0  0  0  0  0
  140.2085   80.7864  223.8421 H   0  0  0  0  0  0  0  0  0  0  0  0
  140.4594   79.0589  224.1010 H   0  0  0  0  0  0  0  0  0  0  0  0
  142.4597   81.2437  223.5689 H   0  0  0  0  0  0  0  0  0  0  0  0
  142.6858   79.7165  224.4586 H   0  0  0  0  0  0  0  0  0  0  0  0
  143.6990   80.1310  222.0770 H   0  0  0  0  0  0  0  0  0  0  0  0
  141.9866   80.5829  220.7289 H   0  0  0  0  0  0  0  0  0  0  0  0
  141.9287   78.8059  220.6171 H   0  0  0  0  0  0  0  0  0  0  0  0
  141.2073   77.3085  222.6815 H   0  0  0  0  0  0  0  0  0  0  0  0
  139.6060   77.0969  223.4266 H   0  0  0  0  0  0  0  0  0  0  0  0
  137.1455   77.0686  221.7737 H   0  0  0  0  0  0  0  0  0  0  0  0
  135.1631   75.6167  222.2938 H   0  0  0  0  0  0  0  0  0  0  0  0
  135.4701   73.1587  222.6522 H   0  0  0  0  0  0  0  0  0  0  0  0
  137.7583   72.1370  222.4702 H   0  0  0  0  0  0  0  0  0  0  0  0
  1  2  2  0
  2  3  1  0
  3  4  2  0
  4  5  1  0
  5  6  2  0
  6  7  1  0
  6  8  1  0
  8  9  2  0
  9 10  1  0
 10 11  2  0
 11 12  1  0
  2 13  1  0
 13 14  1  0
 15 14  1  6
 15 16  1  0
 16 17  1  0
 17 18  1  0
 18 19  1  0
 19 20  1  0
 20 21  1  0
 21 22  1  0
 22 23  1  0
 18 24  1  0
 15 25  1  0
 25 26  2  0
 26 27  1  0
 27 28  2  0
 28 29  1  0
 29 30  2  0
 12  3  1  0
 30 13  1  0
 11  5  1  0
 24 15  1  0
 30 25  1  0
 23 19  1  0
  4 31  1  0
  8 32  1  0
  9 33  1  0
 10 34  1  0
 12 35  1  0
 14 36  1  0
 14 37  1  0
 16 38  1  0
 16 39  1  0
 17 40  1  0
 17 41  1  0
 19 42  1  6
 20 43  1  0
 20 44  1  0
 21 45  1  0
 21 46  1  0
 22 47  1  0
 23 48  1  0
 23 49  1  0
 24 50  1  0
 24 51  1  0
 26 52  1  0
 27 53  1  0
 28 54  1  0
 29 55  1  0
M  END
>  <UniqueID>  (6) 
161

>  <SMILES>  (6) 
O=C(c1cc2c(Cl)cccc2[nH]1)N1C[C@@]2(CCN([C@H]3CCNC3)C2)c2ccccc21

>  <Energy>  (6) 
121.21411238253026

>  <Genealogy>  (6) 
O=C(c1cc2c(Cl)cccc2[nH]1)N1C[C@@]2(CCN([C@H]3CCNC3)C2)c2ccccc21 (chirality)
O=C(c1cc2c(Cl)cccc2[nH]1)N1C[C@@]2(CCN([C@H]3CCNC3)C2)c2ccccc21 (3D coordinates assigned)
O=C(c1cc2c(Cl)cccc2[nH]1)N1C[C@@]2(CCN([C@H]3CCNC3)C2)c2ccccc21 (nonaromatic ring conformer: 121.21411238253026 kcal/mol)

>  <smiles>  (6) 
O=C(c1cc2c(Cl)cccc2[nH]1)N1C[C@@]2(CCN(C3CCNC3)C2)c2ccccc21

>  <score_type>  (6) 
oracle

>  <origin>  (6) 
autodockgpu

>  <m_score__min__energy>  (6) 
-8.7400000000000002

>  <m_primary>  (6) 
energy

>  <meeko>  (6) 
{"free_energy": -8.69, "intermolecular_energy": -9.58, "internal_energy": -1.25, "cluster_size": 19, "cluster_id": 1, "rank_in_cluster": 18}

>  <energy>  (6) 
-8.73

>  <cluster_rmsd>  (6) 
0.03

>  <rmsd>  (6) 
271.78

>  <cluster>  (6) 
1

$$$$
KZWACXAMTSGJSU-FYSMJZIKNA-N
     RDKit          3D

 55 60  0  0  0  0  0  0  0  0999 V2000
  141.0000   71.5550  220.9630 O   0  0  0  0  0  0  0  0  0  0  0  0
  140.4410   72.0930  221.9570 C   0  0  0  0  0  0  0  0  0  0  0  0
  140.2810   71.3220  223.2040 C   0  0  0  0  0  0  0  0  0  0  0  0
  140.6200   71.7790  224.4750 C   0  0  0  0  0  0  0  0  0  0  0  0
  140.3240   70.7320  225.3230 C   0  0  0  0  0  0  0  0  0  0  0  0
  140.4530   70.6110  226.7080 C   0  0  0  0  0  0  0  0  0  0  0  0
  141.0750   71.9240  227.6930 Cl  0  0  0  0  0  0  0  0  0  0  0  0
  140.0650   69.3930  227.2980 C   0  0  0  0  0  0  0  0  0  0  0  0
  139.5650   68.3380  226.5020 C   0  0  0  0  0  0  0  0  0  0  0  0
  139.4490   68.4900  225.1090 C   0  0  0  0  0  0  0  0  0  0  0  0
  139.8390   69.7070  224.5520 C   0  0  0  0  0  0  0  0  0  0  0  0
  139.8100   70.0530  223.2550 N   0  0  0  0  0  0  0  0  0  0  0  0
  139.9270   73.4260  221.8390 N   0  0  0  0  0  0  0  0  0  0  0  0
  140.7680   74.6120  221.6900 C   0  0  0  0  0  0  0  0  0  0  0  0
  139.7820   75.8150  221.5240 C   0  0  2  0  0  0  0  0  0  0  0  0
  139.8210   76.4380  220.1320 C   0  0  0  0  0  0  0  0  0  0  0  0
  139.4410   77.8960  220.3460 C   0  0  0  0  0  0  0  0  0  0  0  0
  139.6270   78.2150  221.7730 N   0  0  0  0  0  0  0  0  0  0  0  0
  140.4660   79.4250  221.9900 C   0  0  1  0  0  0  0  0  0  0  0  0
  140.6750   79.7260  223.4720 C   0  0  0  0  0  0  0  0  0  0  0  0
  142.1720   79.9330  223.6250 C   0  0  0  0  0  0  0  0  0  0  0  0
  142.8230   79.2650  222.5040 N   0  0  0  0  0  0  0  0  0  0  0  0
  141.8800   79.3370  221.3900 C   0  0  0  0  0  0  0  0  0  0  0  0
  140.0800   76.9890  222.4590 C   0  0  0  0  0  0  0  0  0  0  0  0
  138.4390   75.1860  221.8050 C   0  0  0  0  0  0  0  0  0  0  0  0
  137.1890   75.8060  221.9330 C   0  0  0  0  0  0  0  0  0  0  0  0
  136.0720   75.0140  222.2410 C   0  0  0  0  0  0  0  0  0  0  0  0
  136.2180   73.6280  222.4320 C   0  0  0  0  0  0  0  0  0  0  0  0
  137.4790   73.0270  222.3070 C   0  0  0  0  0  0  0  0  0  0  0  0
  138.5740   73.8320  221.9680 C   0  0  0  0  0  0  0  0  0  0  0  0
  141.0340   72.7618  224.7444 H   0  0  0  0  0  0  0  0  0  0  0  0
  140.1517   69.2617  228.3867 H   0  0  0  0  0  0  0  0  0  0  0  0
  139.2645   67.3916  226.9752 H   0  0  0  0  0  0  0  0  0  0  0  0
  139.0630   67.6750  224.4791 H   0  0  0  0  0  0  0  0  0  0  0  0
  139.5060   69.4540  222.4550 H   0  0  0  0  0  0  0  0  0  0  0  0
  141.3955   74.7513  222.5827 H   0  0  0  0  0  0  0  0  0  0  0  0
  141.4460   74.5221  220.8284 H   0  0  0  0  0  0  0  0  0  0  0  0
  140.8301   76.3601  219.7011 H   0  0  0  0  0  0  0  0  0  0  0  0
  139.1410   75.9309  219.4317 H   0  0  0  0  0  0  0  0  0  0  0  0
  140.0855   78.5428  219.7326 H   0  0  0  0  0  0  0  0  0  0  0  0
  138.3942   78.0632  220.0523 H   0  0  0  0  0  0  0  0  0  0  0  0
  139.8903   80.2122  221.4812 H   0  0  0  0  0  0  0  0  0  0  0  0
  140.1275   80.6347  223.7627 H   0  0  0  0  0  0  0  0  0  0  0  0
  140.3028   78.9144  224.1145 H   0  0  0  0  0  0  0  0  0  0  0  0
  142.4062   81.0077  223.6094 H   0  0  0  0  0  0  0  0  0  0  0  0
  142.5249   79.5190  224.5811 H   0  0  0  0  0  0  0  0  0  0  0  0
  143.6960   79.7860  222.2520 H   0  0  0  0  0  0  0  0  0  0  0  0
  142.0859   80.2289  220.7800 H   0  0  0  0  0  0  0  0  0  0  0  0
  141.9736   78.4518  220.7437 H   0  0  0  0  0  0  0  0  0  0  0  0
  141.1599   77.0463  222.6606 H   0  0  0  0  0  0  0  0  0  0  0  0
  139.5623   76.8645  223.4216 H   0  0  0  0  0  0  0  0  0  0  0  0
  137.0851   76.8923  221.7948 H   0  0  0  0  0  0  0  0  0  0  0  0
  135.0792   75.4786  222.3333 H   0  0  0  0  0  0  0  0  0  0  0  0
  135.3401   73.0134  222.6803 H   0  0  0  0  0  0  0  0  0  0  0  0
  137.6054   71.9468  222.4716 H   0  0  0  0  0  0  0  0  0  0  0  0
  1  2  2  0
  2  3  1  0
  3  4  2  0
  4  5  1  0
  5  6  2  0
  6  7  1  0
  6  8  1  0
  8  9  2  0
  9 10  1  0
 10 11  2  0
 11 12  1  0
  2 13  1  0
 13 14  1  0
 15 14  1  6
 15 16  1  0
 16 17  1  0
 17 18  1  0
 18 19  1  0
 19 20  1  0
 20 21  1  0
 21 22  1  0
 22 23  1  0
 18 24  1  0
 15 25  1  0
 25 26  2  0
 26 27  1  0
 27 28  2  0
 28 29  1  0
 29 30  2  0
 12  3  1  0
 30 13  1  0
 11  5  1  0
 24 15  1  0
 30 25  1  0
 23 19  1  0
  4 31  1  0
  8 32  1  0
  9 33  1  0
 10 34  1  0
 12 35  1  0
 14 36  1  0
 14 37  1  0
 16 38  1  0
 16 39  1  0
 17 40  1  0
 17 41  1  0
 19 42  1  6
 20 43  1  0
 20 44  1  0
 21 45  1  0
 21 46  1  0
 22 47  1  0
 23 48  1  0
 23 49  1  0
 24 50  1  0
 24 51  1  0
 26 52  1  0
 27 53  1  0
 28 54  1  0
 29 55  1  0
M  END
>  <UniqueID>  (7) 
161

>  <SMILES>  (7) 
O=C(c1cc2c(Cl)cccc2[nH]1)N1C[C@@]2(CCN([C@H]3CCNC3)C2)c2ccccc21

>  <Energy>  (7) 
121.21411238253026

>  <Genealogy>  (7) 
O=C(c1cc2c(Cl)cccc2[nH]1)N1C[C@@]2(CCN([C@H]3CCNC3)C2)c2ccccc21 (chirality)
O=C(c1cc2c(Cl)cccc2[nH]1)N1C[C@@]2(CCN([C@H]3CCNC3)C2)c2ccccc21 (3D coordinates assigned)
O=C(c1cc2c(Cl)cccc2[nH]1)N1C[C@@]2(CCN([C@H]3CCNC3)C2)c2ccccc21 (nonaromatic ring conformer: 121.21411238253026 kcal/mol)

>  <smiles>  (7) 
O=C(c1cc2c(Cl)cccc2[nH]1)N1C[C@@]2(CCN(C3CCNC3)C2)c2ccccc21

>  <score_type>  (7) 
oracle

>  <origin>  (7) 
autodockgpu

>  <m_score__min__energy>  (7) 
-8.7400000000000002

>  <m_primary>  (7) 
energy

>  <meeko>  (7) 
{"free_energy": -8.73, "intermolecular_energy": -9.63, "internal_energy": -1.26, "cluster_size": 19, "cluster_id": 1, "rank_in_cluster": 6}

>  <energy>  (7) 
-8.73

>  <cluster_rmsd>  (7) 
0.04

>  <rmsd>  (7) 
271.78

>  <cluster>  (7) 
1

$$$$
KZWACXAMTSGJSU-FYSMJZIKNA-N
     RDKit          3D

 55 60  0  0  0  0  0  0  0  0999 V2000
  140.9860   71.5700  220.9500 O   0  0  0  0  0  0  0  0  0  0  0  0
  140.4320   72.1060  221.9470 C   0  0  0  0  0  0  0  0  0  0  0  0
  140.2700   71.3300  223.1900 C   0  0  0  0  0  0  0  0  0  0  0  0
  140.6110   71.7810  224.4640 C   0  0  0  0  0  0  0  0  0  0  0  0
  140.3120   70.7320  225.3070 C   0  0  0  0  0  0  0  0  0  0  0  0
  140.4420   70.6050  226.6920 C   0  0  0  0  0  0  0  0  0  0  0  0
  141.0690   71.9120  227.6810 Cl  0  0  0  0  0  0  0  0  0  0  0  0
  140.0510   69.3850  227.2770 C   0  0  0  0  0  0  0  0  0  0  0  0
  139.5470   68.3360  226.4770 C   0  0  0  0  0  0  0  0  0  0  0  0
  139.4300   68.4940  225.0850 C   0  0  0  0  0  0  0  0  0  0  0  0
  139.8240   69.7110  224.5320 C   0  0  0  0  0  0  0  0  0  0  0  0
  139.7960   70.0620  223.2370 N   0  0  0  0  0  0  0  0  0  0  0  0
  139.9240   73.4420  221.8360 N   0  0  0  0  0  0  0  0  0  0  0  0
  140.7700   74.6240  221.6800 C   0  0  0  0  0  0  0  0  0  0  0  0
  139.7880   75.8320  221.5250 C   0  0  2  0  0  0  0  0  0  0  0  0
  139.8170   76.4570  220.1330 C   0  0  0  0  0  0  0  0  0  0  0  0
  139.4470   77.9170  220.3530 C   0  0  0  0  0  0  0  0  0  0  0  0
  139.6490   78.2330  221.7790 N   0  0  0  0  0  0  0  0  0  0  0  0
  140.4960   79.4380  221.9890 C   0  0  1  0  0  0  0  0  0  0  0  0
  140.6780   79.7660  223.4690 C   0  0  0  0  0  0  0  0  0  0  0  0
  142.1740   79.9600  223.6490 C   0  0  0  0  0  0  0  0  0  0  0  0
  142.8400   79.2640  222.5540 N   0  0  0  0  0  0  0  0  0  0  0  0
  141.9200   79.3230  221.4210 C   0  0  0  0  0  0  0  0  0  0  0  0
  140.1010   77.0040  222.4590 C   0  0  0  0  0  0  0  0  0  0  0  0
  138.4450   75.2100  221.8180 C   0  0  0  0  0  0  0  0  0  0  0  0
  137.1990   75.8360  221.9590 C   0  0  0  0  0  0  0  0  0  0  0  0
  136.0810   75.0500  222.2760 C   0  0  0  0  0  0  0  0  0  0  0  0
  136.2220   73.6630  222.4640 C   0  0  0  0  0  0  0  0  0  0  0  0
  137.4780   73.0550  222.3260 C   0  0  0  0  0  0  0  0  0  0  0  0
  138.5740   73.8550  221.9780 C   0  0  0  0  0  0  0  0  0  0  0  0
  141.0282   72.7614  224.7375 H   0  0  0  0  0  0  0  0  0  0  0  0
  140.1388   69.2482  228.3649 H   0  0  0  0  0  0  0  0  0  0  0  0
  139.2438   67.3885  226.9464 H   0  0  0  0  0  0  0  0  0  0  0  0
  139.0399   67.6830  224.4525 H   0  0  0  0  0  0  0  0  0  0  0  0
  139.4890   69.4680  222.4340 H   0  0  0  0  0  0  0  0  0  0  0  0
  141.4069   74.7592  222.5666 H   0  0  0  0  0  0  0  0  0  0  0  0
  141.4393   74.5317  220.8119 H   0  0  0  0  0  0  0  0  0  0  0  0
  140.8214   76.3742  219.6922 H   0  0  0  0  0  0  0  0  0  0  0  0
  139.1276   75.9546  219.4384 H   0  0  0  0  0  0  0  0  0  0  0  0
  140.0889   78.5612  219.7342 H   0  0  0  0  0  0  0  0  0  0  0  0
  138.3982   78.0903  220.0700 H   0  0  0  0  0  0  0  0  0  0  0  0
  139.9396   80.2209  221.4529 H   0  0  0  0  0  0  0  0  0  0  0  0
  140.1348   80.6861  223.7305 H   0  0  0  0  0  0  0  0  0  0  0  0
  140.2837   78.9712  224.1193 H   0  0  0  0  0  0  0  0  0  0  0  0
  142.4204   81.0316  223.6182 H   0  0  0  0  0  0  0  0  0  0  0  0
  142.5030   79.5605  224.6197 H   0  0  0  0  0  0  0  0  0  0  0  0
  143.7230   79.7710  222.3100 H   0  0  0  0  0  0  0  0  0  0  0  0
  142.1477   80.2000  220.7973 H   0  0  0  0  0  0  0  0  0  0  0  0
  142.0167   78.4233  220.7956 H   0  0  0  0  0  0  0  0  0  0  0  0
  141.1829   77.0550  222.6509 H   0  0  0  0  0  0  0  0  0  0  0  0
  139.5910   76.8812  223.4259 H   0  0  0  0  0  0  0  0  0  0  0  0
  137.0995   76.9231  221.8237 H   0  0  0  0  0  0  0  0  0  0  0  0
  135.0915   75.5195  222.3778 H   0  0  0  0  0  0  0  0  0  0  0  0
  135.3433   73.0529  222.7203 H   0  0  0  0  0  0  0  0  0  0  0  0
  137.6000   71.9738  222.4874 H   0  0  0  0  0  0  0  0  0  0  0  0
  1  2  2  0
  2  3  1  0
  3  4  2  0
  4  5  1  0
  5  6  2  0
  6  7  1  0
  6  8  1  0
  8  9  2  0
  9 10  1  0
 10 11  2  0
 11 12  1  0
  2 13  1  0
 13 14  1  0
 15 14  1  6
 15 16  1  0
 16 17  1  0
 17 18  1  0
 18 19  1  0
 19 20  1  0
 20 21  1  0
 21 22  1  0
 22 23  1  0
 18 24  1  0
 15 25  1  0
 25 26  2  0
 26 27  1  0
 27 28  2  0
 28 29  1  0
 29 30  2  0
 12  3  1  0
 30 13  1  0
 11  5  1  0
 24 15  1  0
 30 25  1  0
 23 19  1  0
  4 31  1  0
  8 32  1  0
  9 33  1  0
 10 34  1  0
 12 35  1  0
 14 36  1  0
 14 37  1  0
 16 38  1  0
 16 39  1  0
 17 40  1  0
 17 41  1  0
 19 42  1  6
 20 43  1  0
 20 44  1  0
 21 45  1  0
 21 46  1  0
 22 47  1  0
 23 48  1  0
 23 49  1  0
 24 50  1  0
 24 51  1  0
 26 52  1  0
 27 53  1  0
 28 54  1  0
 29 55  1  0
M  END
>  <UniqueID>  (8) 
161

>  <SMILES>  (8) 
O=C(c1cc2c(Cl)cccc2[nH]1)N1C[C@@]2(CCN([C@H]3CCNC3)C2)c2ccccc21

>  <Energy>  (8) 
121.21411238253026

>  <Genealogy>  (8) 
O=C(c1cc2c(Cl)cccc2[nH]1)N1C[C@@]2(CCN([C@H]3CCNC3)C2)c2ccccc21 (chirality)
O=C(c1cc2c(Cl)cccc2[nH]1)N1C[C@@]2(CCN([C@H]3CCNC3)C2)c2ccccc21 (3D coordinates assigned)
O=C(c1cc2c(Cl)cccc2[nH]1)N1C[C@@]2(CCN([C@H]3CCNC3)C2)c2ccccc21 (nonaromatic ring conformer: 121.21411238253026 kcal/mol)

>  <smiles>  (8) 
O=C(c1cc2c(Cl)cccc2[nH]1)N1C[C@@]2(CCN(C3CCNC3)C2)c2ccccc21

>  <score_type>  (8) 
oracle

>  <origin>  (8) 
autodockgpu

>  <m_score__min__energy>  (8) 
-8.7400000000000002

>  <m_primary>  (8) 
energy

>  <meeko>  (8) 
{"free_energy": -8.74, "intermolecular_energy": -9.63, "internal_energy": -1.26, "cluster_size": 19, "cluster_id": 1, "rank_in_cluster": 1}

>  <energy>  (8) 
-8.73

>  <cluster_rmsd>  (8) 
0.03

>  <rmsd>  (8) 
271.79

>  <cluster>  (8) 
1

$$$$
KZWACXAMTSGJSU-FYSMJZIKNA-N
     RDKit          3D

 55 60  0  0  0  0  0  0  0  0999 V2000
  140.8560   71.6130  220.8840 O   0  0  0  0  0  0  0  0  0  0  0  0
  140.3330   72.1470  221.8990 C   0  0  0  0  0  0  0  0  0  0  0  0
  140.1890   71.3620  223.1380 C   0  0  0  0  0  0  0  0  0  0  0  0
  140.5460   71.8030  224.4100 C   0  0  0  0  0  0  0  0  0  0  0  0
  140.2600   70.7470  225.2500 C   0  0  0  0  0  0  0  0  0  0  0  0
  140.4080   70.6090  226.6310 C   0  0  0  0  0  0  0  0  0  0  0  0
  141.0460   71.9100  227.6230 Cl  0  0  0  0  0  0  0  0  0  0  0  0
  140.0260   69.3850  227.2120 C   0  0  0  0  0  0  0  0  0  0  0  0
  139.5130   68.3410  226.4110 C   0  0  0  0  0  0  0  0  0  0  0  0
  139.3780   68.5090  225.0220 C   0  0  0  0  0  0  0  0  0  0  0  0
  139.7620   69.7320  224.4730 C   0  0  0  0  0  0  0  0  0  0  0  0
  139.7170   70.0930  223.1810 N   0  0  0  0  0  0  0  0  0  0  0  0
  139.8440   73.4920  221.8130 N   0  0  0  0  0  0  0  0  0  0  0  0
  140.7050   74.6640  221.6680 C   0  0  0  0  0  0  0  0  0  0  0  0
  139.7390   75.8880  221.5400 C   0  0  2  0  0  0  0  0  0  0  0  0
  139.7660   76.5350  220.1580 C   0  0  0  0  0  0  0  0  0  0  0  0
  139.4190   77.9960  220.4030 C   0  0  0  0  0  0  0  0  0  0  0  0
  139.6370   78.2870  221.8320 N   0  0  0  0  0  0  0  0  0  0  0  0
  140.5030   79.4760  222.0540 C   0  0  1  0  0  0  0  0  0  0  0  0
  140.7130   79.7690  223.5370 C   0  0  0  0  0  0  0  0  0  0  0  0
  142.2140   79.9410  223.6970 C   0  0  0  0  0  0  0  0  0  0  0  0
  142.8540   79.2600  222.5760 N   0  0  0  0  0  0  0  0  0  0  0  0
  141.9160   79.3560  221.4590 C   0  0  0  0  0  0  0  0  0  0  0  0
  140.0780   77.0410  222.4900 C   0  0  0  0  0  0  0  0  0  0  0  0
  138.3900   75.2810  221.8350 C   0  0  0  0  0  0  0  0  0  0  0  0
  137.1550   75.9220  221.9950 C   0  0  0  0  0  0  0  0  0  0  0  0
  136.0290   75.1470  222.3100 C   0  0  0  0  0  0  0  0  0  0  0  0
  136.1500   73.7560  222.4750 C   0  0  0  0  0  0  0  0  0  0  0  0
  137.3960   73.1320  222.3180 C   0  0  0  0  0  0  0  0  0  0  0  0
  138.5010   73.9210  221.9730 C   0  0  0  0  0  0  0  0  0  0  0  0
  140.9654   72.7819  224.6852 H   0  0  0  0  0  0  0  0  0  0  0  0
  140.1278   69.2406  228.2977 H   0  0  0  0  0  0  0  0  0  0  0  0
  139.2170   67.3898  226.8774 H   0  0  0  0  0  0  0  0  0  0  0  0
  138.9822   67.7016  224.3884 H   0  0  0  0  0  0  0  0  0  0  0  0
  139.4000   69.5040  222.3780 H   0  0  0  0  0  0  0  0  0  0  0  0
  141.3511   74.7765  222.5511 H   0  0  0  0  0  0  0  0  0  0  0  0
  141.3656   74.5758  220.7929 H   0  0  0  0  0  0  0  0  0  0  0  0
  140.7657   76.4448  219.7079 H   0  0  0  0  0  0  0  0  0  0  0  0
  139.0636   76.0537  219.4616 H   0  0  0  0  0  0  0  0  0  0  0  0
  140.0651   78.6404  219.7888 H   0  0  0  0  0  0  0  0  0  0  0  0
  138.3707   78.1887  220.1312 H   0  0  0  0  0  0  0  0  0  0  0  0
  139.9482   80.2776  221.5445 H   0  0  0  0  0  0  0  0  0  0  0  0
  140.1855   80.6896  223.8274 H   0  0  0  0  0  0  0  0  0  0  0  0
  140.3196   78.9648  224.1761 H   0  0  0  0  0  0  0  0  0  0  0  0
  142.4732   81.0100  223.6849 H   0  0  0  0  0  0  0  0  0  0  0  0
  142.5534   79.5171  224.6536 H   0  0  0  0  0  0  0  0  0  0  0  0
  143.7390   79.7610  222.3280 H   0  0  0  0  0  0  0  0  0  0  0  0
  142.1447   80.2439  220.8513 H   0  0  0  0  0  0  0  0  0  0  0  0
  141.9909   78.4698  220.8117 H   0  0  0  0  0  0  0  0  0  0  0  0
  141.1623   77.0736  222.6725 H   0  0  0  0  0  0  0  0  0  0  0  0
  139.5760   76.9107  223.4600 H   0  0  0  0  0  0  0  0  0  0  0  0
  137.0697   77.0122  221.8759 H   0  0  0  0  0  0  0  0  0  0  0  0
  135.0476   75.6294  222.4284 H   0  0  0  0  0  0  0  0  0  0  0  0
  135.2641   73.1550  222.7282 H   0  0  0  0  0  0  0  0  0  0  0  0
  137.5034   72.0468  222.4625 H   0  0  0  0  0  0  0  0  0  0  0  0
  1  2  2  0
  2  3  1  0
  3  4  2  0
  4  5  1  0
  5  6  2  0
  6  7  1  0
  6  8  1  0
  8  9  2  0
  9 10  1  0
 10 11  2  0
 11 12  1  0
  2 13  1  0
 13 14  1  0
 15 14  1  6
 15 16  1  0
 16 17  1  0
 17 18  1  0
 18 19  1  0
 19 20  1  0
 20 21  1  0
 21 22  1  0
 22 23  1  0
 18 24  1  0
 15 25  1  0
 25 26  2  0
 26 27  1  0
 27 28  2  0
 28 29  1  0
 29 30  2  0
 12  3  1  0
 30 13  1  0
 11  5  1  0
 24 15  1  0
 30 25  1  0
 23 19  1  0
  4 31  1  0
  8 32  1  0
  9 33  1  0
 10 34  1  0
 12 35  1  0
 14 36  1  0
 14 37  1  0
 16 38  1  0
 16 39  1  0
 17 40  1  0
 17 41  1  0
 19 42  1  6
 20 43  1  0
 20 44  1  0
 21 45  1  0
 21 46  1  0
 22 47  1  0
 23 48  1  0
 23 49  1  0
 24 50  1  0
 24 51  1  0
 26 52  1  0
 27 53  1  0
 28 54  1  0
 29 55  1  0
M  END
>  <UniqueID>  (9) 
161

>  <SMILES>  (9) 
O=C(c1cc2c(Cl)cccc2[nH]1)N1C[C@@]2(CCN([C@H]3CCNC3)C2)c2ccccc21

>  <Energy>  (9) 
121.21411238253026

>  <Genealogy>  (9) 
O=C(c1cc2c(Cl)cccc2[nH]1)N1C[C@@]2(CCN([C@H]3CCNC3)C2)c2ccccc21 (chirality)
O=C(c1cc2c(Cl)cccc2[nH]1)N1C[C@@]2(CCN([C@H]3CCNC3)C2)c2ccccc21 (3D coordinates assigned)
O=C(c1cc2c(Cl)cccc2[nH]1)N1C[C@@]2(CCN([C@H]3CCNC3)C2)c2ccccc21 (nonaromatic ring conformer: 121.21411238253026 kcal/mol)

>  <smiles>  (9) 
O=C(c1cc2c(Cl)cccc2[nH]1)N1C[C@@]2(CCN(C3CCNC3)C2)c2ccccc21

>  <score_type>  (9) 
oracle

>  <origin>  (9) 
autodockgpu

>  <m_score__min__energy>  (9) 
-8.7400000000000002

>  <m_primary>  (9) 
energy

>  <meeko>  (9) 
{"free_energy": -8.73, "intermolecular_energy": -9.62, "internal_energy": -1.26, "cluster_size": 19, "cluster_id": 1, "rank_in_cluster": 12}

>  <energy>  (9) 
-8.73

>  <cluster_rmsd>  (9) 
0.03

>  <rmsd>  (9) 
271.77

>  <cluster>  (9) 
1

$$$$
KZWACXAMTSGJSU-FYSMJZIKNA-N
     RDKit          3D

 55 60  0  0  0  0  0  0  0  0999 V2000
  141.0250   71.5660  220.9450 O   0  0  0  0  0  0  0  0  0  0  0  0
  140.4680   72.1030  221.9400 C   0  0  0  0  0  0  0  0  0  0  0  0
  140.3020   71.3270  223.1830 C   0  0  0  0  0  0  0  0  0  0  0  0
  140.6360   71.7800  224.4580 C   0  0  0  0  0  0  0  0  0  0  0  0
  140.3360   70.7300  225.3010 C   0  0  0  0  0  0  0  0  0  0  0  0
  140.4590   70.6040  226.6850 C   0  0  0  0  0  0  0  0  0  0  0  0
  141.0780   71.9130  227.6780 Cl  0  0  0  0  0  0  0  0  0  0  0  0
  140.0690   69.3840  227.2700 C   0  0  0  0  0  0  0  0  0  0  0  0
  139.5720   68.3320  226.4680 C   0  0  0  0  0  0  0  0  0  0  0  0
  139.4610   68.4890  225.0750 C   0  0  0  0  0  0  0  0  0  0  0  0
  139.8540   69.7080  224.5240 C   0  0  0  0  0  0  0  0  0  0  0  0
  139.8310   70.0580  223.2280 N   0  0  0  0  0  0  0  0  0  0  0  0
  139.9600   73.4390  221.8270 N   0  0  0  0  0  0  0  0  0  0  0  0
  140.8070   74.6210  221.6720 C   0  0  0  0  0  0  0  0  0  0  0  0
  139.8250   75.8290  221.5140 C   0  0  2  0  0  0  0  0  0  0  0  0
  139.8570   76.4530  220.1220 C   0  0  0  0  0  0  0  0  0  0  0  0
  139.4870   77.9130  220.3400 C   0  0  0  0  0  0  0  0  0  0  0  0
  139.6860   78.2300  221.7670 N   0  0  0  0  0  0  0  0  0  0  0  0
  140.5330   79.4350  221.9770 C   0  0  1  0  0  0  0  0  0  0  0  0
  140.7170   79.7600  223.4570 C   0  0  0  0  0  0  0  0  0  0  0  0
  142.2130   79.9550  223.6360 C   0  0  0  0  0  0  0  0  0  0  0  0
  142.8790   79.2600  222.5390 N   0  0  0  0  0  0  0  0  0  0  0  0
  141.9570   79.3210  221.4060 C   0  0  0  0  0  0  0  0  0  0  0  0
  140.1380   77.0010  222.4480 C   0  0  0  0  0  0  0  0  0  0  0  0
  138.4820   75.2070  221.8060 C   0  0  0  0  0  0  0  0  0  0  0  0
  137.2360   75.8340  221.9440 C   0  0  0  0  0  0  0  0  0  0  0  0
  136.1180   75.0480  222.2600 C   0  0  0  0  0  0  0  0  0  0  0  0
  136.2570   73.6610  222.4490 C   0  0  0  0  0  0  0  0  0  0  0  0
  137.5130   73.0530  222.3140 C   0  0  0  0  0  0  0  0  0  0  0  0
  138.6100   73.8520  221.9670 C   0  0  0  0  0  0  0  0  0  0  0  0
  141.0492   72.7618  224.7326 H   0  0  0  0  0  0  0  0  0  0  0  0
  140.1518   69.2489  228.3585 H   0  0  0  0  0  0  0  0  0  0  0  0
  139.2699   67.3838  226.9366 H   0  0  0  0  0  0  0  0  0  0  0  0
  139.0767   67.6766  224.4407 H   0  0  0  0  0  0  0  0  0  0  0  0
  139.5300   69.4620  222.4240 H   0  0  0  0  0  0  0  0  0  0  0  0
  141.4420   74.7567  222.5599 H   0  0  0  0  0  0  0  0  0  0  0  0
  141.4784   74.5281  220.8057 H   0  0  0  0  0  0  0  0  0  0  0  0
  140.8623   76.3697  219.6833 H   0  0  0  0  0  0  0  0  0  0  0  0
  139.1688   75.9504  219.4265 H   0  0  0  0  0  0  0  0  0  0  0  0
  140.1305   78.5566  219.7222 H   0  0  0  0  0  0  0  0  0  0  0  0
  138.4390   78.0865  220.0545 H   0  0  0  0  0  0  0  0  0  0  0  0
  139.9760   80.2189  221.4429 H   0  0  0  0  0  0  0  0  0  0  0  0
  140.1734   80.6791  223.7211 H   0  0  0  0  0  0  0  0  0  0  0  0
  140.3245   78.9633  224.1060 H   0  0  0  0  0  0  0  0  0  0  0  0
  142.4585   81.0268  223.6060 H   0  0  0  0  0  0  0  0  0  0  0  0
  142.5431   79.5549  224.6060 H   0  0  0  0  0  0  0  0  0  0  0  0
  143.7610   79.7680  222.2940 H   0  0  0  0  0  0  0  0  0  0  0  0
  142.1839   80.1991  220.7836 H   0  0  0  0  0  0  0  0  0  0  0  0
  142.0530   78.4227  220.7785 H   0  0  0  0  0  0  0  0  0  0  0  0
  141.2199   77.0520  222.6402 H   0  0  0  0  0  0  0  0  0  0  0  0
  139.6281   76.8786  223.4150 H   0  0  0  0  0  0  0  0  0  0  0  0
  137.1369   76.9209  221.8072 H   0  0  0  0  0  0  0  0  0  0  0  0
  135.1286   75.5181  222.3604 H   0  0  0  0  0  0  0  0  0  0  0  0
  135.3774   73.0515  222.7036 H   0  0  0  0  0  0  0  0  0  0  0  0
  137.6344   71.9719  222.4770 H   0  0  0  0  0  0  0  0  0  0  0  0
  1  2  2  0
  2  3  1  0
  3  4  2  0
  4  5  1  0
  5  6  2  0
  6  7  1  0
  6  8  1  0
  8  9  2  0
  9 10  1  0
 10 11  2  0
 11 12  1  0
  2 13  1  0
 13 14  1  0
 15 14  1  6
 15 16  1  0
 16 17  1  0
 17 18  1  0
 18 19  1  0
 19 20  1  0
 20 21  1  0
 21 22  1  0
 22 23  1  0
 18 24  1  0
 15 25  1  0
 25 26  2  0
 26 27  1  0
 27 28  2  0
 28 29  1  0
 29 30  2  0
 12  3  1  0
 30 13  1  0
 11  5  1  0
 24 15  1  0
 30 25  1  0
 23 19  1  0
  4 31  1  0
  8 32  1  0
  9 33  1  0
 10 34  1  0
 12 35  1  0
 14 36  1  0
 14 37  1  0
 16 38  1  0
 16 39  1  0
 17 40  1  0
 17 41  1  0
 19 42  1  6
 20 43  1  0
 20 44  1  0
 21 45  1  0
 21 46  1  0
 22 47  1  0
 23 48  1  0
 23 49  1  0
 24 50  1  0
 24 51  1  0
 26 52  1  0
 27 53  1  0
 28 54  1  0
 29 55  1  0
M  END
>  <UniqueID>  (10) 
161

>  <SMILES>  (10) 
O=C(c1cc2c(Cl)cccc2[nH]1)N1C[C@@]2(CCN([C@H]3CCNC3)C2)c2ccccc21

>  <Energy>  (10) 
121.21411238253026

>  <Genealogy>  (10) 
O=C(c1cc2c(Cl)cccc2[nH]1)N1C[C@@]2(CCN([C@H]3CCNC3)C2)c2ccccc21 (chirality)
O=C(c1cc2c(Cl)cccc2[nH]1)N1C[C@@]2(CCN([C@H]3CCNC3)C2)c2ccccc21 (3D coordinates assigned)
O=C(c1cc2c(Cl)cccc2[nH]1)N1C[C@@]2(CCN([C@H]3CCNC3)C2)c2ccccc21 (nonaromatic ring conformer: 121.21411238253026 kcal/mol)

>  <smiles>  (10) 
O=C(c1cc2c(Cl)cccc2[nH]1)N1C[C@@]2(CCN(C3CCNC3)C2)c2ccccc21

>  <score_type>  (10) 
oracle

>  <origin>  (10) 
autodockgpu

>  <m_score__min__energy>  (10) 
-8.7400000000000002

>  <m_primary>  (10) 
energy

>  <meeko>  (10) 
{"free_energy": -8.73, "intermolecular_energy": -9.63, "internal_energy": -1.26, "cluster_size": 19, "cluster_id": 1, "rank_in_cluster": 10}

>  <energy>  (10) 
-8.73

>  <cluster_rmsd>  (10) 
0.04

>  <rmsd>  (10) 
271.79

>  <cluster>  (10) 
1

$$$$
KZWACXAMTSGJSU-FYSMJZIKNA-N
     RDKit          3D

 55 60  0  0  0  0  0  0  0  0999 V2000
  140.9070   71.5950  220.9370 O   0  0  0  0  0  0  0  0  0  0  0  0
  140.3800   72.1320  221.9490 C   0  0  0  0  0  0  0  0  0  0  0  0
  140.2370   71.3520  223.1920 C   0  0  0  0  0  0  0  0  0  0  0  0
  140.5870   71.8030  224.4620 C   0  0  0  0  0  0  0  0  0  0  0  0
  140.3050   70.7490  225.3060 C   0  0  0  0  0  0  0  0  0  0  0  0
  140.4490   70.6190  226.6890 C   0  0  0  0  0  0  0  0  0  0  0  0
  141.0750   71.9290  227.6760 Cl  0  0  0  0  0  0  0  0  0  0  0  0
  140.0740   69.3950  227.2750 C   0  0  0  0  0  0  0  0  0  0  0  0
  139.5720   68.3430  226.4770 C   0  0  0  0  0  0  0  0  0  0  0  0
  139.4400   68.5040  225.0870 C   0  0  0  0  0  0  0  0  0  0  0  0
  139.8170   69.7260  224.5330 C   0  0  0  0  0  0  0  0  0  0  0  0
  139.7740   70.0800  223.2390 N   0  0  0  0  0  0  0  0  0  0  0  0
  139.8850   73.4740  221.8550 N   0  0  0  0  0  0  0  0  0  0  0  0
  140.7410   74.6500  221.7100 C   0  0  0  0  0  0  0  0  0  0  0  0
  139.7700   75.8690  221.5720 C   0  0  2  0  0  0  0  0  0  0  0  0
  139.8010   76.5100  220.1880 C   0  0  0  0  0  0  0  0  0  0  0  0
  139.4450   77.9710  220.4260 C   0  0  0  0  0  0  0  0  0  0  0  0
  139.6550   78.2680  221.8550 N   0  0  0  0  0  0  0  0  0  0  0  0
  140.5140   79.4620  222.0760 C   0  0  1  0  0  0  0  0  0  0  0  0
  140.7340   79.7490  223.5600 C   0  0  0  0  0  0  0  0  0  0  0  0
  142.2350   79.9310  223.7080 C   0  0  0  0  0  0  0  0  0  0  0  0
  142.8710   79.2600  222.5790 N   0  0  0  0  0  0  0  0  0  0  0  0
  141.9240   79.3550  221.4700 C   0  0  0  0  0  0  0  0  0  0  0  0
  140.0980   77.0270  222.5190 C   0  0  0  0  0  0  0  0  0  0  0  0
  138.4230   75.2560  221.8630 C   0  0  0  0  0  0  0  0  0  0  0  0
  137.1840   75.8920  222.0150 C   0  0  0  0  0  0  0  0  0  0  0  0
  136.0590   75.1130  222.3270 C   0  0  0  0  0  0  0  0  0  0  0  0
  136.1870   73.7230  222.4980 C   0  0  0  0  0  0  0  0  0  0  0  0
  137.4370   73.1050  222.3500 C   0  0  0  0  0  0  0  0  0  0  0  0
  138.5390   73.8980  222.0070 C   0  0  0  0  0  0  0  0  0  0  0  0
  140.9989   72.7862  224.7333 H   0  0  0  0  0  0  0  0  0  0  0  0
  140.1726   69.2569  228.3618 H   0  0  0  0  0  0  0  0  0  0  0  0
  139.2825   67.3914  226.9467 H   0  0  0  0  0  0  0  0  0  0  0  0
  139.0513   67.6910  224.4562 H   0  0  0  0  0  0  0  0  0  0  0  0
  139.4640   69.4850  222.4380 H   0  0  0  0  0  0  0  0  0  0  0  0
  141.3818   74.7690  222.5961 H   0  0  0  0  0  0  0  0  0  0  0  0
  141.4065   74.5616  220.8386 H   0  0  0  0  0  0  0  0  0  0  0  0
  140.8034   76.4232  219.7435 H   0  0  0  0  0  0  0  0  0  0  0  0
  139.1050   76.0223  219.4896 H   0  0  0  0  0  0  0  0  0  0  0  0
  140.0906   78.6166  219.8124 H   0  0  0  0  0  0  0  0  0  0  0  0
  138.3970   78.1574  220.1485 H   0  0  0  0  0  0  0  0  0  0  0  0
  139.9495   80.2619  221.5745 H   0  0  0  0  0  0  0  0  0  0  0  0
  140.2023   80.6642  223.8596 H   0  0  0  0  0  0  0  0  0  0  0  0
  140.3515   78.9389  224.1982 H   0  0  0  0  0  0  0  0  0  0  0  0
  142.4863   81.0019  223.6987 H   0  0  0  0  0  0  0  0  0  0  0  0
  142.5852   79.5048  224.6597 H   0  0  0  0  0  0  0  0  0  0  0  0
  143.7500   79.7690  222.3270 H   0  0  0  0  0  0  0  0  0  0  0  0
  142.1419   80.2476  220.8651 H   0  0  0  0  0  0  0  0  0  0  0  0
  142.0002   78.4724  220.8179 H   0  0  0  0  0  0  0  0  0  0  0  0
  141.1811   77.0655  222.7072 H   0  0  0  0  0  0  0  0  0  0  0  0
  139.5909   76.8977  223.4866 H   0  0  0  0  0  0  0  0  0  0  0  0
  137.0946   76.9814  221.8921 H   0  0  0  0  0  0  0  0  0  0  0  0
  135.0745   75.5910  222.4381 H   0  0  0  0  0  0  0  0  0  0  0  0
  135.3031   73.1182  222.7488 H   0  0  0  0  0  0  0  0  0  0  0  0
  137.5494   72.0211  222.5001 H   0  0  0  0  0  0  0  0  0  0  0  0
  1  2  2  0
  2  3  1  0
  3  4  2  0
  4  5  1  0
  5  6  2  0
  6  7  1  0
  6  8  1  0
  8  9  2  0
  9 10  1  0
 10 11  2  0
 11 12  1  0
  2 13  1  0
 13 14  1  0
 15 14  1  6
 15 16  1  0
 16 17  1  0
 17 18  1  0
 18 19  1  0
 19 20  1  0
 20 21  1  0
 21 22  1  0
 22 23  1  0
 18 24  1  0
 15 25  1  0
 25 26  2  0
 26 27  1  0
 27 28  2  0
 28 29  1  0
 29 30  2  0
 12  3  1  0
 30 13  1  0
 11  5  1  0
 24 15  1  0
 30 25  1  0
 23 19  1  0
  4 31  1  0
  8 32  1  0
  9 33  1  0
 10 34  1  0
 12 35  1  0
 14 36  1  0
 14 37  1  0
 16 38  1  0
 16 39  1  0
 17 40  1  0
 17 41  1  0
 19 42  1  6
 20 43  1  0
 20 44  1  0
 21 45  1  0
 21 46  1  0
 22 47  1  0
 23 48  1  0
 23 49  1  0
 24 50  1  0
 24 51  1  0
 26 52  1  0
 27 53  1  0
 28 54  1  0
 29 55  1  0
M  END
>  <UniqueID>  (11) 
161

>  <SMILES>  (11) 
O=C(c1cc2c(Cl)cccc2[nH]1)N1C[C@@]2(CCN([C@H]3CCNC3)C2)c2ccccc21

>  <Energy>  (11) 
121.21411238253026

>  <Genealogy>  (11) 
O=C(c1cc2c(Cl)cccc2[nH]1)N1C[C@@]2(CCN([C@H]3CCNC3)C2)c2ccccc21 (chirality)
O=C(c1cc2c(Cl)cccc2[nH]1)N1C[C@@]2(CCN([C@H]3CCNC3)C2)c2ccccc21 (3D coordinates assigned)
O=C(c1cc2c(Cl)cccc2[nH]1)N1C[C@@]2(CCN([C@H]3CCNC3)C2)c2ccccc21 (nonaromatic ring conformer: 121.21411238253026 kcal/mol)

>  <smiles>  (11) 
O=C(c1cc2c(Cl)cccc2[nH]1)N1C[C@@]2(CCN(C3CCNC3)C2)c2ccccc21

>  <score_type>  (11) 
oracle

>  <origin>  (11) 
autodockgpu

>  <m_score__min__energy>  (11) 
-8.7400000000000002

>  <m_primary>  (11) 
energy

>  <meeko>  (11) 
{"free_energy": -8.72, "intermolecular_energy": -9.61, "internal_energy": -1.26, "cluster_size": 19, "cluster_id": 1, "rank_in_cluster": 15}

>  <energy>  (11) 
-8.73

>  <cluster_rmsd>  (11) 
0.03

>  <rmsd>  (11) 
271.79

>  <cluster>  (11) 
1

$$$$
KZWACXAMTSGJSU-FYSMJZIKNA-N
     RDKit          3D

 55 60  0  0  0  0  0  0  0  0999 V2000
  140.9990   71.5510  220.9560 O   0  0  0  0  0  0  0  0  0  0  0  0
  140.4470   72.0910  221.9510 C   0  0  0  0  0  0  0  0  0  0  0  0
  140.2860   71.3200  223.1980 C   0  0  0  0  0  0  0  0  0  0  0  0
  140.6230   71.7780  224.4690 C   0  0  0  0  0  0  0  0  0  0  0  0
  140.3280   70.7310  225.3170 C   0  0  0  0  0  0  0  0  0  0  0  0
  140.4560   70.6110  226.7020 C   0  0  0  0  0  0  0  0  0  0  0  0
  141.0750   71.9250  227.6870 Cl  0  0  0  0  0  0  0  0  0  0  0  0
  140.0690   69.3920  227.2930 C   0  0  0  0  0  0  0  0  0  0  0  0
  139.5720   68.3360  226.4960 C   0  0  0  0  0  0  0  0  0  0  0  0
  139.4570   68.4880  225.1030 C   0  0  0  0  0  0  0  0  0  0  0  0
  139.8450   69.7050  224.5460 C   0  0  0  0  0  0  0  0  0  0  0  0
  139.8180   70.0500  223.2490 N   0  0  0  0  0  0  0  0  0  0  0  0
  139.9390   73.4270  221.8350 N   0  0  0  0  0  0  0  0  0  0  0  0
  140.7860   74.6090  221.6800 C   0  0  0  0  0  0  0  0  0  0  0  0
  139.8040   75.8160  221.5190 C   0  0  2  0  0  0  0  0  0  0  0  0
  139.8370   76.4390  220.1260 C   0  0  0  0  0  0  0  0  0  0  0  0
  139.4670   77.8990  220.3420 C   0  0  0  0  0  0  0  0  0  0  0  0
  139.6640   78.2180  221.7680 N   0  0  0  0  0  0  0  0  0  0  0  0
  140.5110   79.4230  221.9780 C   0  0  1  0  0  0  0  0  0  0  0  0
  140.6950   79.7490  223.4580 C   0  0  0  0  0  0  0  0  0  0  0  0
  142.1910   79.9450  223.6360 C   0  0  0  0  0  0  0  0  0  0  0  0
  142.8560   79.2500  222.5390 N   0  0  0  0  0  0  0  0  0  0  0  0
  141.9340   79.3100  221.4070 C   0  0  0  0  0  0  0  0  0  0  0  0
  140.1150   76.9900  222.4520 C   0  0  0  0  0  0  0  0  0  0  0  0
  138.4600   75.1950  221.8100 C   0  0  0  0  0  0  0  0  0  0  0  0
  137.2140   75.8210  221.9450 C   0  0  0  0  0  0  0  0  0  0  0  0
  136.0960   75.0360  222.2610 C   0  0  0  0  0  0  0  0  0  0  0  0
  136.2350   73.6490  222.4520 C   0  0  0  0  0  0  0  0  0  0  0  0
  137.4910   73.0410  222.3200 C   0  0  0  0  0  0  0  0  0  0  0  0
  138.5890   73.8400  221.9730 C   0  0  0  0  0  0  0  0  0  0  0  0
  141.0352   72.7616  224.7384 H   0  0  0  0  0  0  0  0  0  0  0  0
  140.1542   69.2613  228.3819 H   0  0  0  0  0  0  0  0  0  0  0  0
  139.2731   67.3888  226.9687 H   0  0  0  0  0  0  0  0  0  0  0  0
  139.0730   67.6722  224.4729 H   0  0  0  0  0  0  0  0  0  0  0  0
  139.5160   69.4500  222.4480 H   0  0  0  0  0  0  0  0  0  0  0  0
  141.4195   74.7460  222.5688 H   0  0  0  0  0  0  0  0  0  0  0  0
  141.4590   74.5153  220.8150 H   0  0  0  0  0  0  0  0  0  0  0  0
  140.8426   76.3552  219.6882 H   0  0  0  0  0  0  0  0  0  0  0  0
  139.1492   75.9357  219.4306 H   0  0  0  0  0  0  0  0  0  0  0  0
  140.1113   78.5418  219.7242 H   0  0  0  0  0  0  0  0  0  0  0  0
  138.4192   78.0719  220.0551 H   0  0  0  0  0  0  0  0  0  0  0  0
  139.9534   80.2063  221.4437 H   0  0  0  0  0  0  0  0  0  0  0  0
  140.1509   80.6679  223.7218 H   0  0  0  0  0  0  0  0  0  0  0  0
  140.3031   78.9526  224.1077 H   0  0  0  0  0  0  0  0  0  0  0  0
  142.4360   81.0169  223.6053 H   0  0  0  0  0  0  0  0  0  0  0  0
  142.5222   79.5458  224.6060 H   0  0  0  0  0  0  0  0  0  0  0  0
  143.7390   79.7580  222.2950 H   0  0  0  0  0  0  0  0  0  0  0  0
  142.1600   80.1881  220.7843 H   0  0  0  0  0  0  0  0  0  0  0  0
  142.0304   78.4115  220.7797 H   0  0  0  0  0  0  0  0  0  0  0  0
  141.1965   77.0416  222.6462 H   0  0  0  0  0  0  0  0  0  0  0  0
  139.6032   76.8690  223.4182 H   0  0  0  0  0  0  0  0  0  0  0  0
  137.1146   76.9076  221.8058 H   0  0  0  0  0  0  0  0  0  0  0  0
  135.1065   75.5063  222.3599 H   0  0  0  0  0  0  0  0  0  0  0  0
  135.3550   73.0397  222.7058 H   0  0  0  0  0  0  0  0  0  0  0  0
  137.6123   71.9603  222.4852 H   0  0  0  0  0  0  0  0  0  0  0  0
  1  2  2  0
  2  3  1  0
  3  4  2  0
  4  5  1  0
  5  6  2  0
  6  7  1  0
  6  8  1  0
  8  9  2  0
  9 10  1  0
 10 11  2  0
 11 12  1  0
  2 13  1  0
 13 14  1  0
 15 14  1  6
 15 16  1  0
 16 17  1  0
 17 18  1  0
 18 19  1  0
 19 20  1  0
 20 21  1  0
 21 22  1  0
 22 23  1  0
 18 24  1  0
 15 25  1  0
 25 26  2  0
 26 27  1  0
 27 28  2  0
 28 29  1  0
 29 30  2  0
 12  3  1  0
 30 13  1  0
 11  5  1  0
 24 15  1  0
 30 25  1  0
 23 19  1  0
  4 31  1  0
  8 32  1  0
  9 33  1  0
 10 34  1  0
 12 35  1  0
 14 36  1  0
 14 37  1  0
 16 38  1  0
 16 39  1  0
 17 40  1  0
 17 41  1  0
 19 42  1  6
 20 43  1  0
 20 44  1  0
 21 45  1  0
 21 46  1  0
 22 47  1  0
 23 48  1  0
 23 49  1  0
 24 50  1  0
 24 51  1  0
 26 52  1  0
 27 53  1  0
 28 54  1  0
 29 55  1  0
M  END
>  <UniqueID>  (12) 
161

>  <SMILES>  (12) 
O=C(c1cc2c(Cl)cccc2[nH]1)N1C[C@@]2(CCN([C@H]3CCNC3)C2)c2ccccc21

>  <Energy>  (12) 
121.21411238253026

>  <Genealogy>  (12) 
O=C(c1cc2c(Cl)cccc2[nH]1)N1C[C@@]2(CCN([C@H]3CCNC3)C2)c2ccccc21 (chirality)
O=C(c1cc2c(Cl)cccc2[nH]1)N1C[C@@]2(CCN([C@H]3CCNC3)C2)c2ccccc21 (3D coordinates assigned)
O=C(c1cc2c(Cl)cccc2[nH]1)N1C[C@@]2(CCN([C@H]3CCNC3)C2)c2ccccc21 (nonaromatic ring conformer: 121.21411238253026 kcal/mol)

>  <smiles>  (12) 
O=C(c1cc2c(Cl)cccc2[nH]1)N1C[C@@]2(CCN(C3CCNC3)C2)c2ccccc21

>  <score_type>  (12) 
oracle

>  <origin>  (12) 
autodockgpu

>  <m_score__min__energy>  (12) 
-8.7400000000000002

>  <m_primary>  (12) 
energy

>  <meeko>  (12) 
{"free_energy": -8.74, "intermolecular_energy": -9.63, "internal_energy": -1.26, "cluster_size": 19, "cluster_id": 1, "rank_in_cluster": 4}

>  <energy>  (12) 
-8.73

>  <cluster_rmsd>  (12) 
0.09

>  <rmsd>  (12) 
271.77

>  <cluster>  (12) 
1

$$$$
KZWACXAMTSGJSU-FYSMJZIKNA-N
     RDKit          3D

 55 60  0  0  0  0  0  0  0  0999 V2000
  140.9540   71.5720  220.9280 O   0  0  0  0  0  0  0  0  0  0  0  0
  140.4120   72.1120  221.9300 C   0  0  0  0  0  0  0  0  0  0  0  0
  140.2590   71.3380  223.1760 C   0  0  0  0  0  0  0  0  0  0  0  0
  140.6060   71.7920  224.4460 C   0  0  0  0  0  0  0  0  0  0  0  0
  140.3150   70.7430  225.2930 C   0  0  0  0  0  0  0  0  0  0  0  0
  140.4520   70.6190  226.6770 C   0  0  0  0  0  0  0  0  0  0  0  0
  141.0800   71.9290  227.6610 Cl  0  0  0  0  0  0  0  0  0  0  0  0
  140.0680   69.3990  227.2670 C   0  0  0  0  0  0  0  0  0  0  0  0
  139.5630   68.3460  226.4710 C   0  0  0  0  0  0  0  0  0  0  0  0
  139.4380   68.5020  225.0790 C   0  0  0  0  0  0  0  0  0  0  0  0
  139.8250   69.7200  224.5230 C   0  0  0  0  0  0  0  0  0  0  0  0
  139.7890   70.0680  223.2270 N   0  0  0  0  0  0  0  0  0  0  0  0
  139.9100   73.4500  221.8230 N   0  0  0  0  0  0  0  0  0  0  0  0
  140.7610   74.6290  221.6690 C   0  0  0  0  0  0  0  0  0  0  0  0
  139.7840   75.8420  221.5190 C   0  0  2  0  0  0  0  0  0  0  0  0
  139.8140   76.4710  220.1290 C   0  0  0  0  0  0  0  0  0  0  0  0
  139.4500   77.9310  220.3530 C   0  0  0  0  0  0  0  0  0  0  0  0
  139.6550   78.2430  221.7800 N   0  0  0  0  0  0  0  0  0  0  0  0
  140.5070   79.4430  221.9910 C   0  0  1  0  0  0  0  0  0  0  0  0
  140.7100   79.7540  223.4730 C   0  0  0  0  0  0  0  0  0  0  0  0
  142.2090   79.9440  223.6340 C   0  0  0  0  0  0  0  0  0  0  0  0
  142.8590   79.2580  222.5220 N   0  0  0  0  0  0  0  0  0  0  0  0
  141.9230   79.3320  221.4020 C   0  0  0  0  0  0  0  0  0  0  0  0
  140.1030   77.0100  222.4560 C   0  0  0  0  0  0  0  0  0  0  0  0
  138.4380   75.2240  221.8120 C   0  0  0  0  0  0  0  0  0  0  0  0
  137.1960   75.8560  221.9560 C   0  0  0  0  0  0  0  0  0  0  0  0
  136.0750   75.0730  222.2730 C   0  0  0  0  0  0  0  0  0  0  0  0
  136.2100   73.6850  222.4570 C   0  0  0  0  0  0  0  0  0  0  0  0
  137.4630   73.0720  222.3160 C   0  0  0  0  0  0  0  0  0  0  0  0
  138.5620   73.8680  221.9680 C   0  0  0  0  0  0  0  0  0  0  0  0
  141.0219   72.7741  224.7152 H   0  0  0  0  0  0  0  0  0  0  0  0
  140.1618   69.2649  228.3548 H   0  0  0  0  0  0  0  0  0  0  0  0
  139.2658   67.3981  226.9434 H   0  0  0  0  0  0  0  0  0  0  0  0
  139.0474   67.6890  224.4493 H   0  0  0  0  0  0  0  0  0  0  0  0
  139.4800   69.4720  222.4270 H   0  0  0  0  0  0  0  0  0  0  0  0
  141.3999   74.7588  222.5550 H   0  0  0  0  0  0  0  0  0  0  0  0
  141.4285   74.5363  220.7996 H   0  0  0  0  0  0  0  0  0  0  0  0
  140.8177   76.3856  219.6870 H   0  0  0  0  0  0  0  0  0  0  0  0
  139.1219   75.9733  219.4339 H   0  0  0  0  0  0  0  0  0  0  0  0
  140.0935   78.5743  219.7349 H   0  0  0  0  0  0  0  0  0  0  0  0
  138.4015   78.1088  220.0718 H   0  0  0  0  0  0  0  0  0  0  0  0
  139.9452   80.2328  221.4709 H   0  0  0  0  0  0  0  0  0  0  0  0
  140.1719   80.6717  223.7526 H   0  0  0  0  0  0  0  0  0  0  0  0
  140.3236   78.9525  224.1198 H   0  0  0  0  0  0  0  0  0  0  0  0
  142.4566   81.0155  223.6108 H   0  0  0  0  0  0  0  0  0  0  0  0
  142.5509   79.5340  224.5958 H   0  0  0  0  0  0  0  0  0  0  0  0
  143.7390   79.7660  222.2720 H   0  0  0  0  0  0  0  0  0  0  0  0
  142.1439   80.2158  220.7855 H   0  0  0  0  0  0  0  0  0  0  0  0
  142.0092   78.4395  220.7649 H   0  0  0  0  0  0  0  0  0  0  0  0
  141.1854   77.0561  222.6467 H   0  0  0  0  0  0  0  0  0  0  0  0
  139.5939   76.8865  223.4232 H   0  0  0  0  0  0  0  0  0  0  0  0
  137.1012   76.9439  221.8233 H   0  0  0  0  0  0  0  0  0  0  0  0
  135.0876   75.5464  222.3779 H   0  0  0  0  0  0  0  0  0  0  0  0
  135.3289   73.0781  222.7126 H   0  0  0  0  0  0  0  0  0  0  0  0
  137.5805   71.9899  222.4751 H   0  0  0  0  0  0  0  0  0  0  0  0
  1  2  2  0
  2  3  1  0
  3  4  2  0
  4  5  1  0
  5  6  2  0
  6  7  1  0
  6  8  1  0
  8  9  2  0
  9 10  1  0
 10 11  2  0
 11 12  1  0
  2 13  1  0
 13 14  1  0
 15 14  1  6
 15 16  1  0
 16 17  1  0
 17 18  1  0
 18 19  1  0
 19 20  1  0
 20 21  1  0
 21 22  1  0
 22 23  1  0
 18 24  1  0
 15 25  1  0
 25 26  2  0
 26 27  1  0
 27 28  2  0
 28 29  1  0
 29 30  2  0
 12  3  1  0
 30 13  1  0
 11  5  1  0
 24 15  1  0
 30 25  1  0
 23 19  1  0
  4 31  1  0
  8 32  1  0
  9 33  1  0
 10 34  1  0
 12 35  1  0
 14 36  1  0
 14 37  1  0
 16 38  1  0
 16 39  1  0
 17 40  1  0
 17 41  1  0
 19 42  1  6
 20 43  1  0
 20 44  1  0
 21 45  1  0
 21 46  1  0
 22 47  1  0
 23 48  1  0
 23 49  1  0
 24 50  1  0
 24 51  1  0
 26 52  1  0
 27 53  1  0
 28 54  1  0
 29 55  1  0
M  END
>  <UniqueID>  (13) 
161

>  <SMILES>  (13) 
O=C(c1cc2c(Cl)cccc2[nH]1)N1C[C@@]2(CCN([C@H]3CCNC3)C2)c2ccccc21

>  <Energy>  (13) 
121.21411238253026

>  <Genealogy>  (13) 
O=C(c1cc2c(Cl)cccc2[nH]1)N1C[C@@]2(CCN([C@H]3CCNC3)C2)c2ccccc21 (chirality)
O=C(c1cc2c(Cl)cccc2[nH]1)N1C[C@@]2(CCN([C@H]3CCNC3)C2)c2ccccc21 (3D coordinates assigned)
O=C(c1cc2c(Cl)cccc2[nH]1)N1C[C@@]2(CCN([C@H]3CCNC3)C2)c2ccccc21 (nonaromatic ring conformer: 121.21411238253026 kcal/mol)

>  <smiles>  (13) 
O=C(c1cc2c(Cl)cccc2[nH]1)N1C[C@@]2(CCN(C3CCNC3)C2)c2ccccc21

>  <score_type>  (13) 
oracle

>  <origin>  (13) 
autodockgpu

>  <m_score__min__energy>  (13) 
-8.7400000000000002

>  <m_primary>  (13) 
energy

>  <meeko>  (13) 
{"free_energy": -8.73, "intermolecular_energy": -9.63, "internal_energy": -1.26, "cluster_size": 19, "cluster_id": 1, "rank_in_cluster": 5}

>  <energy>  (13) 
-8.73

>  <cluster_rmsd>  (13) 
0.05

>  <rmsd>  (13) 
271.81

>  <cluster>  (13) 
1

$$$$
KZWACXAMTSGJSU-FYSMJZIKNA-N
     RDKit          3D

 55 60  0  0  0  0  0  0  0  0999 V2000
  140.9350   71.5710  220.9400 O   0  0  0  0  0  0  0  0  0  0  0  0
  140.4000   72.1140  221.9440 C   0  0  0  0  0  0  0  0  0  0  0  0
  140.2550   71.3440  223.1930 C   0  0  0  0  0  0  0  0  0  0  0  0
  140.5900   71.8110  224.4620 C   0  0  0  0  0  0  0  0  0  0  0  0
  140.3120   70.7620  225.3140 C   0  0  0  0  0  0  0  0  0  0  0  0
  140.4470   70.6460  226.6990 C   0  0  0  0  0  0  0  0  0  0  0  0
  141.0500   71.9720  227.6780 Cl  0  0  0  0  0  0  0  0  0  0  0  0
  140.0800   69.4240  227.2930 C   0  0  0  0  0  0  0  0  0  0  0  0
  139.5950   68.3590  226.5020 C   0  0  0  0  0  0  0  0  0  0  0  0
  139.4730   68.5050  225.1080 C   0  0  0  0  0  0  0  0  0  0  0  0
  139.8420   69.7260  224.5470 C   0  0  0  0  0  0  0  0  0  0  0  0
  139.8050   70.0680  223.2490 N   0  0  0  0  0  0  0  0  0  0  0  0
  139.8970   73.4520  221.8360 N   0  0  0  0  0  0  0  0  0  0  0  0
  140.7480   74.6310  221.6810 C   0  0  0  0  0  0  0  0  0  0  0  0
  139.7710   75.8440  221.5290 C   0  0  2  0  0  0  0  0  0  0  0  0
  139.8000   76.4710  220.1390 C   0  0  0  0  0  0  0  0  0  0  0  0
  139.4360   77.9320  220.3620 C   0  0  0  0  0  0  0  0  0  0  0  0
  139.6420   78.2450  221.7880 N   0  0  0  0  0  0  0  0  0  0  0  0
  140.4940   79.4460  221.9990 C   0  0  1  0  0  0  0  0  0  0  0  0
  140.6790   79.7700  223.4790 C   0  0  0  0  0  0  0  0  0  0  0  0
  142.1760   79.9590  223.6580 C   0  0  0  0  0  0  0  0  0  0  0  0
  142.8380   79.2610  222.5610 N   0  0  0  0  0  0  0  0  0  0  0  0
  141.9170   79.3260  221.4280 C   0  0  0  0  0  0  0  0  0  0  0  0
  140.0900   77.0120  222.4650 C   0  0  0  0  0  0  0  0  0  0  0  0
  138.4250   75.2260  221.8240 C   0  0  0  0  0  0  0  0  0  0  0  0
  137.1830   75.8570  221.9670 C   0  0  0  0  0  0  0  0  0  0  0  0
  136.0620   75.0750  222.2850 C   0  0  0  0  0  0  0  0  0  0  0  0
  136.1970   73.6880  222.4700 C   0  0  0  0  0  0  0  0  0  0  0  0
  137.4500   73.0740  222.3300 C   0  0  0  0  0  0  0  0  0  0  0  0
  138.5490   73.8700  221.9810 C   0  0  0  0  0  0  0  0  0  0  0  0
  140.9894   72.8010  224.7272 H   0  0  0  0  0  0  0  0  0  0  0  0
  140.1716   69.2973  228.3818 H   0  0  0  0  0  0  0  0  0  0  0  0
  139.3109   67.4094  226.9789 H   0  0  0  0  0  0  0  0  0  0  0  0
  139.0986   67.6821  224.4814 H   0  0  0  0  0  0  0  0  0  0  0  0
  139.5090   69.4620  222.4510 H   0  0  0  0  0  0  0  0  0  0  0  0
  141.3865   74.7619  222.5671 H   0  0  0  0  0  0  0  0  0  0  0  0
  141.4158   74.5373  220.8120 H   0  0  0  0  0  0  0  0  0  0  0  0
  140.8033   76.3851  219.6964 H   0  0  0  0  0  0  0  0  0  0  0  0
  139.1074   75.9725  219.4448 H   0  0  0  0  0  0  0  0  0  0  0  0
  140.0791   78.5748  219.7429 H   0  0  0  0  0  0  0  0  0  0  0  0
  138.3874   78.1097  220.0814 H   0  0  0  0  0  0  0  0  0  0  0  0
  139.9404   80.2327  221.4654 H   0  0  0  0  0  0  0  0  0  0  0  0
  140.1390   80.6912  223.7432 H   0  0  0  0  0  0  0  0  0  0  0  0
  140.2832   78.9748  224.1279 H   0  0  0  0  0  0  0  0  0  0  0  0
  142.4261   81.0298  223.6277 H   0  0  0  0  0  0  0  0  0  0  0  0
  142.5049   79.5582  224.6282 H   0  0  0  0  0  0  0  0  0  0  0  0
  143.7230   79.7650  222.3160 H   0  0  0  0  0  0  0  0  0  0  0  0
  142.1477   80.2032  220.8057 H   0  0  0  0  0  0  0  0  0  0  0  0
  142.0093   78.4275  220.8001 H   0  0  0  0  0  0  0  0  0  0  0  0
  141.1724   77.0581  222.6557 H   0  0  0  0  0  0  0  0  0  0  0  0
  139.5809   76.8891  223.4323 H   0  0  0  0  0  0  0  0  0  0  0  0
  137.0880   76.9446  221.8326 H   0  0  0  0  0  0  0  0  0  0  0  0
  135.0748   75.5487  222.3898 H   0  0  0  0  0  0  0  0  0  0  0  0
  135.3157   73.0815  222.7258 H   0  0  0  0  0  0  0  0  0  0  0  0
  137.5674   71.9921  222.4905 H   0  0  0  0  0  0  0  0  0  0  0  0
  1  2  2  0
  2  3  1  0
  3  4  2  0
  4  5  1  0
  5  6  2  0
  6  7  1  0
  6  8  1  0
  8  9  2  0
  9 10  1  0
 10 11  2  0
 11 12  1  0
  2 13  1  0
 13 14  1  0
 15 14  1  6
 15 16  1  0
 16 17  1  0
 17 18  1  0
 18 19  1  0
 19 20  1  0
 20 21  1  0
 21 22  1  0
 22 23  1  0
 18 24  1  0
 15 25  1  0
 25 26  2  0
 26 27  1  0
 27 28  2  0
 28 29  1  0
 29 30  2  0
 12  3  1  0
 30 13  1  0
 11  5  1  0
 24 15  1  0
 30 25  1  0
 23 19  1  0
  4 31  1  0
  8 32  1  0
  9 33  1  0
 10 34  1  0
 12 35  1  0
 14 36  1  0
 14 37  1  0
 16 38  1  0
 16 39  1  0
 17 40  1  0
 17 41  1  0
 19 42  1  6
 20 43  1  0
 20 44  1  0
 21 45  1  0
 21 46  1  0
 22 47  1  0
 23 48  1  0
 23 49  1  0
 24 50  1  0
 24 51  1  0
 26 52  1  0
 27 53  1  0
 28 54  1  0
 29 55  1  0
M  END
>  <UniqueID>  (14) 
161

>  <SMILES>  (14) 
O=C(c1cc2c(Cl)cccc2[nH]1)N1C[C@@]2(CCN([C@H]3CCNC3)C2)c2ccccc21

>  <Energy>  (14) 
121.21411238253026

>  <Genealogy>  (14) 
O=C(c1cc2c(Cl)cccc2[nH]1)N1C[C@@]2(CCN([C@H]3CCNC3)C2)c2ccccc21 (chirality)
O=C(c1cc2c(Cl)cccc2[nH]1)N1C[C@@]2(CCN([C@H]3CCNC3)C2)c2ccccc21 (3D coordinates assigned)
O=C(c1cc2c(Cl)cccc2[nH]1)N1C[C@@]2(CCN([C@H]3CCNC3)C2)c2ccccc21 (nonaromatic ring conformer: 121.21411238253026 kcal/mol)

>  <smiles>  (14) 
O=C(c1cc2c(Cl)cccc2[nH]1)N1C[C@@]2(CCN(C3CCNC3)C2)c2ccccc21

>  <score_type>  (14) 
oracle

>  <origin>  (14) 
autodockgpu

>  <m_score__min__energy>  (14) 
-8.7400000000000002

>  <m_primary>  (14) 
energy

>  <meeko>  (14) 
{"free_energy": -8.73, "intermolecular_energy": -9.62, "internal_energy": -1.26, "cluster_size": 19, "cluster_id": 1, "rank_in_cluster": 11}

>  <energy>  (14) 
-8.72

>  <cluster_rmsd>  (14) 
0.04

>  <rmsd>  (14) 
271.79

>  <cluster>  (14) 
1

$$$$
KZWACXAMTSGJSU-FYSMJZIKNA-N
     RDKit          3D

 55 60  0  0  0  0  0  0  0  0999 V2000
  140.9660   71.5790  220.9310 O   0  0  0  0  0  0  0  0  0  0  0  0
  140.4310   72.1220  221.9340 C   0  0  0  0  0  0  0  0  0  0  0  0
  140.2800   71.3500  223.1810 C   0  0  0  0  0  0  0  0  0  0  0  0
  140.6130   71.8120  224.4530 C   0  0  0  0  0  0  0  0  0  0  0  0
  140.3300   70.7620  225.3010 C   0  0  0  0  0  0  0  0  0  0  0  0
  140.4590   70.6440  226.6860 C   0  0  0  0  0  0  0  0  0  0  0  0
  141.0640   71.9650  227.6700 Cl  0  0  0  0  0  0  0  0  0  0  0  0
  140.0870   69.4210  227.2770 C   0  0  0  0  0  0  0  0  0  0  0  0
  139.6020   68.3590  226.4820 C   0  0  0  0  0  0  0  0  0  0  0  0
  139.4840   68.5090  225.0880 C   0  0  0  0  0  0  0  0  0  0  0  0
  139.8580   69.7300  224.5300 C   0  0  0  0  0  0  0  0  0  0  0  0
  139.8260   70.0740  223.2330 N   0  0  0  0  0  0  0  0  0  0  0  0
  139.9340   73.4620  221.8280 N   0  0  0  0  0  0  0  0  0  0  0  0
  140.7900   74.6380  221.6790 C   0  0  0  0  0  0  0  0  0  0  0  0
  139.8180   75.8550  221.5280 C   0  0  2  0  0  0  0  0  0  0  0  0
  139.8550   76.4860  220.1390 C   0  0  0  0  0  0  0  0  0  0  0  0
  139.4960   77.9480  220.3640 C   0  0  0  0  0  0  0  0  0  0  0  0
  139.6990   78.2560  221.7920 N   0  0  0  0  0  0  0  0  0  0  0  0
  140.5550   79.4530  222.0080 C   0  0  1  0  0  0  0  0  0  0  0  0
  140.7350   79.7750  223.4900 C   0  0  0  0  0  0  0  0  0  0  0  0
  142.2320   79.9560  223.6760 C   0  0  0  0  0  0  0  0  0  0  0  0
  142.8960   79.2570  222.5810 N   0  0  0  0  0  0  0  0  0  0  0  0
  141.9800   79.3280  221.4440 C   0  0  0  0  0  0  0  0  0  0  0  0
  140.1400   77.0200  222.4670 C   0  0  0  0  0  0  0  0  0  0  0  0
  138.4700   75.2430  221.8160 C   0  0  0  0  0  0  0  0  0  0  0  0
  137.2290   75.8780  221.9580 C   0  0  0  0  0  0  0  0  0  0  0  0
  136.1050   75.1000  222.2710 C   0  0  0  0  0  0  0  0  0  0  0  0
  136.2340   73.7110  222.4530 C   0  0  0  0  0  0  0  0  0  0  0  0
  137.4850   73.0930  222.3140 C   0  0  0  0  0  0  0  0  0  0  0  0
  138.5880   73.8850  221.9710 C   0  0  0  0  0  0  0  0  0  0  0  0
  141.0146   72.8001  224.7222 H   0  0  0  0  0  0  0  0  0  0  0  0
  140.1748   69.2918  228.3658 H   0  0  0  0  0  0  0  0  0  0  0  0
  139.3148   67.4087  226.9557 H   0  0  0  0  0  0  0  0  0  0  0  0
  139.1085   67.6887  224.4587 H   0  0  0  0  0  0  0  0  0  0  0  0
  139.5310   69.4710  222.4330 H   0  0  0  0  0  0  0  0  0  0  0  0
  141.4265   74.7638  222.5673 H   0  0  0  0  0  0  0  0  0  0  0  0
  141.4600   74.5444  220.8116 H   0  0  0  0  0  0  0  0  0  0  0  0
  140.8597   76.3972  219.7001 H   0  0  0  0  0  0  0  0  0  0  0  0
  139.1630   75.9921  219.4410 H   0  0  0  0  0  0  0  0  0  0  0  0
  140.1436   78.5898  219.7486 H   0  0  0  0  0  0  0  0  0  0  0  0
  138.4491   78.1310  220.0801 H   0  0  0  0  0  0  0  0  0  0  0  0
  140.0068   80.2421  221.4724 H   0  0  0  0  0  0  0  0  0  0  0  0
  140.1986   80.6988  223.7525 H   0  0  0  0  0  0  0  0  0  0  0  0
  140.3321   78.9814  224.1364 H   0  0  0  0  0  0  0  0  0  0  0  0
  142.4875   81.0256  223.6490 H   0  0  0  0  0  0  0  0  0  0  0  0
  142.5542   79.5514  224.6468 H   0  0  0  0  0  0  0  0  0  0  0  0
  143.7840   79.7570  222.3410 H   0  0  0  0  0  0  0  0  0  0  0  0
  142.2173   80.2053  220.8243 H   0  0  0  0  0  0  0  0  0  0  0  0
  142.0713   78.4300  220.8153 H   0  0  0  0  0  0  0  0  0  0  0  0
  141.2222   77.0610  222.6600 H   0  0  0  0  0  0  0  0  0  0  0  0
  139.6281   76.8974  223.4329 H   0  0  0  0  0  0  0  0  0  0  0  0
  137.1382   76.9663  221.8264 H   0  0  0  0  0  0  0  0  0  0  0  0
  135.1194   75.5773  222.3745 H   0  0  0  0  0  0  0  0  0  0  0  0
  135.3498   73.1072  222.7054 H   0  0  0  0  0  0  0  0  0  0  0  0
  137.5976   72.0101  222.4709 H   0  0  0  0  0  0  0  0  0  0  0  0
  1  2  2  0
  2  3  1  0
  3  4  2  0
  4  5  1  0
  5  6  2  0
  6  7  1  0
  6  8  1  0
  8  9  2  0
  9 10  1  0
 10 11  2  0
 11 12  1  0
  2 13  1  0
 13 14  1  0
 15 14  1  6
 15 16  1  0
 16 17  1  0
 17 18  1  0
 18 19  1  0
 19 20  1  0
 20 21  1  0
 21 22  1  0
 22 23  1  0
 18 24  1  0
 15 25  1  0
 25 26  2  0
 26 27  1  0
 27 28  2  0
 28 29  1  0
 29 30  2  0
 12  3  1  0
 30 13  1  0
 11  5  1  0
 24 15  1  0
 30 25  1  0
 23 19  1  0
  4 31  1  0
  8 32  1  0
  9 33  1  0
 10 34  1  0
 12 35  1  0
 14 36  1  0
 14 37  1  0
 16 38  1  0
 16 39  1  0
 17 40  1  0
 17 41  1  0
 19 42  1  6
 20 43  1  0
 20 44  1  0
 21 45  1  0
 21 46  1  0
 22 47  1  0
 23 48  1  0
 23 49  1  0
 24 50  1  0
 24 51  1  0
 26 52  1  0
 27 53  1  0
 28 54  1  0
 29 55  1  0
M  END
>  <UniqueID>  (15) 
161

>  <SMILES>  (15) 
O=C(c1cc2c(Cl)cccc2[nH]1)N1C[C@@]2(CCN([C@H]3CCNC3)C2)c2ccccc21

>  <Energy>  (15) 
121.21411238253026

>  <Genealogy>  (15) 
O=C(c1cc2c(Cl)cccc2[nH]1)N1C[C@@]2(CCN([C@H]3CCNC3)C2)c2ccccc21 (chirality)
O=C(c1cc2c(Cl)cccc2[nH]1)N1C[C@@]2(CCN([C@H]3CCNC3)C2)c2ccccc21 (3D coordinates assigned)
O=C(c1cc2c(Cl)cccc2[nH]1)N1C[C@@]2(CCN([C@H]3CCNC3)C2)c2ccccc21 (nonaromatic ring conformer: 121.21411238253026 kcal/mol)

>  <smiles>  (15) 
O=C(c1cc2c(Cl)cccc2[nH]1)N1C[C@@]2(CCN(C3CCNC3)C2)c2ccccc21

>  <score_type>  (15) 
oracle

>  <origin>  (15) 
autodockgpu

>  <m_score__min__energy>  (15) 
-8.7400000000000002

>  <m_primary>  (15) 
energy

>  <meeko>  (15) 
{"free_energy": -8.73, "intermolecular_energy": -9.62, "internal_energy": -1.26, "cluster_size": 19, "cluster_id": 1, "rank_in_cluster": 13}

>  <energy>  (15) 
-8.72

>  <cluster_rmsd>  (15) 
0.06

>  <rmsd>  (15) 
271.81

>  <cluster>  (15) 
1

$$$$
KZWACXAMTSGJSU-FYSMJZIKNA-N
     RDKit          3D

 55 60  0  0  0  0  0  0  0  0999 V2000
  141.0830   71.6350  220.9900 O   0  0  0  0  0  0  0  0  0  0  0  0
  140.4940   72.1630  221.9710 C   0  0  0  0  0  0  0  0  0  0  0  0
  140.3060   71.3840  223.2090 C   0  0  0  0  0  0  0  0  0  0  0  0
  140.6390   71.8230  224.4880 C   0  0  0  0  0  0  0  0  0  0  0  0
  140.3140   70.7750  225.3230 C   0  0  0  0  0  0  0  0  0  0  0  0
  140.4250   70.6380  226.7080 C   0  0  0  0  0  0  0  0  0  0  0  0
  141.0600   71.9310  227.7120 Cl  0  0  0  0  0  0  0  0  0  0  0  0
  140.0080   69.4220  227.2830 C   0  0  0  0  0  0  0  0  0  0  0  0
  139.4980   68.3840  226.4710 C   0  0  0  0  0  0  0  0  0  0  0  0
  139.4000   68.5510  225.0780 C   0  0  0  0  0  0  0  0  0  0  0  0
  139.8190   69.7650  224.5370 C   0  0  0  0  0  0  0  0  0  0  0  0
  139.8120   70.1230  223.2430 N   0  0  0  0  0  0  0  0  0  0  0  0
  139.9740   73.4940  221.8470 N   0  0  0  0  0  0  0  0  0  0  0  0
  140.8100   74.6830  221.6900 C   0  0  0  0  0  0  0  0  0  0  0  0
  139.8180   75.8800  221.5190 C   0  0  2  0  0  0  0  0  0  0  0  0
  139.8530   76.4970  220.1240 C   0  0  0  0  0  0  0  0  0  0  0  0
  139.4670   77.9540  220.3310 C   0  0  0  0  0  0  0  0  0  0  0  0
  139.6540   78.2810  221.7570 N   0  0  0  0  0  0  0  0  0  0  0  0
  140.4880   79.4960  221.9650 C   0  0  1  0  0  0  0  0  0  0  0  0
  140.7120   79.7950  223.4450 C   0  0  0  0  0  0  0  0  0  0  0  0
  142.2100   80.0110  223.5820 C   0  0  0  0  0  0  0  0  0  0  0  0
  142.8520   79.3490  222.4510 N   0  0  0  0  0  0  0  0  0  0  0  0
  141.8950   79.4170  221.3490 C   0  0  0  0  0  0  0  0  0  0  0  0
  140.1130   77.0610  222.4480 C   0  0  0  0  0  0  0  0  0  0  0  0
  138.4790   75.2470  221.8060 C   0  0  0  0  0  0  0  0  0  0  0  0
  137.2260   75.8630  221.9320 C   0  0  0  0  0  0  0  0  0  0  0  0
  136.1140   75.0680  222.2460 C   0  0  0  0  0  0  0  0  0  0  0  0
  136.2660   73.6840  222.4440 C   0  0  0  0  0  0  0  0  0  0  0  0
  137.5280   73.0870  222.3210 C   0  0  0  0  0  0  0  0  0  0  0  0
  138.6200   73.8940  221.9760 C   0  0  0  0  0  0  0  0  0  0  0  0
  141.0684   72.7954  224.7709 H   0  0  0  0  0  0  0  0  0  0  0  0
  140.0797   69.2792  228.3713 H   0  0  0  0  0  0  0  0  0  0  0  0
  139.1754   67.4387  226.9317 H   0  0  0  0  0  0  0  0  0  0  0  0
  139.0054   67.7494  224.4363 H   0  0  0  0  0  0  0  0  0  0  0  0
  139.5050   69.5380  222.4340 H   0  0  0  0  0  0  0  0  0  0  0  0
  141.4383   74.8301  222.5808 H   0  0  0  0  0  0  0  0  0  0  0  0
  141.4873   74.5915  220.8281 H   0  0  0  0  0  0  0  0  0  0  0  0
  140.8620   76.4214  219.6925 H   0  0  0  0  0  0  0  0  0  0  0  0
  139.1744   75.9837  219.4269 H   0  0  0  0  0  0  0  0  0  0  0  0
  140.1077   78.6005  219.7134 H   0  0  0  0  0  0  0  0  0  0  0  0
  138.4191   78.1153  220.0379 H   0  0  0  0  0  0  0  0  0  0  0  0
  139.9026   80.2807  221.4636 H   0  0  0  0  0  0  0  0  0  0  0  0
  140.1623   80.6997  223.7439 H   0  0  0  0  0  0  0  0  0  0  0  0
  140.3521   78.9796  224.0897 H   0  0  0  0  0  0  0  0  0  0  0  0
  142.4376   81.0871  223.5664 H   0  0  0  0  0  0  0  0  0  0  0  0
  142.5765   79.5973  224.5331 H   0  0  0  0  0  0  0  0  0  0  0  0
  143.7180   79.8760  222.1900 H   0  0  0  0  0  0  0  0  0  0  0  0
  142.0885   80.3109  220.7378 H   0  0  0  0  0  0  0  0  0  0  0  0
  141.9859   78.5328  220.7010 H   0  0  0  0  0  0  0  0  0  0  0  0
  141.1930   77.1238  222.6473 H   0  0  0  0  0  0  0  0  0  0  0  0
  139.5975   76.9394  223.4121 H   0  0  0  0  0  0  0  0  0  0  0  0
  137.1171   76.9480  221.7875 H   0  0  0  0  0  0  0  0  0  0  0  0
  135.1193   75.5287  222.3377 H   0  0  0  0  0  0  0  0  0  0  0  0
  135.3907   73.0675  222.6965 H   0  0  0  0  0  0  0  0  0  0  0  0
  137.6583   72.0082  222.4916 H   0  0  0  0  0  0  0  0  0  0  0  0
  1  2  2  0
  2  3  1  0
  3  4  2  0
  4  5  1  0
  5  6  2  0
  6  7  1  0
  6  8  1  0
  8  9  2  0
  9 10  1  0
 10 11  2  0
 11 12  1  0
  2 13  1  0
 13 14  1  0
 15 14  1  6
 15 16  1  0
 16 17  1  0
 17 18  1  0
 18 19  1  0
 19 20  1  0
 20 21  1  0
 21 22  1  0
 22 23  1  0
 18 24  1  0
 15 25  1  0
 25 26  2  0
 26 27  1  0
 27 28  2  0
 28 29  1  0
 29 30  2  0
 12  3  1  0
 30 13  1  0
 11  5  1  0
 24 15  1  0
 30 25  1  0
 23 19  1  0
  4 31  1  0
  8 32  1  0
  9 33  1  0
 10 34  1  0
 12 35  1  0
 14 36  1  0
 14 37  1  0
 16 38  1  0
 16 39  1  0
 17 40  1  0
 17 41  1  0
 19 42  1  6
 20 43  1  0
 20 44  1  0
 21 45  1  0
 21 46  1  0
 22 47  1  0
 23 48  1  0
 23 49  1  0
 24 50  1  0
 24 51  1  0
 26 52  1  0
 27 53  1  0
 28 54  1  0
 29 55  1  0
M  END
>  <UniqueID>  (16) 
161

>  <SMILES>  (16) 
O=C(c1cc2c(Cl)cccc2[nH]1)N1C[C@@]2(CCN([C@H]3CCNC3)C2)c2ccccc21

>  <Energy>  (16) 
121.21411238253026

>  <Genealogy>  (16) 
O=C(c1cc2c(Cl)cccc2[nH]1)N1C[C@@]2(CCN([C@H]3CCNC3)C2)c2ccccc21 (chirality)
O=C(c1cc2c(Cl)cccc2[nH]1)N1C[C@@]2(CCN([C@H]3CCNC3)C2)c2ccccc21 (3D coordinates assigned)
O=C(c1cc2c(Cl)cccc2[nH]1)N1C[C@@]2(CCN([C@H]3CCNC3)C2)c2ccccc21 (nonaromatic ring conformer: 121.21411238253026 kcal/mol)

>  <smiles>  (16) 
O=C(c1cc2c(Cl)cccc2[nH]1)N1C[C@@]2(CCN(C3CCNC3)C2)c2ccccc21

>  <score_type>  (16) 
oracle

>  <origin>  (16) 
autodockgpu

>  <m_score__min__energy>  (16) 
-8.7400000000000002

>  <m_primary>  (16) 
energy

>  <meeko>  (16) 
{"free_energy": -8.72, "intermolecular_energy": -9.61, "internal_energy": -1.25, "cluster_size": 19, "cluster_id": 1, "rank_in_cluster": 16}

>  <energy>  (16) 
-8.72

>  <cluster_rmsd>  (16) 
0.07

>  <rmsd>  (16) 
271.8

>  <cluster>  (16) 
1

$$$$
KZWACXAMTSGJSU-FYSMJZIKNA-N
     RDKit          3D

 55 60  0  0  0  0  0  0  0  0999 V2000
  141.0320   71.5840  220.9610 O   0  0  0  0  0  0  0  0  0  0  0  0
  140.4690   72.1200  221.9530 C   0  0  0  0  0  0  0  0  0  0  0  0
  140.3040   71.3480  223.1980 C   0  0  0  0  0  0  0  0  0  0  0  0
  140.6390   71.8030  224.4710 C   0  0  0  0  0  0  0  0  0  0  0  0
  140.3400   70.7550  225.3170 C   0  0  0  0  0  0  0  0  0  0  0  0
  140.4640   70.6320  226.7020 C   0  0  0  0  0  0  0  0  0  0  0  0
  141.0820   71.9440  227.6910 Cl  0  0  0  0  0  0  0  0  0  0  0  0
  140.0740   69.4130  227.2890 C   0  0  0  0  0  0  0  0  0  0  0  0
  139.5770   68.3590  226.4900 C   0  0  0  0  0  0  0  0  0  0  0  0
  139.4660   68.5130  225.0960 C   0  0  0  0  0  0  0  0  0  0  0  0
  139.8580   69.7310  224.5420 C   0  0  0  0  0  0  0  0  0  0  0  0
  139.8340   70.0780  223.2450 N   0  0  0  0  0  0  0  0  0  0  0  0
  139.9550   73.4540  221.8350 N   0  0  0  0  0  0  0  0  0  0  0  0
  140.7960   74.6390  221.6740 C   0  0  0  0  0  0  0  0  0  0  0  0
  139.8090   75.8420  221.5130 C   0  0  2  0  0  0  0  0  0  0  0  0
  139.8360   76.4600  220.1180 C   0  0  0  0  0  0  0  0  0  0  0  0
  139.4590   77.9190  220.3310 C   0  0  0  0  0  0  0  0  0  0  0  0
  139.6590   78.2430  221.7550 N   0  0  0  0  0  0  0  0  0  0  0  0
  140.5000   79.4530  221.9600 C   0  0  1  0  0  0  0  0  0  0  0  0
  140.6960   79.7770  223.4390 C   0  0  0  0  0  0  0  0  0  0  0  0
  142.1930   79.9810  223.6040 C   0  0  0  0  0  0  0  0  0  0  0  0
  142.8520   79.2920  222.5000 N   0  0  0  0  0  0  0  0  0  0  0  0
  141.9190   79.3490  221.3760 C   0  0  0  0  0  0  0  0  0  0  0  0
  140.1170   77.0190  222.4420 C   0  0  0  0  0  0  0  0  0  0  0  0
  138.4690   75.2150  221.8080 C   0  0  0  0  0  0  0  0  0  0  0  0
  137.2200   75.8360  221.9450 C   0  0  0  0  0  0  0  0  0  0  0  0
  136.1060   75.0470  222.2660 C   0  0  0  0  0  0  0  0  0  0  0  0
  136.2520   73.6610  222.4600 C   0  0  0  0  0  0  0  0  0  0  0  0
  137.5110   73.0580  222.3260 C   0  0  0  0  0  0  0  0  0  0  0  0
  138.6040   73.8610  221.9750 C   0  0  0  0  0  0  0  0  0  0  0  0
  141.0525   72.7854  224.7430 H   0  0  0  0  0  0  0  0  0  0  0  0
  140.1569   69.2803  228.3778 H   0  0  0  0  0  0  0  0  0  0  0  0
  139.2749   67.4119  226.9609 H   0  0  0  0  0  0  0  0  0  0  0  0
  139.0824   67.6988  224.4636 H   0  0  0  0  0  0  0  0  0  0  0  0
  139.5330   69.4800  222.4430 H   0  0  0  0  0  0  0  0  0  0  0  0
  141.4319   74.7810  222.5603 H   0  0  0  0  0  0  0  0  0  0  0  0
  141.4661   74.5456  220.8067 H   0  0  0  0  0  0  0  0  0  0  0  0
  140.8411   76.3798  219.6782 H   0  0  0  0  0  0  0  0  0  0  0  0
  139.1497   75.9510  219.4253 H   0  0  0  0  0  0  0  0  0  0  0  0
  140.0979   78.5633  219.7092 H   0  0  0  0  0  0  0  0  0  0  0  0
  138.4094   78.0857  220.0471 H   0  0  0  0  0  0  0  0  0  0  0  0
  139.9326   80.2342  221.4329 H   0  0  0  0  0  0  0  0  0  0  0  0
  140.1493   80.6923  223.7097 H   0  0  0  0  0  0  0  0  0  0  0  0
  140.3145   78.9770  224.0905 H   0  0  0  0  0  0  0  0  0  0  0  0
  142.4317   81.0543  223.5733 H   0  0  0  0  0  0  0  0  0  0  0  0
  142.5350   79.5817  224.5702 H   0  0  0  0  0  0  0  0  0  0  0  0
  143.7290   79.8050  222.2480 H   0  0  0  0  0  0  0  0  0  0  0  0
  142.1345   80.2296  220.7530 H   0  0  0  0  0  0  0  0  0  0  0  0
  142.0147   78.4522  220.7463 H   0  0  0  0  0  0  0  0  0  0  0  0
  141.1987   77.0758  222.6338 H   0  0  0  0  0  0  0  0  0  0  0  0
  139.6083   76.8985  223.4098 H   0  0  0  0  0  0  0  0  0  0  0  0
  137.1155   76.9218  221.8034 H   0  0  0  0  0  0  0  0  0  0  0  0
  135.1147   75.5132  222.3665 H   0  0  0  0  0  0  0  0  0  0  0  0
  135.3755   73.0483  222.7177 H   0  0  0  0  0  0  0  0  0  0  0  0
  137.6376   71.9781  222.4928 H   0  0  0  0  0  0  0  0  0  0  0  0
  1  2  2  0
  2  3  1  0
  3  4  2  0
  4  5  1  0
  5  6  2  0
  6  7  1  0
  6  8  1  0
  8  9  2  0
  9 10  1  0
 10 11  2  0
 11 12  1  0
  2 13  1  0
 13 14  1  0
 15 14  1  6
 15 16  1  0
 16 17  1  0
 17 18  1  0
 18 19  1  0
 19 20  1  0
 20 21  1  0
 21 22  1  0
 22 23  1  0
 18 24  1  0
 15 25  1  0
 25 26  2  0
 26 27  1  0
 27 28  2  0
 28 29  1  0
 29 30  2  0
 12  3  1  0
 30 13  1  0
 11  5  1  0
 24 15  1  0
 30 25  1  0
 23 19  1  0
  4 31  1  0
  8 32  1  0
  9 33  1  0
 10 34  1  0
 12 35  1  0
 14 36  1  0
 14 37  1  0
 16 38  1  0
 16 39  1  0
 17 40  1  0
 17 41  1  0
 19 42  1  6
 20 43  1  0
 20 44  1  0
 21 45  1  0
 21 46  1  0
 22 47  1  0
 23 48  1  0
 23 49  1  0
 24 50  1  0
 24 51  1  0
 26 52  1  0
 27 53  1  0
 28 54  1  0
 29 55  1  0
M  END
>  <UniqueID>  (17) 
161

>  <SMILES>  (17) 
O=C(c1cc2c(Cl)cccc2[nH]1)N1C[C@@]2(CCN([C@H]3CCNC3)C2)c2ccccc21

>  <Energy>  (17) 
121.21411238253026

>  <Genealogy>  (17) 
O=C(c1cc2c(Cl)cccc2[nH]1)N1C[C@@]2(CCN([C@H]3CCNC3)C2)c2ccccc21 (chirality)
O=C(c1cc2c(Cl)cccc2[nH]1)N1C[C@@]2(CCN([C@H]3CCNC3)C2)c2ccccc21 (3D coordinates assigned)
O=C(c1cc2c(Cl)cccc2[nH]1)N1C[C@@]2(CCN([C@H]3CCNC3)C2)c2ccccc21 (nonaromatic ring conformer: 121.21411238253026 kcal/mol)

>  <smiles>  (17) 
O=C(c1cc2c(Cl)cccc2[nH]1)N1C[C@@]2(CCN(C3CCNC3)C2)c2ccccc21

>  <score_type>  (17) 
oracle

>  <origin>  (17) 
autodockgpu

>  <m_score__min__energy>  (17) 
-8.7400000000000002

>  <m_primary>  (17) 
energy

>  <meeko>  (17) 
{"free_energy": -8.72, "intermolecular_energy": -9.62, "internal_energy": -1.26, "cluster_size": 19, "cluster_id": 1, "rank_in_cluster": 14}

>  <energy>  (17) 
-8.7

>  <cluster_rmsd>  (17) 
0.18

>  <rmsd>  (17) 
271.82

>  <cluster>  (17) 
1

$$$$
KZWACXAMTSGJSU-FYSMJZIKNA-N
     RDKit          3D

 55 60  0  0  0  0  0  0  0  0999 V2000
  141.0220   71.5630  220.9670 O   0  0  0  0  0  0  0  0  0  0  0  0
  140.4580   72.1000  221.9570 C   0  0  0  0  0  0  0  0  0  0  0  0
  140.2950   71.3300  223.2040 C   0  0  0  0  0  0  0  0  0  0  0  0
  140.6280   71.7900  224.4760 C   0  0  0  0  0  0  0  0  0  0  0  0
  140.3320   70.7430  225.3240 C   0  0  0  0  0  0  0  0  0  0  0  0
  140.4570   70.6230  226.7100 C   0  0  0  0  0  0  0  0  0  0  0  0
  141.0710   71.9390  227.6950 Cl  0  0  0  0  0  0  0  0  0  0  0  0
  140.0710   69.4040  227.3000 C   0  0  0  0  0  0  0  0  0  0  0  0
  139.5770   68.3480  226.5030 C   0  0  0  0  0  0  0  0  0  0  0  0
  139.4650   68.4980  225.1100 C   0  0  0  0  0  0  0  0  0  0  0  0
  139.8530   69.7150  224.5520 C   0  0  0  0  0  0  0  0  0  0  0  0
  139.8290   70.0590  223.2550 N   0  0  0  0  0  0  0  0  0  0  0  0
  139.9390   73.4310  221.8360 N   0  0  0  0  0  0  0  0  0  0  0  0
  140.7760   74.6190  221.6710 C   0  0  0  0  0  0  0  0  0  0  0  0
  139.7850   75.8180  221.5070 C   0  0  2  0  0  0  0  0  0  0  0  0
  139.8080   76.4320  220.1100 C   0  0  0  0  0  0  0  0  0  0  0  0
  139.4270   77.8910  220.3190 C   0  0  0  0  0  0  0  0  0  0  0  0
  139.6270   78.2190  221.7430 N   0  0  0  0  0  0  0  0  0  0  0  0
  140.4640   79.4320  221.9430 C   0  0  1  0  0  0  0  0  0  0  0  0
  140.6200   79.7900  223.4190 C   0  0  0  0  0  0  0  0  0  0  0  0
  142.1120   79.9960  223.6200 C   0  0  0  0  0  0  0  0  0  0  0  0
  142.8000   79.2810  222.5500 N   0  0  0  0  0  0  0  0  0  0  0  0
  141.8990   79.3140  221.4010 C   0  0  0  0  0  0  0  0  0  0  0  0
  140.0890   76.9990  222.4320 C   0  0  0  0  0  0  0  0  0  0  0  0
  138.4470   75.1880  221.8050 C   0  0  0  0  0  0  0  0  0  0  0  0
  137.1960   75.8050  221.9420 C   0  0  0  0  0  0  0  0  0  0  0  0
  136.0850   75.0130  222.2660 C   0  0  0  0  0  0  0  0  0  0  0  0
  136.2360   73.6280  222.4640 C   0  0  0  0  0  0  0  0  0  0  0  0
  137.4960   73.0290  222.3310 C   0  0  0  0  0  0  0  0  0  0  0  0
  138.5860   73.8340  221.9760 C   0  0  0  0  0  0  0  0  0  0  0  0
  141.0380   72.7745  224.7457 H   0  0  0  0  0  0  0  0  0  0  0  0
  140.1548   69.2734  228.3890 H   0  0  0  0  0  0  0  0  0  0  0  0
  139.2776   67.4010  226.9759 H   0  0  0  0  0  0  0  0  0  0  0  0
  139.0833   67.6810  224.4801 H   0  0  0  0  0  0  0  0  0  0  0  0
  139.5290   69.4590  222.4540 H   0  0  0  0  0  0  0  0  0  0  0  0
  141.4118   74.7658  222.5565 H   0  0  0  0  0  0  0  0  0  0  0  0
  141.4459   74.5254  220.8035 H   0  0  0  0  0  0  0  0  0  0  0  0
  140.8126   76.3534  219.6689 H   0  0  0  0  0  0  0  0  0  0  0  0
  139.1220   75.9189  219.4200 H   0  0  0  0  0  0  0  0  0  0  0  0
  140.0639   78.5354  219.6952 H   0  0  0  0  0  0  0  0  0  0  0  0
  138.3770   78.0544  220.0348 H   0  0  0  0  0  0  0  0  0  0  0  0
  139.9123   80.2007  221.3821 H   0  0  0  0  0  0  0  0  0  0  0  0
  140.0677   80.7120  223.6534 H   0  0  0  0  0  0  0  0  0  0  0  0
  140.2194   79.0058  224.0782 H   0  0  0  0  0  0  0  0  0  0  0  0
  142.3533   81.0681  223.5713 H   0  0  0  0  0  0  0  0  0  0  0  0
  142.4268   79.6184  224.6040 H   0  0  0  0  0  0  0  0  0  0  0  0
  143.6840   79.7880  222.3110 H   0  0  0  0  0  0  0  0  0  0  0  0
  142.1328   80.1805  220.7649 H   0  0  0  0  0  0  0  0  0  0  0  0
  142.0107   78.4033  220.7943 H   0  0  0  0  0  0  0  0  0  0  0  0
  141.1706   77.0601  222.6231 H   0  0  0  0  0  0  0  0  0  0  0  0
  139.5805   76.8794  223.4001 H   0  0  0  0  0  0  0  0  0  0  0  0
  137.0877   76.8902  221.7981 H   0  0  0  0  0  0  0  0  0  0  0  0
  135.0922   75.4760  222.3657 H   0  0  0  0  0  0  0  0  0  0  0  0
  135.3617   73.0132  222.7242 H   0  0  0  0  0  0  0  0  0  0  0  0
  137.6262   71.9501  222.5017 H   0  0  0  0  0  0  0  0  0  0  0  0
  1  2  2  0
  2  3  1  0
  3  4  2  0
  4  5  1  0
  5  6  2  0
  6  7  1  0
  6  8  1  0
  8  9  2  0
  9 10  1  0
 10 11  2  0
 11 12  1  0
  2 13  1  0
 13 14  1  0
 15 14  1  6
 15 16  1  0
 16 17  1  0
 17 18  1  0
 18 19  1  0
 19 20  1  0
 20 21  1  0
 21 22  1  0
 22 23  1  0
 18 24  1  0
 15 25  1  0
 25 26  2  0
 26 27  1  0
 27 28  2  0
 28 29  1  0
 29 30  2  0
 12  3  1  0
 30 13  1  0
 11  5  1  0
 24 15  1  0
 30 25  1  0
 23 19  1  0
  4 31  1  0
  8 32  1  0
  9 33  1  0
 10 34  1  0
 12 35  1  0
 14 36  1  0
 14 37  1  0
 16 38  1  0
 16 39  1  0
 17 40  1  0
 17 41  1  0
 19 42  1  6
 20 43  1  0
 20 44  1  0
 21 45  1  0
 21 46  1  0
 22 47  1  0
 23 48  1  0
 23 49  1  0
 24 50  1  0
 24 51  1  0
 26 52  1  0
 27 53  1  0
 28 54  1  0
 29 55  1  0
M  END
>  <UniqueID>  (18) 
161

>  <SMILES>  (18) 
O=C(c1cc2c(Cl)cccc2[nH]1)N1C[C@@]2(CCN([C@H]3CCNC3)C2)c2ccccc21

>  <Energy>  (18) 
121.21411238253026

>  <Genealogy>  (18) 
O=C(c1cc2c(Cl)cccc2[nH]1)N1C[C@@]2(CCN([C@H]3CCNC3)C2)c2ccccc21 (chirality)
O=C(c1cc2c(Cl)cccc2[nH]1)N1C[C@@]2(CCN([C@H]3CCNC3)C2)c2ccccc21 (3D coordinates assigned)
O=C(c1cc2c(Cl)cccc2[nH]1)N1C[C@@]2(CCN([C@H]3CCNC3)C2)c2ccccc21 (nonaromatic ring conformer: 121.21411238253026 kcal/mol)

>  <smiles>  (18) 
O=C(c1cc2c(Cl)cccc2[nH]1)N1C[C@@]2(CCN(C3CCNC3)C2)c2ccccc21

>  <score_type>  (18) 
oracle

>  <origin>  (18) 
autodockgpu

>  <m_score__min__energy>  (18) 
-8.7400000000000002

>  <m_primary>  (18) 
energy

>  <meeko>  (18) 
{"free_energy": -8.73, "intermolecular_energy": -9.63, "internal_energy": -1.25, "cluster_size": 19, "cluster_id": 1, "rank_in_cluster": 7}

>  <energy>  (18) 
-8.69

>  <cluster_rmsd>  (18) 
0.25

>  <rmsd>  (18) 
271.82

>  <cluster>  (18) 
1

$$$$
KZWACXAMTSGJSU-FYSMJZIKNA-N
     RDKit          3D

 55 60  0  0  0  0  0  0  0  0999 V2000
  140.9990   71.5540  220.9630 O   0  0  0  0  0  0  0  0  0  0  0  0
  140.4370   72.0910  221.9550 C   0  0  0  0  0  0  0  0  0  0  0  0
  140.2680   71.3180  223.1990 C   0  0  0  0  0  0  0  0  0  0  0  0
  140.6050   71.7710  224.4730 C   0  0  0  0  0  0  0  0  0  0  0  0
  140.3010   70.7230  225.3170 C   0  0  0  0  0  0  0  0  0  0  0  0
  140.4240   70.5980  226.7020 C   0  0  0  0  0  0  0  0  0  0  0  0
  141.0490   71.9060  227.6920 Cl  0  0  0  0  0  0  0  0  0  0  0  0
  140.0280   69.3800  227.2880 C   0  0  0  0  0  0  0  0  0  0  0  0
  139.5270   68.3300  226.4880 C   0  0  0  0  0  0  0  0  0  0  0  0
  139.4160   68.4860  225.0950 C   0  0  0  0  0  0  0  0  0  0  0  0
  139.8140   69.7020  224.5420 C   0  0  0  0  0  0  0  0  0  0  0  0
  139.7920   70.0510  223.2450 N   0  0  0  0  0  0  0  0  0  0  0  0
  139.9270   73.4260  221.8370 N   0  0  0  0  0  0  0  0  0  0  0  0
  140.7720   74.6090  221.6840 C   0  0  0  0  0  0  0  0  0  0  0  0
  139.7880   75.8150  221.5200 C   0  0  2  0  0  0  0  0  0  0  0  0
  139.8250   76.4370  220.1270 C   0  0  0  0  0  0  0  0  0  0  0  0
  139.4510   77.8960  220.3400 C   0  0  0  0  0  0  0  0  0  0  0  0
  139.6430   78.2160  221.7670 N   0  0  0  0  0  0  0  0  0  0  0  0
  140.4870   79.4230  221.9790 C   0  0  1  0  0  0  0  0  0  0  0  0
  140.6600   79.7550  223.4590 C   0  0  0  0  0  0  0  0  0  0  0  0
  142.1540   79.9530  223.6470 C   0  0  0  0  0  0  0  0  0  0  0  0
  142.8290   79.2550  222.5580 N   0  0  0  0  0  0  0  0  0  0  0  0
  141.9150   79.3100  221.4190 C   0  0  0  0  0  0  0  0  0  0  0  0
  140.0940   76.9900  222.4530 C   0  0  0  0  0  0  0  0  0  0  0  0
  138.4450   75.1910  221.8070 C   0  0  0  0  0  0  0  0  0  0  0  0
  137.1970   75.8150  221.9380 C   0  0  0  0  0  0  0  0  0  0  0  0
  136.0790   75.0280  222.2510 C   0  0  0  0  0  0  0  0  0  0  0  0
  136.2210   73.6420  222.4430 C   0  0  0  0  0  0  0  0  0  0  0  0
  137.4790   73.0360  222.3150 C   0  0  0  0  0  0  0  0  0  0  0  0
  138.5750   73.8360  221.9710 C   0  0  0  0  0  0  0  0  0  0  0  0
  141.0227   72.7512  224.7463 H   0  0  0  0  0  0  0  0  0  0  0  0
  140.1096   69.2458  228.3767 H   0  0  0  0  0  0  0  0  0  0  0  0
  139.2214   67.3834  226.9577 H   0  0  0  0  0  0  0  0  0  0  0  0
  139.0276   67.6745  224.4620 H   0  0  0  0  0  0  0  0  0  0  0  0
  139.4870   69.4550  222.4430 H   0  0  0  0  0  0  0  0  0  0  0  0
  141.4029   74.7473  222.5744 H   0  0  0  0  0  0  0  0  0  0  0  0
  141.4474   74.5162  220.8207 H   0  0  0  0  0  0  0  0  0  0  0  0
  140.8325   76.3551  219.6932 H   0  0  0  0  0  0  0  0  0  0  0  0
  139.1409   75.9316  219.4295 H   0  0  0  0  0  0  0  0  0  0  0  0
  140.0958   78.5397  219.7237 H   0  0  0  0  0  0  0  0  0  0  0  0
  138.4040   78.0668  220.0492 H   0  0  0  0  0  0  0  0  0  0  0  0
  139.9320   80.2033  221.4376 H   0  0  0  0  0  0  0  0  0  0  0  0
  140.1132   80.6744  223.7152 H   0  0  0  0  0  0  0  0  0  0  0  0
  140.2641   78.9608  224.1090 H   0  0  0  0  0  0  0  0  0  0  0  0
  142.3979   81.0251  223.6143 H   0  0  0  0  0  0  0  0  0  0  0  0
  142.4779   79.5571  224.6208 H   0  0  0  0  0  0  0  0  0  0  0  0
  143.7120   79.7630  222.3180 H   0  0  0  0  0  0  0  0  0  0  0  0
  142.1444   80.1864  220.7950 H   0  0  0  0  0  0  0  0  0  0  0  0
  142.0172   78.4094  220.7957 H   0  0  0  0  0  0  0  0  0  0  0  0
  141.1748   77.0437  222.6505 H   0  0  0  0  0  0  0  0  0  0  0  0
  139.5796   76.8688  223.4177 H   0  0  0  0  0  0  0  0  0  0  0  0
  137.0962   76.9014  221.7980 H   0  0  0  0  0  0  0  0  0  0  0  0
  135.0882   75.4962  222.3466 H   0  0  0  0  0  0  0  0  0  0  0  0
  135.3416   73.0309  222.6946 H   0  0  0  0  0  0  0  0  0  0  0  0
  137.6020   71.9556  222.4813 H   0  0  0  0  0  0  0  0  0  0  0  0
  1  2  2  0
  2  3  1  0
  3  4  2  0
  4  5  1  0
  5  6  2  0
  6  7  1  0
  6  8  1  0
  8  9  2  0
  9 10  1  0
 10 11  2  0
 11 12  1  0
  2 13  1  0
 13 14  1  0
 15 14  1  6
 15 16  1  0
 16 17  1  0
 17 18  1  0
 18 19  1  0
 19 20  1  0
 20 21  1  0
 21 22  1  0
 22 23  1  0
 18 24  1  0
 15 25  1  0
 25 26  2  0
 26 27  1  0
 27 28  2  0
 28 29  1  0
 29 30  2  0
 12  3  1  0
 30 13  1  0
 11  5  1  0
 24 15  1  0
 30 25  1  0
 23 19  1  0
  4 31  1  0
  8 32  1  0
  9 33  1  0
 10 34  1  0
 12 35  1  0
 14 36  1  0
 14 37  1  0
 16 38  1  0
 16 39  1  0
 17 40  1  0
 17 41  1  0
 19 42  1  6
 20 43  1  0
 20 44  1  0
 21 45  1  0
 21 46  1  0
 22 47  1  0
 23 48  1  0
 23 49  1  0
 24 50  1  0
 24 51  1  0
 26 52  1  0
 27 53  1  0
 28 54  1  0
 29 55  1  0
M  END
>  <UniqueID>  (19) 
161

>  <SMILES>  (19) 
O=C(c1cc2c(Cl)cccc2[nH]1)N1C[C@@]2(CCN([C@H]3CCNC3)C2)c2ccccc21

>  <Energy>  (19) 
121.21411238253026

>  <Genealogy>  (19) 
O=C(c1cc2c(Cl)cccc2[nH]1)N1C[C@@]2(CCN([C@H]3CCNC3)C2)c2ccccc21 (chirality)
O=C(c1cc2c(Cl)cccc2[nH]1)N1C[C@@]2(CCN([C@H]3CCNC3)C2)c2ccccc21 (3D coordinates assigned)
O=C(c1cc2c(Cl)cccc2[nH]1)N1C[C@@]2(CCN([C@H]3CCNC3)C2)c2ccccc21 (nonaromatic ring conformer: 121.21411238253026 kcal/mol)

>  <smiles>  (19) 
O=C(c1cc2c(Cl)cccc2[nH]1)N1C[C@@]2(CCN(C3CCNC3)C2)c2ccccc21

>  <score_type>  (19) 
oracle

>  <origin>  (19) 
autodockgpu

>  <m_score__min__energy>  (19) 
-8.7400000000000002

>  <m_primary>  (19) 
energy

>  <meeko>  (19) 
{"free_energy": -8.74, "intermolecular_energy": -9.63, "internal_energy": -1.25, "cluster_size": 19, "cluster_id": 1, "rank_in_cluster": 3}

>  <energy>  (19) 
-8.68

>  <cluster_rmsd>  (19) 
0.17

>  <rmsd>  (19) 
271.84

>  <cluster>  (19) 
1

$$$$
KZWACXAMTSGJSU-FYSMJZIKNA-N
     RDKit          3D

 55 60  0  0  0  0  0  0  0  0999 V2000
  141.0610   71.6980  220.9870 O   0  0  0  0  0  0  0  0  0  0  0  0
  140.4860   72.2150  221.9820 C   0  0  0  0  0  0  0  0  0  0  0  0
  140.3080   71.4190  223.2110 C   0  0  0  0  0  0  0  0  0  0  0  0
  140.6420   71.8450  224.4940 C   0  0  0  0  0  0  0  0  0  0  0  0
  140.3290   70.7840  225.3170 C   0  0  0  0  0  0  0  0  0  0  0  0
  140.4470   70.6310  226.7000 C   0  0  0  0  0  0  0  0  0  0  0  0
  141.0750   71.9160  227.7180 Cl  0  0  0  0  0  0  0  0  0  0  0  0
  140.0420   69.4050  227.2610 C   0  0  0  0  0  0  0  0  0  0  0  0
  139.5370   68.3730  226.4390 C   0  0  0  0  0  0  0  0  0  0  0  0
  139.4330   68.5560  225.0490 C   0  0  0  0  0  0  0  0  0  0  0  0
  139.8390   69.7800  224.5210 C   0  0  0  0  0  0  0  0  0  0  0  0
  139.8240   70.1540  223.2310 N   0  0  0  0  0  0  0  0  0  0  0  0
  139.9710   73.5490  221.8830 N   0  0  0  0  0  0  0  0  0  0  0  0
  140.8120   74.7420  221.7930 C   0  0  0  0  0  0  0  0  0  0  0  0
  139.8270   75.9450  221.6270 C   0  0  2  0  0  0  0  0  0  0  0  0
  139.9090   76.6060  220.2540 C   0  0  0  0  0  0  0  0  0  0  0  0
  139.5160   78.0570  220.4940 C   0  0  0  0  0  0  0  0  0  0  0  0
  139.6550   78.3380  221.9350 N   0  0  0  0  0  0  0  0  0  0  0  0
  140.4820   79.5440  222.2110 C   0  0  1  0  0  0  0  0  0  0  0  0
  140.8980   79.6360  223.6770 C   0  0  0  0  0  0  0  0  0  0  0  0
  142.3950   79.8940  223.6460 C   0  0  0  0  0  0  0  0  0  0  0  0
  142.8930   79.4290  222.3560 N   0  0  0  0  0  0  0  0  0  0  0  0
  141.7930   79.6140  221.4110 C   0  0  0  0  0  0  0  0  0  0  0  0
  140.0900   77.0950  222.6030 C   0  0  0  0  0  0  0  0  0  0  0  0
  138.4780   75.3050  221.8470 C   0  0  0  0  0  0  0  0  0  0  0  0
  137.2220   75.9180  221.9510 C   0  0  0  0  0  0  0  0  0  0  0  0
  136.0990   75.1150  222.2010 C   0  0  0  0  0  0  0  0  0  0  0  0
  136.2440   73.7250  222.3600 C   0  0  0  0  0  0  0  0  0  0  0  0
  137.5100   73.1300  222.2600 C   0  0  0  0  0  0  0  0  0  0  0  0
  138.6130   73.9470  221.9790 C   0  0  0  0  0  0  0  0  0  0  0  0
  141.0642   72.8175  224.7874 H   0  0  0  0  0  0  0  0  0  0  0  0
  140.1193   69.2495  228.3472 H   0  0  0  0  0  0  0  0  0  0  0  0
  139.2231   67.4199  226.8896 H   0  0  0  0  0  0  0  0  0  0  0  0
  139.0436   67.7585  224.3990 H   0  0  0  0  0  0  0  0  0  0  0  0
  139.5200   69.5760  222.4160 H   0  0  0  0  0  0  0  0  0  0  0  0
  141.4095   74.8596  222.7090 H   0  0  0  0  0  0  0  0  0  0  0  0
  141.5181   74.6775  220.9521 H   0  0  0  0  0  0  0  0  0  0  0  0
  140.9320   76.5431  219.8546 H   0  0  0  0  0  0  0  0  0  0  0  0
  139.2542   76.1158  219.5185 H   0  0  0  0  0  0  0  0  0  0  0  0
  140.1772   78.7221  219.9191 H   0  0  0  0  0  0  0  0  0  0  0  0
  138.4786   78.2288  220.1710 H   0  0  0  0  0  0  0  0  0  0  0  0
  139.8163   80.3676  221.9136 H   0  0  0  0  0  0  0  0  0  0  0  0
  140.3734   80.4638  224.1765 H   0  0  0  0  0  0  0  0  0  0  0  0
  140.6479   78.7219  224.2354 H   0  0  0  0  0  0  0  0  0  0  0  0
  142.5932   80.9700  223.7595 H   0  0  0  0  0  0  0  0  0  0  0  0
  142.8968   79.3642  224.4691 H   0  0  0  0  0  0  0  0  0  0  0  0
  143.7030   80.0250  222.0640 H   0  0  0  0  0  0  0  0  0  0  0  0
  141.8811   80.5938  220.9188 H   0  0  0  0  0  0  0  0  0  0  0  0
  141.8149   78.8367  220.6330 H   0  0  0  0  0  0  0  0  0  0  0  0
  141.1624   77.1500  222.8415 H   0  0  0  0  0  0  0  0  0  0  0  0
  139.5416   76.9433  223.5444 H   0  0  0  0  0  0  0  0  0  0  0  0
  137.1187   77.0074  221.8388 H   0  0  0  0  0  0  0  0  0  0  0  0
  135.1019   75.5740  222.2729 H   0  0  0  0  0  0  0  0  0  0  0  0
  135.3606   73.1020  222.5637 H   0  0  0  0  0  0  0  0  0  0  0  0
  137.6343   72.0459  222.3991 H   0  0  0  0  0  0  0  0  0  0  0  0
  1  2  2  0
  2  3  1  0
  3  4  2  0
  4  5  1  0
  5  6  2  0
  6  7  1  0
  6  8  1  0
  8  9  2  0
  9 10  1  0
 10 11  2  0
 11 12  1  0
  2 13  1  0
 13 14  1  0
 15 14  1  6
 15 16  1  0
 16 17  1  0
 17 18  1  0
 18 19  1  0
 19 20  1  0
 20 21  1  0
 21 22  1  0
 22 23  1  0
 18 24  1  0
 15 25  1  0
 25 26  2  0
 26 27  1  0
 27 28  2  0
 28 29  1  0
 29 30  2  0
 12  3  1  0
 30 13  1  0
 11  5  1  0
 24 15  1  0
 30 25  1  0
 23 19  1  0
  4 31  1  0
  8 32  1  0
  9 33  1  0
 10 34  1  0
 12 35  1  0
 14 36  1  0
 14 37  1  0
 16 38  1  0
 16 39  1  0
 17 40  1  0
 17 41  1  0
 19 42  1  6
 20 43  1  0
 20 44  1  0
 21 45  1  0
 21 46  1  0
 22 47  1  0
 23 48  1  0
 23 49  1  0
 24 50  1  0
 24 51  1  0
 26 52  1  0
 27 53  1  0
 28 54  1  0
 29 55  1  0
M  END
>  <UniqueID>  (20) 
161

>  <SMILES>  (20) 
O=C(c1cc2c(Cl)cccc2[nH]1)N1C[C@@]2(CCN([C@H]3CCNC3)C2)c2ccccc21

>  <Energy>  (20) 
121.21411238253026

>  <Genealogy>  (20) 
O=C(c1cc2c(Cl)cccc2[nH]1)N1C[C@@]2(CCN([C@H]3CCNC3)C2)c2ccccc21 (chirality)
O=C(c1cc2c(Cl)cccc2[nH]1)N1C[C@@]2(CCN([C@H]3CCNC3)C2)c2ccccc21 (3D coordinates assigned)
O=C(c1cc2c(Cl)cccc2[nH]1)N1C[C@@]2(CCN([C@H]3CCNC3)C2)c2ccccc21 (nonaromatic ring conformer: 121.21411238253026 kcal/mol)

>  <smiles>  (20) 
O=C(c1cc2c(Cl)cccc2[nH]1)N1C[C@@]2(CCN(C3CCNC3)C2)c2ccccc21

>  <score_type>  (20) 
oracle

>  <origin>  (20) 
autodockgpu

>  <m_score__min__energy>  (20) 
-8.7400000000000002

>  <m_primary>  (20) 
energy

>  <meeko>  (20) 
{"free_energy": -8.68, "intermolecular_energy": -9.57, "internal_energy": -1.26, "cluster_size": 19, "cluster_id": 1, "rank_in_cluster": 19}

>  <energy>  (20) 
-8.06

>  <cluster_rmsd>  (20) 
0.0

>  <rmsd>  (20) 
271.72

>  <cluster>  (20) 
2

$$$$
KZWACXAMTSGJSU-CZASUABUNA-O
     RDKit          3D

 56 61  0  0  0  0  0  0  0  0999 V2000
  138.4120   77.2270  222.6080 O   0  0  0  0  0  0  0  0  0  0  0  0
  139.5050   77.1740  221.9830 C   0  0  0  0  0  0  0  0  0  0  0  0
  140.1410   75.8640  221.7500 C   0  0  0  0  0  0  0  0  0  0  0  0
  141.3550   75.6590  221.0970 C   0  0  0  0  0  0  0  0  0  0  0  0
  141.5580   74.2960  221.1380 C   0  0  0  0  0  0  0  0  0  0  0  0
  142.6000   73.5100  220.6400 C   0  0  0  0  0  0  0  0  0  0  0  0
  143.9600   74.2220  219.7860 Cl  0  0  0  0  0  0  0  0  0  0  0  0
  142.5290   72.1200  220.8440 C   0  0  0  0  0  0  0  0  0  0  0  0
  141.4320   71.5530  221.5310 C   0  0  0  0  0  0  0  0  0  0  0  0
  140.3970   72.3710  222.0210 C   0  0  0  0  0  0  0  0  0  0  0  0
  140.4940   73.7450  221.8040 C   0  0  0  0  0  0  0  0  0  0  0  0
  139.6240   74.6920  222.1880 N   0  0  0  0  0  0  0  0  0  0  0  0
  140.1330   78.3920  221.5610 N   0  0  0  0  0  0  0  0  0  0  0  0
  140.0090   78.9480  220.2160 C   0  0  0  0  0  0  0  0  0  0  0  0
  140.7690   80.3210  220.2540 C   0  0  2  0  0  0  0  0  0  0  0  0
  139.8390   81.4970  219.9990 C   0  0  0  0  0  0  0  0  0  0  0  0
  139.8630   81.6280  218.4900 C   0  0  0  0  0  0  0  0  0  0  0  0
  141.2060   81.2210  218.0330 N   0  0  0  0  0  0  0  0  0  0  0  0
  141.1610   80.4620  216.7590 C   0  0  2  0  0  0  0  0  0  0  0  0
  141.5750   79.0100  216.9510 C   0  0  0  0  0  0  0  0  0  0  0  0
  142.2460   78.6120  215.6430 C   0  0  0  0  0  0  0  0  0  0  0  0
  142.5560   79.8380  214.8980 N   0  0  0  0  0  0  0  0  0  0  0  0
  142.1890   80.9700  215.7500 C   0  0  0  0  0  0  0  0  0  0  0  0
  141.8140   80.4470  219.1350 C   0  0  0  0  0  0  0  0  0  0  0  0
  141.3600   80.3430  221.6360 C   0  0  0  0  0  0  0  0  0  0  0  0
  142.2000   81.3040  222.2140 C   0  0  0  0  0  0  0  0  0  0  0  0
  142.6660   81.0930  223.5210 C   0  0  0  0  0  0  0  0  0  0  0  0
  142.2980   79.9330  224.2250 C   0  0  0  0  0  0  0  0  0  0  0  0
  141.4530   78.9830  223.6310 C   0  0  0  0  0  0  0  0  0  0  0  0
  140.9770   79.2290  222.3380 C   0  0  0  0  0  0  0  0  0  0  0  0
  142.0094   76.4198  220.6465 H   0  0  0  0  0  0  0  0  0  0  0  0
  143.3324   71.4704  220.4664 H   0  0  0  0  0  0  0  0  0  0  0  0
  141.3868   70.4646  221.6839 H   0  0  0  0  0  0  0  0  0  0  0  0
  139.5390   71.9403  222.5580 H   0  0  0  0  0  0  0  0  0  0  0  0
  138.7320   74.5500  222.7140 H   0  0  0  0  0  0  0  0  0  0  0  0
  140.4698   78.2746  219.4783 H   0  0  0  0  0  0  0  0  0  0  0  0
  138.9561   79.0740  219.9236 H   0  0  0  0  0  0  0  0  0  0  0  0
  138.8226   81.2833  220.3614 H   0  0  0  0  0  0  0  0  0  0  0  0
  140.1483   82.4155  220.5193 H   0  0  0  0  0  0  0  0  0  0  0  0
  139.0997   80.9738  218.0436 H   0  0  0  0  0  0  0  0  0  0  0  0
  139.6465   82.6629  218.1865 H   0  0  0  0  0  0  0  0  0  0  0  0
  140.1231   80.5789  216.4140 H   0  0  0  0  0  0  0  0  0  0  0  0
  142.2799   78.9173  217.7904 H   0  0  0  0  0  0  0  0  0  0  0  0
  140.7161   78.3644  217.1865 H   0  0  0  0  0  0  0  0  0  0  0  0
  143.1733   78.0587  215.8529 H   0  0  0  0  0  0  0  0  0  0  0  0
  141.5786   77.9663  215.0534 H   0  0  0  0  0  0  0  0  0  0  0  0
  141.9960   79.8670  214.0140 H   0  0  0  0  0  0  0  0  0  0  0  0
  143.5750   79.8770  214.6610 H   0  0  0  0  0  0  0  0  0  0  0  0
  143.0775   81.3494  216.2759 H   0  0  0  0  0  0  0  0  0  0  0  0
  141.7728   81.7919  215.1490 H   0  0  0  0  0  0  0  0  0  0  0  0
  142.1003   79.4473  218.7763 H   0  0  0  0  0  0  0  0  0  0  0  0
  142.7163   80.9538  219.5078 H   0  0  0  0  0  0  0  0  0  0  0  0
  142.4885   82.2060  221.6545 H   0  0  0  0  0  0  0  0  0  0  0  0
  143.3214   81.8378  223.9962 H   0  0  0  0  0  0  0  0  0  0  0  0
  142.6740   79.7694  225.2457 H   0  0  0  0  0  0  0  0  0  0  0  0
  141.1712   78.0660  224.1693 H   0  0  0  0  0  0  0  0  0  0  0  0
  1  2  2  0
  2  3  1  0
  3  4  2  0
  4  5  1  0
  5  6  2  0
  6  7  1  0
  6  8  1  0
  8  9  2  0
  9 10  1  0
 10 11  2  0
 11 12  1  0
  2 13  1  0
 13 14  1  0
 15 14  1  6
 15 16  1  0
 16 17  1  0
 17 18  1  0
 18 19  1  0
 19 20  1  0
 20 21  1  0
 21 22  1  0
 22 23  1  0
 18 24  1  0
 15 25  1  0
 25 26  2  0
 26 27  1  0
 27 28  2  0
 28 29  1  0
 29 30  2  0
 12  3  1  0
 30 13  1  0
 11  5  1  0
 24 15  1  0
 30 25  1  0
 23 19  1  0
  4 31  1  0
  8 32  1  0
  9 33  1  0
 10 34  1  0
 12 35  1  0
 14 36  1  0
 14 37  1  0
 16 38  1  0
 16 39  1  0
 17 40  1  0
 17 41  1  0
 19 42  1  6
 20 43  1  0
 20 44  1  0
 21 45  1  0
 21 46  1  0
 22 47  1  0
 22 48  1  0
 23 49  1  0
 23 50  1  0
 24 51  1  0
 24 52  1  0
 26 53  1  0
 27 54  1  0
 28 55  1  0
 29 56  1  0
M  CHG  1  22   1
M  END
>  <UniqueID>  (21) 
162

>  <SMILES>  (21) 
O=C(c1cc2c(Cl)cccc2[nH]1)N1C[C@@]2(CCN([C@@H]3CC[NH2+]C3)C2)c2ccccc21

>  <Energy>  (21) 
122.5250531362307

>  <Genealogy>  (21) 
O=C(c1cc2c(Cl)cccc2[nH]1)N1C[C@@]2(CCN(C3CC[NH2+]C3)C2)c2ccccc21 (protonated)
O=C(c1cc2c(Cl)cccc2[nH]1)N1C[C@@]2(CCN([C@@H]3CC[NH2+]C3)C2)c2ccccc21 (chirality)
O=C(c1cc2c(Cl)cccc2[nH]1)N1C[C@@]2(CCN([C@@H]3CC[NH2+]C3)C2)c2ccccc21 (3D coordinates assigned)
O=C(c1cc2c(Cl)cccc2[nH]1)N1C[C@@]2(CCN([C@@H]3CC[NH2+]C3)C2)c2ccccc21 (nonaromatic ring conformer: 122.5250531362307 kcal/mol)

>  <smiles>  (21) 
O=C(c1cc2c(Cl)cccc2[nH]1)N1C[C@@]2(CCN(C3CCNC3)C2)c2ccccc21

>  <score_type>  (21) 
oracle

>  <origin>  (21) 
autodockgpu

>  <m_score__min__energy>  (21) 
-8.9299999999999997

>  <m_primary>  (21) 
energy

>  <meeko>  (21) 
{"free_energy": -8.55, "intermolecular_energy": -9.44, "internal_energy": -1.13, "cluster_size": 13, "cluster_id": 2, "rank_in_cluster": 12}

>  <energy>  (21) 
-8.93

>  <cluster_rmsd>  (21) 
0.0

>  <rmsd>  (21) 
271.55

>  <cluster>  (21) 
1

$$$$
KZWACXAMTSGJSU-CZASUABUNA-O
     RDKit          3D

 56 61  0  0  0  0  0  0  0  0999 V2000
  140.3620   70.8510  221.3200 O   0  0  0  0  0  0  0  0  0  0  0  0
  139.8950   71.4310  222.3360 C   0  0  0  0  0  0  0  0  0  0  0  0
  139.9810   70.7690  223.6510 C   0  0  0  0  0  0  0  0  0  0  0  0
  140.3660   71.3830  224.8420 C   0  0  0  0  0  0  0  0  0  0  0  0
  140.2750   70.3940  225.7990 C   0  0  0  0  0  0  0  0  0  0  0  0
  140.5390   70.4210  227.1710 C   0  0  0  0  0  0  0  0  0  0  0  0
  141.0970   71.8820  227.9700 Cl  0  0  0  0  0  0  0  0  0  0  0  0
  140.3460   69.2330  227.8990 C   0  0  0  0  0  0  0  0  0  0  0  0
  139.8990   68.0600  227.2500 C   0  0  0  0  0  0  0  0  0  0  0  0
  139.6400   68.0650  225.8670 C   0  0  0  0  0  0  0  0  0  0  0  0
  139.8410   69.2560  225.1710 C   0  0  0  0  0  0  0  0  0  0  0  0
  139.6530   69.4720  223.8590 N   0  0  0  0  0  0  0  0  0  0  0  0
  139.2390   72.6970  222.1830 N   0  0  0  0  0  0  0  0  0  0  0  0
  139.9380   73.9460  221.8880 C   0  0  0  0  0  0  0  0  0  0  0  0
  138.8150   75.0280  221.7090 C   0  0  2  0  0  0  0  0  0  0  0  0
  138.7920   75.6000  220.3000 C   0  0  0  0  0  0  0  0  0  0  0  0
  139.7670   76.7560  220.3870 C   0  0  0  0  0  0  0  0  0  0  0  0
  139.6800   77.3040  221.7550 N   0  0  0  0  0  0  0  0  0  0  0  0
  141.0030   77.7250  222.2770 C   0  0  2  0  0  0  0  0  0  0  0  0
  140.8690   78.7030  223.4350 C   0  0  0  0  0  0  0  0  0  0  0  0
  142.0850   79.6120  223.3310 C   0  0  0  0  0  0  0  0  0  0  0  0
  142.6720   79.4380  221.9970 N   0  0  0  0  0  0  0  0  0  0  0  0
  141.7970   78.5310  221.2520 C   0  0  0  0  0  0  0  0  0  0  0  0
  139.0430   76.2650  222.5900 C   0  0  0  0  0  0  0  0  0  0  0  0
  137.5590   74.2720  222.0450 C   0  0  0  0  0  0  0  0  0  0  0  0
  136.2440   74.7480  222.1170 C   0  0  0  0  0  0  0  0  0  0  0  0
  135.2250   73.8580  222.4920 C   0  0  0  0  0  0  0  0  0  0  0  0
  135.5300   72.5200  222.7970 C   0  0  0  0  0  0  0  0  0  0  0  0
  136.8540   72.0610  222.7160 C   0  0  0  0  0  0  0  0  0  0  0  0
  137.8490   72.9580  222.3100 C   0  0  0  0  0  0  0  0  0  0  0  0
  140.6751   72.4287  224.9869 H   0  0  0  0  0  0  0  0  0  0  0  0
  140.5443   69.2169  228.9809 H   0  0  0  0  0  0  0  0  0  0  0  0
  139.7526   67.1368  227.8299 H   0  0  0  0  0  0  0  0  0  0  0  0
  139.2902   67.1584  225.3516 H   0  0  0  0  0  0  0  0  0  0  0  0
  139.3230   68.7800  223.1480 H   0  0  0  0  0  0  0  0  0  0  0  0
  140.6043   74.2185  222.7197 H   0  0  0  0  0  0  0  0  0  0  0  0
  140.5648   73.8582  220.9884 H   0  0  0  0  0  0  0  0  0  0  0  0
  139.1276   74.8539  219.5647 H   0  0  0  0  0  0  0  0  0  0  0  0
  137.7872   75.9036  219.9712 H   0  0  0  0  0  0  0  0  0  0  0  0
  140.7892   76.4017  220.1881 H   0  0  0  0  0  0  0  0  0  0  0  0
  139.5219   77.5280  219.6427 H   0  0  0  0  0  0  0  0  0  0  0  0
  141.4928   76.7805  222.5563 H   0  0  0  0  0  0  0  0  0  0  0  0
  139.9415   79.2870  223.3415 H   0  0  0  0  0  0  0  0  0  0  0  0
  140.8223   78.1876  224.4056 H   0  0  0  0  0  0  0  0  0  0  0  0
  141.7803   80.6597  223.4704 H   0  0  0  0  0  0  0  0  0  0  0  0
  142.8205   79.3547  224.1074 H   0  0  0  0  0  0  0  0  0  0  0  0
  143.6260   79.0160  222.0810 H   0  0  0  0  0  0  0  0  0  0  0  0
  142.7450   80.3590  221.5040 H   0  0  0  0  0  0  0  0  0  0  0  0
  141.1117   79.1082  220.6139 H   0  0  0  0  0  0  0  0  0  0  0  0
  142.3860   77.8654  220.6039 H   0  0  0  0  0  0  0  0  0  0  0  0
  139.7008   76.0076  223.4332 H   0  0  0  0  0  0  0  0  0  0  0  0
  138.0872   76.6299  222.9941 H   0  0  0  0  0  0  0  0  0  0  0  0
  136.0140   75.7982  221.8844 H   0  0  0  0  0  0  0  0  0  0  0  0
  134.1840   74.2090  222.5474 H   0  0  0  0  0  0  0  0  0  0  0  0
  134.7284   71.8304  223.1001 H   0  0  0  0  0  0  0  0  0  0  0  0
  137.1042   71.0194  222.9661 H   0  0  0  0  0  0  0  0  0  0  0  0
  1  2  2  0
  2  3  1  0
  3  4  2  0
  4  5  1  0
  5  6  2  0
  6  7  1  0
  6  8  1  0
  8  9  2  0
  9 10  1  0
 10 11  2  0
 11 12  1  0
  2 13  1  0
 13 14  1  0
 15 14  1  6
 15 16  1  0
 16 17  1  0
 17 18  1  0
 18 19  1  0
 19 20  1  0
 20 21  1  0
 21 22  1  0
 22 23  1  0
 18 24  1  0
 15 25  1  0
 25 26  2  0
 26 27  1  0
 27 28  2  0
 28 29  1  0
 29 30  2  0
 12  3  1  0
 30 13  1  0
 11  5  1  0
 24 15  1  0
 30 25  1  0
 23 19  1  0
  4 31  1  0
  8 32  1  0
  9 33  1  0
 10 34  1  0
 12 35  1  0
 14 36  1  0
 14 37  1  0
 16 38  1  0
 16 39  1  0
 17 40  1  0
 17 41  1  0
 19 42  1  1
 20 43  1  0
 20 44  1  0
 21 45  1  0
 21 46  1  0
 22 47  1  0
 22 48  1  0
 23 49  1  0
 23 50  1  0
 24 51  1  0
 24 52  1  0
 26 53  1  0
 27 54  1  0
 28 55  1  0
 29 56  1  0
M  CHG  1  22   1
M  END
>  <UniqueID>  (22) 
162

>  <SMILES>  (22) 
O=C(c1cc2c(Cl)cccc2[nH]1)N1C[C@@]2(CCN([C@@H]3CC[NH2+]C3)C2)c2ccccc21

>  <Energy>  (22) 
122.5250531362307

>  <Genealogy>  (22) 
O=C(c1cc2c(Cl)cccc2[nH]1)N1C[C@@]2(CCN(C3CC[NH2+]C3)C2)c2ccccc21 (protonated)
O=C(c1cc2c(Cl)cccc2[nH]1)N1C[C@@]2(CCN([C@@H]3CC[NH2+]C3)C2)c2ccccc21 (chirality)
O=C(c1cc2c(Cl)cccc2[nH]1)N1C[C@@]2(CCN([C@@H]3CC[NH2+]C3)C2)c2ccccc21 (3D coordinates assigned)
O=C(c1cc2c(Cl)cccc2[nH]1)N1C[C@@]2(CCN([C@@H]3CC[NH2+]C3)C2)c2ccccc21 (nonaromatic ring conformer: 122.5250531362307 kcal/mol)

>  <smiles>  (22) 
O=C(c1cc2c(Cl)cccc2[nH]1)N1C[C@@]2(CCN(C3CCNC3)C2)c2ccccc21

>  <score_type>  (22) 
oracle

>  <origin>  (22) 
autodockgpu

>  <m_score__min__energy>  (22) 
-8.9299999999999997

>  <m_primary>  (22) 
energy

>  <meeko>  (22) 
{"free_energy": -8.79, "intermolecular_energy": -9.68, "internal_energy": -0.98, "cluster_size": 4, "cluster_id": 1, "rank_in_cluster": 4}

>  <energy>  (22) 
-8.92

>  <cluster_rmsd>  (22) 
0.1

>  <rmsd>  (22) 
271.53

>  <cluster>  (22) 
1

$$$$
KZWACXAMTSGJSU-CZASUABUNA-O
     RDKit          3D

 56 61  0  0  0  0  0  0  0  0999 V2000
  138.0210   77.4150  221.9090 O   0  0  0  0  0  0  0  0  0  0  0  0
  139.2400   77.3650  221.5920 C   0  0  0  0  0  0  0  0  0  0  0  0
  139.9160   76.0570  221.5250 C   0  0  0  0  0  0  0  0  0  0  0  0
  141.1210   75.8020  220.8720 C   0  0  0  0  0  0  0  0  0  0  0  0
  141.3730   74.4640  221.0960 C   0  0  0  0  0  0  0  0  0  0  0  0
  142.4300   73.6510  220.6830 C   0  0  0  0  0  0  0  0  0  0  0  0
  143.7430   74.2780  219.6990 Cl  0  0  0  0  0  0  0  0  0  0  0  0
  142.4130   72.3000  221.0790 C   0  0  0  0  0  0  0  0  0  0  0  0
  141.3530   71.8000  221.8690 C   0  0  0  0  0  0  0  0  0  0  0  0
  140.3030   72.6450  222.2700 C   0  0  0  0  0  0  0  0  0  0  0  0
  140.3460   73.9780  221.8620 C   0  0  0  0  0  0  0  0  0  0  0  0
  139.4510   74.9420  222.1360 N   0  0  0  0  0  0  0  0  0  0  0  0
  139.9550   78.5860  221.3580 N   0  0  0  0  0  0  0  0  0  0  0  0
  139.8810   79.3470  220.1140 C   0  0  0  0  0  0  0  0  0  0  0  0
  140.7360   80.6420  220.3570 C   0  0  2  0  0  0  0  0  0  0  0  0
  139.8930   81.9050  220.2870 C   0  0  0  0  0  0  0  0  0  0  0  0
  139.9370   82.2620  218.8150 C   0  0  0  0  0  0  0  0  0  0  0  0
  141.2510   81.8350  218.2970 N   0  0  0  0  0  0  0  0  0  0  0  0
  141.1630   81.2830  216.9230 C   0  0  2  0  0  0  0  0  0  0  0  0
  141.2750   79.7650  216.9150 C   0  0  0  0  0  0  0  0  0  0  0  0
  141.9580   79.4240  215.5980 C   0  0  0  0  0  0  0  0  0  0  0  0
  142.5560   80.6530  215.0630 N   0  0  0  0  0  0  0  0  0  0  0  0
  142.3460   81.7070  216.0560 C   0  0  0  0  0  0  0  0  0  0  0  0
  141.7950   80.8610  219.2670 C   0  0  0  0  0  0  0  0  0  0  0  0
  141.3160   80.4110  221.7250 C   0  0  0  0  0  0  0  0  0  0  0  0
  142.2170   81.2120  222.4390 C   0  0  0  0  0  0  0  0  0  0  0  0
  142.6570   80.7730  223.6980 C   0  0  0  0  0  0  0  0  0  0  0  0
  142.2030   79.5480  224.2190 C   0  0  0  0  0  0  0  0  0  0  0  0
  141.2980   78.7620  223.4900 C   0  0  0  0  0  0  0  0  0  0  0  0
  140.8500   79.2340  222.2510 C   0  0  0  0  0  0  0  0  0  0  0  0
  141.7371   76.5130  220.3020 H   0  0  0  0  0  0  0  0  0  0  0  0
  143.2293   71.6298  220.7718 H   0  0  0  0  0  0  0  0  0  0  0  0
  141.3494   70.7426  222.1722 H   0  0  0  0  0  0  0  0  0  0  0  0
  139.4739   72.2666  222.8860 H   0  0  0  0  0  0  0  0  0  0  0  0
  138.5780   74.8460  222.7020 H   0  0  0  0  0  0  0  0  0  0  0  0
  140.2987   78.7622  219.2812 H   0  0  0  0  0  0  0  0  0  0  0  0
  138.8418   79.5904  219.8480 H   0  0  0  0  0  0  0  0  0  0  0  0
  138.8615   81.7108  220.6162 H   0  0  0  0  0  0  0  0  0  0  0  0
  140.2622   82.7097  220.9398 H   0  0  0  0  0  0  0  0  0  0  0  0
  139.1326   81.7390  218.2770 H   0  0  0  0  0  0  0  0  0  0  0  0
  139.7962   83.3437  218.6731 H   0  0  0  0  0  0  0  0  0  0  0  0
  140.1974   81.6525  216.5474 H   0  0  0  0  0  0  0  0  0  0  0  0
  141.8807   79.4181  217.7652 H   0  0  0  0  0  0  0  0  0  0  0  0
  140.2925   79.2790  217.0074 H   0  0  0  0  0  0  0  0  0  0  0  0
  142.7420   78.6714  215.7684 H   0  0  0  0  0  0  0  0  0  0  0  0
  141.2277   79.0138  214.8850 H   0  0  0  0  0  0  0  0  0  0  0  0
  142.0840   80.9160  214.1660 H   0  0  0  0  0  0  0  0  0  0  0  0
  143.5790   80.5180  214.8870 H   0  0  0  0  0  0  0  0  0  0  0  0
  143.2460   81.8235  216.6777 H   0  0  0  0  0  0  0  0  0  0  0  0
  142.1442   82.6705  215.5652 H   0  0  0  0  0  0  0  0  0  0  0  0
  142.0122   79.9094  218.7598 H   0  0  0  0  0  0  0  0  0  0  0  0
  142.7284   81.2396  219.7090 H   0  0  0  0  0  0  0  0  0  0  0  0
  142.5725   82.1656  222.0216 H   0  0  0  0  0  0  0  0  0  0  0  0
  143.3591   81.3892  224.2788 H   0  0  0  0  0  0  0  0  0  0  0  0
  142.5588   79.2049  225.2017 H   0  0  0  0  0  0  0  0  0  0  0  0
  140.9483   77.7962  223.8835 H   0  0  0  0  0  0  0  0  0  0  0  0
  1  2  2  0
  2  3  1  0
  3  4  2  0
  4  5  1  0
  5  6  2  0
  6  7  1  0
  6  8  1  0
  8  9  2  0
  9 10  1  0
 10 11  2  0
 11 12  1  0
  2 13  1  0
 13 14  1  0
 15 14  1  6
 15 16  1  0
 16 17  1  0
 17 18  1  0
 18 19  1  0
 19 20  1  0
 20 21  1  0
 21 22  1  0
 22 23  1  0
 18 24  1  0
 15 25  1  0
 25 26  2  0
 26 27  1  0
 27 28  2  0
 28 29  1  0
 29 30  2  0
 12  3  1  0
 30 13  1  0
 11  5  1  0
 24 15  1  0
 30 25  1  0
 23 19  1  0
  4 31  1  0
  8 32  1  0
  9 33  1  0
 10 34  1  0
 12 35  1  0
 14 36  1  0
 14 37  1  0
 16 38  1  0
 16 39  1  0
 17 40  1  0
 17 41  1  0
 19 42  1  6
 20 43  1  0
 20 44  1  0
 21 45  1  0
 21 46  1  0
 22 47  1  0
 22 48  1  0
 23 49  1  0
 23 50  1  0
 24 51  1  0
 24 52  1  0
 26 53  1  0
 27 54  1  0
 28 55  1  0
 29 56  1  0
M  CHG  1  22   1
M  END
>  <UniqueID>  (23) 
162

>  <SMILES>  (23) 
O=C(c1cc2c(Cl)cccc2[nH]1)N1C[C@@]2(CCN([C@@H]3CC[NH2+]C3)C2)c2ccccc21

>  <Energy>  (23) 
122.5250531362307

>  <Genealogy>  (23) 
O=C(c1cc2c(Cl)cccc2[nH]1)N1C[C@@]2(CCN(C3CC[NH2+]C3)C2)c2ccccc21 (protonated)
O=C(c1cc2c(Cl)cccc2[nH]1)N1C[C@@]2(CCN([C@@H]3CC[NH2+]C3)C2)c2ccccc21 (chirality)
O=C(c1cc2c(Cl)cccc2[nH]1)N1C[C@@]2(CCN([C@@H]3CC[NH2+]C3)C2)c2ccccc21 (3D coordinates assigned)
O=C(c1cc2c(Cl)cccc2[nH]1)N1C[C@@]2(CCN([C@@H]3CC[NH2+]C3)C2)c2ccccc21 (nonaromatic ring conformer: 122.5250531362307 kcal/mol)

>  <smiles>  (23) 
O=C(c1cc2c(Cl)cccc2[nH]1)N1C[C@@]2(CCN(C3CCNC3)C2)c2ccccc21

>  <score_type>  (23) 
oracle

>  <origin>  (23) 
autodockgpu

>  <m_score__min__energy>  (23) 
-8.9299999999999997

>  <m_primary>  (23) 
energy

>  <meeko>  (23) 
{"free_energy": -8.49, "intermolecular_energy": -9.39, "internal_energy": -1.13, "cluster_size": 13, "cluster_id": 2, "rank_in_cluster": 13}

>  <energy>  (23) 
-8.89

>  <cluster_rmsd>  (23) 
0.23

>  <rmsd>  (23) 
271.53

>  <cluster>  (23) 
1

$$$$
KZWACXAMTSGJSU-CZASUABUNA-O
     RDKit          3D

 56 61  0  0  0  0  0  0  0  0999 V2000
  140.3000   70.9040  221.3270 O   0  0  0  0  0  0  0  0  0  0  0  0
  139.8070   71.4540  222.3470 C   0  0  0  0  0  0  0  0  0  0  0  0
  139.9100   70.7790  223.6540 C   0  0  0  0  0  0  0  0  0  0  0  0
  140.2920   71.3840  224.8500 C   0  0  0  0  0  0  0  0  0  0  0  0
  140.2200   70.3840  225.7960 C   0  0  0  0  0  0  0  0  0  0  0  0
  140.4910   70.3990  227.1660 C   0  0  0  0  0  0  0  0  0  0  0  0
  141.0310   71.8590  227.9800 Cl  0  0  0  0  0  0  0  0  0  0  0  0
  140.3190   69.2000  227.8830 C   0  0  0  0  0  0  0  0  0  0  0  0
  139.8850   68.0280  227.2220 C   0  0  0  0  0  0  0  0  0  0  0  0
  139.6200   68.0450  225.8410 C   0  0  0  0  0  0  0  0  0  0  0  0
  139.8000   69.2460  225.1570 C   0  0  0  0  0  0  0  0  0  0  0  0
  139.6020   69.4740  223.8490 N   0  0  0  0  0  0  0  0  0  0  0  0
  139.1070   72.6970  222.2060 N   0  0  0  0  0  0  0  0  0  0  0  0
  139.7650   73.9790  221.9650 C   0  0  0  0  0  0  0  0  0  0  0  0
  138.6070   75.0220  221.7790 C   0  0  2  0  0  0  0  0  0  0  0  0
  138.6040   75.6300  220.3860 C   0  0  0  0  0  0  0  0  0  0  0  0
  139.5300   76.8210  220.5320 C   0  0  0  0  0  0  0  0  0  0  0  0
  139.3810   77.3280  221.9100 N   0  0  0  0  0  0  0  0  0  0  0  0
  140.6710   77.7850  222.4840 C   0  0  2  0  0  0  0  0  0  0  0  0
  140.5220   79.1040  223.2290 C   0  0  0  0  0  0  0  0  0  0  0  0
  141.8550   79.8160  223.0440 C   0  0  0  0  0  0  0  0  0  0  0  0
  142.5790   79.1530  221.9540 N   0  0  0  0  0  0  0  0  0  0  0  0
  141.6930   78.1270  221.4030 C   0  0  0  0  0  0  0  0  0  0  0  0
  138.7600   76.2430  222.6980 C   0  0  0  0  0  0  0  0  0  0  0  0
  137.3720   74.2100  222.0560 C   0  0  0  0  0  0  0  0  0  0  0  0
  136.0380   74.6340  222.0990 C   0  0  0  0  0  0  0  0  0  0  0  0
  135.0430   73.6960  222.4200 C   0  0  0  0  0  0  0  0  0  0  0  0
  135.3910   72.3630  222.6990 C   0  0  0  0  0  0  0  0  0  0  0  0
  136.7340   71.9560  222.6480 C   0  0  0  0  0  0  0  0  0  0  0  0
  137.7040   72.9010  222.2970 C   0  0  0  0  0  0  0  0  0  0  0  0
  140.5870   72.4323  225.0054 H   0  0  0  0  0  0  0  0  0  0  0  0
  140.5234   69.1747  228.9635 H   0  0  0  0  0  0  0  0  0  0  0  0
  139.7537   67.0964  227.7919 H   0  0  0  0  0  0  0  0  0  0  0  0
  139.2813   67.1390  225.3171 H   0  0  0  0  0  0  0  0  0  0  0  0
  139.2780   68.7860  223.1320 H   0  0  0  0  0  0  0  0  0  0  0  0
  140.3949   74.2543  222.8237 H   0  0  0  0  0  0  0  0  0  0  0  0
  140.4213   73.9392  221.0831 H   0  0  0  0  0  0  0  0  0  0  0  0
  138.9907   74.9173  219.6427 H   0  0  0  0  0  0  0  0  0  0  0  0
  137.5982   75.9034  220.0344 H   0  0  0  0  0  0  0  0  0  0  0  0
  140.5709   76.5122  220.3553 H   0  0  0  0  0  0  0  0  0  0  0  0
  139.2767   77.6025  219.8005 H   0  0  0  0  0  0  0  0  0  0  0  0
  140.9878   76.9519  223.1286 H   0  0  0  0  0  0  0  0  0  0  0  0
  139.7030   79.6998  222.7997 H   0  0  0  0  0  0  0  0  0  0  0  0
  140.2792   78.9526  224.2911 H   0  0  0  0  0  0  0  0  0  0  0  0
  141.6814   80.8717  222.7882 H   0  0  0  0  0  0  0  0  0  0  0  0
  142.4422   79.7724  223.9731 H   0  0  0  0  0  0  0  0  0  0  0  0
  143.4480   78.7030  222.3270 H   0  0  0  0  0  0  0  0  0  0  0  0
  142.8410   79.8440  221.2120 H   0  0  0  0  0  0  0  0  0  0  0  0
  141.1811   78.5119  220.5087 H   0  0  0  0  0  0  0  0  0  0  0  0
  142.2646   77.2341  221.1097 H   0  0  0  0  0  0  0  0  0  0  0  0
  139.4016   75.9884  223.5544 H   0  0  0  0  0  0  0  0  0  0  0  0
  137.7789   76.5602  223.0812 H   0  0  0  0  0  0  0  0  0  0  0  0
  135.7747   75.6805  221.8857 H   0  0  0  0  0  0  0  0  0  0  0  0
  133.9880   74.0056  222.4532 H   0  0  0  0  0  0  0  0  0  0  0  0
  134.6078   71.6354  222.9585 H   0  0  0  0  0  0  0  0  0  0  0  0
  137.0167   70.9183  222.8787 H   0  0  0  0  0  0  0  0  0  0  0  0
  1  2  2  0
  2  3  1  0
  3  4  2  0
  4  5  1  0
  5  6  2  0
  6  7  1  0
  6  8  1  0
  8  9  2  0
  9 10  1  0
 10 11  2  0
 11 12  1  0
  2 13  1  0
 13 14  1  0
 15 14  1  6
 15 16  1  0
 16 17  1  0
 17 18  1  0
 18 19  1  0
 19 20  1  0
 20 21  1  0
 21 22  1  0
 22 23  1  0
 18 24  1  0
 15 25  1  0
 25 26  2  0
 26 27  1  0
 27 28  2  0
 28 29  1  0
 29 30  2  0
 12  3  1  0
 30 13  1  0
 11  5  1  0
 24 15  1  0
 30 25  1  0
 23 19  1  0
  4 31  1  0
  8 32  1  0
  9 33  1  0
 10 34  1  0
 12 35  1  0
 14 36  1  0
 14 37  1  0
 16 38  1  0
 16 39  1  0
 17 40  1  0
 17 41  1  0
 19 42  1  1
 20 43  1  0
 20 44  1  0
 21 45  1  0
 21 46  1  0
 22 47  1  0
 22 48  1  0
 23 49  1  0
 23 50  1  0
 24 51  1  0
 24 52  1  0
 26 53  1  0
 27 54  1  0
 28 55  1  0
 29 56  1  0
M  CHG  1  22   1
M  END
>  <UniqueID>  (24) 
162

>  <SMILES>  (24) 
O=C(c1cc2c(Cl)cccc2[nH]1)N1C[C@@]2(CCN([C@@H]3CC[NH2+]C3)C2)c2ccccc21

>  <Energy>  (24) 
122.5250531362307

>  <Genealogy>  (24) 
O=C(c1cc2c(Cl)cccc2[nH]1)N1C[C@@]2(CCN(C3CC[NH2+]C3)C2)c2ccccc21 (protonated)
O=C(c1cc2c(Cl)cccc2[nH]1)N1C[C@@]2(CCN([C@@H]3CC[NH2+]C3)C2)c2ccccc21 (chirality)
O=C(c1cc2c(Cl)cccc2[nH]1)N1C[C@@]2(CCN([C@@H]3CC[NH2+]C3)C2)c2ccccc21 (3D coordinates assigned)
O=C(c1cc2c(Cl)cccc2[nH]1)N1C[C@@]2(CCN([C@@H]3CC[NH2+]C3)C2)c2ccccc21 (nonaromatic ring conformer: 122.5250531362307 kcal/mol)

>  <smiles>  (24) 
O=C(c1cc2c(Cl)cccc2[nH]1)N1C[C@@]2(CCN(C3CCNC3)C2)c2ccccc21

>  <score_type>  (24) 
oracle

>  <origin>  (24) 
autodockgpu

>  <m_score__min__energy>  (24) 
-8.9299999999999997

>  <m_primary>  (24) 
energy

>  <meeko>  (24) 
{"free_energy": -8.93, "intermolecular_energy": -9.82, "internal_energy": -0.97, "cluster_size": 4, "cluster_id": 1, "rank_in_cluster": 1}

>  <energy>  (24) 
-8.79

>  <cluster_rmsd>  (24) 
0.26

>  <rmsd>  (24) 
271.63

>  <cluster>  (24) 
1

$$$$
KZWACXAMTSGJSU-CZASUABUNA-O
     RDKit          3D

 56 61  0  0  0  0  0  0  0  0999 V2000
  138.2820   77.2430  222.3530 O   0  0  0  0  0  0  0  0  0  0  0  0
  139.4260   77.1980  221.8280 C   0  0  0  0  0  0  0  0  0  0  0  0
  140.0850   75.8930  221.6420 C   0  0  0  0  0  0  0  0  0  0  0  0
  141.2880   75.6820  220.9710 C   0  0  0  0  0  0  0  0  0  0  0  0
  141.5210   74.3260  221.0700 C   0  0  0  0  0  0  0  0  0  0  0  0
  142.5680   73.5390  220.5860 C   0  0  0  0  0  0  0  0  0  0  0  0
  143.8930   74.2370  219.6690 Cl  0  0  0  0  0  0  0  0  0  0  0  0
  142.5310   72.1590  220.8550 C   0  0  0  0  0  0  0  0  0  0  0  0
  141.4610   71.6030  221.5930 C   0  0  0  0  0  0  0  0  0  0  0  0
  140.4210   72.4220  222.0680 C   0  0  0  0  0  0  0  0  0  0  0  0
  140.4840   73.7850  221.7860 C   0  0  0  0  0  0  0  0  0  0  0  0
  139.6020   74.7320  222.1450 N   0  0  0  0  0  0  0  0  0  0  0  0
  140.0860   78.4220  221.4750 N   0  0  0  0  0  0  0  0  0  0  0  0
  139.9790   79.0540  220.1620 C   0  0  0  0  0  0  0  0  0  0  0  0
  140.7730   80.4040  220.2770 C   0  0  2  0  0  0  0  0  0  0  0  0
  139.8740   81.6140  220.0860 C   0  0  0  0  0  0  0  0  0  0  0  0
  139.9050   81.8280  218.5870 C   0  0  0  0  0  0  0  0  0  0  0  0
  141.2380   81.4130  218.1090 N   0  0  0  0  0  0  0  0  0  0  0  0
  141.1780   80.7270  216.7960 C   0  0  2  0  0  0  0  0  0  0  0  0
  141.5190   79.2480  216.9130 C   0  0  0  0  0  0  0  0  0  0  0  0
  142.1910   78.8900  215.5950 C   0  0  0  0  0  0  0  0  0  0  0  0
  142.5710   80.1370  214.9230 N   0  0  0  0  0  0  0  0  0  0  0  0
  142.2450   81.2380  215.8300 C   0  0  0  0  0  0  0  0  0  0  0  0
  141.8240   80.5640  219.1680 C   0  0  0  0  0  0  0  0  0  0  0  0
  141.3610   80.3340  221.6590 C   0  0  0  0  0  0  0  0  0  0  0  0
  142.2240   81.2400  222.2900 C   0  0  0  0  0  0  0  0  0  0  0  0
  142.6800   80.9470  223.5840 C   0  0  0  0  0  0  0  0  0  0  0  0
  142.2820   79.7590  224.2230 C   0  0  0  0  0  0  0  0  0  0  0  0
  141.4150   78.8650  223.5760 C   0  0  0  0  0  0  0  0  0  0  0  0
  140.9480   79.1930  222.2980 C   0  0  0  0  0  0  0  0  0  0  0  0
  141.9159   76.4340  220.4707 H   0  0  0  0  0  0  0  0  0  0  0  0
  143.3392   71.5086  220.4891 H   0  0  0  0  0  0  0  0  0  0  0  0
  141.4417   70.5223  221.7971 H   0  0  0  0  0  0  0  0  0  0  0  0
  139.5843   71.9998  222.6439 H   0  0  0  0  0  0  0  0  0  0  0  0
  138.7250   74.5970  222.6980 H   0  0  0  0  0  0  0  0  0  0  0  0
  140.4249   78.4110  219.3889 H   0  0  0  0  0  0  0  0  0  0  0  0
  138.9303   79.2218  219.8753 H   0  0  0  0  0  0  0  0  0  0  0  0
  138.8517   81.4060  220.4346 H   0  0  0  0  0  0  0  0  0  0  0  0
  140.2049   82.4943  220.6566 H   0  0  0  0  0  0  0  0  0  0  0  0
  139.1263   81.2193  218.1042 H   0  0  0  0  0  0  0  0  0  0  0  0
  139.7158   82.8835  218.3416 H   0  0  0  0  0  0  0  0  0  0  0  0
  140.1523   80.9126  216.4446 H   0  0  0  0  0  0  0  0  0  0  0  0
  142.2049   79.0754  217.7555 H   0  0  0  0  0  0  0  0  0  0  0  0
  140.6265   78.6331  217.1007 H   0  0  0  0  0  0  0  0  0  0  0  0
  143.0873   78.2818  215.7867 H   0  0  0  0  0  0  0  0  0  0  0  0
  141.5030   78.3106  214.9618 H   0  0  0  0  0  0  0  0  0  0  0  0
  142.0270   80.2410  214.0340 H   0  0  0  0  0  0  0  0  0  0  0  0
  143.5950   80.1390  214.7020 H   0  0  0  0  0  0  0  0  0  0  0  0
  143.1421   81.5451  216.3876 H   0  0  0  0  0  0  0  0  0  0  0  0
  141.8782   82.1102  215.2691 H   0  0  0  0  0  0  0  0  0  0  0  0
  142.0857   79.5784  218.7555 H   0  0  0  0  0  0  0  0  0  0  0  0
  142.7382   81.0260  219.5689 H   0  0  0  0  0  0  0  0  0  0  0  0
  142.5378   82.1630  221.7806 H   0  0  0  0  0  0  0  0  0  0  0  0
  143.3512   81.6489  224.1006 H   0  0  0  0  0  0  0  0  0  0  0  0
  142.6516   79.5298  225.2334 H   0  0  0  0  0  0  0  0  0  0  0  0
  141.1092   77.9271  224.0626 H   0  0  0  0  0  0  0  0  0  0  0  0
  1  2  2  0
  2  3  1  0
  3  4  2  0
  4  5  1  0
  5  6  2  0
  6  7  1  0
  6  8  1  0
  8  9  2  0
  9 10  1  0
 10 11  2  0
 11 12  1  0
  2 13  1  0
 13 14  1  0
 15 14  1  6
 15 16  1  0
 16 17  1  0
 17 18  1  0
 18 19  1  0
 19 20  1  0
 20 21  1  0
 21 22  1  0
 22 23  1  0
 18 24  1  0
 15 25  1  0
 25 26  2  0
 26 27  1  0
 27 28  2  0
 28 29  1  0
 29 30  2  0
 12  3  1  0
 30 13  1  0
 11  5  1  0
 24 15  1  0
 30 25  1  0
 23 19  1  0
  4 31  1  0
  8 32  1  0
  9 33  1  0
 10 34  1  0
 12 35  1  0
 14 36  1  0
 14 37  1  0
 16 38  1  0
 16 39  1  0
 17 40  1  0
 17 41  1  0
 19 42  1  6
 20 43  1  0
 20 44  1  0
 21 45  1  0
 21 46  1  0
 22 47  1  0
 22 48  1  0
 23 49  1  0
 23 50  1  0
 24 51  1  0
 24 52  1  0
 26 53  1  0
 27 54  1  0
 28 55  1  0
 29 56  1  0
M  CHG  1  22   1
M  END
>  <UniqueID>  (25) 
162

>  <SMILES>  (25) 
O=C(c1cc2c(Cl)cccc2[nH]1)N1C[C@@]2(CCN([C@@H]3CC[NH2+]C3)C2)c2ccccc21

>  <Energy>  (25) 
122.5250531362307

>  <Genealogy>  (25) 
O=C(c1cc2c(Cl)cccc2[nH]1)N1C[C@@]2(CCN(C3CC[NH2+]C3)C2)c2ccccc21 (protonated)
O=C(c1cc2c(Cl)cccc2[nH]1)N1C[C@@]2(CCN([C@@H]3CC[NH2+]C3)C2)c2ccccc21 (chirality)
O=C(c1cc2c(Cl)cccc2[nH]1)N1C[C@@]2(CCN([C@@H]3CC[NH2+]C3)C2)c2ccccc21 (3D coordinates assigned)
O=C(c1cc2c(Cl)cccc2[nH]1)N1C[C@@]2(CCN([C@@H]3CC[NH2+]C3)C2)c2ccccc21 (nonaromatic ring conformer: 122.5250531362307 kcal/mol)

>  <smiles>  (25) 
O=C(c1cc2c(Cl)cccc2[nH]1)N1C[C@@]2(CCN(C3CCNC3)C2)c2ccccc21

>  <score_type>  (25) 
oracle

>  <origin>  (25) 
autodockgpu

>  <m_score__min__energy>  (25) 
-8.9299999999999997

>  <m_primary>  (25) 
energy

>  <meeko>  (25) 
{"free_energy": -8.58, "intermolecular_energy": -9.47, "internal_energy": -1.13, "cluster_size": 13, "cluster_id": 2, "rank_in_cluster": 3}

>  <energy>  (25) 
-8.58

>  <cluster_rmsd>  (25) 
0.0

>  <rmsd>  (25) 
271.04

>  <cluster>  (25) 
2

$$$$
KZWACXAMTSGJSU-CZASUABUNA-O
     RDKit          3D

 56 61  0  0  0  0  0  0  0  0999 V2000
  140.0130   70.6200  221.3610 O   0  0  0  0  0  0  0  0  0  0  0  0
  139.6330   71.2330  222.3940 C   0  0  0  0  0  0  0  0  0  0  0  0
  139.8220   70.6070  223.7160 C   0  0  0  0  0  0  0  0  0  0  0  0
  140.2240   71.2690  224.8750 C   0  0  0  0  0  0  0  0  0  0  0  0
  140.2380   70.2980  225.8550 C   0  0  0  0  0  0  0  0  0  0  0  0
  140.5640   70.3720  227.2110 C   0  0  0  0  0  0  0  0  0  0  0  0
  141.0680   71.8810  227.9540 Cl  0  0  0  0  0  0  0  0  0  0  0  0
  140.4790   69.1900  227.9710 C   0  0  0  0  0  0  0  0  0  0  0  0
  140.0740   67.9790  227.3670 C   0  0  0  0  0  0  0  0  0  0  0  0
  139.7510   67.9370  225.9980 C   0  0  0  0  0  0  0  0  0  0  0  0
  139.8460   69.1220  225.2700 C   0  0  0  0  0  0  0  0  0  0  0  0
  139.5830   69.2970  223.9650 N   0  0  0  0  0  0  0  0  0  0  0  0
  138.9750   72.5000  222.2580 N   0  0  0  0  0  0  0  0  0  0  0  0
  139.6700   73.7500  221.9640 C   0  0  0  0  0  0  0  0  0  0  0  0
  138.5450   74.8340  221.8070 C   0  0  2  0  0  0  0  0  0  0  0  0
  138.5030   75.4150  220.4030 C   0  0  0  0  0  0  0  0  0  0  0  0
  139.4790   76.5710  220.4840 C   0  0  0  0  0  0  0  0  0  0  0  0
  139.4110   77.1100  221.8570 N   0  0  0  0  0  0  0  0  0  0  0  0
  140.7410   77.5270  222.3650 C   0  0  2  0  0  0  0  0  0  0  0  0
  140.6410   78.7340  223.2860 C   0  0  0  0  0  0  0  0  0  0  0  0
  141.9370   79.5030  223.0750 C   0  0  0  0  0  0  0  0  0  0  0  0
  142.5660   79.0080  221.8450 N   0  0  0  0  0  0  0  0  0  0  0  0
  141.6500   78.0360  221.2490 C   0  0  0  0  0  0  0  0  0  0  0  0
  138.7850   76.0650  222.6940 C   0  0  0  0  0  0  0  0  0  0  0  0
  137.2940   74.0750  222.1540 C   0  0  0  0  0  0  0  0  0  0  0  0
  135.9790   74.5510  222.2470 C   0  0  0  0  0  0  0  0  0  0  0  0
  134.9660   73.6580  222.6290 C   0  0  0  0  0  0  0  0  0  0  0  0
  135.2740   72.3180  222.9200 C   0  0  0  0  0  0  0  0  0  0  0  0
  136.5970   71.8590  222.8180 C   0  0  0  0  0  0  0  0  0  0  0  0
  137.5870   72.7590  222.4060 C   0  0  0  0  0  0  0  0  0  0  0  0
  140.4755   72.3343  224.9845 H   0  0  0  0  0  0  0  0  0  0  0  0
  140.7296   69.2096  229.0419 H   0  0  0  0  0  0  0  0  0  0  0  0
  140.0106   67.0620  227.9713 H   0  0  0  0  0  0  0  0  0  0  0  0
  139.4339   66.9995  225.5179 H   0  0  0  0  0  0  0  0  0  0  0  0
  139.2640   68.5710  223.2840 H   0  0  0  0  0  0  0  0  0  0  0  0
  140.3466   74.0161  222.7894 H   0  0  0  0  0  0  0  0  0  0  0  0
  140.2855   73.6688  221.0560 H   0  0  0  0  0  0  0  0  0  0  0  0
  138.8288   74.6738  219.6584 H   0  0  0  0  0  0  0  0  0  0  0  0
  137.4937   75.7206  220.0900 H   0  0  0  0  0  0  0  0  0  0  0  0
  140.4984   76.2184  220.2684 H   0  0  0  0  0  0  0  0  0  0  0  0
  139.2233   77.3478  219.7484 H   0  0  0  0  0  0  0  0  0  0  0  0
  141.1313   76.6273  222.8631 H   0  0  0  0  0  0  0  0  0  0  0  0
  139.7748   79.3556  223.0151 H   0  0  0  0  0  0  0  0  0  0  0  0
  140.5031   78.4399  224.3369 H   0  0  0  0  0  0  0  0  0  0  0  0
  141.7214   80.5772  222.9772 H   0  0  0  0  0  0  0  0  0  0  0  0
  142.6104   79.3574  223.9325 H   0  0  0  0  0  0  0  0  0  0  0  0
  143.4740   78.5400  222.0750 H   0  0  0  0  0  0  0  0  0  0  0  0
  142.7440   79.7960  221.1790 H   0  0  0  0  0  0  0  0  0  0  0  0
  141.0488   78.5174  220.4636 H   0  0  0  0  0  0  0  0  0  0  0  0
  142.2069   77.2056  220.7905 H   0  0  0  0  0  0  0  0  0  0  0  0
  139.4542   75.8017  223.5264 H   0  0  0  0  0  0  0  0  0  0  0  0
  137.8350   76.4271  223.1139 H   0  0  0  0  0  0  0  0  0  0  0  0
  135.7458   75.6028  222.0251 H   0  0  0  0  0  0  0  0  0  0  0  0
  133.9259   74.0086  222.7010 H   0  0  0  0  0  0  0  0  0  0  0  0
  134.4761   71.6266  223.2287 H   0  0  0  0  0  0  0  0  0  0  0  0
  136.8500   70.8154  223.0565 H   0  0  0  0  0  0  0  0  0  0  0  0
  1  2  2  0
  2  3  1  0
  3  4  2  0
  4  5  1  0
  5  6  2  0
  6  7  1  0
  6  8  1  0
  8  9  2  0
  9 10  1  0
 10 11  2  0
 11 12  1  0
  2 13  1  0
 13 14  1  0
 15 14  1  6
 15 16  1  0
 16 17  1  0
 17 18  1  0
 18 19  1  0
 19 20  1  0
 20 21  1  0
 21 22  1  0
 22 23  1  0
 18 24  1  0
 15 25  1  0
 25 26  2  0
 26 27  1  0
 27 28  2  0
 28 29  1  0
 29 30  2  0
 12  3  1  0
 30 13  1  0
 11  5  1  0
 24 15  1  0
 30 25  1  0
 23 19  1  0
  4 31  1  0
  8 32  1  0
  9 33  1  0
 10 34  1  0
 12 35  1  0
 14 36  1  0
 14 37  1  0
 16 38  1  0
 16 39  1  0
 17 40  1  0
 17 41  1  0
 19 42  1  1
 20 43  1  0
 20 44  1  0
 21 45  1  0
 21 46  1  0
 22 47  1  0
 22 48  1  0
 23 49  1  0
 23 50  1  0
 24 51  1  0
 24 52  1  0
 26 53  1  0
 27 54  1  0
 28 55  1  0
 29 56  1  0
M  CHG  1  22   1
M  END
>  <UniqueID>  (26) 
162

>  <SMILES>  (26) 
O=C(c1cc2c(Cl)cccc2[nH]1)N1C[C@@]2(CCN([C@@H]3CC[NH2+]C3)C2)c2ccccc21

>  <Energy>  (26) 
122.5250531362307

>  <Genealogy>  (26) 
O=C(c1cc2c(Cl)cccc2[nH]1)N1C[C@@]2(CCN(C3CC[NH2+]C3)C2)c2ccccc21 (protonated)
O=C(c1cc2c(Cl)cccc2[nH]1)N1C[C@@]2(CCN([C@@H]3CC[NH2+]C3)C2)c2ccccc21 (chirality)
O=C(c1cc2c(Cl)cccc2[nH]1)N1C[C@@]2(CCN([C@@H]3CC[NH2+]C3)C2)c2ccccc21 (3D coordinates assigned)
O=C(c1cc2c(Cl)cccc2[nH]1)N1C[C@@]2(CCN([C@@H]3CC[NH2+]C3)C2)c2ccccc21 (nonaromatic ring conformer: 122.5250531362307 kcal/mol)

>  <smiles>  (26) 
O=C(c1cc2c(Cl)cccc2[nH]1)N1C[C@@]2(CCN(C3CCNC3)C2)c2ccccc21

>  <score_type>  (26) 
oracle

>  <origin>  (26) 
autodockgpu

>  <m_score__min__energy>  (26) 
-8.9299999999999997

>  <m_primary>  (26) 
energy

>  <meeko>  (26) 
{"free_energy": -8.89, "intermolecular_energy": -9.78, "internal_energy": -0.98, "cluster_size": 4, "cluster_id": 1, "rank_in_cluster": 3}

>  <energy>  (26) 
-8.58

>  <cluster_rmsd>  (26) 
0.07

>  <rmsd>  (26) 
271.04

>  <cluster>  (26) 
2

$$$$
KZWACXAMTSGJSU-CZASUABUNA-O
     RDKit          3D

 56 61  0  0  0  0  0  0  0  0999 V2000
  138.3110   77.2120  222.4030 O   0  0  0  0  0  0  0  0  0  0  0  0
  139.4510   77.1770  221.8660 C   0  0  0  0  0  0  0  0  0  0  0  0
  140.1170   75.8770  221.6690 C   0  0  0  0  0  0  0  0  0  0  0  0
  141.3200   75.6780  220.9940 C   0  0  0  0  0  0  0  0  0  0  0  0
  141.5610   74.3230  221.0840 C   0  0  0  0  0  0  0  0  0  0  0  0
  142.6130   73.5460  220.5920 C   0  0  0  0  0  0  0  0  0  0  0  0
  143.9310   74.2590  219.6760 Cl  0  0  0  0  0  0  0  0  0  0  0  0
  142.5840   72.1630  220.8510 C   0  0  0  0  0  0  0  0  0  0  0  0
  141.5190   71.5960  221.5870 C   0  0  0  0  0  0  0  0  0  0  0  0
  140.4750   72.4050  222.0700 C   0  0  0  0  0  0  0  0  0  0  0  0
  140.5290   73.7710  221.7980 C   0  0  0  0  0  0  0  0  0  0  0  0
  139.6420   74.7100  222.1660 N   0  0  0  0  0  0  0  0  0  0  0  0
  140.0980   78.4060  221.5100 N   0  0  0  0  0  0  0  0  0  0  0  0
  139.9820   79.0360  220.1970 C   0  0  0  0  0  0  0  0  0  0  0  0
  140.7640   80.3930  220.3080 C   0  0  2  0  0  0  0  0  0  0  0  0
  139.8520   81.5950  220.1170 C   0  0  0  0  0  0  0  0  0  0  0  0
  139.8780   81.8070  218.6170 C   0  0  0  0  0  0  0  0  0  0  0  0
  141.2150   81.4030  218.1380 N   0  0  0  0  0  0  0  0  0  0  0  0
  141.1590   80.7150  216.8250 C   0  0  2  0  0  0  0  0  0  0  0  0
  141.5070   79.2380  216.9460 C   0  0  0  0  0  0  0  0  0  0  0  0
  142.1820   78.8810  215.6290 C   0  0  0  0  0  0  0  0  0  0  0  0
  142.5560   80.1290  214.9540 N   0  0  0  0  0  0  0  0  0  0  0  0
  142.2240   81.2290  215.8600 C   0  0  0  0  0  0  0  0  0  0  0  0
  141.8110   80.5620  219.1970 C   0  0  0  0  0  0  0  0  0  0  0  0
  141.3550   80.3310  221.6890 C   0  0  0  0  0  0  0  0  0  0  0  0
  142.2100   81.2470  222.3170 C   0  0  0  0  0  0  0  0  0  0  0  0
  142.6720   80.9590  223.6110 C   0  0  0  0  0  0  0  0  0  0  0  0
  142.2860   79.7690  224.2520 C   0  0  0  0  0  0  0  0  0  0  0  0
  141.4260   78.8650  223.6080 C   0  0  0  0  0  0  0  0  0  0  0  0
  140.9540   79.1870  222.3300 C   0  0  0  0  0  0  0  0  0  0  0  0
  141.9423   76.4370  220.4973 H   0  0  0  0  0  0  0  0  0  0  0  0
  143.3948   71.5197  220.4785 H   0  0  0  0  0  0  0  0  0  0  0  0
  141.5066   70.5138  221.7835 H   0  0  0  0  0  0  0  0  0  0  0  0
  139.6420   71.9734  222.6444 H   0  0  0  0  0  0  0  0  0  0  0  0
  138.7670   74.5650  222.7190 H   0  0  0  0  0  0  0  0  0  0  0  0
  140.4314   78.3962  219.4233 H   0  0  0  0  0  0  0  0  0  0  0  0
  138.9310   79.1944  219.9135 H   0  0  0  0  0  0  0  0  0  0  0  0
  138.8324   81.3775  220.4680 H   0  0  0  0  0  0  0  0  0  0  0  0
  140.1753   82.4794  220.6856 H   0  0  0  0  0  0  0  0  0  0  0  0
  139.1041   81.1904  218.1365 H   0  0  0  0  0  0  0  0  0  0  0  0
  139.6782   82.8601  218.3697 H   0  0  0  0  0  0  0  0  0  0  0  0
  140.1332   80.8956  216.4713 H   0  0  0  0  0  0  0  0  0  0  0  0
  142.1930   79.0706  217.7895 H   0  0  0  0  0  0  0  0  0  0  0  0
  140.6176   78.6189  217.1346 H   0  0  0  0  0  0  0  0  0  0  0  0
  143.0815   78.2781  215.8227 H   0  0  0  0  0  0  0  0  0  0  0  0
  141.4974   78.2967  214.9966 H   0  0  0  0  0  0  0  0  0  0  0  0
  142.0120   80.2290  214.0650 H   0  0  0  0  0  0  0  0  0  0  0  0
  143.5800   80.1360  214.7340 H   0  0  0  0  0  0  0  0  0  0  0  0
  143.1192   81.5404  216.4182 H   0  0  0  0  0  0  0  0  0  0  0  0
  141.8536   82.0989  215.2978 H   0  0  0  0  0  0  0  0  0  0  0  0
  142.0819   79.5785  218.7855 H   0  0  0  0  0  0  0  0  0  0  0  0
  142.7211   81.0341  219.5956 H   0  0  0  0  0  0  0  0  0  0  0  0
  142.5129   82.1729  221.8062 H   0  0  0  0  0  0  0  0  0  0  0  0
  143.3385   81.6671  224.1252 H   0  0  0  0  0  0  0  0  0  0  0  0
  142.6592   79.5451  225.2622 H   0  0  0  0  0  0  0  0  0  0  0  0
  141.1298   77.9250  224.0966 H   0  0  0  0  0  0  0  0  0  0  0  0
  1  2  2  0
  2  3  1  0
  3  4  2  0
  4  5  1  0
  5  6  2  0
  6  7  1  0
  6  8  1  0
  8  9  2  0
  9 10  1  0
 10 11  2  0
 11 12  1  0
  2 13  1  0
 13 14  1  0
 15 14  1  6
 15 16  1  0
 16 17  1  0
 17 18  1  0
 18 19  1  0
 19 20  1  0
 20 21  1  0
 21 22  1  0
 22 23  1  0
 18 24  1  0
 15 25  1  0
 25 26  2  0
 26 27  1  0
 27 28  2  0
 28 29  1  0
 29 30  2  0
 12  3  1  0
 30 13  1  0
 11  5  1  0
 24 15  1  0
 30 25  1  0
 23 19  1  0
  4 31  1  0
  8 32  1  0
  9 33  1  0
 10 34  1  0
 12 35  1  0
 14 36  1  0
 14 37  1  0
 16 38  1  0
 16 39  1  0
 17 40  1  0
 17 41  1  0
 19 42  1  6
 20 43  1  0
 20 44  1  0
 21 45  1  0
 21 46  1  0
 22 47  1  0
 22 48  1  0
 23 49  1  0
 23 50  1  0
 24 51  1  0
 24 52  1  0
 26 53  1  0
 27 54  1  0
 28 55  1  0
 29 56  1  0
M  CHG  1  22   1
M  END
>  <UniqueID>  (27) 
162

>  <SMILES>  (27) 
O=C(c1cc2c(Cl)cccc2[nH]1)N1C[C@@]2(CCN([C@@H]3CC[NH2+]C3)C2)c2ccccc21

>  <Energy>  (27) 
122.5250531362307

>  <Genealogy>  (27) 
O=C(c1cc2c(Cl)cccc2[nH]1)N1C[C@@]2(CCN(C3CC[NH2+]C3)C2)c2ccccc21 (protonated)
O=C(c1cc2c(Cl)cccc2[nH]1)N1C[C@@]2(CCN([C@@H]3CC[NH2+]C3)C2)c2ccccc21 (chirality)
O=C(c1cc2c(Cl)cccc2[nH]1)N1C[C@@]2(CCN([C@@H]3CC[NH2+]C3)C2)c2ccccc21 (3D coordinates assigned)
O=C(c1cc2c(Cl)cccc2[nH]1)N1C[C@@]2(CCN([C@@H]3CC[NH2+]C3)C2)c2ccccc21 (nonaromatic ring conformer: 122.5250531362307 kcal/mol)

>  <smiles>  (27) 
O=C(c1cc2c(Cl)cccc2[nH]1)N1C[C@@]2(CCN(C3CCNC3)C2)c2ccccc21

>  <score_type>  (27) 
oracle

>  <origin>  (27) 
autodockgpu

>  <m_score__min__energy>  (27) 
-8.9299999999999997

>  <m_primary>  (27) 
energy

>  <meeko>  (27) 
{"free_energy": -8.57, "intermolecular_energy": -9.46, "internal_energy": -1.14, "cluster_size": 13, "cluster_id": 2, "rank_in_cluster": 7}

>  <energy>  (27) 
-8.58

>  <cluster_rmsd>  (27) 
0.06

>  <rmsd>  (27) 
271.04

>  <cluster>  (27) 
2

$$$$
KZWACXAMTSGJSU-CZASUABUNA-O
     RDKit          3D

 56 61  0  0  0  0  0  0  0  0999 V2000
  138.8920   72.7420  222.3390 O   0  0  0  0  0  0  0  0  0  0  0  0
  139.8810   71.9750  222.4890 C   0  0  0  0  0  0  0  0  0  0  0  0
  139.9530   71.1140  223.6820 C   0  0  0  0  0  0  0  0  0  0  0  0
  140.3410   71.5260  224.9560 C   0  0  0  0  0  0  0  0  0  0  0  0
  140.2330   70.4000  225.7450 C   0  0  0  0  0  0  0  0  0  0  0  0
  140.4910   70.2070  227.1040 C   0  0  0  0  0  0  0  0  0  0  0  0
  141.0640   71.5160  228.1260 Cl  0  0  0  0  0  0  0  0  0  0  0  0
  140.2800   68.9220  227.6360 C   0  0  0  0  0  0  0  0  0  0  0  0
  139.8200   67.8720  226.8090 C   0  0  0  0  0  0  0  0  0  0  0  0
  139.5670   68.0980  225.4440 C   0  0  0  0  0  0  0  0  0  0  0  0
  139.7870   69.3810  224.9440 C   0  0  0  0  0  0  0  0  0  0  0  0
  139.6070   69.8040  223.6830 N   0  0  0  0  0  0  0  0  0  0  0  0
  140.9410   71.9990  221.5230 N   0  0  0  0  0  0  0  0  0  0  0  0
  141.7990   73.1570  221.2840 C   0  0  0  0  0  0  0  0  0  0  0  0
  142.8630   72.6860  220.2300 C   0  0  2  0  0  0  0  0  0  0  0  0
  144.2750   72.7160  220.7920 C   0  0  0  0  0  0  0  0  0  0  0  0
  144.7320   74.1280  220.4880 C   0  0  0  0  0  0  0  0  0  0  0  0
  144.0840   74.5400  219.2270 N   0  0  0  0  0  0  0  0  0  0  0  0
  143.6750   75.9660  219.2440 C   0  0  2  0  0  0  0  0  0  0  0  0
  142.3640   76.1700  219.9890 C   0  0  0  0  0  0  0  0  0  0  0  0
  141.6890   77.3420  219.2910 C   0  0  0  0  0  0  0  0  0  0  0  0
  142.3570   77.5520  218.0020 N   0  0  0  0  0  0  0  0  0  0  0  0
  143.3470   76.4860  217.8460 C   0  0  0  0  0  0  0  0  0  0  0  0
  142.9440   73.6240  219.0160 C   0  0  0  0  0  0  0  0  0  0  0  0
  142.4080   71.2940  219.8880 C   0  0  0  0  0  0  0  0  0  0  0  0
  142.9430   70.4050  218.9480 C   0  0  0  0  0  0  0  0  0  0  0  0
  142.3220   69.1590  218.7700 C   0  0  0  0  0  0  0  0  0  0  0  0
  141.1810   68.8220  219.5190 C   0  0  0  0  0  0  0  0  0  0  0  0
  140.6610   69.7260  220.4600 C   0  0  0  0  0  0  0  0  0  0  0  0
  141.3140   70.9500  220.6410 C   0  0  0  0  0  0  0  0  0  0  0  0
  140.6634   72.5313  225.2650 H   0  0  0  0  0  0  0  0  0  0  0  0
  140.4742   68.7331  228.7021 H   0  0  0  0  0  0  0  0  0  0  0  0
  139.6588   66.8711  227.2359 H   0  0  0  0  0  0  0  0  0  0  0  0
  139.2071   67.2886  224.7918 H   0  0  0  0  0  0  0  0  0  0  0  0
  139.2710   69.2370  222.8710 H   0  0  0  0  0  0  0  0  0  0  0  0
  141.2093   73.9957  220.8854 H   0  0  0  0  0  0  0  0  0  0  0  0
  142.2741   73.5090  222.2115 H   0  0  0  0  0  0  0  0  0  0  0  0
  144.2736   72.5254  221.8754 H   0  0  0  0  0  0  0  0  0  0  0  0
  144.9304   71.9454  220.3599 H   0  0  0  0  0  0  0  0  0  0  0  0
  144.4327   74.8037  221.3028 H   0  0  0  0  0  0  0  0  0  0  0  0
  145.8271   74.1699  220.3936 H   0  0  0  0  0  0  0  0  0  0  0  0
  144.5268   76.4837  219.7092 H   0  0  0  0  0  0  0  0  0  0  0  0
  141.7377   75.2682  219.9223 H   0  0  0  0  0  0  0  0  0  0  0  0
  142.5246   76.3651  221.0596 H   0  0  0  0  0  0  0  0  0  0  0  0
  140.6251   77.1155  219.1269 H   0  0  0  0  0  0  0  0  0  0  0  0
  141.7633   78.2480  219.9104 H   0  0  0  0  0  0  0  0  0  0  0  0
  142.8390   78.4820  217.9980 H   0  0  0  0  0  0  0  0  0  0  0  0
  141.6630   77.5210  217.2180 H   0  0  0  0  0  0  0  0  0  0  0  0
  142.9330   75.6744  217.2296 H   0  0  0  0  0  0  0  0  0  0  0  0
  144.2520   76.8635  217.3476 H   0  0  0  0  0  0  0  0  0  0  0  0
  142.0119   74.2013  218.9266 H   0  0  0  0  0  0  0  0  0  0  0  0
  143.0835   73.0442  218.0917 H   0  0  0  0  0  0  0  0  0  0  0  0
  143.8322   70.6776  218.3607 H   0  0  0  0  0  0  0  0  0  0  0  0
  142.7298   68.4430  218.0413 H   0  0  0  0  0  0  0  0  0  0  0  0
  140.6939   67.8474  219.3677 H   0  0  0  0  0  0  0  0  0  0  0  0
  139.7609   69.4772  221.0413 H   0  0  0  0  0  0  0  0  0  0  0  0
  1  2  2  0
  2  3  1  0
  3  4  2  0
  4  5  1  0
  5  6  2  0
  6  7  1  0
  6  8  1  0
  8  9  2  0
  9 10  1  0
 10 11  2  0
 11 12  1  0
  2 13  1  0
 13 14  1  0
 15 14  1  1
 15 16  1  0
 16 17  1  0
 17 18  1  0
 18 19  1  0
 19 20  1  0
 20 21  1  0
 21 22  1  0
 22 23  1  0
 18 24  1  0
 15 25  1  0
 25 26  2  0
 26 27  1  0
 27 28  2  0
 28 29  1  0
 29 30  2  0
 12  3  1  0
 30 13  1  0
 11  5  1  0
 24 15  1  0
 30 25  1  0
 23 19  1  0
  4 31  1  0
  8 32  1  0
  9 33  1  0
 10 34  1  0
 12 35  1  0
 14 36  1  0
 14 37  1  0
 16 38  1  0
 16 39  1  0
 17 40  1  0
 17 41  1  0
 19 42  1  1
 20 43  1  0
 20 44  1  0
 21 45  1  0
 21 46  1  0
 22 47  1  0
 22 48  1  0
 23 49  1  0
 23 50  1  0
 24 51  1  0
 24 52  1  0
 26 53  1  0
 27 54  1  0
 28 55  1  0
 29 56  1  0
M  CHG  1  22   1
M  END
>  <UniqueID>  (28) 
162

>  <SMILES>  (28) 
O=C(c1cc2c(Cl)cccc2[nH]1)N1C[C@@]2(CCN([C@@H]3CC[NH2+]C3)C2)c2ccccc21

>  <Energy>  (28) 
122.5250531362307

>  <Genealogy>  (28) 
O=C(c1cc2c(Cl)cccc2[nH]1)N1C[C@@]2(CCN(C3CC[NH2+]C3)C2)c2ccccc21 (protonated)
O=C(c1cc2c(Cl)cccc2[nH]1)N1C[C@@]2(CCN([C@@H]3CC[NH2+]C3)C2)c2ccccc21 (chirality)
O=C(c1cc2c(Cl)cccc2[nH]1)N1C[C@@]2(CCN([C@@H]3CC[NH2+]C3)C2)c2ccccc21 (3D coordinates assigned)
O=C(c1cc2c(Cl)cccc2[nH]1)N1C[C@@]2(CCN([C@@H]3CC[NH2+]C3)C2)c2ccccc21 (nonaromatic ring conformer: 122.5250531362307 kcal/mol)

>  <smiles>  (28) 
O=C(c1cc2c(Cl)cccc2[nH]1)N1C[C@@]2(CCN(C3CCNC3)C2)c2ccccc21

>  <score_type>  (28) 
oracle

>  <origin>  (28) 
autodockgpu

>  <m_score__min__energy>  (28) 
-8.9299999999999997

>  <m_primary>  (28) 
energy

>  <meeko>  (28) 
{"free_energy": -8.26, "intermolecular_energy": -9.15, "internal_energy": -0.99, "cluster_size": 2, "cluster_id": 3, "rank_in_cluster": 2}

>  <energy>  (28) 
-8.57

>  <cluster_rmsd>  (28) 
0.03

>  <rmsd>  (28) 
271.05

>  <cluster>  (28) 
2

$$$$
KZWACXAMTSGJSU-CZASUABUNA-O
     RDKit          3D

 56 61  0  0  0  0  0  0  0  0999 V2000
  138.3490   77.1690  222.4290 O   0  0  0  0  0  0  0  0  0  0  0  0
  139.4800   77.1360  221.8750 C   0  0  0  0  0  0  0  0  0  0  0  0
  140.1470   75.8380  221.6700 C   0  0  0  0  0  0  0  0  0  0  0  0
  141.3510   75.6440  220.9950 C   0  0  0  0  0  0  0  0  0  0  0  0
  141.5930   74.2880  221.0750 C   0  0  0  0  0  0  0  0  0  0  0  0
  142.6450   73.5150  220.5790 C   0  0  0  0  0  0  0  0  0  0  0  0
  143.9650   74.2350  219.6700 Cl  0  0  0  0  0  0  0  0  0  0  0  0
  142.6160   72.1310  220.8280 C   0  0  0  0  0  0  0  0  0  0  0  0
  141.5510   71.5570  221.5590 C   0  0  0  0  0  0  0  0  0  0  0  0
  140.5060   72.3630  222.0460 C   0  0  0  0  0  0  0  0  0  0  0  0
  140.5600   73.7310  221.7830 C   0  0  0  0  0  0  0  0  0  0  0  0
  139.6720   74.6670  222.1570 N   0  0  0  0  0  0  0  0  0  0  0  0
  140.1180   78.3660  221.5070 N   0  0  0  0  0  0  0  0  0  0  0  0
  139.9980   78.9840  220.1890 C   0  0  0  0  0  0  0  0  0  0  0  0
  140.7690   80.3470  220.2870 C   0  0  2  0  0  0  0  0  0  0  0  0
  139.8490   81.5400  220.0850 C   0  0  0  0  0  0  0  0  0  0  0  0
  139.8730   81.7390  218.5840 C   0  0  0  0  0  0  0  0  0  0  0  0
  141.2120   81.3410  218.1080 N   0  0  0  0  0  0  0  0  0  0  0  0
  141.1600   80.6400  216.8010 C   0  0  2  0  0  0  0  0  0  0  0  0
  141.5260   79.1690  216.9340 C   0  0  0  0  0  0  0  0  0  0  0  0
  142.2010   78.8070  215.6180 C   0  0  0  0  0  0  0  0  0  0  0  0
  142.5590   80.0540  214.9310 N   0  0  0  0  0  0  0  0  0  0  0  0
  142.2160   81.1580  215.8280 C   0  0  0  0  0  0  0  0  0  0  0  0
  141.8150   80.5140  219.1730 C   0  0  0  0  0  0  0  0  0  0  0  0
  141.3620   80.3020  221.6680 C   0  0  0  0  0  0  0  0  0  0  0  0
  142.2100   81.2290  222.2870 C   0  0  0  0  0  0  0  0  0  0  0  0
  142.6750   80.9570  223.5830 C   0  0  0  0  0  0  0  0  0  0  0  0
  142.2980   79.7700  224.2360 C   0  0  0  0  0  0  0  0  0  0  0  0
  141.4440   78.8540  223.6000 C   0  0  0  0  0  0  0  0  0  0  0  0
  140.9700   79.1610  222.3200 C   0  0  0  0  0  0  0  0  0  0  0  0
  141.9735   76.4069  220.5046 H   0  0  0  0  0  0  0  0  0  0  0  0
  143.4275   71.4910  220.4514 H   0  0  0  0  0  0  0  0  0  0  0  0
  141.5393   70.4735  221.7482 H   0  0  0  0  0  0  0  0  0  0  0  0
  139.6724   71.9275  222.6165 H   0  0  0  0  0  0  0  0  0  0  0  0
  138.7960   74.5180  222.7080 H   0  0  0  0  0  0  0  0  0  0  0  0
  140.4524   78.3408  219.4210 H   0  0  0  0  0  0  0  0  0  0  0  0
  138.9458   79.1324  219.9046 H   0  0  0  0  0  0  0  0  0  0  0  0
  138.8311   81.3184  220.4381 H   0  0  0  0  0  0  0  0  0  0  0  0
  140.1664   82.4317  220.6454 H   0  0  0  0  0  0  0  0  0  0  0  0
  139.1035   81.1125  218.1092 H   0  0  0  0  0  0  0  0  0  0  0  0
  139.6655   82.7884  218.3277 H   0  0  0  0  0  0  0  0  0  0  0  0
  140.1309   80.8049  216.4492 H   0  0  0  0  0  0  0  0  0  0  0  0
  142.2167   79.0177  217.7766 H   0  0  0  0  0  0  0  0  0  0  0  0
  140.6444   78.5414  217.1311 H   0  0  0  0  0  0  0  0  0  0  0  0
  143.1077   78.2159  215.8142 H   0  0  0  0  0  0  0  0  0  0  0  0
  141.5215   78.2091  214.9929 H   0  0  0  0  0  0  0  0  0  0  0  0
  142.0120   80.1400  214.0430 H   0  0  0  0  0  0  0  0  0  0  0  0
  143.5820   80.0710  214.7080 H   0  0  0  0  0  0  0  0  0  0  0  0
  143.1089   81.4855  216.3807 H   0  0  0  0  0  0  0  0  0  0  0  0
  141.8332   82.0180  215.2589 H   0  0  0  0  0  0  0  0  0  0  0  0
  142.0928   79.5290  218.7698 H   0  0  0  0  0  0  0  0  0  0  0  0
  142.7221   80.9959  219.5667 H   0  0  0  0  0  0  0  0  0  0  0  0
  142.5059   82.1523  221.7675 H   0  0  0  0  0  0  0  0  0  0  0  0
  143.3367   81.6749  224.0897 H   0  0  0  0  0  0  0  0  0  0  0  0
  142.6731   79.5582  225.2481 H   0  0  0  0  0  0  0  0  0  0  0  0
  141.1544   77.9164  224.0971 H   0  0  0  0  0  0  0  0  0  0  0  0
  1  2  2  0
  2  3  1  0
  3  4  2  0
  4  5  1  0
  5  6  2  0
  6  7  1  0
  6  8  1  0
  8  9  2  0
  9 10  1  0
 10 11  2  0
 11 12  1  0
  2 13  1  0
 13 14  1  0
 15 14  1  6
 15 16  1  0
 16 17  1  0
 17 18  1  0
 18 19  1  0
 19 20  1  0
 20 21  1  0
 21 22  1  0
 22 23  1  0
 18 24  1  0
 15 25  1  0
 25 26  2  0
 26 27  1  0
 27 28  2  0
 28 29  1  0
 29 30  2  0
 12  3  1  0
 30 13  1  0
 11  5  1  0
 24 15  1  0
 30 25  1  0
 23 19  1  0
  4 31  1  0
  8 32  1  0
  9 33  1  0
 10 34  1  0
 12 35  1  0
 14 36  1  0
 14 37  1  0
 16 38  1  0
 16 39  1  0
 17 40  1  0
 17 41  1  0
 19 42  1  6
 20 43  1  0
 20 44  1  0
 21 45  1  0
 21 46  1  0
 22 47  1  0
 22 48  1  0
 23 49  1  0
 23 50  1  0
 24 51  1  0
 24 52  1  0
 26 53  1  0
 27 54  1  0
 28 55  1  0
 29 56  1  0
M  CHG  1  22   1
M  END
>  <UniqueID>  (29) 
162

>  <SMILES>  (29) 
O=C(c1cc2c(Cl)cccc2[nH]1)N1C[C@@]2(CCN([C@@H]3CC[NH2+]C3)C2)c2ccccc21

>  <Energy>  (29) 
122.5250531362307

>  <Genealogy>  (29) 
O=C(c1cc2c(Cl)cccc2[nH]1)N1C[C@@]2(CCN(C3CC[NH2+]C3)C2)c2ccccc21 (protonated)
O=C(c1cc2c(Cl)cccc2[nH]1)N1C[C@@]2(CCN([C@@H]3CC[NH2+]C3)C2)c2ccccc21 (chirality)
O=C(c1cc2c(Cl)cccc2[nH]1)N1C[C@@]2(CCN([C@@H]3CC[NH2+]C3)C2)c2ccccc21 (3D coordinates assigned)
O=C(c1cc2c(Cl)cccc2[nH]1)N1C[C@@]2(CCN([C@@H]3CC[NH2+]C3)C2)c2ccccc21 (nonaromatic ring conformer: 122.5250531362307 kcal/mol)

>  <smiles>  (29) 
O=C(c1cc2c(Cl)cccc2[nH]1)N1C[C@@]2(CCN(C3CCNC3)C2)c2ccccc21

>  <score_type>  (29) 
oracle

>  <origin>  (29) 
autodockgpu

>  <m_score__min__energy>  (29) 
-8.9299999999999997

>  <m_primary>  (29) 
energy

>  <meeko>  (29) 
{"free_energy": -8.57, "intermolecular_energy": -9.47, "internal_energy": -1.14, "cluster_size": 13, "cluster_id": 2, "rank_in_cluster": 4}

>  <energy>  (29) 
-8.57

>  <cluster_rmsd>  (29) 
0.03

>  <rmsd>  (29) 
271.04

>  <cluster>  (29) 
2

$$$$
KZWACXAMTSGJSU-CZASUABUNA-O
     RDKit          3D

 56 61  0  0  0  0  0  0  0  0999 V2000
  139.3810   76.7140  219.3290 O   0  0  0  0  0  0  0  0  0  0  0  0
  140.4860   77.0630  219.8230 C   0  0  0  0  0  0  0  0  0  0  0  0
  141.5180   76.0420  220.0810 C   0  0  0  0  0  0  0  0  0  0  0  0
  141.2790   74.6850  220.2900 C   0  0  0  0  0  0  0  0  0  0  0  0
  142.5270   74.1240  220.4620 C   0  0  0  0  0  0  0  0  0  0  0  0
  142.9110   72.8040  220.7100 C   0  0  0  0  0  0  0  0  0  0  0  0
  141.7270   71.5160  220.8620 Cl  0  0  0  0  0  0  0  0  0  0  0  0
  144.2860   72.5340  220.8360 C   0  0  0  0  0  0  0  0  0  0  0  0
  145.2340   73.5740  220.7130 C   0  0  0  0  0  0  0  0  0  0  0  0
  144.8160   74.8940  220.4630 C   0  0  0  0  0  0  0  0  0  0  0  0
  143.4480   75.1330  220.3430 C   0  0  0  0  0  0  0  0  0  0  0  0
  142.8450   76.3090  220.1050 N   0  0  0  0  0  0  0  0  0  0  0  0
  140.6950   78.4370  220.1750 N   0  0  0  0  0  0  0  0  0  0  0  0
  140.5470   79.5490  219.2390 C   0  0  0  0  0  0  0  0  0  0  0  0
  140.7700   80.8510  220.0890 C   0  0  2  0  0  0  0  0  0  0  0  0
  139.5260   81.7240  220.1340 C   0  0  0  0  0  0  0  0  0  0  0  0
  139.6840   82.6040  218.9110 C   0  0  0  0  0  0  0  0  0  0  0  0
  141.1290   82.8280  218.7120 N   0  0  0  0  0  0  0  0  0  0  0  0
  141.5050   82.8360  217.2770 C   0  0  2  0  0  0  0  0  0  0  0  0
  140.6920   81.8320  216.4730 C   0  0  0  0  0  0  0  0  0  0  0  0
  141.6240   81.3630  215.3650 C   0  0  0  0  0  0  0  0  0  0  0  0
  142.9920   81.7550  215.7220 N   0  0  0  0  0  0  0  0  0  0  0  0
  142.9380   82.3570  217.0550 C   0  0  0  0  0  0  0  0  0  0  0  0
  141.8320   81.7780  219.4780 C   0  0  0  0  0  0  0  0  0  0  0  0
  141.1460   80.3120  221.4410 C   0  0  0  0  0  0  0  0  0  0  0  0
  141.5220   81.0180  222.5910 C   0  0  0  0  0  0  0  0  0  0  0  0
  141.8710   80.2950  223.7420 C   0  0  0  0  0  0  0  0  0  0  0  0
  141.8500   78.8890  223.7290 C   0  0  0  0  0  0  0  0  0  0  0  0
  141.4670   78.1990  222.5680 C   0  0  0  0  0  0  0  0  0  0  0  0
  141.0940   78.9410  221.4410 C   0  0  0  0  0  0  0  0  0  0  0  0
  140.3059   74.1725  220.3128 H   0  0  0  0  0  0  0  0  0  0  0  0
  144.6251   71.5060  221.0316 H   0  0  0  0  0  0  0  0  0  0  0  0
  146.3063   73.3503  220.8134 H   0  0  0  0  0  0  0  0  0  0  0  0
  145.5456   75.7114  220.3653 H   0  0  0  0  0  0  0  0  0  0  0  0
  143.3080   77.2360  219.9700 H   0  0  0  0  0  0  0  0  0  0  0  0
  141.2986   79.4797  218.4388 H   0  0  0  0  0  0  0  0  0  0  0  0
  139.5594   79.5439  218.7547 H   0  0  0  0  0  0  0  0  0  0  0  0
  138.6126   81.1147  220.0675 H   0  0  0  0  0  0  0  0  0  0  0  0
  139.4300   82.2945  221.0696 H   0  0  0  0  0  0  0  0  0  0  0  0
  139.2563   82.1034  218.0298 H   0  0  0  0  0  0  0  0  0  0  0  0
  139.1583   83.5602  219.0501 H   0  0  0  0  0  0  0  0  0  0  0  0
  141.3446   83.8784  216.9643 H   0  0  0  0  0  0  0  0  0  0  0  0
  140.3885   80.9854  217.1064 H   0  0  0  0  0  0  0  0  0  0  0  0
  139.7679   82.2756  216.0738 H   0  0  0  0  0  0  0  0  0  0  0  0
  141.5638   80.2692  215.2655 H   0  0  0  0  0  0  0  0  0  0  0  0
  141.3353   81.8190  214.4065 H   0  0  0  0  0  0  0  0  0  0  0  0
  143.3520   82.4570  215.0340 H   0  0  0  0  0  0  0  0  0  0  0  0
  143.6250   80.9210  215.7260 H   0  0  0  0  0  0  0  0  0  0  0  0
  143.2081   81.6107  217.8167 H   0  0  0  0  0  0  0  0  0  0  0  0
  143.6462   83.1950  217.1338 H   0  0  0  0  0  0  0  0  0  0  0  0
  142.4896   81.2037  218.8089 H   0  0  0  0  0  0  0  0  0  0  0  0
  142.4497   82.2282  220.2691 H   0  0  0  0  0  0  0  0  0  0  0  0
  141.5433   82.1178  222.5918 H   0  0  0  0  0  0  0  0  0  0  0  0
  142.1621   80.8302  224.6579 H   0  0  0  0  0  0  0  0  0  0  0  0
  142.1346   78.3281  224.6314 H   0  0  0  0  0  0  0  0  0  0  0  0
  141.4601   77.0993  222.5443 H   0  0  0  0  0  0  0  0  0  0  0  0
  1  2  2  0
  2  3  1  0
  3  4  2  0
  4  5  1  0
  5  6  2  0
  6  7  1  0
  6  8  1  0
  8  9  2  0
  9 10  1  0
 10 11  2  0
 11 12  1  0
  2 13  1  0
 13 14  1  0
 15 14  1  6
 15 16  1  0
 16 17  1  0
 17 18  1  0
 18 19  1  0
 19 20  1  0
 20 21  1  0
 21 22  1  0
 22 23  1  0
 18 24  1  0
 15 25  1  0
 25 26  2  0
 26 27  1  0
 27 28  2  0
 28 29  1  0
 29 30  2  0
 12  3  1  0
 30 13  1  0
 11  5  1  0
 24 15  1  0
 30 25  1  0
 23 19  1  0
  4 31  1  0
  8 32  1  0
  9 33  1  0
 10 34  1  0
 12 35  1  0
 14 36  1  0
 14 37  1  0
 16 38  1  0
 16 39  1  0
 17 40  1  0
 17 41  1  0
 19 42  1  6
 20 43  1  0
 20 44  1  0
 21 45  1  0
 21 46  1  0
 22 47  1  0
 22 48  1  0
 23 49  1  0
 23 50  1  0
 24 51  1  0
 24 52  1  0
 26 53  1  0
 27 54  1  0
 28 55  1  0
 29 56  1  0
M  CHG  1  22   1
M  END
>  <UniqueID>  (30) 
162

>  <SMILES>  (30) 
O=C(c1cc2c(Cl)cccc2[nH]1)N1C[C@@]2(CCN([C@@H]3CC[NH2+]C3)C2)c2ccccc21

>  <Energy>  (30) 
122.5250531362307

>  <Genealogy>  (30) 
O=C(c1cc2c(Cl)cccc2[nH]1)N1C[C@@]2(CCN(C3CC[NH2+]C3)C2)c2ccccc21 (protonated)
O=C(c1cc2c(Cl)cccc2[nH]1)N1C[C@@]2(CCN([C@@H]3CC[NH2+]C3)C2)c2ccccc21 (chirality)
O=C(c1cc2c(Cl)cccc2[nH]1)N1C[C@@]2(CCN([C@@H]3CC[NH2+]C3)C2)c2ccccc21 (3D coordinates assigned)
O=C(c1cc2c(Cl)cccc2[nH]1)N1C[C@@]2(CCN([C@@H]3CC[NH2+]C3)C2)c2ccccc21 (nonaromatic ring conformer: 122.5250531362307 kcal/mol)

>  <smiles>  (30) 
O=C(c1cc2c(Cl)cccc2[nH]1)N1C[C@@]2(CCN(C3CCNC3)C2)c2ccccc21

>  <score_type>  (30) 
oracle

>  <origin>  (30) 
autodockgpu

>  <m_score__min__energy>  (30) 
-8.9299999999999997

>  <m_primary>  (30) 
energy

>  <meeko>  (30) 
{"free_energy": -8.26, "intermolecular_energy": -9.16, "internal_energy": -1.02, "cluster_size": 1, "cluster_id": 4, "rank_in_cluster": 1}

>  <energy>  (30) 
-8.57

>  <cluster_rmsd>  (30) 
0.06

>  <rmsd>  (30) 
271.04

>  <cluster>  (30) 
2

$$$$
KZWACXAMTSGJSU-CZASUABUNA-O
     RDKit          3D

 56 61  0  0  0  0  0  0  0  0999 V2000
  138.2510   77.2410  222.3020 O   0  0  0  0  0  0  0  0  0  0  0  0
  139.4040   77.2020  221.7960 C   0  0  0  0  0  0  0  0  0  0  0  0
  140.0700   75.8990  221.6150 C   0  0  0  0  0  0  0  0  0  0  0  0
  141.2680   75.6900  220.9350 C   0  0  0  0  0  0  0  0  0  0  0  0
  141.5110   74.3370  221.0450 C   0  0  0  0  0  0  0  0  0  0  0  0
  142.5590   73.5530  220.5580 C   0  0  0  0  0  0  0  0  0  0  0  0
  143.8700   74.2510  219.6210 Cl  0  0  0  0  0  0  0  0  0  0  0  0
  142.5340   72.1740  220.8400 C   0  0  0  0  0  0  0  0  0  0  0  0
  141.4750   71.6180  221.5940 C   0  0  0  0  0  0  0  0  0  0  0  0
  140.4340   72.4340  222.0710 C   0  0  0  0  0  0  0  0  0  0  0  0
  140.4850   73.7960  221.7750 C   0  0  0  0  0  0  0  0  0  0  0  0
  139.6000   74.7400  222.1350 N   0  0  0  0  0  0  0  0  0  0  0  0
  140.0650   78.4280  221.4580 N   0  0  0  0  0  0  0  0  0  0  0  0
  139.9590   79.0790  220.1540 C   0  0  0  0  0  0  0  0  0  0  0  0
  140.7550   80.4250  220.2860 C   0  0  2  0  0  0  0  0  0  0  0  0
  139.8580   81.6400  220.1120 C   0  0  0  0  0  0  0  0  0  0  0  0
  139.8880   81.8730  218.6150 C   0  0  0  0  0  0  0  0  0  0  0  0
  141.2200   81.4620  218.1320 N   0  0  0  0  0  0  0  0  0  0  0  0
  141.1580   80.7930  216.8090 C   0  0  2  0  0  0  0  0  0  0  0  0
  141.4420   79.3020  216.9150 C   0  0  0  0  0  0  0  0  0  0  0  0
  142.1240   78.9330  215.6050 C   0  0  0  0  0  0  0  0  0  0  0  0
  142.5610   80.1730  214.9530 N   0  0  0  0  0  0  0  0  0  0  0  0
  142.2600   81.2750  215.8680 C   0  0  0  0  0  0  0  0  0  0  0  0
  141.8050   80.5980  219.1780 C   0  0  0  0  0  0  0  0  0  0  0  0
  141.3440   80.3360  221.6670 C   0  0  0  0  0  0  0  0  0  0  0  0
  142.2080   81.2330  222.3090 C   0  0  0  0  0  0  0  0  0  0  0  0
  142.6650   80.9210  223.5990 C   0  0  0  0  0  0  0  0  0  0  0  0
  142.2660   79.7260  224.2220 C   0  0  0  0  0  0  0  0  0  0  0  0
  141.3960   78.8420  223.5640 C   0  0  0  0  0  0  0  0  0  0  0  0
  140.9300   79.1880  222.2910 C   0  0  0  0  0  0  0  0  0  0  0  0
  141.8860   76.4414  220.4217 H   0  0  0  0  0  0  0  0  0  0  0  0
  143.3427   71.5256  220.4718 H   0  0  0  0  0  0  0  0  0  0  0  0
  141.4654   70.5393  221.8090 H   0  0  0  0  0  0  0  0  0  0  0  0
  139.6058   72.0116  222.6589 H   0  0  0  0  0  0  0  0  0  0  0  0
  138.7290   74.6040  222.6970 H   0  0  0  0  0  0  0  0  0  0  0  0
  140.4031   78.4458  219.3719 H   0  0  0  0  0  0  0  0  0  0  0  0
  138.9104   79.2533  219.8710 H   0  0  0  0  0  0  0  0  0  0  0  0
  138.8356   81.4298  220.4592 H   0  0  0  0  0  0  0  0  0  0  0  0
  140.1912   82.5122  220.6936 H   0  0  0  0  0  0  0  0  0  0  0  0
  139.1082   81.2715  218.1250 H   0  0  0  0  0  0  0  0  0  0  0  0
  139.6998   82.9315  218.3825 H   0  0  0  0  0  0  0  0  0  0  0  0
  140.1464   81.0203  216.4416 H   0  0  0  0  0  0  0  0  0  0  0  0
  142.1058   79.0951  217.7674 H   0  0  0  0  0  0  0  0  0  0  0  0
  140.5241   78.7187  217.0798 H   0  0  0  0  0  0  0  0  0  0  0  0
  142.9941   78.2907  215.8057 H   0  0  0  0  0  0  0  0  0  0  0  0
  141.4269   78.3854  214.9537 H   0  0  0  0  0  0  0  0  0  0  0  0
  142.0380   80.3080  214.0570 H   0  0  0  0  0  0  0  0  0  0  0  0
  143.5880   80.1400  214.7510 H   0  0  0  0  0  0  0  0  0  0  0  0
  143.1579   81.5419  216.4447 H   0  0  0  0  0  0  0  0  0  0  0  0
  141.9357   82.1668  215.3116 H   0  0  0  0  0  0  0  0  0  0  0  0
  142.0641   79.6176  218.7517 H   0  0  0  0  0  0  0  0  0  0  0  0
  142.7206   81.0527  219.5841 H   0  0  0  0  0  0  0  0  0  0  0  0
  142.5218   82.1629  221.8122 H   0  0  0  0  0  0  0  0  0  0  0  0
  143.3381   81.6145  224.1244 H   0  0  0  0  0  0  0  0  0  0  0  0
  142.6366   79.4824  225.2286 H   0  0  0  0  0  0  0  0  0  0  0  0
  141.0878   77.8988  224.0386 H   0  0  0  0  0  0  0  0  0  0  0  0
  1  2  2  0
  2  3  1  0
  3  4  2  0
  4  5  1  0
  5  6  2  0
  6  7  1  0
  6  8  1  0
  8  9  2  0
  9 10  1  0
 10 11  2  0
 11 12  1  0
  2 13  1  0
 13 14  1  0
 15 14  1  6
 15 16  1  0
 16 17  1  0
 17 18  1  0
 18 19  1  0
 19 20  1  0
 20 21  1  0
 21 22  1  0
 22 23  1  0
 18 24  1  0
 15 25  1  0
 25 26  2  0
 26 27  1  0
 27 28  2  0
 28 29  1  0
 29 30  2  0
 12  3  1  0
 30 13  1  0
 11  5  1  0
 24 15  1  0
 30 25  1  0
 23 19  1  0
  4 31  1  0
  8 32  1  0
  9 33  1  0
 10 34  1  0
 12 35  1  0
 14 36  1  0
 14 37  1  0
 16 38  1  0
 16 39  1  0
 17 40  1  0
 17 41  1  0
 19 42  1  6
 20 43  1  0
 20 44  1  0
 21 45  1  0
 21 46  1  0
 22 47  1  0
 22 48  1  0
 23 49  1  0
 23 50  1  0
 24 51  1  0
 24 52  1  0
 26 53  1  0
 27 54  1  0
 28 55  1  0
 29 56  1  0
M  CHG  1  22   1
M  END
>  <UniqueID>  (31) 
162

>  <SMILES>  (31) 
O=C(c1cc2c(Cl)cccc2[nH]1)N1C[C@@]2(CCN([C@@H]3CC[NH2+]C3)C2)c2ccccc21

>  <Energy>  (31) 
122.5250531362307

>  <Genealogy>  (31) 
O=C(c1cc2c(Cl)cccc2[nH]1)N1C[C@@]2(CCN(C3CC[NH2+]C3)C2)c2ccccc21 (protonated)
O=C(c1cc2c(Cl)cccc2[nH]1)N1C[C@@]2(CCN([C@@H]3CC[NH2+]C3)C2)c2ccccc21 (chirality)
O=C(c1cc2c(Cl)cccc2[nH]1)N1C[C@@]2(CCN([C@@H]3CC[NH2+]C3)C2)c2ccccc21 (3D coordinates assigned)
O=C(c1cc2c(Cl)cccc2[nH]1)N1C[C@@]2(CCN([C@@H]3CC[NH2+]C3)C2)c2ccccc21 (nonaromatic ring conformer: 122.5250531362307 kcal/mol)

>  <smiles>  (31) 
O=C(c1cc2c(Cl)cccc2[nH]1)N1C[C@@]2(CCN(C3CCNC3)C2)c2ccccc21

>  <score_type>  (31) 
oracle

>  <origin>  (31) 
autodockgpu

>  <m_score__min__energy>  (31) 
-8.9299999999999997

>  <m_primary>  (31) 
energy

>  <meeko>  (31) 
{"free_energy": -8.57, "intermolecular_energy": -9.46, "internal_energy": -1.14, "cluster_size": 13, "cluster_id": 2, "rank_in_cluster": 8}

>  <energy>  (31) 
-8.57

>  <cluster_rmsd>  (31) 
0.05

>  <rmsd>  (31) 
271.07

>  <cluster>  (31) 
2

$$$$
KZWACXAMTSGJSU-CZASUABUNA-O
     RDKit          3D

 56 61  0  0  0  0  0  0  0  0999 V2000
  138.2890   77.2210  222.4060 O   0  0  0  0  0  0  0  0  0  0  0  0
  139.4270   77.1730  221.8670 C   0  0  0  0  0  0  0  0  0  0  0  0
  140.0830   75.8670  221.6790 C   0  0  0  0  0  0  0  0  0  0  0  0
  141.2890   75.6550  221.0130 C   0  0  0  0  0  0  0  0  0  0  0  0
  141.5170   74.2980  221.1080 C   0  0  0  0  0  0  0  0  0  0  0  0
  142.5650   73.5100  220.6260 C   0  0  0  0  0  0  0  0  0  0  0  0
  143.8960   74.2080  219.7180 Cl  0  0  0  0  0  0  0  0  0  0  0  0
  142.5220   72.1290  220.8900 C   0  0  0  0  0  0  0  0  0  0  0  0
  141.4470   71.5730  221.6210 C   0  0  0  0  0  0  0  0  0  0  0  0
  140.4070   72.3930  222.0930 C   0  0  0  0  0  0  0  0  0  0  0  0
  140.4750   73.7580  221.8170 C   0  0  0  0  0  0  0  0  0  0  0  0
  139.5940   74.7050  222.1750 N   0  0  0  0  0  0  0  0  0  0  0  0
  140.0820   78.3950  221.4990 N   0  0  0  0  0  0  0  0  0  0  0  0
  139.9660   79.0160  220.1820 C   0  0  0  0  0  0  0  0  0  0  0  0
  140.7590   80.3680  220.2800 C   0  0  2  0  0  0  0  0  0  0  0  0
  139.8560   81.5750  220.0840 C   0  0  0  0  0  0  0  0  0  0  0  0
  139.8770   81.7760  218.5830 C   0  0  0  0  0  0  0  0  0  0  0  0
  141.2080   81.3590  218.1010 N   0  0  0  0  0  0  0  0  0  0  0  0
  141.1410   80.6610  216.7930 C   0  0  2  0  0  0  0  0  0  0  0  0
  141.5260   79.1940  216.9140 C   0  0  0  0  0  0  0  0  0  0  0  0
  142.1810   78.8440  215.5860 C   0  0  0  0  0  0  0  0  0  0  0  0
  142.5120   80.0970  214.8960 N   0  0  0  0  0  0  0  0  0  0  0  0
  142.1730   81.1950  215.8030 C   0  0  0  0  0  0  0  0  0  0  0  0
  141.8020   80.5200  219.1630 C   0  0  0  0  0  0  0  0  0  0  0  0
  141.3560   80.3110  221.6590 C   0  0  0  0  0  0  0  0  0  0  0  0
  142.2200   81.2240  222.2760 C   0  0  0  0  0  0  0  0  0  0  0  0
  142.6850   80.9420  223.5700 C   0  0  0  0  0  0  0  0  0  0  0  0
  142.2930   79.7590  224.2220 C   0  0  0  0  0  0  0  0  0  0  0  0
  141.4230   78.8580  223.5880 C   0  0  0  0  0  0  0  0  0  0  0  0
  140.9480   79.1750  222.3100 C   0  0  0  0  0  0  0  0  0  0  0  0
  141.9217   76.4069  220.5188 H   0  0  0  0  0  0  0  0  0  0  0  0
  143.3298   71.4775  220.5254 H   0  0  0  0  0  0  0  0  0  0  0  0
  141.4242   70.4917  221.8218 H   0  0  0  0  0  0  0  0  0  0  0  0
  139.5658   71.9708  222.6623 H   0  0  0  0  0  0  0  0  0  0  0  0
  138.7140   74.5710  222.7230 H   0  0  0  0  0  0  0  0  0  0  0  0
  140.4076   78.3670  219.4114 H   0  0  0  0  0  0  0  0  0  0  0  0
  138.9152   79.1804  219.9011 H   0  0  0  0  0  0  0  0  0  0  0  0
  138.8363   81.3680  220.4409 H   0  0  0  0  0  0  0  0  0  0  0  0
  140.1888   82.4609  220.6447 H   0  0  0  0  0  0  0  0  0  0  0  0
  139.0964   81.1617  218.1104 H   0  0  0  0  0  0  0  0  0  0  0  0
  139.6841   82.8288  218.3292 H   0  0  0  0  0  0  0  0  0  0  0  0
  140.1038   80.8144  216.4605 H   0  0  0  0  0  0  0  0  0  0  0  0
  142.2333   79.0478  217.7436 H   0  0  0  0  0  0  0  0  0  0  0  0
  140.6551   78.5558  217.1243 H   0  0  0  0  0  0  0  0  0  0  0  0
  143.0980   78.2631  215.7642 H   0  0  0  0  0  0  0  0  0  0  0  0
  141.4973   78.2399  214.9715 H   0  0  0  0  0  0  0  0  0  0  0  0
  141.9470   80.1790  214.0180 H   0  0  0  0  0  0  0  0  0  0  0  0
  143.5300   80.1260  214.6550 H   0  0  0  0  0  0  0  0  0  0  0  0
  143.0720   81.5310  216.3404 H   0  0  0  0  0  0  0  0  0  0  0  0
  141.7704   82.0527  215.2442 H   0  0  0  0  0  0  0  0  0  0  0  0
  142.0623   79.5313  218.7571 H   0  0  0  0  0  0  0  0  0  0  0  0
  142.7182   80.9867  219.5539 H   0  0  0  0  0  0  0  0  0  0  0  0
  142.5281   82.1437  221.7571 H   0  0  0  0  0  0  0  0  0  0  0  0
  143.3587   81.6490  224.0762 H   0  0  0  0  0  0  0  0  0  0  0  0
  142.6694   79.5391  225.2320 H   0  0  0  0  0  0  0  0  0  0  0  0
  141.1213   77.9239  224.0844 H   0  0  0  0  0  0  0  0  0  0  0  0
  1  2  2  0
  2  3  1  0
  3  4  2  0
  4  5  1  0
  5  6  2  0
  6  7  1  0
  6  8  1  0
  8  9  2  0
  9 10  1  0
 10 11  2  0
 11 12  1  0
  2 13  1  0
 13 14  1  0
 15 14  1  6
 15 16  1  0
 16 17  1  0
 17 18  1  0
 18 19  1  0
 19 20  1  0
 20 21  1  0
 21 22  1  0
 22 23  1  0
 18 24  1  0
 15 25  1  0
 25 26  2  0
 26 27  1  0
 27 28  2  0
 28 29  1  0
 29 30  2  0
 12  3  1  0
 30 13  1  0
 11  5  1  0
 24 15  1  0
 30 25  1  0
 23 19  1  0
  4 31  1  0
  8 32  1  0
  9 33  1  0
 10 34  1  0
 12 35  1  0
 14 36  1  0
 14 37  1  0
 16 38  1  0
 16 39  1  0
 17 40  1  0
 17 41  1  0
 19 42  1  6
 20 43  1  0
 20 44  1  0
 21 45  1  0
 21 46  1  0
 22 47  1  0
 22 48  1  0
 23 49  1  0
 23 50  1  0
 24 51  1  0
 24 52  1  0
 26 53  1  0
 27 54  1  0
 28 55  1  0
 29 56  1  0
M  CHG  1  22   1
M  END
>  <UniqueID>  (32) 
162

>  <SMILES>  (32) 
O=C(c1cc2c(Cl)cccc2[nH]1)N1C[C@@]2(CCN([C@@H]3CC[NH2+]C3)C2)c2ccccc21

>  <Energy>  (32) 
122.5250531362307

>  <Genealogy>  (32) 
O=C(c1cc2c(Cl)cccc2[nH]1)N1C[C@@]2(CCN(C3CC[NH2+]C3)C2)c2ccccc21 (protonated)
O=C(c1cc2c(Cl)cccc2[nH]1)N1C[C@@]2(CCN([C@@H]3CC[NH2+]C3)C2)c2ccccc21 (chirality)
O=C(c1cc2c(Cl)cccc2[nH]1)N1C[C@@]2(CCN([C@@H]3CC[NH2+]C3)C2)c2ccccc21 (3D coordinates assigned)
O=C(c1cc2c(Cl)cccc2[nH]1)N1C[C@@]2(CCN([C@@H]3CC[NH2+]C3)C2)c2ccccc21 (nonaromatic ring conformer: 122.5250531362307 kcal/mol)

>  <smiles>  (32) 
O=C(c1cc2c(Cl)cccc2[nH]1)N1C[C@@]2(CCN(C3CCNC3)C2)c2ccccc21

>  <score_type>  (32) 
oracle

>  <origin>  (32) 
autodockgpu

>  <m_score__min__energy>  (32) 
-8.9299999999999997

>  <m_primary>  (32) 
energy

>  <meeko>  (32) 
{"free_energy": -8.57, "intermolecular_energy": -9.46, "internal_energy": -1.14, "cluster_size": 13, "cluster_id": 2, "rank_in_cluster": 9}

>  <energy>  (32) 
-8.57

>  <cluster_rmsd>  (32) 
0.09

>  <rmsd>  (32) 
271.04

>  <cluster>  (32) 
2

$$$$
KZWACXAMTSGJSU-CZASUABUNA-O
     RDKit          3D

 56 61  0  0  0  0  0  0  0  0999 V2000
  138.2610   77.2340  222.3220 O   0  0  0  0  0  0  0  0  0  0  0  0
  139.4110   77.1920  221.8100 C   0  0  0  0  0  0  0  0  0  0  0  0
  140.0760   75.8890  221.6300 C   0  0  0  0  0  0  0  0  0  0  0  0
  141.2750   75.6780  220.9510 C   0  0  0  0  0  0  0  0  0  0  0  0
  141.5160   74.3250  221.0610 C   0  0  0  0  0  0  0  0  0  0  0  0
  142.5630   73.5400  220.5750 C   0  0  0  0  0  0  0  0  0  0  0  0
  143.8760   74.2360  219.6390 Cl  0  0  0  0  0  0  0  0  0  0  0  0
  142.5360   72.1610  220.8570 C   0  0  0  0  0  0  0  0  0  0  0  0
  141.4760   71.6060  221.6090 C   0  0  0  0  0  0  0  0  0  0  0  0
  140.4350   72.4240  222.0860 C   0  0  0  0  0  0  0  0  0  0  0  0
  140.4880   73.7850  221.7900 C   0  0  0  0  0  0  0  0  0  0  0  0
  139.6040   74.7300  222.1490 N   0  0  0  0  0  0  0  0  0  0  0  0
  140.0720   78.4180  221.4660 N   0  0  0  0  0  0  0  0  0  0  0  0
  139.9680   79.0590  220.1570 C   0  0  0  0  0  0  0  0  0  0  0  0
  140.7620   80.4070  220.2810 C   0  0  2  0  0  0  0  0  0  0  0  0
  139.8630   81.6190  220.0950 C   0  0  0  0  0  0  0  0  0  0  0  0
  139.8970   81.8420  218.5970 C   0  0  0  0  0  0  0  0  0  0  0  0
  141.2320   81.4290  218.1210 N   0  0  0  0  0  0  0  0  0  0  0  0
  141.1750   80.7510  216.8030 C   0  0  2  0  0  0  0  0  0  0  0  0
  141.5160   79.2720  216.9130 C   0  0  0  0  0  0  0  0  0  0  0  0
  142.1910   78.9210  215.5940 C   0  0  0  0  0  0  0  0  0  0  0  0
  142.5720   80.1720  214.9300 N   0  0  0  0  0  0  0  0  0  0  0  0
  142.2440   81.2670  215.8430 C   0  0  0  0  0  0  0  0  0  0  0  0
  141.8150   80.5740  219.1750 C   0  0  0  0  0  0  0  0  0  0  0  0
  141.3470   80.3300  221.6640 C   0  0  0  0  0  0  0  0  0  0  0  0
  142.2080   81.2320  222.3020 C   0  0  0  0  0  0  0  0  0  0  0  0
  142.6610   80.9310  223.5960 C   0  0  0  0  0  0  0  0  0  0  0  0
  142.2620   79.7390  224.2270 C   0  0  0  0  0  0  0  0  0  0  0  0
  141.3960   78.8490  223.5720 C   0  0  0  0  0  0  0  0  0  0  0  0
  140.9320   79.1850  222.2950 C   0  0  0  0  0  0  0  0  0  0  0  0
  141.8947   76.4285  220.4384 H   0  0  0  0  0  0  0  0  0  0  0  0
  143.3446   71.5118  220.4899 H   0  0  0  0  0  0  0  0  0  0  0  0
  141.4646   70.5271  221.8230 H   0  0  0  0  0  0  0  0  0  0  0  0
  139.6060   72.0028  222.6736 H   0  0  0  0  0  0  0  0  0  0  0  0
  138.7320   74.5960  222.7100 H   0  0  0  0  0  0  0  0  0  0  0  0
  140.4148   78.4206  219.3806 H   0  0  0  0  0  0  0  0  0  0  0  0
  138.9198   79.2297  219.8702 H   0  0  0  0  0  0  0  0  0  0  0  0
  138.8399   81.4091  220.4403 H   0  0  0  0  0  0  0  0  0  0  0  0
  140.1930   82.4959  220.6713 H   0  0  0  0  0  0  0  0  0  0  0  0
  139.1194   81.2363  218.1087 H   0  0  0  0  0  0  0  0  0  0  0  0
  139.7079   82.8986  218.3565 H   0  0  0  0  0  0  0  0  0  0  0  0
  140.1504   80.9391  216.4496 H   0  0  0  0  0  0  0  0  0  0  0  0
  142.2002   79.0952  217.7559 H   0  0  0  0  0  0  0  0  0  0  0  0
  140.6233   78.6558  217.0957 H   0  0  0  0  0  0  0  0  0  0  0  0
  143.0870   78.3119  215.7842 H   0  0  0  0  0  0  0  0  0  0  0  0
  141.5046   78.3448  214.9562 H   0  0  0  0  0  0  0  0  0  0  0  0
  142.0310   80.2820  214.0400 H   0  0  0  0  0  0  0  0  0  0  0  0
  143.5970   80.1760  214.7120 H   0  0  0  0  0  0  0  0  0  0  0  0
  143.1399   81.5703  216.4046 H   0  0  0  0  0  0  0  0  0  0  0  0
  141.8785   82.1426  215.2865 H   0  0  0  0  0  0  0  0  0  0  0  0
  142.0773   79.5910  218.7568 H   0  0  0  0  0  0  0  0  0  0  0  0
  142.7284   81.0336  219.5807 H   0  0  0  0  0  0  0  0  0  0  0  0
  142.5230   82.1581  221.7988 H   0  0  0  0  0  0  0  0  0  0  0  0
  143.3306   81.6300  224.1185 H   0  0  0  0  0  0  0  0  0  0  0  0
  142.6295   79.5034  225.2367 H   0  0  0  0  0  0  0  0  0  0  0  0
  141.0888   77.9081  224.0520 H   0  0  0  0  0  0  0  0  0  0  0  0
  1  2  2  0
  2  3  1  0
  3  4  2  0
  4  5  1  0
  5  6  2  0
  6  7  1  0
  6  8  1  0
  8  9  2  0
  9 10  1  0
 10 11  2  0
 11 12  1  0
  2 13  1  0
 13 14  1  0
 15 14  1  6
 15 16  1  0
 16 17  1  0
 17 18  1  0
 18 19  1  0
 19 20  1  0
 20 21  1  0
 21 22  1  0
 22 23  1  0
 18 24  1  0
 15 25  1  0
 25 26  2  0
 26 27  1  0
 27 28  2  0
 28 29  1  0
 29 30  2  0
 12  3  1  0
 30 13  1  0
 11  5  1  0
 24 15  1  0
 30 25  1  0
 23 19  1  0
  4 31  1  0
  8 32  1  0
  9 33  1  0
 10 34  1  0
 12 35  1  0
 14 36  1  0
 14 37  1  0
 16 38  1  0
 16 39  1  0
 17 40  1  0
 17 41  1  0
 19 42  1  6
 20 43  1  0
 20 44  1  0
 21 45  1  0
 21 46  1  0
 22 47  1  0
 22 48  1  0
 23 49  1  0
 23 50  1  0
 24 51  1  0
 24 52  1  0
 26 53  1  0
 27 54  1  0
 28 55  1  0
 29 56  1  0
M  CHG  1  22   1
M  END
>  <UniqueID>  (33) 
162

>  <SMILES>  (33) 
O=C(c1cc2c(Cl)cccc2[nH]1)N1C[C@@]2(CCN([C@@H]3CC[NH2+]C3)C2)c2ccccc21

>  <Energy>  (33) 
122.5250531362307

>  <Genealogy>  (33) 
O=C(c1cc2c(Cl)cccc2[nH]1)N1C[C@@]2(CCN(C3CC[NH2+]C3)C2)c2ccccc21 (protonated)
O=C(c1cc2c(Cl)cccc2[nH]1)N1C[C@@]2(CCN([C@@H]3CC[NH2+]C3)C2)c2ccccc21 (chirality)
O=C(c1cc2c(Cl)cccc2[nH]1)N1C[C@@]2(CCN([C@@H]3CC[NH2+]C3)C2)c2ccccc21 (3D coordinates assigned)
O=C(c1cc2c(Cl)cccc2[nH]1)N1C[C@@]2(CCN([C@@H]3CC[NH2+]C3)C2)c2ccccc21 (nonaromatic ring conformer: 122.5250531362307 kcal/mol)

>  <smiles>  (33) 
O=C(c1cc2c(Cl)cccc2[nH]1)N1C[C@@]2(CCN(C3CCNC3)C2)c2ccccc21

>  <score_type>  (33) 
oracle

>  <origin>  (33) 
autodockgpu

>  <m_score__min__energy>  (33) 
-8.9299999999999997

>  <m_primary>  (33) 
energy

>  <meeko>  (33) 
{"free_energy": -8.58, "intermolecular_energy": -9.47, "internal_energy": -1.13, "cluster_size": 13, "cluster_id": 2, "rank_in_cluster": 2}

>  <energy>  (33) 
-8.57

>  <cluster_rmsd>  (33) 
0.04

>  <rmsd>  (33) 
271.04

>  <cluster>  (33) 
2

$$$$
KZWACXAMTSGJSU-CZASUABUNA-O
     RDKit          3D

 56 61  0  0  0  0  0  0  0  0999 V2000
  138.3410   77.1880  222.3750 O   0  0  0  0  0  0  0  0  0  0  0  0
  139.4840   77.1610  221.8450 C   0  0  0  0  0  0  0  0  0  0  0  0
  140.1610   75.8660  221.6510 C   0  0  0  0  0  0  0  0  0  0  0  0
  141.3610   75.6750  220.9680 C   0  0  0  0  0  0  0  0  0  0  0  0
  141.6160   74.3230  221.0650 C   0  0  0  0  0  0  0  0  0  0  0  0
  142.6710   73.5530  220.5710 C   0  0  0  0  0  0  0  0  0  0  0  0
  143.9750   74.2720  219.6400 Cl  0  0  0  0  0  0  0  0  0  0  0  0
  142.6580   72.1720  220.8400 C   0  0  0  0  0  0  0  0  0  0  0  0
  141.6050   71.5990  221.5890 C   0  0  0  0  0  0  0  0  0  0  0  0
  140.5570   72.4010  222.0740 C   0  0  0  0  0  0  0  0  0  0  0  0
  140.5950   73.7660  221.7910 C   0  0  0  0  0  0  0  0  0  0  0  0
  139.7020   74.6980  222.1600 N   0  0  0  0  0  0  0  0  0  0  0  0
  140.1230   78.3960  221.4930 N   0  0  0  0  0  0  0  0  0  0  0  0
  140.0030   79.0300  220.1820 C   0  0  0  0  0  0  0  0  0  0  0  0
  140.7770   80.3910  220.2970 C   0  0  2  0  0  0  0  0  0  0  0  0
  139.8580   81.5880  220.1120 C   0  0  0  0  0  0  0  0  0  0  0  0
  139.8820   81.8060  218.6130 C   0  0  0  0  0  0  0  0  0  0  0  0
  141.2200   81.4120  218.1310 N   0  0  0  0  0  0  0  0  0  0  0  0
  141.1670   80.7280  216.8160 C   0  0  2  0  0  0  0  0  0  0  0  0
  141.4880   79.2450  216.9360 C   0  0  0  0  0  0  0  0  0  0  0  0
  142.1710   78.8790  215.6260 C   0  0  0  0  0  0  0  0  0  0  0  0
  142.5750   80.1220  214.9590 N   0  0  0  0  0  0  0  0  0  0  0  0
  142.2520   81.2260  215.8640 C   0  0  0  0  0  0  0  0  0  0  0  0
  141.8220   80.5700  219.1860 C   0  0  0  0  0  0  0  0  0  0  0  0
  141.3700   80.3270  221.6780 C   0  0  0  0  0  0  0  0  0  0  0  0
  142.2190   81.2450  222.3090 C   0  0  0  0  0  0  0  0  0  0  0  0
  142.6840   80.9550  223.6010 C   0  0  0  0  0  0  0  0  0  0  0  0
  142.3060   79.7600  224.2380 C   0  0  0  0  0  0  0  0  0  0  0  0
  141.4510   78.8540  223.5910 C   0  0  0  0  0  0  0  0  0  0  0  0
  140.9760   79.1780  222.3150 C   0  0  0  0  0  0  0  0  0  0  0  0
  141.9718   76.4369  220.4617 H   0  0  0  0  0  0  0  0  0  0  0  0
  143.4722   71.5344  220.4652 H   0  0  0  0  0  0  0  0  0  0  0  0
  141.6055   70.5182  221.7938 H   0  0  0  0  0  0  0  0  0  0  0  0
  139.7330   71.9655  222.6583 H   0  0  0  0  0  0  0  0  0  0  0  0
  138.8330   74.5490  222.7210 H   0  0  0  0  0  0  0  0  0  0  0  0
  140.4559   78.3954  219.4060 H   0  0  0  0  0  0  0  0  0  0  0  0
  138.9510   79.1834  219.8995 H   0  0  0  0  0  0  0  0  0  0  0  0
  138.8400   81.3631  220.4628 H   0  0  0  0  0  0  0  0  0  0  0  0
  140.1762   82.4719  220.6842 H   0  0  0  0  0  0  0  0  0  0  0  0
  139.1113   81.1869  218.1307 H   0  0  0  0  0  0  0  0  0  0  0  0
  139.6764   82.8590  218.3704 H   0  0  0  0  0  0  0  0  0  0  0  0
  140.1482   80.9270  216.4520 H   0  0  0  0  0  0  0  0  0  0  0  0
  142.1616   79.0634  217.7865 H   0  0  0  0  0  0  0  0  0  0  0  0
  140.5856   78.6413  217.1126 H   0  0  0  0  0  0  0  0  0  0  0  0
  143.0572   78.2594  215.8281 H   0  0  0  0  0  0  0  0  0  0  0  0
  141.4833   78.3086  214.9843 H   0  0  0  0  0  0  0  0  0  0  0  0
  142.0440   80.2350  214.0640 H   0  0  0  0  0  0  0  0  0  0  0  0
  143.6020   80.1110  214.7510 H   0  0  0  0  0  0  0  0  0  0  0  0
  143.1461   81.5206  216.4330 H   0  0  0  0  0  0  0  0  0  0  0  0
  141.9032   82.1036  215.2999 H   0  0  0  0  0  0  0  0  0  0  0  0
  142.0980   79.5896  218.7704 H   0  0  0  0  0  0  0  0  0  0  0  0
  142.7300   81.0453  219.5855 H   0  0  0  0  0  0  0  0  0  0  0  0
  142.5155   82.1750  221.8019 H   0  0  0  0  0  0  0  0  0  0  0  0
  143.3467   81.6653  224.1172 H   0  0  0  0  0  0  0  0  0  0  0  0
  142.6816   79.5342  225.2470 H   0  0  0  0  0  0  0  0  0  0  0  0
  141.1608   77.9104  224.0761 H   0  0  0  0  0  0  0  0  0  0  0  0
  1  2  2  0
  2  3  1  0
  3  4  2  0
  4  5  1  0
  5  6  2  0
  6  7  1  0
  6  8  1  0
  8  9  2  0
  9 10  1  0
 10 11  2  0
 11 12  1  0
  2 13  1  0
 13 14  1  0
 15 14  1  6
 15 16  1  0
 16 17  1  0
 17 18  1  0
 18 19  1  0
 19 20  1  0
 20 21  1  0
 21 22  1  0
 22 23  1  0
 18 24  1  0
 15 25  1  0
 25 26  2  0
 26 27  1  0
 27 28  2  0
 28 29  1  0
 29 30  2  0
 12  3  1  0
 30 13  1  0
 11  5  1  0
 24 15  1  0
 30 25  1  0
 23 19  1  0
  4 31  1  0
  8 32  1  0
  9 33  1  0
 10 34  1  0
 12 35  1  0
 14 36  1  0
 14 37  1  0
 16 38  1  0
 16 39  1  0
 17 40  1  0
 17 41  1  0
 19 42  1  6
 20 43  1  0
 20 44  1  0
 21 45  1  0
 21 46  1  0
 22 47  1  0
 22 48  1  0
 23 49  1  0
 23 50  1  0
 24 51  1  0
 24 52  1  0
 26 53  1  0
 27 54  1  0
 28 55  1  0
 29 56  1  0
M  CHG  1  22   1
M  END
>  <UniqueID>  (34) 
162

>  <SMILES>  (34) 
O=C(c1cc2c(Cl)cccc2[nH]1)N1C[C@@]2(CCN([C@@H]3CC[NH2+]C3)C2)c2ccccc21

>  <Energy>  (34) 
122.5250531362307

>  <Genealogy>  (34) 
O=C(c1cc2c(Cl)cccc2[nH]1)N1C[C@@]2(CCN(C3CC[NH2+]C3)C2)c2ccccc21 (protonated)
O=C(c1cc2c(Cl)cccc2[nH]1)N1C[C@@]2(CCN([C@@H]3CC[NH2+]C3)C2)c2ccccc21 (chirality)
O=C(c1cc2c(Cl)cccc2[nH]1)N1C[C@@]2(CCN([C@@H]3CC[NH2+]C3)C2)c2ccccc21 (3D coordinates assigned)
O=C(c1cc2c(Cl)cccc2[nH]1)N1C[C@@]2(CCN([C@@H]3CC[NH2+]C3)C2)c2ccccc21 (nonaromatic ring conformer: 122.5250531362307 kcal/mol)

>  <smiles>  (34) 
O=C(c1cc2c(Cl)cccc2[nH]1)N1C[C@@]2(CCN(C3CCNC3)C2)c2ccccc21

>  <score_type>  (34) 
oracle

>  <origin>  (34) 
autodockgpu

>  <m_score__min__energy>  (34) 
-8.9299999999999997

>  <m_primary>  (34) 
energy

>  <meeko>  (34) 
{"free_energy": -8.56, "intermolecular_energy": -9.46, "internal_energy": -1.14, "cluster_size": 13, "cluster_id": 2, "rank_in_cluster": 10}

>  <energy>  (34) 
-8.56

>  <cluster_rmsd>  (34) 
0.07

>  <rmsd>  (34) 
271.07

>  <cluster>  (34) 
2

$$$$
KZWACXAMTSGJSU-CZASUABUNA-O
     RDKit          3D

 56 61  0  0  0  0  0  0  0  0999 V2000
  138.3230   77.2000  222.4180 O   0  0  0  0  0  0  0  0  0  0  0  0
  139.4550   77.1610  221.8670 C   0  0  0  0  0  0  0  0  0  0  0  0
  140.1180   75.8590  221.6680 C   0  0  0  0  0  0  0  0  0  0  0  0
  141.3210   75.6580  220.9950 C   0  0  0  0  0  0  0  0  0  0  0  0
  141.5570   74.3020  221.0820 C   0  0  0  0  0  0  0  0  0  0  0  0
  142.6070   73.5220  220.5890 C   0  0  0  0  0  0  0  0  0  0  0  0
  143.9290   74.2320  219.6780 Cl  0  0  0  0  0  0  0  0  0  0  0  0
  142.5730   72.1390  220.8460 C   0  0  0  0  0  0  0  0  0  0  0  0
  141.5050   71.5730  221.5790 C   0  0  0  0  0  0  0  0  0  0  0  0
  140.4630   72.3850  222.0620 C   0  0  0  0  0  0  0  0  0  0  0  0
  140.5220   73.7510  221.7930 C   0  0  0  0  0  0  0  0  0  0  0  0
  139.6380   74.6920  222.1610 N   0  0  0  0  0  0  0  0  0  0  0  0
  140.1000   78.3880  221.4970 N   0  0  0  0  0  0  0  0  0  0  0  0
  139.9830   79.0020  220.1770 C   0  0  0  0  0  0  0  0  0  0  0  0
  140.7610   80.3630  220.2730 C   0  0  2  0  0  0  0  0  0  0  0  0
  139.8470   81.5600  220.0690 C   0  0  0  0  0  0  0  0  0  0  0  0
  139.8720   81.7550  218.5670 C   0  0  0  0  0  0  0  0  0  0  0  0
  141.2100   81.3500  218.0920 N   0  0  0  0  0  0  0  0  0  0  0  0
  141.1550   80.6460  216.7870 C   0  0  2  0  0  0  0  0  0  0  0  0
  141.5270   79.1770  216.9210 C   0  0  0  0  0  0  0  0  0  0  0  0
  142.1980   78.8150  215.6030 C   0  0  0  0  0  0  0  0  0  0  0  0
  142.5480   80.0620  214.9120 N   0  0  0  0  0  0  0  0  0  0  0  0
  142.2050   81.1670  215.8080 C   0  0  0  0  0  0  0  0  0  0  0  0
  141.8080   80.5210  219.1600 C   0  0  0  0  0  0  0  0  0  0  0  0
  141.3530   80.3180  221.6550 C   0  0  0  0  0  0  0  0  0  0  0  0
  142.2050   81.2420  222.2720 C   0  0  0  0  0  0  0  0  0  0  0  0
  142.6680   80.9700  223.5690 C   0  0  0  0  0  0  0  0  0  0  0  0
  142.2850   79.7860  224.2240 C   0  0  0  0  0  0  0  0  0  0  0  0
  141.4270   78.8730  223.5900 C   0  0  0  0  0  0  0  0  0  0  0  0
  140.9550   79.1800  222.3090 C   0  0  0  0  0  0  0  0  0  0  0  0
  141.9468   76.4161  220.5014 H   0  0  0  0  0  0  0  0  0  0  0  0
  143.3828   71.4941  220.4741 H   0  0  0  0  0  0  0  0  0  0  0  0
  141.4887   70.4904  221.7729 H   0  0  0  0  0  0  0  0  0  0  0  0
  139.6276   71.9552  222.6342 H   0  0  0  0  0  0  0  0  0  0  0  0
  138.7620   74.5500  222.7130 H   0  0  0  0  0  0  0  0  0  0  0  0
  140.4350   78.3546  219.4111 H   0  0  0  0  0  0  0  0  0  0  0  0
  138.9318   79.1537  219.8907 H   0  0  0  0  0  0  0  0  0  0  0  0
  138.8280   81.3444  220.4229 H   0  0  0  0  0  0  0  0  0  0  0  0
  140.1686   82.4514  220.6275 H   0  0  0  0  0  0  0  0  0  0  0  0
  139.1000   81.1305  218.0938 H   0  0  0  0  0  0  0  0  0  0  0  0
  139.6689   82.8046  218.3079 H   0  0  0  0  0  0  0  0  0  0  0  0
  140.1236   80.8057  216.4395 H   0  0  0  0  0  0  0  0  0  0  0  0
  142.2217   79.0298  217.7611 H   0  0  0  0  0  0  0  0  0  0  0  0
  140.6485   78.5465  217.1227 H   0  0  0  0  0  0  0  0  0  0  0  0
  143.1079   78.2280  215.7967 H   0  0  0  0  0  0  0  0  0  0  0  0
  141.5183   78.2130  214.9820 H   0  0  0  0  0  0  0  0  0  0  0  0
  141.9970   80.1440  214.0260 H   0  0  0  0  0  0  0  0  0  0  0  0
  143.5700   80.0820  214.6850 H   0  0  0  0  0  0  0  0  0  0  0  0
  143.0991   81.4992  216.3559 H   0  0  0  0  0  0  0  0  0  0  0  0
  141.8166   82.0246  215.2391 H   0  0  0  0  0  0  0  0  0  0  0  0
  142.0801   79.5334  218.7592 H   0  0  0  0  0  0  0  0  0  0  0  0
  142.7178   80.9982  219.5531 H   0  0  0  0  0  0  0  0  0  0  0  0
  142.5056   82.1628  221.7507 H   0  0  0  0  0  0  0  0  0  0  0  0
  143.3328   81.6856  224.0748 H   0  0  0  0  0  0  0  0  0  0  0  0
  142.6589   79.5743  225.2366 H   0  0  0  0  0  0  0  0  0  0  0  0
  141.1327   77.9379  224.0889 H   0  0  0  0  0  0  0  0  0  0  0  0
  1  2  2  0
  2  3  1  0
  3  4  2  0
  4  5  1  0
  5  6  2  0
  6  7  1  0
  6  8  1  0
  8  9  2  0
  9 10  1  0
 10 11  2  0
 11 12  1  0
  2 13  1  0
 13 14  1  0
 15 14  1  6
 15 16  1  0
 16 17  1  0
 17 18  1  0
 18 19  1  0
 19 20  1  0
 20 21  1  0
 21 22  1  0
 22 23  1  0
 18 24  1  0
 15 25  1  0
 25 26  2  0
 26 27  1  0
 27 28  2  0
 28 29  1  0
 29 30  2  0
 12  3  1  0
 30 13  1  0
 11  5  1  0
 24 15  1  0
 30 25  1  0
 23 19  1  0
  4 31  1  0
  8 32  1  0
  9 33  1  0
 10 34  1  0
 12 35  1  0
 14 36  1  0
 14 37  1  0
 16 38  1  0
 16 39  1  0
 17 40  1  0
 17 41  1  0
 19 42  1  6
 20 43  1  0
 20 44  1  0
 21 45  1  0
 21 46  1  0
 22 47  1  0
 22 48  1  0
 23 49  1  0
 23 50  1  0
 24 51  1  0
 24 52  1  0
 26 53  1  0
 27 54  1  0
 28 55  1  0
 29 56  1  0
M  CHG  1  22   1
M  END
>  <UniqueID>  (35) 
162

>  <SMILES>  (35) 
O=C(c1cc2c(Cl)cccc2[nH]1)N1C[C@@]2(CCN([C@@H]3CC[NH2+]C3)C2)c2ccccc21

>  <Energy>  (35) 
122.5250531362307

>  <Genealogy>  (35) 
O=C(c1cc2c(Cl)cccc2[nH]1)N1C[C@@]2(CCN(C3CC[NH2+]C3)C2)c2ccccc21 (protonated)
O=C(c1cc2c(Cl)cccc2[nH]1)N1C[C@@]2(CCN([C@@H]3CC[NH2+]C3)C2)c2ccccc21 (chirality)
O=C(c1cc2c(Cl)cccc2[nH]1)N1C[C@@]2(CCN([C@@H]3CC[NH2+]C3)C2)c2ccccc21 (3D coordinates assigned)
O=C(c1cc2c(Cl)cccc2[nH]1)N1C[C@@]2(CCN([C@@H]3CC[NH2+]C3)C2)c2ccccc21 (nonaromatic ring conformer: 122.5250531362307 kcal/mol)

>  <smiles>  (35) 
O=C(c1cc2c(Cl)cccc2[nH]1)N1C[C@@]2(CCN(C3CCNC3)C2)c2ccccc21

>  <score_type>  (35) 
oracle

>  <origin>  (35) 
autodockgpu

>  <m_score__min__energy>  (35) 
-8.9299999999999997

>  <m_primary>  (35) 
energy

>  <meeko>  (35) 
{"free_energy": -8.58, "intermolecular_energy": -9.48, "internal_energy": -1.14, "cluster_size": 13, "cluster_id": 2, "rank_in_cluster": 1}

>  <energy>  (35) 
-8.56

>  <cluster_rmsd>  (35) 
0.1

>  <rmsd>  (35) 
271.05

>  <cluster>  (35) 
2

$$$$
KZWACXAMTSGJSU-CZASUABUNA-O
     RDKit          3D

 56 61  0  0  0  0  0  0  0  0999 V2000
  140.1200   70.8220  221.2920 O   0  0  0  0  0  0  0  0  0  0  0  0
  139.6950   71.3970  222.3300 C   0  0  0  0  0  0  0  0  0  0  0  0
  139.8570   70.7380  223.6380 C   0  0  0  0  0  0  0  0  0  0  0  0
  140.2510   71.3670  224.8180 C   0  0  0  0  0  0  0  0  0  0  0  0
  140.2380   70.3740  225.7750 C   0  0  0  0  0  0  0  0  0  0  0  0
  140.5450   70.4110  227.1370 C   0  0  0  0  0  0  0  0  0  0  0  0
  141.0590   71.8950  227.9230 Cl  0  0  0  0  0  0  0  0  0  0  0  0
  140.4330   69.2140  227.8680 C   0  0  0  0  0  0  0  0  0  0  0  0
  140.0200   68.0220  227.2300 C   0  0  0  0  0  0  0  0  0  0  0  0
  139.7160   68.0170  225.8570 C   0  0  0  0  0  0  0  0  0  0  0  0
  139.8380   69.2170  225.1570 C   0  0  0  0  0  0  0  0  0  0  0  0
  139.5970   69.4270  223.8530 N   0  0  0  0  0  0  0  0  0  0  0  0
  139.0150   72.6540  222.2080 N   0  0  0  0  0  0  0  0  0  0  0  0
  139.6910   73.9240  221.9540 C   0  0  0  0  0  0  0  0  0  0  0  0
  138.5480   74.9890  221.7980 C   0  0  2  0  0  0  0  0  0  0  0  0
  138.5220   75.6000  220.4060 C   0  0  0  0  0  0  0  0  0  0  0  0
  139.4730   76.7730  220.5320 C   0  0  0  0  0  0  0  0  0  0  0  0
  139.3680   77.2790  221.9150 N   0  0  0  0  0  0  0  0  0  0  0  0
  140.6790   77.7110  222.4580 C   0  0  2  0  0  0  0  0  0  0  0  0
  140.5670   79.0120  223.2390 C   0  0  0  0  0  0  0  0  0  0  0  0
  141.8990   79.7180  223.0280 C   0  0  0  0  0  0  0  0  0  0  0  0
  142.5820   79.0760  221.8990 N   0  0  0  0  0  0  0  0  0  0  0  0
  141.6690   78.0710  221.3530 C   0  0  0  0  0  0  0  0  0  0  0  0
  138.7470   76.2040  222.7160 C   0  0  0  0  0  0  0  0  0  0  0  0
  137.3060   74.1990  222.1040 C   0  0  0  0  0  0  0  0  0  0  0  0
  135.9810   74.6460  222.1810 C   0  0  0  0  0  0  0  0  0  0  0  0
  134.9780   73.7260  222.5240 C   0  0  0  0  0  0  0  0  0  0  0  0
  135.3070   72.3860  222.7920 C   0  0  0  0  0  0  0  0  0  0  0  0
  136.6410   71.9560  222.7070 C   0  0  0  0  0  0  0  0  0  0  0  0
  137.6200   72.8830  222.3340 C   0  0  0  0  0  0  0  0  0  0  0  0
  140.5151   72.4259  224.9559 H   0  0  0  0  0  0  0  0  0  0  0  0
  140.6682   69.2057  228.9425 H   0  0  0  0  0  0  0  0  0  0  0  0
  139.9359   67.0921  227.8115 H   0  0  0  0  0  0  0  0  0  0  0  0
  139.3922   67.0955  225.3510 H   0  0  0  0  0  0  0  0  0  0  0  0
  139.2770   68.7210  223.1510 H   0  0  0  0  0  0  0  0  0  0  0  0
  140.3463   74.1853  222.7979 H   0  0  0  0  0  0  0  0  0  0  0  0
  140.3253   73.8743  221.0567 H   0  0  0  0  0  0  0  0  0  0  0  0
  138.8773   74.8820  219.6522 H   0  0  0  0  0  0  0  0  0  0  0  0
  137.5132   75.8924  220.0793 H   0  0  0  0  0  0  0  0  0  0  0  0
  140.5032   76.4455  220.3285 H   0  0  0  0  0  0  0  0  0  0  0  0
  139.2159   77.5613  219.8091 H   0  0  0  0  0  0  0  0  0  0  0  0
  141.0080   76.8596  223.0719 H   0  0  0  0  0  0  0  0  0  0  0  0
  139.7397   79.6248  222.8517 H   0  0  0  0  0  0  0  0  0  0  0  0
  140.3584   78.8360  224.3046 H   0  0  0  0  0  0  0  0  0  0  0  0
  141.7261   80.7809  222.8035 H   0  0  0  0  0  0  0  0  0  0  0  0
  142.5156   79.6474  223.9362 H   0  0  0  0  0  0  0  0  0  0  0  0
  143.4580   78.6100  222.2330 H   0  0  0  0  0  0  0  0  0  0  0  0
  142.8260   79.7830  221.1660 H   0  0  0  0  0  0  0  0  0  0  0  0
  141.1320   78.4817  220.4853 H   0  0  0  0  0  0  0  0  0  0  0  0
  142.2228   77.1807  221.0203 H   0  0  0  0  0  0  0  0  0  0  0  0
  139.4052   75.9350  223.5553 H   0  0  0  0  0  0  0  0  0  0  0  0
  137.7822   76.5384  223.1250 H   0  0  0  0  0  0  0  0  0  0  0  0
  135.7312   75.6976  221.9767 H   0  0  0  0  0  0  0  0  0  0  0  0
  133.9300   74.0550  222.5833 H   0  0  0  0  0  0  0  0  0  0  0  0
  134.5173   71.6722  223.0691 H   0  0  0  0  0  0  0  0  0  0  0  0
  136.9104   70.9128  222.9289 H   0  0  0  0  0  0  0  0  0  0  0  0
  1  2  2  0
  2  3  1  0
  3  4  2  0
  4  5  1  0
  5  6  2  0
  6  7  1  0
  6  8  1  0
  8  9  2  0
  9 10  1  0
 10 11  2  0
 11 12  1  0
  2 13  1  0
 13 14  1  0
 15 14  1  6
 15 16  1  0
 16 17  1  0
 17 18  1  0
 18 19  1  0
 19 20  1  0
 20 21  1  0
 21 22  1  0
 22 23  1  0
 18 24  1  0
 15 25  1  0
 25 26  2  0
 26 27  1  0
 27 28  2  0
 28 29  1  0
 29 30  2  0
 12  3  1  0
 30 13  1  0
 11  5  1  0
 24 15  1  0
 30 25  1  0
 23 19  1  0
  4 31  1  0
  8 32  1  0
  9 33  1  0
 10 34  1  0
 12 35  1  0
 14 36  1  0
 14 37  1  0
 16 38  1  0
 16 39  1  0
 17 40  1  0
 17 41  1  0
 19 42  1  1
 20 43  1  0
 20 44  1  0
 21 45  1  0
 21 46  1  0
 22 47  1  0
 22 48  1  0
 23 49  1  0
 23 50  1  0
 24 51  1  0
 24 52  1  0
 26 53  1  0
 27 54  1  0
 28 55  1  0
 29 56  1  0
M  CHG  1  22   1
M  END
>  <UniqueID>  (36) 
162

>  <SMILES>  (36) 
O=C(c1cc2c(Cl)cccc2[nH]1)N1C[C@@]2(CCN([C@@H]3CC[NH2+]C3)C2)c2ccccc21

>  <Energy>  (36) 
122.5250531362307

>  <Genealogy>  (36) 
O=C(c1cc2c(Cl)cccc2[nH]1)N1C[C@@]2(CCN(C3CC[NH2+]C3)C2)c2ccccc21 (protonated)
O=C(c1cc2c(Cl)cccc2[nH]1)N1C[C@@]2(CCN([C@@H]3CC[NH2+]C3)C2)c2ccccc21 (chirality)
O=C(c1cc2c(Cl)cccc2[nH]1)N1C[C@@]2(CCN([C@@H]3CC[NH2+]C3)C2)c2ccccc21 (3D coordinates assigned)
O=C(c1cc2c(Cl)cccc2[nH]1)N1C[C@@]2(CCN([C@@H]3CC[NH2+]C3)C2)c2ccccc21 (nonaromatic ring conformer: 122.5250531362307 kcal/mol)

>  <smiles>  (36) 
O=C(c1cc2c(Cl)cccc2[nH]1)N1C[C@@]2(CCN(C3CCNC3)C2)c2ccccc21

>  <score_type>  (36) 
oracle

>  <origin>  (36) 
autodockgpu

>  <m_score__min__energy>  (36) 
-8.9299999999999997

>  <m_primary>  (36) 
energy

>  <meeko>  (36) 
{"free_energy": -8.92, "intermolecular_energy": -9.81, "internal_energy": -0.97, "cluster_size": 4, "cluster_id": 1, "rank_in_cluster": 2}

>  <energy>  (36) 
-8.55

>  <cluster_rmsd>  (36) 
0.13

>  <rmsd>  (36) 
271.04

>  <cluster>  (36) 
2

$$$$
KZWACXAMTSGJSU-CZASUABUNA-O
     RDKit          3D

 56 61  0  0  0  0  0  0  0  0999 V2000
  138.3370   77.1730  222.4350 O   0  0  0  0  0  0  0  0  0  0  0  0
  139.4670   77.1380  221.8790 C   0  0  0  0  0  0  0  0  0  0  0  0
  140.1330   75.8390  221.6760 C   0  0  0  0  0  0  0  0  0  0  0  0
  141.3440   75.6460  221.0120 C   0  0  0  0  0  0  0  0  0  0  0  0
  141.5820   74.2890  221.0900 C   0  0  0  0  0  0  0  0  0  0  0  0
  142.6370   73.5160  220.6020 C   0  0  0  0  0  0  0  0  0  0  0  0
  143.9670   74.2360  219.7080 Cl  0  0  0  0  0  0  0  0  0  0  0  0
  142.6040   72.1310  220.8460 C   0  0  0  0  0  0  0  0  0  0  0  0
  141.5300   71.5570  221.5650 C   0  0  0  0  0  0  0  0  0  0  0  0
  140.4820   72.3630  222.0450 C   0  0  0  0  0  0  0  0  0  0  0  0
  140.5410   73.7320  221.7870 C   0  0  0  0  0  0  0  0  0  0  0  0
  139.6520   74.6680  222.1550 N   0  0  0  0  0  0  0  0  0  0  0  0
  140.1050   78.3680  221.5080 N   0  0  0  0  0  0  0  0  0  0  0  0
  139.9840   78.9810  220.1880 C   0  0  0  0  0  0  0  0  0  0  0  0
  140.7560   80.3450  220.2820 C   0  0  2  0  0  0  0  0  0  0  0  0
  139.8350   81.5380  220.0770 C   0  0  0  0  0  0  0  0  0  0  0  0
  139.8590   81.7320  218.5750 C   0  0  0  0  0  0  0  0  0  0  0  0
  141.1990   81.3330  218.1000 N   0  0  0  0  0  0  0  0  0  0  0  0
  141.1470   80.6280  216.7960 C   0  0  2  0  0  0  0  0  0  0  0  0
  141.5310   79.1620  216.9300 C   0  0  0  0  0  0  0  0  0  0  0  0
  142.2020   78.8050  215.6110 C   0  0  0  0  0  0  0  0  0  0  0  0
  142.5410   80.0540  214.9190 N   0  0  0  0  0  0  0  0  0  0  0  0
  142.1910   81.1560  215.8150 C   0  0  0  0  0  0  0  0  0  0  0  0
  141.8010   80.5090  219.1680 C   0  0  0  0  0  0  0  0  0  0  0  0
  141.3480   80.3040  221.6640 C   0  0  0  0  0  0  0  0  0  0  0  0
  142.1960   81.2330  222.2800 C   0  0  0  0  0  0  0  0  0  0  0  0
  142.6600   80.9650  223.5770 C   0  0  0  0  0  0  0  0  0  0  0  0
  142.2840   79.7800  224.2330 C   0  0  0  0  0  0  0  0  0  0  0  0
  141.4310   78.8620  223.6000 C   0  0  0  0  0  0  0  0  0  0  0  0
  140.9560   79.1650  222.3190 C   0  0  0  0  0  0  0  0  0  0  0  0
  141.9728   76.4095  220.5307 H   0  0  0  0  0  0  0  0  0  0  0  0
  143.4182   71.4908  220.4754 H   0  0  0  0  0  0  0  0  0  0  0  0
  141.5141   70.4728  221.7501 H   0  0  0  0  0  0  0  0  0  0  0  0
  139.6423   71.9271  222.6062 H   0  0  0  0  0  0  0  0  0  0  0  0
  138.7710   74.5190  222.6980 H   0  0  0  0  0  0  0  0  0  0  0  0
  140.4379   78.3352  219.4219 H   0  0  0  0  0  0  0  0  0  0  0  0
  138.9318   79.1283  219.9031 H   0  0  0  0  0  0  0  0  0  0  0  0
  138.8172   81.3173  220.4310 H   0  0  0  0  0  0  0  0  0  0  0  0
  140.1519   82.4315  220.6349 H   0  0  0  0  0  0  0  0  0  0  0  0
  139.0899   81.1035  218.1023 H   0  0  0  0  0  0  0  0  0  0  0  0
  139.6509   82.7804  218.3152 H   0  0  0  0  0  0  0  0  0  0  0  0
  140.1137   80.7796  216.4506 H   0  0  0  0  0  0  0  0  0  0  0  0
  142.2286   79.0207  217.7687 H   0  0  0  0  0  0  0  0  0  0  0  0
  140.6580   78.5245  217.1338 H   0  0  0  0  0  0  0  0  0  0  0  0
  143.1168   78.2250  215.8030 H   0  0  0  0  0  0  0  0  0  0  0  0
  141.5256   78.1977  214.9915 H   0  0  0  0  0  0  0  0  0  0  0  0
  141.9880   80.1310  214.0330 H   0  0  0  0  0  0  0  0  0  0  0  0
  143.5630   80.0820  214.6900 H   0  0  0  0  0  0  0  0  0  0  0  0
  143.0835   81.4953  216.3612 H   0  0  0  0  0  0  0  0  0  0  0  0
  141.7948   82.0101  215.2462 H   0  0  0  0  0  0  0  0  0  0  0  0
  142.0788   79.5228  218.7677 H   0  0  0  0  0  0  0  0  0  0  0  0
  142.7076   80.9926  219.5606 H   0  0  0  0  0  0  0  0  0  0  0  0
  142.4924   82.1545  221.7575 H   0  0  0  0  0  0  0  0  0  0  0  0
  143.3205   81.6850  224.0823 H   0  0  0  0  0  0  0  0  0  0  0  0
  142.6593   79.5713  225.2457 H   0  0  0  0  0  0  0  0  0  0  0  0
  141.1425   77.9255  224.0998 H   0  0  0  0  0  0  0  0  0  0  0  0
  1  2  2  0
  2  3  1  0
  3  4  2  0
  4  5  1  0
  5  6  2  0
  6  7  1  0
  6  8  1  0
  8  9  2  0
  9 10  1  0
 10 11  2  0
 11 12  1  0
  2 13  1  0
 13 14  1  0
 15 14  1  6
 15 16  1  0
 16 17  1  0
 17 18  1  0
 18 19  1  0
 19 20  1  0
 20 21  1  0
 21 22  1  0
 22 23  1  0
 18 24  1  0
 15 25  1  0
 25 26  2  0
 26 27  1  0
 27 28  2  0
 28 29  1  0
 29 30  2  0
 12  3  1  0
 30 13  1  0
 11  5  1  0
 24 15  1  0
 30 25  1  0
 23 19  1  0
  4 31  1  0
  8 32  1  0
  9 33  1  0
 10 34  1  0
 12 35  1  0
 14 36  1  0
 14 37  1  0
 16 38  1  0
 16 39  1  0
 17 40  1  0
 17 41  1  0
 19 42  1  6
 20 43  1  0
 20 44  1  0
 21 45  1  0
 21 46  1  0
 22 47  1  0
 22 48  1  0
 23 49  1  0
 23 50  1  0
 24 51  1  0
 24 52  1  0
 26 53  1  0
 27 54  1  0
 28 55  1  0
 29 56  1  0
M  CHG  1  22   1
M  END
>  <UniqueID>  (37) 
162

>  <SMILES>  (37) 
O=C(c1cc2c(Cl)cccc2[nH]1)N1C[C@@]2(CCN([C@@H]3CC[NH2+]C3)C2)c2ccccc21

>  <Energy>  (37) 
122.5250531362307

>  <Genealogy>  (37) 
O=C(c1cc2c(Cl)cccc2[nH]1)N1C[C@@]2(CCN(C3CC[NH2+]C3)C2)c2ccccc21 (protonated)
O=C(c1cc2c(Cl)cccc2[nH]1)N1C[C@@]2(CCN([C@@H]3CC[NH2+]C3)C2)c2ccccc21 (chirality)
O=C(c1cc2c(Cl)cccc2[nH]1)N1C[C@@]2(CCN([C@@H]3CC[NH2+]C3)C2)c2ccccc21 (3D coordinates assigned)
O=C(c1cc2c(Cl)cccc2[nH]1)N1C[C@@]2(CCN([C@@H]3CC[NH2+]C3)C2)c2ccccc21 (nonaromatic ring conformer: 122.5250531362307 kcal/mol)

>  <smiles>  (37) 
O=C(c1cc2c(Cl)cccc2[nH]1)N1C[C@@]2(CCN(C3CCNC3)C2)c2ccccc21

>  <score_type>  (37) 
oracle

>  <origin>  (37) 
autodockgpu

>  <m_score__min__energy>  (37) 
-8.9299999999999997

>  <m_primary>  (37) 
energy

>  <meeko>  (37) 
{"free_energy": -8.57, "intermolecular_energy": -9.47, "internal_energy": -1.14, "cluster_size": 13, "cluster_id": 2, "rank_in_cluster": 5}

>  <energy>  (37) 
-8.49

>  <cluster_rmsd>  (37) 
0.42

>  <rmsd>  (37) 
271.1

>  <cluster>  (37) 
2

$$$$
KZWACXAMTSGJSU-CZASUABUNA-O
     RDKit          3D

 56 61  0  0  0  0  0  0  0  0999 V2000
  138.2670   77.2160  222.3270 O   0  0  0  0  0  0  0  0  0  0  0  0
  139.4170   77.1760  221.8130 C   0  0  0  0  0  0  0  0  0  0  0  0
  140.0830   75.8730  221.6340 C   0  0  0  0  0  0  0  0  0  0  0  0
  141.2890   75.6660  220.9660 C   0  0  0  0  0  0  0  0  0  0  0  0
  141.5290   74.3120  221.0710 C   0  0  0  0  0  0  0  0  0  0  0  0
  142.5810   73.5290  220.5920 C   0  0  0  0  0  0  0  0  0  0  0  0
  143.9040   74.2300  219.6740 Cl  0  0  0  0  0  0  0  0  0  0  0  0
  142.5510   72.1490  220.8670 C   0  0  0  0  0  0  0  0  0  0  0  0
  141.4830   71.5910  221.6060 C   0  0  0  0  0  0  0  0  0  0  0  0
  140.4380   72.4060  222.0760 C   0  0  0  0  0  0  0  0  0  0  0  0
  140.4940   73.7690  221.7880 C   0  0  0  0  0  0  0  0  0  0  0  0
  139.6060   74.7120  222.1420 N   0  0  0  0  0  0  0  0  0  0  0  0
  140.0750   78.4020  221.4670 N   0  0  0  0  0  0  0  0  0  0  0  0
  139.9690   79.0400  220.1570 C   0  0  0  0  0  0  0  0  0  0  0  0
  140.7610   80.3910  220.2780 C   0  0  2  0  0  0  0  0  0  0  0  0
  139.8590   81.6000  220.0910 C   0  0  0  0  0  0  0  0  0  0  0  0
  139.8920   81.8210  218.5920 C   0  0  0  0  0  0  0  0  0  0  0  0
  141.2280   81.4100  218.1160 N   0  0  0  0  0  0  0  0  0  0  0  0
  141.1710   80.7290  216.7990 C   0  0  2  0  0  0  0  0  0  0  0  0
  141.4960   79.2470  216.9140 C   0  0  0  0  0  0  0  0  0  0  0  0
  142.1750   78.8860  215.6000 C   0  0  0  0  0  0  0  0  0  0  0  0
  142.5730   80.1320  214.9350 N   0  0  0  0  0  0  0  0  0  0  0  0
  142.2510   81.2330  215.8440 C   0  0  0  0  0  0  0  0  0  0  0  0
  141.8130   80.5580  219.1720 C   0  0  0  0  0  0  0  0  0  0  0  0
  141.3460   80.3170  221.6610 C   0  0  0  0  0  0  0  0  0  0  0  0
  142.2060   81.2220  222.2970 C   0  0  0  0  0  0  0  0  0  0  0  0
  142.6600   80.9230  223.5910 C   0  0  0  0  0  0  0  0  0  0  0  0
  142.2630   79.7320  224.2240 C   0  0  0  0  0  0  0  0  0  0  0  0
  141.3990   78.8390  223.5720 C   0  0  0  0  0  0  0  0  0  0  0  0
  140.9340   79.1720  222.2940 C   0  0  0  0  0  0  0  0  0  0  0  0
  141.9138   76.4194  220.4640 H   0  0  0  0  0  0  0  0  0  0  0  0
  143.3630   71.5012  220.5049 H   0  0  0  0  0  0  0  0  0  0  0  0
  141.4693   70.5111  221.8150 H   0  0  0  0  0  0  0  0  0  0  0  0
  139.6028   71.9817  222.6526 H   0  0  0  0  0  0  0  0  0  0  0  0
  138.7290   74.5750  222.6930 H   0  0  0  0  0  0  0  0  0  0  0  0
  140.4166   78.4009  219.3816 H   0  0  0  0  0  0  0  0  0  0  0  0
  138.9203   79.2080  219.8704 H   0  0  0  0  0  0  0  0  0  0  0  0
  138.8366   81.3878  220.4370 H   0  0  0  0  0  0  0  0  0  0  0  0
  140.1867   82.4785  220.6661 H   0  0  0  0  0  0  0  0  0  0  0  0
  139.1155   81.2130  218.1048 H   0  0  0  0  0  0  0  0  0  0  0  0
  139.7006   82.8769  218.3501 H   0  0  0  0  0  0  0  0  0  0  0  0
  140.1503   80.9259  216.4394 H   0  0  0  0  0  0  0  0  0  0  0  0
  142.1734   79.0649  217.7614 H   0  0  0  0  0  0  0  0  0  0  0  0
  140.5958   78.6406  217.0926 H   0  0  0  0  0  0  0  0  0  0  0  0
  143.0636   78.2682  215.7969 H   0  0  0  0  0  0  0  0  0  0  0  0
  141.4864   78.3154  214.9595 H   0  0  0  0  0  0  0  0  0  0  0  0
  142.0380   80.2460  214.0430 H   0  0  0  0  0  0  0  0  0  0  0  0
  143.5990   80.1250  214.7230 H   0  0  0  0  0  0  0  0  0  0  0  0
  143.1466   81.5285  216.4101 H   0  0  0  0  0  0  0  0  0  0  0  0
  141.8979   82.1114  215.2838 H   0  0  0  0  0  0  0  0  0  0  0  0
  142.0773   79.5747  218.7556 H   0  0  0  0  0  0  0  0  0  0  0  0
  142.7254   81.0203  219.5767 H   0  0  0  0  0  0  0  0  0  0  0  0
  142.5190   82.1480  221.7924 H   0  0  0  0  0  0  0  0  0  0  0  0
  143.3292   81.6234  224.1121 H   0  0  0  0  0  0  0  0  0  0  0  0
  142.6311   79.4994  225.2341 H   0  0  0  0  0  0  0  0  0  0  0  0
  141.0939   77.8985  224.0541 H   0  0  0  0  0  0  0  0  0  0  0  0
  1  2  2  0
  2  3  1  0
  3  4  2  0
  4  5  1  0
  5  6  2  0
  6  7  1  0
  6  8  1  0
  8  9  2  0
  9 10  1  0
 10 11  2  0
 11 12  1  0
  2 13  1  0
 13 14  1  0
 15 14  1  6
 15 16  1  0
 16 17  1  0
 17 18  1  0
 18 19  1  0
 19 20  1  0
 20 21  1  0
 21 22  1  0
 22 23  1  0
 18 24  1  0
 15 25  1  0
 25 26  2  0
 26 27  1  0
 27 28  2  0
 28 29  1  0
 29 30  2  0
 12  3  1  0
 30 13  1  0
 11  5  1  0
 24 15  1  0
 30 25  1  0
 23 19  1  0
  4 31  1  0
  8 32  1  0
  9 33  1  0
 10 34  1  0
 12 35  1  0
 14 36  1  0
 14 37  1  0
 16 38  1  0
 16 39  1  0
 17 40  1  0
 17 41  1  0
 19 42  1  6
 20 43  1  0
 20 44  1  0
 21 45  1  0
 21 46  1  0
 22 47  1  0
 22 48  1  0
 23 49  1  0
 23 50  1  0
 24 51  1  0
 24 52  1  0
 26 53  1  0
 27 54  1  0
 28 55  1  0
 29 56  1  0
M  CHG  1  22   1
M  END
>  <UniqueID>  (38) 
162

>  <SMILES>  (38) 
O=C(c1cc2c(Cl)cccc2[nH]1)N1C[C@@]2(CCN([C@@H]3CC[NH2+]C3)C2)c2ccccc21

>  <Energy>  (38) 
122.5250531362307

>  <Genealogy>  (38) 
O=C(c1cc2c(Cl)cccc2[nH]1)N1C[C@@]2(CCN(C3CC[NH2+]C3)C2)c2ccccc21 (protonated)
O=C(c1cc2c(Cl)cccc2[nH]1)N1C[C@@]2(CCN([C@@H]3CC[NH2+]C3)C2)c2ccccc21 (chirality)
O=C(c1cc2c(Cl)cccc2[nH]1)N1C[C@@]2(CCN([C@@H]3CC[NH2+]C3)C2)c2ccccc21 (3D coordinates assigned)
O=C(c1cc2c(Cl)cccc2[nH]1)N1C[C@@]2(CCN([C@@H]3CC[NH2+]C3)C2)c2ccccc21 (nonaromatic ring conformer: 122.5250531362307 kcal/mol)

>  <smiles>  (38) 
O=C(c1cc2c(Cl)cccc2[nH]1)N1C[C@@]2(CCN(C3CCNC3)C2)c2ccccc21

>  <score_type>  (38) 
oracle

>  <origin>  (38) 
autodockgpu

>  <m_score__min__energy>  (38) 
-8.9299999999999997

>  <m_primary>  (38) 
energy

>  <meeko>  (38) 
{"free_energy": -8.57, "intermolecular_energy": -9.46, "internal_energy": -1.14, "cluster_size": 13, "cluster_id": 2, "rank_in_cluster": 6}

>  <energy>  (38) 
-8.39

>  <cluster_rmsd>  (38) 
0.0

>  <rmsd>  (38) 
271.07

>  <cluster>  (38) 
3

$$$$
KZWACXAMTSGJSU-CZASUABUNA-O
     RDKit          3D

 56 61  0  0  0  0  0  0  0  0999 V2000
  138.2330   77.2460  222.2900 O   0  0  0  0  0  0  0  0  0  0  0  0
  139.3910   77.2000  221.7970 C   0  0  0  0  0  0  0  0  0  0  0  0
  140.0530   75.8940  221.6270 C   0  0  0  0  0  0  0  0  0  0  0  0
  141.2550   75.6760  220.9540 C   0  0  0  0  0  0  0  0  0  0  0  0
  141.4920   74.3230  221.0720 C   0  0  0  0  0  0  0  0  0  0  0  0
  142.5390   73.5320  220.5950 C   0  0  0  0  0  0  0  0  0  0  0  0
  143.8580   74.2200  219.6620 Cl  0  0  0  0  0  0  0  0  0  0  0  0
  142.5070   72.1550  220.8850 C   0  0  0  0  0  0  0  0  0  0  0  0
  141.4420   71.6070  221.6360 C   0  0  0  0  0  0  0  0  0  0  0  0
  140.4020   72.4300  222.1030 C   0  0  0  0  0  0  0  0  0  0  0  0
  140.4600   73.7900  221.8000 C   0  0  0  0  0  0  0  0  0  0  0  0
  139.5760   74.7390  222.1500 N   0  0  0  0  0  0  0  0  0  0  0  0
  140.0620   78.4230  221.4630 N   0  0  0  0  0  0  0  0  0  0  0  0
  139.9600   79.0780  220.1620 C   0  0  0  0  0  0  0  0  0  0  0  0
  140.7670   80.4180  220.2980 C   0  0  2  0  0  0  0  0  0  0  0  0
  139.8790   81.6400  220.1280 C   0  0  0  0  0  0  0  0  0  0  0  0
  139.9110   81.8790  218.6320 C   0  0  0  0  0  0  0  0  0  0  0  0
  141.2400   81.4590  218.1470 N   0  0  0  0  0  0  0  0  0  0  0  0
  141.1720   80.7950  216.8220 C   0  0  2  0  0  0  0  0  0  0  0  0
  141.4430   79.3010  216.9230 C   0  0  0  0  0  0  0  0  0  0  0  0
  142.1220   78.9310  215.6120 C   0  0  0  0  0  0  0  0  0  0  0  0
  142.5710   80.1690  214.9650 N   0  0  0  0  0  0  0  0  0  0  0  0
  142.2780   81.2700  215.8830 C   0  0  0  0  0  0  0  0  0  0  0  0
  141.8190   80.5870  219.1910 C   0  0  0  0  0  0  0  0  0  0  0  0
  141.3560   80.3200  221.6780 C   0  0  0  0  0  0  0  0  0  0  0  0
  142.2270   81.2070  222.3230 C   0  0  0  0  0  0  0  0  0  0  0  0
  142.6820   80.8880  223.6120 C   0  0  0  0  0  0  0  0  0  0  0  0
  142.2730   79.6940  224.2310 C   0  0  0  0  0  0  0  0  0  0  0  0
  141.3970   78.8180  223.5700 C   0  0  0  0  0  0  0  0  0  0  0  0
  140.9330   79.1720  222.2980 C   0  0  0  0  0  0  0  0  0  0  0  0
  141.8789   76.4222  220.4402 H   0  0  0  0  0  0  0  0  0  0  0  0
  143.3154   71.5015  220.5252 H   0  0  0  0  0  0  0  0  0  0  0  0
  141.4268   70.5294  221.8565 H   0  0  0  0  0  0  0  0  0  0  0  0
  139.5689   72.0142  222.6888 H   0  0  0  0  0  0  0  0  0  0  0  0
  138.7020   74.6100  222.7080 H   0  0  0  0  0  0  0  0  0  0  0  0
  140.3987   78.4438  219.3776 H   0  0  0  0  0  0  0  0  0  0  0  0
  138.9126   79.2611  219.8800 H   0  0  0  0  0  0  0  0  0  0  0  0
  138.8550   81.4358  220.4740 H   0  0  0  0  0  0  0  0  0  0  0  0
  140.2186   82.5075  220.7130 H   0  0  0  0  0  0  0  0  0  0  0  0
  139.1262   81.2860  218.1395 H   0  0  0  0  0  0  0  0  0  0  0  0
  139.7315   82.9400  218.4040 H   0  0  0  0  0  0  0  0  0  0  0  0
  140.1624   81.0325  216.4554 H   0  0  0  0  0  0  0  0  0  0  0  0
  142.1048   79.0854  217.7748 H   0  0  0  0  0  0  0  0  0  0  0  0
  140.5201   78.7251  217.0857 H   0  0  0  0  0  0  0  0  0  0  0  0
  142.9859   78.2797  215.8106 H   0  0  0  0  0  0  0  0  0  0  0  0
  141.4199   78.3927  214.9583 H   0  0  0  0  0  0  0  0  0  0  0  0
  142.0480   80.3110  214.0680 H   0  0  0  0  0  0  0  0  0  0  0  0
  143.5970   80.1280  214.7620 H   0  0  0  0  0  0  0  0  0  0  0  0
  143.1777   81.5280  216.4610 H   0  0  0  0  0  0  0  0  0  0  0  0
  141.9608   82.1656  215.3288 H   0  0  0  0  0  0  0  0  0  0  0  0
  142.0714   79.6062  218.7617 H   0  0  0  0  0  0  0  0  0  0  0  0
  142.7377   81.0337  219.5988 H   0  0  0  0  0  0  0  0  0  0  0  0
  142.5484   82.1358  221.8290 H   0  0  0  0  0  0  0  0  0  0  0  0
  143.3607   81.5744  224.1394 H   0  0  0  0  0  0  0  0  0  0  0  0
  142.6407   79.4449  225.2374 H   0  0  0  0  0  0  0  0  0  0  0  0
  141.0826   77.8751  224.0412 H   0  0  0  0  0  0  0  0  0  0  0  0
  1  2  2  0
  2  3  1  0
  3  4  2  0
  4  5  1  0
  5  6  2  0
  6  7  1  0
  6  8  1  0
  8  9  2  0
  9 10  1  0
 10 11  2  0
 11 12  1  0
  2 13  1  0
 13 14  1  0
 15 14  1  6
 15 16  1  0
 16 17  1  0
 17 18  1  0
 18 19  1  0
 19 20  1  0
 20 21  1  0
 21 22  1  0
 22 23  1  0
 18 24  1  0
 15 25  1  0
 25 26  2  0
 26 27  1  0
 27 28  2  0
 28 29  1  0
 29 30  2  0
 12  3  1  0
 30 13  1  0
 11  5  1  0
 24 15  1  0
 30 25  1  0
 23 19  1  0
  4 31  1  0
  8 32  1  0
  9 33  1  0
 10 34  1  0
 12 35  1  0
 14 36  1  0
 14 37  1  0
 16 38  1  0
 16 39  1  0
 17 40  1  0
 17 41  1  0
 19 42  1  6
 20 43  1  0
 20 44  1  0
 21 45  1  0
 21 46  1  0
 22 47  1  0
 22 48  1  0
 23 49  1  0
 23 50  1  0
 24 51  1  0
 24 52  1  0
 26 53  1  0
 27 54  1  0
 28 55  1  0
 29 56  1  0
M  CHG  1  22   1
M  END
>  <UniqueID>  (39) 
162

>  <SMILES>  (39) 
O=C(c1cc2c(Cl)cccc2[nH]1)N1C[C@@]2(CCN([C@@H]3CC[NH2+]C3)C2)c2ccccc21

>  <Energy>  (39) 
122.5250531362307

>  <Genealogy>  (39) 
O=C(c1cc2c(Cl)cccc2[nH]1)N1C[C@@]2(CCN(C3CC[NH2+]C3)C2)c2ccccc21 (protonated)
O=C(c1cc2c(Cl)cccc2[nH]1)N1C[C@@]2(CCN([C@@H]3CC[NH2+]C3)C2)c2ccccc21 (chirality)
O=C(c1cc2c(Cl)cccc2[nH]1)N1C[C@@]2(CCN([C@@H]3CC[NH2+]C3)C2)c2ccccc21 (3D coordinates assigned)
O=C(c1cc2c(Cl)cccc2[nH]1)N1C[C@@]2(CCN([C@@H]3CC[NH2+]C3)C2)c2ccccc21 (nonaromatic ring conformer: 122.5250531362307 kcal/mol)

>  <smiles>  (39) 
O=C(c1cc2c(Cl)cccc2[nH]1)N1C[C@@]2(CCN(C3CCNC3)C2)c2ccccc21

>  <score_type>  (39) 
oracle

>  <origin>  (39) 
autodockgpu

>  <m_score__min__energy>  (39) 
-8.9299999999999997

>  <m_primary>  (39) 
energy

>  <meeko>  (39) 
{"free_energy": -8.56, "intermolecular_energy": -9.45, "internal_energy": -1.14, "cluster_size": 13, "cluster_id": 2, "rank_in_cluster": 11}

>  <energy>  (39) 
-8.26

>  <cluster_rmsd>  (39) 
0.69

>  <rmsd>  (39) 
270.94

>  <cluster>  (39) 
3

$$$$
KZWACXAMTSGJSU-CZASUABUNA-O
     RDKit          3D

 56 61  0  0  0  0  0  0  0  0999 V2000
  138.4770   72.1280  222.5960 O   0  0  0  0  0  0  0  0  0  0  0  0
  139.5650   71.5140  222.7600 C   0  0  0  0  0  0  0  0  0  0  0  0
  139.8150   70.8130  224.0330 C   0  0  0  0  0  0  0  0  0  0  0  0
  140.2080   71.4180  225.2260 C   0  0  0  0  0  0  0  0  0  0  0  0
  140.2940   70.3870  226.1380 C   0  0  0  0  0  0  0  0  0  0  0  0
  140.6460   70.3880  227.4890 C   0  0  0  0  0  0  0  0  0  0  0  0
  141.0880   71.8690  228.3230 Cl  0  0  0  0  0  0  0  0  0  0  0  0
  140.6390   69.1560  228.1700 C   0  0  0  0  0  0  0  0  0  0  0  0
  140.2840   67.9670  227.4940 C   0  0  0  0  0  0  0  0  0  0  0  0
  139.9330   67.9990  226.1320 C   0  0  0  0  0  0  0  0  0  0  0  0
  139.9500   69.2320  225.4830 C   0  0  0  0  0  0  0  0  0  0  0  0
  139.6510   69.4790  224.1980 N   0  0  0  0  0  0  0  0  0  0  0  0
  140.5580   71.5570  221.7270 N   0  0  0  0  0  0  0  0  0  0  0  0
  141.5350   72.6340  221.5800 C   0  0  0  0  0  0  0  0  0  0  0  0
  142.4670   72.2020  220.3920 C   0  0  2  0  0  0  0  0  0  0  0  0
  143.9040   71.9930  220.8410 C   0  0  0  0  0  0  0  0  0  0  0  0
  144.5100   73.3740  220.6950 C   0  0  0  0  0  0  0  0  0  0  0  0
  143.8400   74.0310  219.5560 N   0  0  0  0  0  0  0  0  0  0  0  0
  143.6090   75.4770  219.7950 C   0  0  2  0  0  0  0  0  0  0  0  0
  142.2000   75.7480  220.3020 C   0  0  0  0  0  0  0  0  0  0  0  0
  141.8380   77.1210  219.7530 C   0  0  0  0  0  0  0  0  0  0  0  0
  142.7920   77.4530  218.6890 N   0  0  0  0  0  0  0  0  0  0  0  0
  143.6590   76.2890  218.5030 C   0  0  0  0  0  0  0  0  0  0  0  0
  142.5860   73.2880  219.3130 C   0  0  0  0  0  0  0  0  0  0  0  0
  141.8260   70.9330  219.9030 C   0  0  0  0  0  0  0  0  0  0  0  0
  142.1900   70.1320  218.8130 C   0  0  0  0  0  0  0  0  0  0  0  0
  141.4130   69.0010  218.5180 C   0  0  0  0  0  0  0  0  0  0  0  0
  140.2870   68.6910  219.3020 C   0  0  0  0  0  0  0  0  0  0  0  0
  139.9400   69.5040  220.3930 C   0  0  0  0  0  0  0  0  0  0  0  0
  140.7470   70.6090  220.6860 C   0  0  0  0  0  0  0  0  0  0  0  0
  140.4063   72.4856  225.4017 H   0  0  0  0  0  0  0  0  0  0  0  0
  140.9116   69.1186  229.2350 H   0  0  0  0  0  0  0  0  0  0  0  0
  140.2821   67.0100  228.0363 H   0  0  0  0  0  0  0  0  0  0  0  0
  139.6539   67.0797  225.5963 H   0  0  0  0  0  0  0  0  0  0  0  0
  139.3540   68.7830  223.4760 H   0  0  0  0  0  0  0  0  0  0  0  0
  141.0287   73.5819  221.3453 H   0  0  0  0  0  0  0  0  0  0  0  0
  142.1057   72.7941  222.5066 H   0  0  0  0  0  0  0  0  0  0  0  0
  143.9462   71.6510  221.8856 H   0  0  0  0  0  0  0  0  0  0  0  0
  144.4327   71.2235  220.2593 H   0  0  0  0  0  0  0  0  0  0  0  0
  144.3462   73.9557  221.6142 H   0  0  0  0  0  0  0  0  0  0  0  0
  145.5942   73.3064  220.5219 H   0  0  0  0  0  0  0  0  0  0  0  0
  144.3938   75.7587  220.5124 H   0  0  0  0  0  0  0  0  0  0  0  0
  141.5013   74.9857  219.9269 H   0  0  0  0  0  0  0  0  0  0  0  0
  142.1438   75.7154  221.4001 H   0  0  0  0  0  0  0  0  0  0  0  0
  140.8166   77.1019  219.3452 H   0  0  0  0  0  0  0  0  0  0  0  0
  141.8821   77.8748  220.5529 H   0  0  0  0  0  0  0  0  0  0  0  0
  143.3690   78.2790  218.9750 H   0  0  0  0  0  0  0  0  0  0  0  0
  142.2880   77.6770  217.7990 H   0  0  0  0  0  0  0  0  0  0  0  0
  143.2971   75.6803  217.6612 H   0  0  0  0  0  0  0  0  0  0  0  0
  144.6894   76.6018  218.2783 H   0  0  0  0  0  0  0  0  0  0  0  0
  141.7274   73.9728  219.3750 H   0  0  0  0  0  0  0  0  0  0  0  0
  142.5963   72.8344  218.3109 H   0  0  0  0  0  0  0  0  0  0  0  0
  143.0678   70.3845  218.2001 H   0  0  0  0  0  0  0  0  0  0  0  0
  141.6856   68.3547  217.6707 H   0  0  0  0  0  0  0  0  0  0  0  0
  139.6763   67.8088  219.0596 H   0  0  0  0  0  0  0  0  0  0  0  0
  139.0536   69.2773  221.0037 H   0  0  0  0  0  0  0  0  0  0  0  0
  1  2  2  0
  2  3  1  0
  3  4  2  0
  4  5  1  0
  5  6  2  0
  6  7  1  0
  6  8  1  0
  8  9  2  0
  9 10  1  0
 10 11  2  0
 11 12  1  0
  2 13  1  0
 13 14  1  0
 15 14  1  1
 15 16  1  0
 16 17  1  0
 17 18  1  0
 18 19  1  0
 19 20  1  0
 20 21  1  0
 21 22  1  0
 22 23  1  0
 18 24  1  0
 15 25  1  0
 25 26  2  0
 26 27  1  0
 27 28  2  0
 28 29  1  0
 29 30  2  0
 12  3  1  0
 30 13  1  0
 11  5  1  0
 24 15  1  0
 30 25  1  0
 23 19  1  0
  4 31  1  0
  8 32  1  0
  9 33  1  0
 10 34  1  0
 12 35  1  0
 14 36  1  0
 14 37  1  0
 16 38  1  0
 16 39  1  0
 17 40  1  0
 17 41  1  0
 19 42  1  1
 20 43  1  0
 20 44  1  0
 21 45  1  0
 21 46  1  0
 22 47  1  0
 22 48  1  0
 23 49  1  0
 23 50  1  0
 24 51  1  0
 24 52  1  0
 26 53  1  0
 27 54  1  0
 28 55  1  0
 29 56  1  0
M  CHG  1  22   1
M  END
>  <UniqueID>  (40) 
162

>  <SMILES>  (40) 
O=C(c1cc2c(Cl)cccc2[nH]1)N1C[C@@]2(CCN([C@@H]3CC[NH2+]C3)C2)c2ccccc21

>  <Energy>  (40) 
122.5250531362307

>  <Genealogy>  (40) 
O=C(c1cc2c(Cl)cccc2[nH]1)N1C[C@@]2(CCN(C3CC[NH2+]C3)C2)c2ccccc21 (protonated)
O=C(c1cc2c(Cl)cccc2[nH]1)N1C[C@@]2(CCN([C@@H]3CC[NH2+]C3)C2)c2ccccc21 (chirality)
O=C(c1cc2c(Cl)cccc2[nH]1)N1C[C@@]2(CCN([C@@H]3CC[NH2+]C3)C2)c2ccccc21 (3D coordinates assigned)
O=C(c1cc2c(Cl)cccc2[nH]1)N1C[C@@]2(CCN([C@@H]3CC[NH2+]C3)C2)c2ccccc21 (nonaromatic ring conformer: 122.5250531362307 kcal/mol)

>  <smiles>  (40) 
O=C(c1cc2c(Cl)cccc2[nH]1)N1C[C@@]2(CCN(C3CCNC3)C2)c2ccccc21

>  <score_type>  (40) 
oracle

>  <origin>  (40) 
autodockgpu

>  <m_score__min__energy>  (40) 
-8.9299999999999997

>  <m_primary>  (40) 
energy

>  <meeko>  (40) 
{"free_energy": -8.39, "intermolecular_energy": -9.29, "internal_energy": -0.94, "cluster_size": 2, "cluster_id": 3, "rank_in_cluster": 1}

>  <energy>  (40) 
-8.26

>  <cluster_rmsd>  (40) 
0.0

>  <rmsd>  (40) 
271.22

>  <cluster>  (40) 
4

$$$$
KZWACXAMTSGJSU-GYCJOSAFNA-N
     RDKit          3D

 55 60  0  0  0  0  0  0  0  0999 V2000
  140.2280   71.1970  220.8210 O   0  0  0  0  0  0  0  0  0  0  0  0
  140.0310   71.8820  221.8610 C   0  0  0  0  0  0  0  0  0  0  0  0
  140.0130   71.2160  223.1750 C   0  0  0  0  0  0  0  0  0  0  0  0
  140.4110   71.8040  224.3740 C   0  0  0  0  0  0  0  0  0  0  0  0
  140.2070   70.8330  225.3330 C   0  0  0  0  0  0  0  0  0  0  0  0
  140.4280   70.8490  226.7120 C   0  0  0  0  0  0  0  0  0  0  0  0
  141.0780   72.2630  227.5250 Cl  0  0  0  0  0  0  0  0  0  0  0  0
  140.1100   69.6870  227.4400 C   0  0  0  0  0  0  0  0  0  0  0  0
  139.5850   68.5520  226.7830 C   0  0  0  0  0  0  0  0  0  0  0  0
  139.3730   68.5670  225.3930 C   0  0  0  0  0  0  0  0  0  0  0  0
  139.6980   69.7310  224.6970 C   0  0  0  0  0  0  0  0  0  0  0  0
  139.5710   69.9510  223.3780 N   0  0  0  0  0  0  0  0  0  0  0  0
  139.8790   73.3030  221.7470 N   0  0  0  0  0  0  0  0  0  0  0  0
  140.9380   74.2010  221.2930 C   0  0  0  0  0  0  0  0  0  0  0  0
  140.3430   75.6460  221.3840 C   0  0  2  0  0  0  0  0  0  0  0  0
  140.4510   76.4300  220.0770 C   0  0  0  0  0  0  0  0  0  0  0  0
  140.5970   77.8900  220.4960 C   0  0  0  0  0  0  0  0  0  0  0  0
  140.8440   77.9240  221.9480 N   0  0  0  0  0  0  0  0  0  0  0  0
  141.8760   78.9150  222.3500 C   0  0  2  0  0  0  0  0  0  0  0  0
  141.7470   79.4230  223.7880 C   0  0  0  0  0  0  0  0  0  0  0  0
  141.3760   80.8980  223.6730 C   0  0  0  0  0  0  0  0  0  0  0  0
  141.1690   81.2250  222.2610 N   0  0  0  0  0  0  0  0  0  0  0  0
  141.8200   80.1720  221.4870 C   0  0  0  0  0  0  0  0  0  0  0  0
  141.0520   76.5390  222.4020 C   0  0  0  0  0  0  0  0  0  0  0  0
  138.9090   75.3950  221.7790 C   0  0  0  0  0  0  0  0  0  0  0  0
  137.8690   76.3180  221.9460 C   0  0  0  0  0  0  0  0  0  0  0  0
  136.5930   75.8450  222.2860 C   0  0  0  0  0  0  0  0  0  0  0  0
  136.3690   74.4660  222.4470 C   0  0  0  0  0  0  0  0  0  0  0  0
  137.4240   73.5550  222.2810 C   0  0  0  0  0  0  0  0  0  0  0  0
  138.6950   74.0540  221.9700 C   0  0  0  0  0  0  0  0  0  0  0  0
  140.8026   72.8210  224.5235 H   0  0  0  0  0  0  0  0  0  0  0  0
  140.2714   69.6626  228.5278 H   0  0  0  0  0  0  0  0  0  0  0  0
  139.3403   67.6499  227.3630 H   0  0  0  0  0  0  0  0  0  0  0  0
  138.9641   67.6891  224.8715 H   0  0  0  0  0  0  0  0  0  0  0  0
  139.1910   69.2870  222.6670 H   0  0  0  0  0  0  0  0  0  0  0  0
  141.8216   74.1094  221.9417 H   0  0  0  0  0  0  0  0  0  0  0  0
  141.2603   73.9605  220.2691 H   0  0  0  0  0  0  0  0  0  0  0  0
  141.3310   76.1037  219.5032 H   0  0  0  0  0  0  0  0  0  0  0  0
  139.5747   76.2738  219.4307 H   0  0  0  0  0  0  0  0  0  0  0  0
  141.4426   78.3488  219.9626 H   0  0  0  0  0  0  0  0  0  0  0  0
  139.6835   78.4514  220.2504 H   0  0  0  0  0  0  0  0  0  0  0  0
  142.8139   78.3526  222.2311 H   0  0  0  0  0  0  0  0  0  0  0  0
  140.9596   78.8699  224.3209 H   0  0  0  0  0  0  0  0  0  0  0  0
  142.6798   79.2819  224.3536 H   0  0  0  0  0  0  0  0  0  0  0  0
  140.4513   81.0914  224.2365 H   0  0  0  0  0  0  0  0  0  0  0  0
  142.1846   81.5195  224.0854 H   0  0  0  0  0  0  0  0  0  0  0  0
  140.1420   81.1900  222.0620 H   0  0  0  0  0  0  0  0  0  0  0  0
  141.2432   79.9708  220.5722 H   0  0  0  0  0  0  0  0  0  0  0  0
  142.8354   80.4825  221.1997 H   0  0  0  0  0  0  0  0  0  0  0  0
  142.1263   76.3047  222.4319 H   0  0  0  0  0  0  0  0  0  0  0  0
  140.6542   76.3853  223.4160 H   0  0  0  0  0  0  0  0  0  0  0  0
  138.0496   77.3949  221.8129 H   0  0  0  0  0  0  0  0  0  0  0  0
  135.7648   76.5550  222.4272 H   0  0  0  0  0  0  0  0  0  0  0  0
  135.3639   74.1001  222.7038 H   0  0  0  0  0  0  0  0  0  0  0  0
  137.2562   72.4736  222.3927 H   0  0  0  0  0  0  0  0  0  0  0  0
  1  2  2  0
  2  3  1  0
  3  4  2  0
  4  5  1  0
  5  6  2  0
  6  7  1  0
  6  8  1  0
  8  9  2  0
  9 10  1  0
 10 11  2  0
 11 12  1  0
  2 13  1  0
 13 14  1  0
 15 14  1  6
 15 16  1  0
 16 17  1  0
 17 18  1  0
 18 19  1  0
 19 20  1  0
 20 21  1  0
 21 22  1  0
 22 23  1  0
 18 24  1  0
 15 25  1  0
 25 26  2  0
 26 27  1  0
 27 28  2  0
 28 29  1  0
 29 30  2  0
 12  3  1  0
 30 13  1  0
 11  5  1  0
 24 15  1  0
 30 25  1  0
 23 19  1  0
  4 31  1  0
  8 32  1  0
  9 33  1  0
 10 34  1  0
 12 35  1  0
 14 36  1  0
 14 37  1  0
 16 38  1  0
 16 39  1  0
 17 40  1  0
 17 41  1  0
 19 42  1  1
 20 43  1  0
 20 44  1  0
 21 45  1  0
 21 46  1  0
 22 47  1  0
 23 48  1  0
 23 49  1  0
 24 50  1  0
 24 51  1  0
 26 52  1  0
 27 53  1  0
 28 54  1  0
 29 55  1  0
M  END
>  <UniqueID>  (41) 
163

>  <SMILES>  (41) 
O=C(c1cc2c(Cl)cccc2[nH]1)N1C[C@@]2(CCN([C@@H]3CCNC3)C2)c2ccccc21

>  <Energy>  (41) 
123.92147565229676

>  <Genealogy>  (41) 
O=C(c1cc2c(Cl)cccc2[nH]1)N1C[C@@]2(CCN([C@@H]3CCNC3)C2)c2ccccc21 (chirality)
O=C(c1cc2c(Cl)cccc2[nH]1)N1C[C@@]2(CCN([C@@H]3CCNC3)C2)c2ccccc21 (3D coordinates assigned)
O=C(c1cc2c(Cl)cccc2[nH]1)N1C[C@@]2(CCN([C@@H]3CCNC3)C2)c2ccccc21 (nonaromatic ring conformer: 123.92147565229676 kcal/mol)

>  <smiles>  (41) 
O=C(c1cc2c(Cl)cccc2[nH]1)N1C[C@@]2(CCN(C3CCNC3)C2)c2ccccc21

>  <score_type>  (41) 
oracle

>  <origin>  (41) 
autodockgpu

>  <m_score__min__energy>  (41) 
-8.9199999999999999

>  <m_primary>  (41) 
energy

>  <meeko>  (41) 
{"free_energy": -8.71, "intermolecular_energy": -9.6, "internal_energy": -1.21, "cluster_size": 19, "cluster_id": 1, "rank_in_cluster": 19}

>  <energy>  (41) 
-8.92

>  <cluster_rmsd>  (41) 
0.0

>  <rmsd>  (41) 
270.2

>  <cluster>  (41) 
1

$$$$
KZWACXAMTSGJSU-GYCJOSAFNA-N
     RDKit          3D

 55 60  0  0  0  0  0  0  0  0999 V2000
  141.3250   71.7860  221.0420 O   0  0  0  0  0  0  0  0  0  0  0  0
  140.6290   72.2700  221.9730 C   0  0  0  0  0  0  0  0  0  0  0  0
  140.3750   71.4680  223.1820 C   0  0  0  0  0  0  0  0  0  0  0  0
  140.6780   71.8660  224.4830 C   0  0  0  0  0  0  0  0  0  0  0  0
  140.2550   70.8250  225.2840 C   0  0  0  0  0  0  0  0  0  0  0  0
  140.3000   70.6590  226.6690 C   0  0  0  0  0  0  0  0  0  0  0  0
  140.9860   71.8850  227.7220 Cl  0  0  0  0  0  0  0  0  0  0  0  0
  139.7740   69.4680  227.2050 C   0  0  0  0  0  0  0  0  0  0  0  0
  139.2200   68.4850  226.3540 C   0  0  0  0  0  0  0  0  0  0  0  0
  139.1880   68.6810  224.9620 C   0  0  0  0  0  0  0  0  0  0  0  0
  139.7180   69.8690  224.4600 C   0  0  0  0  0  0  0  0  0  0  0  0
  139.7820   70.2490  223.1740 N   0  0  0  0  0  0  0  0  0  0  0  0
  140.1380   73.6130  221.8580 N   0  0  0  0  0  0  0  0  0  0  0  0
  140.9890   74.7700  221.5910 C   0  0  0  0  0  0  0  0  0  0  0  0
  140.0390   76.0140  221.6070 C   0  0  2  0  0  0  0  0  0  0  0  0
  140.1390   76.8700  220.3460 C   0  0  0  0  0  0  0  0  0  0  0  0
  139.8430   78.2950  220.8040 C   0  0  0  0  0  0  0  0  0  0  0  0
  139.8540   78.3110  222.2770 N   0  0  0  0  0  0  0  0  0  0  0  0
  140.5270   79.5040  222.8520 C   0  0  2  0  0  0  0  0  0  0  0  0
  141.0420   80.5070  221.8170 C   0  0  0  0  0  0  0  0  0  0  0  0
  142.5630   80.4630  221.9230 C   0  0  0  0  0  0  0  0  0  0  0  0
  142.9420   79.4120  222.8680 N   0  0  0  0  0  0  0  0  0  0  0  0
  141.7560   79.1210  223.6690 C   0  0  0  0  0  0  0  0  0  0  0  0
  140.3360   76.9990  222.7370 C   0  0  0  0  0  0  0  0  0  0  0  0
  138.6740   75.3920  221.7660 C   0  0  0  0  0  0  0  0  0  0  0  0
  137.4210   76.0170  221.7790 C   0  0  0  0  0  0  0  0  0  0  0  0
  136.2710   75.2220  221.9060 C   0  0  0  0  0  0  0  0  0  0  0  0
  136.3840   73.8250  222.0090 C   0  0  0  0  0  0  0  0  0  0  0  0
  137.6490   73.2160  221.9990 C   0  0  0  0  0  0  0  0  0  0  0  0
  138.7830   74.0320  221.9010 C   0  0  0  0  0  0  0  0  0  0  0  0
  141.1516   72.8061  224.8021 H   0  0  0  0  0  0  0  0  0  0  0  0
  139.7944   69.3017  228.2922 H   0  0  0  0  0  0  0  0  0  0  0  0
  138.8105   67.5591  226.7841 H   0  0  0  0  0  0  0  0  0  0  0  0
  138.7590   67.9221  224.2911 H   0  0  0  0  0  0  0  0  0  0  0  0
  139.4280   69.7190  222.3460 H   0  0  0  0  0  0  0  0  0  0  0  0
  141.7591   74.8666  222.3705 H   0  0  0  0  0  0  0  0  0  0  0  0
  141.5117   74.6733  220.6280 H   0  0  0  0  0  0  0  0  0  0  0  0
  141.1491   76.8054  219.9153 H   0  0  0  0  0  0  0  0  0  0  0  0
  139.4392   76.5356  219.5660 H   0  0  0  0  0  0  0  0  0  0  0  0
  140.6130   78.9789  220.4174 H   0  0  0  0  0  0  0  0  0  0  0  0
  138.8635   78.6224  220.4255 H   0  0  0  0  0  0  0  0  0  0  0  0
  139.7331   79.9633  223.4593 H   0  0  0  0  0  0  0  0  0  0  0  0
  140.7191   80.2158  220.8066 H   0  0  0  0  0  0  0  0  0  0  0  0
  140.6507   81.5184  222.0012 H   0  0  0  0  0  0  0  0  0  0  0  0
  142.9958   80.2453  220.9355 H   0  0  0  0  0  0  0  0  0  0  0  0
  142.9404   81.4345  222.2750 H   0  0  0  0  0  0  0  0  0  0  0  0
  143.1870   78.5520  222.3240 H   0  0  0  0  0  0  0  0  0  0  0  0
  141.7235   78.0484  223.9110 H   0  0  0  0  0  0  0  0  0  0  0  0
  141.7816   79.6916  224.6091 H   0  0  0  0  0  0  0  0  0  0  0  0
  141.4175   77.0380  222.9341 H   0  0  0  0  0  0  0  0  0  0  0  0
  139.8419   76.6964  223.6720 H   0  0  0  0  0  0  0  0  0  0  0  0
  137.3394   77.1105  221.6913 H   0  0  0  0  0  0  0  0  0  0  0  0
  135.2777   75.6943  221.9250 H   0  0  0  0  0  0  0  0  0  0  0  0
  135.4785   73.2067  222.0977 H   0  0  0  0  0  0  0  0  0  0  0  0
  137.7472   72.1225  222.0666 H   0  0  0  0  0  0  0  0  0  0  0  0
  1  2  2  0
  2  3  1  0
  3  4  2  0
  4  5  1  0
  5  6  2  0
  6  7  1  0
  6  8  1  0
  8  9  2  0
  9 10  1  0
 10 11  2  0
 11 12  1  0
  2 13  1  0
 13 14  1  0
 15 14  1  6
 15 16  1  0
 16 17  1  0
 17 18  1  0
 18 19  1  0
 19 20  1  0
 20 21  1  0
 21 22  1  0
 22 23  1  0
 18 24  1  0
 15 25  1  0
 25 26  2  0
 26 27  1  0
 27 28  2  0
 28 29  1  0
 29 30  2  0
 12  3  1  0
 30 13  1  0
 11  5  1  0
 24 15  1  0
 30 25  1  0
 23 19  1  0
  4 31  1  0
  8 32  1  0
  9 33  1  0
 10 34  1  0
 12 35  1  0
 14 36  1  0
 14 37  1  0
 16 38  1  0
 16 39  1  0
 17 40  1  0
 17 41  1  0
 19 42  1  1
 20 43  1  0
 20 44  1  0
 21 45  1  0
 21 46  1  0
 22 47  1  0
 23 48  1  0
 23 49  1  0
 24 50  1  0
 24 51  1  0
 26 52  1  0
 27 53  1  0
 28 54  1  0
 29 55  1  0
M  END
>  <UniqueID>  (42) 
163

>  <SMILES>  (42) 
O=C(c1cc2c(Cl)cccc2[nH]1)N1C[C@@]2(CCN([C@@H]3CCNC3)C2)c2ccccc21

>  <Energy>  (42) 
123.92147565229676

>  <Genealogy>  (42) 
O=C(c1cc2c(Cl)cccc2[nH]1)N1C[C@@]2(CCN([C@@H]3CCNC3)C2)c2ccccc21 (chirality)
O=C(c1cc2c(Cl)cccc2[nH]1)N1C[C@@]2(CCN([C@@H]3CCNC3)C2)c2ccccc21 (3D coordinates assigned)
O=C(c1cc2c(Cl)cccc2[nH]1)N1C[C@@]2(CCN([C@@H]3CCNC3)C2)c2ccccc21 (nonaromatic ring conformer: 123.92147565229676 kcal/mol)

>  <smiles>  (42) 
O=C(c1cc2c(Cl)cccc2[nH]1)N1C[C@@]2(CCN(C3CCNC3)C2)c2ccccc21

>  <score_type>  (42) 
oracle

>  <origin>  (42) 
autodockgpu

>  <m_score__min__energy>  (42) 
-8.9199999999999999

>  <m_primary>  (42) 
energy

>  <meeko>  (42) 
{"free_energy": -8.91, "intermolecular_energy": -9.81, "internal_energy": -1.25, "cluster_size": 19, "cluster_id": 1, "rank_in_cluster": 4}

>  <energy>  (42) 
-8.92

>  <cluster_rmsd>  (42) 
0.05

>  <rmsd>  (42) 
270.23

>  <cluster>  (42) 
1

$$$$
KZWACXAMTSGJSU-GYCJOSAFNA-N
     RDKit          3D

 55 60  0  0  0  0  0  0  0  0999 V2000
  141.4030   71.8620  221.0860 O   0  0  0  0  0  0  0  0  0  0  0  0
  140.6760   72.3240  222.0060 C   0  0  0  0  0  0  0  0  0  0  0  0
  140.4110   71.5040  223.2010 C   0  0  0  0  0  0  0  0  0  0  0  0
  140.6880   71.8880  224.5110 C   0  0  0  0  0  0  0  0  0  0  0  0
  140.2620   70.8330  225.2920 C   0  0  0  0  0  0  0  0  0  0  0  0
  140.2860   70.6500  226.6760 C   0  0  0  0  0  0  0  0  0  0  0  0
  140.9430   71.8690  227.7550 Cl  0  0  0  0  0  0  0  0  0  0  0  0
  139.7620   69.4480  227.1880 C   0  0  0  0  0  0  0  0  0  0  0  0
  139.2320   68.4700  226.3160 C   0  0  0  0  0  0  0  0  0  0  0  0
  139.2210   68.6840  224.9260 C   0  0  0  0  0  0  0  0  0  0  0  0
  139.7480   69.8820  224.4480 C   0  0  0  0  0  0  0  0  0  0  0  0
  139.8290   70.2800  223.1670 N   0  0  0  0  0  0  0  0  0  0  0  0
  140.1640   73.6590  221.8940 N   0  0  0  0  0  0  0  0  0  0  0  0
  140.9900   74.8240  221.5900 C   0  0  0  0  0  0  0  0  0  0  0  0
  140.0230   76.0550  221.6240 C   0  0  2  0  0  0  0  0  0  0  0  0
  140.0720   76.9010  220.3530 C   0  0  0  0  0  0  0  0  0  0  0  0
  139.7700   78.3260  220.8070 C   0  0  0  0  0  0  0  0  0  0  0  0
  139.8260   78.3550  222.2780 N   0  0  0  0  0  0  0  0  0  0  0  0
  140.4990   79.5640  222.8220 C   0  0  2  0  0  0  0  0  0  0  0  0
  141.0160   80.5370  221.7610 C   0  0  0  0  0  0  0  0  0  0  0  0
  142.5370   80.4960  221.8690 C   0  0  0  0  0  0  0  0  0  0  0  0
  142.9140   79.4700  222.8430 N   0  0  0  0  0  0  0  0  0  0  0  0
  141.7270   79.2020  223.6510 C   0  0  0  0  0  0  0  0  0  0  0  0
  140.3410   77.0550  222.7360 C   0  0  0  0  0  0  0  0  0  0  0  0
  138.6720   75.4160  221.8300 C   0  0  0  0  0  0  0  0  0  0  0  0
  137.4110   76.0230  221.8760 C   0  0  0  0  0  0  0  0  0  0  0  0
  136.2770   75.2140  222.0460 C   0  0  0  0  0  0  0  0  0  0  0  0
  136.4130   73.8190  222.1580 C   0  0  0  0  0  0  0  0  0  0  0  0
  137.6860   73.2280  222.1150 C   0  0  0  0  0  0  0  0  0  0  0  0
  138.8040   74.0580  221.9750 C   0  0  0  0  0  0  0  0  0  0  0  0
  141.1470   72.8286  224.8497 H   0  0  0  0  0  0  0  0  0  0  0  0
  139.7650   69.2688  228.2733 H   0  0  0  0  0  0  0  0  0  0  0  0
  138.8251   67.5346  226.7276 H   0  0  0  0  0  0  0  0  0  0  0  0
  138.8097   67.9301  224.2386 H   0  0  0  0  0  0  0  0  0  0  0  0
  139.4940   69.7570  222.3280 H   0  0  0  0  0  0  0  0  0  0  0  0
  141.7824   74.9387  222.3443 H   0  0  0  0  0  0  0  0  0  0  0  0
  141.4843   74.7251  220.6123 H   0  0  0  0  0  0  0  0  0  0  0  0
  141.0692   76.8465  219.8919 H   0  0  0  0  0  0  0  0  0  0  0  0
  139.3532   76.5497  219.5981 H   0  0  0  0  0  0  0  0  0  0  0  0
  140.5180   79.0170  220.3910 H   0  0  0  0  0  0  0  0  0  0  0  0
  138.7750   78.6368  220.4557 H   0  0  0  0  0  0  0  0  0  0  0  0
  139.7049   80.0406  223.4155 H   0  0  0  0  0  0  0  0  0  0  0  0
  140.6940   80.2180  220.7587 H   0  0  0  0  0  0  0  0  0  0  0  0
  140.6253   81.5533  221.9175 H   0  0  0  0  0  0  0  0  0  0  0  0
  142.9707   80.2516  220.8881 H   0  0  0  0  0  0  0  0  0  0  0  0
  142.9149   81.4765  222.1943 H   0  0  0  0  0  0  0  0  0  0  0  0
  143.1590   78.5960  222.3220 H   0  0  0  0  0  0  0  0  0  0  0  0
  141.6931   78.1365  223.9222 H   0  0  0  0  0  0  0  0  0  0  0  0
  141.7523   79.7977  224.5754 H   0  0  0  0  0  0  0  0  0  0  0  0
  141.4274   77.1112  222.8992 H   0  0  0  0  0  0  0  0  0  0  0  0
  139.8811   76.7547  223.6890 H   0  0  0  0  0  0  0  0  0  0  0  0
  137.3111   77.1143  221.7806 H   0  0  0  0  0  0  0  0  0  0  0  0
  135.2783   75.6728  222.0918 H   0  0  0  0  0  0  0  0  0  0  0  0
  135.5196   73.1889  222.2797 H   0  0  0  0  0  0  0  0  0  0  0  0
  137.8019   72.1367  222.1897 H   0  0  0  0  0  0  0  0  0  0  0  0
  1  2  2  0
  2  3  1  0
  3  4  2  0
  4  5  1  0
  5  6  2  0
  6  7  1  0
  6  8  1  0
  8  9  2  0
  9 10  1  0
 10 11  2  0
 11 12  1  0
  2 13  1  0
 13 14  1  0
 15 14  1  6
 15 16  1  0
 16 17  1  0
 17 18  1  0
 18 19  1  0
 19 20  1  0
 20 21  1  0
 21 22  1  0
 22 23  1  0
 18 24  1  0
 15 25  1  0
 25 26  2  0
 26 27  1  0
 27 28  2  0
 28 29  1  0
 29 30  2  0
 12  3  1  0
 30 13  1  0
 11  5  1  0
 24 15  1  0
 30 25  1  0
 23 19  1  0
  4 31  1  0
  8 32  1  0
  9 33  1  0
 10 34  1  0
 12 35  1  0
 14 36  1  0
 14 37  1  0
 16 38  1  0
 16 39  1  0
 17 40  1  0
 17 41  1  0
 19 42  1  1
 20 43  1  0
 20 44  1  0
 21 45  1  0
 21 46  1  0
 22 47  1  0
 23 48  1  0
 23 49  1  0
 24 50  1  0
 24 51  1  0
 26 52  1  0
 27 53  1  0
 28 54  1  0
 29 55  1  0
M  END
>  <UniqueID>  (43) 
163

>  <SMILES>  (43) 
O=C(c1cc2c(Cl)cccc2[nH]1)N1C[C@@]2(CCN([C@@H]3CCNC3)C2)c2ccccc21

>  <Energy>  (43) 
123.92147565229676

>  <Genealogy>  (43) 
O=C(c1cc2c(Cl)cccc2[nH]1)N1C[C@@]2(CCN([C@@H]3CCNC3)C2)c2ccccc21 (chirality)
O=C(c1cc2c(Cl)cccc2[nH]1)N1C[C@@]2(CCN([C@@H]3CCNC3)C2)c2ccccc21 (3D coordinates assigned)
O=C(c1cc2c(Cl)cccc2[nH]1)N1C[C@@]2(CCN([C@@H]3CCNC3)C2)c2ccccc21 (nonaromatic ring conformer: 123.92147565229676 kcal/mol)

>  <smiles>  (43) 
O=C(c1cc2c(Cl)cccc2[nH]1)N1C[C@@]2(CCN(C3CCNC3)C2)c2ccccc21

>  <score_type>  (43) 
oracle

>  <origin>  (43) 
autodockgpu

>  <m_score__min__energy>  (43) 
-8.9199999999999999

>  <m_primary>  (43) 
energy

>  <meeko>  (43) 
{"free_energy": -8.9, "intermolecular_energy": -9.79, "internal_energy": -1.25, "cluster_size": 19, "cluster_id": 1, "rank_in_cluster": 11}

>  <energy>  (43) 
-8.92

>  <cluster_rmsd>  (43) 
0.06

>  <rmsd>  (43) 
270.23

>  <cluster>  (43) 
1

$$$$
KZWACXAMTSGJSU-GYCJOSAFNA-N
     RDKit          3D

 55 60  0  0  0  0  0  0  0  0999 V2000
  141.3590   71.8660  221.0500 O   0  0  0  0  0  0  0  0  0  0  0  0
  140.6440   72.3310  221.9770 C   0  0  0  0  0  0  0  0  0  0  0  0
  140.3850   71.5110  223.1730 C   0  0  0  0  0  0  0  0  0  0  0  0
  140.6710   71.8940  224.4820 C   0  0  0  0  0  0  0  0  0  0  0  0
  140.2480   70.8400  225.2640 C   0  0  0  0  0  0  0  0  0  0  0  0
  140.2810   70.6560  226.6480 C   0  0  0  0  0  0  0  0  0  0  0  0
  140.9470   71.8740  227.7230 Cl  0  0  0  0  0  0  0  0  0  0  0  0
  139.7580   69.4540  227.1630 C   0  0  0  0  0  0  0  0  0  0  0  0
  139.2210   68.4780  226.2940 C   0  0  0  0  0  0  0  0  0  0  0  0
  139.2010   68.6930  224.9040 C   0  0  0  0  0  0  0  0  0  0  0  0
  139.7270   69.8900  224.4230 C   0  0  0  0  0  0  0  0  0  0  0  0
  139.8010   70.2890  223.1420 N   0  0  0  0  0  0  0  0  0  0  0  0
  140.1380   73.6690  221.8710 N   0  0  0  0  0  0  0  0  0  0  0  0
  140.9710   74.8320  221.5760 C   0  0  0  0  0  0  0  0  0  0  0  0
  140.0100   76.0680  221.6150 C   0  0  2  0  0  0  0  0  0  0  0  0
  140.0660   76.9210  220.3480 C   0  0  0  0  0  0  0  0  0  0  0  0
  139.7710   78.3450  220.8100 C   0  0  0  0  0  0  0  0  0  0  0  0
  139.8230   78.3650  222.2820 N   0  0  0  0  0  0  0  0  0  0  0  0
  140.5010   79.5670  222.8340 C   0  0  2  0  0  0  0  0  0  0  0  0
  141.0310   80.5410  221.7790 C   0  0  0  0  0  0  0  0  0  0  0  0
  142.5510   80.4890  221.8970 C   0  0  0  0  0  0  0  0  0  0  0  0
  142.9150   79.4570  222.8700 N   0  0  0  0  0  0  0  0  0  0  0  0
  141.7220   79.1940  223.6690 C   0  0  0  0  0  0  0  0  0  0  0  0
  140.3300   77.0590  222.7330 C   0  0  0  0  0  0  0  0  0  0  0  0
  138.6560   75.4340  221.8140 C   0  0  0  0  0  0  0  0  0  0  0  0
  137.3980   76.0480  221.8610 C   0  0  0  0  0  0  0  0  0  0  0  0
  136.2590   75.2440  222.0230 C   0  0  0  0  0  0  0  0  0  0  0  0
  136.3880   73.8470  222.1270 C   0  0  0  0  0  0  0  0  0  0  0  0
  137.6580   73.2500  222.0840 C   0  0  0  0  0  0  0  0  0  0  0  0
  138.7810   74.0750  221.9510 C   0  0  0  0  0  0  0  0  0  0  0  0
  141.1339   72.8334  224.8185 H   0  0  0  0  0  0  0  0  0  0  0  0
  139.7677   69.2740  228.2481 H   0  0  0  0  0  0  0  0  0  0  0  0
  138.8154   67.5428  226.7075 H   0  0  0  0  0  0  0  0  0  0  0  0
  138.7836   67.9403  224.2190 H   0  0  0  0  0  0  0  0  0  0  0  0
  139.4590   69.7670  222.3050 H   0  0  0  0  0  0  0  0  0  0  0  0
  141.7621   74.9382  222.3329 H   0  0  0  0  0  0  0  0  0  0  0  0
  141.4673   74.7364  220.5990 H   0  0  0  0  0  0  0  0  0  0  0  0
  141.0637   76.8636  219.8884 H   0  0  0  0  0  0  0  0  0  0  0  0
  139.3468   76.5779  219.5897 H   0  0  0  0  0  0  0  0  0  0  0  0
  140.5242   79.0341  220.4003 H   0  0  0  0  0  0  0  0  0  0  0  0
  138.7787   78.6635  220.4579 H   0  0  0  0  0  0  0  0  0  0  0  0
  139.7065   80.0466  223.4246 H   0  0  0  0  0  0  0  0  0  0  0  0
  140.7133   80.2278  220.7736 H   0  0  0  0  0  0  0  0  0  0  0  0
  140.6458   81.5593  221.9361 H   0  0  0  0  0  0  0  0  0  0  0  0
  142.9894   80.2450  220.9181 H   0  0  0  0  0  0  0  0  0  0  0  0
  142.9332   81.4658  222.2284 H   0  0  0  0  0  0  0  0  0  0  0  0
  143.1580   78.5830  222.3470 H   0  0  0  0  0  0  0  0  0  0  0  0
  141.6796   78.1277  223.9360 H   0  0  0  0  0  0  0  0  0  0  0  0
  141.7456   79.7863  224.5956 H   0  0  0  0  0  0  0  0  0  0  0  0
  141.4162   77.1085  222.8993 H   0  0  0  0  0  0  0  0  0  0  0  0
  139.8657   76.7552  223.6828 H   0  0  0  0  0  0  0  0  0  0  0  0
  137.3044   77.1404  221.7725 H   0  0  0  0  0  0  0  0  0  0  0  0
  135.2625   75.7076  222.0688 H   0  0  0  0  0  0  0  0  0  0  0  0
  135.4912   73.2206  222.2424 H   0  0  0  0  0  0  0  0  0  0  0  0
  137.7682   72.1577  222.1533 H   0  0  0  0  0  0  0  0  0  0  0  0
  1  2  2  0
  2  3  1  0
  3  4  2  0
  4  5  1  0
  5  6  2  0
  6  7  1  0
  6  8  1  0
  8  9  2  0
  9 10  1  0
 10 11  2  0
 11 12  1  0
  2 13  1  0
 13 14  1  0
 15 14  1  6
 15 16  1  0
 16 17  1  0
 17 18  1  0
 18 19  1  0
 19 20  1  0
 20 21  1  0
 21 22  1  0
 22 23  1  0
 18 24  1  0
 15 25  1  0
 25 26  2  0
 26 27  1  0
 27 28  2  0
 28 29  1  0
 29 30  2  0
 12  3  1  0
 30 13  1  0
 11  5  1  0
 24 15  1  0
 30 25  1  0
 23 19  1  0
  4 31  1  0
  8 32  1  0
  9 33  1  0
 10 34  1  0
 12 35  1  0
 14 36  1  0
 14 37  1  0
 16 38  1  0
 16 39  1  0
 17 40  1  0
 17 41  1  0
 19 42  1  1
 20 43  1  0
 20 44  1  0
 21 45  1  0
 21 46  1  0
 22 47  1  0
 23 48  1  0
 23 49  1  0
 24 50  1  0
 24 51  1  0
 26 52  1  0
 27 53  1  0
 28 54  1  0
 29 55  1  0
M  END
>  <UniqueID>  (44) 
163

>  <SMILES>  (44) 
O=C(c1cc2c(Cl)cccc2[nH]1)N1C[C@@]2(CCN([C@@H]3CCNC3)C2)c2ccccc21

>  <Energy>  (44) 
123.92147565229676

>  <Genealogy>  (44) 
O=C(c1cc2c(Cl)cccc2[nH]1)N1C[C@@]2(CCN([C@@H]3CCNC3)C2)c2ccccc21 (chirality)
O=C(c1cc2c(Cl)cccc2[nH]1)N1C[C@@]2(CCN([C@@H]3CCNC3)C2)c2ccccc21 (3D coordinates assigned)
O=C(c1cc2c(Cl)cccc2[nH]1)N1C[C@@]2(CCN([C@@H]3CCNC3)C2)c2ccccc21 (nonaromatic ring conformer: 123.92147565229676 kcal/mol)

>  <smiles>  (44) 
O=C(c1cc2c(Cl)cccc2[nH]1)N1C[C@@]2(CCN(C3CCNC3)C2)c2ccccc21

>  <score_type>  (44) 
oracle

>  <origin>  (44) 
autodockgpu

>  <m_score__min__energy>  (44) 
-8.9199999999999999

>  <m_primary>  (44) 
energy

>  <meeko>  (44) 
{"free_energy": -8.89, "intermolecular_energy": -9.79, "internal_energy": -1.25, "cluster_size": 19, "cluster_id": 1, "rank_in_cluster": 14}

>  <energy>  (44) 
-8.91

>  <cluster_rmsd>  (44) 
0.06

>  <rmsd>  (44) 
270.21

>  <cluster>  (44) 
1

$$$$
KZWACXAMTSGJSU-GYCJOSAFNA-N
     RDKit          3D

 55 60  0  0  0  0  0  0  0  0999 V2000
  141.3160   71.8280  221.0140 O   0  0  0  0  0  0  0  0  0  0  0  0
  140.6180   72.3000  221.9510 C   0  0  0  0  0  0  0  0  0  0  0  0
  140.3720   71.4860  223.1540 C   0  0  0  0  0  0  0  0  0  0  0  0
  140.6640   71.8790  224.4580 C   0  0  0  0  0  0  0  0  0  0  0  0
  140.2530   70.8260  225.2500 C   0  0  0  0  0  0  0  0  0  0  0  0
  140.2950   70.6520  226.6350 C   0  0  0  0  0  0  0  0  0  0  0  0
  140.9590   71.8800  227.6990 Cl  0  0  0  0  0  0  0  0  0  0  0  0
  139.7840   69.4500  227.1600 C   0  0  0  0  0  0  0  0  0  0  0  0
  139.2490   68.4650  226.3010 C   0  0  0  0  0  0  0  0  0  0  0  0
  139.2190   68.6700  224.9100 C   0  0  0  0  0  0  0  0  0  0  0  0
  139.7330   69.8680  224.4180 C   0  0  0  0  0  0  0  0  0  0  0  0
  139.7970   70.2590  223.1350 N   0  0  0  0  0  0  0  0  0  0  0  0
  140.1210   73.6420  221.8490 N   0  0  0  0  0  0  0  0  0  0  0  0
  140.9610   74.8010  221.5590 C   0  0  0  0  0  0  0  0  0  0  0  0
  140.0070   76.0420  221.6000 C   0  0  2  0  0  0  0  0  0  0  0  0
  140.0700   76.8980  220.3370 C   0  0  0  0  0  0  0  0  0  0  0  0
  139.7820   78.3220  220.8030 C   0  0  0  0  0  0  0  0  0  0  0  0
  139.8310   78.3380  222.2750 N   0  0  0  0  0  0  0  0  0  0  0  0
  140.5150   79.5340  222.8320 C   0  0  2  0  0  0  0  0  0  0  0  0
  141.0530   80.5080  221.7820 C   0  0  0  0  0  0  0  0  0  0  0  0
  142.5730   80.4470  221.9020 C   0  0  0  0  0  0  0  0  0  0  0  0
  142.9290   79.4100  222.8720 N   0  0  0  0  0  0  0  0  0  0  0  0
  141.7330   79.1510  223.6680 C   0  0  0  0  0  0  0  0  0  0  0  0
  140.3310   77.0280  222.7230 C   0  0  0  0  0  0  0  0  0  0  0  0
  138.6480   75.4150  221.7960 C   0  0  0  0  0  0  0  0  0  0  0  0
  137.3940   76.0360  221.8420 C   0  0  0  0  0  0  0  0  0  0  0  0
  136.2510   75.2380  222.0000 C   0  0  0  0  0  0  0  0  0  0  0  0
  136.3710   73.8400  222.1000 C   0  0  0  0  0  0  0  0  0  0  0  0
  137.6380   73.2360  222.0560 C   0  0  0  0  0  0  0  0  0  0  0  0
  138.7650   74.0550  221.9280 C   0  0  0  0  0  0  0  0  0  0  0  0
  141.1227   72.8236  224.7855 H   0  0  0  0  0  0  0  0  0  0  0  0
  139.8015   69.2769  228.2462 H   0  0  0  0  0  0  0  0  0  0  0  0
  138.8525   67.5299  226.7233 H   0  0  0  0  0  0  0  0  0  0  0  0
  138.8034   67.9095  224.2326 H   0  0  0  0  0  0  0  0  0  0  0  0
  139.4540   69.7290  222.3020 H   0  0  0  0  0  0  0  0  0  0  0  0
  141.7513   74.9004  222.3177 H   0  0  0  0  0  0  0  0  0  0  0  0
  141.4585   74.7056  220.5826 H   0  0  0  0  0  0  0  0  0  0  0  0
  141.0682   76.8366  219.8790 H   0  0  0  0  0  0  0  0  0  0  0  0
  139.3504   76.5613  219.5763 H   0  0  0  0  0  0  0  0  0  0  0  0
  140.5398   79.0081  220.3968 H   0  0  0  0  0  0  0  0  0  0  0  0
  138.7920   78.6466  220.4501 H   0  0  0  0  0  0  0  0  0  0  0  0
  139.7219   80.0161  223.4225 H   0  0  0  0  0  0  0  0  0  0  0  0
  140.7352   80.2002  220.7749 H   0  0  0  0  0  0  0  0  0  0  0  0
  140.6738   81.5280  221.9426 H   0  0  0  0  0  0  0  0  0  0  0  0
  143.0115   80.2036  220.9230 H   0  0  0  0  0  0  0  0  0  0  0  0
  142.9606   81.4205  222.2368 H   0  0  0  0  0  0  0  0  0  0  0  0
  143.1670   78.5360  222.3470 H   0  0  0  0  0  0  0  0  0  0  0  0
  141.6841   78.0841  223.9311 H   0  0  0  0  0  0  0  0  0  0  0  0
  141.7583   79.7400  224.5967 H   0  0  0  0  0  0  0  0  0  0  0  0
  141.4172   77.0714  222.8910 H   0  0  0  0  0  0  0  0  0  0  0  0
  139.8644   76.7234  223.6714 H   0  0  0  0  0  0  0  0  0  0  0  0
  137.3066   77.1291  221.7559 H   0  0  0  0  0  0  0  0  0  0  0  0
  135.2572   75.7073  222.0459 H   0  0  0  0  0  0  0  0  0  0  0  0
  135.4704   73.2186  222.2129 H   0  0  0  0  0  0  0  0  0  0  0  0
  137.7421   72.1429  222.1208 H   0  0  0  0  0  0  0  0  0  0  0  0
  1  2  2  0
  2  3  1  0
  3  4  2  0
  4  5  1  0
  5  6  2  0
  6  7  1  0
  6  8  1  0
  8  9  2  0
  9 10  1  0
 10 11  2  0
 11 12  1  0
  2 13  1  0
 13 14  1  0
 15 14  1  6
 15 16  1  0
 16 17  1  0
 17 18  1  0
 18 19  1  0
 19 20  1  0
 20 21  1  0
 21 22  1  0
 22 23  1  0
 18 24  1  0
 15 25  1  0
 25 26  2  0
 26 27  1  0
 27 28  2  0
 28 29  1  0
 29 30  2  0
 12  3  1  0
 30 13  1  0
 11  5  1  0
 24 15  1  0
 30 25  1  0
 23 19  1  0
  4 31  1  0
  8 32  1  0
  9 33  1  0
 10 34  1  0
 12 35  1  0
 14 36  1  0
 14 37  1  0
 16 38  1  0
 16 39  1  0
 17 40  1  0
 17 41  1  0
 19 42  1  1
 20 43  1  0
 20 44  1  0
 21 45  1  0
 21 46  1  0
 22 47  1  0
 23 48  1  0
 23 49  1  0
 24 50  1  0
 24 51  1  0
 26 52  1  0
 27 53  1  0
 28 54  1  0
 29 55  1  0
M  END
>  <UniqueID>  (45) 
163

>  <SMILES>  (45) 
O=C(c1cc2c(Cl)cccc2[nH]1)N1C[C@@]2(CCN([C@@H]3CCNC3)C2)c2ccccc21

>  <Energy>  (45) 
123.92147565229676

>  <Genealogy>  (45) 
O=C(c1cc2c(Cl)cccc2[nH]1)N1C[C@@]2(CCN([C@@H]3CCNC3)C2)c2ccccc21 (chirality)
O=C(c1cc2c(Cl)cccc2[nH]1)N1C[C@@]2(CCN([C@@H]3CCNC3)C2)c2ccccc21 (3D coordinates assigned)
O=C(c1cc2c(Cl)cccc2[nH]1)N1C[C@@]2(CCN([C@@H]3CCNC3)C2)c2ccccc21 (nonaromatic ring conformer: 123.92147565229676 kcal/mol)

>  <smiles>  (45) 
O=C(c1cc2c(Cl)cccc2[nH]1)N1C[C@@]2(CCN(C3CCNC3)C2)c2ccccc21

>  <score_type>  (45) 
oracle

>  <origin>  (45) 
autodockgpu

>  <m_score__min__energy>  (45) 
-8.9199999999999999

>  <m_primary>  (45) 
energy

>  <meeko>  (45) 
{"free_energy": -8.91, "intermolecular_energy": -9.8, "internal_energy": -1.25, "cluster_size": 19, "cluster_id": 1, "rank_in_cluster": 5}

>  <energy>  (45) 
-8.91

>  <cluster_rmsd>  (45) 
0.05

>  <rmsd>  (45) 
270.2

>  <cluster>  (45) 
1

$$$$
KZWACXAMTSGJSU-GYCJOSAFNA-N
     RDKit          3D

 55 60  0  0  0  0  0  0  0  0999 V2000
  141.3740   71.8500  221.0680 O   0  0  0  0  0  0  0  0  0  0  0  0
  140.6600   72.3200  221.9930 C   0  0  0  0  0  0  0  0  0  0  0  0
  140.4010   71.5060  223.1940 C   0  0  0  0  0  0  0  0  0  0  0  0
  140.6920   71.8960  224.5000 C   0  0  0  0  0  0  0  0  0  0  0  0
  140.2680   70.8460  225.2890 C   0  0  0  0  0  0  0  0  0  0  0  0
  140.3040   70.6700  226.6740 C   0  0  0  0  0  0  0  0  0  0  0  0
  140.9750   71.8920  227.7410 Cl  0  0  0  0  0  0  0  0  0  0  0  0
  139.7800   69.4720  227.1960 C   0  0  0  0  0  0  0  0  0  0  0  0
  139.2390   68.4930  226.3340 C   0  0  0  0  0  0  0  0  0  0  0  0
  139.2160   68.6990  224.9430 C   0  0  0  0  0  0  0  0  0  0  0  0
  139.7430   69.8940  224.4540 C   0  0  0  0  0  0  0  0  0  0  0  0
  139.8150   70.2850  223.1710 N   0  0  0  0  0  0  0  0  0  0  0  0
  140.1540   73.6570  221.8800 N   0  0  0  0  0  0  0  0  0  0  0  0
  140.9870   74.8190  221.5810 C   0  0  0  0  0  0  0  0  0  0  0  0
  140.0260   76.0550  221.6130 C   0  0  2  0  0  0  0  0  0  0  0  0
  140.0840   76.9020  220.3430 C   0  0  0  0  0  0  0  0  0  0  0  0
  139.7880   78.3280  220.7970 C   0  0  0  0  0  0  0  0  0  0  0  0
  139.8380   78.3550  222.2690 N   0  0  0  0  0  0  0  0  0  0  0  0
  140.5150   79.5600  222.8160 C   0  0  2  0  0  0  0  0  0  0  0  0
  141.0370   80.5340  221.7580 C   0  0  0  0  0  0  0  0  0  0  0  0
  142.5580   80.4870  221.8680 C   0  0  0  0  0  0  0  0  0  0  0  0
  142.9300   79.4570  222.8390 N   0  0  0  0  0  0  0  0  0  0  0  0
  141.7420   79.1910  223.6450 C   0  0  0  0  0  0  0  0  0  0  0  0
  140.3450   77.0510  222.7270 C   0  0  0  0  0  0  0  0  0  0  0  0
  138.6720   75.4220  221.8130 C   0  0  0  0  0  0  0  0  0  0  0  0
  137.4140   76.0360  221.8550 C   0  0  0  0  0  0  0  0  0  0  0  0
  136.2750   75.2320  222.0200 C   0  0  0  0  0  0  0  0  0  0  0  0
  136.4040   73.8370  222.1310 C   0  0  0  0  0  0  0  0  0  0  0  0
  137.6730   73.2390  222.0910 C   0  0  0  0  0  0  0  0  0  0  0  0
  138.7960   74.0640  221.9570 C   0  0  0  0  0  0  0  0  0  0  0  0
  141.1582   72.8361  224.8301 H   0  0  0  0  0  0  0  0  0  0  0  0
  139.7921   69.2975  228.2820 H   0  0  0  0  0  0  0  0  0  0  0  0
  138.8321   67.5614  226.7541 H   0  0  0  0  0  0  0  0  0  0  0  0
  138.7963   67.9427  224.2633 H   0  0  0  0  0  0  0  0  0  0  0  0
  139.4710   69.7590  222.3380 H   0  0  0  0  0  0  0  0  0  0  0  0
  141.7770   74.9287  222.3386 H   0  0  0  0  0  0  0  0  0  0  0  0
  141.4845   74.7191  220.6050 H   0  0  0  0  0  0  0  0  0  0  0  0
  141.0826   76.8427  219.8855 H   0  0  0  0  0  0  0  0  0  0  0  0
  139.3659   76.5552  219.5853 H   0  0  0  0  0  0  0  0  0  0  0  0
  140.5416   79.0153  220.3849 H   0  0  0  0  0  0  0  0  0  0  0  0
  138.7963   78.6448  220.4418 H   0  0  0  0  0  0  0  0  0  0  0  0
  139.7219   80.0381  223.4097 H   0  0  0  0  0  0  0  0  0  0  0  0
  140.7151   80.2188  220.7545 H   0  0  0  0  0  0  0  0  0  0  0  0
  140.6498   81.5513  221.9165 H   0  0  0  0  0  0  0  0  0  0  0  0
  142.9921   80.2440  220.8869 H   0  0  0  0  0  0  0  0  0  0  0  0
  142.9389   81.4651  222.1969 H   0  0  0  0  0  0  0  0  0  0  0  0
  143.1730   78.5830  222.3160 H   0  0  0  0  0  0  0  0  0  0  0  0
  141.7042   78.1248  223.9130 H   0  0  0  0  0  0  0  0  0  0  0  0
  141.7689   79.7840  224.5711 H   0  0  0  0  0  0  0  0  0  0  0  0
  141.4311   77.1014  222.8941 H   0  0  0  0  0  0  0  0  0  0  0  0
  139.8802   76.7515  223.6779 H   0  0  0  0  0  0  0  0  0  0  0  0
  137.3201   77.1279  221.7605 H   0  0  0  0  0  0  0  0  0  0  0  0
  135.2783   75.6955  222.0626 H   0  0  0  0  0  0  0  0  0  0  0  0
  135.5070   73.2115  222.2497 H   0  0  0  0  0  0  0  0  0  0  0  0
  137.7827   72.1469  222.1633 H   0  0  0  0  0  0  0  0  0  0  0  0
  1  2  2  0
  2  3  1  0
  3  4  2  0
  4  5  1  0
  5  6  2  0
  6  7  1  0
  6  8  1  0
  8  9  2  0
  9 10  1  0
 10 11  2  0
 11 12  1  0
  2 13  1  0
 13 14  1  0
 15 14  1  6
 15 16  1  0
 16 17  1  0
 17 18  1  0
 18 19  1  0
 19 20  1  0
 20 21  1  0
 21 22  1  0
 22 23  1  0
 18 24  1  0
 15 25  1  0
 25 26  2  0
 26 27  1  0
 27 28  2  0
 28 29  1  0
 29 30  2  0
 12  3  1  0
 30 13  1  0
 11  5  1  0
 24 15  1  0
 30 25  1  0
 23 19  1  0
  4 31  1  0
  8 32  1  0
  9 33  1  0
 10 34  1  0
 12 35  1  0
 14 36  1  0
 14 37  1  0
 16 38  1  0
 16 39  1  0
 17 40  1  0
 17 41  1  0
 19 42  1  1
 20 43  1  0
 20 44  1  0
 21 45  1  0
 21 46  1  0
 22 47  1  0
 23 48  1  0
 23 49  1  0
 24 50  1  0
 24 51  1  0
 26 52  1  0
 27 53  1  0
 28 54  1  0
 29 55  1  0
M  END
>  <UniqueID>  (46) 
163

>  <SMILES>  (46) 
O=C(c1cc2c(Cl)cccc2[nH]1)N1C[C@@]2(CCN([C@@H]3CCNC3)C2)c2ccccc21

>  <Energy>  (46) 
123.92147565229676

>  <Genealogy>  (46) 
O=C(c1cc2c(Cl)cccc2[nH]1)N1C[C@@]2(CCN([C@@H]3CCNC3)C2)c2ccccc21 (chirality)
O=C(c1cc2c(Cl)cccc2[nH]1)N1C[C@@]2(CCN([C@@H]3CCNC3)C2)c2ccccc21 (3D coordinates assigned)
O=C(c1cc2c(Cl)cccc2[nH]1)N1C[C@@]2(CCN([C@@H]3CCNC3)C2)c2ccccc21 (nonaromatic ring conformer: 123.92147565229676 kcal/mol)

>  <smiles>  (46) 
O=C(c1cc2c(Cl)cccc2[nH]1)N1C[C@@]2(CCN(C3CCNC3)C2)c2ccccc21

>  <score_type>  (46) 
oracle

>  <origin>  (46) 
autodockgpu

>  <m_score__min__energy>  (46) 
-8.9199999999999999

>  <m_primary>  (46) 
energy

>  <meeko>  (46) 
{"free_energy": -8.92, "intermolecular_energy": -9.81, "internal_energy": -1.25, "cluster_size": 19, "cluster_id": 1, "rank_in_cluster": 2}

>  <energy>  (46) 
-8.91

>  <cluster_rmsd>  (46) 
0.07

>  <rmsd>  (46) 
270.23

>  <cluster>  (46) 
1

$$$$
KZWACXAMTSGJSU-GYCJOSAFNA-N
     RDKit          3D

 55 60  0  0  0  0  0  0  0  0999 V2000
  141.4350   71.8250  221.1090 O   0  0  0  0  0  0  0  0  0  0  0  0
  140.7010   72.2910  222.0210 C   0  0  0  0  0  0  0  0  0  0  0  0
  140.4320   71.4780  223.2200 C   0  0  0  0  0  0  0  0  0  0  0  0
  140.7100   71.8690  224.5290 C   0  0  0  0  0  0  0  0  0  0  0  0
  140.2790   70.8200  225.3150 C   0  0  0  0  0  0  0  0  0  0  0  0
  140.3020   70.6440  226.7000 C   0  0  0  0  0  0  0  0  0  0  0  0
  140.9630   71.8670  227.7720 Cl  0  0  0  0  0  0  0  0  0  0  0  0
  139.7740   69.4470  227.2180 C   0  0  0  0  0  0  0  0  0  0  0  0
  139.2400   68.4670  226.3520 C   0  0  0  0  0  0  0  0  0  0  0  0
  139.2310   68.6730  224.9610 C   0  0  0  0  0  0  0  0  0  0  0  0
  139.7620   69.8660  224.4760 C   0  0  0  0  0  0  0  0  0  0  0  0
  139.8460   70.2570  223.1930 N   0  0  0  0  0  0  0  0  0  0  0  0
  140.1830   73.6220  221.8960 N   0  0  0  0  0  0  0  0  0  0  0  0
  141.0060   74.7910  221.5980 C   0  0  0  0  0  0  0  0  0  0  0  0
  140.0320   76.0160  221.6120 C   0  0  2  0  0  0  0  0  0  0  0  0
  140.0940   76.8560  220.3380 C   0  0  0  0  0  0  0  0  0  0  0  0
  139.7780   78.2820  220.7810 C   0  0  0  0  0  0  0  0  0  0  0  0
  139.8130   78.3190  222.2530 N   0  0  0  0  0  0  0  0  0  0  0  0
  140.4720   79.5330  222.8000 C   0  0  2  0  0  0  0  0  0  0  0  0
  141.0090   80.4990  221.7420 C   0  0  0  0  0  0  0  0  0  0  0  0
  142.5270   80.4620  221.8820 C   0  0  0  0  0  0  0  0  0  0  0  0
  142.8870   79.4460  222.8720 N   0  0  0  0  0  0  0  0  0  0  0  0
  141.6850   79.1810  223.6570 C   0  0  0  0  0  0  0  0  0  0  0  0
  140.3290   77.0230  222.7240 C   0  0  0  0  0  0  0  0  0  0  0  0
  138.6820   75.3710  221.8030 C   0  0  0  0  0  0  0  0  0  0  0  0
  137.4180   75.9710  221.8290 C   0  0  0  0  0  0  0  0  0  0  0  0
  136.2860   75.1570  221.9870 C   0  0  0  0  0  0  0  0  0  0  0  0
  136.4280   73.7630  222.1070 C   0  0  0  0  0  0  0  0  0  0  0  0
  137.7040   73.1790  222.0840 C   0  0  0  0  0  0  0  0  0  0  0  0
  138.8200   74.0150  221.9560 C   0  0  0  0  0  0  0  0  0  0  0  0
  141.1725   72.8096  224.8628 H   0  0  0  0  0  0  0  0  0  0  0  0
  139.7771   69.2733  228.3042 H   0  0  0  0  0  0  0  0  0  0  0  0
  138.8282   67.5360  226.7688 H   0  0  0  0  0  0  0  0  0  0  0  0
  138.8179   67.9163  224.2778 H   0  0  0  0  0  0  0  0  0  0  0  0
  139.5090   69.7300  222.3570 H   0  0  0  0  0  0  0  0  0  0  0  0
  141.7868   74.9143  222.3629 H   0  0  0  0  0  0  0  0  0  0  0  0
  141.5144   74.6903  220.6278 H   0  0  0  0  0  0  0  0  0  0  0  0
  141.0978   76.8048  219.8910 H   0  0  0  0  0  0  0  0  0  0  0  0
  139.3875   76.4972  219.5750 H   0  0  0  0  0  0  0  0  0  0  0  0
  140.5281   78.9749  220.3721 H   0  0  0  0  0  0  0  0  0  0  0  0
  138.7863   78.5854  220.4144 H   0  0  0  0  0  0  0  0  0  0  0  0
  139.6644   80.0119  223.3731 H   0  0  0  0  0  0  0  0  0  0  0  0
  140.7085   80.1715  220.7358 H   0  0  0  0  0  0  0  0  0  0  0  0
  140.6130   81.5156  221.8821 H   0  0  0  0  0  0  0  0  0  0  0  0
  142.9812   80.2101  220.9124 H   0  0  0  0  0  0  0  0  0  0  0  0
  142.8955   81.4462  222.2070 H   0  0  0  0  0  0  0  0  0  0  0  0
  143.1450   78.5680  222.3630 H   0  0  0  0  0  0  0  0  0  0  0  0
  141.6486   78.1175  223.9358 H   0  0  0  0  0  0  0  0  0  0  0  0
  141.6898   79.7842  224.5768 H   0  0  0  0  0  0  0  0  0  0  0  0
  141.4127   77.0859  222.9020 H   0  0  0  0  0  0  0  0  0  0  0  0
  139.8574   76.7243  223.6718 H   0  0  0  0  0  0  0  0  0  0  0  0
  137.3137   77.0613  221.7274 H   0  0  0  0  0  0  0  0  0  0  0  0
  135.2844   75.6107  222.0171 H   0  0  0  0  0  0  0  0  0  0  0  0
  135.5364   73.1286  222.2192 H   0  0  0  0  0  0  0  0  0  0  0  0
  137.8247   72.0886  222.1648 H   0  0  0  0  0  0  0  0  0  0  0  0
  1  2  2  0
  2  3  1  0
  3  4  2  0
  4  5  1  0
  5  6  2  0
  6  7  1  0
  6  8  1  0
  8  9  2  0
  9 10  1  0
 10 11  2  0
 11 12  1  0
  2 13  1  0
 13 14  1  0
 15 14  1  6
 15 16  1  0
 16 17  1  0
 17 18  1  0
 18 19  1  0
 19 20  1  0
 20 21  1  0
 21 22  1  0
 22 23  1  0
 18 24  1  0
 15 25  1  0
 25 26  2  0
 26 27  1  0
 27 28  2  0
 28 29  1  0
 29 30  2  0
 12  3  1  0
 30 13  1  0
 11  5  1  0
 24 15  1  0
 30 25  1  0
 23 19  1  0
  4 31  1  0
  8 32  1  0
  9 33  1  0
 10 34  1  0
 12 35  1  0
 14 36  1  0
 14 37  1  0
 16 38  1  0
 16 39  1  0
 17 40  1  0
 17 41  1  0
 19 42  1  1
 20 43  1  0
 20 44  1  0
 21 45  1  0
 21 46  1  0
 22 47  1  0
 23 48  1  0
 23 49  1  0
 24 50  1  0
 24 51  1  0
 26 52  1  0
 27 53  1  0
 28 54  1  0
 29 55  1  0
M  END
>  <UniqueID>  (47) 
163

>  <SMILES>  (47) 
O=C(c1cc2c(Cl)cccc2[nH]1)N1C[C@@]2(CCN([C@@H]3CCNC3)C2)c2ccccc21

>  <Energy>  (47) 
123.92147565229676

>  <Genealogy>  (47) 
O=C(c1cc2c(Cl)cccc2[nH]1)N1C[C@@]2(CCN([C@@H]3CCNC3)C2)c2ccccc21 (chirality)
O=C(c1cc2c(Cl)cccc2[nH]1)N1C[C@@]2(CCN([C@@H]3CCNC3)C2)c2ccccc21 (3D coordinates assigned)
O=C(c1cc2c(Cl)cccc2[nH]1)N1C[C@@]2(CCN([C@@H]3CCNC3)C2)c2ccccc21 (nonaromatic ring conformer: 123.92147565229676 kcal/mol)

>  <smiles>  (47) 
O=C(c1cc2c(Cl)cccc2[nH]1)N1C[C@@]2(CCN(C3CCNC3)C2)c2ccccc21

>  <score_type>  (47) 
oracle

>  <origin>  (47) 
autodockgpu

>  <m_score__min__energy>  (47) 
-8.9199999999999999

>  <m_primary>  (47) 
energy

>  <meeko>  (47) 
{"free_energy": -8.9, "intermolecular_energy": -9.8, "internal_energy": -1.25, "cluster_size": 19, "cluster_id": 1, "rank_in_cluster": 8}

>  <energy>  (47) 
-8.91

>  <cluster_rmsd>  (47) 
0.06

>  <rmsd>  (47) 
270.23

>  <cluster>  (47) 
1

$$$$
KZWACXAMTSGJSU-GYCJOSAFNA-N
     RDKit          3D

 55 60  0  0  0  0  0  0  0  0999 V2000
  138.7640   75.7830  219.9110 O   0  0  0  0  0  0  0  0  0  0  0  0
  139.5570   75.6500  220.8820 C   0  0  0  0  0  0  0  0  0  0  0  0
  140.0720   76.8490  221.5660 C   0  0  0  0  0  0  0  0  0  0  0  0
  139.2840   77.7980  222.2150 C   0  0  0  0  0  0  0  0  0  0  0  0
  140.1780   78.7200  222.7210 C   0  0  0  0  0  0  0  0  0  0  0  0
  139.9710   79.8860  223.4590 C   0  0  0  0  0  0  0  0  0  0  0  0
  138.3580   80.4230  223.9000 Cl  0  0  0  0  0  0  0  0  0  0  0  0
  141.1030   80.6290  223.8450 C   0  0  0  0  0  0  0  0  0  0  0  0
  142.3990   80.1920  223.4900 C   0  0  0  0  0  0  0  0  0  0  0  0
  142.5760   79.0120  222.7460 C   0  0  0  0  0  0  0  0  0  0  0  0
  141.4370   78.2990  222.3760 C   0  0  0  0  0  0  0  0  0  0  0  0
  141.3870   77.1560  221.6730 N   0  0  0  0  0  0  0  0  0  0  0  0
  139.9030   74.3330  221.3320 N   0  0  0  0  0  0  0  0  0  0  0  0
  138.9820   73.4490  222.0430 C   0  0  0  0  0  0  0  0  0  0  0  0
  139.8020   72.1580  222.3790 C   0  0  2  0  0  0  0  0  0  0  0  0
  139.1320   70.8720  221.8980 C   0  0  0  0  0  0  0  0  0  0  0  0
  139.5510   69.8020  222.9030 C   0  0  0  0  0  0  0  0  0  0  0  0
  140.1850   70.4770  224.0480 N   0  0  0  0  0  0  0  0  0  0  0  0
  139.7920   69.9080  225.3630 C   0  0  2  0  0  0  0  0  0  0  0  0
  140.9180   69.1880  226.1080 C   0  0  0  0  0  0  0  0  0  0  0  0
  140.5180   67.7160  226.1370 C   0  0  0  0  0  0  0  0  0  0  0  0
  139.2960   67.5420  225.3500 N   0  0  0  0  0  0  0  0  0  0  0  0
  138.6890   68.8640  225.2200 C   0  0  0  0  0  0  0  0  0  0  0  0
  139.9960   71.9270  223.8770 C   0  0  0  0  0  0  0  0  0  0  0  0
  141.1190   72.4070  221.6860 C   0  0  0  0  0  0  0  0  0  0  0  0
  142.2300   71.5610  221.5830 C   0  0  0  0  0  0  0  0  0  0  0  0
  143.3450   71.9960  220.8510 C   0  0  0  0  0  0  0  0  0  0  0  0
  143.3350   73.2560  220.2280 C   0  0  0  0  0  0  0  0  0  0  0  0
  142.2140   74.0930  220.3460 C   0  0  0  0  0  0  0  0  0  0  0  0
  141.1260   73.6500  221.1070 C   0  0  0  0  0  0  0  0  0  0  0  0
  138.1877   77.8097  222.3045 H   0  0  0  0  0  0  0  0  0  0  0  0
  140.9778   81.5546  224.4260 H   0  0  0  0  0  0  0  0  0  0  0  0
  143.2764   80.7796  223.7981 H   0  0  0  0  0  0  0  0  0  0  0  0
  143.5807   78.6630  222.4652 H   0  0  0  0  0  0  0  0  0  0  0  0
  142.2000   76.6120  221.3060 H   0  0  0  0  0  0  0  0  0  0  0  0
  138.6275   73.9288  222.9672 H   0  0  0  0  0  0  0  0  0  0  0  0
  138.0940   73.2177  221.4364 H   0  0  0  0  0  0  0  0  0  0  0  0
  138.0380   70.9866  221.8903 H   0  0  0  0  0  0  0  0  0  0  0  0
  139.4310   70.6117  220.8719 H   0  0  0  0  0  0  0  0  0  0  0  0
  138.6671   69.2420  223.2424 H   0  0  0  0  0  0  0  0  0  0  0  0
  140.2545   69.0955  222.4383 H   0  0  0  0  0  0  0  0  0  0  0  0
  139.4731   70.7958  225.9288 H   0  0  0  0  0  0  0  0  0  0  0  0
  141.8726   69.3157  225.5765 H   0  0  0  0  0  0  0  0  0  0  0  0
  141.0569   69.5912  227.1220 H   0  0  0  0  0  0  0  0  0  0  0  0
  141.3251   67.1053  225.7060 H   0  0  0  0  0  0  0  0  0  0  0  0
  140.3417   67.3977  227.1751 H   0  0  0  0  0  0  0  0  0  0  0  0
  139.5640   67.2110  224.3930 H   0  0  0  0  0  0  0  0  0  0  0  0
  138.2109   68.9594  224.2340 H   0  0  0  0  0  0  0  0  0  0  0  0
  137.9233   69.0098  225.9962 H   0  0  0  0  0  0  0  0  0  0  0  0
  139.1086   72.2640  224.4328 H   0  0  0  0  0  0  0  0  0  0  0  0
  140.8583   72.4917  224.2612 H   0  0  0  0  0  0  0  0  0  0  0  0
  142.2286   70.5733  222.0672 H   0  0  0  0  0  0  0  0  0  0  0  0
  144.2302   71.3488  220.7643 H   0  0  0  0  0  0  0  0  0  0  0  0
  144.2079   73.5872  219.6464 H   0  0  0  0  0  0  0  0  0  0  0  0
  142.1913   75.0752  219.8513 H   0  0  0  0  0  0  0  0  0  0  0  0
  1  2  2  0
  2  3  1  0
  3  4  2  0
  4  5  1  0
  5  6  2  0
  6  7  1  0
  6  8  1  0
  8  9  2  0
  9 10  1  0
 10 11  2  0
 11 12  1  0
  2 13  1  0
 13 14  1  0
 15 14  1  1
 15 16  1  0
 16 17  1  0
 17 18  1  0
 18 19  1  0
 19 20  1  0
 20 21  1  0
 21 22  1  0
 22 23  1  0
 18 24  1  0
 15 25  1  0
 25 26  2  0
 26 27  1  0
 27 28  2  0
 28 29  1  0
 29 30  2  0
 12  3  1  0
 30 13  1  0
 11  5  1  0
 24 15  1  0
 30 25  1  0
 23 19  1  0
  4 31  1  0
  8 32  1  0
  9 33  1  0
 10 34  1  0
 12 35  1  0
 14 36  1  0
 14 37  1  0
 16 38  1  0
 16 39  1  0
 17 40  1  0
 17 41  1  0
 19 42  1  1
 20 43  1  0
 20 44  1  0
 21 45  1  0
 21 46  1  0
 22 47  1  0
 23 48  1  0
 23 49  1  0
 24 50  1  0
 24 51  1  0
 26 52  1  0
 27 53  1  0
 28 54  1  0
 29 55  1  0
M  END
>  <UniqueID>  (48) 
163

>  <SMILES>  (48) 
O=C(c1cc2c(Cl)cccc2[nH]1)N1C[C@@]2(CCN([C@@H]3CCNC3)C2)c2ccccc21

>  <Energy>  (48) 
123.92147565229676

>  <Genealogy>  (48) 
O=C(c1cc2c(Cl)cccc2[nH]1)N1C[C@@]2(CCN([C@@H]3CCNC3)C2)c2ccccc21 (chirality)
O=C(c1cc2c(Cl)cccc2[nH]1)N1C[C@@]2(CCN([C@@H]3CCNC3)C2)c2ccccc21 (3D coordinates assigned)
O=C(c1cc2c(Cl)cccc2[nH]1)N1C[C@@]2(CCN([C@@H]3CCNC3)C2)c2ccccc21 (nonaromatic ring conformer: 123.92147565229676 kcal/mol)

>  <smiles>  (48) 
O=C(c1cc2c(Cl)cccc2[nH]1)N1C[C@@]2(CCN(C3CCNC3)C2)c2ccccc21

>  <score_type>  (48) 
oracle

>  <origin>  (48) 
autodockgpu

>  <m_score__min__energy>  (48) 
-8.9199999999999999

>  <m_primary>  (48) 
energy

>  <meeko>  (48) 
{"free_energy": -8.89, "intermolecular_energy": -9.79, "internal_energy": -1.07, "cluster_size": 1, "cluster_id": 2, "rank_in_cluster": 1}

>  <energy>  (48) 
-8.9

>  <cluster_rmsd>  (48) 
0.09

>  <rmsd>  (48) 
270.23

>  <cluster>  (48) 
1

$$$$
KZWACXAMTSGJSU-GYCJOSAFNA-N
     RDKit          3D

 55 60  0  0  0  0  0  0  0  0999 V2000
  141.1660   71.6210  220.9500 O   0  0  0  0  0  0  0  0  0  0  0  0
  140.5660   72.1640  221.9160 C   0  0  0  0  0  0  0  0  0  0  0  0
  140.3960   71.4180  223.1750 C   0  0  0  0  0  0  0  0  0  0  0  0
  140.7040   71.9100  224.4420 C   0  0  0  0  0  0  0  0  0  0  0  0
  140.3700   70.8920  225.3120 C   0  0  0  0  0  0  0  0  0  0  0  0
  140.4600   70.8100  226.7020 C   0  0  0  0  0  0  0  0  0  0  0  0
  141.0900   72.1380  227.6640 Cl  0  0  0  0  0  0  0  0  0  0  0  0
  140.0270   69.6210  227.3190 C   0  0  0  0  0  0  0  0  0  0  0  0
  139.5190   68.5570  226.5420 C   0  0  0  0  0  0  0  0  0  0  0  0
  139.4400   68.6690  225.1420 C   0  0  0  0  0  0  0  0  0  0  0  0
  139.8780   69.8570  224.5590 C   0  0  0  0  0  0  0  0  0  0  0  0
  139.8850   70.1660  223.2520 N   0  0  0  0  0  0  0  0  0  0  0  0
  140.1050   73.5160  221.7860 N   0  0  0  0  0  0  0  0  0  0  0  0
  140.9900   74.6620  221.5960 C   0  0  0  0  0  0  0  0  0  0  0  0
  140.0590   75.9210  221.5640 C   0  0  2  0  0  0  0  0  0  0  0  0
  140.2600   76.7930  220.3250 C   0  0  0  0  0  0  0  0  0  0  0  0
  139.9550   78.2160  220.7820 C   0  0  0  0  0  0  0  0  0  0  0  0
  139.8620   78.2110  222.2520 N   0  0  0  0  0  0  0  0  0  0  0  0
  140.5100   79.3860  222.8910 C   0  0  2  0  0  0  0  0  0  0  0  0
  140.9350   80.4870  221.9170 C   0  0  0  0  0  0  0  0  0  0  0  0
  142.4600   80.5040  221.9540 C   0  0  0  0  0  0  0  0  0  0  0  0
  142.9260   79.4020  222.7960 N   0  0  0  0  0  0  0  0  0  0  0  0
  141.7920   78.9970  223.6220 C   0  0  0  0  0  0  0  0  0  0  0  0
  140.2910   76.8850  222.7260 C   0  0  0  0  0  0  0  0  0  0  0  0
  138.6770   75.3190  221.6170 C   0  0  0  0  0  0  0  0  0  0  0  0
  137.4360   75.9630  221.5520 C   0  0  0  0  0  0  0  0  0  0  0  0
  136.2680   75.1860  221.5860 C   0  0  0  0  0  0  0  0  0  0  0  0
  136.3530   73.7850  221.6760 C   0  0  0  0  0  0  0  0  0  0  0  0
  137.6070   73.1560  221.7460 C   0  0  0  0  0  0  0  0  0  0  0  0
  138.7560   73.9550  221.7400 C   0  0  0  0  0  0  0  0  0  0  0  0
  141.1224   72.8956  224.6939 H   0  0  0  0  0  0  0  0  0  0  0  0
  140.0847   69.5202  228.4129 H   0  0  0  0  0  0  0  0  0  0  0  0
  139.1824   67.6333  227.0354 H   0  0  0  0  0  0  0  0  0  0  0  0
  139.0456   67.8462  224.5276 H   0  0  0  0  0  0  0  0  0  0  0  0
  139.5460   69.5670  222.4660 H   0  0  0  0  0  0  0  0  0  0  0  0
  141.7051   74.7357  222.4286 H   0  0  0  0  0  0  0  0  0  0  0  0
  141.5777   74.5700  220.6707 H   0  0  0  0  0  0  0  0  0  0  0  0
  141.2965   76.7177  219.9646 H   0  0  0  0  0  0  0  0  0  0  0  0
  139.6110   76.4808  219.4935 H   0  0  0  0  0  0  0  0  0  0  0  0
  140.7611   78.8922  220.4611 H   0  0  0  0  0  0  0  0  0  0  0  0
  139.0102   78.5654  220.3402 H   0  0  0  0  0  0  0  0  0  0  0  0
  139.7265   79.7606  223.5662 H   0  0  0  0  0  0  0  0  0  0  0  0
  140.5784   80.2595  220.9016 H   0  0  0  0  0  0  0  0  0  0  0  0
  140.5110   81.4627  222.1967 H   0  0  0  0  0  0  0  0  0  0  0  0
  142.8555   80.3826  220.9347 H   0  0  0  0  0  0  0  0  0  0  0  0
  142.8122   81.4617  222.3649 H   0  0  0  0  0  0  0  0  0  0  0  0
  143.1810   78.5980  222.1760 H   0  0  0  0  0  0  0  0  0  0  0  0
  141.8156   77.9086  223.7799 H   0  0  0  0  0  0  0  0  0  0  0  0
  141.8377   79.4943  224.6021 H   0  0  0  0  0  0  0  0  0  0  0  0
  141.3565   76.9040  222.9987 H   0  0  0  0  0  0  0  0  0  0  0  0
  139.7284   76.5777  223.6199 H   0  0  0  0  0  0  0  0  0  0  0  0
  137.3773   77.0588  221.4756 H   0  0  0  0  0  0  0  0  0  0  0  0
  135.2832   75.6740  221.5421 H   0  0  0  0  0  0  0  0  0  0  0  0
  135.4345   73.1799  221.6916 H   0  0  0  0  0  0  0  0  0  0  0  0
  137.6842   72.0603  221.8042 H   0  0  0  0  0  0  0  0  0  0  0  0
  1  2  2  0
  2  3  1  0
  3  4  2  0
  4  5  1  0
  5  6  2  0
  6  7  1  0
  6  8  1  0
  8  9  2  0
  9 10  1  0
 10 11  2  0
 11 12  1  0
  2 13  1  0
 13 14  1  0
 15 14  1  6
 15 16  1  0
 16 17  1  0
 17 18  1  0
 18 19  1  0
 19 20  1  0
 20 21  1  0
 21 22  1  0
 22 23  1  0
 18 24  1  0
 15 25  1  0
 25 26  2  0
 26 27  1  0
 27 28  2  0
 28 29  1  0
 29 30  2  0
 12  3  1  0
 30 13  1  0
 11  5  1  0
 24 15  1  0
 30 25  1  0
 23 19  1  0
  4 31  1  0
  8 32  1  0
  9 33  1  0
 10 34  1  0
 12 35  1  0
 14 36  1  0
 14 37  1  0
 16 38  1  0
 16 39  1  0
 17 40  1  0
 17 41  1  0
 19 42  1  1
 20 43  1  0
 20 44  1  0
 21 45  1  0
 21 46  1  0
 22 47  1  0
 23 48  1  0
 23 49  1  0
 24 50  1  0
 24 51  1  0
 26 52  1  0
 27 53  1  0
 28 54  1  0
 29 55  1  0
M  END
>  <UniqueID>  (49) 
163

>  <SMILES>  (49) 
O=C(c1cc2c(Cl)cccc2[nH]1)N1C[C@@]2(CCN([C@@H]3CCNC3)C2)c2ccccc21

>  <Energy>  (49) 
123.92147565229676

>  <Genealogy>  (49) 
O=C(c1cc2c(Cl)cccc2[nH]1)N1C[C@@]2(CCN([C@@H]3CCNC3)C2)c2ccccc21 (chirality)
O=C(c1cc2c(Cl)cccc2[nH]1)N1C[C@@]2(CCN([C@@H]3CCNC3)C2)c2ccccc21 (3D coordinates assigned)
O=C(c1cc2c(Cl)cccc2[nH]1)N1C[C@@]2(CCN([C@@H]3CCNC3)C2)c2ccccc21 (nonaromatic ring conformer: 123.92147565229676 kcal/mol)

>  <smiles>  (49) 
O=C(c1cc2c(Cl)cccc2[nH]1)N1C[C@@]2(CCN(C3CCNC3)C2)c2ccccc21

>  <score_type>  (49) 
oracle

>  <origin>  (49) 
autodockgpu

>  <m_score__min__energy>  (49) 
-8.9199999999999999

>  <m_primary>  (49) 
energy

>  <meeko>  (49) 
{"free_energy": -8.81, "intermolecular_energy": -9.71, "internal_energy": -1.24, "cluster_size": 19, "cluster_id": 1, "rank_in_cluster": 18}

>  <energy>  (49) 
-8.9

>  <cluster_rmsd>  (49) 
0.07

>  <rmsd>  (49) 
270.22

>  <cluster>  (49) 
1

$$$$
KZWACXAMTSGJSU-GYCJOSAFNA-N
     RDKit          3D

 55 60  0  0  0  0  0  0  0  0999 V2000
  141.2370   71.7460  220.9980 O   0  0  0  0  0  0  0  0  0  0  0  0
  140.5980   72.2420  221.9640 C   0  0  0  0  0  0  0  0  0  0  0  0
  140.4030   71.4460  223.1880 C   0  0  0  0  0  0  0  0  0  0  0  0
  140.7120   71.8760  224.4770 C   0  0  0  0  0  0  0  0  0  0  0  0
  140.3500   70.8280  225.3000 C   0  0  0  0  0  0  0  0  0  0  0  0
  140.4290   70.6840  226.6860 C   0  0  0  0  0  0  0  0  0  0  0  0
  141.0800   71.9540  227.7090 Cl  0  0  0  0  0  0  0  0  0  0  0  0
  139.9660   69.4790  227.2480 C   0  0  0  0  0  0  0  0  0  0  0  0
  139.4400   68.4610  226.4220 C   0  0  0  0  0  0  0  0  0  0  0  0
  139.3730   68.6360  225.0280 C   0  0  0  0  0  0  0  0  0  0  0  0
  139.8410   69.8380  224.5000 C   0  0  0  0  0  0  0  0  0  0  0  0
  139.8640   70.2030  223.2070 N   0  0  0  0  0  0  0  0  0  0  0  0
  140.1170   73.5900  221.8710 N   0  0  0  0  0  0  0  0  0  0  0  0
  140.9750   74.7440  221.6120 C   0  0  0  0  0  0  0  0  0  0  0  0
  140.0340   75.9950  221.6520 C   0  0  2  0  0  0  0  0  0  0  0  0
  140.1300   76.8670  220.4020 C   0  0  0  0  0  0  0  0  0  0  0  0
  139.8490   78.2880  220.8820 C   0  0  0  0  0  0  0  0  0  0  0  0
  139.8720   78.2830  222.3550 N   0  0  0  0  0  0  0  0  0  0  0  0
  140.5590   79.4640  222.9400 C   0  0  2  0  0  0  0  0  0  0  0  0
  141.0170   80.5070  221.9190 C   0  0  0  0  0  0  0  0  0  0  0  0
  142.5420   80.4770  221.9550 C   0  0  0  0  0  0  0  0  0  0  0  0
  142.9730   79.3980  222.8450 N   0  0  0  0  0  0  0  0  0  0  0  0
  141.8280   79.0670  223.6880 C   0  0  0  0  0  0  0  0  0  0  0  0
  140.3480   76.9620  222.7940 C   0  0  0  0  0  0  0  0  0  0  0  0
  138.6660   75.3810  221.8140 C   0  0  0  0  0  0  0  0  0  0  0  0
  137.4180   76.0150  221.8460 C   0  0  0  0  0  0  0  0  0  0  0  0
  136.2630   75.2280  221.9720 C   0  0  0  0  0  0  0  0  0  0  0  0
  136.3660   73.8280  222.0550 C   0  0  0  0  0  0  0  0  0  0  0  0
  137.6260   73.2100  222.0260 C   0  0  0  0  0  0  0  0  0  0  0  0
  138.7650   74.0180  221.9300 C   0  0  0  0  0  0  0  0  0  0  0  0
  141.1493   72.8406  224.7743 H   0  0  0  0  0  0  0  0  0  0  0  0
  140.0142   69.3294  228.3367 H   0  0  0  0  0  0  0  0  0  0  0  0
  139.0800   67.5242  226.8724 H   0  0  0  0  0  0  0  0  0  0  0  0
  138.9646   67.8499  224.3758 H   0  0  0  0  0  0  0  0  0  0  0  0
  139.5180   69.6460  222.3940 H   0  0  0  0  0  0  0  0  0  0  0  0
  141.7521   74.8247  222.3864 H   0  0  0  0  0  0  0  0  0  0  0  0
  141.4894   74.6560  220.6437 H   0  0  0  0  0  0  0  0  0  0  0  0
  141.1359   76.8005  219.9618 H   0  0  0  0  0  0  0  0  0  0  0  0
  139.4211   76.5486  219.6235 H   0  0  0  0  0  0  0  0  0  0  0  0
  140.6213   78.9712  220.4988 H   0  0  0  0  0  0  0  0  0  0  0  0
  138.8692   78.6286  220.5159 H   0  0  0  0  0  0  0  0  0  0  0  0
  139.7886   79.8936  223.5973 H   0  0  0  0  0  0  0  0  0  0  0  0
  140.6517   80.2468  220.9146 H   0  0  0  0  0  0  0  0  0  0  0  0
  140.6246   81.5070  222.1558 H   0  0  0  0  0  0  0  0  0  0  0  0
  142.9320   80.2984  220.9421 H   0  0  0  0  0  0  0  0  0  0  0  0
  142.9256   81.4400  222.3231 H   0  0  0  0  0  0  0  0  0  0  0  0
  143.2020   78.5600  222.2600 H   0  0  0  0  0  0  0  0  0  0  0  0
  141.8167   77.9866  223.8944 H   0  0  0  0  0  0  0  0  0  0  0  0
  141.8908   79.6055  224.6451 H   0  0  0  0  0  0  0  0  0  0  0  0
  141.4313   76.9903  222.9829 H   0  0  0  0  0  0  0  0  0  0  0  0
  139.8600   76.6502  223.7292 H   0  0  0  0  0  0  0  0  0  0  0  0
  137.3442   77.1101  221.7737 H   0  0  0  0  0  0  0  0  0  0  0  0
  135.2738   75.7078  222.0060 H   0  0  0  0  0  0  0  0  0  0  0  0
  135.4566   73.2154  222.1429 H   0  0  0  0  0  0  0  0  0  0  0  0
  137.7163   72.1149  222.0776 H   0  0  0  0  0  0  0  0  0  0  0  0
  1  2  2  0
  2  3  1  0
  3  4  2  0
  4  5  1  0
  5  6  2  0
  6  7  1  0
  6  8  1  0
  8  9  2  0
  9 10  1  0
 10 11  2  0
 11 12  1  0
  2 13  1  0
 13 14  1  0
 15 14  1  6
 15 16  1  0
 16 17  1  0
 17 18  1  0
 18 19  1  0
 19 20  1  0
 20 21  1  0
 21 22  1  0
 22 23  1  0
 18 24  1  0
 15 25  1  0
 25 26  2  0
 26 27  1  0
 27 28  2  0
 28 29  1  0
 29 30  2  0
 12  3  1  0
 30 13  1  0
 11  5  1  0
 24 15  1  0
 30 25  1  0
 23 19  1  0
  4 31  1  0
  8 32  1  0
  9 33  1  0
 10 34  1  0
 12 35  1  0
 14 36  1  0
 14 37  1  0
 16 38  1  0
 16 39  1  0
 17 40  1  0
 17 41  1  0
 19 42  1  1
 20 43  1  0
 20 44  1  0
 21 45  1  0
 21 46  1  0
 22 47  1  0
 23 48  1  0
 23 49  1  0
 24 50  1  0
 24 51  1  0
 26 52  1  0
 27 53  1  0
 28 54  1  0
 29 55  1  0
M  END
>  <UniqueID>  (50) 
163

>  <SMILES>  (50) 
O=C(c1cc2c(Cl)cccc2[nH]1)N1C[C@@]2(CCN([C@@H]3CCNC3)C2)c2ccccc21

>  <Energy>  (50) 
123.92147565229676

>  <Genealogy>  (50) 
O=C(c1cc2c(Cl)cccc2[nH]1)N1C[C@@]2(CCN([C@@H]3CCNC3)C2)c2ccccc21 (chirality)
O=C(c1cc2c(Cl)cccc2[nH]1)N1C[C@@]2(CCN([C@@H]3CCNC3)C2)c2ccccc21 (3D coordinates assigned)
O=C(c1cc2c(Cl)cccc2[nH]1)N1C[C@@]2(CCN([C@@H]3CCNC3)C2)c2ccccc21 (nonaromatic ring conformer: 123.92147565229676 kcal/mol)

>  <smiles>  (50) 
O=C(c1cc2c(Cl)cccc2[nH]1)N1C[C@@]2(CCN(C3CCNC3)C2)c2ccccc21

>  <score_type>  (50) 
oracle

>  <origin>  (50) 
autodockgpu

>  <m_score__min__energy>  (50) 
-8.9199999999999999

>  <m_primary>  (50) 
energy

>  <meeko>  (50) 
{"free_energy": -8.82, "intermolecular_energy": -9.72, "internal_energy": -1.25, "cluster_size": 19, "cluster_id": 1, "rank_in_cluster": 17}

>  <energy>  (50) 
-8.9

>  <cluster_rmsd>  (50) 
0.04

>  <rmsd>  (50) 
270.18

>  <cluster>  (50) 
1

$$$$
KZWACXAMTSGJSU-GYCJOSAFNA-N
     RDKit          3D

 55 60  0  0  0  0  0  0  0  0999 V2000
  141.2940   71.8130  220.9550 O   0  0  0  0  0  0  0  0  0  0  0  0
  140.6160   72.2940  221.9020 C   0  0  0  0  0  0  0  0  0  0  0  0
  140.3820   71.4840  223.1100 C   0  0  0  0  0  0  0  0  0  0  0  0
  140.6920   71.8800  224.4100 C   0  0  0  0  0  0  0  0  0  0  0  0
  140.2870   70.8320  225.2100 C   0  0  0  0  0  0  0  0  0  0  0  0
  140.3470   70.6610  226.5950 C   0  0  0  0  0  0  0  0  0  0  0  0
  141.0290   71.8900  227.6460 Cl  0  0  0  0  0  0  0  0  0  0  0  0
  139.8380   69.4630  227.1300 C   0  0  0  0  0  0  0  0  0  0  0  0
  139.2870   68.4770  226.2810 C   0  0  0  0  0  0  0  0  0  0  0  0
  139.2400   68.6780  224.8900 C   0  0  0  0  0  0  0  0  0  0  0  0
  139.7530   69.8730  224.3880 C   0  0  0  0  0  0  0  0  0  0  0  0
  139.8020   70.2600  223.1020 N   0  0  0  0  0  0  0  0  0  0  0  0
  140.1280   73.6390  221.8050 N   0  0  0  0  0  0  0  0  0  0  0  0
  140.9780   74.7940  221.5250 C   0  0  0  0  0  0  0  0  0  0  0  0
  140.0330   76.0420  221.5690 C   0  0  2  0  0  0  0  0  0  0  0  0
  140.1070   76.9040  220.3100 C   0  0  0  0  0  0  0  0  0  0  0  0
  139.8280   78.3280  220.7830 C   0  0  0  0  0  0  0  0  0  0  0  0
  139.8720   78.3360  222.2550 N   0  0  0  0  0  0  0  0  0  0  0  0
  140.5620   79.5230  222.8210 C   0  0  2  0  0  0  0  0  0  0  0  0
  141.0450   80.5360  221.7810 C   0  0  0  0  0  0  0  0  0  0  0  0
  142.5690   80.4920  221.8400 C   0  0  0  0  0  0  0  0  0  0  0  0
  142.9770   79.4320  222.7620 N   0  0  0  0  0  0  0  0  0  0  0  0
  141.8160   79.1320  223.5960 C   0  0  0  0  0  0  0  0  0  0  0  0
  140.3590   77.0190  222.6980 C   0  0  0  0  0  0  0  0  0  0  0  0
  138.6690   75.4240  221.7550 C   0  0  0  0  0  0  0  0  0  0  0  0
  137.4190   76.0530  221.8000 C   0  0  0  0  0  0  0  0  0  0  0  0
  136.2690   75.2630  221.9490 C   0  0  0  0  0  0  0  0  0  0  0  0
  136.3800   73.8640  222.0420 C   0  0  0  0  0  0  0  0  0  0  0  0
  137.6410   73.2510  222.0000 C   0  0  0  0  0  0  0  0  0  0  0  0
  138.7760   74.0630  221.8810 C   0  0  0  0  0  0  0  0  0  0  0  0
  141.1585   72.8238  224.7288 H   0  0  0  0  0  0  0  0  0  0  0  0
  139.8693   69.2930  228.2163 H   0  0  0  0  0  0  0  0  0  0  0  0
  138.8918   67.5450  226.7115 H   0  0  0  0  0  0  0  0  0  0  0  0
  138.8125   67.9174  224.2202 H   0  0  0  0  0  0  0  0  0  0  0  0
  139.4460   69.7290  222.2760 H   0  0  0  0  0  0  0  0  0  0  0  0
  141.7658   74.8833  222.2875 H   0  0  0  0  0  0  0  0  0  0  0  0
  141.4788   74.7004  220.5501 H   0  0  0  0  0  0  0  0  0  0  0  0
  141.1063   76.8375  219.8551 H   0  0  0  0  0  0  0  0  0  0  0  0
  139.3878   76.5766  219.5448 H   0  0  0  0  0  0  0  0  0  0  0  0
  140.5923   79.0106  220.3831 H   0  0  0  0  0  0  0  0  0  0  0  0
  138.8416   78.6618  220.4286 H   0  0  0  0  0  0  0  0  0  0  0  0
  139.7872   79.9759  223.4570 H   0  0  0  0  0  0  0  0  0  0  0  0
  140.6915   80.2545  220.7781 H   0  0  0  0  0  0  0  0  0  0  0  0
  140.6593   81.5453  221.9871 H   0  0  0  0  0  0  0  0  0  0  0  0
  142.9715   80.2846  220.8375 H   0  0  0  0  0  0  0  0  0  0  0  0
  142.9566   81.4601  222.1901 H   0  0  0  0  0  0  0  0  0  0  0  0
  143.2050   78.5770  222.2020 H   0  0  0  0  0  0  0  0  0  0  0  0
  141.7911   78.0569  223.8276 H   0  0  0  0  0  0  0  0  0  0  0  0
  141.8704   79.6928  224.5408 H   0  0  0  0  0  0  0  0  0  0  0  0
  141.4447   77.0526  222.8716 H   0  0  0  0  0  0  0  0  0  0  0  0
  139.8847   76.7131  223.6422 H   0  0  0  0  0  0  0  0  0  0  0  0
  137.3399   77.1472  221.7200 H   0  0  0  0  0  0  0  0  0  0  0  0
  135.2783   75.7390  221.9932 H   0  0  0  0  0  0  0  0  0  0  0  0
  135.4747   73.2483  222.1481 H   0  0  0  0  0  0  0  0  0  0  0  0
  137.7364   72.1567  222.0592 H   0  0  0  0  0  0  0  0  0  0  0  0
  1  2  2  0
  2  3  1  0
  3  4  2  0
  4  5  1  0
  5  6  2  0
  6  7  1  0
  6  8  1  0
  8  9  2  0
  9 10  1  0
 10 11  2  0
 11 12  1  0
  2 13  1  0
 13 14  1  0
 15 14  1  6
 15 16  1  0
 16 17  1  0
 17 18  1  0
 18 19  1  0
 19 20  1  0
 20 21  1  0
 21 22  1  0
 22 23  1  0
 18 24  1  0
 15 25  1  0
 25 26  2  0
 26 27  1  0
 27 28  2  0
 28 29  1  0
 29 30  2  0
 12  3  1  0
 30 13  1  0
 11  5  1  0
 24 15  1  0
 30 25  1  0
 23 19  1  0
  4 31  1  0
  8 32  1  0
  9 33  1  0
 10 34  1  0
 12 35  1  0
 14 36  1  0
 14 37  1  0
 16 38  1  0
 16 39  1  0
 17 40  1  0
 17 41  1  0
 19 42  1  1
 20 43  1  0
 20 44  1  0
 21 45  1  0
 21 46  1  0
 22 47  1  0
 23 48  1  0
 23 49  1  0
 24 50  1  0
 24 51  1  0
 26 52  1  0
 27 53  1  0
 28 54  1  0
 29 55  1  0
M  END
>  <UniqueID>  (51) 
163

>  <SMILES>  (51) 
O=C(c1cc2c(Cl)cccc2[nH]1)N1C[C@@]2(CCN([C@@H]3CCNC3)C2)c2ccccc21

>  <Energy>  (51) 
123.92147565229676

>  <Genealogy>  (51) 
O=C(c1cc2c(Cl)cccc2[nH]1)N1C[C@@]2(CCN([C@@H]3CCNC3)C2)c2ccccc21 (chirality)
O=C(c1cc2c(Cl)cccc2[nH]1)N1C[C@@]2(CCN([C@@H]3CCNC3)C2)c2ccccc21 (3D coordinates assigned)
O=C(c1cc2c(Cl)cccc2[nH]1)N1C[C@@]2(CCN([C@@H]3CCNC3)C2)c2ccccc21 (nonaromatic ring conformer: 123.92147565229676 kcal/mol)

>  <smiles>  (51) 
O=C(c1cc2c(Cl)cccc2[nH]1)N1C[C@@]2(CCN(C3CCNC3)C2)c2ccccc21

>  <score_type>  (51) 
oracle

>  <origin>  (51) 
autodockgpu

>  <m_score__min__energy>  (51) 
-8.9199999999999999

>  <m_primary>  (51) 
energy

>  <meeko>  (51) 
{"free_energy": -8.9, "intermolecular_energy": -9.8, "internal_energy": -1.25, "cluster_size": 19, "cluster_id": 1, "rank_in_cluster": 10}

>  <energy>  (51) 
-8.9

>  <cluster_rmsd>  (51) 
0.07

>  <rmsd>  (51) 
270.23

>  <cluster>  (51) 
1

$$$$
KZWACXAMTSGJSU-GYCJOSAFNA-N
     RDKit          3D

 55 60  0  0  0  0  0  0  0  0999 V2000
  141.3240   71.8210  221.0110 O   0  0  0  0  0  0  0  0  0  0  0  0
  140.6370   72.2920  221.9560 C   0  0  0  0  0  0  0  0  0  0  0  0
  140.4090   71.4770  223.1620 C   0  0  0  0  0  0  0  0  0  0  0  0
  140.7190   71.8720  224.4630 C   0  0  0  0  0  0  0  0  0  0  0  0
  140.3200   70.8190  225.2600 C   0  0  0  0  0  0  0  0  0  0  0  0
  140.3820   70.6450  226.6440 C   0  0  0  0  0  0  0  0  0  0  0  0
  141.0590   71.8750  227.6980 Cl  0  0  0  0  0  0  0  0  0  0  0  0
  139.8810   69.4420  227.1770 C   0  0  0  0  0  0  0  0  0  0  0  0
  139.3350   68.4560  226.3260 C   0  0  0  0  0  0  0  0  0  0  0  0
  139.2850   68.6600  224.9350 C   0  0  0  0  0  0  0  0  0  0  0  0
  139.7910   69.8590  224.4360 C   0  0  0  0  0  0  0  0  0  0  0  0
  139.8360   70.2500  223.1510 N   0  0  0  0  0  0  0  0  0  0  0  0
  140.1340   73.6320  221.8590 N   0  0  0  0  0  0  0  0  0  0  0  0
  140.9670   74.7940  221.5620 C   0  0  0  0  0  0  0  0  0  0  0  0
  140.0090   76.0320  221.6130 C   0  0  2  0  0  0  0  0  0  0  0  0
  140.0580   76.8890  220.3500 C   0  0  0  0  0  0  0  0  0  0  0  0
  139.7690   78.3120  220.8190 C   0  0  0  0  0  0  0  0  0  0  0  0
  139.8320   78.3270  222.2910 N   0  0  0  0  0  0  0  0  0  0  0  0
  140.5170   79.5250  222.8420 C   0  0  2  0  0  0  0  0  0  0  0  0
  141.0550   80.4940  221.7870 C   0  0  0  0  0  0  0  0  0  0  0  0
  142.5750   80.4320  221.9080 C   0  0  0  0  0  0  0  0  0  0  0  0
  142.9310   79.3990  222.8820 N   0  0  0  0  0  0  0  0  0  0  0  0
  141.7350   79.1450  223.6800 C   0  0  0  0  0  0  0  0  0  0  0  0
  140.3400   77.0180  222.7330 C   0  0  0  0  0  0  0  0  0  0  0  0
  138.6550   75.4000  221.8210 C   0  0  0  0  0  0  0  0  0  0  0  0
  137.3990   76.0160  221.8800 C   0  0  0  0  0  0  0  0  0  0  0  0
  136.2600   75.2140  222.0470 C   0  0  0  0  0  0  0  0  0  0  0  0
  136.3870   73.8170  222.1450 C   0  0  0  0  0  0  0  0  0  0  0  0
  137.6540   73.2170  222.0890 C   0  0  0  0  0  0  0  0  0  0  0  0
  138.7780   74.0400  221.9510 C   0  0  0  0  0  0  0  0  0  0  0  0
  141.1810   72.8173  224.7838 H   0  0  0  0  0  0  0  0  0  0  0  0
  139.9150   69.2691  228.2628 H   0  0  0  0  0  0  0  0  0  0  0  0
  138.9456   67.5207  226.7544 H   0  0  0  0  0  0  0  0  0  0  0  0
  138.8608   67.8988  224.2637 H   0  0  0  0  0  0  0  0  0  0  0  0
  139.4820   69.7190  222.3240 H   0  0  0  0  0  0  0  0  0  0  0  0
  141.7641   74.8956  222.3132 H   0  0  0  0  0  0  0  0  0  0  0  0
  141.4555   74.7010  220.5808 H   0  0  0  0  0  0  0  0  0  0  0  0
  141.0524   76.8314  219.8834 H   0  0  0  0  0  0  0  0  0  0  0  0
  139.3328   76.5501  219.5955 H   0  0  0  0  0  0  0  0  0  0  0  0
  140.5203   79.0012  220.4060 H   0  0  0  0  0  0  0  0  0  0  0  0
  138.7747   78.6334  220.4754 H   0  0  0  0  0  0  0  0  0  0  0  0
  139.7246   80.0106  223.4305 H   0  0  0  0  0  0  0  0  0  0  0  0
  140.7370   80.1816  220.7814 H   0  0  0  0  0  0  0  0  0  0  0  0
  140.6762   81.5150  221.9421 H   0  0  0  0  0  0  0  0  0  0  0  0
  143.0135   80.1844  220.9301 H   0  0  0  0  0  0  0  0  0  0  0  0
  142.9627   81.4066  222.2396 H   0  0  0  0  0  0  0  0  0  0  0  0
  143.1680   78.5230  222.3610 H   0  0  0  0  0  0  0  0  0  0  0  0
  141.6852   78.0795  223.9486 H   0  0  0  0  0  0  0  0  0  0  0  0
  141.7611   79.7385  224.6058 H   0  0  0  0  0  0  0  0  0  0  0  0
  141.4276   77.0646  222.8910 H   0  0  0  0  0  0  0  0  0  0  0  0
  139.8827   76.7113  223.6853 H   0  0  0  0  0  0  0  0  0  0  0  0
  137.3069   77.1090  221.7969 H   0  0  0  0  0  0  0  0  0  0  0  0
  135.2648   75.6794  222.1014 H   0  0  0  0  0  0  0  0  0  0  0  0
  135.4897   73.1923  222.2660 H   0  0  0  0  0  0  0  0  0  0  0  0
  137.7618   72.1241  222.1521 H   0  0  0  0  0  0  0  0  0  0  0  0
  1  2  2  0
  2  3  1  0
  3  4  2  0
  4  5  1  0
  5  6  2  0
  6  7  1  0
  6  8  1  0
  8  9  2  0
  9 10  1  0
 10 11  2  0
 11 12  1  0
  2 13  1  0
 13 14  1  0
 15 14  1  6
 15 16  1  0
 16 17  1  0
 17 18  1  0
 18 19  1  0
 19 20  1  0
 20 21  1  0
 21 22  1  0
 22 23  1  0
 18 24  1  0
 15 25  1  0
 25 26  2  0
 26 27  1  0
 27 28  2  0
 28 29  1  0
 29 30  2  0
 12  3  1  0
 30 13  1  0
 11  5  1  0
 24 15  1  0
 30 25  1  0
 23 19  1  0
  4 31  1  0
  8 32  1  0
  9 33  1  0
 10 34  1  0
 12 35  1  0
 14 36  1  0
 14 37  1  0
 16 38  1  0
 16 39  1  0
 17 40  1  0
 17 41  1  0
 19 42  1  1
 20 43  1  0
 20 44  1  0
 21 45  1  0
 21 46  1  0
 22 47  1  0
 23 48  1  0
 23 49  1  0
 24 50  1  0
 24 51  1  0
 26 52  1  0
 27 53  1  0
 28 54  1  0
 29 55  1  0
M  END
>  <UniqueID>  (52) 
163

>  <SMILES>  (52) 
O=C(c1cc2c(Cl)cccc2[nH]1)N1C[C@@]2(CCN([C@@H]3CCNC3)C2)c2ccccc21

>  <Energy>  (52) 
123.92147565229676

>  <Genealogy>  (52) 
O=C(c1cc2c(Cl)cccc2[nH]1)N1C[C@@]2(CCN([C@@H]3CCNC3)C2)c2ccccc21 (chirality)
O=C(c1cc2c(Cl)cccc2[nH]1)N1C[C@@]2(CCN([C@@H]3CCNC3)C2)c2ccccc21 (3D coordinates assigned)
O=C(c1cc2c(Cl)cccc2[nH]1)N1C[C@@]2(CCN([C@@H]3CCNC3)C2)c2ccccc21 (nonaromatic ring conformer: 123.92147565229676 kcal/mol)

>  <smiles>  (52) 
O=C(c1cc2c(Cl)cccc2[nH]1)N1C[C@@]2(CCN(C3CCNC3)C2)c2ccccc21

>  <score_type>  (52) 
oracle

>  <origin>  (52) 
autodockgpu

>  <m_score__min__energy>  (52) 
-8.9199999999999999

>  <m_primary>  (52) 
energy

>  <meeko>  (52) 
{"free_energy": -8.9, "intermolecular_energy": -9.8, "internal_energy": -1.25, "cluster_size": 19, "cluster_id": 1, "rank_in_cluster": 9}

>  <energy>  (52) 
-8.89

>  <cluster_rmsd>  (52) 
0.11

>  <rmsd>  (52) 
270.22

>  <cluster>  (52) 
1

$$$$
KZWACXAMTSGJSU-GYCJOSAFNA-N
     RDKit          3D

 55 60  0  0  0  0  0  0  0  0999 V2000
  141.4040   71.8300  221.0940 O   0  0  0  0  0  0  0  0  0  0  0  0
  140.6820   72.3030  222.0110 C   0  0  0  0  0  0  0  0  0  0  0  0
  140.4130   71.4930  223.2120 C   0  0  0  0  0  0  0  0  0  0  0  0
  140.7000   71.8840  224.5190 C   0  0  0  0  0  0  0  0  0  0  0  0
  140.2660   70.8380  225.3090 C   0  0  0  0  0  0  0  0  0  0  0  0
  140.2940   70.6640  226.6930 C   0  0  0  0  0  0  0  0  0  0  0  0
  140.9670   71.8840  227.7620 Cl  0  0  0  0  0  0  0  0  0  0  0  0
  139.7600   69.4700  227.2150 C   0  0  0  0  0  0  0  0  0  0  0  0
  139.2170   68.4920  226.3520 C   0  0  0  0  0  0  0  0  0  0  0  0
  139.2030   68.6970  224.9610 C   0  0  0  0  0  0  0  0  0  0  0  0
  139.7390   69.8870  224.4730 C   0  0  0  0  0  0  0  0  0  0  0  0
  139.8200   70.2750  223.1890 N   0  0  0  0  0  0  0  0  0  0  0  0
  140.1780   73.6400  221.8900 N   0  0  0  0  0  0  0  0  0  0  0  0
  141.0150   74.8020  221.6030 C   0  0  0  0  0  0  0  0  0  0  0  0
  140.0530   76.0380  221.6190 C   0  0  2  0  0  0  0  0  0  0  0  0
  140.1310   76.8840  220.3500 C   0  0  0  0  0  0  0  0  0  0  0  0
  139.8270   78.3100  220.7990 C   0  0  0  0  0  0  0  0  0  0  0  0
  139.8550   78.3380  222.2720 N   0  0  0  0  0  0  0  0  0  0  0  0
  140.5230   79.5430  222.8290 C   0  0  2  0  0  0  0  0  0  0  0  0
  141.0180   80.5410  221.7790 C   0  0  0  0  0  0  0  0  0  0  0  0
  142.5400   80.5120  221.8680 C   0  0  0  0  0  0  0  0  0  0  0  0
  142.9390   79.4730  222.8190 N   0  0  0  0  0  0  0  0  0  0  0  0
  141.7650   79.1780  223.6350 C   0  0  0  0  0  0  0  0  0  0  0  0
  140.3550   77.0350  222.7380 C   0  0  0  0  0  0  0  0  0  0  0  0
  138.6960   75.4050  221.7990 C   0  0  0  0  0  0  0  0  0  0  0  0
  137.4370   76.0180  221.8220 C   0  0  0  0  0  0  0  0  0  0  0  0
  136.2970   75.2140  221.9690 C   0  0  0  0  0  0  0  0  0  0  0  0
  136.4240   73.8190  222.0820 C   0  0  0  0  0  0  0  0  0  0  0  0
  137.6940   73.2210  222.0630 C   0  0  0  0  0  0  0  0  0  0  0  0
  138.8190   74.0460  221.9450 C   0  0  0  0  0  0  0  0  0  0  0  0
  141.1701   72.8221  224.8492 H   0  0  0  0  0  0  0  0  0  0  0  0
  139.7657   69.2978  228.3014 H   0  0  0  0  0  0  0  0  0  0  0  0
  138.8022   67.5635  226.7713 H   0  0  0  0  0  0  0  0  0  0  0  0
  138.7825   67.9423  224.2801 H   0  0  0  0  0  0  0  0  0  0  0  0
  139.4760   69.7500  222.3550 H   0  0  0  0  0  0  0  0  0  0  0  0
  141.7931   74.9127  222.3727 H   0  0  0  0  0  0  0  0  0  0  0  0
  141.5276   74.7015  220.6349 H   0  0  0  0  0  0  0  0  0  0  0  0
  141.1368   76.8250  219.9086 H   0  0  0  0  0  0  0  0  0  0  0  0
  139.4255   76.5365  219.5809 H   0  0  0  0  0  0  0  0  0  0  0  0
  140.5860   78.9977  220.3978 H   0  0  0  0  0  0  0  0  0  0  0  0
  138.8403   78.6256  220.4290 H   0  0  0  0  0  0  0  0  0  0  0  0
  139.7317   80.0009  223.4407 H   0  0  0  0  0  0  0  0  0  0  0  0
  140.6866   80.2375  220.7750 H   0  0  0  0  0  0  0  0  0  0  0  0
  140.6198   81.5505  221.9587 H   0  0  0  0  0  0  0  0  0  0  0  0
  142.9637   80.2888  220.8777 H   0  0  0  0  0  0  0  0  0  0  0  0
  142.9125   81.4902  222.2062 H   0  0  0  0  0  0  0  0  0  0  0  0
  143.1860   78.6100  222.2790 H   0  0  0  0  0  0  0  0  0  0  0  0
  141.7451   78.1072  223.8860 H   0  0  0  0  0  0  0  0  0  0  0  0
  141.7959   79.7568  224.5699 H   0  0  0  0  0  0  0  0  0  0  0  0
  141.4384   77.0857  222.9216 H   0  0  0  0  0  0  0  0  0  0  0  0
  139.8759   76.7358  223.6819 H   0  0  0  0  0  0  0  0  0  0  0  0
  137.3438   77.1099  221.7266 H   0  0  0  0  0  0  0  0  0  0  0  0
  135.2997   75.6773  221.9959 H   0  0  0  0  0  0  0  0  0  0  0  0
  135.5251   73.1934  222.1857 H   0  0  0  0  0  0  0  0  0  0  0  0
  137.8027   72.1290  222.1391 H   0  0  0  0  0  0  0  0  0  0  0  0
  1  2  2  0
  2  3  1  0
  3  4  2  0
  4  5  1  0
  5  6  2  0
  6  7  1  0
  6  8  1  0
  8  9  2  0
  9 10  1  0
 10 11  2  0
 11 12  1  0
  2 13  1  0
 13 14  1  0
 15 14  1  6
 15 16  1  0
 16 17  1  0
 17 18  1  0
 18 19  1  0
 19 20  1  0
 20 21  1  0
 21 22  1  0
 22 23  1  0
 18 24  1  0
 15 25  1  0
 25 26  2  0
 26 27  1  0
 27 28  2  0
 28 29  1  0
 29 30  2  0
 12  3  1  0
 30 13  1  0
 11  5  1  0
 24 15  1  0
 30 25  1  0
 23 19  1  0
  4 31  1  0
  8 32  1  0
  9 33  1  0
 10 34  1  0
 12 35  1  0
 14 36  1  0
 14 37  1  0
 16 38  1  0
 16 39  1  0
 17 40  1  0
 17 41  1  0
 19 42  1  1
 20 43  1  0
 20 44  1  0
 21 45  1  0
 21 46  1  0
 22 47  1  0
 23 48  1  0
 23 49  1  0
 24 50  1  0
 24 51  1  0
 26 52  1  0
 27 53  1  0
 28 54  1  0
 29 55  1  0
M  END
>  <UniqueID>  (53) 
163

>  <SMILES>  (53) 
O=C(c1cc2c(Cl)cccc2[nH]1)N1C[C@@]2(CCN([C@@H]3CCNC3)C2)c2ccccc21

>  <Energy>  (53) 
123.92147565229676

>  <Genealogy>  (53) 
O=C(c1cc2c(Cl)cccc2[nH]1)N1C[C@@]2(CCN([C@@H]3CCNC3)C2)c2ccccc21 (chirality)
O=C(c1cc2c(Cl)cccc2[nH]1)N1C[C@@]2(CCN([C@@H]3CCNC3)C2)c2ccccc21 (3D coordinates assigned)
O=C(c1cc2c(Cl)cccc2[nH]1)N1C[C@@]2(CCN([C@@H]3CCNC3)C2)c2ccccc21 (nonaromatic ring conformer: 123.92147565229676 kcal/mol)

>  <smiles>  (53) 
O=C(c1cc2c(Cl)cccc2[nH]1)N1C[C@@]2(CCN(C3CCNC3)C2)c2ccccc21

>  <score_type>  (53) 
oracle

>  <origin>  (53) 
autodockgpu

>  <m_score__min__energy>  (53) 
-8.9199999999999999

>  <m_primary>  (53) 
energy

>  <meeko>  (53) 
{"free_energy": -8.92, "intermolecular_energy": -9.81, "internal_energy": -1.25, "cluster_size": 19, "cluster_id": 1, "rank_in_cluster": 3}

>  <energy>  (53) 
-8.89

>  <cluster_rmsd>  (53) 
0.06

>  <rmsd>  (53) 
270.23

>  <cluster>  (53) 
1

$$$$
KZWACXAMTSGJSU-GYCJOSAFNA-N
     RDKit          3D

 55 60  0  0  0  0  0  0  0  0999 V2000
  141.3260   71.8330  221.0090 O   0  0  0  0  0  0  0  0  0  0  0  0
  140.6300   72.3110  221.9440 C   0  0  0  0  0  0  0  0  0  0  0  0
  140.3780   71.5010  223.1480 C   0  0  0  0  0  0  0  0  0  0  0  0
  140.6910   71.8880  224.4510 C   0  0  0  0  0  0  0  0  0  0  0  0
  140.2660   70.8430  225.2460 C   0  0  0  0  0  0  0  0  0  0  0  0
  140.3180   70.6660  226.6300 C   0  0  0  0  0  0  0  0  0  0  0  0
  141.0170   71.8800  227.6880 Cl  0  0  0  0  0  0  0  0  0  0  0  0
  139.7870   69.4750  227.1590 C   0  0  0  0  0  0  0  0  0  0  0  0
  139.2230   68.5010  226.3050 C   0  0  0  0  0  0  0  0  0  0  0  0
  139.1840   68.7080  224.9140 C   0  0  0  0  0  0  0  0  0  0  0  0
  139.7190   69.8960  224.4180 C   0  0  0  0  0  0  0  0  0  0  0  0
  139.7780   70.2870  223.1340 N   0  0  0  0  0  0  0  0  0  0  0  0
  140.1380   73.6550  221.8380 N   0  0  0  0  0  0  0  0  0  0  0  0
  140.9840   74.8100  221.5510 C   0  0  0  0  0  0  0  0  0  0  0  0
  140.0350   76.0550  221.5850 C   0  0  2  0  0  0  0  0  0  0  0  0
  140.1080   76.9090  220.3210 C   0  0  0  0  0  0  0  0  0  0  0  0
  139.8230   78.3350  220.7830 C   0  0  0  0  0  0  0  0  0  0  0  0
  139.8660   78.3530  222.2560 N   0  0  0  0  0  0  0  0  0  0  0  0
  140.5520   79.5470  222.8140 C   0  0  2  0  0  0  0  0  0  0  0  0
  141.0510   80.5440  221.7670 C   0  0  0  0  0  0  0  0  0  0  0  0
  142.5740   80.4970  221.8460 C   0  0  0  0  0  0  0  0  0  0  0  0
  142.9670   79.4490  222.7880 N   0  0  0  0  0  0  0  0  0  0  0  0
  141.7950   79.1630  223.6110 C   0  0  0  0  0  0  0  0  0  0  0  0
  140.3570   77.0410  222.7080 C   0  0  0  0  0  0  0  0  0  0  0  0
  138.6730   75.4340  221.7740 C   0  0  0  0  0  0  0  0  0  0  0  0
  137.4210   76.0600  221.8140 C   0  0  0  0  0  0  0  0  0  0  0  0
  136.2740   75.2670  221.9670 C   0  0  0  0  0  0  0  0  0  0  0  0
  136.3880   73.8690  222.0690 C   0  0  0  0  0  0  0  0  0  0  0  0
  137.6520   73.2590  222.0330 C   0  0  0  0  0  0  0  0  0  0  0  0
  138.7840   74.0740  221.9100 C   0  0  0  0  0  0  0  0  0  0  0  0
  141.1720   72.8229  224.7746 H   0  0  0  0  0  0  0  0  0  0  0  0
  139.8112   69.3011  228.2449 H   0  0  0  0  0  0  0  0  0  0  0  0
  138.8114   67.5740  226.7308 H   0  0  0  0  0  0  0  0  0  0  0  0
  138.7458   67.9572  224.2400 H   0  0  0  0  0  0  0  0  0  0  0  0
  139.4160   69.7650  222.3050 H   0  0  0  0  0  0  0  0  0  0  0  0
  141.7706   74.9073  222.3138 H   0  0  0  0  0  0  0  0  0  0  0  0
  141.4863   74.7111  220.5774 H   0  0  0  0  0  0  0  0  0  0  0  0
  141.1084   76.8431  219.8685 H   0  0  0  0  0  0  0  0  0  0  0  0
  139.3910   76.5739  219.5571 H   0  0  0  0  0  0  0  0  0  0  0  0
  140.5849   79.0178  220.3788 H   0  0  0  0  0  0  0  0  0  0  0  0
  138.8358   78.6628  220.4252 H   0  0  0  0  0  0  0  0  0  0  0  0
  139.7701   80.0113  223.4329 H   0  0  0  0  0  0  0  0  0  0  0  0
  140.7096   80.2497  220.7636 H   0  0  0  0  0  0  0  0  0  0  0  0
  140.6655   81.5570  221.9545 H   0  0  0  0  0  0  0  0  0  0  0  0
  142.9887   80.2744  220.8518 H   0  0  0  0  0  0  0  0  0  0  0  0
  142.9599   81.4689  222.1872 H   0  0  0  0  0  0  0  0  0  0  0  0
  143.2000   78.5860  222.2420 H   0  0  0  0  0  0  0  0  0  0  0  0
  141.7642   78.0912  223.8566 H   0  0  0  0  0  0  0  0  0  0  0  0
  141.8387   79.7359  224.5490 H   0  0  0  0  0  0  0  0  0  0  0  0
  141.4424   77.0794  222.8821 H   0  0  0  0  0  0  0  0  0  0  0  0
  139.8831   76.7399  223.6539 H   0  0  0  0  0  0  0  0  0  0  0  0
  137.3385   77.1534  221.7270 H   0  0  0  0  0  0  0  0  0  0  0  0
  135.2819   75.7403  222.0073 H   0  0  0  0  0  0  0  0  0  0  0  0
  135.4841   73.2516  222.1773 H   0  0  0  0  0  0  0  0  0  0  0  0
  137.7509   72.1655  222.0999 H   0  0  0  0  0  0  0  0  0  0  0  0
  1  2  2  0
  2  3  1  0
  3  4  2  0
  4  5  1  0
  5  6  2  0
  6  7  1  0
  6  8  1  0
  8  9  2  0
  9 10  1  0
 10 11  2  0
 11 12  1  0
  2 13  1  0
 13 14  1  0
 15 14  1  6
 15 16  1  0
 16 17  1  0
 17 18  1  0
 18 19  1  0
 19 20  1  0
 20 21  1  0
 21 22  1  0
 22 23  1  0
 18 24  1  0
 15 25  1  0
 25 26  2  0
 26 27  1  0
 27 28  2  0
 28 29  1  0
 29 30  2  0
 12  3  1  0
 30 13  1  0
 11  5  1  0
 24 15  1  0
 30 25  1  0
 23 19  1  0
  4 31  1  0
  8 32  1  0
  9 33  1  0
 10 34  1  0
 12 35  1  0
 14 36  1  0
 14 37  1  0
 16 38  1  0
 16 39  1  0
 17 40  1  0
 17 41  1  0
 19 42  1  1
 20 43  1  0
 20 44  1  0
 21 45  1  0
 21 46  1  0
 22 47  1  0
 23 48  1  0
 23 49  1  0
 24 50  1  0
 24 51  1  0
 26 52  1  0
 27 53  1  0
 28 54  1  0
 29 55  1  0
M  END
>  <UniqueID>  (54) 
163

>  <SMILES>  (54) 
O=C(c1cc2c(Cl)cccc2[nH]1)N1C[C@@]2(CCN([C@@H]3CCNC3)C2)c2ccccc21

>  <Energy>  (54) 
123.92147565229676

>  <Genealogy>  (54) 
O=C(c1cc2c(Cl)cccc2[nH]1)N1C[C@@]2(CCN([C@@H]3CCNC3)C2)c2ccccc21 (chirality)
O=C(c1cc2c(Cl)cccc2[nH]1)N1C[C@@]2(CCN([C@@H]3CCNC3)C2)c2ccccc21 (3D coordinates assigned)
O=C(c1cc2c(Cl)cccc2[nH]1)N1C[C@@]2(CCN([C@@H]3CCNC3)C2)c2ccccc21 (nonaromatic ring conformer: 123.92147565229676 kcal/mol)

>  <smiles>  (54) 
O=C(c1cc2c(Cl)cccc2[nH]1)N1C[C@@]2(CCN(C3CCNC3)C2)c2ccccc21

>  <score_type>  (54) 
oracle

>  <origin>  (54) 
autodockgpu

>  <m_score__min__energy>  (54) 
-8.9199999999999999

>  <m_primary>  (54) 
energy

>  <meeko>  (54) 
{"free_energy": -8.92, "intermolecular_energy": -9.82, "internal_energy": -1.25, "cluster_size": 19, "cluster_id": 1, "rank_in_cluster": 1}

>  <energy>  (54) 
-8.89

>  <cluster_rmsd>  (54) 
0.05

>  <rmsd>  (54) 
270.22

>  <cluster>  (54) 
1

$$$$
KZWACXAMTSGJSU-GYCJOSAFNA-N
     RDKit          3D

 55 60  0  0  0  0  0  0  0  0999 V2000
  141.4080   71.7600  221.0600 O   0  0  0  0  0  0  0  0  0  0  0  0
  140.7030   72.2550  221.9780 C   0  0  0  0  0  0  0  0  0  0  0  0
  140.4380   71.4660  223.1940 C   0  0  0  0  0  0  0  0  0  0  0  0
  140.7500   71.8690  224.4910 C   0  0  0  0  0  0  0  0  0  0  0  0
  140.3100   70.8410  225.3000 C   0  0  0  0  0  0  0  0  0  0  0  0
  140.3560   70.6850  226.6870 C   0  0  0  0  0  0  0  0  0  0  0  0
  141.0650   71.9070  227.7290 Cl  0  0  0  0  0  0  0  0  0  0  0  0
  139.8100   69.5070  227.2330 C   0  0  0  0  0  0  0  0  0  0  0  0
  139.2380   68.5270  226.3900 C   0  0  0  0  0  0  0  0  0  0  0  0
  139.2060   68.7140  224.9970 C   0  0  0  0  0  0  0  0  0  0  0  0
  139.7560   69.8880  224.4850 C   0  0  0  0  0  0  0  0  0  0  0  0
  139.8240   70.2580  223.1960 N   0  0  0  0  0  0  0  0  0  0  0  0
  140.2130   73.5970  221.8440 N   0  0  0  0  0  0  0  0  0  0  0  0
  141.0700   74.7550  221.6060 C   0  0  0  0  0  0  0  0  0  0  0  0
  140.1160   75.9970  221.5860 C   0  0  2  0  0  0  0  0  0  0  0  0
  140.2600   76.8520  220.3280 C   0  0  0  0  0  0  0  0  0  0  0  0
  139.9440   78.2770  220.7730 C   0  0  0  0  0  0  0  0  0  0  0  0
  139.9010   78.2940  222.2450 N   0  0  0  0  0  0  0  0  0  0  0  0
  140.5490   79.4900  222.8430 C   0  0  2  0  0  0  0  0  0  0  0  0
  141.0380   80.5250  221.8270 C   0  0  0  0  0  0  0  0  0  0  0  0
  142.5600   80.5130  221.9280 C   0  0  0  0  0  0  0  0  0  0  0  0
  142.9650   79.4510  222.8500 N   0  0  0  0  0  0  0  0  0  0  0  0
  141.7890   79.1180  223.6490 C   0  0  0  0  0  0  0  0  0  0  0  0
  140.3700   76.9840  222.7250 C   0  0  0  0  0  0  0  0  0  0  0  0
  138.7480   75.3710  221.6960 C   0  0  0  0  0  0  0  0  0  0  0  0
  137.4940   75.9920  221.6630 C   0  0  0  0  0  0  0  0  0  0  0  0
  136.3420   75.1950  221.7490 C   0  0  0  0  0  0  0  0  0  0  0  0
  136.4560   73.7980  221.8570 C   0  0  0  0  0  0  0  0  0  0  0  0
  137.7220   73.1930  221.8940 C   0  0  0  0  0  0  0  0  0  0  0  0
  138.8560   74.0110  221.8370 C   0  0  0  0  0  0  0  0  0  0  0  0
  141.2403   72.8032  224.8023 H   0  0  0  0  0  0  0  0  0  0  0  0
  139.8288   69.3488  228.3214 H   0  0  0  0  0  0  0  0  0  0  0  0
  138.8146   67.6108  226.8274 H   0  0  0  0  0  0  0  0  0  0  0  0
  138.7613   67.9584  224.3327 H   0  0  0  0  0  0  0  0  0  0  0  0
  139.4590   69.7280  222.3730 H   0  0  0  0  0  0  0  0  0  0  0  0
  141.8114   74.8547  222.4125 H   0  0  0  0  0  0  0  0  0  0  0  0
  141.6275   74.6583  220.6627 H   0  0  0  0  0  0  0  0  0  0  0  0
  141.2853   76.7894  219.9346 H   0  0  0  0  0  0  0  0  0  0  0  0
  139.5899   76.5149  219.5234 H   0  0  0  0  0  0  0  0  0  0  0  0
  140.7260   78.9624  220.4143 H   0  0  0  0  0  0  0  0  0  0  0  0
  138.9784   78.6021  220.3583 H   0  0  0  0  0  0  0  0  0  0  0  0
  139.7472   79.9189  223.4620 H   0  0  0  0  0  0  0  0  0  0  0  0
  140.7185   80.2470  220.8118 H   0  0  0  0  0  0  0  0  0  0  0  0
  140.6247   81.5234  222.0326 H   0  0  0  0  0  0  0  0  0  0  0  0
  142.9946   80.3256  220.9350 H   0  0  0  0  0  0  0  0  0  0  0  0
  142.9168   81.4851  222.2990 H   0  0  0  0  0  0  0  0  0  0  0  0
  143.2280   78.6080  222.2880 H   0  0  0  0  0  0  0  0  0  0  0  0
  141.7810   78.0404  223.8698 H   0  0  0  0  0  0  0  0  0  0  0  0
  141.8054   79.6699  224.6004 H   0  0  0  0  0  0  0  0  0  0  0  0
  141.4436   77.0262  222.9608 H   0  0  0  0  0  0  0  0  0  0  0  0
  139.8441   76.6814  223.6426 H   0  0  0  0  0  0  0  0  0  0  0  0
  137.4129   77.0852  221.5713 H   0  0  0  0  0  0  0  0  0  0  0  0
  135.3474   75.6646  221.7318 H   0  0  0  0  0  0  0  0  0  0  0  0
  135.5499   73.1768  221.9127 H   0  0  0  0  0  0  0  0  0  0  0  0
  137.8206   72.0998  221.9662 H   0  0  0  0  0  0  0  0  0  0  0  0
  1  2  2  0
  2  3  1  0
  3  4  2  0
  4  5  1  0
  5  6  2  0
  6  7  1  0
  6  8  1  0
  8  9  2  0
  9 10  1  0
 10 11  2  0
 11 12  1  0
  2 13  1  0
 13 14  1  0
 15 14  1  6
 15 16  1  0
 16 17  1  0
 17 18  1  0
 18 19  1  0
 19 20  1  0
 20 21  1  0
 21 22  1  0
 22 23  1  0
 18 24  1  0
 15 25  1  0
 25 26  2  0
 26 27  1  0
 27 28  2  0
 28 29  1  0
 29 30  2  0
 12  3  1  0
 30 13  1  0
 11  5  1  0
 24 15  1  0
 30 25  1  0
 23 19  1  0
  4 31  1  0
  8 32  1  0
  9 33  1  0
 10 34  1  0
 12 35  1  0
 14 36  1  0
 14 37  1  0
 16 38  1  0
 16 39  1  0
 17 40  1  0
 17 41  1  0
 19 42  1  1
 20 43  1  0
 20 44  1  0
 21 45  1  0
 21 46  1  0
 22 47  1  0
 23 48  1  0
 23 49  1  0
 24 50  1  0
 24 51  1  0
 26 52  1  0
 27 53  1  0
 28 54  1  0
 29 55  1  0
M  END
>  <UniqueID>  (55) 
163

>  <SMILES>  (55) 
O=C(c1cc2c(Cl)cccc2[nH]1)N1C[C@@]2(CCN([C@@H]3CCNC3)C2)c2ccccc21

>  <Energy>  (55) 
123.92147565229676

>  <Genealogy>  (55) 
O=C(c1cc2c(Cl)cccc2[nH]1)N1C[C@@]2(CCN([C@@H]3CCNC3)C2)c2ccccc21 (chirality)
O=C(c1cc2c(Cl)cccc2[nH]1)N1C[C@@]2(CCN([C@@H]3CCNC3)C2)c2ccccc21 (3D coordinates assigned)
O=C(c1cc2c(Cl)cccc2[nH]1)N1C[C@@]2(CCN([C@@H]3CCNC3)C2)c2ccccc21 (nonaromatic ring conformer: 123.92147565229676 kcal/mol)

>  <smiles>  (55) 
O=C(c1cc2c(Cl)cccc2[nH]1)N1C[C@@]2(CCN(C3CCNC3)C2)c2ccccc21

>  <score_type>  (55) 
oracle

>  <origin>  (55) 
autodockgpu

>  <m_score__min__energy>  (55) 
-8.9199999999999999

>  <m_primary>  (55) 
energy

>  <meeko>  (55) 
{"free_energy": -8.89, "intermolecular_energy": -9.79, "internal_energy": -1.24, "cluster_size": 19, "cluster_id": 1, "rank_in_cluster": 12}

>  <energy>  (55) 
-8.89

>  <cluster_rmsd>  (55) 
0.05

>  <rmsd>  (55) 
270.19

>  <cluster>  (55) 
1

$$$$
KZWACXAMTSGJSU-GYCJOSAFNA-N
     RDKit          3D

 55 60  0  0  0  0  0  0  0  0999 V2000
  141.3980   71.8600  221.0710 O   0  0  0  0  0  0  0  0  0  0  0  0
  140.6750   72.3220  221.9940 C   0  0  0  0  0  0  0  0  0  0  0  0
  140.4130   71.5020  223.1890 C   0  0  0  0  0  0  0  0  0  0  0  0
  140.6980   71.8850  224.4990 C   0  0  0  0  0  0  0  0  0  0  0  0
  140.2730   70.8300  225.2810 C   0  0  0  0  0  0  0  0  0  0  0  0
  140.3040   70.6460  226.6640 C   0  0  0  0  0  0  0  0  0  0  0  0
  140.9690   71.8630  227.7410 Cl  0  0  0  0  0  0  0  0  0  0  0  0
  139.7790   69.4450  227.1780 C   0  0  0  0  0  0  0  0  0  0  0  0
  139.2420   68.4690  226.3080 C   0  0  0  0  0  0  0  0  0  0  0  0
  139.2250   68.6840  224.9190 C   0  0  0  0  0  0  0  0  0  0  0  0
  139.7530   69.8810  224.4380 C   0  0  0  0  0  0  0  0  0  0  0  0
  139.8290   70.2800  223.1580 N   0  0  0  0  0  0  0  0  0  0  0  0
  140.1630   73.6570  221.8840 N   0  0  0  0  0  0  0  0  0  0  0  0
  140.9900   74.8240  221.5870 C   0  0  0  0  0  0  0  0  0  0  0  0
  140.0220   76.0540  221.6210 C   0  0  2  0  0  0  0  0  0  0  0  0
  140.0770   76.9040  220.3520 C   0  0  0  0  0  0  0  0  0  0  0  0
  139.7730   78.3280  220.8090 C   0  0  0  0  0  0  0  0  0  0  0  0
  139.8220   78.3530  222.2810 N   0  0  0  0  0  0  0  0  0  0  0  0
  140.4930   79.5590  222.8310 C   0  0  2  0  0  0  0  0  0  0  0  0
  141.0160   80.5350  221.7760 C   0  0  0  0  0  0  0  0  0  0  0  0
  142.5360   80.4920  221.8930 C   0  0  0  0  0  0  0  0  0  0  0  0
  142.9070   79.4650  222.8660 N   0  0  0  0  0  0  0  0  0  0  0  0
  141.7160   79.1950  223.6660 C   0  0  0  0  0  0  0  0  0  0  0  0
  140.3350   77.0500  222.7370 C   0  0  0  0  0  0  0  0  0  0  0  0
  138.6710   75.4140  221.8190 C   0  0  0  0  0  0  0  0  0  0  0  0
  137.4100   76.0210  221.8620 C   0  0  0  0  0  0  0  0  0  0  0  0
  136.2750   75.2120  222.0240 C   0  0  0  0  0  0  0  0  0  0  0  0
  136.4110   73.8160  222.1320 C   0  0  0  0  0  0  0  0  0  0  0  0
  137.6840   73.2250  222.0920 C   0  0  0  0  0  0  0  0  0  0  0  0
  138.8030   74.0560  221.9600 C   0  0  0  0  0  0  0  0  0  0  0  0
  141.1610   72.8241  224.8361 H   0  0  0  0  0  0  0  0  0  0  0  0
  139.7868   69.2651  228.2632 H   0  0  0  0  0  0  0  0  0  0  0  0
  138.8344   67.5344  226.7209 H   0  0  0  0  0  0  0  0  0  0  0  0
  138.8083   67.9315  224.2334 H   0  0  0  0  0  0  0  0  0  0  0  0
  139.4880   69.7580  222.3200 H   0  0  0  0  0  0  0  0  0  0  0  0
  141.7792   74.9368  222.3449 H   0  0  0  0  0  0  0  0  0  0  0  0
  141.4886   74.7286  220.6111 H   0  0  0  0  0  0  0  0  0  0  0  0
  141.0763   76.8508  219.8954 H   0  0  0  0  0  0  0  0  0  0  0  0
  139.3617   76.5550  219.5928 H   0  0  0  0  0  0  0  0  0  0  0  0
  140.5230   79.0201  220.3986 H   0  0  0  0  0  0  0  0  0  0  0  0
  138.7796   78.6398  220.4540 H   0  0  0  0  0  0  0  0  0  0  0  0
  139.6955   80.0339  223.4213 H   0  0  0  0  0  0  0  0  0  0  0  0
  140.6994   80.2195  220.7709 H   0  0  0  0  0  0  0  0  0  0  0  0
  140.6249   81.5511  221.9329 H   0  0  0  0  0  0  0  0  0  0  0  0
  142.9750   80.2491  220.9141 H   0  0  0  0  0  0  0  0  0  0  0  0
  142.9124   81.4715  222.2229 H   0  0  0  0  0  0  0  0  0  0  0  0
  143.1550   78.5910  222.3450 H   0  0  0  0  0  0  0  0  0  0  0  0
  141.6806   78.1288  223.9342 H   0  0  0  0  0  0  0  0  0  0  0  0
  141.7360   79.7883  224.5921 H   0  0  0  0  0  0  0  0  0  0  0  0
  141.4207   77.1054  222.9052 H   0  0  0  0  0  0  0  0  0  0  0  0
  139.8705   76.7466  223.6868 H   0  0  0  0  0  0  0  0  0  0  0  0
  137.3108   77.1127  221.7704 H   0  0  0  0  0  0  0  0  0  0  0  0
  135.2761   75.6707  222.0667 H   0  0  0  0  0  0  0  0  0  0  0  0
  135.5172   73.1854  222.2482 H   0  0  0  0  0  0  0  0  0  0  0  0
  137.7996   72.1334  222.1628 H   0  0  0  0  0  0  0  0  0  0  0  0
  1  2  2  0
  2  3  1  0
  3  4  2  0
  4  5  1  0
  5  6  2  0
  6  7  1  0
  6  8  1  0
  8  9  2  0
  9 10  1  0
 10 11  2  0
 11 12  1  0
  2 13  1  0
 13 14  1  0
 15 14  1  6
 15 16  1  0
 16 17  1  0
 17 18  1  0
 18 19  1  0
 19 20  1  0
 20 21  1  0
 21 22  1  0
 22 23  1  0
 18 24  1  0
 15 25  1  0
 25 26  2  0
 26 27  1  0
 27 28  2  0
 28 29  1  0
 29 30  2  0
 12  3  1  0
 30 13  1  0
 11  5  1  0
 24 15  1  0
 30 25  1  0
 23 19  1  0
  4 31  1  0
  8 32  1  0
  9 33  1  0
 10 34  1  0
 12 35  1  0
 14 36  1  0
 14 37  1  0
 16 38  1  0
 16 39  1  0
 17 40  1  0
 17 41  1  0
 19 42  1  1
 20 43  1  0
 20 44  1  0
 21 45  1  0
 21 46  1  0
 22 47  1  0
 23 48  1  0
 23 49  1  0
 24 50  1  0
 24 51  1  0
 26 52  1  0
 27 53  1  0
 28 54  1  0
 29 55  1  0
M  END
>  <UniqueID>  (56) 
163

>  <SMILES>  (56) 
O=C(c1cc2c(Cl)cccc2[nH]1)N1C[C@@]2(CCN([C@@H]3CCNC3)C2)c2ccccc21

>  <Energy>  (56) 
123.92147565229676

>  <Genealogy>  (56) 
O=C(c1cc2c(Cl)cccc2[nH]1)N1C[C@@]2(CCN([C@@H]3CCNC3)C2)c2ccccc21 (chirality)
O=C(c1cc2c(Cl)cccc2[nH]1)N1C[C@@]2(CCN([C@@H]3CCNC3)C2)c2ccccc21 (3D coordinates assigned)
O=C(c1cc2c(Cl)cccc2[nH]1)N1C[C@@]2(CCN([C@@H]3CCNC3)C2)c2ccccc21 (nonaromatic ring conformer: 123.92147565229676 kcal/mol)

>  <smiles>  (56) 
O=C(c1cc2c(Cl)cccc2[nH]1)N1C[C@@]2(CCN(C3CCNC3)C2)c2ccccc21

>  <score_type>  (56) 
oracle

>  <origin>  (56) 
autodockgpu

>  <m_score__min__energy>  (56) 
-8.9199999999999999

>  <m_primary>  (56) 
energy

>  <meeko>  (56) 
{"free_energy": -8.91, "intermolecular_energy": -9.8, "internal_energy": -1.25, "cluster_size": 19, "cluster_id": 1, "rank_in_cluster": 7}

>  <energy>  (56) 
-8.85

>  <cluster_rmsd>  (56) 
0.13

>  <rmsd>  (56) 
270.25

>  <cluster>  (56) 
1

$$$$
KZWACXAMTSGJSU-GYCJOSAFNA-N
     RDKit          3D

 55 60  0  0  0  0  0  0  0  0999 V2000
  141.2570   71.7330  221.0110 O   0  0  0  0  0  0  0  0  0  0  0  0
  140.6150   72.2330  221.9730 C   0  0  0  0  0  0  0  0  0  0  0  0
  140.4210   71.4460  223.2030 C   0  0  0  0  0  0  0  0  0  0  0  0
  140.7160   71.8900  224.4910 C   0  0  0  0  0  0  0  0  0  0  0  0
  140.3610   70.8460  225.3200 C   0  0  0  0  0  0  0  0  0  0  0  0
  140.4310   70.7150  226.7080 C   0  0  0  0  0  0  0  0  0  0  0  0
  141.0600   72.0010  227.7240 Cl  0  0  0  0  0  0  0  0  0  0  0  0
  139.9780   69.5090  227.2770 C   0  0  0  0  0  0  0  0  0  0  0  0
  139.4700   68.4780  226.4560 C   0  0  0  0  0  0  0  0  0  0  0  0
  139.4110   68.6400  225.0600 C   0  0  0  0  0  0  0  0  0  0  0  0
  139.8680   69.8430  224.5250 C   0  0  0  0  0  0  0  0  0  0  0  0
  139.8960   70.1970  223.2290 N   0  0  0  0  0  0  0  0  0  0  0  0
  140.1310   73.5800  221.8700 N   0  0  0  0  0  0  0  0  0  0  0  0
  140.9860   74.7330  221.6040 C   0  0  0  0  0  0  0  0  0  0  0  0
  140.0420   75.9820  221.6340 C   0  0  2  0  0  0  0  0  0  0  0  0
  140.1370   76.8460  220.3780 C   0  0  0  0  0  0  0  0  0  0  0  0
  139.8520   78.2690  220.8470 C   0  0  0  0  0  0  0  0  0  0  0  0
  139.8730   78.2760  222.3190 N   0  0  0  0  0  0  0  0  0  0  0  0
  140.5550   79.4620  222.8970 C   0  0  2  0  0  0  0  0  0  0  0  0
  141.0090   80.5010  221.8690 C   0  0  0  0  0  0  0  0  0  0  0  0
  142.5340   80.4770  221.9030 C   0  0  0  0  0  0  0  0  0  0  0  0
  142.9700   79.4050  222.7990 N   0  0  0  0  0  0  0  0  0  0  0  0
  141.8270   79.0740  223.6460 C   0  0  0  0  0  0  0  0  0  0  0  0
  140.3520   76.9580  222.7680 C   0  0  0  0  0  0  0  0  0  0  0  0
  138.6750   75.3660  221.7990 C   0  0  0  0  0  0  0  0  0  0  0  0
  137.4250   75.9970  221.8250 C   0  0  0  0  0  0  0  0  0  0  0  0
  136.2720   75.2070  221.9550 C   0  0  0  0  0  0  0  0  0  0  0  0
  136.3790   73.8090  222.0480 C   0  0  0  0  0  0  0  0  0  0  0  0
  137.6410   73.1940  222.0260 C   0  0  0  0  0  0  0  0  0  0  0  0
  138.7780   74.0040  221.9250 C   0  0  0  0  0  0  0  0  0  0  0  0
  141.1400   72.8621  224.7831 H   0  0  0  0  0  0  0  0  0  0  0  0
  140.0200   69.3691  228.3673 H   0  0  0  0  0  0  0  0  0  0  0  0
  139.1177   67.5410  226.9119 H   0  0  0  0  0  0  0  0  0  0  0  0
  139.0171   67.8433  224.4118 H   0  0  0  0  0  0  0  0  0  0  0  0
  139.5620   69.6290  222.4190 H   0  0  0  0  0  0  0  0  0  0  0  0
  141.7620   74.8210  222.3787 H   0  0  0  0  0  0  0  0  0  0  0  0
  141.5018   74.6393  220.6370 H   0  0  0  0  0  0  0  0  0  0  0  0
  141.1435   76.7790  219.9393 H   0  0  0  0  0  0  0  0  0  0  0  0
  139.4294   76.5203  219.6013 H   0  0  0  0  0  0  0  0  0  0  0  0
  140.6230   78.9512  220.4595 H   0  0  0  0  0  0  0  0  0  0  0  0
  138.8716   78.6039  220.4774 H   0  0  0  0  0  0  0  0  0  0  0  0
  139.7835   79.8920  223.5527 H   0  0  0  0  0  0  0  0  0  0  0  0
  140.6435   80.2337  220.8665 H   0  0  0  0  0  0  0  0  0  0  0  0
  140.6136   81.5010  222.1008 H   0  0  0  0  0  0  0  0  0  0  0  0
  142.9233   80.2937  220.8907 H   0  0  0  0  0  0  0  0  0  0  0  0
  142.9146   81.4437  222.2646 H   0  0  0  0  0  0  0  0  0  0  0  0
  143.2010   78.5650  222.2200 H   0  0  0  0  0  0  0  0  0  0  0  0
  141.8203   77.9947  223.8585 H   0  0  0  0  0  0  0  0  0  0  0  0
  141.8889   79.6180  224.6001 H   0  0  0  0  0  0  0  0  0  0  0  0
  141.4350   76.9904  222.9577 H   0  0  0  0  0  0  0  0  0  0  0  0
  139.8632   76.6520  223.7047 H   0  0  0  0  0  0  0  0  0  0  0  0
  137.3482   77.0914  221.7450 H   0  0  0  0  0  0  0  0  0  0  0  0
  135.2812   75.6840  221.9842 H   0  0  0  0  0  0  0  0  0  0  0  0
  135.4711   73.1945  222.1383 H   0  0  0  0  0  0  0  0  0  0  0  0
  137.7341   72.0996  222.0868 H   0  0  0  0  0  0  0  0  0  0  0  0
  1  2  2  0
  2  3  1  0
  3  4  2  0
  4  5  1  0
  5  6  2  0
  6  7  1  0
  6  8  1  0
  8  9  2  0
  9 10  1  0
 10 11  2  0
 11 12  1  0
  2 13  1  0
 13 14  1  0
 15 14  1  6
 15 16  1  0
 16 17  1  0
 17 18  1  0
 18 19  1  0
 19 20  1  0
 20 21  1  0
 21 22  1  0
 22 23  1  0
 18 24  1  0
 15 25  1  0
 25 26  2  0
 26 27  1  0
 27 28  2  0
 28 29  1  0
 29 30  2  0
 12  3  1  0
 30 13  1  0
 11  5  1  0
 24 15  1  0
 30 25  1  0
 23 19  1  0
  4 31  1  0
  8 32  1  0
  9 33  1  0
 10 34  1  0
 12 35  1  0
 14 36  1  0
 14 37  1  0
 16 38  1  0
 16 39  1  0
 17 40  1  0
 17 41  1  0
 19 42  1  1
 20 43  1  0
 20 44  1  0
 21 45  1  0
 21 46  1  0
 22 47  1  0
 23 48  1  0
 23 49  1  0
 24 50  1  0
 24 51  1  0
 26 52  1  0
 27 53  1  0
 28 54  1  0
 29 55  1  0
M  END
>  <UniqueID>  (57) 
163

>  <SMILES>  (57) 
O=C(c1cc2c(Cl)cccc2[nH]1)N1C[C@@]2(CCN([C@@H]3CCNC3)C2)c2ccccc21

>  <Energy>  (57) 
123.92147565229676

>  <Genealogy>  (57) 
O=C(c1cc2c(Cl)cccc2[nH]1)N1C[C@@]2(CCN([C@@H]3CCNC3)C2)c2ccccc21 (chirality)
O=C(c1cc2c(Cl)cccc2[nH]1)N1C[C@@]2(CCN([C@@H]3CCNC3)C2)c2ccccc21 (3D coordinates assigned)
O=C(c1cc2c(Cl)cccc2[nH]1)N1C[C@@]2(CCN([C@@H]3CCNC3)C2)c2ccccc21 (nonaromatic ring conformer: 123.92147565229676 kcal/mol)

>  <smiles>  (57) 
O=C(c1cc2c(Cl)cccc2[nH]1)N1C[C@@]2(CCN(C3CCNC3)C2)c2ccccc21

>  <score_type>  (57) 
oracle

>  <origin>  (57) 
autodockgpu

>  <m_score__min__energy>  (57) 
-8.9199999999999999

>  <m_primary>  (57) 
energy

>  <meeko>  (57) 
{"free_energy": -8.85, "intermolecular_energy": -9.74, "internal_energy": -1.25, "cluster_size": 19, "cluster_id": 1, "rank_in_cluster": 16}

>  <energy>  (57) 
-8.82

>  <cluster_rmsd>  (57) 
0.12

>  <rmsd>  (57) 
270.25

>  <cluster>  (57) 
1

$$$$
KZWACXAMTSGJSU-GYCJOSAFNA-N
     RDKit          3D

 55 60  0  0  0  0  0  0  0  0999 V2000
  141.2220   71.8030  220.9520 O   0  0  0  0  0  0  0  0  0  0  0  0
  140.5680   72.2940  221.9100 C   0  0  0  0  0  0  0  0  0  0  0  0
  140.3530   71.4930  223.1270 C   0  0  0  0  0  0  0  0  0  0  0  0
  140.6770   71.9020  224.4200 C   0  0  0  0  0  0  0  0  0  0  0  0
  140.2880   70.8580  225.2340 C   0  0  0  0  0  0  0  0  0  0  0  0
  140.3650   70.6990  226.6190 C   0  0  0  0  0  0  0  0  0  0  0  0
  141.0530   71.9420  227.6510 Cl  0  0  0  0  0  0  0  0  0  0  0  0
  139.8710   69.5020  227.1700 C   0  0  0  0  0  0  0  0  0  0  0  0
  139.3160   68.5060  226.3360 C   0  0  0  0  0  0  0  0  0  0  0  0
  139.2510   68.6950  224.9440 C   0  0  0  0  0  0  0  0  0  0  0  0
  139.7500   69.8890  224.4260 C   0  0  0  0  0  0  0  0  0  0  0  0
  139.7810   70.2650  223.1370 N   0  0  0  0  0  0  0  0  0  0  0  0
  140.0870   73.6420  221.8150 N   0  0  0  0  0  0  0  0  0  0  0  0
  140.9420   74.7930  221.5340 C   0  0  0  0  0  0  0  0  0  0  0  0
  140.0040   76.0450  221.5800 C   0  0  2  0  0  0  0  0  0  0  0  0
  140.0810   76.9080  220.3220 C   0  0  0  0  0  0  0  0  0  0  0  0
  139.8100   78.3330  220.7960 C   0  0  0  0  0  0  0  0  0  0  0  0
  139.8570   78.3390  222.2680 N   0  0  0  0  0  0  0  0  0  0  0  0
  140.5540   79.5230  222.8340 C   0  0  2  0  0  0  0  0  0  0  0  0
  141.0410   80.5340  221.7940 C   0  0  0  0  0  0  0  0  0  0  0  0
  142.5640   80.4820  221.8490 C   0  0  0  0  0  0  0  0  0  0  0  0
  142.9680   79.4190  222.7700 N   0  0  0  0  0  0  0  0  0  0  0  0
  141.8080   79.1250  223.6060 C   0  0  0  0  0  0  0  0  0  0  0  0
  140.3380   77.0200  222.7090 C   0  0  0  0  0  0  0  0  0  0  0  0
  138.6370   75.4350  221.7690 C   0  0  0  0  0  0  0  0  0  0  0  0
  137.3910   76.0710  221.8160 C   0  0  0  0  0  0  0  0  0  0  0  0
  136.2370   75.2870  221.9670 C   0  0  0  0  0  0  0  0  0  0  0  0
  136.3400   73.8870  222.0580 C   0  0  0  0  0  0  0  0  0  0  0  0
  137.5980   73.2670  222.0140 C   0  0  0  0  0  0  0  0  0  0  0  0
  138.7370   74.0730  221.8930 C   0  0  0  0  0  0  0  0  0  0  0  0
  141.1419   72.8511  224.7250 H   0  0  0  0  0  0  0  0  0  0  0  0
  139.9173   69.3409  228.2571 H   0  0  0  0  0  0  0  0  0  0  0  0
  138.9317   67.5753  226.7789 H   0  0  0  0  0  0  0  0  0  0  0  0
  138.8206   67.9260  224.2857 H   0  0  0  0  0  0  0  0  0  0  0  0
  139.4180   69.7250  222.3200 H   0  0  0  0  0  0  0  0  0  0  0  0
  141.7315   74.8782  222.2952 H   0  0  0  0  0  0  0  0  0  0  0  0
  141.4405   74.6973  220.5581 H   0  0  0  0  0  0  0  0  0  0  0  0
  141.0795   76.8367  219.8660 H   0  0  0  0  0  0  0  0  0  0  0  0
  139.3589   76.5851  219.5576 H   0  0  0  0  0  0  0  0  0  0  0  0
  140.5769   79.0121  220.3951 H   0  0  0  0  0  0  0  0  0  0  0  0
  138.8248   78.6724  220.4435 H   0  0  0  0  0  0  0  0  0  0  0  0
  139.7823   79.9793  223.4715 H   0  0  0  0  0  0  0  0  0  0  0  0
  140.6837   80.2553  220.7917 H   0  0  0  0  0  0  0  0  0  0  0  0
  140.6617   81.5453  222.0024 H   0  0  0  0  0  0  0  0  0  0  0  0
  142.9630   80.2728  220.8455 H   0  0  0  0  0  0  0  0  0  0  0  0
  142.9580   81.4479  222.1981 H   0  0  0  0  0  0  0  0  0  0  0  0
  143.1910   78.5630  222.2090 H   0  0  0  0  0  0  0  0  0  0  0  0
  141.7780   78.0500  223.8372 H   0  0  0  0  0  0  0  0  0  0  0  0
  141.8675   79.6852  224.5508 H   0  0  0  0  0  0  0  0  0  0  0  0
  141.4243   77.0478  222.8799 H   0  0  0  0  0  0  0  0  0  0  0  0
  139.8646   76.7161  223.6543 H   0  0  0  0  0  0  0  0  0  0  0  0
  137.3177   77.1656  221.7360 H   0  0  0  0  0  0  0  0  0  0  0  0
  135.2491   75.7685  222.0143 H   0  0  0  0  0  0  0  0  0  0  0  0
  135.4313   73.2763  222.1640 H   0  0  0  0  0  0  0  0  0  0  0  0
  137.6876   72.1723  222.0732 H   0  0  0  0  0  0  0  0  0  0  0  0
  1  2  2  0
  2  3  1  0
  3  4  2  0
  4  5  1  0
  5  6  2  0
  6  7  1  0
  6  8  1  0
  8  9  2  0
  9 10  1  0
 10 11  2  0
 11 12  1  0
  2 13  1  0
 13 14  1  0
 15 14  1  6
 15 16  1  0
 16 17  1  0
 17 18  1  0
 18 19  1  0
 19 20  1  0
 20 21  1  0
 21 22  1  0
 22 23  1  0
 18 24  1  0
 15 25  1  0
 25 26  2  0
 26 27  1  0
 27 28  2  0
 28 29  1  0
 29 30  2  0
 12  3  1  0
 30 13  1  0
 11  5  1  0
 24 15  1  0
 30 25  1  0
 23 19  1  0
  4 31  1  0
  8 32  1  0
  9 33  1  0
 10 34  1  0
 12 35  1  0
 14 36  1  0
 14 37  1  0
 16 38  1  0
 16 39  1  0
 17 40  1  0
 17 41  1  0
 19 42  1  1
 20 43  1  0
 20 44  1  0
 21 45  1  0
 21 46  1  0
 22 47  1  0
 23 48  1  0
 23 49  1  0
 24 50  1  0
 24 51  1  0
 26 52  1  0
 27 53  1  0
 28 54  1  0
 29 55  1  0
M  END
>  <UniqueID>  (58) 
163

>  <SMILES>  (58) 
O=C(c1cc2c(Cl)cccc2[nH]1)N1C[C@@]2(CCN([C@@H]3CCNC3)C2)c2ccccc21

>  <Energy>  (58) 
123.92147565229676

>  <Genealogy>  (58) 
O=C(c1cc2c(Cl)cccc2[nH]1)N1C[C@@]2(CCN([C@@H]3CCNC3)C2)c2ccccc21 (chirality)
O=C(c1cc2c(Cl)cccc2[nH]1)N1C[C@@]2(CCN([C@@H]3CCNC3)C2)c2ccccc21 (3D coordinates assigned)
O=C(c1cc2c(Cl)cccc2[nH]1)N1C[C@@]2(CCN([C@@H]3CCNC3)C2)c2ccccc21 (nonaromatic ring conformer: 123.92147565229676 kcal/mol)

>  <smiles>  (58) 
O=C(c1cc2c(Cl)cccc2[nH]1)N1C[C@@]2(CCN(C3CCNC3)C2)c2ccccc21

>  <score_type>  (58) 
oracle

>  <origin>  (58) 
autodockgpu

>  <m_score__min__energy>  (58) 
-8.9199999999999999

>  <m_primary>  (58) 
energy

>  <meeko>  (58) 
{"free_energy": -8.89, "intermolecular_energy": -9.79, "internal_energy": -1.25, "cluster_size": 19, "cluster_id": 1, "rank_in_cluster": 15}

>  <energy>  (58) 
-8.81

>  <cluster_rmsd>  (58) 
0.23

>  <rmsd>  (58) 
270.19

>  <cluster>  (58) 
1

$$$$
KZWACXAMTSGJSU-GYCJOSAFNA-N
     RDKit          3D

 55 60  0  0  0  0  0  0  0  0999 V2000
  141.3690   71.8540  221.0760 O   0  0  0  0  0  0  0  0  0  0  0  0
  140.6520   72.3210  222.0000 C   0  0  0  0  0  0  0  0  0  0  0  0
  140.3900   71.5040  223.1980 C   0  0  0  0  0  0  0  0  0  0  0  0
  140.6780   71.8900  224.5060 C   0  0  0  0  0  0  0  0  0  0  0  0
  140.2520   70.8370  225.2910 C   0  0  0  0  0  0  0  0  0  0  0  0
  140.2840   70.6570  226.6750 C   0  0  0  0  0  0  0  0  0  0  0  0
  140.9530   71.8750  227.7480 Cl  0  0  0  0  0  0  0  0  0  0  0  0
  139.7590   69.4570  227.1920 C   0  0  0  0  0  0  0  0  0  0  0  0
  139.2190   68.4810  226.3250 C   0  0  0  0  0  0  0  0  0  0  0  0
  139.2000   68.6920  224.9360 C   0  0  0  0  0  0  0  0  0  0  0  0
  139.7290   69.8880  224.4510 C   0  0  0  0  0  0  0  0  0  0  0  0
  139.8040   70.2830  223.1700 N   0  0  0  0  0  0  0  0  0  0  0  0
  140.1460   73.6590  221.8900 N   0  0  0  0  0  0  0  0  0  0  0  0
  140.9790   74.8220  221.5950 C   0  0  0  0  0  0  0  0  0  0  0  0
  140.0170   76.0570  221.6280 C   0  0  2  0  0  0  0  0  0  0  0  0
  140.0770   76.9070  220.3600 C   0  0  0  0  0  0  0  0  0  0  0  0
  139.7790   78.3310  220.8170 C   0  0  0  0  0  0  0  0  0  0  0  0
  139.8250   78.3550  222.2890 N   0  0  0  0  0  0  0  0  0  0  0  0
  140.5000   79.5590  222.8410 C   0  0  2  0  0  0  0  0  0  0  0  0
  141.0290   80.5330  221.7870 C   0  0  0  0  0  0  0  0  0  0  0  0
  142.5490   80.4840  221.9060 C   0  0  0  0  0  0  0  0  0  0  0  0
  142.9150   79.4540  222.8790 N   0  0  0  0  0  0  0  0  0  0  0  0
  141.7220   79.1890  223.6770 C   0  0  0  0  0  0  0  0  0  0  0  0
  140.3320   77.0510  222.7450 C   0  0  0  0  0  0  0  0  0  0  0  0
  138.6620   75.4220  221.8230 C   0  0  0  0  0  0  0  0  0  0  0  0
  137.4040   76.0350  221.8640 C   0  0  0  0  0  0  0  0  0  0  0  0
  136.2650   75.2310  222.0240 C   0  0  0  0  0  0  0  0  0  0  0  0
  136.3950   73.8340  222.1310 C   0  0  0  0  0  0  0  0  0  0  0  0
  137.6650   73.2380  222.0940 C   0  0  0  0  0  0  0  0  0  0  0  0
  138.7870   74.0640  221.9640 C   0  0  0  0  0  0  0  0  0  0  0  0
  141.1433   72.8291  224.8401 H   0  0  0  0  0  0  0  0  0  0  0  0
  139.7694   69.2785  228.2774 H   0  0  0  0  0  0  0  0  0  0  0  0
  138.8101   67.5483  226.7407 H   0  0  0  0  0  0  0  0  0  0  0  0
  138.7814   67.9382  224.2530 H   0  0  0  0  0  0  0  0  0  0  0  0
  139.4610   69.7600  222.3340 H   0  0  0  0  0  0  0  0  0  0  0  0
  141.7675   74.9306  222.3542 H   0  0  0  0  0  0  0  0  0  0  0  0
  141.4786   74.7246  220.6198 H   0  0  0  0  0  0  0  0  0  0  0  0
  141.0765   76.8496  219.9044 H   0  0  0  0  0  0  0  0  0  0  0  0
  139.3609   76.5615  219.5999 H   0  0  0  0  0  0  0  0  0  0  0  0
  140.5332   79.0198  220.4086 H   0  0  0  0  0  0  0  0  0  0  0  0
  138.7878   78.6476  220.4602 H   0  0  0  0  0  0  0  0  0  0  0  0
  139.7037   80.0368  223.4305 H   0  0  0  0  0  0  0  0  0  0  0  0
  140.7127   80.2189  220.7814 H   0  0  0  0  0  0  0  0  0  0  0  0
  140.6420   81.5506  221.9438 H   0  0  0  0  0  0  0  0  0  0  0  0
  142.9884   80.2404  220.9274 H   0  0  0  0  0  0  0  0  0  0  0  0
  142.9287   81.4617  222.2374 H   0  0  0  0  0  0  0  0  0  0  0  0
  143.1600   78.5800  222.3570 H   0  0  0  0  0  0  0  0  0  0  0  0
  141.6817   78.1228  223.9445 H   0  0  0  0  0  0  0  0  0  0  0  0
  141.7437   79.7822  224.6031 H   0  0  0  0  0  0  0  0  0  0  0  0
  141.4176   77.1022  222.9150 H   0  0  0  0  0  0  0  0  0  0  0  0
  139.8650   76.7489  223.6940 H   0  0  0  0  0  0  0  0  0  0  0  0
  137.3101   77.1272  221.7724 H   0  0  0  0  0  0  0  0  0  0  0  0
  135.2681   75.6940  222.0659 H   0  0  0  0  0  0  0  0  0  0  0  0
  135.4983   73.2070  222.2440 H   0  0  0  0  0  0  0  0  0  0  0  0
  137.7760   72.1460  222.1656 H   0  0  0  0  0  0  0  0  0  0  0  0
  1  2  2  0
  2  3  1  0
  3  4  2  0
  4  5  1  0
  5  6  2  0
  6  7  1  0
  6  8  1  0
  8  9  2  0
  9 10  1  0
 10 11  2  0
 11 12  1  0
  2 13  1  0
 13 14  1  0
 15 14  1  6
 15 16  1  0
 16 17  1  0
 17 18  1  0
 18 19  1  0
 19 20  1  0
 20 21  1  0
 21 22  1  0
 22 23  1  0
 18 24  1  0
 15 25  1  0
 25 26  2  0
 26 27  1  0
 27 28  2  0
 28 29  1  0
 29 30  2  0
 12  3  1  0
 30 13  1  0
 11  5  1  0
 24 15  1  0
 30 25  1  0
 23 19  1  0
  4 31  1  0
  8 32  1  0
  9 33  1  0
 10 34  1  0
 12 35  1  0
 14 36  1  0
 14 37  1  0
 16 38  1  0
 16 39  1  0
 17 40  1  0
 17 41  1  0
 19 42  1  1
 20 43  1  0
 20 44  1  0
 21 45  1  0
 21 46  1  0
 22 47  1  0
 23 48  1  0
 23 49  1  0
 24 50  1  0
 24 51  1  0
 26 52  1  0
 27 53  1  0
 28 54  1  0
 29 55  1  0
M  END
>  <UniqueID>  (59) 
163

>  <SMILES>  (59) 
O=C(c1cc2c(Cl)cccc2[nH]1)N1C[C@@]2(CCN([C@@H]3CCNC3)C2)c2ccccc21

>  <Energy>  (59) 
123.92147565229676

>  <Genealogy>  (59) 
O=C(c1cc2c(Cl)cccc2[nH]1)N1C[C@@]2(CCN([C@@H]3CCNC3)C2)c2ccccc21 (chirality)
O=C(c1cc2c(Cl)cccc2[nH]1)N1C[C@@]2(CCN([C@@H]3CCNC3)C2)c2ccccc21 (3D coordinates assigned)
O=C(c1cc2c(Cl)cccc2[nH]1)N1C[C@@]2(CCN([C@@H]3CCNC3)C2)c2ccccc21 (nonaromatic ring conformer: 123.92147565229676 kcal/mol)

>  <smiles>  (59) 
O=C(c1cc2c(Cl)cccc2[nH]1)N1C[C@@]2(CCN(C3CCNC3)C2)c2ccccc21

>  <score_type>  (59) 
oracle

>  <origin>  (59) 
autodockgpu

>  <m_score__min__energy>  (59) 
-8.9199999999999999

>  <m_primary>  (59) 
energy

>  <meeko>  (59) 
{"free_energy": -8.89, "intermolecular_energy": -9.79, "internal_energy": -1.25, "cluster_size": 19, "cluster_id": 1, "rank_in_cluster": 13}

>  <energy>  (59) 
-8.71

>  <cluster_rmsd>  (59) 
1.1

>  <rmsd>  (59) 
270.21

>  <cluster>  (59) 
1

$$$$
KZWACXAMTSGJSU-GYCJOSAFNA-N
     RDKit          3D

 55 60  0  0  0  0  0  0  0  0999 V2000
  141.4450   71.8400  221.0970 O   0  0  0  0  0  0  0  0  0  0  0  0
  140.7110   72.3110  222.0070 C   0  0  0  0  0  0  0  0  0  0  0  0
  140.4370   71.5030  223.2080 C   0  0  0  0  0  0  0  0  0  0  0  0
  140.7240   71.8920  224.5150 C   0  0  0  0  0  0  0  0  0  0  0  0
  140.2840   70.8490  225.3040 C   0  0  0  0  0  0  0  0  0  0  0  0
  140.3100   70.6750  226.6890 C   0  0  0  0  0  0  0  0  0  0  0  0
  140.9890   71.8910  227.7580 Cl  0  0  0  0  0  0  0  0  0  0  0  0
  139.7690   69.4840  227.2110 C   0  0  0  0  0  0  0  0  0  0  0  0
  139.2210   68.5090  226.3470 C   0  0  0  0  0  0  0  0  0  0  0  0
  139.2090   68.7140  224.9560 C   0  0  0  0  0  0  0  0  0  0  0  0
  139.7530   69.9010  224.4680 C   0  0  0  0  0  0  0  0  0  0  0  0
  139.8360   70.2880  223.1850 N   0  0  0  0  0  0  0  0  0  0  0  0
  140.1990   73.6440  221.8770 N   0  0  0  0  0  0  0  0  0  0  0  0
  141.0300   74.8100  221.5860 C   0  0  0  0  0  0  0  0  0  0  0  0
  140.0610   76.0390  221.5930 C   0  0  2  0  0  0  0  0  0  0  0  0
  140.1370   76.8790  220.3190 C   0  0  0  0  0  0  0  0  0  0  0  0
  139.8230   78.3060  220.7590 C   0  0  0  0  0  0  0  0  0  0  0  0
  139.8460   78.3420  222.2320 N   0  0  0  0  0  0  0  0  0  0  0  0
  140.5050   79.5540  222.7840 C   0  0  2  0  0  0  0  0  0  0  0  0
  141.0360   80.5280  221.7300 C   0  0  0  0  0  0  0  0  0  0  0  0
  142.5550   80.4930  221.8640 C   0  0  0  0  0  0  0  0  0  0  0  0
  142.9200   79.4710  222.8450 N   0  0  0  0  0  0  0  0  0  0  0  0
  141.7220   79.1980  223.6340 C   0  0  0  0  0  0  0  0  0  0  0  0
  140.3530   77.0440  222.7070 C   0  0  0  0  0  0  0  0  0  0  0  0
  138.7070   75.3990  221.7720 C   0  0  0  0  0  0  0  0  0  0  0  0
  137.4440   76.0050  221.7870 C   0  0  0  0  0  0  0  0  0  0  0  0
  136.3080   75.1950  221.9350 C   0  0  0  0  0  0  0  0  0  0  0  0
  136.4440   73.8000  222.0570 C   0  0  0  0  0  0  0  0  0  0  0  0
  137.7180   73.2110  222.0450 C   0  0  0  0  0  0  0  0  0  0  0  0
  138.8380   74.0420  221.9260 C   0  0  0  0  0  0  0  0  0  0  0  0
  141.1984   72.8276  224.8459 H   0  0  0  0  0  0  0  0  0  0  0  0
  139.7730   69.3117  228.2974 H   0  0  0  0  0  0  0  0  0  0  0  0
  138.8007   67.5828  226.7659 H   0  0  0  0  0  0  0  0  0  0  0  0
  138.7841   67.9620  224.2749 H   0  0  0  0  0  0  0  0  0  0  0  0
  139.4900   69.7650  222.3500 H   0  0  0  0  0  0  0  0  0  0  0  0
  141.8053   74.9295  222.3571 H   0  0  0  0  0  0  0  0  0  0  0  0
  141.5459   74.7076  220.6199 H   0  0  0  0  0  0  0  0  0  0  0  0
  141.1443   76.8237  219.8804 H   0  0  0  0  0  0  0  0  0  0  0  0
  139.4355   76.5229  219.5502 H   0  0  0  0  0  0  0  0  0  0  0  0
  140.5793   78.9960  220.3566 H   0  0  0  0  0  0  0  0  0  0  0  0
  138.8358   78.6139  220.3839 H   0  0  0  0  0  0  0  0  0  0  0  0
  139.6990   80.0283  223.3631 H   0  0  0  0  0  0  0  0  0  0  0  0
  140.7323   80.2064  220.7229 H   0  0  0  0  0  0  0  0  0  0  0  0
  140.6386   81.5429  221.8781 H   0  0  0  0  0  0  0  0  0  0  0  0
  143.0061   80.2488  220.8909 H   0  0  0  0  0  0  0  0  0  0  0  0
  142.9230   81.4755  222.1944 H   0  0  0  0  0  0  0  0  0  0  0  0
  143.1780   78.5960  222.3300 H   0  0  0  0  0  0  0  0  0  0  0  0
  141.6888   78.1325  223.9055 H   0  0  0  0  0  0  0  0  0  0  0  0
  141.7296   79.7942  224.5584 H   0  0  0  0  0  0  0  0  0  0  0  0
  141.4354   77.1026  222.8937 H   0  0  0  0  0  0  0  0  0  0  0  0
  139.8727   76.7470  223.6510 H   0  0  0  0  0  0  0  0  0  0  0  0
  137.3448   77.0957  221.6846 H   0  0  0  0  0  0  0  0  0  0  0  0
  135.3077   75.6521  221.9557 H   0  0  0  0  0  0  0  0  0  0  0  0
  135.5492   73.1690  222.1621 H   0  0  0  0  0  0  0  0  0  0  0  0
  137.8337   72.1202  222.1273 H   0  0  0  0  0  0  0  0  0  0  0  0
  1  2  2  0
  2  3  1  0
  3  4  2  0
  4  5  1  0
  5  6  2  0
  6  7  1  0
  6  8  1  0
  8  9  2  0
  9 10  1  0
 10 11  2  0
 11 12  1  0
  2 13  1  0
 13 14  1  0
 15 14  1  6
 15 16  1  0
 16 17  1  0
 17 18  1  0
 18 19  1  0
 19 20  1  0
 20 21  1  0
 21 22  1  0
 22 23  1  0
 18 24  1  0
 15 25  1  0
 25 26  2  0
 26 27  1  0
 27 28  2  0
 28 29  1  0
 29 30  2  0
 12  3  1  0
 30 13  1  0
 11  5  1  0
 24 15  1  0
 30 25  1  0
 23 19  1  0
  4 31  1  0
  8 32  1  0
  9 33  1  0
 10 34  1  0
 12 35  1  0
 14 36  1  0
 14 37  1  0
 16 38  1  0
 16 39  1  0
 17 40  1  0
 17 41  1  0
 19 42  1  1
 20 43  1  0
 20 44  1  0
 21 45  1  0
 21 46  1  0
 22 47  1  0
 23 48  1  0
 23 49  1  0
 24 50  1  0
 24 51  1  0
 26 52  1  0
 27 53  1  0
 28 54  1  0
 29 55  1  0
M  END
>  <UniqueID>  (60) 
163

>  <SMILES>  (60) 
O=C(c1cc2c(Cl)cccc2[nH]1)N1C[C@@]2(CCN([C@@H]3CCNC3)C2)c2ccccc21

>  <Energy>  (60) 
123.92147565229676

>  <Genealogy>  (60) 
O=C(c1cc2c(Cl)cccc2[nH]1)N1C[C@@]2(CCN([C@@H]3CCNC3)C2)c2ccccc21 (chirality)
O=C(c1cc2c(Cl)cccc2[nH]1)N1C[C@@]2(CCN([C@@H]3CCNC3)C2)c2ccccc21 (3D coordinates assigned)
O=C(c1cc2c(Cl)cccc2[nH]1)N1C[C@@]2(CCN([C@@H]3CCNC3)C2)c2ccccc21 (nonaromatic ring conformer: 123.92147565229676 kcal/mol)

>  <smiles>  (60) 
O=C(c1cc2c(Cl)cccc2[nH]1)N1C[C@@]2(CCN(C3CCNC3)C2)c2ccccc21

>  <score_type>  (60) 
oracle

>  <origin>  (60) 
autodockgpu

>  <m_score__min__energy>  (60) 
-8.9199999999999999

>  <m_primary>  (60) 
energy

>  <meeko>  (60) 
{"free_energy": -8.91, "intermolecular_energy": -9.8, "internal_energy": -1.25, "cluster_size": 19, "cluster_id": 1, "rank_in_cluster": 6}

>  <energy>  (60) 
-8.89

>  <cluster_rmsd>  (60) 
0.0

>  <rmsd>  (60) 
270.16

>  <cluster>  (60) 
2

$$$$
KZWACXAMTSGJSU-FYSMJZIKNA-N
     RDKit          3D

 55 60  0  0  0  0  0  0  0  0999 V2000
  141.0040   71.5500  220.9550 O   0  0  0  0  0  0  0  0  0  0  0  0
  140.4450   72.0860  221.9490 C   0  0  0  0  0  0  0  0  0  0  0  0
  140.2830   71.3140  223.1940 C   0  0  0  0  0  0  0  0  0  0  0  0
  140.6210   71.7690  224.4670 C   0  0  0  0  0  0  0  0  0  0  0  0
  140.3240   70.7210  225.3130 C   0  0  0  0  0  0  0  0  0  0  0  0
  140.4510   70.5970  226.6980 C   0  0  0  0  0  0  0  0  0  0  0  0
  141.0720   71.9090  227.6850 Cl  0  0  0  0  0  0  0  0  0  0  0  0
  140.0630   69.3780  227.2860 C   0  0  0  0  0  0  0  0  0  0  0  0
  139.5640   68.3250  226.4880 C   0  0  0  0  0  0  0  0  0  0  0  0
  139.4490   68.4790  225.0950 C   0  0  0  0  0  0  0  0  0  0  0  0
  139.8400   69.6960  224.5400 C   0  0  0  0  0  0  0  0  0  0  0  0
  139.8130   70.0440  223.2430 N   0  0  0  0  0  0  0  0  0  0  0  0
  139.9320   73.4200  221.8330 N   0  0  0  0  0  0  0  0  0  0  0  0
  140.7730   74.6050  221.6740 C   0  0  0  0  0  0  0  0  0  0  0  0
  139.7860   75.8080  221.5140 C   0  0  2  0  0  0  0  0  0  0  0  0
  139.8140   76.4290  220.1210 C   0  0  0  0  0  0  0  0  0  0  0  0
  139.4380   77.8880  220.3350 C   0  0  0  0  0  0  0  0  0  0  0  0
  139.6370   78.2100  221.7600 N   0  0  0  0  0  0  0  0  0  0  0  0
  140.4790   79.4180  221.9670 C   0  0  1  0  0  0  0  0  0  0  0  0
  140.6700   79.7440  223.4470 C   0  0  0  0  0  0  0  0  0  0  0  0
  142.1660   79.9470  223.6170 C   0  0  0  0  0  0  0  0  0  0  0  0
  142.8290   79.2560  222.5160 N   0  0  0  0  0  0  0  0  0  0  0  0
  141.9000   79.3130  221.3890 C   0  0  0  0  0  0  0  0  0  0  0  0
  140.0940   76.9840  222.4450 C   0  0  0  0  0  0  0  0  0  0  0  0
  138.4460   75.1820  221.8080 C   0  0  0  0  0  0  0  0  0  0  0  0
  137.1970   75.8040  221.9460 C   0  0  0  0  0  0  0  0  0  0  0  0
  136.0820   75.0140  222.2650 C   0  0  0  0  0  0  0  0  0  0  0  0
  136.2280   73.6280  222.4570 C   0  0  0  0  0  0  0  0  0  0  0  0
  137.4870   73.0250  222.3230 C   0  0  0  0  0  0  0  0  0  0  0  0
  138.5800   73.8280  221.9730 C   0  0  0  0  0  0  0  0  0  0  0  0
  141.0350   72.7513  224.7384 H   0  0  0  0  0  0  0  0  0  0  0  0
  140.1491   69.2448  228.3745 H   0  0  0  0  0  0  0  0  0  0  0  0
  139.2632   67.3778  226.9595 H   0  0  0  0  0  0  0  0  0  0  0  0
  139.0629   67.6651  224.4638 H   0  0  0  0  0  0  0  0  0  0  0  0
  139.5100   69.4460  222.4420 H   0  0  0  0  0  0  0  0  0  0  0  0
  141.4084   74.7459  222.5608 H   0  0  0  0  0  0  0  0  0  0  0  0
  141.4437   74.5128  220.8070 H   0  0  0  0  0  0  0  0  0  0  0  0
  140.8193   76.3488  219.6817 H   0  0  0  0  0  0  0  0  0  0  0  0
  139.1270   75.9218  219.4276 H   0  0  0  0  0  0  0  0  0  0  0  0
  140.0781   78.5325  219.7146 H   0  0  0  0  0  0  0  0  0  0  0  0
  138.3889   78.0561  220.0501 H   0  0  0  0  0  0  0  0  0  0  0  0
  139.9141   80.1985  221.4362 H   0  0  0  0  0  0  0  0  0  0  0  0
  140.1230   80.6601  223.7145 H   0  0  0  0  0  0  0  0  0  0  0  0
  140.2856   78.9452  224.0982 H   0  0  0  0  0  0  0  0  0  0  0  0
  142.4056   81.0201  223.5858 H   0  0  0  0  0  0  0  0  0  0  0  0
  142.5041   79.5485  224.5849 H   0  0  0  0  0  0  0  0  0  0  0  0
  143.7070   79.7680  222.2670 H   0  0  0  0  0  0  0  0  0  0  0  0
  142.1183   80.1932  220.7664 H   0  0  0  0  0  0  0  0  0  0  0  0
  141.9975   78.4156  220.7605 H   0  0  0  0  0  0  0  0  0  0  0  0
  141.1756   77.0399  222.6374 H   0  0  0  0  0  0  0  0  0  0  0  0
  139.5843   76.8622  223.4122 H   0  0  0  0  0  0  0  0  0  0  0  0
  137.0932   76.8902  221.8069 H   0  0  0  0  0  0  0  0  0  0  0  0
  135.0906   75.4799  222.3653 H   0  0  0  0  0  0  0  0  0  0  0  0
  135.3513   73.0150  222.7132 H   0  0  0  0  0  0  0  0  0  0  0  0
  137.6134   71.9450  222.4891 H   0  0  0  0  0  0  0  0  0  0  0  0
  1  2  2  0
  2  3  1  0
  3  4  2  0
  4  5  1  0
  5  6  2  0
  6  7  1  0
  6  8  1  0
  8  9  2  0
  9 10  1  0
 10 11  2  0
 11 12  1  0
  2 13  1  0
 13 14  1  0
 15 14  1  6
 15 16  1  0
 16 17  1  0
 17 18  1  0
 18 19  1  0
 19 20  1  0
 20 21  1  0
 21 22  1  0
 22 23  1  0
 18 24  1  0
 15 25  1  0
 25 26  2  0
 26 27  1  0
 27 28  2  0
 28 29  1  0
 29 30  2  0
 12  3  1  0
 30 13  1  0
 11  5  1  0
 24 15  1  0
 30 25  1  0
 23 19  1  0
  4 31  1  0
  8 32  1  0
  9 33  1  0
 10 34  1  0
 12 35  1  0
 14 36  1  0
 14 37  1  0
 16 38  1  0
 16 39  1  0
 17 40  1  0
 17 41  1  0
 19 42  1  6
 20 43  1  0
 20 44  1  0
 21 45  1  0
 21 46  1  0
 22 47  1  0
 23 48  1  0
 23 49  1  0
 24 50  1  0
 24 51  1  0
 26 52  1  0
 27 53  1  0
 28 54  1  0
 29 55  1  0
M  END
>  <UniqueID>  (61) 
164

>  <SMILES>  (61) 
O=C(c1cc2c(Cl)cccc2[nH]1)N1C[C@@]2(CCN([C@H]3CCNC3)C2)c2ccccc21

>  <Energy>  (61) 
124.1942102318684

>  <Genealogy>  (61) 
O=C(c1cc2c(Cl)cccc2[nH]1)N1C[C@@]2(CCN([C@H]3CCNC3)C2)c2ccccc21 (chirality)
O=C(c1cc2c(Cl)cccc2[nH]1)N1C[C@@]2(CCN([C@H]3CCNC3)C2)c2ccccc21 (3D coordinates assigned)
O=C(c1cc2c(Cl)cccc2[nH]1)N1C[C@@]2(CCN([C@H]3CCNC3)C2)c2ccccc21 (nonaromatic ring conformer: 124.1942102318684 kcal/mol)

>  <smiles>  (61) 
O=C(c1cc2c(Cl)cccc2[nH]1)N1C[C@@]2(CCN(C3CCNC3)C2)c2ccccc21

>  <score_type>  (61) 
oracle

>  <origin>  (61) 
autodockgpu

>  <m_score__min__energy>  (61) 
-8.7400000000000002

>  <m_primary>  (61) 
energy

>  <meeko>  (61) 
{"free_energy": -8.74, "intermolecular_energy": -9.63, "internal_energy": -1.26, "cluster_size": 19, "cluster_id": 1, "rank_in_cluster": 2}

>  <energy>  (61) 
-8.74

>  <cluster_rmsd>  (61) 
0.0

>  <rmsd>  (61) 
271.79

>  <cluster>  (61) 
1

$$$$
KZWACXAMTSGJSU-FYSMJZIKNA-N
     RDKit          3D

 55 60  0  0  0  0  0  0  0  0999 V2000
  138.1840   77.2890  222.6480 O   0  0  0  0  0  0  0  0  0  0  0  0
  139.3050   77.2690  222.0740 C   0  0  0  0  0  0  0  0  0  0  0  0
  139.9820   75.9780  221.8500 C   0  0  0  0  0  0  0  0  0  0  0  0
  141.2010   75.8190  221.1950 C   0  0  0  0  0  0  0  0  0  0  0  0
  141.4340   74.4590  221.1980 C   0  0  0  0  0  0  0  0  0  0  0  0
  142.4960   73.7110  220.6880 C   0  0  0  0  0  0  0  0  0  0  0  0
  143.8550   74.4740  219.8800 Cl  0  0  0  0  0  0  0  0  0  0  0  0
  142.4470   72.3120  220.8410 C   0  0  0  0  0  0  0  0  0  0  0  0
  141.3510   71.7020  221.4920 C   0  0  0  0  0  0  0  0  0  0  0  0
  140.2950   72.4820  221.9940 C   0  0  0  0  0  0  0  0  0  0  0  0
  140.3710   73.8640  221.8290 C   0  0  0  0  0  0  0  0  0  0  0  0
  139.4750   74.7810  222.2290 N   0  0  0  0  0  0  0  0  0  0  0  0
  139.9240   78.5050  221.6960 N   0  0  0  0  0  0  0  0  0  0  0  0
  139.7800   79.1180  220.3760 C   0  0  0  0  0  0  0  0  0  0  0  0
  140.5570   80.4730  220.4490 C   0  0  2  0  0  0  0  0  0  0  0  0
  139.6460   81.6950  220.3720 C   0  0  0  0  0  0  0  0  0  0  0  0
  140.5020   82.7820  219.7380 C   0  0  0  0  0  0  0  0  0  0  0  0
  141.6450   82.1350  219.0690 N   0  0  0  0  0  0  0  0  0  0  0  0
  141.8000   82.5590  217.6520 C   0  0  1  0  0  0  0  0  0  0  0  0
  142.4100   83.9530  217.5290 C   0  0  0  0  0  0  0  0  0  0  0  0
  143.5360   83.8030  216.5200 C   0  0  0  0  0  0  0  0  0  0  0  0
  143.9180   82.3950  216.4960 N   0  0  0  0  0  0  0  0  0  0  0  0
  142.7030   81.6450  216.8070 C   0  0  0  0  0  0  0  0  0  0  0  0
  141.5440   80.6800  219.2960 C   0  0  0  0  0  0  0  0  0  0  0  0
  141.2490   80.3890  221.7870 C   0  0  0  0  0  0  0  0  0  0  0  0
  142.1960   81.2610  222.3420 C   0  0  0  0  0  0  0  0  0  0  0  0
  142.7390   80.9550  223.5980 C   0  0  0  0  0  0  0  0  0  0  0  0
  142.3470   79.7840  224.2730 C   0  0  0  0  0  0  0  0  0  0  0  0
  141.4040   78.9200  223.6980 C   0  0  0  0  0  0  0  0  0  0  0  0
  140.8520   79.2620  222.4570 C   0  0  0  0  0  0  0  0  0  0  0  0
  141.8393   76.6066  220.7681 H   0  0  0  0  0  0  0  0  0  0  0  0
  143.2667   71.6903  220.4515 H   0  0  0  0  0  0  0  0  0  0  0  0
  141.3241   70.6083  221.6067 H   0  0  0  0  0  0  0  0  0  0  0  0
  139.4365   72.0169  222.5006 H   0  0  0  0  0  0  0  0  0  0  0  0
  138.5680   74.5980  222.7130 H   0  0  0  0  0  0  0  0  0  0  0  0
  140.2149   78.4682  219.6023 H   0  0  0  0  0  0  0  0  0  0  0  0
  138.7228   79.2710  220.1136 H   0  0  0  0  0  0  0  0  0  0  0  0
  138.7654   81.4826  219.7479 H   0  0  0  0  0  0  0  0  0  0  0  0
  139.2659   81.9912  221.3608 H   0  0  0  0  0  0  0  0  0  0  0  0
  139.9074   83.3422  219.0013 H   0  0  0  0  0  0  0  0  0  0  0  0
  140.8584   83.4827  220.5074 H   0  0  0  0  0  0  0  0  0  0  0  0
  140.7676   82.5196  217.2744 H   0  0  0  0  0  0  0  0  0  0  0  0
  141.6604   84.6723  217.1675 H   0  0  0  0  0  0  0  0  0  0  0  0
  142.7705   84.3326  218.4964 H   0  0  0  0  0  0  0  0  0  0  0  0
  143.1914   84.1158  215.5233 H   0  0  0  0  0  0  0  0  0  0  0  0
  144.3935   84.4326  216.7996 H   0  0  0  0  0  0  0  0  0  0  0  0
  144.2440   82.1430  215.5340 H   0  0  0  0  0  0  0  0  0  0  0  0
  142.1873   81.3629  215.8772 H   0  0  0  0  0  0  0  0  0  0  0  0
  142.9460   80.7241  217.3573 H   0  0  0  0  0  0  0  0  0  0  0  0
  141.1741   80.1810  218.3882 H   0  0  0  0  0  0  0  0  0  0  0  0
  142.5275   80.2520  219.5401 H   0  0  0  0  0  0  0  0  0  0  0  0
  142.5071   82.1678  221.8026 H   0  0  0  0  0  0  0  0  0  0  0  0
  143.4739   81.6325  224.0573 H   0  0  0  0  0  0  0  0  0  0  0  0
  142.7818   79.5457  225.2549 H   0  0  0  0  0  0  0  0  0  0  0  0
  141.1044   77.9939  224.2104 H   0  0  0  0  0  0  0  0  0  0  0  0
  1  2  2  0
  2  3  1  0
  3  4  2  0
  4  5  1  0
  5  6  2  0
  6  7  1  0
  6  8  1  0
  8  9  2  0
  9 10  1  0
 10 11  2  0
 11 12  1  0
  2 13  1  0
 13 14  1  0
 15 14  1  6
 15 16  1  0
 16 17  1  0
 17 18  1  0
 18 19  1  0
 19 20  1  0
 20 21  1  0
 21 22  1  0
 22 23  1  0
 18 24  1  0
 15 25  1  0
 25 26  2  0
 26 27  1  0
 27 28  2  0
 28 29  1  0
 29 30  2  0
 12  3  1  0
 30 13  1  0
 11  5  1  0
 24 15  1  0
 30 25  1  0
 23 19  1  0
  4 31  1  0
  8 32  1  0
  9 33  1  0
 10 34  1  0
 12 35  1  0
 14 36  1  0
 14 37  1  0
 16 38  1  0
 16 39  1  0
 17 40  1  0
 17 41  1  0
 19 42  1  6
 20 43  1  0
 20 44  1  0
 21 45  1  0
 21 46  1  0
 22 47  1  0
 23 48  1  0
 23 49  1  0
 24 50  1  0
 24 51  1  0
 26 52  1  0
 27 53  1  0
 28 54  1  0
 29 55  1  0
M  END
>  <UniqueID>  (62) 
164

>  <SMILES>  (62) 
O=C(c1cc2c(Cl)cccc2[nH]1)N1C[C@@]2(CCN([C@H]3CCNC3)C2)c2ccccc21

>  <Energy>  (62) 
124.1942102318684

>  <Genealogy>  (62) 
O=C(c1cc2c(Cl)cccc2[nH]1)N1C[C@@]2(CCN([C@H]3CCNC3)C2)c2ccccc21 (chirality)
O=C(c1cc2c(Cl)cccc2[nH]1)N1C[C@@]2(CCN([C@H]3CCNC3)C2)c2ccccc21 (3D coordinates assigned)
O=C(c1cc2c(Cl)cccc2[nH]1)N1C[C@@]2(CCN([C@H]3CCNC3)C2)c2ccccc21 (nonaromatic ring conformer: 124.1942102318684 kcal/mol)

>  <smiles>  (62) 
O=C(c1cc2c(Cl)cccc2[nH]1)N1C[C@@]2(CCN(C3CCNC3)C2)c2ccccc21

>  <score_type>  (62) 
oracle

>  <origin>  (62) 
autodockgpu

>  <m_score__min__energy>  (62) 
-8.7400000000000002

>  <m_primary>  (62) 
energy

>  <meeko>  (62) 
{"free_energy": -8.06, "intermolecular_energy": -8.96, "internal_energy": -1.24, "cluster_size": 1, "cluster_id": 2, "rank_in_cluster": 1}

>  <energy>  (62) 
-8.74

>  <cluster_rmsd>  (62) 
0.03

>  <rmsd>  (62) 
271.78

>  <cluster>  (62) 
1

$$$$
KZWACXAMTSGJSU-FYSMJZIKNA-N
     RDKit          3D

 55 60  0  0  0  0  0  0  0  0999 V2000
  140.9340   71.5730  220.9430 O   0  0  0  0  0  0  0  0  0  0  0  0
  140.3990   72.1150  221.9470 C   0  0  0  0  0  0  0  0  0  0  0  0
  140.2550   71.3430  223.1950 C   0  0  0  0  0  0  0  0  0  0  0  0
  140.6000   71.8040  224.4640 C   0  0  0  0  0  0  0  0  0  0  0  0
  140.3190   70.7550  225.3150 C   0  0  0  0  0  0  0  0  0  0  0  0
  140.4600   70.6360  226.6990 C   0  0  0  0  0  0  0  0  0  0  0  0
  141.0790   71.9550  227.6780 Cl  0  0  0  0  0  0  0  0  0  0  0  0
  140.0870   69.4150  227.2930 C   0  0  0  0  0  0  0  0  0  0  0  0
  139.5900   68.3560  226.5010 C   0  0  0  0  0  0  0  0  0  0  0  0
  139.4610   68.5060  225.1090 C   0  0  0  0  0  0  0  0  0  0  0  0
  139.8370   69.7250  224.5480 C   0  0  0  0  0  0  0  0  0  0  0  0
  139.7960   70.0700  223.2510 N   0  0  0  0  0  0  0  0  0  0  0  0
  139.8960   73.4530  221.8410 N   0  0  0  0  0  0  0  0  0  0  0  0
  140.7450   74.6320  221.6850 C   0  0  0  0  0  0  0  0  0  0  0  0
  139.7670   75.8440  221.5370 C   0  0  2  0  0  0  0  0  0  0  0  0
  139.7940   76.4730  220.1460 C   0  0  0  0  0  0  0  0  0  0  0  0
  139.4300   77.9330  220.3710 C   0  0  0  0  0  0  0  0  0  0  0  0
  139.6380   78.2450  221.7970 N   0  0  0  0  0  0  0  0  0  0  0  0
  140.4900   79.4460  222.0070 C   0  0  1  0  0  0  0  0  0  0  0  0
  140.6900   79.7620  223.4870 C   0  0  0  0  0  0  0  0  0  0  0  0
  142.1880   79.9520  223.6520 C   0  0  0  0  0  0  0  0  0  0  0  0
  142.8400   79.2620  222.5430 N   0  0  0  0  0  0  0  0  0  0  0  0
  141.9070   79.3330  221.4210 C   0  0  0  0  0  0  0  0  0  0  0  0
  140.0880   77.0120  222.4720 C   0  0  0  0  0  0  0  0  0  0  0  0
  138.4230   75.2260  221.8330 C   0  0  0  0  0  0  0  0  0  0  0  0
  137.1800   75.8570  221.9800 C   0  0  0  0  0  0  0  0  0  0  0  0
  136.0610   75.0740  222.2990 C   0  0  0  0  0  0  0  0  0  0  0  0
  136.1970   73.6860  222.4830 C   0  0  0  0  0  0  0  0  0  0  0  0
  137.4500   73.0730  222.3400 C   0  0  0  0  0  0  0  0  0  0  0  0
  138.5480   73.8700  221.9900 C   0  0  0  0  0  0  0  0  0  0  0  0
  141.0079   72.7904  224.7296 H   0  0  0  0  0  0  0  0  0  0  0  0
  140.1833   69.2849  228.3810 H   0  0  0  0  0  0  0  0  0  0  0  0
  139.3018   67.4071  226.9769 H   0  0  0  0  0  0  0  0  0  0  0  0
  139.0757   67.6876  224.4830 H   0  0  0  0  0  0  0  0  0  0  0  0
  139.4900   69.4680  222.4530 H   0  0  0  0  0  0  0  0  0  0  0  0
  141.3858   74.7625  222.5695 H   0  0  0  0  0  0  0  0  0  0  0  0
  141.4105   74.5397  220.8140 H   0  0  0  0  0  0  0  0  0  0  0  0
  140.7968   76.3879  219.7019 H   0  0  0  0  0  0  0  0  0  0  0  0
  139.1008   75.9750  219.4522 H   0  0  0  0  0  0  0  0  0  0  0  0
  140.0719   78.5766  219.7515 H   0  0  0  0  0  0  0  0  0  0  0  0
  138.3808   78.1104  220.0923 H   0  0  0  0  0  0  0  0  0  0  0  0
  139.9288   80.2343  221.4839 H   0  0  0  0  0  0  0  0  0  0  0  0
  140.1516   80.6810  223.7619 H   0  0  0  0  0  0  0  0  0  0  0  0
  140.3020   78.9625  224.1353 H   0  0  0  0  0  0  0  0  0  0  0  0
  142.4363   81.0233  223.6264 H   0  0  0  0  0  0  0  0  0  0  0  0
  142.5274   79.5453  224.6160 H   0  0  0  0  0  0  0  0  0  0  0  0
  143.7220   79.7690  222.2930 H   0  0  0  0  0  0  0  0  0  0  0  0
  142.1294   80.2150  220.8025 H   0  0  0  0  0  0  0  0  0  0  0  0
  141.9944   78.4388  220.7863 H   0  0  0  0  0  0  0  0  0  0  0  0
  141.1709   77.0584  222.6597 H   0  0  0  0  0  0  0  0  0  0  0  0
  139.5812   76.8887  223.4405 H   0  0  0  0  0  0  0  0  0  0  0  0
  137.0841   76.9448  221.8478 H   0  0  0  0  0  0  0  0  0  0  0  0
  135.0736   75.5469  222.4057 H   0  0  0  0  0  0  0  0  0  0  0  0
  135.3165   73.0789  222.7402 H   0  0  0  0  0  0  0  0  0  0  0  0
  137.5683   71.9910  222.4990 H   0  0  0  0  0  0  0  0  0  0  0  0
  1  2  2  0
  2  3  1  0
  3  4  2  0
  4  5  1  0
  5  6  2  0
  6  7  1  0
  6  8  1  0
  8  9  2  0
  9 10  1  0
 10 11  2  0
 11 12  1  0
  2 13  1  0
 13 14  1  0
 15 14  1  6
 15 16  1  0
 16 17  1  0
 17 18  1  0
 18 19  1  0
 19 20  1  0
 20 21  1  0
 21 22  1  0
 22 23  1  0
 18 24  1  0
 15 25  1  0
 25 26  2  0
 26 27  1  0
 27 28  2  0
 28 29  1  0
 29 30  2  0
 12  3  1  0
 30 13  1  0
 11  5  1  0
 24 15  1  0
 30 25  1  0
 23 19  1  0
  4 31  1  0
  8 32  1  0
  9 33  1  0
 10 34  1  0
 12 35  1  0
 14 36  1  0
 14 37  1  0
 16 38  1  0
 16 39  1  0
 17 40  1  0
 17 41  1  0
 19 42  1  6
 20 43  1  0
 20 44  1  0
 21 45  1  0
 21 46  1  0
 22 47  1  0
 23 48  1  0
 23 49  1  0
 24 50  1  0
 24 51  1  0
 26 52  1  0
 27 53  1  0
 28 54  1  0
 29 55  1  0
M  END
>  <UniqueID>  (63) 
164

>  <SMILES>  (63) 
O=C(c1cc2c(Cl)cccc2[nH]1)N1C[C@@]2(CCN([C@H]3CCNC3)C2)c2ccccc21

>  <Energy>  (63) 
124.1942102318684

>  <Genealogy>  (63) 
O=C(c1cc2c(Cl)cccc2[nH]1)N1C[C@@]2(CCN([C@H]3CCNC3)C2)c2ccccc21 (chirality)
O=C(c1cc2c(Cl)cccc2[nH]1)N1C[C@@]2(CCN([C@H]3CCNC3)C2)c2ccccc21 (3D coordinates assigned)
O=C(c1cc2c(Cl)cccc2[nH]1)N1C[C@@]2(CCN([C@H]3CCNC3)C2)c2ccccc21 (nonaromatic ring conformer: 124.1942102318684 kcal/mol)

>  <smiles>  (63) 
O=C(c1cc2c(Cl)cccc2[nH]1)N1C[C@@]2(CCN(C3CCNC3)C2)c2ccccc21

>  <score_type>  (63) 
oracle

>  <origin>  (63) 
autodockgpu

>  <m_score__min__energy>  (63) 
-8.7400000000000002

>  <m_primary>  (63) 
energy

>  <meeko>  (63) 
{"free_energy": -8.73, "intermolecular_energy": -9.63, "internal_energy": -1.26, "cluster_size": 19, "cluster_id": 1, "rank_in_cluster": 8}

>  <energy>  (63) 
-8.74

>  <cluster_rmsd>  (63) 
0.02

>  <rmsd>  (63) 
271.78

>  <cluster>  (63) 
1

$$$$
KZWACXAMTSGJSU-FYSMJZIKNA-N
     RDKit          3D

 55 60  0  0  0  0  0  0  0  0999 V2000
  141.1340   71.7430  221.0170 O   0  0  0  0  0  0  0  0  0  0  0  0
  140.5190   72.2550  221.9900 C   0  0  0  0  0  0  0  0  0  0  0  0
  140.3030   71.4570  223.2110 C   0  0  0  0  0  0  0  0  0  0  0  0
  140.6360   71.8640  224.5010 C   0  0  0  0  0  0  0  0  0  0  0  0
  140.2810   70.8070  225.3130 C   0  0  0  0  0  0  0  0  0  0  0  0
  140.3780   70.6420  226.6960 C   0  0  0  0  0  0  0  0  0  0  0  0
  141.0340   71.9000  227.7300 Cl  0  0  0  0  0  0  0  0  0  0  0  0
  139.9290   69.4240  227.2440 C   0  0  0  0  0  0  0  0  0  0  0  0
  139.4020   68.4140  226.4090 C   0  0  0  0  0  0  0  0  0  0  0  0
  139.3190   68.6100  225.0190 C   0  0  0  0  0  0  0  0  0  0  0  0
  139.7690   69.8240  224.5040 C   0  0  0  0  0  0  0  0  0  0  0  0
  139.7800   70.2070  223.2170 N   0  0  0  0  0  0  0  0  0  0  0  0
  139.9970   73.5850  221.8730 N   0  0  0  0  0  0  0  0  0  0  0  0
  140.8320   74.7800  221.7560 C   0  0  0  0  0  0  0  0  0  0  0  0
  139.8390   75.9760  221.5770 C   0  0  2  0  0  0  0  0  0  0  0  0
  139.9070   76.6130  220.1930 C   0  0  0  0  0  0  0  0  0  0  0  0
  139.5100   78.0660  220.4120 C   0  0  0  0  0  0  0  0  0  0  0  0
  139.6590   78.3720  221.8470 N   0  0  0  0  0  0  0  0  0  0  0  0
  140.4820   79.5860  222.0950 C   0  0  1  0  0  0  0  0  0  0  0  0
  140.8400   79.7500  223.5710 C   0  0  0  0  0  0  0  0  0  0  0  0
  142.3380   79.9980  223.5880 C   0  0  0  0  0  0  0  0  0  0  0  0
  142.8840   79.4680  222.3430 N   0  0  0  0  0  0  0  0  0  0  0  0
  141.8250   79.6110  221.3470 C   0  0  0  0  0  0  0  0  0  0  0  0
  140.1050   77.1430  222.5320 C   0  0  0  0  0  0  0  0  0  0  0  0
  138.4960   75.3330  221.8190 C   0  0  0  0  0  0  0  0  0  0  0  0
  137.2380   75.9410  221.9220 C   0  0  0  0  0  0  0  0  0  0  0  0
  136.1200   75.1380  222.1950 C   0  0  0  0  0  0  0  0  0  0  0  0
  136.2730   73.7510  222.3760 C   0  0  0  0  0  0  0  0  0  0  0  0
  137.5410   73.1610  222.2770 C   0  0  0  0  0  0  0  0  0  0  0  0
  138.6380   73.9780  221.9730 C   0  0  0  0  0  0  0  0  0  0  0  0
  141.0848   72.8209  224.8060 H   0  0  0  0  0  0  0  0  0  0  0  0
  139.9893   69.2585  228.3298 H   0  0  0  0  0  0  0  0  0  0  0  0
  139.0542   67.4677  226.8490 H   0  0  0  0  0  0  0  0  0  0  0  0
  138.9118   67.8297  224.3592 H   0  0  0  0  0  0  0  0  0  0  0  0
  139.4670   69.6440  222.3950 H   0  0  0  0  0  0  0  0  0  0  0  0
  141.4361   74.9161  222.6652 H   0  0  0  0  0  0  0  0  0  0  0  0
  141.5322   74.7043  220.9110 H   0  0  0  0  0  0  0  0  0  0  0  0
  140.9269   76.5474  219.7862 H   0  0  0  0  0  0  0  0  0  0  0  0
  139.2485   76.1076  219.4712 H   0  0  0  0  0  0  0  0  0  0  0  0
  140.1639   78.7240  219.8209 H   0  0  0  0  0  0  0  0  0  0  0  0
  138.4693   78.2280  220.0945 H   0  0  0  0  0  0  0  0  0  0  0  0
  139.8336   80.3957  221.7291 H   0  0  0  0  0  0  0  0  0  0  0  0
  140.3018   80.6048  224.0065 H   0  0  0  0  0  0  0  0  0  0  0  0
  140.5612   78.8665  224.1640 H   0  0  0  0  0  0  0  0  0  0  0  0
  142.5393   81.0772  223.6571 H   0  0  0  0  0  0  0  0  0  0  0  0
  142.8025   79.5062  224.4554 H   0  0  0  0  0  0  0  0  0  0  0  0
  143.7100   80.0440  222.0560 H   0  0  0  0  0  0  0  0  0  0  0  0
  141.9391   80.5651  220.8115 H   0  0  0  0  0  0  0  0  0  0  0  0
  141.8735   78.7962  220.6097 H   0  0  0  0  0  0  0  0  0  0  0  0
  141.1791   77.2066  222.7607 H   0  0  0  0  0  0  0  0  0  0  0  0
  139.5654   77.0046  223.4805 H   0  0  0  0  0  0  0  0  0  0  0  0
  137.1287   77.0277  221.7913 H   0  0  0  0  0  0  0  0  0  0  0  0
  135.1216   75.5940  222.2677 H   0  0  0  0  0  0  0  0  0  0  0  0
  135.3942   73.1271  222.5961 H   0  0  0  0  0  0  0  0  0  0  0  0
  137.6718   72.0802  222.4345 H   0  0  0  0  0  0  0  0  0  0  0  0
  1  2  2  0
  2  3  1  0
  3  4  2  0
  4  5  1  0
  5  6  2  0
  6  7  1  0
  6  8  1  0
  8  9  2  0
  9 10  1  0
 10 11  2  0
 11 12  1  0
  2 13  1  0
 13 14  1  0
 15 14  1  6
 15 16  1  0
 16 17  1  0
 17 18  1  0
 18 19  1  0
 19 20  1  0
 20 21  1  0
 21 22  1  0
 22 23  1  0
 18 24  1  0
 15 25  1  0
 25 26  2  0
 26 27  1  0
 27 28  2  0
 28 29  1  0
 29 30  2  0
 12  3  1  0
 30 13  1  0
 11  5  1  0
 24 15  1  0
 30 25  1  0
 23 19  1  0
  4 31  1  0
  8 32  1  0
  9 33  1  0
 10 34  1  0
 12 35  1  0
 14 36  1  0
 14 37  1  0
 16 38  1  0
 16 39  1  0
 17 40  1  0
 17 41  1  0
 19 42  1  6
 20 43  1  0
 20 44  1  0
 21 45  1  0
 21 46  1  0
 22 47  1  0
 23 48  1  0
 23 49  1  0
 24 50  1  0
 24 51  1  0
 26 52  1  0
 27 53  1  0
 28 54  1  0
 29 55  1  0
M  END
>  <UniqueID>  (64) 
164

>  <SMILES>  (64) 
O=C(c1cc2c(Cl)cccc2[nH]1)N1C[C@@]2(CCN([C@H]3CCNC3)C2)c2ccccc21

>  <Energy>  (64) 
124.1942102318684

>  <Genealogy>  (64) 
O=C(c1cc2c(Cl)cccc2[nH]1)N1C[C@@]2(CCN([C@H]3CCNC3)C2)c2ccccc21 (chirality)
O=C(c1cc2c(Cl)cccc2[nH]1)N1C[C@@]2(CCN([C@H]3CCNC3)C2)c2ccccc21 (3D coordinates assigned)
O=C(c1cc2c(Cl)cccc2[nH]1)N1C[C@@]2(CCN([C@H]3CCNC3)C2)c2ccccc21 (nonaromatic ring conformer: 124.1942102318684 kcal/mol)

>  <smiles>  (64) 
O=C(c1cc2c(Cl)cccc2[nH]1)N1C[C@@]2(CCN(C3CCNC3)C2)c2ccccc21

>  <score_type>  (64) 
oracle

>  <origin>  (64) 
autodockgpu

>  <m_score__min__energy>  (64) 
-8.7400000000000002

>  <m_primary>  (64) 
energy

>  <meeko>  (64) 
{"free_energy": -8.7, "intermolecular_energy": -9.59, "internal_energy": -1.26, "cluster_size": 19, "cluster_id": 1, "rank_in_cluster": 17}

>  <energy>  (64) 
-8.74

>  <cluster_rmsd>  (64) 
0.02

>  <rmsd>  (64) 
271.79

>  <cluster>  (64) 
1

$$$$
KZWACXAMTSGJSU-FYSMJZIKNA-N
     RDKit          3D

 55 60  0  0  0  0  0  0  0  0999 V2000
  140.9710   71.5700  220.9240 O   0  0  0  0  0  0  0  0  0  0  0  0
  140.4230   72.1090  221.9240 C   0  0  0  0  0  0  0  0  0  0  0  0
  140.2700   71.3360  223.1700 C   0  0  0  0  0  0  0  0  0  0  0  0
  140.6120   71.7930  224.4410 C   0  0  0  0  0  0  0  0  0  0  0  0
  140.3230   70.7440  225.2890 C   0  0  0  0  0  0  0  0  0  0  0  0
  140.4570   70.6220  226.6730 C   0  0  0  0  0  0  0  0  0  0  0  0
  141.0790   71.9360  227.6570 Cl  0  0  0  0  0  0  0  0  0  0  0  0
  140.0760   69.4020  227.2630 C   0  0  0  0  0  0  0  0  0  0  0  0
  139.5760   68.3470  226.4680 C   0  0  0  0  0  0  0  0  0  0  0  0
  139.4540   68.5000  225.0760 C   0  0  0  0  0  0  0  0  0  0  0  0
  139.8380   69.7180  224.5180 C   0  0  0  0  0  0  0  0  0  0  0  0
  139.8040   70.0650  223.2210 N   0  0  0  0  0  0  0  0  0  0  0  0
  139.9150   73.4450  221.8130 N   0  0  0  0  0  0  0  0  0  0  0  0
  140.7600   74.6260  221.6470 C   0  0  0  0  0  0  0  0  0  0  0  0
  139.7780   75.8340  221.4970 C   0  0  2  0  0  0  0  0  0  0  0  0
  139.7960   76.4560  220.1040 C   0  0  0  0  0  0  0  0  0  0  0  0
  139.4280   77.9160  220.3230 C   0  0  0  0  0  0  0  0  0  0  0  0
  139.6420   78.2360  221.7460 N   0  0  0  0  0  0  0  0  0  0  0  0
  140.4910   79.4410  221.9460 C   0  0  1  0  0  0  0  0  0  0  0  0
  140.6850   79.7730  223.4230 C   0  0  0  0  0  0  0  0  0  0  0  0
  142.1820   79.9680  223.5910 C   0  0  0  0  0  0  0  0  0  0  0  0
  142.8400   79.2670  222.4930 N   0  0  0  0  0  0  0  0  0  0  0  0
  141.9110   79.3240  221.3670 C   0  0  0  0  0  0  0  0  0  0  0  0
  140.1000   77.0080  222.4260 C   0  0  0  0  0  0  0  0  0  0  0  0
  138.4370   75.2140  221.8030 C   0  0  0  0  0  0  0  0  0  0  0  0
  137.1930   75.8410  221.9530 C   0  0  0  0  0  0  0  0  0  0  0  0
  136.0780   75.0560  222.2810 C   0  0  0  0  0  0  0  0  0  0  0  0
  136.2190   73.6700  222.4720 C   0  0  0  0  0  0  0  0  0  0  0  0
  137.4730   73.0600  222.3250 C   0  0  0  0  0  0  0  0  0  0  0  0
  138.5670   73.8590  221.9660 C   0  0  0  0  0  0  0  0  0  0  0  0
  141.0233   72.7771  224.7100 H   0  0  0  0  0  0  0  0  0  0  0  0
  140.1684   69.2693  228.3511 H   0  0  0  0  0  0  0  0  0  0  0  0
  139.2801   67.3992  226.9414 H   0  0  0  0  0  0  0  0  0  0  0  0
  139.0677   67.6843  224.4471 H   0  0  0  0  0  0  0  0  0  0  0  0
  139.4990   69.4660  222.4220 H   0  0  0  0  0  0  0  0  0  0  0  0
  141.4043   74.7631  222.5280 H   0  0  0  0  0  0  0  0  0  0  0  0
  141.4219   74.5311  220.7736 H   0  0  0  0  0  0  0  0  0  0  0  0
  140.7969   76.3722  219.6555 H   0  0  0  0  0  0  0  0  0  0  0  0
  139.1009   75.9522  219.4163 H   0  0  0  0  0  0  0  0  0  0  0  0
  140.0646   78.5585  219.6969 H   0  0  0  0  0  0  0  0  0  0  0  0
  138.3768   78.0884  220.0485 H   0  0  0  0  0  0  0  0  0  0  0  0
  139.9304   80.2224  221.4121 H   0  0  0  0  0  0  0  0  0  0  0  0
  140.1436   80.6936  223.6863 H   0  0  0  0  0  0  0  0  0  0  0  0
  140.2964   78.9796  224.0784 H   0  0  0  0  0  0  0  0  0  0  0  0
  142.4280   81.0395  223.5539 H   0  0  0  0  0  0  0  0  0  0  0  0
  142.5185   79.5728  224.5608 H   0  0  0  0  0  0  0  0  0  0  0  0
  143.7210   79.7730  222.2410 H   0  0  0  0  0  0  0  0  0  0  0  0
  142.1343   80.1995  220.7396 H   0  0  0  0  0  0  0  0  0  0  0  0
  142.0023   78.4228  220.7429 H   0  0  0  0  0  0  0  0  0  0  0  0
  141.1836   77.0591  222.6083 H   0  0  0  0  0  0  0  0  0  0  0  0
  139.5991   76.8878  223.3979 H   0  0  0  0  0  0  0  0  0  0  0  0
  137.0928   76.9279  221.8162 H   0  0  0  0  0  0  0  0  0  0  0  0
  135.0895   75.5263  222.3893 H   0  0  0  0  0  0  0  0  0  0  0  0
  135.3419   73.0617  222.7378 H   0  0  0  0  0  0  0  0  0  0  0  0
  137.5953   71.9790  222.4877 H   0  0  0  0  0  0  0  0  0  0  0  0
  1  2  2  0
  2  3  1  0
  3  4  2  0
  4  5  1  0
  5  6  2  0
  6  7  1  0
  6  8  1  0
  8  9  2  0
  9 10  1  0
 10 11  2  0
 11 12  1  0
  2 13  1  0
 13 14  1  0
 15 14  1  6
 15 16  1  0
 16 17  1  0
 17 18  1  0
 18 19  1  0
 19 20  1  0
 20 21  1  0
 21 22  1  0
 22 23  1  0
 18 24  1  0
 15 25  1  0
 25 26  2  0
 26 27  1  0
 27 28  2  0
 28 29  1  0
 29 30  2  0
 12  3  1  0
 30 13  1  0
 11  5  1  0
 24 15  1  0
 30 25  1  0
 23 19  1  0
  4 31  1  0
  8 32  1  0
  9 33  1  0
 10 34  1  0
 12 35  1  0
 14 36  1  0
 14 37  1  0
 16 38  1  0
 16 39  1  0
 17 40  1  0
 17 41  1  0
 19 42  1  6
 20 43  1  0
 20 44  1  0
 21 45  1  0
 21 46  1  0
 22 47  1  0
 23 48  1  0
 23 49  1  0
 24 50  1  0
 24 51  1  0
 26 52  1  0
 27 53  1  0
 28 54  1  0
 29 55  1  0
M  END
>  <UniqueID>  (65) 
164

>  <SMILES>  (65) 
O=C(c1cc2c(Cl)cccc2[nH]1)N1C[C@@]2(CCN([C@H]3CCNC3)C2)c2ccccc21

>  <Energy>  (65) 
124.1942102318684

>  <Genealogy>  (65) 
O=C(c1cc2c(Cl)cccc2[nH]1)N1C[C@@]2(CCN([C@H]3CCNC3)C2)c2ccccc21 (chirality)
O=C(c1cc2c(Cl)cccc2[nH]1)N1C[C@@]2(CCN([C@H]3CCNC3)C2)c2ccccc21 (3D coordinates assigned)
O=C(c1cc2c(Cl)cccc2[nH]1)N1C[C@@]2(CCN([C@H]3CCNC3)C2)c2ccccc21 (nonaromatic ring conformer: 124.1942102318684 kcal/mol)

>  <smiles>  (65) 
O=C(c1cc2c(Cl)cccc2[nH]1)N1C[C@@]2(CCN(C3CCNC3)C2)c2ccccc21

>  <score_type>  (65) 
oracle

>  <origin>  (65) 
autodockgpu

>  <m_score__min__energy>  (65) 
-8.7400000000000002

>  <m_primary>  (65) 
energy

>  <meeko>  (65) 
{"free_energy": -8.73, "intermolecular_energy": -9.63, "internal_energy": -1.26, "cluster_size": 19, "cluster_id": 1, "rank_in_cluster": 9}

>  <energy>  (65) 
-8.73

>  <cluster_rmsd>  (65) 
0.02

>  <rmsd>  (65) 
271.78

>  <cluster>  (65) 
1

$$$$
KZWACXAMTSGJSU-FYSMJZIKNA-N
     RDKit          3D

 55 60  0  0  0  0  0  0  0  0999 V2000
  141.2600   71.8470  221.0340 O   0  0  0  0  0  0  0  0  0  0  0  0
  140.5960   72.3390  221.9850 C   0  0  0  0  0  0  0  0  0  0  0  0
  140.3420   71.5250  223.1880 C   0  0  0  0  0  0  0  0  0  0  0  0
  140.6840   71.8920  224.4880 C   0  0  0  0  0  0  0  0  0  0  0  0
  140.2830   70.8340  225.2760 C   0  0  0  0  0  0  0  0  0  0  0  0
  140.3660   70.6370  226.6560 C   0  0  0  0  0  0  0  0  0  0  0  0
  141.0670   71.8460  227.7180 Cl  0  0  0  0  0  0  0  0  0  0  0  0
  139.8670   69.4270  227.1770 C   0  0  0  0  0  0  0  0  0  0  0  0
  139.3050   68.4560  226.3190 C   0  0  0  0  0  0  0  0  0  0  0  0
  139.2370   68.6830  224.9330 C   0  0  0  0  0  0  0  0  0  0  0  0
  139.7380   69.8890  224.4450 C   0  0  0  0  0  0  0  0  0  0  0  0
  139.7700   70.2970  223.1660 N   0  0  0  0  0  0  0  0  0  0  0  0
  140.0560   73.6610  221.8580 N   0  0  0  0  0  0  0  0  0  0  0  0
  140.8750   74.8640  221.7140 C   0  0  0  0  0  0  0  0  0  0  0  0
  139.8660   76.0460  221.5340 C   0  0  2  0  0  0  0  0  0  0  0  0
  139.9080   76.6660  220.1400 C   0  0  0  0  0  0  0  0  0  0  0  0
  139.4960   78.1170  220.3460 C   0  0  0  0  0  0  0  0  0  0  0  0
  139.6610   78.4430  221.7750 N   0  0  0  0  0  0  0  0  0  0  0  0
  140.4730   79.6700  221.9960 C   0  0  1  0  0  0  0  0  0  0  0  0
  140.7650   79.9110  223.4760 C   0  0  0  0  0  0  0  0  0  0  0  0
  142.2610   80.1620  223.5470 C   0  0  0  0  0  0  0  0  0  0  0  0
  142.8620   79.5690  222.3570 N   0  0  0  0  0  0  0  0  0  0  0  0
  141.8480   79.6580  221.3080 C   0  0  0  0  0  0  0  0  0  0  0  0
  140.1310   77.2290  222.4690 C   0  0  0  0  0  0  0  0  0  0  0  0
  138.5340   75.3910  221.8030 C   0  0  0  0  0  0  0  0  0  0  0  0
  137.2700   75.9850  221.9160 C   0  0  0  0  0  0  0  0  0  0  0  0
  136.1660   75.1720  222.2140 C   0  0  0  0  0  0  0  0  0  0  0  0
  136.3380   73.7900  222.4110 C   0  0  0  0  0  0  0  0  0  0  0  0
  137.6120   73.2140  222.3010 C   0  0  0  0  0  0  0  0  0  0  0  0
  138.6940   74.0400  221.9710 C   0  0  0  0  0  0  0  0  0  0  0  0
  141.1688   72.8238  224.8148 H   0  0  0  0  0  0  0  0  0  0  0  0
  139.9154   69.2371  228.2594 H   0  0  0  0  0  0  0  0  0  0  0  0
  138.9177   67.5155  226.7380 H   0  0  0  0  0  0  0  0  0  0  0  0
  138.8025   67.9331  224.2556 H   0  0  0  0  0  0  0  0  0  0  0  0
  139.4400   69.7640  222.3310 H   0  0  0  0  0  0  0  0  0  0  0  0
  141.4901   75.0187  222.6127 H   0  0  0  0  0  0  0  0  0  0  0  0
  141.5639   74.7855  220.8601 H   0  0  0  0  0  0  0  0  0  0  0  0
  140.9232   76.6075  219.7205 H   0  0  0  0  0  0  0  0  0  0  0  0
  139.2465   76.1433  219.4334 H   0  0  0  0  0  0  0  0  0  0  0  0
  140.1335   78.7753  219.7376 H   0  0  0  0  0  0  0  0  0  0  0  0
  138.4492   78.2624  220.0409 H   0  0  0  0  0  0  0  0  0  0  0  0
  139.8422   80.4587  221.5602 H   0  0  0  0  0  0  0  0  0  0  0  0
  140.2085   80.7864  223.8421 H   0  0  0  0  0  0  0  0  0  0  0  0
  140.4594   79.0589  224.1010 H   0  0  0  0  0  0  0  0  0  0  0  0
  142.4597   81.2437  223.5689 H   0  0  0  0  0  0  0  0  0  0  0  0
  142.6858   79.7165  224.4586 H   0  0  0  0  0  0  0  0  0  0  0  0
  143.6990   80.1310  222.0770 H   0  0  0  0  0  0  0  0  0  0  0  0
  141.9866   80.5829  220.7289 H   0  0  0  0  0  0  0  0  0  0  0  0
  141.9287   78.8059  220.6171 H   0  0  0  0  0  0  0  0  0  0  0  0
  141.2073   77.3085  222.6815 H   0  0  0  0  0  0  0  0  0  0  0  0
  139.6060   77.0969  223.4266 H   0  0  0  0  0  0  0  0  0  0  0  0
  137.1455   77.0686  221.7737 H   0  0  0  0  0  0  0  0  0  0  0  0
  135.1631   75.6167  222.2938 H   0  0  0  0  0  0  0  0  0  0  0  0
  135.4701   73.1587  222.6522 H   0  0  0  0  0  0  0  0  0  0  0  0
  137.7583   72.1370  222.4702 H   0  0  0  0  0  0  0  0  0  0  0  0
  1  2  2  0
  2  3  1  0
  3  4  2  0
  4  5  1  0
  5  6  2  0
  6  7  1  0
  6  8  1  0
  8  9  2  0
  9 10  1  0
 10 11  2  0
 11 12  1  0
  2 13  1  0
 13 14  1  0
 15 14  1  6
 15 16  1  0
 16 17  1  0
 17 18  1  0
 18 19  1  0
 19 20  1  0
 20 21  1  0
 21 22  1  0
 22 23  1  0
 18 24  1  0
 15 25  1  0
 25 26  2  0
 26 27  1  0
 27 28  2  0
 28 29  1  0
 29 30  2  0
 12  3  1  0
 30 13  1  0
 11  5  1  0
 24 15  1  0
 30 25  1  0
 23 19  1  0
  4 31  1  0
  8 32  1  0
  9 33  1  0
 10 34  1  0
 12 35  1  0
 14 36  1  0
 14 37  1  0
 16 38  1  0
 16 39  1  0
 17 40  1  0
 17 41  1  0
 19 42  1  6
 20 43  1  0
 20 44  1  0
 21 45  1  0
 21 46  1  0
 22 47  1  0
 23 48  1  0
 23 49  1  0
 24 50  1  0
 24 51  1  0
 26 52  1  0
 27 53  1  0
 28 54  1  0
 29 55  1  0
M  END
>  <UniqueID>  (66) 
164

>  <SMILES>  (66) 
O=C(c1cc2c(Cl)cccc2[nH]1)N1C[C@@]2(CCN([C@H]3CCNC3)C2)c2ccccc21

>  <Energy>  (66) 
124.1942102318684

>  <Genealogy>  (66) 
O=C(c1cc2c(Cl)cccc2[nH]1)N1C[C@@]2(CCN([C@H]3CCNC3)C2)c2ccccc21 (chirality)
O=C(c1cc2c(Cl)cccc2[nH]1)N1C[C@@]2(CCN([C@H]3CCNC3)C2)c2ccccc21 (3D coordinates assigned)
O=C(c1cc2c(Cl)cccc2[nH]1)N1C[C@@]2(CCN([C@H]3CCNC3)C2)c2ccccc21 (nonaromatic ring conformer: 124.1942102318684 kcal/mol)

>  <smiles>  (66) 
O=C(c1cc2c(Cl)cccc2[nH]1)N1C[C@@]2(CCN(C3CCNC3)C2)c2ccccc21

>  <score_type>  (66) 
oracle

>  <origin>  (66) 
autodockgpu

>  <m_score__min__energy>  (66) 
-8.7400000000000002

>  <m_primary>  (66) 
energy

>  <meeko>  (66) 
{"free_energy": -8.69, "intermolecular_energy": -9.58, "internal_energy": -1.25, "cluster_size": 19, "cluster_id": 1, "rank_in_cluster": 18}

>  <energy>  (66) 
-8.73

>  <cluster_rmsd>  (66) 
0.03

>  <rmsd>  (66) 
271.78

>  <cluster>  (66) 
1

$$$$
KZWACXAMTSGJSU-FYSMJZIKNA-N
     RDKit          3D

 55 60  0  0  0  0  0  0  0  0999 V2000
  141.0000   71.5550  220.9630 O   0  0  0  0  0  0  0  0  0  0  0  0
  140.4410   72.0930  221.9570 C   0  0  0  0  0  0  0  0  0  0  0  0
  140.2810   71.3220  223.2040 C   0  0  0  0  0  0  0  0  0  0  0  0
  140.6200   71.7790  224.4750 C   0  0  0  0  0  0  0  0  0  0  0  0
  140.3240   70.7320  225.3230 C   0  0  0  0  0  0  0  0  0  0  0  0
  140.4530   70.6110  226.7080 C   0  0  0  0  0  0  0  0  0  0  0  0
  141.0750   71.9240  227.6930 Cl  0  0  0  0  0  0  0  0  0  0  0  0
  140.0650   69.3930  227.2980 C   0  0  0  0  0  0  0  0  0  0  0  0
  139.5650   68.3380  226.5020 C   0  0  0  0  0  0  0  0  0  0  0  0
  139.4490   68.4900  225.1090 C   0  0  0  0  0  0  0  0  0  0  0  0
  139.8390   69.7070  224.5520 C   0  0  0  0  0  0  0  0  0  0  0  0
  139.8100   70.0530  223.2550 N   0  0  0  0  0  0  0  0  0  0  0  0
  139.9270   73.4260  221.8390 N   0  0  0  0  0  0  0  0  0  0  0  0
  140.7680   74.6120  221.6900 C   0  0  0  0  0  0  0  0  0  0  0  0
  139.7820   75.8150  221.5240 C   0  0  2  0  0  0  0  0  0  0  0  0
  139.8210   76.4380  220.1320 C   0  0  0  0  0  0  0  0  0  0  0  0
  139.4410   77.8960  220.3460 C   0  0  0  0  0  0  0  0  0  0  0  0
  139.6270   78.2150  221.7730 N   0  0  0  0  0  0  0  0  0  0  0  0
  140.4660   79.4250  221.9900 C   0  0  1  0  0  0  0  0  0  0  0  0
  140.6750   79.7260  223.4720 C   0  0  0  0  0  0  0  0  0  0  0  0
  142.1720   79.9330  223.6250 C   0  0  0  0  0  0  0  0  0  0  0  0
  142.8230   79.2650  222.5040 N   0  0  0  0  0  0  0  0  0  0  0  0
  141.8800   79.3370  221.3900 C   0  0  0  0  0  0  0  0  0  0  0  0
  140.0800   76.9890  222.4590 C   0  0  0  0  0  0  0  0  0  0  0  0
  138.4390   75.1860  221.8050 C   0  0  0  0  0  0  0  0  0  0  0  0
  137.1890   75.8060  221.9330 C   0  0  0  0  0  0  0  0  0  0  0  0
  136.0720   75.0140  222.2410 C   0  0  0  0  0  0  0  0  0  0  0  0
  136.2180   73.6280  222.4320 C   0  0  0  0  0  0  0  0  0  0  0  0
  137.4790   73.0270  222.3070 C   0  0  0  0  0  0  0  0  0  0  0  0
  138.5740   73.8320  221.9680 C   0  0  0  0  0  0  0  0  0  0  0  0
  141.0340   72.7618  224.7444 H   0  0  0  0  0  0  0  0  0  0  0  0
  140.1517   69.2617  228.3867 H   0  0  0  0  0  0  0  0  0  0  0  0
  139.2645   67.3916  226.9752 H   0  0  0  0  0  0  0  0  0  0  0  0
  139.0630   67.6750  224.4791 H   0  0  0  0  0  0  0  0  0  0  0  0
  139.5060   69.4540  222.4550 H   0  0  0  0  0  0  0  0  0  0  0  0
  141.3955   74.7513  222.5827 H   0  0  0  0  0  0  0  0  0  0  0  0
  141.4460   74.5221  220.8284 H   0  0  0  0  0  0  0  0  0  0  0  0
  140.8301   76.3601  219.7011 H   0  0  0  0  0  0  0  0  0  0  0  0
  139.1410   75.9309  219.4317 H   0  0  0  0  0  0  0  0  0  0  0  0
  140.0855   78.5428  219.7326 H   0  0  0  0  0  0  0  0  0  0  0  0
  138.3942   78.0632  220.0523 H   0  0  0  0  0  0  0  0  0  0  0  0
  139.8903   80.2122  221.4812 H   0  0  0  0  0  0  0  0  0  0  0  0
  140.1275   80.6347  223.7627 H   0  0  0  0  0  0  0  0  0  0  0  0
  140.3028   78.9144  224.1145 H   0  0  0  0  0  0  0  0  0  0  0  0
  142.4062   81.0077  223.6094 H   0  0  0  0  0  0  0  0  0  0  0  0
  142.5249   79.5190  224.5811 H   0  0  0  0  0  0  0  0  0  0  0  0
  143.6960   79.7860  222.2520 H   0  0  0  0  0  0  0  0  0  0  0  0
  142.0859   80.2289  220.7800 H   0  0  0  0  0  0  0  0  0  0  0  0
  141.9736   78.4518  220.7437 H   0  0  0  0  0  0  0  0  0  0  0  0
  141.1599   77.0463  222.6606 H   0  0  0  0  0  0  0  0  0  0  0  0
  139.5623   76.8645  223.4216 H   0  0  0  0  0  0  0  0  0  0  0  0
  137.0851   76.8923  221.7948 H   0  0  0  0  0  0  0  0  0  0  0  0
  135.0792   75.4786  222.3333 H   0  0  0  0  0  0  0  0  0  0  0  0
  135.3401   73.0134  222.6803 H   0  0  0  0  0  0  0  0  0  0  0  0
  137.6054   71.9468  222.4716 H   0  0  0  0  0  0  0  0  0  0  0  0
  1  2  2  0
  2  3  1  0
  3  4  2  0
  4  5  1  0
  5  6  2  0
  6  7  1  0
  6  8  1  0
  8  9  2  0
  9 10  1  0
 10 11  2  0
 11 12  1  0
  2 13  1  0
 13 14  1  0
 15 14  1  6
 15 16  1  0
 16 17  1  0
 17 18  1  0
 18 19  1  0
 19 20  1  0
 20 21  1  0
 21 22  1  0
 22 23  1  0
 18 24  1  0
 15 25  1  0
 25 26  2  0
 26 27  1  0
 27 28  2  0
 28 29  1  0
 29 30  2  0
 12  3  1  0
 30 13  1  0
 11  5  1  0
 24 15  1  0
 30 25  1  0
 23 19  1  0
  4 31  1  0
  8 32  1  0
  9 33  1  0
 10 34  1  0
 12 35  1  0
 14 36  1  0
 14 37  1  0
 16 38  1  0
 16 39  1  0
 17 40  1  0
 17 41  1  0
 19 42  1  6
 20 43  1  0
 20 44  1  0
 21 45  1  0
 21 46  1  0
 22 47  1  0
 23 48  1  0
 23 49  1  0
 24 50  1  0
 24 51  1  0
 26 52  1  0
 27 53  1  0
 28 54  1  0
 29 55  1  0
M  END
>  <UniqueID>  (67) 
164

>  <SMILES>  (67) 
O=C(c1cc2c(Cl)cccc2[nH]1)N1C[C@@]2(CCN([C@H]3CCNC3)C2)c2ccccc21

>  <Energy>  (67) 
124.1942102318684

>  <Genealogy>  (67) 
O=C(c1cc2c(Cl)cccc2[nH]1)N1C[C@@]2(CCN([C@H]3CCNC3)C2)c2ccccc21 (chirality)
O=C(c1cc2c(Cl)cccc2[nH]1)N1C[C@@]2(CCN([C@H]3CCNC3)C2)c2ccccc21 (3D coordinates assigned)
O=C(c1cc2c(Cl)cccc2[nH]1)N1C[C@@]2(CCN([C@H]3CCNC3)C2)c2ccccc21 (nonaromatic ring conformer: 124.1942102318684 kcal/mol)

>  <smiles>  (67) 
O=C(c1cc2c(Cl)cccc2[nH]1)N1C[C@@]2(CCN(C3CCNC3)C2)c2ccccc21

>  <score_type>  (67) 
oracle

>  <origin>  (67) 
autodockgpu

>  <m_score__min__energy>  (67) 
-8.7400000000000002

>  <m_primary>  (67) 
energy

>  <meeko>  (67) 
{"free_energy": -8.73, "intermolecular_energy": -9.63, "internal_energy": -1.26, "cluster_size": 19, "cluster_id": 1, "rank_in_cluster": 6}

>  <energy>  (67) 
-8.73

>  <cluster_rmsd>  (67) 
0.04

>  <rmsd>  (67) 
271.78

>  <cluster>  (67) 
1

$$$$
KZWACXAMTSGJSU-FYSMJZIKNA-N
     RDKit          3D

 55 60  0  0  0  0  0  0  0  0999 V2000
  140.9860   71.5700  220.9500 O   0  0  0  0  0  0  0  0  0  0  0  0
  140.4320   72.1060  221.9470 C   0  0  0  0  0  0  0  0  0  0  0  0
  140.2700   71.3300  223.1900 C   0  0  0  0  0  0  0  0  0  0  0  0
  140.6110   71.7810  224.4640 C   0  0  0  0  0  0  0  0  0  0  0  0
  140.3120   70.7320  225.3070 C   0  0  0  0  0  0  0  0  0  0  0  0
  140.4420   70.6050  226.6920 C   0  0  0  0  0  0  0  0  0  0  0  0
  141.0690   71.9120  227.6810 Cl  0  0  0  0  0  0  0  0  0  0  0  0
  140.0510   69.3850  227.2770 C   0  0  0  0  0  0  0  0  0  0  0  0
  139.5470   68.3360  226.4770 C   0  0  0  0  0  0  0  0  0  0  0  0
  139.4300   68.4940  225.0850 C   0  0  0  0  0  0  0  0  0  0  0  0
  139.8240   69.7110  224.5320 C   0  0  0  0  0  0  0  0  0  0  0  0
  139.7960   70.0620  223.2370 N   0  0  0  0  0  0  0  0  0  0  0  0
  139.9240   73.4420  221.8360 N   0  0  0  0  0  0  0  0  0  0  0  0
  140.7700   74.6240  221.6800 C   0  0  0  0  0  0  0  0  0  0  0  0
  139.7880   75.8320  221.5250 C   0  0  2  0  0  0  0  0  0  0  0  0
  139.8170   76.4570  220.1330 C   0  0  0  0  0  0  0  0  0  0  0  0
  139.4470   77.9170  220.3530 C   0  0  0  0  0  0  0  0  0  0  0  0
  139.6490   78.2330  221.7790 N   0  0  0  0  0  0  0  0  0  0  0  0
  140.4960   79.4380  221.9890 C   0  0  1  0  0  0  0  0  0  0  0  0
  140.6780   79.7660  223.4690 C   0  0  0  0  0  0  0  0  0  0  0  0
  142.1740   79.9600  223.6490 C   0  0  0  0  0  0  0  0  0  0  0  0
  142.8400   79.2640  222.5540 N   0  0  0  0  0  0  0  0  0  0  0  0
  141.9200   79.3230  221.4210 C   0  0  0  0  0  0  0  0  0  0  0  0
  140.1010   77.0040  222.4590 C   0  0  0  0  0  0  0  0  0  0  0  0
  138.4450   75.2100  221.8180 C   0  0  0  0  0  0  0  0  0  0  0  0
  137.1990   75.8360  221.9590 C   0  0  0  0  0  0  0  0  0  0  0  0
  136.0810   75.0500  222.2760 C   0  0  0  0  0  0  0  0  0  0  0  0
  136.2220   73.6630  222.4640 C   0  0  0  0  0  0  0  0  0  0  0  0
  137.4780   73.0550  222.3260 C   0  0  0  0  0  0  0  0  0  0  0  0
  138.5740   73.8550  221.9780 C   0  0  0  0  0  0  0  0  0  0  0  0
  141.0282   72.7614  224.7375 H   0  0  0  0  0  0  0  0  0  0  0  0
  140.1388   69.2482  228.3649 H   0  0  0  0  0  0  0  0  0  0  0  0
  139.2438   67.3885  226.9464 H   0  0  0  0  0  0  0  0  0  0  0  0
  139.0399   67.6830  224.4525 H   0  0  0  0  0  0  0  0  0  0  0  0
  139.4890   69.4680  222.4340 H   0  0  0  0  0  0  0  0  0  0  0  0
  141.4069   74.7592  222.5666 H   0  0  0  0  0  0  0  0  0  0  0  0
  141.4393   74.5317  220.8119 H   0  0  0  0  0  0  0  0  0  0  0  0
  140.8214   76.3742  219.6922 H   0  0  0  0  0  0  0  0  0  0  0  0
  139.1276   75.9546  219.4384 H   0  0  0  0  0  0  0  0  0  0  0  0
  140.0889   78.5612  219.7342 H   0  0  0  0  0  0  0  0  0  0  0  0
  138.3982   78.0903  220.0700 H   0  0  0  0  0  0  0  0  0  0  0  0
  139.9396   80.2209  221.4529 H   0  0  0  0  0  0  0  0  0  0  0  0
  140.1348   80.6861  223.7305 H   0  0  0  0  0  0  0  0  0  0  0  0
  140.2837   78.9712  224.1193 H   0  0  0  0  0  0  0  0  0  0  0  0
  142.4204   81.0316  223.6182 H   0  0  0  0  0  0  0  0  0  0  0  0
  142.5030   79.5605  224.6197 H   0  0  0  0  0  0  0  0  0  0  0  0
  143.7230   79.7710  222.3100 H   0  0  0  0  0  0  0  0  0  0  0  0
  142.1477   80.2000  220.7973 H   0  0  0  0  0  0  0  0  0  0  0  0
  142.0167   78.4233  220.7956 H   0  0  0  0  0  0  0  0  0  0  0  0
  141.1829   77.0550  222.6509 H   0  0  0  0  0  0  0  0  0  0  0  0
  139.5910   76.8812  223.4259 H   0  0  0  0  0  0  0  0  0  0  0  0
  137.0995   76.9231  221.8237 H   0  0  0  0  0  0  0  0  0  0  0  0
  135.0915   75.5195  222.3778 H   0  0  0  0  0  0  0  0  0  0  0  0
  135.3433   73.0529  222.7203 H   0  0  0  0  0  0  0  0  0  0  0  0
  137.6000   71.9738  222.4874 H   0  0  0  0  0  0  0  0  0  0  0  0
  1  2  2  0
  2  3  1  0
  3  4  2  0
  4  5  1  0
  5  6  2  0
  6  7  1  0
  6  8  1  0
  8  9  2  0
  9 10  1  0
 10 11  2  0
 11 12  1  0
  2 13  1  0
 13 14  1  0
 15 14  1  6
 15 16  1  0
 16 17  1  0
 17 18  1  0
 18 19  1  0
 19 20  1  0
 20 21  1  0
 21 22  1  0
 22 23  1  0
 18 24  1  0
 15 25  1  0
 25 26  2  0
 26 27  1  0
 27 28  2  0
 28 29  1  0
 29 30  2  0
 12  3  1  0
 30 13  1  0
 11  5  1  0
 24 15  1  0
 30 25  1  0
 23 19  1  0
  4 31  1  0
  8 32  1  0
  9 33  1  0
 10 34  1  0
 12 35  1  0
 14 36  1  0
 14 37  1  0
 16 38  1  0
 16 39  1  0
 17 40  1  0
 17 41  1  0
 19 42  1  6
 20 43  1  0
 20 44  1  0
 21 45  1  0
 21 46  1  0
 22 47  1  0
 23 48  1  0
 23 49  1  0
 24 50  1  0
 24 51  1  0
 26 52  1  0
 27 53  1  0
 28 54  1  0
 29 55  1  0
M  END
>  <UniqueID>  (68) 
164

>  <SMILES>  (68) 
O=C(c1cc2c(Cl)cccc2[nH]1)N1C[C@@]2(CCN([C@H]3CCNC3)C2)c2ccccc21

>  <Energy>  (68) 
124.1942102318684

>  <Genealogy>  (68) 
O=C(c1cc2c(Cl)cccc2[nH]1)N1C[C@@]2(CCN([C@H]3CCNC3)C2)c2ccccc21 (chirality)
O=C(c1cc2c(Cl)cccc2[nH]1)N1C[C@@]2(CCN([C@H]3CCNC3)C2)c2ccccc21 (3D coordinates assigned)
O=C(c1cc2c(Cl)cccc2[nH]1)N1C[C@@]2(CCN([C@H]3CCNC3)C2)c2ccccc21 (nonaromatic ring conformer: 124.1942102318684 kcal/mol)

>  <smiles>  (68) 
O=C(c1cc2c(Cl)cccc2[nH]1)N1C[C@@]2(CCN(C3CCNC3)C2)c2ccccc21

>  <score_type>  (68) 
oracle

>  <origin>  (68) 
autodockgpu

>  <m_score__min__energy>  (68) 
-8.7400000000000002

>  <m_primary>  (68) 
energy

>  <meeko>  (68) 
{"free_energy": -8.74, "intermolecular_energy": -9.63, "internal_energy": -1.26, "cluster_size": 19, "cluster_id": 1, "rank_in_cluster": 1}

>  <energy>  (68) 
-8.73

>  <cluster_rmsd>  (68) 
0.03

>  <rmsd>  (68) 
271.79

>  <cluster>  (68) 
1

$$$$
KZWACXAMTSGJSU-FYSMJZIKNA-N
     RDKit          3D

 55 60  0  0  0  0  0  0  0  0999 V2000
  140.8560   71.6130  220.8840 O   0  0  0  0  0  0  0  0  0  0  0  0
  140.3330   72.1470  221.8990 C   0  0  0  0  0  0  0  0  0  0  0  0
  140.1890   71.3620  223.1380 C   0  0  0  0  0  0  0  0  0  0  0  0
  140.5460   71.8030  224.4100 C   0  0  0  0  0  0  0  0  0  0  0  0
  140.2600   70.7470  225.2500 C   0  0  0  0  0  0  0  0  0  0  0  0
  140.4080   70.6090  226.6310 C   0  0  0  0  0  0  0  0  0  0  0  0
  141.0460   71.9100  227.6230 Cl  0  0  0  0  0  0  0  0  0  0  0  0
  140.0260   69.3850  227.2120 C   0  0  0  0  0  0  0  0  0  0  0  0
  139.5130   68.3410  226.4110 C   0  0  0  0  0  0  0  0  0  0  0  0
  139.3780   68.5090  225.0220 C   0  0  0  0  0  0  0  0  0  0  0  0
  139.7620   69.7320  224.4730 C   0  0  0  0  0  0  0  0  0  0  0  0
  139.7170   70.0930  223.1810 N   0  0  0  0  0  0  0  0  0  0  0  0
  139.8440   73.4920  221.8130 N   0  0  0  0  0  0  0  0  0  0  0  0
  140.7050   74.6640  221.6680 C   0  0  0  0  0  0  0  0  0  0  0  0
  139.7390   75.8880  221.5400 C   0  0  2  0  0  0  0  0  0  0  0  0
  139.7660   76.5350  220.1580 C   0  0  0  0  0  0  0  0  0  0  0  0
  139.4190   77.9960  220.4030 C   0  0  0  0  0  0  0  0  0  0  0  0
  139.6370   78.2870  221.8320 N   0  0  0  0  0  0  0  0  0  0  0  0
  140.5030   79.4760  222.0540 C   0  0  1  0  0  0  0  0  0  0  0  0
  140.7130   79.7690  223.5370 C   0  0  0  0  0  0  0  0  0  0  0  0
  142.2140   79.9410  223.6970 C   0  0  0  0  0  0  0  0  0  0  0  0
  142.8540   79.2600  222.5760 N   0  0  0  0  0  0  0  0  0  0  0  0
  141.9160   79.3560  221.4590 C   0  0  0  0  0  0  0  0  0  0  0  0
  140.0780   77.0410  222.4900 C   0  0  0  0  0  0  0  0  0  0  0  0
  138.3900   75.2810  221.8350 C   0  0  0  0  0  0  0  0  0  0  0  0
  137.1550   75.9220  221.9950 C   0  0  0  0  0  0  0  0  0  0  0  0
  136.0290   75.1470  222.3100 C   0  0  0  0  0  0  0  0  0  0  0  0
  136.1500   73.7560  222.4750 C   0  0  0  0  0  0  0  0  0  0  0  0
  137.3960   73.1320  222.3180 C   0  0  0  0  0  0  0  0  0  0  0  0
  138.5010   73.9210  221.9730 C   0  0  0  0  0  0  0  0  0  0  0  0
  140.9654   72.7819  224.6852 H   0  0  0  0  0  0  0  0  0  0  0  0
  140.1278   69.2406  228.2977 H   0  0  0  0  0  0  0  0  0  0  0  0
  139.2170   67.3898  226.8774 H   0  0  0  0  0  0  0  0  0  0  0  0
  138.9822   67.7016  224.3884 H   0  0  0  0  0  0  0  0  0  0  0  0
  139.4000   69.5040  222.3780 H   0  0  0  0  0  0  0  0  0  0  0  0
  141.3511   74.7765  222.5511 H   0  0  0  0  0  0  0  0  0  0  0  0
  141.3656   74.5758  220.7929 H   0  0  0  0  0  0  0  0  0  0  0  0
  140.7657   76.4448  219.7079 H   0  0  0  0  0  0  0  0  0  0  0  0
  139.0636   76.0537  219.4616 H   0  0  0  0  0  0  0  0  0  0  0  0
  140.0651   78.6404  219.7888 H   0  0  0  0  0  0  0  0  0  0  0  0
  138.3707   78.1887  220.1312 H   0  0  0  0  0  0  0  0  0  0  0  0
  139.9482   80.2776  221.5445 H   0  0  0  0  0  0  0  0  0  0  0  0
  140.1855   80.6896  223.8274 H   0  0  0  0  0  0  0  0  0  0  0  0
  140.3196   78.9648  224.1761 H   0  0  0  0  0  0  0  0  0  0  0  0
  142.4732   81.0100  223.6849 H   0  0  0  0  0  0  0  0  0  0  0  0
  142.5534   79.5171  224.6536 H   0  0  0  0  0  0  0  0  0  0  0  0
  143.7390   79.7610  222.3280 H   0  0  0  0  0  0  0  0  0  0  0  0
  142.1447   80.2439  220.8513 H   0  0  0  0  0  0  0  0  0  0  0  0
  141.9909   78.4698  220.8117 H   0  0  0  0  0  0  0  0  0  0  0  0
  141.1623   77.0736  222.6725 H   0  0  0  0  0  0  0  0  0  0  0  0
  139.5760   76.9107  223.4600 H   0  0  0  0  0  0  0  0  0  0  0  0
  137.0697   77.0122  221.8759 H   0  0  0  0  0  0  0  0  0  0  0  0
  135.0476   75.6294  222.4284 H   0  0  0  0  0  0  0  0  0  0  0  0
  135.2641   73.1550  222.7282 H   0  0  0  0  0  0  0  0  0  0  0  0
  137.5034   72.0468  222.4625 H   0  0  0  0  0  0  0  0  0  0  0  0
  1  2  2  0
  2  3  1  0
  3  4  2  0
  4  5  1  0
  5  6  2  0
  6  7  1  0
  6  8  1  0
  8  9  2  0
  9 10  1  0
 10 11  2  0
 11 12  1  0
  2 13  1  0
 13 14  1  0
 15 14  1  6
 15 16  1  0
 16 17  1  0
 17 18  1  0
 18 19  1  0
 19 20  1  0
 20 21  1  0
 21 22  1  0
 22 23  1  0
 18 24  1  0
 15 25  1  0
 25 26  2  0
 26 27  1  0
 27 28  2  0
 28 29  1  0
 29 30  2  0
 12  3  1  0
 30 13  1  0
 11  5  1  0
 24 15  1  0
 30 25  1  0
 23 19  1  0
  4 31  1  0
  8 32  1  0
  9 33  1  0
 10 34  1  0
 12 35  1  0
 14 36  1  0
 14 37  1  0
 16 38  1  0
 16 39  1  0
 17 40  1  0
 17 41  1  0
 19 42  1  6
 20 43  1  0
 20 44  1  0
 21 45  1  0
 21 46  1  0
 22 47  1  0
 23 48  1  0
 23 49  1  0
 24 50  1  0
 24 51  1  0
 26 52  1  0
 27 53  1  0
 28 54  1  0
 29 55  1  0
M  END
>  <UniqueID>  (69) 
164

>  <SMILES>  (69) 
O=C(c1cc2c(Cl)cccc2[nH]1)N1C[C@@]2(CCN([C@H]3CCNC3)C2)c2ccccc21

>  <Energy>  (69) 
124.1942102318684

>  <Genealogy>  (69) 
O=C(c1cc2c(Cl)cccc2[nH]1)N1C[C@@]2(CCN([C@H]3CCNC3)C2)c2ccccc21 (chirality)
O=C(c1cc2c(Cl)cccc2[nH]1)N1C[C@@]2(CCN([C@H]3CCNC3)C2)c2ccccc21 (3D coordinates assigned)
O=C(c1cc2c(Cl)cccc2[nH]1)N1C[C@@]2(CCN([C@H]3CCNC3)C2)c2ccccc21 (nonaromatic ring conformer: 124.1942102318684 kcal/mol)

>  <smiles>  (69) 
O=C(c1cc2c(Cl)cccc2[nH]1)N1C[C@@]2(CCN(C3CCNC3)C2)c2ccccc21

>  <score_type>  (69) 
oracle

>  <origin>  (69) 
autodockgpu

>  <m_score__min__energy>  (69) 
-8.7400000000000002

>  <m_primary>  (69) 
energy

>  <meeko>  (69) 
{"free_energy": -8.73, "intermolecular_energy": -9.62, "internal_energy": -1.26, "cluster_size": 19, "cluster_id": 1, "rank_in_cluster": 12}

>  <energy>  (69) 
-8.73

>  <cluster_rmsd>  (69) 
0.03

>  <rmsd>  (69) 
271.77

>  <cluster>  (69) 
1

$$$$
KZWACXAMTSGJSU-FYSMJZIKNA-N
     RDKit          3D

 55 60  0  0  0  0  0  0  0  0999 V2000
  141.0250   71.5660  220.9450 O   0  0  0  0  0  0  0  0  0  0  0  0
  140.4680   72.1030  221.9400 C   0  0  0  0  0  0  0  0  0  0  0  0
  140.3020   71.3270  223.1830 C   0  0  0  0  0  0  0  0  0  0  0  0
  140.6360   71.7800  224.4580 C   0  0  0  0  0  0  0  0  0  0  0  0
  140.3360   70.7300  225.3010 C   0  0  0  0  0  0  0  0  0  0  0  0
  140.4590   70.6040  226.6850 C   0  0  0  0  0  0  0  0  0  0  0  0
  141.0780   71.9130  227.6780 Cl  0  0  0  0  0  0  0  0  0  0  0  0
  140.0690   69.3840  227.2700 C   0  0  0  0  0  0  0  0  0  0  0  0
  139.5720   68.3320  226.4680 C   0  0  0  0  0  0  0  0  0  0  0  0
  139.4610   68.4890  225.0750 C   0  0  0  0  0  0  0  0  0  0  0  0
  139.8540   69.7080  224.5240 C   0  0  0  0  0  0  0  0  0  0  0  0
  139.8310   70.0580  223.2280 N   0  0  0  0  0  0  0  0  0  0  0  0
  139.9600   73.4390  221.8270 N   0  0  0  0  0  0  0  0  0  0  0  0
  140.8070   74.6210  221.6720 C   0  0  0  0  0  0  0  0  0  0  0  0
  139.8250   75.8290  221.5140 C   0  0  2  0  0  0  0  0  0  0  0  0
  139.8570   76.4530  220.1220 C   0  0  0  0  0  0  0  0  0  0  0  0
  139.4870   77.9130  220.3400 C   0  0  0  0  0  0  0  0  0  0  0  0
  139.6860   78.2300  221.7670 N   0  0  0  0  0  0  0  0  0  0  0  0
  140.5330   79.4350  221.9770 C   0  0  1  0  0  0  0  0  0  0  0  0
  140.7170   79.7600  223.4570 C   0  0  0  0  0  0  0  0  0  0  0  0
  142.2130   79.9550  223.6360 C   0  0  0  0  0  0  0  0  0  0  0  0
  142.8790   79.2600  222.5390 N   0  0  0  0  0  0  0  0  0  0  0  0
  141.9570   79.3210  221.4060 C   0  0  0  0  0  0  0  0  0  0  0  0
  140.1380   77.0010  222.4480 C   0  0  0  0  0  0  0  0  0  0  0  0
  138.4820   75.2070  221.8060 C   0  0  0  0  0  0  0  0  0  0  0  0
  137.2360   75.8340  221.9440 C   0  0  0  0  0  0  0  0  0  0  0  0
  136.1180   75.0480  222.2600 C   0  0  0  0  0  0  0  0  0  0  0  0
  136.2570   73.6610  222.4490 C   0  0  0  0  0  0  0  0  0  0  0  0
  137.5130   73.0530  222.3140 C   0  0  0  0  0  0  0  0  0  0  0  0
  138.6100   73.8520  221.9670 C   0  0  0  0  0  0  0  0  0  0  0  0
  141.0492   72.7618  224.7326 H   0  0  0  0  0  0  0  0  0  0  0  0
  140.1518   69.2489  228.3585 H   0  0  0  0  0  0  0  0  0  0  0  0
  139.2699   67.3838  226.9366 H   0  0  0  0  0  0  0  0  0  0  0  0
  139.0767   67.6766  224.4407 H   0  0  0  0  0  0  0  0  0  0  0  0
  139.5300   69.4620  222.4240 H   0  0  0  0  0  0  0  0  0  0  0  0
  141.4420   74.7567  222.5599 H   0  0  0  0  0  0  0  0  0  0  0  0
  141.4784   74.5281  220.8057 H   0  0  0  0  0  0  0  0  0  0  0  0
  140.8623   76.3697  219.6833 H   0  0  0  0  0  0  0  0  0  0  0  0
  139.1688   75.9504  219.4265 H   0  0  0  0  0  0  0  0  0  0  0  0
  140.1305   78.5566  219.7222 H   0  0  0  0  0  0  0  0  0  0  0  0
  138.4390   78.0865  220.0545 H   0  0  0  0  0  0  0  0  0  0  0  0
  139.9760   80.2189  221.4429 H   0  0  0  0  0  0  0  0  0  0  0  0
  140.1734   80.6791  223.7211 H   0  0  0  0  0  0  0  0  0  0  0  0
  140.3245   78.9633  224.1060 H   0  0  0  0  0  0  0  0  0  0  0  0
  142.4585   81.0268  223.6060 H   0  0  0  0  0  0  0  0  0  0  0  0
  142.5431   79.5549  224.6060 H   0  0  0  0  0  0  0  0  0  0  0  0
  143.7610   79.7680  222.2940 H   0  0  0  0  0  0  0  0  0  0  0  0
  142.1839   80.1991  220.7836 H   0  0  0  0  0  0  0  0  0  0  0  0
  142.0530   78.4227  220.7785 H   0  0  0  0  0  0  0  0  0  0  0  0
  141.2199   77.0520  222.6402 H   0  0  0  0  0  0  0  0  0  0  0  0
  139.6281   76.8786  223.4150 H   0  0  0  0  0  0  0  0  0  0  0  0
  137.1369   76.9209  221.8072 H   0  0  0  0  0  0  0  0  0  0  0  0
  135.1286   75.5181  222.3604 H   0  0  0  0  0  0  0  0  0  0  0  0
  135.3774   73.0515  222.7036 H   0  0  0  0  0  0  0  0  0  0  0  0
  137.6344   71.9719  222.4770 H   0  0  0  0  0  0  0  0  0  0  0  0
  1  2  2  0
  2  3  1  0
  3  4  2  0
  4  5  1  0
  5  6  2  0
  6  7  1  0
  6  8  1  0
  8  9  2  0
  9 10  1  0
 10 11  2  0
 11 12  1  0
  2 13  1  0
 13 14  1  0
 15 14  1  6
 15 16  1  0
 16 17  1  0
 17 18  1  0
 18 19  1  0
 19 20  1  0
 20 21  1  0
 21 22  1  0
 22 23  1  0
 18 24  1  0
 15 25  1  0
 25 26  2  0
 26 27  1  0
 27 28  2  0
 28 29  1  0
 29 30  2  0
 12  3  1  0
 30 13  1  0
 11  5  1  0
 24 15  1  0
 30 25  1  0
 23 19  1  0
  4 31  1  0
  8 32  1  0
  9 33  1  0
 10 34  1  0
 12 35  1  0
 14 36  1  0
 14 37  1  0
 16 38  1  0
 16 39  1  0
 17 40  1  0
 17 41  1  0
 19 42  1  6
 20 43  1  0
 20 44  1  0
 21 45  1  0
 21 46  1  0
 22 47  1  0
 23 48  1  0
 23 49  1  0
 24 50  1  0
 24 51  1  0
 26 52  1  0
 27 53  1  0
 28 54  1  0
 29 55  1  0
M  END
>  <UniqueID>  (70) 
164

>  <SMILES>  (70) 
O=C(c1cc2c(Cl)cccc2[nH]1)N1C[C@@]2(CCN([C@H]3CCNC3)C2)c2ccccc21

>  <Energy>  (70) 
124.1942102318684

>  <Genealogy>  (70) 
O=C(c1cc2c(Cl)cccc2[nH]1)N1C[C@@]2(CCN([C@H]3CCNC3)C2)c2ccccc21 (chirality)
O=C(c1cc2c(Cl)cccc2[nH]1)N1C[C@@]2(CCN([C@H]3CCNC3)C2)c2ccccc21 (3D coordinates assigned)
O=C(c1cc2c(Cl)cccc2[nH]1)N1C[C@@]2(CCN([C@H]3CCNC3)C2)c2ccccc21 (nonaromatic ring conformer: 124.1942102318684 kcal/mol)

>  <smiles>  (70) 
O=C(c1cc2c(Cl)cccc2[nH]1)N1C[C@@]2(CCN(C3CCNC3)C2)c2ccccc21

>  <score_type>  (70) 
oracle

>  <origin>  (70) 
autodockgpu

>  <m_score__min__energy>  (70) 
-8.7400000000000002

>  <m_primary>  (70) 
energy

>  <meeko>  (70) 
{"free_energy": -8.73, "intermolecular_energy": -9.63, "internal_energy": -1.26, "cluster_size": 19, "cluster_id": 1, "rank_in_cluster": 10}

>  <energy>  (70) 
-8.73

>  <cluster_rmsd>  (70) 
0.04

>  <rmsd>  (70) 
271.79

>  <cluster>  (70) 
1

$$$$
KZWACXAMTSGJSU-FYSMJZIKNA-N
     RDKit          3D

 55 60  0  0  0  0  0  0  0  0999 V2000
  140.9070   71.5950  220.9370 O   0  0  0  0  0  0  0  0  0  0  0  0
  140.3800   72.1320  221.9490 C   0  0  0  0  0  0  0  0  0  0  0  0
  140.2370   71.3520  223.1920 C   0  0  0  0  0  0  0  0  0  0  0  0
  140.5870   71.8030  224.4620 C   0  0  0  0  0  0  0  0  0  0  0  0
  140.3050   70.7490  225.3060 C   0  0  0  0  0  0  0  0  0  0  0  0
  140.4490   70.6190  226.6890 C   0  0  0  0  0  0  0  0  0  0  0  0
  141.0750   71.9290  227.6760 Cl  0  0  0  0  0  0  0  0  0  0  0  0
  140.0740   69.3950  227.2750 C   0  0  0  0  0  0  0  0  0  0  0  0
  139.5720   68.3430  226.4770 C   0  0  0  0  0  0  0  0  0  0  0  0
  139.4400   68.5040  225.0870 C   0  0  0  0  0  0  0  0  0  0  0  0
  139.8170   69.7260  224.5330 C   0  0  0  0  0  0  0  0  0  0  0  0
  139.7740   70.0800  223.2390 N   0  0  0  0  0  0  0  0  0  0  0  0
  139.8850   73.4740  221.8550 N   0  0  0  0  0  0  0  0  0  0  0  0
  140.7410   74.6500  221.7100 C   0  0  0  0  0  0  0  0  0  0  0  0
  139.7700   75.8690  221.5720 C   0  0  2  0  0  0  0  0  0  0  0  0
  139.8010   76.5100  220.1880 C   0  0  0  0  0  0  0  0  0  0  0  0
  139.4450   77.9710  220.4260 C   0  0  0  0  0  0  0  0  0  0  0  0
  139.6550   78.2680  221.8550 N   0  0  0  0  0  0  0  0  0  0  0  0
  140.5140   79.4620  222.0760 C   0  0  1  0  0  0  0  0  0  0  0  0
  140.7340   79.7490  223.5600 C   0  0  0  0  0  0  0  0  0  0  0  0
  142.2350   79.9310  223.7080 C   0  0  0  0  0  0  0  0  0  0  0  0
  142.8710   79.2600  222.5790 N   0  0  0  0  0  0  0  0  0  0  0  0
  141.9240   79.3550  221.4700 C   0  0  0  0  0  0  0  0  0  0  0  0
  140.0980   77.0270  222.5190 C   0  0  0  0  0  0  0  0  0  0  0  0
  138.4230   75.2560  221.8630 C   0  0  0  0  0  0  0  0  0  0  0  0
  137.1840   75.8920  222.0150 C   0  0  0  0  0  0  0  0  0  0  0  0
  136.0590   75.1130  222.3270 C   0  0  0  0  0  0  0  0  0  0  0  0
  136.1870   73.7230  222.4980 C   0  0  0  0  0  0  0  0  0  0  0  0
  137.4370   73.1050  222.3500 C   0  0  0  0  0  0  0  0  0  0  0  0
  138.5390   73.8980  222.0070 C   0  0  0  0  0  0  0  0  0  0  0  0
  140.9989   72.7862  224.7333 H   0  0  0  0  0  0  0  0  0  0  0  0
  140.1726   69.2569  228.3618 H   0  0  0  0  0  0  0  0  0  0  0  0
  139.2825   67.3914  226.9467 H   0  0  0  0  0  0  0  0  0  0  0  0
  139.0513   67.6910  224.4562 H   0  0  0  0  0  0  0  0  0  0  0  0
  139.4640   69.4850  222.4380 H   0  0  0  0  0  0  0  0  0  0  0  0
  141.3818   74.7690  222.5961 H   0  0  0  0  0  0  0  0  0  0  0  0
  141.4065   74.5616  220.8386 H   0  0  0  0  0  0  0  0  0  0  0  0
  140.8034   76.4232  219.7435 H   0  0  0  0  0  0  0  0  0  0  0  0
  139.1050   76.0223  219.4896 H   0  0  0  0  0  0  0  0  0  0  0  0
  140.0906   78.6166  219.8124 H   0  0  0  0  0  0  0  0  0  0  0  0
  138.3970   78.1574  220.1485 H   0  0  0  0  0  0  0  0  0  0  0  0
  139.9495   80.2619  221.5745 H   0  0  0  0  0  0  0  0  0  0  0  0
  140.2023   80.6642  223.8596 H   0  0  0  0  0  0  0  0  0  0  0  0
  140.3515   78.9389  224.1982 H   0  0  0  0  0  0  0  0  0  0  0  0
  142.4863   81.0019  223.6987 H   0  0  0  0  0  0  0  0  0  0  0  0
  142.5852   79.5048  224.6597 H   0  0  0  0  0  0  0  0  0  0  0  0
  143.7500   79.7690  222.3270 H   0  0  0  0  0  0  0  0  0  0  0  0
  142.1419   80.2476  220.8651 H   0  0  0  0  0  0  0  0  0  0  0  0
  142.0002   78.4724  220.8179 H   0  0  0  0  0  0  0  0  0  0  0  0
  141.1811   77.0655  222.7072 H   0  0  0  0  0  0  0  0  0  0  0  0
  139.5909   76.8977  223.4866 H   0  0  0  0  0  0  0  0  0  0  0  0
  137.0946   76.9814  221.8921 H   0  0  0  0  0  0  0  0  0  0  0  0
  135.0745   75.5910  222.4381 H   0  0  0  0  0  0  0  0  0  0  0  0
  135.3031   73.1182  222.7488 H   0  0  0  0  0  0  0  0  0  0  0  0
  137.5494   72.0211  222.5001 H   0  0  0  0  0  0  0  0  0  0  0  0
  1  2  2  0
  2  3  1  0
  3  4  2  0
  4  5  1  0
  5  6  2  0
  6  7  1  0
  6  8  1  0
  8  9  2  0
  9 10  1  0
 10 11  2  0
 11 12  1  0
  2 13  1  0
 13 14  1  0
 15 14  1  6
 15 16  1  0
 16 17  1  0
 17 18  1  0
 18 19  1  0
 19 20  1  0
 20 21  1  0
 21 22  1  0
 22 23  1  0
 18 24  1  0
 15 25  1  0
 25 26  2  0
 26 27  1  0
 27 28  2  0
 28 29  1  0
 29 30  2  0
 12  3  1  0
 30 13  1  0
 11  5  1  0
 24 15  1  0
 30 25  1  0
 23 19  1  0
  4 31  1  0
  8 32  1  0
  9 33  1  0
 10 34  1  0
 12 35  1  0
 14 36  1  0
 14 37  1  0
 16 38  1  0
 16 39  1  0
 17 40  1  0
 17 41  1  0
 19 42  1  6
 20 43  1  0
 20 44  1  0
 21 45  1  0
 21 46  1  0
 22 47  1  0
 23 48  1  0
 23 49  1  0
 24 50  1  0
 24 51  1  0
 26 52  1  0
 27 53  1  0
 28 54  1  0
 29 55  1  0
M  END
>  <UniqueID>  (71) 
164

>  <SMILES>  (71) 
O=C(c1cc2c(Cl)cccc2[nH]1)N1C[C@@]2(CCN([C@H]3CCNC3)C2)c2ccccc21

>  <Energy>  (71) 
124.1942102318684

>  <Genealogy>  (71) 
O=C(c1cc2c(Cl)cccc2[nH]1)N1C[C@@]2(CCN([C@H]3CCNC3)C2)c2ccccc21 (chirality)
O=C(c1cc2c(Cl)cccc2[nH]1)N1C[C@@]2(CCN([C@H]3CCNC3)C2)c2ccccc21 (3D coordinates assigned)
O=C(c1cc2c(Cl)cccc2[nH]1)N1C[C@@]2(CCN([C@H]3CCNC3)C2)c2ccccc21 (nonaromatic ring conformer: 124.1942102318684 kcal/mol)

>  <smiles>  (71) 
O=C(c1cc2c(Cl)cccc2[nH]1)N1C[C@@]2(CCN(C3CCNC3)C2)c2ccccc21

>  <score_type>  (71) 
oracle

>  <origin>  (71) 
autodockgpu

>  <m_score__min__energy>  (71) 
-8.7400000000000002

>  <m_primary>  (71) 
energy

>  <meeko>  (71) 
{"free_energy": -8.72, "intermolecular_energy": -9.61, "internal_energy": -1.26, "cluster_size": 19, "cluster_id": 1, "rank_in_cluster": 15}

>  <energy>  (71) 
-8.73

>  <cluster_rmsd>  (71) 
0.03

>  <rmsd>  (71) 
271.79

>  <cluster>  (71) 
1

$$$$
KZWACXAMTSGJSU-FYSMJZIKNA-N
     RDKit          3D

 55 60  0  0  0  0  0  0  0  0999 V2000
  140.9990   71.5510  220.9560 O   0  0  0  0  0  0  0  0  0  0  0  0
  140.4470   72.0910  221.9510 C   0  0  0  0  0  0  0  0  0  0  0  0
  140.2860   71.3200  223.1980 C   0  0  0  0  0  0  0  0  0  0  0  0
  140.6230   71.7780  224.4690 C   0  0  0  0  0  0  0  0  0  0  0  0
  140.3280   70.7310  225.3170 C   0  0  0  0  0  0  0  0  0  0  0  0
  140.4560   70.6110  226.7020 C   0  0  0  0  0  0  0  0  0  0  0  0
  141.0750   71.9250  227.6870 Cl  0  0  0  0  0  0  0  0  0  0  0  0
  140.0690   69.3920  227.2930 C   0  0  0  0  0  0  0  0  0  0  0  0
  139.5720   68.3360  226.4960 C   0  0  0  0  0  0  0  0  0  0  0  0
  139.4570   68.4880  225.1030 C   0  0  0  0  0  0  0  0  0  0  0  0
  139.8450   69.7050  224.5460 C   0  0  0  0  0  0  0  0  0  0  0  0
  139.8180   70.0500  223.2490 N   0  0  0  0  0  0  0  0  0  0  0  0
  139.9390   73.4270  221.8350 N   0  0  0  0  0  0  0  0  0  0  0  0
  140.7860   74.6090  221.6800 C   0  0  0  0  0  0  0  0  0  0  0  0
  139.8040   75.8160  221.5190 C   0  0  2  0  0  0  0  0  0  0  0  0
  139.8370   76.4390  220.1260 C   0  0  0  0  0  0  0  0  0  0  0  0
  139.4670   77.8990  220.3420 C   0  0  0  0  0  0  0  0  0  0  0  0
  139.6640   78.2180  221.7680 N   0  0  0  0  0  0  0  0  0  0  0  0
  140.5110   79.4230  221.9780 C   0  0  1  0  0  0  0  0  0  0  0  0
  140.6950   79.7490  223.4580 C   0  0  0  0  0  0  0  0  0  0  0  0
  142.1910   79.9450  223.6360 C   0  0  0  0  0  0  0  0  0  0  0  0
  142.8560   79.2500  222.5390 N   0  0  0  0  0  0  0  0  0  0  0  0
  141.9340   79.3100  221.4070 C   0  0  0  0  0  0  0  0  0  0  0  0
  140.1150   76.9900  222.4520 C   0  0  0  0  0  0  0  0  0  0  0  0
  138.4600   75.1950  221.8100 C   0  0  0  0  0  0  0  0  0  0  0  0
  137.2140   75.8210  221.9450 C   0  0  0  0  0  0  0  0  0  0  0  0
  136.0960   75.0360  222.2610 C   0  0  0  0  0  0  0  0  0  0  0  0
  136.2350   73.6490  222.4520 C   0  0  0  0  0  0  0  0  0  0  0  0
  137.4910   73.0410  222.3200 C   0  0  0  0  0  0  0  0  0  0  0  0
  138.5890   73.8400  221.9730 C   0  0  0  0  0  0  0  0  0  0  0  0
  141.0352   72.7616  224.7384 H   0  0  0  0  0  0  0  0  0  0  0  0
  140.1542   69.2613  228.3819 H   0  0  0  0  0  0  0  0  0  0  0  0
  139.2731   67.3888  226.9687 H   0  0  0  0  0  0  0  0  0  0  0  0
  139.0730   67.6722  224.4729 H   0  0  0  0  0  0  0  0  0  0  0  0
  139.5160   69.4500  222.4480 H   0  0  0  0  0  0  0  0  0  0  0  0
  141.4195   74.7460  222.5688 H   0  0  0  0  0  0  0  0  0  0  0  0
  141.4590   74.5153  220.8150 H   0  0  0  0  0  0  0  0  0  0  0  0
  140.8426   76.3552  219.6882 H   0  0  0  0  0  0  0  0  0  0  0  0
  139.1492   75.9357  219.4306 H   0  0  0  0  0  0  0  0  0  0  0  0
  140.1113   78.5418  219.7242 H   0  0  0  0  0  0  0  0  0  0  0  0
  138.4192   78.0719  220.0551 H   0  0  0  0  0  0  0  0  0  0  0  0
  139.9534   80.2063  221.4437 H   0  0  0  0  0  0  0  0  0  0  0  0
  140.1509   80.6679  223.7218 H   0  0  0  0  0  0  0  0  0  0  0  0
  140.3031   78.9526  224.1077 H   0  0  0  0  0  0  0  0  0  0  0  0
  142.4360   81.0169  223.6053 H   0  0  0  0  0  0  0  0  0  0  0  0
  142.5222   79.5458  224.6060 H   0  0  0  0  0  0  0  0  0  0  0  0
  143.7390   79.7580  222.2950 H   0  0  0  0  0  0  0  0  0  0  0  0
  142.1600   80.1881  220.7843 H   0  0  0  0  0  0  0  0  0  0  0  0
  142.0304   78.4115  220.7797 H   0  0  0  0  0  0  0  0  0  0  0  0
  141.1965   77.0416  222.6462 H   0  0  0  0  0  0  0  0  0  0  0  0
  139.6032   76.8690  223.4182 H   0  0  0  0  0  0  0  0  0  0  0  0
  137.1146   76.9076  221.8058 H   0  0  0  0  0  0  0  0  0  0  0  0
  135.1065   75.5063  222.3599 H   0  0  0  0  0  0  0  0  0  0  0  0
  135.3550   73.0397  222.7058 H   0  0  0  0  0  0  0  0  0  0  0  0
  137.6123   71.9603  222.4852 H   0  0  0  0  0  0  0  0  0  0  0  0
  1  2  2  0
  2  3  1  0
  3  4  2  0
  4  5  1  0
  5  6  2  0
  6  7  1  0
  6  8  1  0
  8  9  2  0
  9 10  1  0
 10 11  2  0
 11 12  1  0
  2 13  1  0
 13 14  1  0
 15 14  1  6
 15 16  1  0
 16 17  1  0
 17 18  1  0
 18 19  1  0
 19 20  1  0
 20 21  1  0
 21 22  1  0
 22 23  1  0
 18 24  1  0
 15 25  1  0
 25 26  2  0
 26 27  1  0
 27 28  2  0
 28 29  1  0
 29 30  2  0
 12  3  1  0
 30 13  1  0
 11  5  1  0
 24 15  1  0
 30 25  1  0
 23 19  1  0
  4 31  1  0
  8 32  1  0
  9 33  1  0
 10 34  1  0
 12 35  1  0
 14 36  1  0
 14 37  1  0
 16 38  1  0
 16 39  1  0
 17 40  1  0
 17 41  1  0
 19 42  1  6
 20 43  1  0
 20 44  1  0
 21 45  1  0
 21 46  1  0
 22 47  1  0
 23 48  1  0
 23 49  1  0
 24 50  1  0
 24 51  1  0
 26 52  1  0
 27 53  1  0
 28 54  1  0
 29 55  1  0
M  END
>  <UniqueID>  (72) 
164

>  <SMILES>  (72) 
O=C(c1cc2c(Cl)cccc2[nH]1)N1C[C@@]2(CCN([C@H]3CCNC3)C2)c2ccccc21

>  <Energy>  (72) 
124.1942102318684

>  <Genealogy>  (72) 
O=C(c1cc2c(Cl)cccc2[nH]1)N1C[C@@]2(CCN([C@H]3CCNC3)C2)c2ccccc21 (chirality)
O=C(c1cc2c(Cl)cccc2[nH]1)N1C[C@@]2(CCN([C@H]3CCNC3)C2)c2ccccc21 (3D coordinates assigned)
O=C(c1cc2c(Cl)cccc2[nH]1)N1C[C@@]2(CCN([C@H]3CCNC3)C2)c2ccccc21 (nonaromatic ring conformer: 124.1942102318684 kcal/mol)

>  <smiles>  (72) 
O=C(c1cc2c(Cl)cccc2[nH]1)N1C[C@@]2(CCN(C3CCNC3)C2)c2ccccc21

>  <score_type>  (72) 
oracle

>  <origin>  (72) 
autodockgpu

>  <m_score__min__energy>  (72) 
-8.7400000000000002

>  <m_primary>  (72) 
energy

>  <meeko>  (72) 
{"free_energy": -8.74, "intermolecular_energy": -9.63, "internal_energy": -1.26, "cluster_size": 19, "cluster_id": 1, "rank_in_cluster": 4}

>  <energy>  (72) 
-8.73

>  <cluster_rmsd>  (72) 
0.09

>  <rmsd>  (72) 
271.77

>  <cluster>  (72) 
1

$$$$
KZWACXAMTSGJSU-FYSMJZIKNA-N
     RDKit          3D

 55 60  0  0  0  0  0  0  0  0999 V2000
  140.9540   71.5720  220.9280 O   0  0  0  0  0  0  0  0  0  0  0  0
  140.4120   72.1120  221.9300 C   0  0  0  0  0  0  0  0  0  0  0  0
  140.2590   71.3380  223.1760 C   0  0  0  0  0  0  0  0  0  0  0  0
  140.6060   71.7920  224.4460 C   0  0  0  0  0  0  0  0  0  0  0  0
  140.3150   70.7430  225.2930 C   0  0  0  0  0  0  0  0  0  0  0  0
  140.4520   70.6190  226.6770 C   0  0  0  0  0  0  0  0  0  0  0  0
  141.0800   71.9290  227.6610 Cl  0  0  0  0  0  0  0  0  0  0  0  0
  140.0680   69.3990  227.2670 C   0  0  0  0  0  0  0  0  0  0  0  0
  139.5630   68.3460  226.4710 C   0  0  0  0  0  0  0  0  0  0  0  0
  139.4380   68.5020  225.0790 C   0  0  0  0  0  0  0  0  0  0  0  0
  139.8250   69.7200  224.5230 C   0  0  0  0  0  0  0  0  0  0  0  0
  139.7890   70.0680  223.2270 N   0  0  0  0  0  0  0  0  0  0  0  0
  139.9100   73.4500  221.8230 N   0  0  0  0  0  0  0  0  0  0  0  0
  140.7610   74.6290  221.6690 C   0  0  0  0  0  0  0  0  0  0  0  0
  139.7840   75.8420  221.5190 C   0  0  2  0  0  0  0  0  0  0  0  0
  139.8140   76.4710  220.1290 C   0  0  0  0  0  0  0  0  0  0  0  0
  139.4500   77.9310  220.3530 C   0  0  0  0  0  0  0  0  0  0  0  0
  139.6550   78.2430  221.7800 N   0  0  0  0  0  0  0  0  0  0  0  0
  140.5070   79.4430  221.9910 C   0  0  1  0  0  0  0  0  0  0  0  0
  140.7100   79.7540  223.4730 C   0  0  0  0  0  0  0  0  0  0  0  0
  142.2090   79.9440  223.6340 C   0  0  0  0  0  0  0  0  0  0  0  0
  142.8590   79.2580  222.5220 N   0  0  0  0  0  0  0  0  0  0  0  0
  141.9230   79.3320  221.4020 C   0  0  0  0  0  0  0  0  0  0  0  0
  140.1030   77.0100  222.4560 C   0  0  0  0  0  0  0  0  0  0  0  0
  138.4380   75.2240  221.8120 C   0  0  0  0  0  0  0  0  0  0  0  0
  137.1960   75.8560  221.9560 C   0  0  0  0  0  0  0  0  0  0  0  0
  136.0750   75.0730  222.2730 C   0  0  0  0  0  0  0  0  0  0  0  0
  136.2100   73.6850  222.4570 C   0  0  0  0  0  0  0  0  0  0  0  0
  137.4630   73.0720  222.3160 C   0  0  0  0  0  0  0  0  0  0  0  0
  138.5620   73.8680  221.9680 C   0  0  0  0  0  0  0  0  0  0  0  0
  141.0219   72.7741  224.7152 H   0  0  0  0  0  0  0  0  0  0  0  0
  140.1618   69.2649  228.3548 H   0  0  0  0  0  0  0  0  0  0  0  0
  139.2658   67.3981  226.9434 H   0  0  0  0  0  0  0  0  0  0  0  0
  139.0474   67.6890  224.4493 H   0  0  0  0  0  0  0  0  0  0  0  0
  139.4800   69.4720  222.4270 H   0  0  0  0  0  0  0  0  0  0  0  0
  141.3999   74.7588  222.5550 H   0  0  0  0  0  0  0  0  0  0  0  0
  141.4285   74.5363  220.7996 H   0  0  0  0  0  0  0  0  0  0  0  0
  140.8177   76.3856  219.6870 H   0  0  0  0  0  0  0  0  0  0  0  0
  139.1219   75.9733  219.4339 H   0  0  0  0  0  0  0  0  0  0  0  0
  140.0935   78.5743  219.7349 H   0  0  0  0  0  0  0  0  0  0  0  0
  138.4015   78.1088  220.0718 H   0  0  0  0  0  0  0  0  0  0  0  0
  139.9452   80.2328  221.4709 H   0  0  0  0  0  0  0  0  0  0  0  0
  140.1719   80.6717  223.7526 H   0  0  0  0  0  0  0  0  0  0  0  0
  140.3236   78.9525  224.1198 H   0  0  0  0  0  0  0  0  0  0  0  0
  142.4566   81.0155  223.6108 H   0  0  0  0  0  0  0  0  0  0  0  0
  142.5509   79.5340  224.5958 H   0  0  0  0  0  0  0  0  0  0  0  0
  143.7390   79.7660  222.2720 H   0  0  0  0  0  0  0  0  0  0  0  0
  142.1439   80.2158  220.7855 H   0  0  0  0  0  0  0  0  0  0  0  0
  142.0092   78.4395  220.7649 H   0  0  0  0  0  0  0  0  0  0  0  0
  141.1854   77.0561  222.6467 H   0  0  0  0  0  0  0  0  0  0  0  0
  139.5939   76.8865  223.4232 H   0  0  0  0  0  0  0  0  0  0  0  0
  137.1012   76.9439  221.8233 H   0  0  0  0  0  0  0  0  0  0  0  0
  135.0876   75.5464  222.3779 H   0  0  0  0  0  0  0  0  0  0  0  0
  135.3289   73.0781  222.7126 H   0  0  0  0  0  0  0  0  0  0  0  0
  137.5805   71.9899  222.4751 H   0  0  0  0  0  0  0  0  0  0  0  0
  1  2  2  0
  2  3  1  0
  3  4  2  0
  4  5  1  0
  5  6  2  0
  6  7  1  0
  6  8  1  0
  8  9  2  0
  9 10  1  0
 10 11  2  0
 11 12  1  0
  2 13  1  0
 13 14  1  0
 15 14  1  6
 15 16  1  0
 16 17  1  0
 17 18  1  0
 18 19  1  0
 19 20  1  0
 20 21  1  0
 21 22  1  0
 22 23  1  0
 18 24  1  0
 15 25  1  0
 25 26  2  0
 26 27  1  0
 27 28  2  0
 28 29  1  0
 29 30  2  0
 12  3  1  0
 30 13  1  0
 11  5  1  0
 24 15  1  0
 30 25  1  0
 23 19  1  0
  4 31  1  0
  8 32  1  0
  9 33  1  0
 10 34  1  0
 12 35  1  0
 14 36  1  0
 14 37  1  0
 16 38  1  0
 16 39  1  0
 17 40  1  0
 17 41  1  0
 19 42  1  6
 20 43  1  0
 20 44  1  0
 21 45  1  0
 21 46  1  0
 22 47  1  0
 23 48  1  0
 23 49  1  0
 24 50  1  0
 24 51  1  0
 26 52  1  0
 27 53  1  0
 28 54  1  0
 29 55  1  0
M  END
>  <UniqueID>  (73) 
164

>  <SMILES>  (73) 
O=C(c1cc2c(Cl)cccc2[nH]1)N1C[C@@]2(CCN([C@H]3CCNC3)C2)c2ccccc21

>  <Energy>  (73) 
124.1942102318684

>  <Genealogy>  (73) 
O=C(c1cc2c(Cl)cccc2[nH]1)N1C[C@@]2(CCN([C@H]3CCNC3)C2)c2ccccc21 (chirality)
O=C(c1cc2c(Cl)cccc2[nH]1)N1C[C@@]2(CCN([C@H]3CCNC3)C2)c2ccccc21 (3D coordinates assigned)
O=C(c1cc2c(Cl)cccc2[nH]1)N1C[C@@]2(CCN([C@H]3CCNC3)C2)c2ccccc21 (nonaromatic ring conformer: 124.1942102318684 kcal/mol)

>  <smiles>  (73) 
O=C(c1cc2c(Cl)cccc2[nH]1)N1C[C@@]2(CCN(C3CCNC3)C2)c2ccccc21

>  <score_type>  (73) 
oracle

>  <origin>  (73) 
autodockgpu

>  <m_score__min__energy>  (73) 
-8.7400000000000002

>  <m_primary>  (73) 
energy

>  <meeko>  (73) 
{"free_energy": -8.73, "intermolecular_energy": -9.63, "internal_energy": -1.26, "cluster_size": 19, "cluster_id": 1, "rank_in_cluster": 5}

>  <energy>  (73) 
-8.73

>  <cluster_rmsd>  (73) 
0.05

>  <rmsd>  (73) 
271.81

>  <cluster>  (73) 
1

$$$$
KZWACXAMTSGJSU-FYSMJZIKNA-N
     RDKit          3D

 55 60  0  0  0  0  0  0  0  0999 V2000
  140.9350   71.5710  220.9400 O   0  0  0  0  0  0  0  0  0  0  0  0
  140.4000   72.1140  221.9440 C   0  0  0  0  0  0  0  0  0  0  0  0
  140.2550   71.3440  223.1930 C   0  0  0  0  0  0  0  0  0  0  0  0
  140.5900   71.8110  224.4620 C   0  0  0  0  0  0  0  0  0  0  0  0
  140.3120   70.7620  225.3140 C   0  0  0  0  0  0  0  0  0  0  0  0
  140.4470   70.6460  226.6990 C   0  0  0  0  0  0  0  0  0  0  0  0
  141.0500   71.9720  227.6780 Cl  0  0  0  0  0  0  0  0  0  0  0  0
  140.0800   69.4240  227.2930 C   0  0  0  0  0  0  0  0  0  0  0  0
  139.5950   68.3590  226.5020 C   0  0  0  0  0  0  0  0  0  0  0  0
  139.4730   68.5050  225.1080 C   0  0  0  0  0  0  0  0  0  0  0  0
  139.8420   69.7260  224.5470 C   0  0  0  0  0  0  0  0  0  0  0  0
  139.8050   70.0680  223.2490 N   0  0  0  0  0  0  0  0  0  0  0  0
  139.8970   73.4520  221.8360 N   0  0  0  0  0  0  0  0  0  0  0  0
  140.7480   74.6310  221.6810 C   0  0  0  0  0  0  0  0  0  0  0  0
  139.7710   75.8440  221.5290 C   0  0  2  0  0  0  0  0  0  0  0  0
  139.8000   76.4710  220.1390 C   0  0  0  0  0  0  0  0  0  0  0  0
  139.4360   77.9320  220.3620 C   0  0  0  0  0  0  0  0  0  0  0  0
  139.6420   78.2450  221.7880 N   0  0  0  0  0  0  0  0  0  0  0  0
  140.4940   79.4460  221.9990 C   0  0  1  0  0  0  0  0  0  0  0  0
  140.6790   79.7700  223.4790 C   0  0  0  0  0  0  0  0  0  0  0  0
  142.1760   79.9590  223.6580 C   0  0  0  0  0  0  0  0  0  0  0  0
  142.8380   79.2610  222.5610 N   0  0  0  0  0  0  0  0  0  0  0  0
  141.9170   79.3260  221.4280 C   0  0  0  0  0  0  0  0  0  0  0  0
  140.0900   77.0120  222.4650 C   0  0  0  0  0  0  0  0  0  0  0  0
  138.4250   75.2260  221.8240 C   0  0  0  0  0  0  0  0  0  0  0  0
  137.1830   75.8570  221.9670 C   0  0  0  0  0  0  0  0  0  0  0  0
  136.0620   75.0750  222.2850 C   0  0  0  0  0  0  0  0  0  0  0  0
  136.1970   73.6880  222.4700 C   0  0  0  0  0  0  0  0  0  0  0  0
  137.4500   73.0740  222.3300 C   0  0  0  0  0  0  0  0  0  0  0  0
  138.5490   73.8700  221.9810 C   0  0  0  0  0  0  0  0  0  0  0  0
  140.9894   72.8010  224.7272 H   0  0  0  0  0  0  0  0  0  0  0  0
  140.1716   69.2973  228.3818 H   0  0  0  0  0  0  0  0  0  0  0  0
  139.3109   67.4094  226.9789 H   0  0  0  0  0  0  0  0  0  0  0  0
  139.0986   67.6821  224.4814 H   0  0  0  0  0  0  0  0  0  0  0  0
  139.5090   69.4620  222.4510 H   0  0  0  0  0  0  0  0  0  0  0  0
  141.3865   74.7619  222.5671 H   0  0  0  0  0  0  0  0  0  0  0  0
  141.4158   74.5373  220.8120 H   0  0  0  0  0  0  0  0  0  0  0  0
  140.8033   76.3851  219.6964 H   0  0  0  0  0  0  0  0  0  0  0  0
  139.1074   75.9725  219.4448 H   0  0  0  0  0  0  0  0  0  0  0  0
  140.0791   78.5748  219.7429 H   0  0  0  0  0  0  0  0  0  0  0  0
  138.3874   78.1097  220.0814 H   0  0  0  0  0  0  0  0  0  0  0  0
  139.9404   80.2327  221.4654 H   0  0  0  0  0  0  0  0  0  0  0  0
  140.1390   80.6912  223.7432 H   0  0  0  0  0  0  0  0  0  0  0  0
  140.2832   78.9748  224.1279 H   0  0  0  0  0  0  0  0  0  0  0  0
  142.4261   81.0298  223.6277 H   0  0  0  0  0  0  0  0  0  0  0  0
  142.5049   79.5582  224.6282 H   0  0  0  0  0  0  0  0  0  0  0  0
  143.7230   79.7650  222.3160 H   0  0  0  0  0  0  0  0  0  0  0  0
  142.1477   80.2032  220.8057 H   0  0  0  0  0  0  0  0  0  0  0  0
  142.0093   78.4275  220.8001 H   0  0  0  0  0  0  0  0  0  0  0  0
  141.1724   77.0581  222.6557 H   0  0  0  0  0  0  0  0  0  0  0  0
  139.5809   76.8891  223.4323 H   0  0  0  0  0  0  0  0  0  0  0  0
  137.0880   76.9446  221.8326 H   0  0  0  0  0  0  0  0  0  0  0  0
  135.0748   75.5487  222.3898 H   0  0  0  0  0  0  0  0  0  0  0  0
  135.3157   73.0815  222.7258 H   0  0  0  0  0  0  0  0  0  0  0  0
  137.5674   71.9921  222.4905 H   0  0  0  0  0  0  0  0  0  0  0  0
  1  2  2  0
  2  3  1  0
  3  4  2  0
  4  5  1  0
  5  6  2  0
  6  7  1  0
  6  8  1  0
  8  9  2  0
  9 10  1  0
 10 11  2  0
 11 12  1  0
  2 13  1  0
 13 14  1  0
 15 14  1  6
 15 16  1  0
 16 17  1  0
 17 18  1  0
 18 19  1  0
 19 20  1  0
 20 21  1  0
 21 22  1  0
 22 23  1  0
 18 24  1  0
 15 25  1  0
 25 26  2  0
 26 27  1  0
 27 28  2  0
 28 29  1  0
 29 30  2  0
 12  3  1  0
 30 13  1  0
 11  5  1  0
 24 15  1  0
 30 25  1  0
 23 19  1  0
  4 31  1  0
  8 32  1  0
  9 33  1  0
 10 34  1  0
 12 35  1  0
 14 36  1  0
 14 37  1  0
 16 38  1  0
 16 39  1  0
 17 40  1  0
 17 41  1  0
 19 42  1  6
 20 43  1  0
 20 44  1  0
 21 45  1  0
 21 46  1  0
 22 47  1  0
 23 48  1  0
 23 49  1  0
 24 50  1  0
 24 51  1  0
 26 52  1  0
 27 53  1  0
 28 54  1  0
 29 55  1  0
M  END
>  <UniqueID>  (74) 
164

>  <SMILES>  (74) 
O=C(c1cc2c(Cl)cccc2[nH]1)N1C[C@@]2(CCN([C@H]3CCNC3)C2)c2ccccc21

>  <Energy>  (74) 
124.1942102318684

>  <Genealogy>  (74) 
O=C(c1cc2c(Cl)cccc2[nH]1)N1C[C@@]2(CCN([C@H]3CCNC3)C2)c2ccccc21 (chirality)
O=C(c1cc2c(Cl)cccc2[nH]1)N1C[C@@]2(CCN([C@H]3CCNC3)C2)c2ccccc21 (3D coordinates assigned)
O=C(c1cc2c(Cl)cccc2[nH]1)N1C[C@@]2(CCN([C@H]3CCNC3)C2)c2ccccc21 (nonaromatic ring conformer: 124.1942102318684 kcal/mol)

>  <smiles>  (74) 
O=C(c1cc2c(Cl)cccc2[nH]1)N1C[C@@]2(CCN(C3CCNC3)C2)c2ccccc21

>  <score_type>  (74) 
oracle

>  <origin>  (74) 
autodockgpu

>  <m_score__min__energy>  (74) 
-8.7400000000000002

>  <m_primary>  (74) 
energy

>  <meeko>  (74) 
{"free_energy": -8.73, "intermolecular_energy": -9.62, "internal_energy": -1.26, "cluster_size": 19, "cluster_id": 1, "rank_in_cluster": 11}

>  <energy>  (74) 
-8.72

>  <cluster_rmsd>  (74) 
0.04

>  <rmsd>  (74) 
271.79

>  <cluster>  (74) 
1

$$$$
KZWACXAMTSGJSU-FYSMJZIKNA-N
     RDKit          3D

 55 60  0  0  0  0  0  0  0  0999 V2000
  140.9660   71.5790  220.9310 O   0  0  0  0  0  0  0  0  0  0  0  0
  140.4310   72.1220  221.9340 C   0  0  0  0  0  0  0  0  0  0  0  0
  140.2800   71.3500  223.1810 C   0  0  0  0  0  0  0  0  0  0  0  0
  140.6130   71.8120  224.4530 C   0  0  0  0  0  0  0  0  0  0  0  0
  140.3300   70.7620  225.3010 C   0  0  0  0  0  0  0  0  0  0  0  0
  140.4590   70.6440  226.6860 C   0  0  0  0  0  0  0  0  0  0  0  0
  141.0640   71.9650  227.6700 Cl  0  0  0  0  0  0  0  0  0  0  0  0
  140.0870   69.4210  227.2770 C   0  0  0  0  0  0  0  0  0  0  0  0
  139.6020   68.3590  226.4820 C   0  0  0  0  0  0  0  0  0  0  0  0
  139.4840   68.5090  225.0880 C   0  0  0  0  0  0  0  0  0  0  0  0
  139.8580   69.7300  224.5300 C   0  0  0  0  0  0  0  0  0  0  0  0
  139.8260   70.0740  223.2330 N   0  0  0  0  0  0  0  0  0  0  0  0
  139.9340   73.4620  221.8280 N   0  0  0  0  0  0  0  0  0  0  0  0
  140.7900   74.6380  221.6790 C   0  0  0  0  0  0  0  0  0  0  0  0
  139.8180   75.8550  221.5280 C   0  0  2  0  0  0  0  0  0  0  0  0
  139.8550   76.4860  220.1390 C   0  0  0  0  0  0  0  0  0  0  0  0
  139.4960   77.9480  220.3640 C   0  0  0  0  0  0  0  0  0  0  0  0
  139.6990   78.2560  221.7920 N   0  0  0  0  0  0  0  0  0  0  0  0
  140.5550   79.4530  222.0080 C   0  0  1  0  0  0  0  0  0  0  0  0
  140.7350   79.7750  223.4900 C   0  0  0  0  0  0  0  0  0  0  0  0
  142.2320   79.9560  223.6760 C   0  0  0  0  0  0  0  0  0  0  0  0
  142.8960   79.2570  222.5810 N   0  0  0  0  0  0  0  0  0  0  0  0
  141.9800   79.3280  221.4440 C   0  0  0  0  0  0  0  0  0  0  0  0
  140.1400   77.0200  222.4670 C   0  0  0  0  0  0  0  0  0  0  0  0
  138.4700   75.2430  221.8160 C   0  0  0  0  0  0  0  0  0  0  0  0
  137.2290   75.8780  221.9580 C   0  0  0  0  0  0  0  0  0  0  0  0
  136.1050   75.1000  222.2710 C   0  0  0  0  0  0  0  0  0  0  0  0
  136.2340   73.7110  222.4530 C   0  0  0  0  0  0  0  0  0  0  0  0
  137.4850   73.0930  222.3140 C   0  0  0  0  0  0  0  0  0  0  0  0
  138.5880   73.8850  221.9710 C   0  0  0  0  0  0  0  0  0  0  0  0
  141.0146   72.8001  224.7222 H   0  0  0  0  0  0  0  0  0  0  0  0
  140.1748   69.2918  228.3658 H   0  0  0  0  0  0  0  0  0  0  0  0
  139.3148   67.4087  226.9557 H   0  0  0  0  0  0  0  0  0  0  0  0
  139.1085   67.6887  224.4587 H   0  0  0  0  0  0  0  0  0  0  0  0
  139.5310   69.4710  222.4330 H   0  0  0  0  0  0  0  0  0  0  0  0
  141.4265   74.7638  222.5673 H   0  0  0  0  0  0  0  0  0  0  0  0
  141.4600   74.5444  220.8116 H   0  0  0  0  0  0  0  0  0  0  0  0
  140.8597   76.3972  219.7001 H   0  0  0  0  0  0  0  0  0  0  0  0
  139.1630   75.9921  219.4410 H   0  0  0  0  0  0  0  0  0  0  0  0
  140.1436   78.5898  219.7486 H   0  0  0  0  0  0  0  0  0  0  0  0
  138.4491   78.1310  220.0801 H   0  0  0  0  0  0  0  0  0  0  0  0
  140.0068   80.2421  221.4724 H   0  0  0  0  0  0  0  0  0  0  0  0
  140.1986   80.6988  223.7525 H   0  0  0  0  0  0  0  0  0  0  0  0
  140.3321   78.9814  224.1364 H   0  0  0  0  0  0  0  0  0  0  0  0
  142.4875   81.0256  223.6490 H   0  0  0  0  0  0  0  0  0  0  0  0
  142.5542   79.5514  224.6468 H   0  0  0  0  0  0  0  0  0  0  0  0
  143.7840   79.7570  222.3410 H   0  0  0  0  0  0  0  0  0  0  0  0
  142.2173   80.2053  220.8243 H   0  0  0  0  0  0  0  0  0  0  0  0
  142.0713   78.4300  220.8153 H   0  0  0  0  0  0  0  0  0  0  0  0
  141.2222   77.0610  222.6600 H   0  0  0  0  0  0  0  0  0  0  0  0
  139.6281   76.8974  223.4329 H   0  0  0  0  0  0  0  0  0  0  0  0
  137.1382   76.9663  221.8264 H   0  0  0  0  0  0  0  0  0  0  0  0
  135.1194   75.5773  222.3745 H   0  0  0  0  0  0  0  0  0  0  0  0
  135.3498   73.1072  222.7054 H   0  0  0  0  0  0  0  0  0  0  0  0
  137.5976   72.0101  222.4709 H   0  0  0  0  0  0  0  0  0  0  0  0
  1  2  2  0
  2  3  1  0
  3  4  2  0
  4  5  1  0
  5  6  2  0
  6  7  1  0
  6  8  1  0
  8  9  2  0
  9 10  1  0
 10 11  2  0
 11 12  1  0
  2 13  1  0
 13 14  1  0
 15 14  1  6
 15 16  1  0
 16 17  1  0
 17 18  1  0
 18 19  1  0
 19 20  1  0
 20 21  1  0
 21 22  1  0
 22 23  1  0
 18 24  1  0
 15 25  1  0
 25 26  2  0
 26 27  1  0
 27 28  2  0
 28 29  1  0
 29 30  2  0
 12  3  1  0
 30 13  1  0
 11  5  1  0
 24 15  1  0
 30 25  1  0
 23 19  1  0
  4 31  1  0
  8 32  1  0
  9 33  1  0
 10 34  1  0
 12 35  1  0
 14 36  1  0
 14 37  1  0
 16 38  1  0
 16 39  1  0
 17 40  1  0
 17 41  1  0
 19 42  1  6
 20 43  1  0
 20 44  1  0
 21 45  1  0
 21 46  1  0
 22 47  1  0
 23 48  1  0
 23 49  1  0
 24 50  1  0
 24 51  1  0
 26 52  1  0
 27 53  1  0
 28 54  1  0
 29 55  1  0
M  END
>  <UniqueID>  (75) 
164

>  <SMILES>  (75) 
O=C(c1cc2c(Cl)cccc2[nH]1)N1C[C@@]2(CCN([C@H]3CCNC3)C2)c2ccccc21

>  <Energy>  (75) 
124.1942102318684

>  <Genealogy>  (75) 
O=C(c1cc2c(Cl)cccc2[nH]1)N1C[C@@]2(CCN([C@H]3CCNC3)C2)c2ccccc21 (chirality)
O=C(c1cc2c(Cl)cccc2[nH]1)N1C[C@@]2(CCN([C@H]3CCNC3)C2)c2ccccc21 (3D coordinates assigned)
O=C(c1cc2c(Cl)cccc2[nH]1)N1C[C@@]2(CCN([C@H]3CCNC3)C2)c2ccccc21 (nonaromatic ring conformer: 124.1942102318684 kcal/mol)

>  <smiles>  (75) 
O=C(c1cc2c(Cl)cccc2[nH]1)N1C[C@@]2(CCN(C3CCNC3)C2)c2ccccc21

>  <score_type>  (75) 
oracle

>  <origin>  (75) 
autodockgpu

>  <m_score__min__energy>  (75) 
-8.7400000000000002

>  <m_primary>  (75) 
energy

>  <meeko>  (75) 
{"free_energy": -8.73, "intermolecular_energy": -9.62, "internal_energy": -1.26, "cluster_size": 19, "cluster_id": 1, "rank_in_cluster": 13}

>  <energy>  (75) 
-8.72

>  <cluster_rmsd>  (75) 
0.06

>  <rmsd>  (75) 
271.81

>  <cluster>  (75) 
1

$$$$
KZWACXAMTSGJSU-FYSMJZIKNA-N
     RDKit          3D

 55 60  0  0  0  0  0  0  0  0999 V2000
  141.0830   71.6350  220.9900 O   0  0  0  0  0  0  0  0  0  0  0  0
  140.4940   72.1630  221.9710 C   0  0  0  0  0  0  0  0  0  0  0  0
  140.3060   71.3840  223.2090 C   0  0  0  0  0  0  0  0  0  0  0  0
  140.6390   71.8230  224.4880 C   0  0  0  0  0  0  0  0  0  0  0  0
  140.3140   70.7750  225.3230 C   0  0  0  0  0  0  0  0  0  0  0  0
  140.4250   70.6380  226.7080 C   0  0  0  0  0  0  0  0  0  0  0  0
  141.0600   71.9310  227.7120 Cl  0  0  0  0  0  0  0  0  0  0  0  0
  140.0080   69.4220  227.2830 C   0  0  0  0  0  0  0  0  0  0  0  0
  139.4980   68.3840  226.4710 C   0  0  0  0  0  0  0  0  0  0  0  0
  139.4000   68.5510  225.0780 C   0  0  0  0  0  0  0  0  0  0  0  0
  139.8190   69.7650  224.5370 C   0  0  0  0  0  0  0  0  0  0  0  0
  139.8120   70.1230  223.2430 N   0  0  0  0  0  0  0  0  0  0  0  0
  139.9740   73.4940  221.8470 N   0  0  0  0  0  0  0  0  0  0  0  0
  140.8100   74.6830  221.6900 C   0  0  0  0  0  0  0  0  0  0  0  0
  139.8180   75.8800  221.5190 C   0  0  2  0  0  0  0  0  0  0  0  0
  139.8530   76.4970  220.1240 C   0  0  0  0  0  0  0  0  0  0  0  0
  139.4670   77.9540  220.3310 C   0  0  0  0  0  0  0  0  0  0  0  0
  139.6540   78.2810  221.7570 N   0  0  0  0  0  0  0  0  0  0  0  0
  140.4880   79.4960  221.9650 C   0  0  1  0  0  0  0  0  0  0  0  0
  140.7120   79.7950  223.4450 C   0  0  0  0  0  0  0  0  0  0  0  0
  142.2100   80.0110  223.5820 C   0  0  0  0  0  0  0  0  0  0  0  0
  142.8520   79.3490  222.4510 N   0  0  0  0  0  0  0  0  0  0  0  0
  141.8950   79.4170  221.3490 C   0  0  0  0  0  0  0  0  0  0  0  0
  140.1130   77.0610  222.4480 C   0  0  0  0  0  0  0  0  0  0  0  0
  138.4790   75.2470  221.8060 C   0  0  0  0  0  0  0  0  0  0  0  0
  137.2260   75.8630  221.9320 C   0  0  0  0  0  0  0  0  0  0  0  0
  136.1140   75.0680  222.2460 C   0  0  0  0  0  0  0  0  0  0  0  0
  136.2660   73.6840  222.4440 C   0  0  0  0  0  0  0  0  0  0  0  0
  137.5280   73.0870  222.3210 C   0  0  0  0  0  0  0  0  0  0  0  0
  138.6200   73.8940  221.9760 C   0  0  0  0  0  0  0  0  0  0  0  0
  141.0684   72.7954  224.7709 H   0  0  0  0  0  0  0  0  0  0  0  0
  140.0797   69.2792  228.3713 H   0  0  0  0  0  0  0  0  0  0  0  0
  139.1754   67.4387  226.9317 H   0  0  0  0  0  0  0  0  0  0  0  0
  139.0054   67.7494  224.4363 H   0  0  0  0  0  0  0  0  0  0  0  0
  139.5050   69.5380  222.4340 H   0  0  0  0  0  0  0  0  0  0  0  0
  141.4383   74.8301  222.5808 H   0  0  0  0  0  0  0  0  0  0  0  0
  141.4873   74.5915  220.8281 H   0  0  0  0  0  0  0  0  0  0  0  0
  140.8620   76.4214  219.6925 H   0  0  0  0  0  0  0  0  0  0  0  0
  139.1744   75.9837  219.4269 H   0  0  0  0  0  0  0  0  0  0  0  0
  140.1077   78.6005  219.7134 H   0  0  0  0  0  0  0  0  0  0  0  0
  138.4191   78.1153  220.0379 H   0  0  0  0  0  0  0  0  0  0  0  0
  139.9026   80.2807  221.4636 H   0  0  0  0  0  0  0  0  0  0  0  0
  140.1623   80.6997  223.7439 H   0  0  0  0  0  0  0  0  0  0  0  0
  140.3521   78.9796  224.0897 H   0  0  0  0  0  0  0  0  0  0  0  0
  142.4376   81.0871  223.5664 H   0  0  0  0  0  0  0  0  0  0  0  0
  142.5765   79.5973  224.5331 H   0  0  0  0  0  0  0  0  0  0  0  0
  143.7180   79.8760  222.1900 H   0  0  0  0  0  0  0  0  0  0  0  0
  142.0885   80.3109  220.7378 H   0  0  0  0  0  0  0  0  0  0  0  0
  141.9859   78.5328  220.7010 H   0  0  0  0  0  0  0  0  0  0  0  0
  141.1930   77.1238  222.6473 H   0  0  0  0  0  0  0  0  0  0  0  0
  139.5975   76.9394  223.4121 H   0  0  0  0  0  0  0  0  0  0  0  0
  137.1171   76.9480  221.7875 H   0  0  0  0  0  0  0  0  0  0  0  0
  135.1193   75.5287  222.3377 H   0  0  0  0  0  0  0  0  0  0  0  0
  135.3907   73.0675  222.6965 H   0  0  0  0  0  0  0  0  0  0  0  0
  137.6583   72.0082  222.4916 H   0  0  0  0  0  0  0  0  0  0  0  0
  1  2  2  0
  2  3  1  0
  3  4  2  0
  4  5  1  0
  5  6  2  0
  6  7  1  0
  6  8  1  0
  8  9  2  0
  9 10  1  0
 10 11  2  0
 11 12  1  0
  2 13  1  0
 13 14  1  0
 15 14  1  6
 15 16  1  0
 16 17  1  0
 17 18  1  0
 18 19  1  0
 19 20  1  0
 20 21  1  0
 21 22  1  0
 22 23  1  0
 18 24  1  0
 15 25  1  0
 25 26  2  0
 26 27  1  0
 27 28  2  0
 28 29  1  0
 29 30  2  0
 12  3  1  0
 30 13  1  0
 11  5  1  0
 24 15  1  0
 30 25  1  0
 23 19  1  0
  4 31  1  0
  8 32  1  0
  9 33  1  0
 10 34  1  0
 12 35  1  0
 14 36  1  0
 14 37  1  0
 16 38  1  0
 16 39  1  0
 17 40  1  0
 17 41  1  0
 19 42  1  6
 20 43  1  0
 20 44  1  0
 21 45  1  0
 21 46  1  0
 22 47  1  0
 23 48  1  0
 23 49  1  0
 24 50  1  0
 24 51  1  0
 26 52  1  0
 27 53  1  0
 28 54  1  0
 29 55  1  0
M  END
>  <UniqueID>  (76) 
164

>  <SMILES>  (76) 
O=C(c1cc2c(Cl)cccc2[nH]1)N1C[C@@]2(CCN([C@H]3CCNC3)C2)c2ccccc21

>  <Energy>  (76) 
124.1942102318684

>  <Genealogy>  (76) 
O=C(c1cc2c(Cl)cccc2[nH]1)N1C[C@@]2(CCN([C@H]3CCNC3)C2)c2ccccc21 (chirality)
O=C(c1cc2c(Cl)cccc2[nH]1)N1C[C@@]2(CCN([C@H]3CCNC3)C2)c2ccccc21 (3D coordinates assigned)
O=C(c1cc2c(Cl)cccc2[nH]1)N1C[C@@]2(CCN([C@H]3CCNC3)C2)c2ccccc21 (nonaromatic ring conformer: 124.1942102318684 kcal/mol)

>  <smiles>  (76) 
O=C(c1cc2c(Cl)cccc2[nH]1)N1C[C@@]2(CCN(C3CCNC3)C2)c2ccccc21

>  <score_type>  (76) 
oracle

>  <origin>  (76) 
autodockgpu

>  <m_score__min__energy>  (76) 
-8.7400000000000002

>  <m_primary>  (76) 
energy

>  <meeko>  (76) 
{"free_energy": -8.72, "intermolecular_energy": -9.61, "internal_energy": -1.25, "cluster_size": 19, "cluster_id": 1, "rank_in_cluster": 16}

>  <energy>  (76) 
-8.72

>  <cluster_rmsd>  (76) 
0.07

>  <rmsd>  (76) 
271.8

>  <cluster>  (76) 
1

$$$$
KZWACXAMTSGJSU-FYSMJZIKNA-N
     RDKit          3D

 55 60  0  0  0  0  0  0  0  0999 V2000
  141.0320   71.5840  220.9610 O   0  0  0  0  0  0  0  0  0  0  0  0
  140.4690   72.1200  221.9530 C   0  0  0  0  0  0  0  0  0  0  0  0
  140.3040   71.3480  223.1980 C   0  0  0  0  0  0  0  0  0  0  0  0
  140.6390   71.8030  224.4710 C   0  0  0  0  0  0  0  0  0  0  0  0
  140.3400   70.7550  225.3170 C   0  0  0  0  0  0  0  0  0  0  0  0
  140.4640   70.6320  226.7020 C   0  0  0  0  0  0  0  0  0  0  0  0
  141.0820   71.9440  227.6910 Cl  0  0  0  0  0  0  0  0  0  0  0  0
  140.0740   69.4130  227.2890 C   0  0  0  0  0  0  0  0  0  0  0  0
  139.5770   68.3590  226.4900 C   0  0  0  0  0  0  0  0  0  0  0  0
  139.4660   68.5130  225.0960 C   0  0  0  0  0  0  0  0  0  0  0  0
  139.8580   69.7310  224.5420 C   0  0  0  0  0  0  0  0  0  0  0  0
  139.8340   70.0780  223.2450 N   0  0  0  0  0  0  0  0  0  0  0  0
  139.9550   73.4540  221.8350 N   0  0  0  0  0  0  0  0  0  0  0  0
  140.7960   74.6390  221.6740 C   0  0  0  0  0  0  0  0  0  0  0  0
  139.8090   75.8420  221.5130 C   0  0  2  0  0  0  0  0  0  0  0  0
  139.8360   76.4600  220.1180 C   0  0  0  0  0  0  0  0  0  0  0  0
  139.4590   77.9190  220.3310 C   0  0  0  0  0  0  0  0  0  0  0  0
  139.6590   78.2430  221.7550 N   0  0  0  0  0  0  0  0  0  0  0  0
  140.5000   79.4530  221.9600 C   0  0  1  0  0  0  0  0  0  0  0  0
  140.6960   79.7770  223.4390 C   0  0  0  0  0  0  0  0  0  0  0  0
  142.1930   79.9810  223.6040 C   0  0  0  0  0  0  0  0  0  0  0  0
  142.8520   79.2920  222.5000 N   0  0  0  0  0  0  0  0  0  0  0  0
  141.9190   79.3490  221.3760 C   0  0  0  0  0  0  0  0  0  0  0  0
  140.1170   77.0190  222.4420 C   0  0  0  0  0  0  0  0  0  0  0  0
  138.4690   75.2150  221.8080 C   0  0  0  0  0  0  0  0  0  0  0  0
  137.2200   75.8360  221.9450 C   0  0  0  0  0  0  0  0  0  0  0  0
  136.1060   75.0470  222.2660 C   0  0  0  0  0  0  0  0  0  0  0  0
  136.2520   73.6610  222.4600 C   0  0  0  0  0  0  0  0  0  0  0  0
  137.5110   73.0580  222.3260 C   0  0  0  0  0  0  0  0  0  0  0  0
  138.6040   73.8610  221.9750 C   0  0  0  0  0  0  0  0  0  0  0  0
  141.0525   72.7854  224.7430 H   0  0  0  0  0  0  0  0  0  0  0  0
  140.1569   69.2803  228.3778 H   0  0  0  0  0  0  0  0  0  0  0  0
  139.2749   67.4119  226.9609 H   0  0  0  0  0  0  0  0  0  0  0  0
  139.0824   67.6988  224.4636 H   0  0  0  0  0  0  0  0  0  0  0  0
  139.5330   69.4800  222.4430 H   0  0  0  0  0  0  0  0  0  0  0  0
  141.4319   74.7810  222.5603 H   0  0  0  0  0  0  0  0  0  0  0  0
  141.4661   74.5456  220.8067 H   0  0  0  0  0  0  0  0  0  0  0  0
  140.8411   76.3798  219.6782 H   0  0  0  0  0  0  0  0  0  0  0  0
  139.1497   75.9510  219.4253 H   0  0  0  0  0  0  0  0  0  0  0  0
  140.0979   78.5633  219.7092 H   0  0  0  0  0  0  0  0  0  0  0  0
  138.4094   78.0857  220.0471 H   0  0  0  0  0  0  0  0  0  0  0  0
  139.9326   80.2342  221.4329 H   0  0  0  0  0  0  0  0  0  0  0  0
  140.1493   80.6923  223.7097 H   0  0  0  0  0  0  0  0  0  0  0  0
  140.3145   78.9770  224.0905 H   0  0  0  0  0  0  0  0  0  0  0  0
  142.4317   81.0543  223.5733 H   0  0  0  0  0  0  0  0  0  0  0  0
  142.5350   79.5817  224.5702 H   0  0  0  0  0  0  0  0  0  0  0  0
  143.7290   79.8050  222.2480 H   0  0  0  0  0  0  0  0  0  0  0  0
  142.1345   80.2296  220.7530 H   0  0  0  0  0  0  0  0  0  0  0  0
  142.0147   78.4522  220.7463 H   0  0  0  0  0  0  0  0  0  0  0  0
  141.1987   77.0758  222.6338 H   0  0  0  0  0  0  0  0  0  0  0  0
  139.6083   76.8985  223.4098 H   0  0  0  0  0  0  0  0  0  0  0  0
  137.1155   76.9218  221.8034 H   0  0  0  0  0  0  0  0  0  0  0  0
  135.1147   75.5132  222.3665 H   0  0  0  0  0  0  0  0  0  0  0  0
  135.3755   73.0483  222.7177 H   0  0  0  0  0  0  0  0  0  0  0  0
  137.6376   71.9781  222.4928 H   0  0  0  0  0  0  0  0  0  0  0  0
  1  2  2  0
  2  3  1  0
  3  4  2  0
  4  5  1  0
  5  6  2  0
  6  7  1  0
  6  8  1  0
  8  9  2  0
  9 10  1  0
 10 11  2  0
 11 12  1  0
  2 13  1  0
 13 14  1  0
 15 14  1  6
 15 16  1  0
 16 17  1  0
 17 18  1  0
 18 19  1  0
 19 20  1  0
 20 21  1  0
 21 22  1  0
 22 23  1  0
 18 24  1  0
 15 25  1  0
 25 26  2  0
 26 27  1  0
 27 28  2  0
 28 29  1  0
 29 30  2  0
 12  3  1  0
 30 13  1  0
 11  5  1  0
 24 15  1  0
 30 25  1  0
 23 19  1  0
  4 31  1  0
  8 32  1  0
  9 33  1  0
 10 34  1  0
 12 35  1  0
 14 36  1  0
 14 37  1  0
 16 38  1  0
 16 39  1  0
 17 40  1  0
 17 41  1  0
 19 42  1  6
 20 43  1  0
 20 44  1  0
 21 45  1  0
 21 46  1  0
 22 47  1  0
 23 48  1  0
 23 49  1  0
 24 50  1  0
 24 51  1  0
 26 52  1  0
 27 53  1  0
 28 54  1  0
 29 55  1  0
M  END
>  <UniqueID>  (77) 
164

>  <SMILES>  (77) 
O=C(c1cc2c(Cl)cccc2[nH]1)N1C[C@@]2(CCN([C@H]3CCNC3)C2)c2ccccc21

>  <Energy>  (77) 
124.1942102318684

>  <Genealogy>  (77) 
O=C(c1cc2c(Cl)cccc2[nH]1)N1C[C@@]2(CCN([C@H]3CCNC3)C2)c2ccccc21 (chirality)
O=C(c1cc2c(Cl)cccc2[nH]1)N1C[C@@]2(CCN([C@H]3CCNC3)C2)c2ccccc21 (3D coordinates assigned)
O=C(c1cc2c(Cl)cccc2[nH]1)N1C[C@@]2(CCN([C@H]3CCNC3)C2)c2ccccc21 (nonaromatic ring conformer: 124.1942102318684 kcal/mol)

>  <smiles>  (77) 
O=C(c1cc2c(Cl)cccc2[nH]1)N1C[C@@]2(CCN(C3CCNC3)C2)c2ccccc21

>  <score_type>  (77) 
oracle

>  <origin>  (77) 
autodockgpu

>  <m_score__min__energy>  (77) 
-8.7400000000000002

>  <m_primary>  (77) 
energy

>  <meeko>  (77) 
{"free_energy": -8.72, "intermolecular_energy": -9.62, "internal_energy": -1.26, "cluster_size": 19, "cluster_id": 1, "rank_in_cluster": 14}

>  <energy>  (77) 
-8.7

>  <cluster_rmsd>  (77) 
0.18

>  <rmsd>  (77) 
271.82

>  <cluster>  (77) 
1

$$$$
KZWACXAMTSGJSU-FYSMJZIKNA-N
     RDKit          3D

 55 60  0  0  0  0  0  0  0  0999 V2000
  141.0220   71.5630  220.9670 O   0  0  0  0  0  0  0  0  0  0  0  0
  140.4580   72.1000  221.9570 C   0  0  0  0  0  0  0  0  0  0  0  0
  140.2950   71.3300  223.2040 C   0  0  0  0  0  0  0  0  0  0  0  0
  140.6280   71.7900  224.4760 C   0  0  0  0  0  0  0  0  0  0  0  0
  140.3320   70.7430  225.3240 C   0  0  0  0  0  0  0  0  0  0  0  0
  140.4570   70.6230  226.7100 C   0  0  0  0  0  0  0  0  0  0  0  0
  141.0710   71.9390  227.6950 Cl  0  0  0  0  0  0  0  0  0  0  0  0
  140.0710   69.4040  227.3000 C   0  0  0  0  0  0  0  0  0  0  0  0
  139.5770   68.3480  226.5030 C   0  0  0  0  0  0  0  0  0  0  0  0
  139.4650   68.4980  225.1100 C   0  0  0  0  0  0  0  0  0  0  0  0
  139.8530   69.7150  224.5520 C   0  0  0  0  0  0  0  0  0  0  0  0
  139.8290   70.0590  223.2550 N   0  0  0  0  0  0  0  0  0  0  0  0
  139.9390   73.4310  221.8360 N   0  0  0  0  0  0  0  0  0  0  0  0
  140.7760   74.6190  221.6710 C   0  0  0  0  0  0  0  0  0  0  0  0
  139.7850   75.8180  221.5070 C   0  0  2  0  0  0  0  0  0  0  0  0
  139.8080   76.4320  220.1100 C   0  0  0  0  0  0  0  0  0  0  0  0
  139.4270   77.8910  220.3190 C   0  0  0  0  0  0  0  0  0  0  0  0
  139.6270   78.2190  221.7430 N   0  0  0  0  0  0  0  0  0  0  0  0
  140.4640   79.4320  221.9430 C   0  0  1  0  0  0  0  0  0  0  0  0
  140.6200   79.7900  223.4190 C   0  0  0  0  0  0  0  0  0  0  0  0
  142.1120   79.9960  223.6200 C   0  0  0  0  0  0  0  0  0  0  0  0
  142.8000   79.2810  222.5500 N   0  0  0  0  0  0  0  0  0  0  0  0
  141.8990   79.3140  221.4010 C   0  0  0  0  0  0  0  0  0  0  0  0
  140.0890   76.9990  222.4320 C   0  0  0  0  0  0  0  0  0  0  0  0
  138.4470   75.1880  221.8050 C   0  0  0  0  0  0  0  0  0  0  0  0
  137.1960   75.8050  221.9420 C   0  0  0  0  0  0  0  0  0  0  0  0
  136.0850   75.0130  222.2660 C   0  0  0  0  0  0  0  0  0  0  0  0
  136.2360   73.6280  222.4640 C   0  0  0  0  0  0  0  0  0  0  0  0
  137.4960   73.0290  222.3310 C   0  0  0  0  0  0  0  0  0  0  0  0
  138.5860   73.8340  221.9760 C   0  0  0  0  0  0  0  0  0  0  0  0
  141.0380   72.7745  224.7457 H   0  0  0  0  0  0  0  0  0  0  0  0
  140.1548   69.2734  228.3890 H   0  0  0  0  0  0  0  0  0  0  0  0
  139.2776   67.4010  226.9759 H   0  0  0  0  0  0  0  0  0  0  0  0
  139.0833   67.6810  224.4801 H   0  0  0  0  0  0  0  0  0  0  0  0
  139.5290   69.4590  222.4540 H   0  0  0  0  0  0  0  0  0  0  0  0
  141.4118   74.7658  222.5565 H   0  0  0  0  0  0  0  0  0  0  0  0
  141.4459   74.5254  220.8035 H   0  0  0  0  0  0  0  0  0  0  0  0
  140.8126   76.3534  219.6689 H   0  0  0  0  0  0  0  0  0  0  0  0
  139.1220   75.9189  219.4200 H   0  0  0  0  0  0  0  0  0  0  0  0
  140.0639   78.5354  219.6952 H   0  0  0  0  0  0  0  0  0  0  0  0
  138.3770   78.0544  220.0348 H   0  0  0  0  0  0  0  0  0  0  0  0
  139.9123   80.2007  221.3821 H   0  0  0  0  0  0  0  0  0  0  0  0
  140.0677   80.7120  223.6534 H   0  0  0  0  0  0  0  0  0  0  0  0
  140.2194   79.0058  224.0782 H   0  0  0  0  0  0  0  0  0  0  0  0
  142.3533   81.0681  223.5713 H   0  0  0  0  0  0  0  0  0  0  0  0
  142.4268   79.6184  224.6040 H   0  0  0  0  0  0  0  0  0  0  0  0
  143.6840   79.7880  222.3110 H   0  0  0  0  0  0  0  0  0  0  0  0
  142.1328   80.1805  220.7649 H   0  0  0  0  0  0  0  0  0  0  0  0
  142.0107   78.4033  220.7943 H   0  0  0  0  0  0  0  0  0  0  0  0
  141.1706   77.0601  222.6231 H   0  0  0  0  0  0  0  0  0  0  0  0
  139.5805   76.8794  223.4001 H   0  0  0  0  0  0  0  0  0  0  0  0
  137.0877   76.8902  221.7981 H   0  0  0  0  0  0  0  0  0  0  0  0
  135.0922   75.4760  222.3657 H   0  0  0  0  0  0  0  0  0  0  0  0
  135.3617   73.0132  222.7242 H   0  0  0  0  0  0  0  0  0  0  0  0
  137.6262   71.9501  222.5017 H   0  0  0  0  0  0  0  0  0  0  0  0
  1  2  2  0
  2  3  1  0
  3  4  2  0
  4  5  1  0
  5  6  2  0
  6  7  1  0
  6  8  1  0
  8  9  2  0
  9 10  1  0
 10 11  2  0
 11 12  1  0
  2 13  1  0
 13 14  1  0
 15 14  1  6
 15 16  1  0
 16 17  1  0
 17 18  1  0
 18 19  1  0
 19 20  1  0
 20 21  1  0
 21 22  1  0
 22 23  1  0
 18 24  1  0
 15 25  1  0
 25 26  2  0
 26 27  1  0
 27 28  2  0
 28 29  1  0
 29 30  2  0
 12  3  1  0
 30 13  1  0
 11  5  1  0
 24 15  1  0
 30 25  1  0
 23 19  1  0
  4 31  1  0
  8 32  1  0
  9 33  1  0
 10 34  1  0
 12 35  1  0
 14 36  1  0
 14 37  1  0
 16 38  1  0
 16 39  1  0
 17 40  1  0
 17 41  1  0
 19 42  1  6
 20 43  1  0
 20 44  1  0
 21 45  1  0
 21 46  1  0
 22 47  1  0
 23 48  1  0
 23 49  1  0
 24 50  1  0
 24 51  1  0
 26 52  1  0
 27 53  1  0
 28 54  1  0
 29 55  1  0
M  END
>  <UniqueID>  (78) 
164

>  <SMILES>  (78) 
O=C(c1cc2c(Cl)cccc2[nH]1)N1C[C@@]2(CCN([C@H]3CCNC3)C2)c2ccccc21

>  <Energy>  (78) 
124.1942102318684

>  <Genealogy>  (78) 
O=C(c1cc2c(Cl)cccc2[nH]1)N1C[C@@]2(CCN([C@H]3CCNC3)C2)c2ccccc21 (chirality)
O=C(c1cc2c(Cl)cccc2[nH]1)N1C[C@@]2(CCN([C@H]3CCNC3)C2)c2ccccc21 (3D coordinates assigned)
O=C(c1cc2c(Cl)cccc2[nH]1)N1C[C@@]2(CCN([C@H]3CCNC3)C2)c2ccccc21 (nonaromatic ring conformer: 124.1942102318684 kcal/mol)

>  <smiles>  (78) 
O=C(c1cc2c(Cl)cccc2[nH]1)N1C[C@@]2(CCN(C3CCNC3)C2)c2ccccc21

>  <score_type>  (78) 
oracle

>  <origin>  (78) 
autodockgpu

>  <m_score__min__energy>  (78) 
-8.7400000000000002

>  <m_primary>  (78) 
energy

>  <meeko>  (78) 
{"free_energy": -8.73, "intermolecular_energy": -9.63, "internal_energy": -1.25, "cluster_size": 19, "cluster_id": 1, "rank_in_cluster": 7}

>  <energy>  (78) 
-8.69

>  <cluster_rmsd>  (78) 
0.25

>  <rmsd>  (78) 
271.82

>  <cluster>  (78) 
1

$$$$
KZWACXAMTSGJSU-FYSMJZIKNA-N
     RDKit          3D

 55 60  0  0  0  0  0  0  0  0999 V2000
  140.9990   71.5540  220.9630 O   0  0  0  0  0  0  0  0  0  0  0  0
  140.4370   72.0910  221.9550 C   0  0  0  0  0  0  0  0  0  0  0  0
  140.2680   71.3180  223.1990 C   0  0  0  0  0  0  0  0  0  0  0  0
  140.6050   71.7710  224.4730 C   0  0  0  0  0  0  0  0  0  0  0  0
  140.3010   70.7230  225.3170 C   0  0  0  0  0  0  0  0  0  0  0  0
  140.4240   70.5980  226.7020 C   0  0  0  0  0  0  0  0  0  0  0  0
  141.0490   71.9060  227.6920 Cl  0  0  0  0  0  0  0  0  0  0  0  0
  140.0280   69.3800  227.2880 C   0  0  0  0  0  0  0  0  0  0  0  0
  139.5270   68.3300  226.4880 C   0  0  0  0  0  0  0  0  0  0  0  0
  139.4160   68.4860  225.0950 C   0  0  0  0  0  0  0  0  0  0  0  0
  139.8140   69.7020  224.5420 C   0  0  0  0  0  0  0  0  0  0  0  0
  139.7920   70.0510  223.2450 N   0  0  0  0  0  0  0  0  0  0  0  0
  139.9270   73.4260  221.8370 N   0  0  0  0  0  0  0  0  0  0  0  0
  140.7720   74.6090  221.6840 C   0  0  0  0  0  0  0  0  0  0  0  0
  139.7880   75.8150  221.5200 C   0  0  2  0  0  0  0  0  0  0  0  0
  139.8250   76.4370  220.1270 C   0  0  0  0  0  0  0  0  0  0  0  0
  139.4510   77.8960  220.3400 C   0  0  0  0  0  0  0  0  0  0  0  0
  139.6430   78.2160  221.7670 N   0  0  0  0  0  0  0  0  0  0  0  0
  140.4870   79.4230  221.9790 C   0  0  1  0  0  0  0  0  0  0  0  0
  140.6600   79.7550  223.4590 C   0  0  0  0  0  0  0  0  0  0  0  0
  142.1540   79.9530  223.6470 C   0  0  0  0  0  0  0  0  0  0  0  0
  142.8290   79.2550  222.5580 N   0  0  0  0  0  0  0  0  0  0  0  0
  141.9150   79.3100  221.4190 C   0  0  0  0  0  0  0  0  0  0  0  0
  140.0940   76.9900  222.4530 C   0  0  0  0  0  0  0  0  0  0  0  0
  138.4450   75.1910  221.8070 C   0  0  0  0  0  0  0  0  0  0  0  0
  137.1970   75.8150  221.9380 C   0  0  0  0  0  0  0  0  0  0  0  0
  136.0790   75.0280  222.2510 C   0  0  0  0  0  0  0  0  0  0  0  0
  136.2210   73.6420  222.4430 C   0  0  0  0  0  0  0  0  0  0  0  0
  137.4790   73.0360  222.3150 C   0  0  0  0  0  0  0  0  0  0  0  0
  138.5750   73.8360  221.9710 C   0  0  0  0  0  0  0  0  0  0  0  0
  141.0227   72.7512  224.7463 H   0  0  0  0  0  0  0  0  0  0  0  0
  140.1096   69.2458  228.3767 H   0  0  0  0  0  0  0  0  0  0  0  0
  139.2214   67.3834  226.9577 H   0  0  0  0  0  0  0  0  0  0  0  0
  139.0276   67.6745  224.4620 H   0  0  0  0  0  0  0  0  0  0  0  0
  139.4870   69.4550  222.4430 H   0  0  0  0  0  0  0  0  0  0  0  0
  141.4029   74.7473  222.5744 H   0  0  0  0  0  0  0  0  0  0  0  0
  141.4474   74.5162  220.8207 H   0  0  0  0  0  0  0  0  0  0  0  0
  140.8325   76.3551  219.6932 H   0  0  0  0  0  0  0  0  0  0  0  0
  139.1409   75.9316  219.4295 H   0  0  0  0  0  0  0  0  0  0  0  0
  140.0958   78.5397  219.7237 H   0  0  0  0  0  0  0  0  0  0  0  0
  138.4040   78.0668  220.0492 H   0  0  0  0  0  0  0  0  0  0  0  0
  139.9320   80.2033  221.4376 H   0  0  0  0  0  0  0  0  0  0  0  0
  140.1132   80.6744  223.7152 H   0  0  0  0  0  0  0  0  0  0  0  0
  140.2641   78.9608  224.1090 H   0  0  0  0  0  0  0  0  0  0  0  0
  142.3979   81.0251  223.6143 H   0  0  0  0  0  0  0  0  0  0  0  0
  142.4779   79.5571  224.6208 H   0  0  0  0  0  0  0  0  0  0  0  0
  143.7120   79.7630  222.3180 H   0  0  0  0  0  0  0  0  0  0  0  0
  142.1444   80.1864  220.7950 H   0  0  0  0  0  0  0  0  0  0  0  0
  142.0172   78.4094  220.7957 H   0  0  0  0  0  0  0  0  0  0  0  0
  141.1748   77.0437  222.6505 H   0  0  0  0  0  0  0  0  0  0  0  0
  139.5796   76.8688  223.4177 H   0  0  0  0  0  0  0  0  0  0  0  0
  137.0962   76.9014  221.7980 H   0  0  0  0  0  0  0  0  0  0  0  0
  135.0882   75.4962  222.3466 H   0  0  0  0  0  0  0  0  0  0  0  0
  135.3416   73.0309  222.6946 H   0  0  0  0  0  0  0  0  0  0  0  0
  137.6020   71.9556  222.4813 H   0  0  0  0  0  0  0  0  0  0  0  0
  1  2  2  0
  2  3  1  0
  3  4  2  0
  4  5  1  0
  5  6  2  0
  6  7  1  0
  6  8  1  0
  8  9  2  0
  9 10  1  0
 10 11  2  0
 11 12  1  0
  2 13  1  0
 13 14  1  0
 15 14  1  6
 15 16  1  0
 16 17  1  0
 17 18  1  0
 18 19  1  0
 19 20  1  0
 20 21  1  0
 21 22  1  0
 22 23  1  0
 18 24  1  0
 15 25  1  0
 25 26  2  0
 26 27  1  0
 27 28  2  0
 28 29  1  0
 29 30  2  0
 12  3  1  0
 30 13  1  0
 11  5  1  0
 24 15  1  0
 30 25  1  0
 23 19  1  0
  4 31  1  0
  8 32  1  0
  9 33  1  0
 10 34  1  0
 12 35  1  0
 14 36  1  0
 14 37  1  0
 16 38  1  0
 16 39  1  0
 17 40  1  0
 17 41  1  0
 19 42  1  6
 20 43  1  0
 20 44  1  0
 21 45  1  0
 21 46  1  0
 22 47  1  0
 23 48  1  0
 23 49  1  0
 24 50  1  0
 24 51  1  0
 26 52  1  0
 27 53  1  0
 28 54  1  0
 29 55  1  0
M  END
>  <UniqueID>  (79) 
164

>  <SMILES>  (79) 
O=C(c1cc2c(Cl)cccc2[nH]1)N1C[C@@]2(CCN([C@H]3CCNC3)C2)c2ccccc21

>  <Energy>  (79) 
124.1942102318684

>  <Genealogy>  (79) 
O=C(c1cc2c(Cl)cccc2[nH]1)N1C[C@@]2(CCN([C@H]3CCNC3)C2)c2ccccc21 (chirality)
O=C(c1cc2c(Cl)cccc2[nH]1)N1C[C@@]2(CCN([C@H]3CCNC3)C2)c2ccccc21 (3D coordinates assigned)
O=C(c1cc2c(Cl)cccc2[nH]1)N1C[C@@]2(CCN([C@H]3CCNC3)C2)c2ccccc21 (nonaromatic ring conformer: 124.1942102318684 kcal/mol)

>  <smiles>  (79) 
O=C(c1cc2c(Cl)cccc2[nH]1)N1C[C@@]2(CCN(C3CCNC3)C2)c2ccccc21

>  <score_type>  (79) 
oracle

>  <origin>  (79) 
autodockgpu

>  <m_score__min__energy>  (79) 
-8.7400000000000002

>  <m_primary>  (79) 
energy

>  <meeko>  (79) 
{"free_energy": -8.74, "intermolecular_energy": -9.63, "internal_energy": -1.25, "cluster_size": 19, "cluster_id": 1, "rank_in_cluster": 3}

>  <energy>  (79) 
-8.68

>  <cluster_rmsd>  (79) 
0.17

>  <rmsd>  (79) 
271.84

>  <cluster>  (79) 
1

$$$$
KZWACXAMTSGJSU-FYSMJZIKNA-N
     RDKit          3D

 55 60  0  0  0  0  0  0  0  0999 V2000
  141.0610   71.6980  220.9870 O   0  0  0  0  0  0  0  0  0  0  0  0
  140.4860   72.2150  221.9820 C   0  0  0  0  0  0  0  0  0  0  0  0
  140.3080   71.4190  223.2110 C   0  0  0  0  0  0  0  0  0  0  0  0
  140.6420   71.8450  224.4940 C   0  0  0  0  0  0  0  0  0  0  0  0
  140.3290   70.7840  225.3170 C   0  0  0  0  0  0  0  0  0  0  0  0
  140.4470   70.6310  226.7000 C   0  0  0  0  0  0  0  0  0  0  0  0
  141.0750   71.9160  227.7180 Cl  0  0  0  0  0  0  0  0  0  0  0  0
  140.0420   69.4050  227.2610 C   0  0  0  0  0  0  0  0  0  0  0  0
  139.5370   68.3730  226.4390 C   0  0  0  0  0  0  0  0  0  0  0  0
  139.4330   68.5560  225.0490 C   0  0  0  0  0  0  0  0  0  0  0  0
  139.8390   69.7800  224.5210 C   0  0  0  0  0  0  0  0  0  0  0  0
  139.8240   70.1540  223.2310 N   0  0  0  0  0  0  0  0  0  0  0  0
  139.9710   73.5490  221.8830 N   0  0  0  0  0  0  0  0  0  0  0  0
  140.8120   74.7420  221.7930 C   0  0  0  0  0  0  0  0  0  0  0  0
  139.8270   75.9450  221.6270 C   0  0  2  0  0  0  0  0  0  0  0  0
  139.9090   76.6060  220.2540 C   0  0  0  0  0  0  0  0  0  0  0  0
  139.5160   78.0570  220.4940 C   0  0  0  0  0  0  0  0  0  0  0  0
  139.6550   78.3380  221.9350 N   0  0  0  0  0  0  0  0  0  0  0  0
  140.4820   79.5440  222.2110 C   0  0  1  0  0  0  0  0  0  0  0  0
  140.8980   79.6360  223.6770 C   0  0  0  0  0  0  0  0  0  0  0  0
  142.3950   79.8940  223.6460 C   0  0  0  0  0  0  0  0  0  0  0  0
  142.8930   79.4290  222.3560 N   0  0  0  0  0  0  0  0  0  0  0  0
  141.7930   79.6140  221.4110 C   0  0  0  0  0  0  0  0  0  0  0  0
  140.0900   77.0950  222.6030 C   0  0  0  0  0  0  0  0  0  0  0  0
  138.4780   75.3050  221.8470 C   0  0  0  0  0  0  0  0  0  0  0  0
  137.2220   75.9180  221.9510 C   0  0  0  0  0  0  0  0  0  0  0  0
  136.0990   75.1150  222.2010 C   0  0  0  0  0  0  0  0  0  0  0  0
  136.2440   73.7250  222.3600 C   0  0  0  0  0  0  0  0  0  0  0  0
  137.5100   73.1300  222.2600 C   0  0  0  0  0  0  0  0  0  0  0  0
  138.6130   73.9470  221.9790 C   0  0  0  0  0  0  0  0  0  0  0  0
  141.0642   72.8175  224.7874 H   0  0  0  0  0  0  0  0  0  0  0  0
  140.1193   69.2495  228.3472 H   0  0  0  0  0  0  0  0  0  0  0  0
  139.2231   67.4199  226.8896 H   0  0  0  0  0  0  0  0  0  0  0  0
  139.0436   67.7585  224.3990 H   0  0  0  0  0  0  0  0  0  0  0  0
  139.5200   69.5760  222.4160 H   0  0  0  0  0  0  0  0  0  0  0  0
  141.4095   74.8596  222.7090 H   0  0  0  0  0  0  0  0  0  0  0  0
  141.5181   74.6775  220.9521 H   0  0  0  0  0  0  0  0  0  0  0  0
  140.9320   76.5431  219.8546 H   0  0  0  0  0  0  0  0  0  0  0  0
  139.2542   76.1158  219.5185 H   0  0  0  0  0  0  0  0  0  0  0  0
  140.1772   78.7221  219.9191 H   0  0  0  0  0  0  0  0  0  0  0  0
  138.4786   78.2288  220.1710 H   0  0  0  0  0  0  0  0  0  0  0  0
  139.8163   80.3676  221.9136 H   0  0  0  0  0  0  0  0  0  0  0  0
  140.3734   80.4638  224.1765 H   0  0  0  0  0  0  0  0  0  0  0  0
  140.6479   78.7219  224.2354 H   0  0  0  0  0  0  0  0  0  0  0  0
  142.5932   80.9700  223.7595 H   0  0  0  0  0  0  0  0  0  0  0  0
  142.8968   79.3642  224.4691 H   0  0  0  0  0  0  0  0  0  0  0  0
  143.7030   80.0250  222.0640 H   0  0  0  0  0  0  0  0  0  0  0  0
  141.8811   80.5938  220.9188 H   0  0  0  0  0  0  0  0  0  0  0  0
  141.8149   78.8367  220.6330 H   0  0  0  0  0  0  0  0  0  0  0  0
  141.1624   77.1500  222.8415 H   0  0  0  0  0  0  0  0  0  0  0  0
  139.5416   76.9433  223.5444 H   0  0  0  0  0  0  0  0  0  0  0  0
  137.1187   77.0074  221.8388 H   0  0  0  0  0  0  0  0  0  0  0  0
  135.1019   75.5740  222.2729 H   0  0  0  0  0  0  0  0  0  0  0  0
  135.3606   73.1020  222.5637 H   0  0  0  0  0  0  0  0  0  0  0  0
  137.6343   72.0459  222.3991 H   0  0  0  0  0  0  0  0  0  0  0  0
  1  2  2  0
  2  3  1  0
  3  4  2  0
  4  5  1  0
  5  6  2  0
  6  7  1  0
  6  8  1  0
  8  9  2  0
  9 10  1  0
 10 11  2  0
 11 12  1  0
  2 13  1  0
 13 14  1  0
 15 14  1  6
 15 16  1  0
 16 17  1  0
 17 18  1  0
 18 19  1  0
 19 20  1  0
 20 21  1  0
 21 22  1  0
 22 23  1  0
 18 24  1  0
 15 25  1  0
 25 26  2  0
 26 27  1  0
 27 28  2  0
 28 29  1  0
 29 30  2  0
 12  3  1  0
 30 13  1  0
 11  5  1  0
 24 15  1  0
 30 25  1  0
 23 19  1  0
  4 31  1  0
  8 32  1  0
  9 33  1  0
 10 34  1  0
 12 35  1  0
 14 36  1  0
 14 37  1  0
 16 38  1  0
 16 39  1  0
 17 40  1  0
 17 41  1  0
 19 42  1  6
 20 43  1  0
 20 44  1  0
 21 45  1  0
 21 46  1  0
 22 47  1  0
 23 48  1  0
 23 49  1  0
 24 50  1  0
 24 51  1  0
 26 52  1  0
 27 53  1  0
 28 54  1  0
 29 55  1  0
M  END
>  <UniqueID>  (80) 
164

>  <SMILES>  (80) 
O=C(c1cc2c(Cl)cccc2[nH]1)N1C[C@@]2(CCN([C@H]3CCNC3)C2)c2ccccc21

>  <Energy>  (80) 
124.1942102318684

>  <Genealogy>  (80) 
O=C(c1cc2c(Cl)cccc2[nH]1)N1C[C@@]2(CCN([C@H]3CCNC3)C2)c2ccccc21 (chirality)
O=C(c1cc2c(Cl)cccc2[nH]1)N1C[C@@]2(CCN([C@H]3CCNC3)C2)c2ccccc21 (3D coordinates assigned)
O=C(c1cc2c(Cl)cccc2[nH]1)N1C[C@@]2(CCN([C@H]3CCNC3)C2)c2ccccc21 (nonaromatic ring conformer: 124.1942102318684 kcal/mol)

>  <smiles>  (80) 
O=C(c1cc2c(Cl)cccc2[nH]1)N1C[C@@]2(CCN(C3CCNC3)C2)c2ccccc21

>  <score_type>  (80) 
oracle

>  <origin>  (80) 
autodockgpu

>  <m_score__min__energy>  (80) 
-8.7400000000000002

>  <m_primary>  (80) 
energy

>  <meeko>  (80) 
{"free_energy": -8.68, "intermolecular_energy": -9.57, "internal_energy": -1.26, "cluster_size": 19, "cluster_id": 1, "rank_in_cluster": 19}

>  <energy>  (80) 
-8.06

>  <cluster_rmsd>  (80) 
0.0

>  <rmsd>  (80) 
271.72

>  <cluster>  (80) 
2

$$$$
