
     RDKit          3D

 47 50  0  0  1  0  0  0  0  0999 V2000
  139.0220   74.9980  221.9140 O   0  0  0  0  0  0  0  0  0  0  0  0
  140.1000   75.6230  221.9980 C   0  0  0  0  0  0  0  0  0  0  0  0
  141.2930   74.8290  221.7680 N   0  0  0  0  0  0  0  0  0  0  0  0
  141.0730   73.4430  221.4780 C   0  0  0  0  0  0  0  0  0  0  0  0
  141.8820   72.7970  220.4560 C   0  0  0  0  0  0  0  0  0  0  0  0
  141.2320   71.9110  219.7570 O   0  0  0  0  0  0  0  0  0  0  0  0
  143.2230   72.9590  220.0990 N   0  0  0  0  0  0  0  0  0  0  0  0
  144.4070   72.1060  220.3330 C   0  0  0  0  0  0  0  0  0  0  0  0
  145.3240   73.1140  220.9790 C   0  0  0  0  0  0  0  0  0  0  0  0
  144.8950   74.4630  220.4750 C   0  0  0  0  0  0  0  0  0  0  0  0
  143.8540   74.0960  219.3950 C   0  0  2  0  0  0  0  0  0  0  0  0
  142.9630   75.2340  219.1580 C   0  0  0  0  0  0  0  0  0  0  0  0
  143.3440   76.4630  219.7170 C   0  0  0  0  0  0  0  0  0  0  0  0
  142.5320   77.5800  219.5680 C   0  0  0  0  0  0  0  0  0  0  0  0
  141.3350   77.5110  218.8700 C   0  0  0  0  0  0  0  0  0  0  0  0
  140.3630   78.9580  218.7230 Cl  0  0  0  0  0  0  0  0  0  0  0  0
  140.9510   76.3040  218.3160 C   0  0  0  0  0  0  0  0  0  0  0  0
  141.7820   75.2170  218.4840 C   0  0  0  0  0  0  0  0  0  0  0  0
  140.2100   77.0410  222.3000 C   0  0  0  0  0  0  0  0  0  0  0  0
  139.0600   77.7810  222.3440 C   0  0  0  0  0  0  0  0  0  0  0  0
  139.1360   79.1030  222.6230 N   0  0  0  0  0  0  0  0  0  0  0  0
  140.3360   79.7080  222.8600 C   0  0  0  0  0  0  0  0  0  0  0  0
  140.4440   81.0430  223.1440 C   0  0  0  0  0  0  0  0  0  0  0  0
  141.6940   81.6190  223.3800 C   0  0  0  0  0  0  0  0  0  0  0  0
  142.8140   80.8170  223.3190 C   0  0  0  0  0  0  0  0  0  0  0  0
  142.7000   79.4690  223.0310 C   0  0  0  0  0  0  0  0  0  0  0  0
  141.4570   78.9160  222.8010 C   0  0  0  0  0  0  0  0  0  0  0  0
  141.4220   77.6010  222.5280 N   0  0  0  0  0  0  0  0  0  0  0  0
  142.2340   75.2890  221.8230 H   0  0  0  0  0  0  0  0  0  0  0  0
  141.2344   72.8887  222.4143 H   0  0  0  0  0  0  0  0  0  0  0  0
  140.0554   73.4202  221.0609 H   0  0  0  0  0  0  0  0  0  0  0  0
  144.1804   71.2673  221.0077 H   0  0  0  0  0  0  0  0  0  0  0  0
  144.8123   71.6153  219.4358 H   0  0  0  0  0  0  0  0  0  0  0  0
  145.2278   73.0688  222.0739 H   0  0  0  0  0  0  0  0  0  0  0  0
  146.3764   72.9120  220.7306 H   0  0  0  0  0  0  0  0  0  0  0  0
  144.4413   75.0623  221.2781 H   0  0  0  0  0  0  0  0  0  0  0  0
  145.7260   75.0756  220.0952 H   0  0  0  0  0  0  0  0  0  0  0  0
  144.2138   73.8511  218.3848 H   0  0  0  0  0  0  0  0  0  0  0  0
  144.2886   76.5423  220.2750 H   0  0  0  0  0  0  0  0  0  0  0  0
  142.8438   78.5371  220.0116 H   0  0  0  0  0  0  0  0  0  0  0  0
  140.0083   76.2135  217.7565 H   0  0  0  0  0  0  0  0  0  0  0  0
  141.4654   74.2624  218.0385 H   0  0  0  0  0  0  0  0  0  0  0  0
  138.0855   77.3071  222.1549 H   0  0  0  0  0  0  0  0  0  0  0  0
  139.5390   81.6668  223.1866 H   0  0  0  0  0  0  0  0  0  0  0  0
  141.7834   82.6910  223.6100 H   0  0  0  0  0  0  0  0  0  0  0  0
  143.8072   81.2533  223.5010 H   0  0  0  0  0  0  0  0  0  0  0  0
  143.5999   78.8381  222.9854 H   0  0  0  0  0  0  0  0  0  0  0  0
  1  2  2  0
  2  3  1  0
  3  4  1  0
  4  5  1  0
  5  6  2  0
  5  7  1  0
  7  8  1  0
  8  9  1  0
  9 10  1  0
 10 11  1  0
 11 12  1  0
 12 13  2  0
 13 14  1  0
 14 15  2  0
 15 16  1  0
 15 17  1  0
 17 18  2  0
  2 19  1  0
 19 20  2  0
 20 21  1  0
 21 22  2  0
 22 23  1  0
 23 24  2  0
 24 25  1  0
 25 26  2  0
 26 27  1  0
 27 28  2  0
 11  7  1  0
 18 12  1  0
 28 19  1  0
 27 22  1  0
  3 29  1  0
  4 30  1  0
  4 31  1  0
  8 32  1  0
  8 33  1  0
  9 34  1  0
  9 35  1  0
 10 36  1  0
 10 37  1  0
 11 38  1  6
 13 39  1  0
 14 40  1  0
 17 41  1  0
 18 42  1  0
 20 43  1  0
 23 44  1  0
 24 45  1  0
 25 46  1  0
 26 47  1  0
M  END
>  <smiles>  (1) 
O=C(NCC(=O)N1CCCC1c1ccc(Cl)cc1)c1cnc2ccccc2n1

>  <score_type>  (1) 
oracle

>  <origin>  (1) 
autodockgpu

>  <m_score__min__energy>  (1) 
-8.1899999999999995

>  <m_primary>  (1) 
energy

>  <meeko>  (1) 
{"free_energy": -6.84, "intermolecular_energy": -8.33, "internal_energy": -2.75, "cluster_size": 9, "cluster_id": 3, "rank_in_cluster": 6}

>  <energy>  (1) 
-8.19

>  <cluster_rmsd>  (1) 
0.0

>  <rmsd>  (1) 
271.31

>  <cluster>  (1) 
1

$$$$

     RDKit          3D

 47 50  0  0  1  0  0  0  0  0999 V2000
  138.9880   75.0560  221.8820 O   0  0  0  0  0  0  0  0  0  0  0  0
  140.0720   75.6580  222.0230 C   0  0  0  0  0  0  0  0  0  0  0  0
  141.2590   74.8410  221.8440 N   0  0  0  0  0  0  0  0  0  0  0  0
  141.0250   73.4610  221.5330 C   0  0  0  0  0  0  0  0  0  0  0  0
  141.7850   72.8410  220.4590 C   0  0  0  0  0  0  0  0  0  0  0  0
  141.0920   71.9970  219.7480 O   0  0  0  0  0  0  0  0  0  0  0  0
  143.1160   72.9890  220.0610 N   0  0  0  0  0  0  0  0  0  0  0  0
  144.2930   72.1130  220.2420 C   0  0  0  0  0  0  0  0  0  0  0  0
  145.2460   73.0950  220.8770 C   0  0  0  0  0  0  0  0  0  0  0  0
  144.8230   74.4600  220.4120 C   0  0  0  0  0  0  0  0  0  0  0  0
  143.7420   74.1300  219.3590 C   0  0  2  0  0  0  0  0  0  0  0  0
  142.8620   75.2860  219.1730 C   0  0  0  0  0  0  0  0  0  0  0  0
  143.2930   76.5030  219.7200 C   0  0  0  0  0  0  0  0  0  0  0  0
  142.4960   77.6360  219.6170 C   0  0  0  0  0  0  0  0  0  0  0  0
  141.2650   77.5940  218.9780 C   0  0  0  0  0  0  0  0  0  0  0  0
  140.3150   79.0600  218.8870 Cl  0  0  0  0  0  0  0  0  0  0  0  0
  140.8320   76.3990  218.4370 C   0  0  0  0  0  0  0  0  0  0  0  0
  141.6500   75.2950  218.5570 C   0  0  0  0  0  0  0  0  0  0  0  0
  140.1960   77.0710  222.3410 C   0  0  0  0  0  0  0  0  0  0  0  0
  139.0510   77.8170  222.4150 C   0  0  0  0  0  0  0  0  0  0  0  0
  139.1410   79.1340  222.7100 N   0  0  0  0  0  0  0  0  0  0  0  0
  140.3480   79.7300  222.9330 C   0  0  0  0  0  0  0  0  0  0  0  0
  140.4690   81.0600  223.2320 C   0  0  0  0  0  0  0  0  0  0  0  0
  141.7260   81.6260  223.4520 C   0  0  0  0  0  0  0  0  0  0  0  0
  142.8400   80.8190  223.3610 C   0  0  0  0  0  0  0  0  0  0  0  0
  142.7140   79.4750  223.0580 C   0  0  0  0  0  0  0  0  0  0  0  0
  141.4630   78.9320  222.8440 C   0  0  0  0  0  0  0  0  0  0  0  0
  141.4150   77.6210  222.5540 N   0  0  0  0  0  0  0  0  0  0  0  0
  142.2050   75.2810  221.9480 H   0  0  0  0  0  0  0  0  0  0  0  0
  141.2308   72.8852  222.4474 H   0  0  0  0  0  0  0  0  0  0  0  0
  139.9884   73.4458  221.1652 H   0  0  0  0  0  0  0  0  0  0  0  0
  144.0741   71.2656  220.9083 H   0  0  0  0  0  0  0  0  0  0  0  0
  144.6620   71.6326  219.3239 H   0  0  0  0  0  0  0  0  0  0  0  0
  145.1837   73.0306  221.9733 H   0  0  0  0  0  0  0  0  0  0  0  0
  146.2866   72.8817  220.5912 H   0  0  0  0  0  0  0  0  0  0  0  0
  144.4048   75.0509  221.2402 H   0  0  0  0  0  0  0  0  0  0  0  0
  145.6513   75.0666  220.0171 H   0  0  0  0  0  0  0  0  0  0  0  0
  144.0653   73.8995  218.3331 H   0  0  0  0  0  0  0  0  0  0  0  0
  144.2648   76.5607  220.2320 H   0  0  0  0  0  0  0  0  0  0  0  0
  142.8473   78.5842  220.0501 H   0  0  0  0  0  0  0  0  0  0  0  0
  139.8612   76.3298  217.9244 H   0  0  0  0  0  0  0  0  0  0  0  0
  141.2947   74.3496  218.1211 H   0  0  0  0  0  0  0  0  0  0  0  0
  138.0703   77.3517  222.2369 H   0  0  0  0  0  0  0  0  0  0  0  0
  139.5685   81.6881  223.2995 H   0  0  0  0  0  0  0  0  0  0  0  0
  141.8256   82.6946  223.6932 H   0  0  0  0  0  0  0  0  0  0  0  0
  143.8386   81.2478  223.5309 H   0  0  0  0  0  0  0  0  0  0  0  0
  143.6094   78.8400  222.9877 H   0  0  0  0  0  0  0  0  0  0  0  0
  1  2  2  0
  2  3  1  0
  3  4  1  0
  4  5  1  0
  5  6  2  0
  5  7  1  0
  7  8  1  0
  8  9  1  0
  9 10  1  0
 10 11  1  0
 11 12  1  0
 12 13  2  0
 13 14  1  0
 14 15  2  0
 15 16  1  0
 15 17  1  0
 17 18  2  0
  2 19  1  0
 19 20  2  0
 20 21  1  0
 21 22  2  0
 22 23  1  0
 23 24  2  0
 24 25  1  0
 25 26  2  0
 26 27  1  0
 27 28  2  0
 11  7  1  0
 18 12  1  0
 28 19  1  0
 27 22  1  0
  3 29  1  0
  4 30  1  0
  4 31  1  0
  8 32  1  0
  8 33  1  0
  9 34  1  0
  9 35  1  0
 10 36  1  0
 10 37  1  0
 11 38  1  6
 13 39  1  0
 14 40  1  0
 17 41  1  0
 18 42  1  0
 20 43  1  0
 23 44  1  0
 24 45  1  0
 25 46  1  0
 26 47  1  0
M  END
>  <smiles>  (2) 
O=C(NCC(=O)N1CCCC1c1ccc(Cl)cc1)c1cnc2ccccc2n1

>  <score_type>  (2) 
oracle

>  <origin>  (2) 
autodockgpu

>  <m_score__min__energy>  (2) 
-8.1899999999999995

>  <m_primary>  (2) 
energy

>  <meeko>  (2) 
{"free_energy": -6.8, "intermolecular_energy": -8.29, "internal_energy": -2.8, "cluster_size": 9, "cluster_id": 3, "rank_in_cluster": 9}

>  <energy>  (2) 
-7.99

>  <cluster_rmsd>  (2) 
0.39

>  <rmsd>  (2) 
271.26

>  <cluster>  (2) 
1

$$$$

     RDKit          3D

 47 50  0  0  1  0  0  0  0  0999 V2000
  139.8080   71.1690  221.2300 O   0  0  0  0  0  0  0  0  0  0  0  0
  139.7700   71.7800  222.3180 C   0  0  0  0  0  0  0  0  0  0  0  0
  139.5750   73.2150  222.2120 N   0  0  0  0  0  0  0  0  0  0  0  0
  139.4540   73.7320  220.8810 C   0  0  0  0  0  0  0  0  0  0  0  0
  140.6600   74.0940  220.1520 C   0  0  0  0  0  0  0  0  0  0  0  0
  140.8620   73.3730  219.0850 O   0  0  0  0  0  0  0  0  0  0  0  0
  141.6310   75.0680  220.3950 N   0  0  0  0  0  0  0  0  0  0  0  0
  141.5270   76.5330  220.5580 C   0  0  0  0  0  0  0  0  0  0  0  0
  142.5350   76.9770  219.5280 C   0  0  0  0  0  0  0  0  0  0  0  0
  143.5190   75.8500  219.3830 C   0  0  0  0  0  0  0  0  0  0  0  0
  143.0940   74.8930  220.5180 C   0  0  2  0  0  0  0  0  0  0  0  0
  143.5710   73.5390  220.2290 C   0  0  0  0  0  0  0  0  0  0  0  0
  144.5520   73.4120  219.2350 C   0  0  0  0  0  0  0  0  0  0  0  0
  145.0270   72.1570  218.8780 C   0  0  0  0  0  0  0  0  0  0  0  0
  144.5490   71.0070  219.4880 C   0  0  0  0  0  0  0  0  0  0  0  0
  145.1930   69.4590  218.9870 Cl  0  0  0  0  0  0  0  0  0  0  0  0
  143.5820   71.1220  220.4690 C   0  0  0  0  0  0  0  0  0  0  0  0
  143.1340   72.3830  220.7970 C   0  0  0  0  0  0  0  0  0  0  0  0
  139.9040   71.1520  223.6220 C   0  0  0  0  0  0  0  0  0  0  0  0
  139.5230   69.8440  223.7490 C   0  0  0  0  0  0  0  0  0  0  0  0
  139.6390   69.2380  224.9530 N   0  0  0  0  0  0  0  0  0  0  0  0
  140.1270   69.9050  226.0380 C   0  0  0  0  0  0  0  0  0  0  0  0
  140.2550   69.3180  227.2680 C   0  0  0  0  0  0  0  0  0  0  0  0
  140.7600   70.0410  228.3500 C   0  0  0  0  0  0  0  0  0  0  0  0
  141.1250   71.3570  228.1550 C   0  0  0  0  0  0  0  0  0  0  0  0
  140.9930   71.9470  226.9110 C   0  0  0  0  0  0  0  0  0  0  0  0
  140.4930   71.2170  225.8520 C   0  0  0  0  0  0  0  0  0  0  0  0
  140.3930   71.8540  224.6730 N   0  0  0  0  0  0  0  0  0  0  0  0
  139.5330   73.7920  223.0870 H   0  0  0  0  0  0  0  0  0  0  0  0
  138.9341   72.9679  220.2845 H   0  0  0  0  0  0  0  0  0  0  0  0
  138.9307   74.6899  221.0169 H   0  0  0  0  0  0  0  0  0  0  0  0
  140.5162   76.8998  220.3261 H   0  0  0  0  0  0  0  0  0  0  0  0
  141.7099   76.9022  221.5779 H   0  0  0  0  0  0  0  0  0  0  0  0
  142.0362   77.1724  218.5672 H   0  0  0  0  0  0  0  0  0  0  0  0
  143.0362   77.9066  219.8357 H   0  0  0  0  0  0  0  0  0  0  0  0
  143.4283   75.3662  218.3993 H   0  0  0  0  0  0  0  0  0  0  0  0
  144.5690   76.1713  219.4482 H   0  0  0  0  0  0  0  0  0  0  0  0
  143.4814   75.0790  221.5306 H   0  0  0  0  0  0  0  0  0  0  0  0
  144.9466   74.3096  218.7364 H   0  0  0  0  0  0  0  0  0  0  0  0
  145.7968   72.0734  218.0967 H   0  0  0  0  0  0  0  0  0  0  0  0
  143.1810   70.2309  220.9741 H   0  0  0  0  0  0  0  0  0  0  0  0
  142.3636   72.4608  221.5783 H   0  0  0  0  0  0  0  0  0  0  0  0
  139.1275   69.2923  222.8834 H   0  0  0  0  0  0  0  0  0  0  0  0
  139.9575   68.2679  227.4049 H   0  0  0  0  0  0  0  0  0  0  0  0
  140.8648   69.5706  229.3388 H   0  0  0  0  0  0  0  0  0  0  0  0
  141.5246   71.9423  228.9963 H   0  0  0  0  0  0  0  0  0  0  0  0
  141.2863   72.9972  226.7659 H   0  0  0  0  0  0  0  0  0  0  0  0
  1  2  2  0
  2  3  1  0
  3  4  1  0
  4  5  1  0
  5  6  2  0
  5  7  1  0
  7  8  1  0
  8  9  1  0
  9 10  1  0
 10 11  1  0
 11 12  1  0
 12 13  2  0
 13 14  1  0
 14 15  2  0
 15 16  1  0
 15 17  1  0
 17 18  2  0
  2 19  1  0
 19 20  2  0
 20 21  1  0
 21 22  2  0
 22 23  1  0
 23 24  2  0
 24 25  1  0
 25 26  2  0
 26 27  1  0
 27 28  2  0
 11  7  1  0
 18 12  1  0
 28 19  1  0
 27 22  1  0
  3 29  1  0
  4 30  1  0
  4 31  1  0
  8 32  1  0
  8 33  1  0
  9 34  1  0
  9 35  1  0
 10 36  1  0
 10 37  1  0
 11 38  1  1
 13 39  1  0
 14 40  1  0
 17 41  1  0
 18 42  1  0
 20 43  1  0
 23 44  1  0
 24 45  1  0
 25 46  1  0
 26 47  1  0
M  END
>  <smiles>  (3) 
O=C(NCC(=O)N1CCCC1c1ccc(Cl)cc1)c1cnc2ccccc2n1

>  <score_type>  (3) 
oracle

>  <origin>  (3) 
autodockgpu

>  <m_score__min__energy>  (3) 
-8.1899999999999995

>  <m_primary>  (3) 
energy

>  <meeko>  (3) 
{"free_energy": -7.62, "intermolecular_energy": -9.11, "internal_energy": -1.62, "cluster_size": 5, "cluster_id": 2, "rank_in_cluster": 5}

>  <energy>  (3) 
-7.77

>  <cluster_rmsd>  (3) 
0.0

>  <rmsd>  (3) 
270.95

>  <cluster>  (3) 
2

$$$$

     RDKit          3D

 47 50  0  0  1  0  0  0  0  0999 V2000
  140.8070   71.4830  221.3860 O   0  0  0  0  0  0  0  0  0  0  0  0
  140.2480   71.9170  222.4150 C   0  0  0  0  0  0  0  0  0  0  0  0
  139.6860   73.2500  222.2950 N   0  0  0  0  0  0  0  0  0  0  0  0
  139.8490   73.8840  221.0190 C   0  0  0  0  0  0  0  0  0  0  0  0
  140.8750   74.9030  220.8630 C   0  0  0  0  0  0  0  0  0  0  0  0
  141.4150   75.2780  221.9870 O   0  0  0  0  0  0  0  0  0  0  0  0
  141.3750   75.5460  219.7280 N   0  0  0  0  0  0  0  0  0  0  0  0
  142.0270   75.0170  218.5110 C   0  0  0  0  0  0  0  0  0  0  0  0
  143.2850   75.8480  218.5130 C   0  0  0  0  0  0  0  0  0  0  0  0
  142.9540   77.1190  219.2440 C   0  0  0  0  0  0  0  0  0  0  0  0
  141.4270   76.9970  219.4440 C   0  0  2  0  0  0  0  0  0  0  0  0
  141.0020   77.8490  220.5570 C   0  0  0  0  0  0  0  0  0  0  0  0
  139.6210   77.9710  220.7680 C   0  0  0  0  0  0  0  0  0  0  0  0
  139.1380   78.7910  221.7800 C   0  0  0  0  0  0  0  0  0  0  0  0
  140.0010   79.5040  222.6000 C   0  0  0  0  0  0  0  0  0  0  0  0
  139.3220   80.5180  223.8540 Cl  0  0  0  0  0  0  0  0  0  0  0  0
  141.3630   79.3900  222.3990 C   0  0  0  0  0  0  0  0  0  0  0  0
  141.8060   78.5670  221.3860 C   0  0  0  0  0  0  0  0  0  0  0  0
  140.1380   71.1850  223.6650 C   0  0  0  0  0  0  0  0  0  0  0  0
  139.5620   69.9450  223.6380 C   0  0  0  0  0  0  0  0  0  0  0  0
  139.4490   69.2440  224.7890 N   0  0  0  0  0  0  0  0  0  0  0  0
  139.8970   69.7510  225.9740 C   0  0  0  0  0  0  0  0  0  0  0  0
  139.7950   69.0660  227.1550 C   0  0  0  0  0  0  0  0  0  0  0  0
  140.2680   69.6250  228.3430 C   0  0  0  0  0  0  0  0  0  0  0  0
  140.8380   70.8810  228.3020 C   0  0  0  0  0  0  0  0  0  0  0  0
  140.9380   71.5700  227.1070 C   0  0  0  0  0  0  0  0  0  0  0  0
  140.4650   71.0020  225.9420 C   0  0  0  0  0  0  0  0  0  0  0  0
  140.5960   71.7280  224.8190 N   0  0  0  0  0  0  0  0  0  0  0  0
  139.2010   73.6790  223.1200 H   0  0  0  0  0  0  0  0  0  0  0  0
  140.0702   73.0899  220.2906 H   0  0  0  0  0  0  0  0  0  0  0  0
  138.9073   74.4343  220.8761 H   0  0  0  0  0  0  0  0  0  0  0  0
  142.2461   73.9426  218.5983 H   0  0  0  0  0  0  0  0  0  0  0  0
  141.4250   75.0858  217.5929 H   0  0  0  0  0  0  0  0  0  0  0  0
  144.0942   75.3116  219.0301 H   0  0  0  0  0  0  0  0  0  0  0  0
  143.6272   76.0553  217.4883 H   0  0  0  0  0  0  0  0  0  0  0  0
  143.4790   77.1715  220.2092 H   0  0  0  0  0  0  0  0  0  0  0  0
  143.2558   78.0286  218.7040 H   0  0  0  0  0  0  0  0  0  0  0  0
  140.7662   77.3160  218.6245 H   0  0  0  0  0  0  0  0  0  0  0  0
  138.9178   77.4155  220.1300 H   0  0  0  0  0  0  0  0  0  0  0  0
  138.0522   78.8766  221.9340 H   0  0  0  0  0  0  0  0  0  0  0  0
  142.0751   79.9414  223.0306 H   0  0  0  0  0  0  0  0  0  0  0  0
  142.8927   78.4847  221.2368 H   0  0  0  0  0  0  0  0  0  0  0  0
  139.1948   69.5226  222.6910 H   0  0  0  0  0  0  0  0  0  0  0  0
  139.3362   68.0663  227.1676 H   0  0  0  0  0  0  0  0  0  0  0  0
  140.1881   69.0756  229.2926 H   0  0  0  0  0  0  0  0  0  0  0  0
  141.2163   71.3384  229.2281 H   0  0  0  0  0  0  0  0  0  0  0  0
  141.3945   72.5706  227.0854 H   0  0  0  0  0  0  0  0  0  0  0  0
  1  2  2  0
  2  3  1  0
  3  4  1  0
  4  5  1  0
  5  6  2  0
  5  7  1  0
  7  8  1  0
  8  9  1  0
  9 10  1  0
 10 11  1  0
 11 12  1  0
 12 13  2  0
 13 14  1  0
 14 15  2  0
 15 16  1  0
 15 17  1  0
 17 18  2  0
  2 19  1  0
 19 20  2  0
 20 21  1  0
 21 22  2  0
 22 23  1  0
 23 24  2  0
 24 25  1  0
 25 26  2  0
 26 27  1  0
 27 28  2  0
 11  7  1  0
 18 12  1  0
 28 19  1  0
 27 22  1  0
  3 29  1  0
  4 30  1  0
  4 31  1  0
  8 32  1  0
  8 33  1  0
  9 34  1  0
  9 35  1  0
 10 36  1  0
 10 37  1  0
 11 38  1  6
 13 39  1  0
 14 40  1  0
 17 41  1  0
 18 42  1  0
 20 43  1  0
 23 44  1  0
 24 45  1  0
 25 46  1  0
 26 47  1  0
M  END
>  <smiles>  (4) 
O=C(NCC(=O)N1CCCC1c1ccc(Cl)cc1)c1cnc2ccccc2n1

>  <score_type>  (4) 
oracle

>  <origin>  (4) 
autodockgpu

>  <m_score__min__energy>  (4) 
-8.1899999999999995

>  <m_primary>  (4) 
energy

>  <meeko>  (4) 
{"free_energy": -7.99, "intermolecular_energy": -9.48, "internal_energy": -1.29, "cluster_size": 2, "cluster_id": 1, "rank_in_cluster": 2}

>  <energy>  (4) 
-7.73

>  <cluster_rmsd>  (4) 
0.34

>  <rmsd>  (4) 
270.88

>  <cluster>  (4) 
2

$$$$

     RDKit          3D

 47 50  0  0  1  0  0  0  0  0999 V2000
  139.1050   74.8100  221.9150 O   0  0  0  0  0  0  0  0  0  0  0  0
  140.1590   75.4770  221.9640 C   0  0  0  0  0  0  0  0  0  0  0  0
  141.3650   74.7540  221.6030 N   0  0  0  0  0  0  0  0  0  0  0  0
  141.1830   73.3790  221.2430 C   0  0  0  0  0  0  0  0  0  0  0  0
  142.0650   72.7860  220.2500 C   0  0  0  0  0  0  0  0  0  0  0  0
  141.4730   71.9240  219.4720 O   0  0  0  0  0  0  0  0  0  0  0  0
  143.4240   72.9740  219.9890 N   0  0  0  0  0  0  0  0  0  0  0  0
  144.6070   72.1510  220.3190 C   0  0  0  0  0  0  0  0  0  0  0  0
  145.4510   73.1870  221.0190 C   0  0  0  0  0  0  0  0  0  0  0  0
  145.0300   74.5210  220.4700 C   0  0  0  0  0  0  0  0  0  0  0  0
  144.0790   74.1200  219.3210 C   0  0  2  0  0  0  0  0  0  0  0  0
  143.1820   75.2340  219.0070 C   0  0  0  0  0  0  0  0  0  0  0  0
  143.3800   76.4250  219.7210 C   0  0  0  0  0  0  0  0  0  0  0  0
  142.5460   77.5140  219.5070 C   0  0  0  0  0  0  0  0  0  0  0  0
  141.5060   77.4550  218.5910 C   0  0  0  0  0  0  0  0  0  0  0  0
  140.4950   78.8660  218.3730 Cl  0  0  0  0  0  0  0  0  0  0  0  0
  141.3040   76.2860  217.8820 C   0  0  0  0  0  0  0  0  0  0  0  0
  142.1510   75.2250  218.1210 C   0  0  0  0  0  0  0  0  0  0  0  0
  140.2310   76.8780  222.3460 C   0  0  0  0  0  0  0  0  0  0  0  0
  139.0580   77.5430  222.5790 C   0  0  0  0  0  0  0  0  0  0  0  0
  139.1000   78.8480  222.9360 N   0  0  0  0  0  0  0  0  0  0  0  0
  140.2860   79.5090  223.0660 C   0  0  0  0  0  0  0  0  0  0  0  0
  140.3580   80.8280  223.4250 C   0  0  0  0  0  0  0  0  0  0  0  0
  141.5950   81.4630  223.5460 C   0  0  0  0  0  0  0  0  0  0  0  0
  142.7400   80.7360  223.2960 C   0  0  0  0  0  0  0  0  0  0  0  0
  142.6620   79.4030  222.9340 C   0  0  0  0  0  0  0  0  0  0  0  0
  141.4310   78.7910  222.8190 C   0  0  0  0  0  0  0  0  0  0  0  0
  141.4310   77.4950  222.4630 N   0  0  0  0  0  0  0  0  0  0  0  0
  142.2870   75.2530  221.6220 H   0  0  0  0  0  0  0  0  0  0  0  0
  141.2916   72.7878  222.1642 H   0  0  0  0  0  0  0  0  0  0  0  0
  140.1945   73.3619  220.7607 H   0  0  0  0  0  0  0  0  0  0  0  0
  144.3505   71.3139  220.9849 H   0  0  0  0  0  0  0  0  0  0  0  0
  145.0882   71.6611  219.4597 H   0  0  0  0  0  0  0  0  0  0  0  0
  145.2757   73.1501  222.1043 H   0  0  0  0  0  0  0  0  0  0  0  0
  146.5230   73.0074  220.8502 H   0  0  0  0  0  0  0  0  0  0  0  0
  144.5056   75.1173  221.2312 H   0  0  0  0  0  0  0  0  0  0  0  0
  145.8727   75.1489  220.1449 H   0  0  0  0  0  0  0  0  0  0  0  0
  144.5175   73.8749  218.3424 H   0  0  0  0  0  0  0  0  0  0  0  0
  144.1984   76.4963  220.4525 H   0  0  0  0  0  0  0  0  0  0  0  0
  142.7131   78.4413  220.0746 H   0  0  0  0  0  0  0  0  0  0  0  0
  140.4896   76.2044  217.1471 H   0  0  0  0  0  0  0  0  0  0  0  0
  141.9794   74.3000  217.5510 H   0  0  0  0  0  0  0  0  0  0  0  0
  138.0935   77.0239  222.4775 H   0  0  0  0  0  0  0  0  0  0  0  0
  139.4338   81.3918  223.6196 H   0  0  0  0  0  0  0  0  0  0  0  0
  141.6555   82.5226  223.8351 H   0  0  0  0  0  0  0  0  0  0  0  0
  143.7237   81.2202  223.3852 H   0  0  0  0  0  0  0  0  0  0  0  0
  143.5811   78.8314  222.7380 H   0  0  0  0  0  0  0  0  0  0  0  0
  1  2  2  0
  2  3  1  0
  3  4  1  0
  4  5  1  0
  5  6  2  0
  5  7  1  0
  7  8  1  0
  8  9  1  0
  9 10  1  0
 10 11  1  0
 11 12  1  0
 12 13  2  0
 13 14  1  0
 14 15  2  0
 15 16  1  0
 15 17  1  0
 17 18  2  0
  2 19  1  0
 19 20  2  0
 20 21  1  0
 21 22  2  0
 22 23  1  0
 23 24  2  0
 24 25  1  0
 25 26  2  0
 26 27  1  0
 27 28  2  0
 11  7  1  0
 18 12  1  0
 28 19  1  0
 27 22  1  0
  3 29  1  0
  4 30  1  0
  4 31  1  0
  8 32  1  0
  8 33  1  0
  9 34  1  0
  9 35  1  0
 10 36  1  0
 10 37  1  0
 11 38  1  6
 13 39  1  0
 14 40  1  0
 17 41  1  0
 18 42  1  0
 20 43  1  0
 23 44  1  0
 24 45  1  0
 25 46  1  0
 26 47  1  0
M  END
>  <smiles>  (5) 
O=C(NCC(=O)N1CCCC1c1ccc(Cl)cc1)c1cnc2ccccc2n1

>  <score_type>  (5) 
oracle

>  <origin>  (5) 
autodockgpu

>  <m_score__min__energy>  (5) 
-8.1899999999999995

>  <m_primary>  (5) 
energy

>  <meeko>  (5) 
{"free_energy": -6.98, "intermolecular_energy": -8.47, "internal_energy": -2.63, "cluster_size": 9, "cluster_id": 3, "rank_in_cluster": 4}

>  <energy>  (5) 
-7.72

>  <cluster_rmsd>  (5) 
0.25

>  <rmsd>  (5) 
270.93

>  <cluster>  (5) 
2

$$$$

     RDKit          3D

 47 50  0  0  1  0  0  0  0  0999 V2000
  139.0350   75.1630  221.6190 O   0  0  0  0  0  0  0  0  0  0  0  0
  140.1080   75.7380  221.8960 C   0  0  0  0  0  0  0  0  0  0  0  0
  141.3010   74.9270  221.7380 N   0  0  0  0  0  0  0  0  0  0  0  0
  141.0860   73.5830  221.2890 C   0  0  0  0  0  0  0  0  0  0  0  0
  141.8790   73.0730  220.1800 C   0  0  0  0  0  0  0  0  0  0  0  0
  141.1640   72.5650  219.2170 O   0  0  0  0  0  0  0  0  0  0  0  0
  143.2590   73.0310  219.9730 N   0  0  0  0  0  0  0  0  0  0  0  0
  144.2770   72.0350  220.3670 C   0  0  0  0  0  0  0  0  0  0  0  0
  145.2540   72.9360  221.0800 C   0  0  0  0  0  0  0  0  0  0  0  0
  145.0780   74.3070  220.4880 C   0  0  0  0  0  0  0  0  0  0  0  0
  144.1180   74.0360  219.3090 C   0  0  2  0  0  0  0  0  0  0  0  0
  143.4280   75.2720  218.9360 C   0  0  0  0  0  0  0  0  0  0  0  0
  143.2580   76.2300  219.9460 C   0  0  0  0  0  0  0  0  0  0  0  0
  142.5810   77.4140  219.6800 C   0  0  0  0  0  0  0  0  0  0  0  0
  142.0600   77.6770  218.4220 C   0  0  0  0  0  0  0  0  0  0  0  0
  141.2180   79.1880  218.1590 Cl  0  0  0  0  0  0  0  0  0  0  0  0
  142.2220   76.7380  217.4210 C   0  0  0  0  0  0  0  0  0  0  0  0
  142.9000   75.5760  217.7200 C   0  0  0  0  0  0  0  0  0  0  0  0
  140.2120   77.1160  222.3470 C   0  0  0  0  0  0  0  0  0  0  0  0
  139.0550   77.8030  222.5940 C   0  0  0  0  0  0  0  0  0  0  0  0
  139.1270   79.0870  223.0150 N   0  0  0  0  0  0  0  0  0  0  0  0
  140.3290   79.7070  223.1950 C   0  0  0  0  0  0  0  0  0  0  0  0
  140.4320   81.0050  223.6180 C   0  0  0  0  0  0  0  0  0  0  0  0
  141.6840   81.5970  223.7890 C   0  0  0  0  0  0  0  0  0  0  0  0
  142.8130   80.8500  223.5210 C   0  0  0  0  0  0  0  0  0  0  0  0
  142.7040   79.5400  223.0930 C   0  0  0  0  0  0  0  0  0  0  0  0
  141.4570   78.9690  222.9300 C   0  0  0  0  0  0  0  0  0  0  0  0
  141.4270   77.6930  222.5120 N   0  0  0  0  0  0  0  0  0  0  0  0
  142.2380   75.3460  221.9530 H   0  0  0  0  0  0  0  0  0  0  0  0
  141.2722   72.9225  222.1487 H   0  0  0  0  0  0  0  0  0  0  0  0
  140.0597   73.5985  220.8935 H   0  0  0  0  0  0  0  0  0  0  0  0
  143.8617   71.2690  221.0384 H   0  0  0  0  0  0  0  0  0  0  0  0
  144.7023   71.4508  219.5376 H   0  0  0  0  0  0  0  0  0  0  0  0
  145.0357   72.9563  222.1579 H   0  0  0  0  0  0  0  0  0  0  0  0
  146.2873   72.5790  220.9582 H   0  0  0  0  0  0  0  0  0  0  0  0
  144.6301   75.0003  221.2151 H   0  0  0  0  0  0  0  0  0  0  0  0
  146.0236   74.7809  220.1859 H   0  0  0  0  0  0  0  0  0  0  0  0
  144.5470   73.6966  218.3547 H   0  0  0  0  0  0  0  0  0  0  0  0
  143.6619   76.0436  220.9520 H   0  0  0  0  0  0  0  0  0  0  0  0
  142.4560   78.1563  220.4821 H   0  0  0  0  0  0  0  0  0  0  0  0
  141.8203   76.9135  216.4121 H   0  0  0  0  0  0  0  0  0  0  0  0
  143.0235   74.8381  216.9137 H   0  0  0  0  0  0  0  0  0  0  0  0
  138.0782   77.3176  222.4521 H   0  0  0  0  0  0  0  0  0  0  0  0
  139.5209   81.5857  223.8246 H   0  0  0  0  0  0  0  0  0  0  0  0
  141.7694   82.6390  224.1308 H   0  0  0  0  0  0  0  0  0  0  0  0
  143.8082   81.3008  223.6490 H   0  0  0  0  0  0  0  0  0  0  0  0
  143.6099   78.9527  222.8824 H   0  0  0  0  0  0  0  0  0  0  0  0
  1  2  2  0
  2  3  1  0
  3  4  1  0
  4  5  1  0
  5  6  2  0
  5  7  1  0
  7  8  1  0
  8  9  1  0
  9 10  1  0
 10 11  1  0
 11 12  1  0
 12 13  2  0
 13 14  1  0
 14 15  2  0
 15 16  1  0
 15 17  1  0
 17 18  2  0
  2 19  1  0
 19 20  2  0
 20 21  1  0
 21 22  2  0
 22 23  1  0
 23 24  2  0
 24 25  1  0
 25 26  2  0
 26 27  1  0
 27 28  2  0
 11  7  1  0
 18 12  1  0
 28 19  1  0
 27 22  1  0
  3 29  1  0
  4 30  1  0
  4 31  1  0
  8 32  1  0
  8 33  1  0
  9 34  1  0
  9 35  1  0
 10 36  1  0
 10 37  1  0
 11 38  1  6
 13 39  1  0
 14 40  1  0
 17 41  1  0
 18 42  1  0
 20 43  1  0
 23 44  1  0
 24 45  1  0
 25 46  1  0
 26 47  1  0
M  END
>  <smiles>  (6) 
O=C(NCC(=O)N1CCCC1c1ccc(Cl)cc1)c1cnc2ccccc2n1

>  <score_type>  (6) 
oracle

>  <origin>  (6) 
autodockgpu

>  <m_score__min__energy>  (6) 
-8.1899999999999995

>  <m_primary>  (6) 
energy

>  <meeko>  (6) 
{"free_energy": -7.1, "intermolecular_energy": -8.59, "internal_energy": -2.37, "cluster_size": 9, "cluster_id": 3, "rank_in_cluster": 2}

>  <energy>  (6) 
-7.7

>  <cluster_rmsd>  (6) 
1.99

>  <rmsd>  (6) 
270.45

>  <cluster>  (6) 
2

$$$$

     RDKit          3D

 47 50  0  0  1  0  0  0  0  0999 V2000
  139.0760   75.0190  221.6960 O   0  0  0  0  0  0  0  0  0  0  0  0
  140.1470   75.6280  221.8970 C   0  0  0  0  0  0  0  0  0  0  0  0
  141.3510   74.8520  221.6590 N   0  0  0  0  0  0  0  0  0  0  0  0
  141.1480   73.5010  221.2280 C   0  0  0  0  0  0  0  0  0  0  0  0
  141.9960   72.9590  220.1770 C   0  0  0  0  0  0  0  0  0  0  0  0
  141.3420   72.2830  219.2750 O   0  0  0  0  0  0  0  0  0  0  0  0
  143.3750   73.0330  219.9710 N   0  0  0  0  0  0  0  0  0  0  0  0
  144.4730   72.1260  220.3680 C   0  0  0  0  0  0  0  0  0  0  0  0
  145.3690   73.1070  221.0820 C   0  0  0  0  0  0  0  0  0  0  0  0
  145.0790   74.4580  220.4880 C   0  0  0  0  0  0  0  0  0  0  0  0
  144.1470   74.1060  219.3080 C   0  0  2  0  0  0  0  0  0  0  0  0
  143.3560   75.2800  218.9340 C   0  0  0  0  0  0  0  0  0  0  0  0
  143.3360   76.3460  219.8460 C   0  0  0  0  0  0  0  0  0  0  0  0
  142.5790   77.4790  219.5800 C   0  0  0  0  0  0  0  0  0  0  0  0
  141.8300   77.5870  218.4170 C   0  0  0  0  0  0  0  0  0  0  0  0
  140.8990   79.0430  218.1480 Cl  0  0  0  0  0  0  0  0  0  0  0  0
  141.8440   76.5420  217.5130 C   0  0  0  0  0  0  0  0  0  0  0  0
  142.6070   75.4330  217.8100 C   0  0  0  0  0  0  0  0  0  0  0  0
  140.2400   77.0100  222.3380 C   0  0  0  0  0  0  0  0  0  0  0  0
  139.0780   77.6900  222.5750 C   0  0  0  0  0  0  0  0  0  0  0  0
  139.1380   78.9780  222.9860 N   0  0  0  0  0  0  0  0  0  0  0  0
  140.3350   79.6080  223.1660 C   0  0  0  0  0  0  0  0  0  0  0  0
  140.4280   80.9090  223.5800 C   0  0  0  0  0  0  0  0  0  0  0  0
  141.6750   81.5120  223.7510 C   0  0  0  0  0  0  0  0  0  0  0  0
  142.8090   80.7710  223.4930 C   0  0  0  0  0  0  0  0  0  0  0  0
  142.7110   79.4570  223.0750 C   0  0  0  0  0  0  0  0  0  0  0  0
  141.4700   78.8760  222.9110 C   0  0  0  0  0  0  0  0  0  0  0  0
  141.4510   77.5960  222.5030 N   0  0  0  0  0  0  0  0  0  0  0  0
  142.2880   75.3000  221.8090 H   0  0  0  0  0  0  0  0  0  0  0  0
  141.2790   72.8582  222.1110 H   0  0  0  0  0  0  0  0  0  0  0  0
  140.1458   73.5173  220.7750 H   0  0  0  0  0  0  0  0  0  0  0  0
  144.1224   71.3283  221.0393 H   0  0  0  0  0  0  0  0  0  0  0  0
  144.9476   71.5789  219.5401 H   0  0  0  0  0  0  0  0  0  0  0  0
  145.1476   73.1098  222.1595 H   0  0  0  0  0  0  0  0  0  0  0  0
  146.4290   72.8384  220.9627 H   0  0  0  0  0  0  0  0  0  0  0  0
  144.5732   75.1119  221.2137 H   0  0  0  0  0  0  0  0  0  0  0  0
  145.9818   75.0095  220.1867 H   0  0  0  0  0  0  0  0  0  0  0  0
  144.6041   73.8029  218.3545 H   0  0  0  0  0  0  0  0  0  0  0  0
  143.9220   76.2839  220.7748 H   0  0  0  0  0  0  0  0  0  0  0  0
  142.5729   78.3065  220.3047 H   0  0  0  0  0  0  0  0  0  0  0  0
  141.2618   76.5937  216.5812 H   0  0  0  0  0  0  0  0  0  0  0  0
  142.6100   74.6087  217.0816 H   0  0  0  0  0  0  0  0  0  0  0  0
  138.1055   77.1960  222.4333 H   0  0  0  0  0  0  0  0  0  0  0  0
  139.5120   81.4845  223.7797 H   0  0  0  0  0  0  0  0  0  0  0  0
  141.7517   82.5573  224.0849 H   0  0  0  0  0  0  0  0  0  0  0  0
  143.8006   81.2297  223.6210 H   0  0  0  0  0  0  0  0  0  0  0  0
  143.6221   78.8746  222.8731 H   0  0  0  0  0  0  0  0  0  0  0  0
  1  2  2  0
  2  3  1  0
  3  4  1  0
  4  5  1  0
  5  6  2  0
  5  7  1  0
  7  8  1  0
  8  9  1  0
  9 10  1  0
 10 11  1  0
 11 12  1  0
 12 13  2  0
 13 14  1  0
 14 15  2  0
 15 16  1  0
 15 17  1  0
 17 18  2  0
  2 19  1  0
 19 20  2  0
 20 21  1  0
 21 22  2  0
 22 23  1  0
 23 24  2  0
 24 25  1  0
 25 26  2  0
 26 27  1  0
 27 28  2  0
 11  7  1  0
 18 12  1  0
 28 19  1  0
 27 22  1  0
  3 29  1  0
  4 30  1  0
  4 31  1  0
  8 32  1  0
  8 33  1  0
  9 34  1  0
  9 35  1  0
 10 36  1  0
 10 37  1  0
 11 38  1  6
 13 39  1  0
 14 40  1  0
 17 41  1  0
 18 42  1  0
 20 43  1  0
 23 44  1  0
 24 45  1  0
 25 46  1  0
 26 47  1  0
M  END
>  <smiles>  (7) 
O=C(NCC(=O)N1CCCC1c1ccc(Cl)cc1)c1cnc2ccccc2n1

>  <score_type>  (7) 
oracle

>  <origin>  (7) 
autodockgpu

>  <m_score__min__energy>  (7) 
-8.1899999999999995

>  <m_primary>  (7) 
energy

>  <meeko>  (7) 
{"free_energy": -7.04, "intermolecular_energy": -8.53, "internal_energy": -2.48, "cluster_size": 9, "cluster_id": 3, "rank_in_cluster": 3}

>  <energy>  (7) 
-7.62

>  <cluster_rmsd>  (7) 
1.19

>  <rmsd>  (7) 
270.83

>  <cluster>  (7) 
2

$$$$

     RDKit          3D

 47 50  0  0  1  0  0  0  0  0999 V2000
  141.1730   71.9300  221.7350 O   0  0  0  0  0  0  0  0  0  0  0  0
  140.2790   72.0220  222.6010 C   0  0  0  0  0  0  0  0  0  0  0  0
  139.2960   73.0630  222.3650 N   0  0  0  0  0  0  0  0  0  0  0  0
  139.4840   73.8410  221.1760 C   0  0  0  0  0  0  0  0  0  0  0  0
  140.6020   74.7700  221.1090 C   0  0  0  0  0  0  0  0  0  0  0  0
  141.0440   75.1400  222.2770 O   0  0  0  0  0  0  0  0  0  0  0  0
  141.2740   75.3320  220.0220 N   0  0  0  0  0  0  0  0  0  0  0  0
  141.9960   74.7100  218.8910 C   0  0  0  0  0  0  0  0  0  0  0  0
  143.3200   75.4240  219.0100 C   0  0  0  0  0  0  0  0  0  0  0  0
  143.0340   76.7400  219.6770 C   0  0  0  0  0  0  0  0  0  0  0  0
  141.4900   76.7630  219.7170 C   0  0  2  0  0  0  0  0  0  0  0  0
  141.0340   77.6820  220.7610 C   0  0  0  0  0  0  0  0  0  0  0  0
  139.6480   77.8550  220.8890 C   0  0  0  0  0  0  0  0  0  0  0  0
  139.1380   78.7380  221.8320 C   0  0  0  0  0  0  0  0  0  0  0  0
  139.9780   79.4660  222.6630 C   0  0  0  0  0  0  0  0  0  0  0  0
  139.2660   80.5620  223.8260 Cl  0  0  0  0  0  0  0  0  0  0  0  0
  141.3440   79.3020  222.5440 C   0  0  0  0  0  0  0  0  0  0  0  0
  141.8140   78.4170  221.5980 C   0  0  0  0  0  0  0  0  0  0  0  0
  140.1810   71.1750  223.7790 C   0  0  0  0  0  0  0  0  0  0  0  0
  139.5680   69.9590  223.6480 C   0  0  0  0  0  0  0  0  0  0  0  0
  139.4650   69.1520  224.7300 N   0  0  0  0  0  0  0  0  0  0  0  0
  139.9600   69.5300  225.9440 C   0  0  0  0  0  0  0  0  0  0  0  0
  139.8700   68.7360  227.0560 C   0  0  0  0  0  0  0  0  0  0  0  0
  140.3900   69.1640  228.2780 C   0  0  0  0  0  0  0  0  0  0  0  0
  140.9950   70.4020  228.3420 C   0  0  0  0  0  0  0  0  0  0  0  0
  141.0840   71.2010  227.2170 C   0  0  0  0  0  0  0  0  0  0  0  0
  140.5640   70.7620  226.0160 C   0  0  0  0  0  0  0  0  0  0  0  0
  140.6860   71.5900  224.9650 N   0  0  0  0  0  0  0  0  0  0  0  0
  138.5150   73.1980  223.0530 H   0  0  0  0  0  0  0  0  0  0  0  0
  139.6035   73.1326  220.3430 H   0  0  0  0  0  0  0  0  0  0  0  0
  138.5982   74.4924  221.1448 H   0  0  0  0  0  0  0  0  0  0  0  0
  142.1038   73.6232  219.0222 H   0  0  0  0  0  0  0  0  0  0  0  0
  141.5012   74.8057  217.9132 H   0  0  0  0  0  0  0  0  0  0  0  0
  144.0180   74.8320  219.6202 H   0  0  0  0  0  0  0  0  0  0  0  0
  143.7846   75.5695  218.0236 H   0  0  0  0  0  0  0  0  0  0  0  0
  143.4589   76.7728  220.6911 H   0  0  0  0  0  0  0  0  0  0  0  0
  143.4730   77.6024  219.1540 H   0  0  0  0  0  0  0  0  0  0  0  0
  140.9498   77.1164  218.8263 H   0  0  0  0  0  0  0  0  0  0  0  0
  138.9627   77.2895  220.2404 H   0  0  0  0  0  0  0  0  0  0  0  0
  138.0488   78.8626  221.9218 H   0  0  0  0  0  0  0  0  0  0  0  0
  142.0383   79.8627  223.1871 H   0  0  0  0  0  0  0  0  0  0  0  0
  142.9040   78.2958  221.5134 H   0  0  0  0  0  0  0  0  0  0  0  0
  139.1638   69.6410  222.6756 H   0  0  0  0  0  0  0  0  0  0  0  0
  139.3834   67.7520  226.9853 H   0  0  0  0  0  0  0  0  0  0  0  0
  140.3189   68.5272  229.1721 H   0  0  0  0  0  0  0  0  0  0  0  0
  141.4104   70.7569  229.2967 H   0  0  0  0  0  0  0  0  0  0  0  0
  141.5691   72.1863  227.2791 H   0  0  0  0  0  0  0  0  0  0  0  0
  1  2  2  0
  2  3  1  0
  3  4  1  0
  4  5  1  0
  5  6  2  0
  5  7  1  0
  7  8  1  0
  8  9  1  0
  9 10  1  0
 10 11  1  0
 11 12  1  0
 12 13  2  0
 13 14  1  0
 14 15  2  0
 15 16  1  0
 15 17  1  0
 17 18  2  0
  2 19  1  0
 19 20  2  0
 20 21  1  0
 21 22  2  0
 22 23  1  0
 23 24  2  0
 24 25  1  0
 25 26  2  0
 26 27  1  0
 27 28  2  0
 11  7  1  0
 18 12  1  0
 28 19  1  0
 27 22  1  0
  3 29  1  0
  4 30  1  0
  4 31  1  0
  8 32  1  0
  8 33  1  0
  9 34  1  0
  9 35  1  0
 10 36  1  0
 10 37  1  0
 11 38  1  6
 13 39  1  0
 14 40  1  0
 17 41  1  0
 18 42  1  0
 20 43  1  0
 23 44  1  0
 24 45  1  0
 25 46  1  0
 26 47  1  0
M  END
>  <smiles>  (8) 
O=C(NCC(=O)N1CCCC1c1ccc(Cl)cc1)c1cnc2ccccc2n1

>  <score_type>  (8) 
oracle

>  <origin>  (8) 
autodockgpu

>  <m_score__min__energy>  (8) 
-8.1899999999999995

>  <m_primary>  (8) 
energy

>  <meeko>  (8) 
{"free_energy": -8.19, "intermolecular_energy": -9.68, "internal_energy": -1.24, "cluster_size": 2, "cluster_id": 1, "rank_in_cluster": 1}

>  <energy>  (8) 
-7.32

>  <cluster_rmsd>  (8) 
0.0

>  <rmsd>  (8) 
271.1

>  <cluster>  (8) 
3

$$$$

     RDKit          3D

 47 50  0  0  1  0  0  0  0  0999 V2000
  140.8740   77.6040  218.3540 O   0  0  0  0  0  0  0  0  0  0  0  0
  141.7840   77.3520  219.1710 C   0  0  0  0  0  0  0  0  0  0  0  0
  142.1760   78.4620  220.0200 N   0  0  0  0  0  0  0  0  0  0  0  0
  141.4700   79.6910  219.8060 C   0  0  0  0  0  0  0  0  0  0  0  0
  140.7260   80.2790  220.9090 C   0  0  0  0  0  0  0  0  0  0  0  0
  139.6390   80.8940  220.5370 O   0  0  0  0  0  0  0  0  0  0  0  0
  140.9740   80.3030  222.2830 N   0  0  0  0  0  0  0  0  0  0  0  0
  141.5660   81.3420  223.1530 C   0  0  0  0  0  0  0  0  0  0  0  0
  142.6510   80.5320  223.8160 C   0  0  0  0  0  0  0  0  0  0  0  0
  142.1880   79.1020  223.7950 C   0  0  0  0  0  0  0  0  0  0  0  0
  140.7390   79.2320  223.2760 C   0  0  2  0  0  0  0  0  0  0  0  0
  140.3010   77.9580  222.7030 C   0  0  0  0  0  0  0  0  0  0  0  0
  138.9400   77.8440  222.3820 C   0  0  0  0  0  0  0  0  0  0  0  0
  138.4400   76.6540  221.8700 C   0  0  0  0  0  0  0  0  0  0  0  0
  139.2650   75.5580  221.6630 C   0  0  0  0  0  0  0  0  0  0  0  0
  138.5670   74.0900  221.0140 Cl  0  0  0  0  0  0  0  0  0  0  0  0
  140.6070   75.6610  221.9750 C   0  0  0  0  0  0  0  0  0  0  0  0
  141.0670   76.8570  222.4820 C   0  0  0  0  0  0  0  0  0  0  0  0
  142.4370   76.0600  219.3050 C   0  0  0  0  0  0  0  0  0  0  0  0
  141.8490   74.9760  218.7110 C   0  0  0  0  0  0  0  0  0  0  0  0
  142.4380   73.7630  218.8220 N   0  0  0  0  0  0  0  0  0  0  0  0
  143.6030   73.6020  219.5130 C   0  0  0  0  0  0  0  0  0  0  0  0
  144.2220   72.3880  219.6420 C   0  0  0  0  0  0  0  0  0  0  0  0
  145.4130   72.2710  220.3600 C   0  0  0  0  0  0  0  0  0  0  0  0
  145.9530   73.4030  220.9350 C   0  0  0  0  0  0  0  0  0  0  0  0
  145.3250   74.6280  220.8020 C   0  0  0  0  0  0  0  0  0  0  0  0
  144.1470   74.7250  220.0890 C   0  0  0  0  0  0  0  0  0  0  0  0
  143.5930   75.9460  220.0010 N   0  0  0  0  0  0  0  0  0  0  0  0
  142.9360   78.3220  220.7290 H   0  0  0  0  0  0  0  0  0  0  0  0
  142.2117   80.4367  219.4839 H   0  0  0  0  0  0  0  0  0  0  0  0
  140.6917   79.4240  219.0759 H   0  0  0  0  0  0  0  0  0  0  0  0
  141.9783   82.1783  222.5694 H   0  0  0  0  0  0  0  0  0  0  0  0
  140.8610   81.8291  223.8427 H   0  0  0  0  0  0  0  0  0  0  0  0
  143.5949   80.6342  223.2605 H   0  0  0  0  0  0  0  0  0  0  0  0
  142.8329   80.8766  224.8447 H   0  0  0  0  0  0  0  0  0  0  0  0
  142.8020   78.4946  223.1138 H   0  0  0  0  0  0  0  0  0  0  0  0
  142.2626   78.6008  224.7713 H   0  0  0  0  0  0  0  0  0  0  0  0
  139.9437   79.4617  224.0004 H   0  0  0  0  0  0  0  0  0  0  0  0
  138.2668   78.7001  222.5364 H   0  0  0  0  0  0  0  0  0  0  0  0
  137.3705   76.5790  221.6241 H   0  0  0  0  0  0  0  0  0  0  0  0
  141.2894   74.8118  221.8229 H   0  0  0  0  0  0  0  0  0  0  0  0
  142.1372   76.9261  222.7269 H   0  0  0  0  0  0  0  0  0  0  0  0
  140.9094   75.0896  218.1504 H   0  0  0  0  0  0  0  0  0  0  0  0
  143.7768   71.4968  219.1756 H   0  0  0  0  0  0  0  0  0  0  0  0
  145.9112   71.2960  220.4654 H   0  0  0  0  0  0  0  0  0  0  0  0
  146.8914   73.3305  221.5043 H   0  0  0  0  0  0  0  0  0  0  0  0
  145.7640   75.5245  221.2641 H   0  0  0  0  0  0  0  0  0  0  0  0
  1  2  2  0
  2  3  1  0
  3  4  1  0
  4  5  1  0
  5  6  2  0
  5  7  1  0
  7  8  1  0
  8  9  1  0
  9 10  1  0
 10 11  1  0
 11 12  1  0
 12 13  2  0
 13 14  1  0
 14 15  2  0
 15 16  1  0
 15 17  1  0
 17 18  2  0
  2 19  1  0
 19 20  2  0
 20 21  1  0
 21 22  2  0
 22 23  1  0
 23 24  2  0
 24 25  1  0
 25 26  2  0
 26 27  1  0
 27 28  2  0
 11  7  1  0
 18 12  1  0
 28 19  1  0
 27 22  1  0
  3 29  1  0
  4 30  1  0
  4 31  1  0
  8 32  1  0
  8 33  1  0
  9 34  1  0
  9 35  1  0
 10 36  1  0
 10 37  1  0
 11 38  1  1
 13 39  1  0
 14 40  1  0
 17 41  1  0
 18 42  1  0
 20 43  1  0
 23 44  1  0
 24 45  1  0
 25 46  1  0
 26 47  1  0
M  END
>  <smiles>  (9) 
O=C(NCC(=O)N1CCCC1c1ccc(Cl)cc1)c1cnc2ccccc2n1

>  <score_type>  (9) 
oracle

>  <origin>  (9) 
autodockgpu

>  <m_score__min__energy>  (9) 
-8.1899999999999995

>  <m_primary>  (9) 
energy

>  <meeko>  (9) 
{"free_energy": -6.84, "intermolecular_energy": -8.33, "internal_energy": -2.54, "cluster_size": 4, "cluster_id": 4, "rank_in_cluster": 2}

>  <energy>  (9) 
-7.1

>  <cluster_rmsd>  (9) 
0.31

>  <rmsd>  (9) 
271.11

>  <cluster>  (9) 
3

$$$$

     RDKit          3D

 47 50  0  0  1  0  0  0  0  0999 V2000
  140.7000   77.6810  218.5300 O   0  0  0  0  0  0  0  0  0  0  0  0
  141.6490   77.4210  219.2990 C   0  0  0  0  0  0  0  0  0  0  0  0
  142.1520   78.5500  220.0600 N   0  0  0  0  0  0  0  0  0  0  0  0
  141.4960   79.8030  219.8250 C   0  0  0  0  0  0  0  0  0  0  0  0
  140.7570   80.4270  220.9110 C   0  0  0  0  0  0  0  0  0  0  0  0
  139.6290   80.9610  220.5360 O   0  0  0  0  0  0  0  0  0  0  0  0
  141.0430   80.5550  222.2720 N   0  0  0  0  0  0  0  0  0  0  0  0
  141.7490   81.6120  223.0280 C   0  0  0  0  0  0  0  0  0  0  0  0
  142.7760   80.7710  223.7440 C   0  0  0  0  0  0  0  0  0  0  0  0
  142.1870   79.3940  223.8670 C   0  0  0  0  0  0  0  0  0  0  0  0
  140.7410   79.6070  223.3660 C   0  0  2  0  0  0  0  0  0  0  0  0
  140.1760   78.3310  222.9250 C   0  0  0  0  0  0  0  0  0  0  0  0
  141.0750   77.2690  222.7460 C   0  0  0  0  0  0  0  0  0  0  0  0
  140.6200   76.0370  222.2930 C   0  0  0  0  0  0  0  0  0  0  0  0
  139.2790   75.8260  222.0080 C   0  0  0  0  0  0  0  0  0  0  0  0
  138.7780   74.2490  221.4410 Cl  0  0  0  0  0  0  0  0  0  0  0  0
  138.3860   76.8660  222.1820 C   0  0  0  0  0  0  0  0  0  0  0  0
  138.8730   78.0740  222.6330 C   0  0  0  0  0  0  0  0  0  0  0  0
  142.2430   76.1040  219.4600 C   0  0  0  0  0  0  0  0  0  0  0  0
  141.5160   75.0160  219.0620 C   0  0  0  0  0  0  0  0  0  0  0  0
  142.0480   73.7800  219.2020 N   0  0  0  0  0  0  0  0  0  0  0  0
  143.2920   73.6000  219.7320 C   0  0  0  0  0  0  0  0  0  0  0  0
  143.8550   72.3620  219.8870 C   0  0  0  0  0  0  0  0  0  0  0  0
  145.1320   72.2270  220.4350 C   0  0  0  0  0  0  0  0  0  0  0  0
  145.8120   73.3650  220.8170 C   0  0  0  0  0  0  0  0  0  0  0  0
  145.2390   74.6140  220.6590 C   0  0  0  0  0  0  0  0  0  0  0  0
  143.9750   74.7290  220.1160 C   0  0  0  0  0  0  0  0  0  0  0  0
  143.4820   75.9730  219.9920 N   0  0  0  0  0  0  0  0  0  0  0  0
  142.9490   78.4050  220.7260 H   0  0  0  0  0  0  0  0  0  0  0  0
  142.2702   80.5179  219.5096 H   0  0  0  0  0  0  0  0  0  0  0  0
  140.7203   79.5595  219.0841 H   0  0  0  0  0  0  0  0  0  0  0  0
  142.2176   82.3495  222.3599 H   0  0  0  0  0  0  0  0  0  0  0  0
  141.1096   82.2232  223.6819 H   0  0  0  0  0  0  0  0  0  0  0  0
  143.7096   80.7348  223.1634 H   0  0  0  0  0  0  0  0  0  0  0  0
  143.0165   81.1911  224.7317 H   0  0  0  0  0  0  0  0  0  0  0  0
  142.7253   78.6727  223.2345 H   0  0  0  0  0  0  0  0  0  0  0  0
  142.2436   78.9806  224.8848 H   0  0  0  0  0  0  0  0  0  0  0  0
  139.9896   79.9744  224.0804 H   0  0  0  0  0  0  0  0  0  0  0  0
  142.1434   77.4122  222.9650 H   0  0  0  0  0  0  0  0  0  0  0  0
  141.3366   75.2135  222.1578 H   0  0  0  0  0  0  0  0  0  0  0  0
  137.3155   76.7334  221.9665 H   0  0  0  0  0  0  0  0  0  0  0  0
  138.1518   78.8936  222.7671 H   0  0  0  0  0  0  0  0  0  0  0  0
  140.5111   75.1443  218.6333 H   0  0  0  0  0  0  0  0  0  0  0  0
  143.2968   71.4662  219.5773 H   0  0  0  0  0  0  0  0  0  0  0  0
  145.5868   71.2332  220.5597 H   0  0  0  0  0  0  0  0  0  0  0  0
  146.8190   73.2783  221.2512 H   0  0  0  0  0  0  0  0  0  0  0  0
  145.7902   75.5151  220.9658 H   0  0  0  0  0  0  0  0  0  0  0  0
  1  2  2  0
  2  3  1  0
  3  4  1  0
  4  5  1  0
  5  6  2  0
  5  7  1  0
  7  8  1  0
  8  9  1  0
  9 10  1  0
 10 11  1  0
 11 12  1  0
 12 13  2  0
 13 14  1  0
 14 15  2  0
 15 16  1  0
 15 17  1  0
 17 18  2  0
  2 19  1  0
 19 20  2  0
 20 21  1  0
 21 22  2  0
 22 23  1  0
 23 24  2  0
 24 25  1  0
 25 26  2  0
 26 27  1  0
 27 28  2  0
 11  7  1  0
 18 12  1  0
 28 19  1  0
 27 22  1  0
  3 29  1  0
  4 30  1  0
  4 31  1  0
  8 32  1  0
  8 33  1  0
  9 34  1  0
  9 35  1  0
 10 36  1  0
 10 37  1  0
 11 38  1  1
 13 39  1  0
 14 40  1  0
 17 41  1  0
 18 42  1  0
 20 43  1  0
 23 44  1  0
 24 45  1  0
 25 46  1  0
 26 47  1  0
M  END
>  <smiles>  (10) 
O=C(NCC(=O)N1CCCC1c1ccc(Cl)cc1)c1cnc2ccccc2n1

>  <score_type>  (10) 
oracle

>  <origin>  (10) 
autodockgpu

>  <m_score__min__energy>  (10) 
-8.1899999999999995

>  <m_primary>  (10) 
energy

>  <meeko>  (10) 
{"free_energy": -6.9, "intermolecular_energy": -8.39, "internal_energy": -2.55, "cluster_size": 4, "cluster_id": 4, "rank_in_cluster": 1}

>  <energy>  (10) 
-7.04

>  <cluster_rmsd>  (10) 
0.41

>  <rmsd>  (10) 
271.08

>  <cluster>  (10) 
3

$$$$

     RDKit          3D

 47 50  0  0  1  0  0  0  0  0999 V2000
  141.3160   72.0920  221.3090 O   0  0  0  0  0  0  0  0  0  0  0  0
  140.6350   72.4160  222.3040 C   0  0  0  0  0  0  0  0  0  0  0  0
  140.1350   73.7790  222.2920 N   0  0  0  0  0  0  0  0  0  0  0  0
  140.4890   74.5630  221.1460 C   0  0  0  0  0  0  0  0  0  0  0  0
  141.0900   75.8730  221.3440 C   0  0  0  0  0  0  0  0  0  0  0  0
  140.9530   76.3320  222.5560 O   0  0  0  0  0  0  0  0  0  0  0  0
  141.7780   76.7170  220.4700 N   0  0  0  0  0  0  0  0  0  0  0  0
  141.5200   78.1110  220.0500 C   0  0  0  0  0  0  0  0  0  0  0  0
  141.5240   77.9320  218.5530 C   0  0  0  0  0  0  0  0  0  0  0  0
  142.3820   76.7300  218.2710 C   0  0  0  0  0  0  0  0  0  0  0  0
  142.9790   76.4170  219.6600 C   0  0  2  0  0  0  0  0  0  0  0  0
  143.4120   75.0190  219.7110 C   0  0  0  0  0  0  0  0  0  0  0  0
  142.7620   74.1240  218.8480 C   0  0  0  0  0  0  0  0  0  0  0  0
  143.0900   72.7750  218.8630 C   0  0  0  0  0  0  0  0  0  0  0  0
  144.0590   72.2810  219.7250 C   0  0  0  0  0  0  0  0  0  0  0  0
  144.4200   70.5690  219.6910 Cl  0  0  0  0  0  0  0  0  0  0  0  0
  144.7040   73.1540  220.5790 C   0  0  0  0  0  0  0  0  0  0  0  0
  144.3530   74.4870  220.5360 C   0  0  0  0  0  0  0  0  0  0  0  0
  140.3350   71.5340  223.4200 C   0  0  0  0  0  0  0  0  0  0  0  0
  139.6720   70.3670  223.1590 C   0  0  0  0  0  0  0  0  0  0  0  0
  139.3810   69.5300  224.1810 N   0  0  0  0  0  0  0  0  0  0  0  0
  139.7350   69.8290  225.4640 C   0  0  0  0  0  0  0  0  0  0  0  0
  139.4540   69.0020  226.5190 C   0  0  0  0  0  0  0  0  0  0  0  0
  139.8370   69.3510  227.8150 C   0  0  0  0  0  0  0  0  0  0  0  0
  140.5030   70.5430  228.0110 C   0  0  0  0  0  0  0  0  0  0  0  0
  140.7850   71.3750  226.9430 C   0  0  0  0  0  0  0  0  0  0  0  0
  140.3990   71.0150  225.6680 C   0  0  0  0  0  0  0  0  0  0  0  0
  140.7060   71.8720  224.6790 N   0  0  0  0  0  0  0  0  0  0  0  0
  139.5560   74.1190  223.0970 H   0  0  0  0  0  0  0  0  0  0  0  0
  141.2015   73.9677  220.5562 H   0  0  0  0  0  0  0  0  0  0  0  0
  139.5222   74.7862  220.6712 H   0  0  0  0  0  0  0  0  0  0  0  0
  140.5488   78.4756  220.4159 H   0  0  0  0  0  0  0  0  0  0  0  0
  142.2369   78.8526  220.4321 H   0  0  0  0  0  0  0  0  0  0  0  0
  140.5004   77.7629  218.1874 H   0  0  0  0  0  0  0  0  0  0  0  0
  141.9129   78.8272  218.0456 H   0  0  0  0  0  0  0  0  0  0  0  0
  141.7789   75.8890  217.8981 H   0  0  0  0  0  0  0  0  0  0  0  0
  143.1417   76.9041  217.4947 H   0  0  0  0  0  0  0  0  0  0  0  0
  143.8791   76.9645  219.9763 H   0  0  0  0  0  0  0  0  0  0  0  0
  141.9896   74.4924  218.1569 H   0  0  0  0  0  0  0  0  0  0  0  0
  142.5727   72.0856  218.1796 H   0  0  0  0  0  0  0  0  0  0  0  0
  145.4769   72.7957  221.2748 H   0  0  0  0  0  0  0  0  0  0  0  0
  144.8739   75.1720  221.2212 H   0  0  0  0  0  0  0  0  0  0  0  0
  139.3787   70.1118  222.1300 H   0  0  0  0  0  0  0  0  0  0  0  0
  138.9222   68.0552  226.3435 H   0  0  0  0  0  0  0  0  0  0  0  0
  139.6121   68.6883  228.6637 H   0  0  0  0  0  0  0  0  0  0  0  0
  140.8125   70.8343  229.0256 H   0  0  0  0  0  0  0  0  0  0  0  0
  141.3168   72.3234  227.1097 H   0  0  0  0  0  0  0  0  0  0  0  0
  1  2  2  0
  2  3  1  0
  3  4  1  0
  4  5  1  0
  5  6  2  0
  5  7  1  0
  7  8  1  0
  8  9  1  0
  9 10  1  0
 10 11  1  0
 11 12  1  0
 12 13  2  0
 13 14  1  0
 14 15  2  0
 15 16  1  0
 15 17  1  0
 17 18  2  0
  2 19  1  0
 19 20  2  0
 20 21  1  0
 21 22  2  0
 22 23  1  0
 23 24  2  0
 24 25  1  0
 25 26  2  0
 26 27  1  0
 27 28  2  0
 11  7  1  0
 18 12  1  0
 28 19  1  0
 27 22  1  0
  3 29  1  0
  4 30  1  0
  4 31  1  0
  8 32  1  0
  8 33  1  0
  9 34  1  0
  9 35  1  0
 10 36  1  0
 10 37  1  0
 11 38  1  1
 13 39  1  0
 14 40  1  0
 17 41  1  0
 18 42  1  0
 20 43  1  0
 23 44  1  0
 24 45  1  0
 25 46  1  0
 26 47  1  0
M  END
>  <smiles>  (11) 
O=C(NCC(=O)N1CCCC1c1ccc(Cl)cc1)c1cnc2ccccc2n1

>  <score_type>  (11) 
oracle

>  <origin>  (11) 
autodockgpu

>  <m_score__min__energy>  (11) 
-8.1899999999999995

>  <m_primary>  (11) 
energy

>  <meeko>  (11) 
{"free_energy": -7.72, "intermolecular_energy": -9.21, "internal_energy": -1.81, "cluster_size": 5, "cluster_id": 2, "rank_in_cluster": 3}

>  <energy>  (11) 
-6.98

>  <cluster_rmsd>  (11) 
0.65

>  <rmsd>  (11) 
271.03

>  <cluster>  (11) 
3

$$$$

     RDKit          3D

 47 50  0  0  1  0  0  0  0  0999 V2000
  138.9870   75.0290  221.7890 O   0  0  0  0  0  0  0  0  0  0  0  0
  140.0720   75.6160  221.9770 C   0  0  0  0  0  0  0  0  0  0  0  0
  141.2570   74.7990  221.7900 N   0  0  0  0  0  0  0  0  0  0  0  0
  141.0210   73.4350  221.4170 C   0  0  0  0  0  0  0  0  0  0  0  0
  141.8610   72.8260  220.3970 C   0  0  0  0  0  0  0  0  0  0  0  0
  141.2420   71.9360  219.6740 O   0  0  0  0  0  0  0  0  0  0  0  0
  143.2020   73.0250  220.0630 N   0  0  0  0  0  0  0  0  0  0  0  0
  144.4010   72.1910  220.2920 C   0  0  0  0  0  0  0  0  0  0  0  0
  145.2870   73.2010  220.9770 C   0  0  0  0  0  0  0  0  0  0  0  0
  144.8360   74.5540  220.5020 C   0  0  0  0  0  0  0  0  0  0  0  0
  143.8180   74.1940  219.3980 C   0  0  2  0  0  0  0  0  0  0  0  0
  142.9060   75.3180  219.1790 C   0  0  0  0  0  0  0  0  0  0  0  0
  143.2730   76.5490  219.7410 C   0  0  0  0  0  0  0  0  0  0  0  0
  142.4420   77.6540  219.6090 C   0  0  0  0  0  0  0  0  0  0  0  0
  141.2390   77.5700  218.9240 C   0  0  0  0  0  0  0  0  0  0  0  0
  140.2420   79.0020  218.7970 Cl  0  0  0  0  0  0  0  0  0  0  0  0
  140.8680   76.3610  218.3660 C   0  0  0  0  0  0  0  0  0  0  0  0
  141.7180   75.2870  218.5180 C   0  0  0  0  0  0  0  0  0  0  0  0
  140.1980   77.0140  222.3560 C   0  0  0  0  0  0  0  0  0  0  0  0
  139.0520   77.7420  222.5250 C   0  0  0  0  0  0  0  0  0  0  0  0
  139.1440   79.0450  222.8780 N   0  0  0  0  0  0  0  0  0  0  0  0
  140.3550   79.6440  223.0670 C   0  0  0  0  0  0  0  0  0  0  0  0
  140.4780   80.9600  223.4240 C   0  0  0  0  0  0  0  0  0  0  0  0
  141.7390   81.5290  223.6060 C   0  0  0  0  0  0  0  0  0  0  0  0
  142.8560   80.7410  223.4200 C   0  0  0  0  0  0  0  0  0  0  0  0
  142.7260   79.4120  223.0590 C   0  0  0  0  0  0  0  0  0  0  0  0
  141.4710   78.8650  222.8830 C   0  0  0  0  0  0  0  0  0  0  0  0
  141.4220   77.5680  222.5330 N   0  0  0  0  0  0  0  0  0  0  0  0
  142.2030   75.2280  221.9310 H   0  0  0  0  0  0  0  0  0  0  0  0
  141.1298   72.8285  222.3282 H   0  0  0  0  0  0  0  0  0  0  0  0
  140.0222   73.4570  220.9568 H   0  0  0  0  0  0  0  0  0  0  0  0
  144.1831   71.3304  220.9415 H   0  0  0  0  0  0  0  0  0  0  0  0
  144.8292   71.7325  219.3884 H   0  0  0  0  0  0  0  0  0  0  0  0
  145.1767   73.1251  222.0688 H   0  0  0  0  0  0  0  0  0  0  0  0
  146.3468   73.0279  220.7385 H   0  0  0  0  0  0  0  0  0  0  0  0
  144.3586   75.1223  221.3139 H   0  0  0  0  0  0  0  0  0  0  0  0
  145.6588   75.1936  220.1502 H   0  0  0  0  0  0  0  0  0  0  0  0
  144.1968   73.9841  218.3868 H   0  0  0  0  0  0  0  0  0  0  0  0
  144.2227   76.6400  220.2885 H   0  0  0  0  0  0  0  0  0  0  0  0
  142.7434   78.6129  220.0557 H   0  0  0  0  0  0  0  0  0  0  0  0
  139.9208   76.2590  217.8160 H   0  0  0  0  0  0  0  0  0  0  0  0
  141.4117   74.3303  218.0698 H   0  0  0  0  0  0  0  0  0  0  0  0
  138.0679   77.2738  222.3757 H   0  0  0  0  0  0  0  0  0  0  0  0
  139.5762   81.5732  223.5684 H   0  0  0  0  0  0  0  0  0  0  0  0
  141.8406   82.5862  223.8925 H   0  0  0  0  0  0  0  0  0  0  0  0
  143.8579   81.1729  223.5599 H   0  0  0  0  0  0  0  0  0  0  0  0
  143.6223   78.7914  222.9123 H   0  0  0  0  0  0  0  0  0  0  0  0
  1  2  2  0
  2  3  1  0
  3  4  1  0
  4  5  1  0
  5  6  2  0
  5  7  1  0
  7  8  1  0
  8  9  1  0
  9 10  1  0
 10 11  1  0
 11 12  1  0
 12 13  2  0
 13 14  1  0
 14 15  2  0
 15 16  1  0
 15 17  1  0
 17 18  2  0
  2 19  1  0
 19 20  2  0
 20 21  1  0
 21 22  2  0
 22 23  1  0
 23 24  2  0
 24 25  1  0
 25 26  2  0
 26 27  1  0
 27 28  2  0
 11  7  1  0
 18 12  1  0
 28 19  1  0
 27 22  1  0
  3 29  1  0
  4 30  1  0
  4 31  1  0
  8 32  1  0
  8 33  1  0
  9 34  1  0
  9 35  1  0
 10 36  1  0
 10 37  1  0
 11 38  1  6
 13 39  1  0
 14 40  1  0
 17 41  1  0
 18 42  1  0
 20 43  1  0
 23 44  1  0
 24 45  1  0
 25 46  1  0
 26 47  1  0
M  END
>  <smiles>  (12) 
O=C(NCC(=O)N1CCCC1c1ccc(Cl)cc1)c1cnc2ccccc2n1

>  <score_type>  (12) 
oracle

>  <origin>  (12) 
autodockgpu

>  <m_score__min__energy>  (12) 
-8.1899999999999995

>  <m_primary>  (12) 
energy

>  <meeko>  (12) 
{"free_energy": -6.82, "intermolecular_energy": -8.31, "internal_energy": -2.77, "cluster_size": 9, "cluster_id": 3, "rank_in_cluster": 8}

>  <energy>  (12) 
-6.84

>  <cluster_rmsd>  (12) 
0.73

>  <rmsd>  (12) 
271.1

>  <cluster>  (12) 
3

$$$$

     RDKit          3D

 47 50  0  0  1  0  0  0  0  0999 V2000
  139.0080   75.0820  221.8160 O   0  0  0  0  0  0  0  0  0  0  0  0
  140.0960   75.6660  221.9990 C   0  0  0  0  0  0  0  0  0  0  0  0
  141.2770   74.8420  221.8160 N   0  0  0  0  0  0  0  0  0  0  0  0
  141.0340   73.4760  221.4540 C   0  0  0  0  0  0  0  0  0  0  0  0
  141.8210   72.8790  220.3860 C   0  0  0  0  0  0  0  0  0  0  0  0
  141.1380   72.0740  219.6210 O   0  0  0  0  0  0  0  0  0  0  0  0
  143.1680   73.0130  220.0420 N   0  0  0  0  0  0  0  0  0  0  0  0
  144.3290   72.1290  220.2740 C   0  0  0  0  0  0  0  0  0  0  0  0
  145.2640   73.1050  220.9420 C   0  0  0  0  0  0  0  0  0  0  0  0
  144.8720   74.4720  220.4530 C   0  0  0  0  0  0  0  0  0  0  0  0
  143.8310   74.1450  219.3590 C   0  0  2  0  0  0  0  0  0  0  0  0
  142.9690   75.3060  219.1310 C   0  0  0  0  0  0  0  0  0  0  0  0
  143.3500   76.5070  219.7480 C   0  0  0  0  0  0  0  0  0  0  0  0
  142.5640   77.6440  219.6100 C   0  0  0  0  0  0  0  0  0  0  0  0
  141.3930   77.6220  218.8660 C   0  0  0  0  0  0  0  0  0  0  0  0
  140.4520   79.0910  218.7360 Cl  0  0  0  0  0  0  0  0  0  0  0  0
  141.0100   76.4440  218.2540 C   0  0  0  0  0  0  0  0  0  0  0  0
  141.8150   75.3360  218.4130 C   0  0  0  0  0  0  0  0  0  0  0  0
  140.2290   77.0660  222.3670 C   0  0  0  0  0  0  0  0  0  0  0  0
  139.0870   77.8030  222.5220 C   0  0  0  0  0  0  0  0  0  0  0  0
  139.1840   79.1080  222.8650 N   0  0  0  0  0  0  0  0  0  0  0  0
  140.3980   79.7010  223.0570 C   0  0  0  0  0  0  0  0  0  0  0  0
  140.5280   81.0180  223.4040 C   0  0  0  0  0  0  0  0  0  0  0  0
  141.7920   81.5810  223.5900 C   0  0  0  0  0  0  0  0  0  0  0  0
  142.9040   80.7840  223.4170 C   0  0  0  0  0  0  0  0  0  0  0  0
  142.7680   79.4530  223.0670 C   0  0  0  0  0  0  0  0  0  0  0  0
  141.5110   78.9130  222.8870 C   0  0  0  0  0  0  0  0  0  0  0  0
  141.4550   77.6140  222.5470 N   0  0  0  0  0  0  0  0  0  0  0  0
  142.2260   75.2670  221.9530 H   0  0  0  0  0  0  0  0  0  0  0  0
  141.2013   72.8688  222.3558 H   0  0  0  0  0  0  0  0  0  0  0  0
  140.0100   73.4875  221.0525 H   0  0  0  0  0  0  0  0  0  0  0  0
  144.0764   71.2866  220.9347 H   0  0  0  0  0  0  0  0  0  0  0  0
  144.7305   71.6416  219.3733 H   0  0  0  0  0  0  0  0  0  0  0  0
  145.1568   73.0469  222.0352 H   0  0  0  0  0  0  0  0  0  0  0  0
  146.3134   72.8809  220.7000 H   0  0  0  0  0  0  0  0  0  0  0  0
  144.4262   75.0712  221.2606 H   0  0  0  0  0  0  0  0  0  0  0  0
  145.7207   75.0694  220.0886 H   0  0  0  0  0  0  0  0  0  0  0  0
  144.1932   73.9064  218.3481 H   0  0  0  0  0  0  0  0  0  0  0  0
  144.2742   76.5484  220.3430 H   0  0  0  0  0  0  0  0  0  0  0  0
  142.8755   78.5786  220.0994 H   0  0  0  0  0  0  0  0  0  0  0  0
  140.0881   76.3915  217.6563 H   0  0  0  0  0  0  0  0  0  0  0  0
  141.4991   74.4043  217.9209 H   0  0  0  0  0  0  0  0  0  0  0  0
  138.1010   77.3398  222.3695 H   0  0  0  0  0  0  0  0  0  0  0  0
  139.6294   81.6383  223.5375 H   0  0  0  0  0  0  0  0  0  0  0  0
  141.8988   82.6396  223.8691 H   0  0  0  0  0  0  0  0  0  0  0  0
  143.9080   81.2106  223.5587 H   0  0  0  0  0  0  0  0  0  0  0  0
  143.6612   78.8253  222.9322 H   0  0  0  0  0  0  0  0  0  0  0  0
  1  2  2  0
  2  3  1  0
  3  4  1  0
  4  5  1  0
  5  6  2  0
  5  7  1  0
  7  8  1  0
  8  9  1  0
  9 10  1  0
 10 11  1  0
 11 12  1  0
 12 13  2  0
 13 14  1  0
 14 15  2  0
 15 16  1  0
 15 17  1  0
 17 18  2  0
  2 19  1  0
 19 20  2  0
 20 21  1  0
 21 22  2  0
 22 23  1  0
 23 24  2  0
 24 25  1  0
 25 26  2  0
 26 27  1  0
 27 28  2  0
 11  7  1  0
 18 12  1  0
 28 19  1  0
 27 22  1  0
  3 29  1  0
  4 30  1  0
  4 31  1  0
  8 32  1  0
  8 33  1  0
  9 34  1  0
  9 35  1  0
 10 36  1  0
 10 37  1  0
 11 38  1  6
 13 39  1  0
 14 40  1  0
 17 41  1  0
 18 42  1  0
 20 43  1  0
 23 44  1  0
 24 45  1  0
 25 46  1  0
 26 47  1  0
M  END
>  <smiles>  (13) 
O=C(NCC(=O)N1CCCC1c1ccc(Cl)cc1)c1cnc2ccccc2n1

>  <score_type>  (13) 
oracle

>  <origin>  (13) 
autodockgpu

>  <m_score__min__energy>  (13) 
-8.1899999999999995

>  <m_primary>  (13) 
energy

>  <meeko>  (13) 
{"free_energy": -6.84, "intermolecular_energy": -8.33, "internal_energy": -2.76, "cluster_size": 9, "cluster_id": 3, "rank_in_cluster": 5}

>  <energy>  (13) 
-6.84

>  <cluster_rmsd>  (13) 
0.78

>  <rmsd>  (13) 
271.05

>  <cluster>  (13) 
3

$$$$

     RDKit          3D

 47 50  0  0  1  0  0  0  0  0999 V2000
  140.6400   77.3430  218.3100 O   0  0  0  0  0  0  0  0  0  0  0  0
  141.5960   77.1800  219.0950 C   0  0  0  0  0  0  0  0  0  0  0  0
  141.9780   78.3580  219.8550 N   0  0  0  0  0  0  0  0  0  0  0  0
  141.2090   79.5400  219.6000 C   0  0  0  0  0  0  0  0  0  0  0  0
  140.7510   80.3410  220.7240 C   0  0  0  0  0  0  0  0  0  0  0  0
  139.8480   81.2240  220.4040 O   0  0  0  0  0  0  0  0  0  0  0  0
  141.1090   80.3310  222.0740 N   0  0  0  0  0  0  0  0  0  0  0  0
  141.8660   81.3020  222.8920 C   0  0  0  0  0  0  0  0  0  0  0  0
  142.9190   80.3870  223.4660 C   0  0  0  0  0  0  0  0  0  0  0  0
  142.3200   79.0080  223.4830 C   0  0  0  0  0  0  0  0  0  0  0  0
  140.8530   79.2810  223.0830 C   0  0  2  0  0  0  0  0  0  0  0  0
  140.2500   78.0590  222.5480 C   0  0  0  0  0  0  0  0  0  0  0  0
  141.0650   76.9180  222.5050 C   0  0  0  0  0  0  0  0  0  0  0  0
  140.5770   75.7300  221.9760 C   0  0  0  0  0  0  0  0  0  0  0  0
  139.2840   75.6410  221.4810 C   0  0  0  0  0  0  0  0  0  0  0  0
  138.7370   74.1120  220.8290 Cl  0  0  0  0  0  0  0  0  0  0  0  0
  138.4740   76.7590  221.5190 C   0  0  0  0  0  0  0  0  0  0  0  0
  138.9920   77.9210  222.0510 C   0  0  0  0  0  0  0  0  0  0  0  0
  142.3110   75.9280  219.2770 C   0  0  0  0  0  0  0  0  0  0  0  0
  141.7700   74.7930  218.7370 C   0  0  0  0  0  0  0  0  0  0  0  0
  142.4160   73.6150  218.8920 N   0  0  0  0  0  0  0  0  0  0  0  0
  143.5940   73.5380  219.5770 C   0  0  0  0  0  0  0  0  0  0  0  0
  144.2700   72.3610  219.7510 C   0  0  0  0  0  0  0  0  0  0  0  0
  145.4720   72.3310  220.4590 C   0  0  0  0  0  0  0  0  0  0  0  0
  145.9630   73.5110  220.9800 C   0  0  0  0  0  0  0  0  0  0  0  0
  145.2770   74.6980  220.8020 C   0  0  0  0  0  0  0  0  0  0  0  0
  144.0890   74.7090  220.0990 C   0  0  0  0  0  0  0  0  0  0  0  0
  143.4780   75.8980  219.9650 N   0  0  0  0  0  0  0  0  0  0  0  0
  142.7740   78.2940  220.5340 H   0  0  0  0  0  0  0  0  0  0  0  0
  141.8260   80.1954  218.9677 H   0  0  0  0  0  0  0  0  0  0  0  0
  140.2793   79.1577  219.1533 H   0  0  0  0  0  0  0  0  0  0  0  0
  142.3081   82.0991  222.2762 H   0  0  0  0  0  0  0  0  0  0  0  0
  141.2689   81.8493  223.6362 H   0  0  0  0  0  0  0  0  0  0  0  0
  143.8206   80.4023  222.8361 H   0  0  0  0  0  0  0  0  0  0  0  0
  143.2159   80.7052  224.4763 H   0  0  0  0  0  0  0  0  0  0  0  0
  142.8156   78.3495  222.7545 H   0  0  0  0  0  0  0  0  0  0  0  0
  142.4244   78.4944  224.4501 H   0  0  0  0  0  0  0  0  0  0  0  0
  140.1446   79.5812  223.8692 H   0  0  0  0  0  0  0  0  0  0  0  0
  142.0938   76.9643  222.8915 H   0  0  0  0  0  0  0  0  0  0  0  0
  141.2277   74.8435  221.9490 H   0  0  0  0  0  0  0  0  0  0  0  0
  137.4437   76.7235  221.1353 H   0  0  0  0  0  0  0  0  0  0  0  0
  138.3370   78.8044  222.0751 H   0  0  0  0  0  0  0  0  0  0  0  0
  140.8206   74.8382  218.1832 H   0  0  0  0  0  0  0  0  0  0  0  0
  143.8623   71.4305  219.3291 H   0  0  0  0  0  0  0  0  0  0  0  0
  146.0173   71.3860  220.5991 H   0  0  0  0  0  0  0  0  0  0  0  0
  146.9086   73.5070  221.5419 H   0  0  0  0  0  0  0  0  0  0  0  0
  145.6776   75.6332  221.2203 H   0  0  0  0  0  0  0  0  0  0  0  0
  1  2  2  0
  2  3  1  0
  3  4  1  0
  4  5  1  0
  5  6  2  0
  5  7  1  0
  7  8  1  0
  8  9  1  0
  9 10  1  0
 10 11  1  0
 11 12  1  0
 12 13  2  0
 13 14  1  0
 14 15  2  0
 15 16  1  0
 15 17  1  0
 17 18  2  0
  2 19  1  0
 19 20  2  0
 20 21  1  0
 21 22  2  0
 22 23  1  0
 23 24  2  0
 24 25  1  0
 25 26  2  0
 26 27  1  0
 27 28  2  0
 11  7  1  0
 18 12  1  0
 28 19  1  0
 27 22  1  0
  3 29  1  0
  4 30  1  0
  4 31  1  0
  8 32  1  0
  8 33  1  0
  9 34  1  0
  9 35  1  0
 10 36  1  0
 10 37  1  0
 11 38  1  1
 13 39  1  0
 14 40  1  0
 17 41  1  0
 18 42  1  0
 20 43  1  0
 23 44  1  0
 24 45  1  0
 25 46  1  0
 26 47  1  0
M  END
>  <smiles>  (14) 
O=C(NCC(=O)N1CCCC1c1ccc(Cl)cc1)c1cnc2ccccc2n1

>  <score_type>  (14) 
oracle

>  <origin>  (14) 
autodockgpu

>  <m_score__min__energy>  (14) 
-8.1899999999999995

>  <m_primary>  (14) 
energy

>  <meeko>  (14) 
{"free_energy": -6.55, "intermolecular_energy": -8.04, "internal_energy": -2.64, "cluster_size": 4, "cluster_id": 4, "rank_in_cluster": 4}

>  <energy>  (14) 
-6.82

>  <cluster_rmsd>  (14) 
0.8

>  <rmsd>  (14) 
271.1

>  <cluster>  (14) 
3

$$$$

     RDKit          3D

 47 50  0  0  1  0  0  0  0  0999 V2000
  140.7400   77.6010  218.4360 O   0  0  0  0  0  0  0  0  0  0  0  0
  141.6960   77.3630  219.2020 C   0  0  0  0  0  0  0  0  0  0  0  0
  142.1550   78.4950  219.9860 N   0  0  0  0  0  0  0  0  0  0  0  0
  141.4520   79.7260  219.7740 C   0  0  0  0  0  0  0  0  0  0  0  0
  140.7380   80.3330  220.8870 C   0  0  0  0  0  0  0  0  0  0  0  0
  139.6580   80.9690  220.5310 O   0  0  0  0  0  0  0  0  0  0  0  0
  141.0070   80.3550  222.2570 N   0  0  0  0  0  0  0  0  0  0  0  0
  141.6820   81.3600  223.1060 C   0  0  0  0  0  0  0  0  0  0  0  0
  142.7190   80.4840  223.7630 C   0  0  0  0  0  0  0  0  0  0  0  0
  142.1580   79.0900  223.7660 C   0  0  0  0  0  0  0  0  0  0  0  0
  140.7140   79.3140  223.2670 C   0  0  2  0  0  0  0  0  0  0  0  0
  140.1800   78.0670  222.7150 C   0  0  0  0  0  0  0  0  0  0  0  0
  141.0730   76.9900  222.6080 C   0  0  0  0  0  0  0  0  0  0  0  0
  140.6520   75.7850  222.0600 C   0  0  0  0  0  0  0  0  0  0  0  0
  139.3510   75.6160  221.6080 C   0  0  0  0  0  0  0  0  0  0  0  0
  138.8910   74.0710  220.9290 Cl  0  0  0  0  0  0  0  0  0  0  0  0
  138.4650   76.6720  221.7100 C   0  0  0  0  0  0  0  0  0  0  0  0
  138.9170   77.8520  222.2590 C   0  0  0  0  0  0  0  0  0  0  0  0
  142.3390   76.0670  219.3400 C   0  0  0  0  0  0  0  0  0  0  0  0
  141.7310   74.9820  218.7700 C   0  0  0  0  0  0  0  0  0  0  0  0
  142.3100   73.7650  218.8840 N   0  0  0  0  0  0  0  0  0  0  0  0
  143.4860   73.6000  219.5570 C   0  0  0  0  0  0  0  0  0  0  0  0
  144.0950   72.3810  219.6890 C   0  0  0  0  0  0  0  0  0  0  0  0
  145.2980   72.2620  220.3860 C   0  0  0  0  0  0  0  0  0  0  0  0
  145.8590   73.3950  220.9380 C   0  0  0  0  0  0  0  0  0  0  0  0
  145.2400   74.6250  220.8020 C   0  0  0  0  0  0  0  0  0  0  0  0
  144.0510   74.7240  220.1090 C   0  0  0  0  0  0  0  0  0  0  0  0
  143.5060   75.9500  220.0170 N   0  0  0  0  0  0  0  0  0  0  0  0
  142.9550   78.3670  220.6520 H   0  0  0  0  0  0  0  0  0  0  0  0
  142.1906   80.4627  219.4251 H   0  0  0  0  0  0  0  0  0  0  0  0
  140.6546   79.4550  219.0664 H   0  0  0  0  0  0  0  0  0  0  0  0
  142.1419   82.1596  222.5067 H   0  0  0  0  0  0  0  0  0  0  0  0
  141.0227   81.9019  223.8000 H   0  0  0  0  0  0  0  0  0  0  0  0
  143.6590   80.5144  223.1926 H   0  0  0  0  0  0  0  0  0  0  0  0
  142.9404   80.8265  224.7846 H   0  0  0  0  0  0  0  0  0  0  0  0
  142.7179   78.4340  223.0833 H   0  0  0  0  0  0  0  0  0  0  0  0
  142.2128   78.5958  224.7472 H   0  0  0  0  0  0  0  0  0  0  0  0
  139.9482   79.6060  224.0007 H   0  0  0  0  0  0  0  0  0  0  0  0
  142.1096   77.1002  222.9591 H   0  0  0  0  0  0  0  0  0  0  0  0
  141.3631   74.9493  221.9829 H   0  0  0  0  0  0  0  0  0  0  0  0
  137.4262   76.5728  221.3620 H   0  0  0  0  0  0  0  0  0  0  0  0
  138.2014   78.6840  222.3343 H   0  0  0  0  0  0  0  0  0  0  0  0
  140.7824   75.0981  218.2254 H   0  0  0  0  0  0  0  0  0  0  0  0
  143.6325   71.4886  219.2422 H   0  0  0  0  0  0  0  0  0  0  0  0
  145.7895   71.2838  220.4932 H   0  0  0  0  0  0  0  0  0  0  0  0
  146.8068   73.3199  221.4912 H   0  0  0  0  0  0  0  0  0  0  0  0
  145.6952   75.5227  221.2458 H   0  0  0  0  0  0  0  0  0  0  0  0
  1  2  2  0
  2  3  1  0
  3  4  1  0
  4  5  1  0
  5  6  2  0
  5  7  1  0
  7  8  1  0
  8  9  1  0
  9 10  1  0
 10 11  1  0
 11 12  1  0
 12 13  2  0
 13 14  1  0
 14 15  2  0
 15 16  1  0
 15 17  1  0
 17 18  2  0
  2 19  1  0
 19 20  2  0
 20 21  1  0
 21 22  2  0
 22 23  1  0
 23 24  2  0
 24 25  1  0
 25 26  2  0
 26 27  1  0
 27 28  2  0
 11  7  1  0
 18 12  1  0
 28 19  1  0
 27 22  1  0
  3 29  1  0
  4 30  1  0
  4 31  1  0
  8 32  1  0
  8 33  1  0
  9 34  1  0
  9 35  1  0
 10 36  1  0
 10 37  1  0
 11 38  1  1
 13 39  1  0
 14 40  1  0
 17 41  1  0
 18 42  1  0
 20 43  1  0
 23 44  1  0
 24 45  1  0
 25 46  1  0
 26 47  1  0
M  END
>  <smiles>  (15) 
O=C(NCC(=O)N1CCCC1c1ccc(Cl)cc1)c1cnc2ccccc2n1

>  <score_type>  (15) 
oracle

>  <origin>  (15) 
autodockgpu

>  <m_score__min__energy>  (15) 
-8.1899999999999995

>  <m_primary>  (15) 
energy

>  <meeko>  (15) 
{"free_energy": -6.73, "intermolecular_energy": -8.22, "internal_energy": -2.67, "cluster_size": 4, "cluster_id": 4, "rank_in_cluster": 3}

>  <energy>  (15) 
-6.82

>  <cluster_rmsd>  (15) 
0.79

>  <rmsd>  (15) 
271.08

>  <cluster>  (15) 
3

$$$$

     RDKit          3D

 47 50  0  0  1  0  0  0  0  0999 V2000
  138.2800   70.4170  221.8040 O   0  0  0  0  0  0  0  0  0  0  0  0
  138.8780   70.8620  222.8050 C   0  0  0  0  0  0  0  0  0  0  0  0
  139.2410   72.2660  222.7330 N   0  0  0  0  0  0  0  0  0  0  0  0
  138.8670   72.9460  221.5280 C   0  0  0  0  0  0  0  0  0  0  0  0
  139.6220   74.1190  221.1150 C   0  0  0  0  0  0  0  0  0  0  0  0
  140.4910   74.5200  222.0000 O   0  0  0  0  0  0  0  0  0  0  0  0
  139.5770   74.8840  219.9480 N   0  0  0  0  0  0  0  0  0  0  0  0
  138.4380   75.3960  219.1570 C   0  0  0  0  0  0  0  0  0  0  0  0
  138.8110   74.8610  217.7970 C   0  0  0  0  0  0  0  0  0  0  0  0
  140.3070   74.7120  217.7940 C   0  0  0  0  0  0  0  0  0  0  0  0
  140.7070   75.3760  219.1300 C   0  0  2  0  0  0  0  0  0  0  0  0
  142.0210   74.8880  219.5530 C   0  0  0  0  0  0  0  0  0  0  0  0
  142.1630   73.5000  219.6960 C   0  0  0  0  0  0  0  0  0  0  0  0
  143.3680   72.9610  220.1300 C   0  0  0  0  0  0  0  0  0  0  0  0
  144.4520   73.7740  220.4290 C   0  0  0  0  0  0  0  0  0  0  0  0
  145.9380   73.0270  220.9710 Cl  0  0  0  0  0  0  0  0  0  0  0  0
  144.3210   75.1430  220.2910 C   0  0  0  0  0  0  0  0  0  0  0  0
  143.1110   75.6410  219.8580 C   0  0  0  0  0  0  0  0  0  0  0  0
  139.2100   70.0780  223.9830 C   0  0  0  0  0  0  0  0  0  0  0  0
  138.8780   68.7510  223.9890 C   0  0  0  0  0  0  0  0  0  0  0  0
  139.1770   68.0010  225.0740 N   0  0  0  0  0  0  0  0  0  0  0  0
  139.8010   68.5420  226.1600 C   0  0  0  0  0  0  0  0  0  0  0  0
  140.1150   67.8080  227.2720 C   0  0  0  0  0  0  0  0  0  0  0  0
  140.7540   68.4060  228.3590 C   0  0  0  0  0  0  0  0  0  0  0  0
  141.0600   69.7490  228.2900 C   0  0  0  0  0  0  0  0  0  0  0  0
  140.7410   70.4870  227.1650 C   0  0  0  0  0  0  0  0  0  0  0  0
  140.1090   69.8800  226.0990 C   0  0  0  0  0  0  0  0  0  0  0  0
  139.8300   70.6580  225.0400 N   0  0  0  0  0  0  0  0  0  0  0  0
  139.7470   72.7070  223.5400 H   0  0  0  0  0  0  0  0  0  0  0  0
  138.9367   72.2138  220.7101 H   0  0  0  0  0  0  0  0  0  0  0  0
  137.8652   73.3426  221.7498 H   0  0  0  0  0  0  0  0  0  0  0  0
  137.4790   74.9877  219.5086 H   0  0  0  0  0  0  0  0  0  0  0  0
  138.2897   76.4849  219.2047 H   0  0  0  0  0  0  0  0  0  0  0  0
  138.3314   73.8857  217.6274 H   0  0  0  0  0  0  0  0  0  0  0  0
  138.4765   75.5380  216.9971 H   0  0  0  0  0  0  0  0  0  0  0  0
  140.6017   73.6524  217.7719 H   0  0  0  0  0  0  0  0  0  0  0  0
  140.7926   75.1624  216.9157 H   0  0  0  0  0  0  0  0  0  0  0  0
  140.8321   76.4686  219.1530 H   0  0  0  0  0  0  0  0  0  0  0  0
  141.3175   72.8358  219.4638 H   0  0  0  0  0  0  0  0  0  0  0  0
  143.4643   71.8706  220.2385 H   0  0  0  0  0  0  0  0  0  0  0  0
  145.1597   75.8168  220.5205 H   0  0  0  0  0  0  0  0  0  0  0  0
  143.0202   76.7320  219.7510 H   0  0  0  0  0  0  0  0  0  0  0  0
  138.3739   68.2994  223.1218 H   0  0  0  0  0  0  0  0  0  0  0  0
  139.8616   66.7382  227.3091 H   0  0  0  0  0  0  0  0  0  0  0  0
  141.0085   67.8179  229.2531 H   0  0  0  0  0  0  0  0  0  0  0  0
  141.5625   70.2376  229.1378 H   0  0  0  0  0  0  0  0  0  0  0  0
  140.9909   71.5573  227.1198 H   0  0  0  0  0  0  0  0  0  0  0  0
  1  2  2  0
  2  3  1  0
  3  4  1  0
  4  5  1  0
  5  6  2  0
  5  7  1  0
  7  8  1  0
  8  9  1  0
  9 10  1  0
 10 11  1  0
 11 12  1  0
 12 13  2  0
 13 14  1  0
 14 15  2  0
 15 16  1  0
 15 17  1  0
 17 18  2  0
  2 19  1  0
 19 20  2  0
 20 21  1  0
 21 22  2  0
 22 23  1  0
 23 24  2  0
 24 25  1  0
 25 26  2  0
 26 27  1  0
 27 28  2  0
 11  7  1  0
 18 12  1  0
 28 19  1  0
 27 22  1  0
  3 29  1  0
  4 30  1  0
  4 31  1  0
  8 32  1  0
  8 33  1  0
  9 34  1  0
  9 35  1  0
 10 36  1  0
 10 37  1  0
 11 38  1  6
 13 39  1  0
 14 40  1  0
 17 41  1  0
 18 42  1  0
 20 43  1  0
 23 44  1  0
 24 45  1  0
 25 46  1  0
 26 47  1  0
M  END
>  <smiles>  (16) 
O=C(NCC(=O)N1CCCC1c1ccc(Cl)cc1)c1cnc2ccccc2n1

>  <score_type>  (16) 
oracle

>  <origin>  (16) 
autodockgpu

>  <m_score__min__energy>  (16) 
-8.1899999999999995

>  <m_primary>  (16) 
energy

>  <meeko>  (16) 
{"free_energy": -7.7, "intermolecular_energy": -9.19, "internal_energy": -1.55, "cluster_size": 5, "cluster_id": 2, "rank_in_cluster": 4}

>  <energy>  (16) 
-6.8

>  <cluster_rmsd>  (16) 
0.81

>  <rmsd>  (16) 
271.07

>  <cluster>  (16) 
3

$$$$

     RDKit          3D

 47 50  0  0  1  0  0  0  0  0999 V2000
  141.5000   72.4570  221.5440 O   0  0  0  0  0  0  0  0  0  0  0  0
  140.5670   72.6370  222.3550 C   0  0  0  0  0  0  0  0  0  0  0  0
  139.8000   73.8520  222.1530 N   0  0  0  0  0  0  0  0  0  0  0  0
  140.2140   74.6770  221.0560 C   0  0  0  0  0  0  0  0  0  0  0  0
  141.0110   75.8640  221.3270 C   0  0  0  0  0  0  0  0  0  0  0  0
  141.0840   76.1680  222.5920 O   0  0  0  0  0  0  0  0  0  0  0  0
  141.7030   76.7280  220.4750 N   0  0  0  0  0  0  0  0  0  0  0  0
  141.4400   78.1270  220.0770 C   0  0  0  0  0  0  0  0  0  0  0  0
  141.4610   77.9740  218.5760 C   0  0  0  0  0  0  0  0  0  0  0  0
  142.3300   76.7830  218.2830 C   0  0  0  0  0  0  0  0  0  0  0  0
  142.9140   76.4500  219.6730 C   0  0  2  0  0  0  0  0  0  0  0  0
  143.3560   75.0540  219.7040 C   0  0  0  0  0  0  0  0  0  0  0  0
  142.6880   74.1610  218.8550 C   0  0  0  0  0  0  0  0  0  0  0  0
  143.0240   72.8130  218.8540 C   0  0  0  0  0  0  0  0  0  0  0  0
  144.0190   72.3200  219.6850 C   0  0  0  0  0  0  0  0  0  0  0  0
  144.3900   70.6110  219.6320 Cl  0  0  0  0  0  0  0  0  0  0  0  0
  144.6840   73.1930  220.5250 C   0  0  0  0  0  0  0  0  0  0  0  0
  144.3240   74.5230  220.4990 C   0  0  0  0  0  0  0  0  0  0  0  0
  140.2310   71.7290  223.4390 C   0  0  0  0  0  0  0  0  0  0  0  0
  139.4800   70.6240  223.1450 C   0  0  0  0  0  0  0  0  0  0  0  0
  139.1550   69.7640  224.1370 N   0  0  0  0  0  0  0  0  0  0  0  0
  139.5590   69.9790  225.4220 C   0  0  0  0  0  0  0  0  0  0  0  0
  139.2450   69.1270  226.4460 C   0  0  0  0  0  0  0  0  0  0  0  0
  139.6820   69.3890  227.7460 C   0  0  0  0  0  0  0  0  0  0  0  0
  140.4350   70.5210  227.9760 C   0  0  0  0  0  0  0  0  0  0  0  0
  140.7510   71.3790  226.9380 C   0  0  0  0  0  0  0  0  0  0  0  0
  140.3100   71.1050  225.6590 C   0  0  0  0  0  0  0  0  0  0  0  0
  140.6550   71.9830  224.7010 N   0  0  0  0  0  0  0  0  0  0  0  0
  139.0010   74.0680  222.7980 H   0  0  0  0  0  0  0  0  0  0  0  0
  140.8031   74.0410  220.3788 H   0  0  0  0  0  0  0  0  0  0  0  0
  139.2706   75.0783  220.6572 H   0  0  0  0  0  0  0  0  0  0  0  0
  140.4626   78.4786  220.4389 H   0  0  0  0  0  0  0  0  0  0  0  0
  142.1477   78.8666  220.4797 H   0  0  0  0  0  0  0  0  0  0  0  0
  140.4425   77.8044  218.1966 H   0  0  0  0  0  0  0  0  0  0  0  0
  141.8489   78.8804  218.0881 H   0  0  0  0  0  0  0  0  0  0  0  0
  141.7368   75.9446  217.8892 H   0  0  0  0  0  0  0  0  0  0  0  0
  143.0969   76.9755  217.5183 H   0  0  0  0  0  0  0  0  0  0  0  0
  143.8068   76.9979  220.0088 H   0  0  0  0  0  0  0  0  0  0  0  0
  141.8950   74.5287  218.1872 H   0  0  0  0  0  0  0  0  0  0  0  0
  142.4912   72.1242  218.1820 H   0  0  0  0  0  0  0  0  0  0  0  0
  145.4791   72.8360  221.1961 H   0  0  0  0  0  0  0  0  0  0  0  0
  144.8603   75.2076  221.1725 H   0  0  0  0  0  0  0  0  0  0  0  0
  139.1445   70.4372  222.1142 H   0  0  0  0  0  0  0  0  0  0  0  0
  138.6435   68.2286  226.2433 H   0  0  0  0  0  0  0  0  0  0  0  0
  139.4305   68.7057  228.5705 H   0  0  0  0  0  0  0  0  0  0  0  0
  140.7875   70.7437  228.9939 H   0  0  0  0  0  0  0  0  0  0  0  0
  141.3532   72.2789  227.1316 H   0  0  0  0  0  0  0  0  0  0  0  0
  1  2  2  0
  2  3  1  0
  3  4  1  0
  4  5  1  0
  5  6  2  0
  5  7  1  0
  7  8  1  0
  8  9  1  0
  9 10  1  0
 10 11  1  0
 11 12  1  0
 12 13  2  0
 13 14  1  0
 14 15  2  0
 15 16  1  0
 15 17  1  0
 17 18  2  0
  2 19  1  0
 19 20  2  0
 20 21  1  0
 21 22  2  0
 22 23  1  0
 23 24  2  0
 24 25  1  0
 25 26  2  0
 26 27  1  0
 27 28  2  0
 11  7  1  0
 18 12  1  0
 28 19  1  0
 27 22  1  0
  3 29  1  0
  4 30  1  0
  4 31  1  0
  8 32  1  0
  8 33  1  0
  9 34  1  0
  9 35  1  0
 10 36  1  0
 10 37  1  0
 11 38  1  1
 13 39  1  0
 14 40  1  0
 17 41  1  0
 18 42  1  0
 20 43  1  0
 23 44  1  0
 24 45  1  0
 25 46  1  0
 26 47  1  0
M  END
>  <smiles>  (17) 
O=C(NCC(=O)N1CCCC1c1ccc(Cl)cc1)c1cnc2ccccc2n1

>  <score_type>  (17) 
oracle

>  <origin>  (17) 
autodockgpu

>  <m_score__min__energy>  (17) 
-8.1899999999999995

>  <m_primary>  (17) 
energy

>  <meeko>  (17) 
{"free_energy": -7.73, "intermolecular_energy": -9.23, "internal_energy": -1.72, "cluster_size": 5, "cluster_id": 2, "rank_in_cluster": 2}

>  <energy>  (17) 
-6.9

>  <cluster_rmsd>  (17) 
0.0

>  <rmsd>  (17) 
271.21

>  <cluster>  (17) 
4

$$$$

     RDKit          3D

 47 50  0  0  1  0  0  0  0  0999 V2000
  141.4200   72.0170  221.4800 O   0  0  0  0  0  0  0  0  0  0  0  0
  140.6670   72.3700  222.4110 C   0  0  0  0  0  0  0  0  0  0  0  0
  140.1340   73.7160  222.2960 N   0  0  0  0  0  0  0  0  0  0  0  0
  140.5430   74.4520  221.1360 C   0  0  0  0  0  0  0  0  0  0  0  0
  141.0770   75.7950  221.3040 C   0  0  0  0  0  0  0  0  0  0  0  0
  140.7470   76.3520  222.4350 O   0  0  0  0  0  0  0  0  0  0  0  0
  141.8720   76.5850  220.4700 N   0  0  0  0  0  0  0  0  0  0  0  0
  141.7450   77.9950  220.0470 C   0  0  0  0  0  0  0  0  0  0  0  0
  141.8120   77.8190  218.5500 C   0  0  0  0  0  0  0  0  0  0  0  0
  142.5870   76.5550  218.3050 C   0  0  0  0  0  0  0  0  0  0  0  0
  143.0860   76.1940  219.7210 C   0  0  2  0  0  0  0  0  0  0  0  0
  143.4060   74.7660  219.7860 C   0  0  0  0  0  0  0  0  0  0  0  0
  142.8330   73.9450  218.8030 C   0  0  0  0  0  0  0  0  0  0  0  0
  143.0590   72.5750  218.8190 C   0  0  0  0  0  0  0  0  0  0  0  0
  143.8490   71.9880  219.7970 C   0  0  0  0  0  0  0  0  0  0  0  0
  144.0890   70.2550  219.7560 Cl  0  0  0  0  0  0  0  0  0  0  0  0
  144.4170   72.7890  220.7690 C   0  0  0  0  0  0  0  0  0  0  0  0
  144.1710   74.1440  220.7220 C   0  0  0  0  0  0  0  0  0  0  0  0
  140.3160   71.5370  223.5490 C   0  0  0  0  0  0  0  0  0  0  0  0
  139.5940   70.3990  223.3160 C   0  0  0  0  0  0  0  0  0  0  0  0
  139.2560   69.6070  224.3600 N   0  0  0  0  0  0  0  0  0  0  0  0
  139.6200   69.9230  225.6360 C   0  0  0  0  0  0  0  0  0  0  0  0
  139.2920   69.1420  226.7110 C   0  0  0  0  0  0  0  0  0  0  0  0
  139.6870   69.5050  227.9990 C   0  0  0  0  0  0  0  0  0  0  0  0
  140.4130   70.6670  228.1660 C   0  0  0  0  0  0  0  0  0  0  0  0
  140.7420   71.4530  227.0770 C   0  0  0  0  0  0  0  0  0  0  0  0
  140.3430   71.0780  225.8100 C   0  0  0  0  0  0  0  0  0  0  0  0
  140.6990   71.8900  224.8000 N   0  0  0  0  0  0  0  0  0  0  0  0
  139.4950   74.0790  223.0440 H   0  0  0  0  0  0  0  0  0  0  0  0
  141.3201   73.8567  220.6342 H   0  0  0  0  0  0  0  0  0  0  0  0
  139.6071   74.6083  220.5796 H   0  0  0  0  0  0  0  0  0  0  0  0
  140.7876   78.4332  220.3652 H   0  0  0  0  0  0  0  0  0  0  0  0
  142.4965   78.6779  220.4700 H   0  0  0  0  0  0  0  0  0  0  0  0
  140.7985   77.7308  218.1317 H   0  0  0  0  0  0  0  0  0  0  0  0
  142.2948   78.6822  218.0685 H   0  0  0  0  0  0  0  0  0  0  0  0
  141.9403   75.7642  217.8970 H   0  0  0  0  0  0  0  0  0  0  0  0
  143.3966   76.6708  217.5693 H   0  0  0  0  0  0  0  0  0  0  0  0
  144.0085   76.6692  220.0860 H   0  0  0  0  0  0  0  0  0  0  0  0
  142.2030   74.3878  218.0175 H   0  0  0  0  0  0  0  0  0  0  0  0
  142.6034   71.9435  218.0421 H   0  0  0  0  0  0  0  0  0  0  0  0
  145.0486   72.3567  221.5591 H   0  0  0  0  0  0  0  0  0  0  0  0
  144.6288   74.7705  221.5017 H   0  0  0  0  0  0  0  0  0  0  0  0
  139.2918   70.1309  222.2929 H   0  0  0  0  0  0  0  0  0  0  0  0
  138.7119   68.2200  226.5582 H   0  0  0  0  0  0  0  0  0  0  0  0
  139.4251   68.8778  228.8639 H   0  0  0  0  0  0  0  0  0  0  0  0
  140.7325   70.9703  229.1739 H   0  0  0  0  0  0  0  0  0  0  0  0
  141.3216   72.3769  227.2204 H   0  0  0  0  0  0  0  0  0  0  0  0
  1  2  2  0
  2  3  1  0
  3  4  1  0
  4  5  1  0
  5  6  2  0
  5  7  1  0
  7  8  1  0
  8  9  1  0
  9 10  1  0
 10 11  1  0
 11 12  1  0
 12 13  2  0
 13 14  1  0
 14 15  2  0
 15 16  1  0
 15 17  1  0
 17 18  2  0
  2 19  1  0
 19 20  2  0
 20 21  1  0
 21 22  2  0
 22 23  1  0
 23 24  2  0
 24 25  1  0
 25 26  2  0
 26 27  1  0
 27 28  2  0
 11  7  1  0
 18 12  1  0
 28 19  1  0
 27 22  1  0
  3 29  1  0
  4 30  1  0
  4 31  1  0
  8 32  1  0
  8 33  1  0
  9 34  1  0
  9 35  1  0
 10 36  1  0
 10 37  1  0
 11 38  1  1
 13 39  1  0
 14 40  1  0
 17 41  1  0
 18 42  1  0
 20 43  1  0
 23 44  1  0
 24 45  1  0
 25 46  1  0
 26 47  1  0
M  END
>  <smiles>  (18) 
O=C(NCC(=O)N1CCCC1c1ccc(Cl)cc1)c1cnc2ccccc2n1

>  <score_type>  (18) 
oracle

>  <origin>  (18) 
autodockgpu

>  <m_score__min__energy>  (18) 
-8.1899999999999995

>  <m_primary>  (18) 
energy

>  <meeko>  (18) 
{"free_energy": -7.77, "intermolecular_energy": -9.26, "internal_energy": -1.79, "cluster_size": 5, "cluster_id": 2, "rank_in_cluster": 1}

>  <energy>  (18) 
-6.84

>  <cluster_rmsd>  (18) 
0.33

>  <rmsd>  (18) 
271.11

>  <cluster>  (18) 
4

$$$$

     RDKit          3D

 47 50  0  0  1  0  0  0  0  0999 V2000
  138.9790   75.0670  221.8550 O   0  0  0  0  0  0  0  0  0  0  0  0
  140.0640   75.6580  222.0300 C   0  0  0  0  0  0  0  0  0  0  0  0
  141.2490   74.8340  221.8680 N   0  0  0  0  0  0  0  0  0  0  0  0
  141.0120   73.4610  221.5330 C   0  0  0  0  0  0  0  0  0  0  0  0
  141.7960   72.8480  220.4720 C   0  0  0  0  0  0  0  0  0  0  0  0
  141.1200   72.0030  219.7460 O   0  0  0  0  0  0  0  0  0  0  0  0
  143.1330   73.0020  220.1020 N   0  0  0  0  0  0  0  0  0  0  0  0
  144.3120   72.1340  220.3080 C   0  0  0  0  0  0  0  0  0  0  0  0
  145.2460   73.1230  220.9610 C   0  0  0  0  0  0  0  0  0  0  0  0
  144.8240   74.4850  220.4840 C   0  0  0  0  0  0  0  0  0  0  0  0
  143.7670   74.1460  219.4100 C   0  0  2  0  0  0  0  0  0  0  0  0
  142.8840   75.2950  219.2030 C   0  0  0  0  0  0  0  0  0  0  0  0
  143.3130   76.5240  219.7270 C   0  0  0  0  0  0  0  0  0  0  0  0
  142.5130   77.6530  219.6040 C   0  0  0  0  0  0  0  0  0  0  0  0
  141.2820   77.5960  218.9670 C   0  0  0  0  0  0  0  0  0  0  0  0
  140.3280   79.0580  218.8490 Cl  0  0  0  0  0  0  0  0  0  0  0  0
  140.8520   76.3900  218.4480 C   0  0  0  0  0  0  0  0  0  0  0  0
  141.6720   75.2910  218.5880 C   0  0  0  0  0  0  0  0  0  0  0  0
  140.1910   77.0660  222.3700 C   0  0  0  0  0  0  0  0  0  0  0  0
  139.0480   77.8100  222.4670 C   0  0  0  0  0  0  0  0  0  0  0  0
  139.1400   79.1230  222.7830 N   0  0  0  0  0  0  0  0  0  0  0  0
  140.3490   79.7150  223.0030 C   0  0  0  0  0  0  0  0  0  0  0  0
  140.4730   81.0400  223.3230 C   0  0  0  0  0  0  0  0  0  0  0  0
  141.7320   81.6030  223.5400 C   0  0  0  0  0  0  0  0  0  0  0  0
  142.8460   80.7970  223.4240 C   0  0  0  0  0  0  0  0  0  0  0  0
  142.7160   79.4590  223.1010 C   0  0  0  0  0  0  0  0  0  0  0  0
  141.4630   78.9190  222.8900 C   0  0  0  0  0  0  0  0  0  0  0  0
  141.4130   77.6130  222.5800 N   0  0  0  0  0  0  0  0  0  0  0  0
  142.1950   75.2660  222.0000 H   0  0  0  0  0  0  0  0  0  0  0  0
  141.1878   72.8718  222.4451 H   0  0  0  0  0  0  0  0  0  0  0  0
  139.9858   73.4597  221.1368 H   0  0  0  0  0  0  0  0  0  0  0  0
  144.0852   71.2860  220.9709 H   0  0  0  0  0  0  0  0  0  0  0  0
  144.7026   71.6551  219.3980 H   0  0  0  0  0  0  0  0  0  0  0  0
  145.1613   73.0604  222.0559 H   0  0  0  0  0  0  0  0  0  0  0  0
  146.2937   72.9155  220.6978 H   0  0  0  0  0  0  0  0  0  0  0  0
  144.3853   75.0751  221.3021 H   0  0  0  0  0  0  0  0  0  0  0  0
  145.6565   75.0958  220.1047 H   0  0  0  0  0  0  0  0  0  0  0  0
  144.1132   73.9154  218.3917 H   0  0  0  0  0  0  0  0  0  0  0  0
  144.2854   76.5936  220.2365 H   0  0  0  0  0  0  0  0  0  0  0  0
  142.8621   78.6099  220.0194 H   0  0  0  0  0  0  0  0  0  0  0  0
  139.8814   76.3090  217.9368 H   0  0  0  0  0  0  0  0  0  0  0  0
  141.3182   74.3371  218.1697 H   0  0  0  0  0  0  0  0  0  0  0  0
  138.0658   77.3473  222.2904 H   0  0  0  0  0  0  0  0  0  0  0  0
  139.5731   81.6666  223.4099 H   0  0  0  0  0  0  0  0  0  0  0  0
  141.8338   82.6674  223.7982 H   0  0  0  0  0  0  0  0  0  0  0  0
  143.8465   81.2229  223.5900 H   0  0  0  0  0  0  0  0  0  0  0  0
  143.6105   78.8250  223.0122 H   0  0  0  0  0  0  0  0  0  0  0  0
  1  2  2  0
  2  3  1  0
  3  4  1  0
  4  5  1  0
  5  6  2  0
  5  7  1  0
  7  8  1  0
  8  9  1  0
  9 10  1  0
 10 11  1  0
 11 12  1  0
 12 13  2  0
 13 14  1  0
 14 15  2  0
 15 16  1  0
 15 17  1  0
 17 18  2  0
  2 19  1  0
 19 20  2  0
 20 21  1  0
 21 22  2  0
 22 23  1  0
 23 24  2  0
 24 25  1  0
 25 26  2  0
 26 27  1  0
 27 28  2  0
 11  7  1  0
 18 12  1  0
 28 19  1  0
 27 22  1  0
  3 29  1  0
  4 30  1  0
  4 31  1  0
  8 32  1  0
  8 33  1  0
  9 34  1  0
  9 35  1  0
 10 36  1  0
 10 37  1  0
 11 38  1  6
 13 39  1  0
 14 40  1  0
 17 41  1  0
 18 42  1  0
 20 43  1  0
 23 44  1  0
 24 45  1  0
 25 46  1  0
 26 47  1  0
M  END
>  <smiles>  (19) 
O=C(NCC(=O)N1CCCC1c1ccc(Cl)cc1)c1cnc2ccccc2n1

>  <score_type>  (19) 
oracle

>  <origin>  (19) 
autodockgpu

>  <m_score__min__energy>  (19) 
-8.1899999999999995

>  <m_primary>  (19) 
energy

>  <meeko>  (19) 
{"free_energy": -6.82, "intermolecular_energy": -8.31, "internal_energy": -2.78, "cluster_size": 9, "cluster_id": 3, "rank_in_cluster": 7}

>  <energy>  (19) 
-6.73

>  <cluster_rmsd>  (19) 
0.28

>  <rmsd>  (19) 
271.1

>  <cluster>  (19) 
4

$$$$

     RDKit          3D

 47 50  0  0  1  0  0  0  0  0999 V2000
  139.1150   75.1770  221.4020 O   0  0  0  0  0  0  0  0  0  0  0  0
  140.1690   75.7360  221.7720 C   0  0  0  0  0  0  0  0  0  0  0  0
  141.3680   74.9250  221.6620 N   0  0  0  0  0  0  0  0  0  0  0  0
  141.1800   73.6000  221.1480 C   0  0  0  0  0  0  0  0  0  0  0  0
  142.0250   73.1400  220.0560 C   0  0  0  0  0  0  0  0  0  0  0  0
  141.3560   72.6850  219.0350 O   0  0  0  0  0  0  0  0  0  0  0  0
  143.4130   73.0980  219.9150 N   0  0  0  0  0  0  0  0  0  0  0  0
  144.4100   72.0920  220.3390 C   0  0  0  0  0  0  0  0  0  0  0  0
  145.3520   72.9780  221.1160 C   0  0  0  0  0  0  0  0  0  0  0  0
  145.2070   74.3590  220.5420 C   0  0  0  0  0  0  0  0  0  0  0  0
  144.3050   74.1130  219.3130 C   0  0  2  0  0  0  0  0  0  0  0  0
  143.6360   75.3590  218.9300 C   0  0  0  0  0  0  0  0  0  0  0  0
  143.5070   75.6110  217.5570 C   0  0  0  0  0  0  0  0  0  0  0  0
  142.9180   76.7880  217.1150 C   0  0  0  0  0  0  0  0  0  0  0  0
  142.4470   77.7370  218.0110 C   0  0  0  0  0  0  0  0  0  0  0  0
  141.7170   79.1970  217.3830 Cl  0  0  0  0  0  0  0  0  0  0  0  0
  142.5700   77.4970  219.3660 C   0  0  0  0  0  0  0  0  0  0  0  0
  143.1600   76.3180  219.7680 C   0  0  0  0  0  0  0  0  0  0  0  0
  140.2470   77.0940  222.2820 C   0  0  0  0  0  0  0  0  0  0  0  0
  139.0800   77.7260  222.6140 C   0  0  0  0  0  0  0  0  0  0  0  0
  139.1270   78.9910  223.0910 N   0  0  0  0  0  0  0  0  0  0  0  0
  140.3130   79.6470  223.2450 C   0  0  0  0  0  0  0  0  0  0  0  0
  140.3920   80.9260  223.7250 C   0  0  0  0  0  0  0  0  0  0  0  0
  141.6290   81.5560  223.8660 C   0  0  0  0  0  0  0  0  0  0  0  0
  142.7690   80.8640  223.5120 C   0  0  0  0  0  0  0  0  0  0  0  0
  142.6850   79.5710  223.0280 C   0  0  0  0  0  0  0  0  0  0  0  0
  141.4530   78.9640  222.8950 C   0  0  0  0  0  0  0  0  0  0  0  0
  141.4480   77.7070  222.4180 N   0  0  0  0  0  0  0  0  0  0  0  0
  142.2900   75.3300  221.9560 H   0  0  0  0  0  0  0  0  0  0  0  0
  141.3304   72.9045  221.9869 H   0  0  0  0  0  0  0  0  0  0  0  0
  140.1724   73.6285  220.7076 H   0  0  0  0  0  0  0  0  0  0  0  0
  143.9618   71.3141  220.9746 H   0  0  0  0  0  0  0  0  0  0  0  0
  144.8746   71.5227  219.5204 H   0  0  0  0  0  0  0  0  0  0  0  0
  145.0810   72.9788  222.1821 H   0  0  0  0  0  0  0  0  0  0  0  0
  146.3897   72.6212  221.0386 H   0  0  0  0  0  0  0  0  0  0  0  0
  144.7255   75.0398  221.2594 H   0  0  0  0  0  0  0  0  0  0  0  0
  146.1670   74.8357  220.2948 H   0  0  0  0  0  0  0  0  0  0  0  0
  144.7791   73.7904  218.3743 H   0  0  0  0  0  0  0  0  0  0  0  0
  143.8736   74.8738  216.8275 H   0  0  0  0  0  0  0  0  0  0  0  0
  142.8230   76.9716  216.0346 H   0  0  0  0  0  0  0  0  0  0  0  0
  142.2068   78.2272  220.1042 H   0  0  0  0  0  0  0  0  0  0  0  0
  143.2528   76.1393  220.8494 H   0  0  0  0  0  0  0  0  0  0  0  0
  138.1150   77.2117  222.4945 H   0  0  0  0  0  0  0  0  0  0  0  0
  139.4723   81.4621  224.0021 H   0  0  0  0  0  0  0  0  0  0  0  0
  141.6941   82.5841  224.2518 H   0  0  0  0  0  0  0  0  0  0  0  0
  143.7530   81.3447  223.6156 H   0  0  0  0  0  0  0  0  0  0  0  0
  143.5996   79.0271  222.7493 H   0  0  0  0  0  0  0  0  0  0  0  0
  1  2  2  0
  2  3  1  0
  3  4  1  0
  4  5  1  0
  5  6  2  0
  5  7  1  0
  7  8  1  0
  8  9  1  0
  9 10  1  0
 10 11  1  0
 11 12  1  0
 12 13  2  0
 13 14  1  0
 14 15  2  0
 15 16  1  0
 15 17  1  0
 17 18  2  0
  2 19  1  0
 19 20  2  0
 20 21  1  0
 21 22  2  0
 22 23  1  0
 23 24  2  0
 24 25  1  0
 25 26  2  0
 26 27  1  0
 27 28  2  0
 11  7  1  0
 18 12  1  0
 28 19  1  0
 27 22  1  0
  3 29  1  0
  4 30  1  0
  4 31  1  0
  8 32  1  0
  8 33  1  0
  9 34  1  0
  9 35  1  0
 10 36  1  0
 10 37  1  0
 11 38  1  6
 13 39  1  0
 14 40  1  0
 17 41  1  0
 18 42  1  0
 20 43  1  0
 23 44  1  0
 24 45  1  0
 25 46  1  0
 26 47  1  0
M  END
>  <smiles>  (20) 
O=C(NCC(=O)N1CCCC1c1ccc(Cl)cc1)c1cnc2ccccc2n1

>  <score_type>  (20) 
oracle

>  <origin>  (20) 
autodockgpu

>  <m_score__min__energy>  (20) 
-8.1899999999999995

>  <m_primary>  (20) 
energy

>  <meeko>  (20) 
{"free_energy": -7.32, "intermolecular_energy": -8.82, "internal_energy": -2.15, "cluster_size": 9, "cluster_id": 3, "rank_in_cluster": 1}

>  <energy>  (20) 
-6.55

>  <cluster_rmsd>  (20) 
0.42

>  <rmsd>  (20) 
271.02

>  <cluster>  (20) 
4

$$$$

     RDKit          3D

 47 50  0  0  1  0  0  0  0  0999 V2000
  140.5500   74.2550  220.2300 O   0  0  0  0  0  0  0  0  0  0  0  0
  140.2760   74.9740  221.2250 C   0  0  0  0  0  0  0  0  0  0  0  0
  139.4230   74.4080  222.2560 N   0  0  0  0  0  0  0  0  0  0  0  0
  138.9780   73.0740  222.0280 C   0  0  0  0  0  0  0  0  0  0  0  0
  139.5890   71.9780  222.7430 C   0  0  0  0  0  0  0  0  0  0  0  0
  140.7350   72.2670  223.2990 O   0  0  0  0  0  0  0  0  0  0  0  0
  139.1450   70.6550  222.9350 N   0  0  0  0  0  0  0  0  0  0  0  0
  139.4200   69.4250  222.2230 C   0  0  0  0  0  0  0  0  0  0  0  0
  138.3940   68.3940  222.6830 C   0  0  0  0  0  0  0  0  0  0  0  0
  137.3450   69.2370  223.3940 C   0  0  0  0  0  0  0  0  0  0  0  0
  138.2350   70.2730  224.0480 C   0  0  1  0  0  0  0  0  0  0  0  0
  138.9940   69.7260  225.1730 C   0  0  0  0  0  0  0  0  0  0  0  0
  139.9550   70.5260  225.8050 C   0  0  0  0  0  0  0  0  0  0  0  0
  140.6960   70.0640  226.8760 C   0  0  0  0  0  0  0  0  0  0  0  0
  140.5300   68.7910  227.3770 C   0  0  0  0  0  0  0  0  0  0  0  0
  141.4370   68.1570  228.7250 Cl  0  0  0  0  0  0  0  0  0  0  0  0
  139.5960   67.9940  226.7720 C   0  0  0  0  0  0  0  0  0  0  0  0
  138.8490   68.4590  225.6940 C   0  0  0  0  0  0  0  0  0  0  0  0
  140.7780   76.3330  221.3760 C   0  0  0  0  0  0  0  0  0  0  0  0
  141.1300   77.0140  220.2330 C   0  0  0  0  0  0  0  0  0  0  0  0
  141.6010   78.2790  220.3210 N   0  0  0  0  0  0  0  0  0  0  0  0
  141.7270   78.8770  221.5290 C   0  0  0  0  0  0  0  0  0  0  0  0
  142.2130   80.1670  221.5550 C   0  0  0  0  0  0  0  0  0  0  0  0
  142.3400   80.7750  222.7980 C   0  0  0  0  0  0  0  0  0  0  0  0
  141.9830   80.0860  223.9470 C   0  0  0  0  0  0  0  0  0  0  0  0
  141.4990   78.7980  223.9170 C   0  0  0  0  0  0  0  0  0  0  0  0
  141.3770   78.2030  222.6800 C   0  0  0  0  0  0  0  0  0  0  0  0
  140.9110   76.9460  222.5660 N   0  0  0  0  0  0  0  0  0  0  0  0
  139.2250   75.0330  223.0360 H   0  0  0  0  0  0  0  0  0  0  0  0
  137.9049   73.0515  222.2686 H   0  0  0  0  0  0  0  0  0  0  0  0
  139.2652   72.8862  220.9829 H   0  0  0  0  0  0  0  0  0  0  0  0
  139.3285   69.5892  221.1392 H   0  0  0  0  0  0  0  0  0  0  0  0
  140.4422   69.0757  222.4305 H   0  0  0  0  0  0  0  0  0  0  0  0
  137.9570   67.8628  221.8246 H   0  0  0  0  0  0  0  0  0  0  0  0
  138.8267   67.6132  223.3257 H   0  0  0  0  0  0  0  0  0  0  0  0
  136.6401   69.6946  222.6843 H   0  0  0  0  0  0  0  0  0  0  0  0
  136.6970   68.6805  224.0871 H   0  0  0  0  0  0  0  0  0  0  0  0
  137.6672   71.1112  224.4782 H   0  0  0  0  0  0  0  0  0  0  0  0
  140.1242   71.5494  225.4388 H   0  0  0  0  0  0  0  0  0  0  0  0
  141.4379   70.7299  227.3409 H   0  0  0  0  0  0  0  0  0  0  0  0
  139.4336   66.9714  227.1433 H   0  0  0  0  0  0  0  0  0  0  0  0
  138.1096   67.7847  225.2374 H   0  0  0  0  0  0  0  0  0  0  0  0
  141.0286   76.5307  219.2501 H   0  0  0  0  0  0  0  0  0  0  0  0
  142.4890   80.6935  220.6294 H   0  0  0  0  0  0  0  0  0  0  0  0
  142.7239   81.8033  222.8704 H   0  0  0  0  0  0  0  0  0  0  0  0
  142.0908   80.5880  224.9198 H   0  0  0  0  0  0  0  0  0  0  0  0
  141.2218   78.2670  224.8396 H   0  0  0  0  0  0  0  0  0  0  0  0
  1  2  2  0
  2  3  1  0
  3  4  1  0
  4  5  1  0
  5  6  2  0
  5  7  1  0
  7  8  1  0
  8  9  1  0
  9 10  1  0
 10 11  1  0
 11 12  1  0
 12 13  2  0
 13 14  1  0
 14 15  2  0
 15 16  1  0
 15 17  1  0
 17 18  2  0
  2 19  1  0
 19 20  2  0
 20 21  1  0
 21 22  2  0
 22 23  1  0
 23 24  2  0
 24 25  1  0
 25 26  2  0
 26 27  1  0
 27 28  2  0
 11  7  1  0
 18 12  1  0
 28 19  1  0
 27 22  1  0
  3 29  1  0
  4 30  1  0
  4 31  1  0
  8 32  1  0
  8 33  1  0
  9 34  1  0
  9 35  1  0
 10 36  1  0
 10 37  1  0
 11 38  1  1
 13 39  1  0
 14 40  1  0
 17 41  1  0
 18 42  1  0
 20 43  1  0
 23 44  1  0
 24 45  1  0
 25 46  1  0
 26 47  1  0
M  END
>  <smiles>  (21) 
O=C(NCC(=O)N1CCCC1c1ccc(Cl)cc1)c1cnc2ccccc2n1

>  <score_type>  (21) 
oracle

>  <origin>  (21) 
autodockgpu

>  <m_score__min__energy>  (21) 
-8.6899999999999995

>  <m_primary>  (21) 
energy

>  <meeko>  (21) 
{"free_energy": -8.5, "intermolecular_energy": -9.99, "internal_energy": -1.25, "cluster_size": 2, "cluster_id": 2, "rank_in_cluster": 2}

>  <energy>  (21) 
-8.69

>  <cluster_rmsd>  (21) 
0.0

>  <rmsd>  (21) 
270.68

>  <cluster>  (21) 
1

$$$$

     RDKit          3D

 47 50  0  0  1  0  0  0  0  0999 V2000
  140.1720   71.2550  221.2700 O   0  0  0  0  0  0  0  0  0  0  0  0
  139.6040   71.6990  222.3000 C   0  0  0  0  0  0  0  0  0  0  0  0
  138.6690   72.8000  222.1380 N   0  0  0  0  0  0  0  0  0  0  0  0
  138.4910   73.2690  220.8050 C   0  0  0  0  0  0  0  0  0  0  0  0
  138.7430   74.6560  220.4890 C   0  0  0  0  0  0  0  0  0  0  0  0
  137.9510   75.1560  219.5790 O   0  0  0  0  0  0  0  0  0  0  0  0
  139.7020   75.5490  221.0070 N   0  0  0  0  0  0  0  0  0  0  0  0
  139.9450   76.0460  222.3450 C   0  0  0  0  0  0  0  0  0  0  0  0
  140.8940   77.2350  222.2230 C   0  0  0  0  0  0  0  0  0  0  0  0
  140.8510   77.5660  220.7380 C   0  0  0  0  0  0  0  0  0  0  0  0
  140.7520   76.1710  220.1570 C   0  0  1  0  0  0  0  0  0  0  0  0
  142.0100   75.4320  220.2640 C   0  0  0  0  0  0  0  0  0  0  0  0
  141.9850   74.0920  220.6740 C   0  0  0  0  0  0  0  0  0  0  0  0
  143.1420   73.3440  220.7860 C   0  0  0  0  0  0  0  0  0  0  0  0
  144.3800   73.8760  220.5010 C   0  0  0  0  0  0  0  0  0  0  0  0
  145.8700   72.9780  220.6250 Cl  0  0  0  0  0  0  0  0  0  0  0  0
  144.4250   75.1840  220.0990 C   0  0  0  0  0  0  0  0  0  0  0  0
  143.2610   75.9370  219.9860 C   0  0  0  0  0  0  0  0  0  0  0  0
  139.8480   71.1550  223.6300 C   0  0  0  0  0  0  0  0  0  0  0  0
  139.5270   69.8360  223.8470 C   0  0  0  0  0  0  0  0  0  0  0  0
  139.7350   69.2840  225.0660 N   0  0  0  0  0  0  0  0  0  0  0  0
  140.2570   70.0270  226.0700 C   0  0  0  0  0  0  0  0  0  0  0  0
  140.4460   69.4100  227.2880 C   0  0  0  0  0  0  0  0  0  0  0  0
  140.9830   70.1780  228.3140 C   0  0  0  0  0  0  0  0  0  0  0  0
  141.3060   71.5070  228.0900 C   0  0  0  0  0  0  0  0  0  0  0  0
  141.1160   72.1200  226.8720 C   0  0  0  0  0  0  0  0  0  0  0  0
  140.5830   71.3500  225.8600 C   0  0  0  0  0  0  0  0  0  0  0  0
  140.3670   71.8760  224.6410 N   0  0  0  0  0  0  0  0  0  0  0  0
  138.2440   73.1280  223.0040 H   0  0  0  0  0  0  0  0  0  0  0  0
  139.1577   72.6712  220.1661 H   0  0  0  0  0  0  0  0  0  0  0  0
  137.4082   73.1645  220.6420 H   0  0  0  0  0  0  0  0  0  0  0  0
  138.9985   76.3657  222.8053 H   0  0  0  0  0  0  0  0  0  0  0  0
  140.3843   75.2609  222.9779 H   0  0  0  0  0  0  0  0  0  0  0  0
  140.5412   78.0843  222.8265 H   0  0  0  0  0  0  0  0  0  0  0  0
  141.9088   77.0149  222.5859 H   0  0  0  0  0  0  0  0  0  0  0  0
  139.9733   78.1775  220.4819 H   0  0  0  0  0  0  0  0  0  0  0  0
  141.7017   78.1596  220.3721 H   0  0  0  0  0  0  0  0  0  0  0  0
  140.5226   76.1733  219.0812 H   0  0  0  0  0  0  0  0  0  0  0  0
  141.0191   73.6231  220.9130 H   0  0  0  0  0  0  0  0  0  0  0  0
  143.0721   72.2956  221.1115 H   0  0  0  0  0  0  0  0  0  0  0  0
  145.3949   75.6457  219.8622 H   0  0  0  0  0  0  0  0  0  0  0  0
  143.3433   76.9842  219.6595 H   0  0  0  0  0  0  0  0  0  0  0  0
  139.1023   69.2306  223.0327 H   0  0  0  0  0  0  0  0  0  0  0  0
  140.1826   68.3531  227.4415 H   0  0  0  0  0  0  0  0  0  0  0  0
  141.1519   69.7308  229.3047 H   0  0  0  0  0  0  0  0  0  0  0  0
  141.7305   72.0947  228.9173 H   0  0  0  0  0  0  0  0  0  0  0  0
  141.3776   73.1766  226.7133 H   0  0  0  0  0  0  0  0  0  0  0  0
  1  2  2  0
  2  3  1  0
  3  4  1  0
  4  5  1  0
  5  6  2  0
  5  7  1  0
  7  8  1  0
  8  9  1  0
  9 10  1  0
 10 11  1  0
 11 12  1  0
 12 13  2  0
 13 14  1  0
 14 15  2  0
 15 16  1  0
 15 17  1  0
 17 18  2  0
  2 19  1  0
 19 20  2  0
 20 21  1  0
 21 22  2  0
 22 23  1  0
 23 24  2  0
 24 25  1  0
 25 26  2  0
 26 27  1  0
 27 28  2  0
 11  7  1  0
 18 12  1  0
 28 19  1  0
 27 22  1  0
  3 29  1  0
  4 30  1  0
  4 31  1  0
  8 32  1  0
  8 33  1  0
  9 34  1  0
  9 35  1  0
 10 36  1  0
 10 37  1  0
 11 38  1  6
 13 39  1  0
 14 40  1  0
 17 41  1  0
 18 42  1  0
 20 43  1  0
 23 44  1  0
 24 45  1  0
 25 46  1  0
 26 47  1  0
M  END
>  <smiles>  (22) 
O=C(NCC(=O)N1CCCC1c1ccc(Cl)cc1)c1cnc2ccccc2n1

>  <score_type>  (22) 
oracle

>  <origin>  (22) 
autodockgpu

>  <m_score__min__energy>  (22) 
-8.6899999999999995

>  <m_primary>  (22) 
energy

>  <meeko>  (22) 
{"free_energy": -8.0, "intermolecular_energy": -9.49, "internal_energy": -1.55, "cluster_size": 11, "cluster_id": 3, "rank_in_cluster": 7}

>  <energy>  (22) 
-8.62

>  <cluster_rmsd>  (22) 
0.8

>  <rmsd>  (22) 
270.87

>  <cluster>  (22) 
1

$$$$

     RDKit          3D

 47 50  0  0  1  0  0  0  0  0999 V2000
  140.9580   75.0210  220.7420 O   0  0  0  0  0  0  0  0  0  0  0  0
  140.2450   75.4070  221.7030 C   0  0  0  0  0  0  0  0  0  0  0  0
  139.3440   74.4420  222.3100 N   0  0  0  0  0  0  0  0  0  0  0  0
  139.3620   73.1360  221.7410 C   0  0  0  0  0  0  0  0  0  0  0  0
  139.8340   72.0160  222.5230 C   0  0  0  0  0  0  0  0  0  0  0  0
  141.0720   72.1200  222.9220 O   0  0  0  0  0  0  0  0  0  0  0  0
  139.1710   70.8380  222.9180 N   0  0  0  0  0  0  0  0  0  0  0  0
  139.1180   69.5120  222.3400 C   0  0  0  0  0  0  0  0  0  0  0  0
  137.9770   68.7640  223.0210 C   0  0  0  0  0  0  0  0  0  0  0  0
  137.2020   69.8700  223.7230 C   0  0  0  0  0  0  0  0  0  0  0  0
  138.3460   70.7640  224.1540 C   0  0  1  0  0  0  0  0  0  0  0  0
  139.1170   70.1910  225.2570 C   0  0  0  0  0  0  0  0  0  0  0  0
  138.6650   69.0140  225.8700 C   0  0  0  0  0  0  0  0  0  0  0  0
  139.3570   68.4240  226.9120 C   0  0  0  0  0  0  0  0  0  0  0  0
  140.5260   68.9630  227.4020 C   0  0  0  0  0  0  0  0  0  0  0  0
  141.4370   68.2620  228.7120 Cl  0  0  0  0  0  0  0  0  0  0  0  0
  140.9830   70.1130  226.8160 C   0  0  0  0  0  0  0  0  0  0  0  0
  140.2870   70.7060  225.7680 C   0  0  0  0  0  0  0  0  0  0  0  0
  140.2930   76.7680  222.2210 C   0  0  0  0  0  0  0  0  0  0  0  0
  139.1040   77.3480  222.5990 C   0  0  0  0  0  0  0  0  0  0  0  0
  139.0960   78.6110  223.0860 N   0  0  0  0  0  0  0  0  0  0  0  0
  140.2530   79.3040  223.2030 C   0  0  0  0  0  0  0  0  0  0  0  0
  140.1810   80.5850  223.7060 C   0  0  0  0  0  0  0  0  0  0  0  0
  141.3710   81.2910  223.8240 C   0  0  0  0  0  0  0  0  0  0  0  0
  142.5680   80.7020  223.4430 C   0  0  0  0  0  0  0  0  0  0  0  0
  142.6360   79.4220  222.9410 C   0  0  0  0  0  0  0  0  0  0  0  0
  141.4490   78.7300  222.8280 C   0  0  0  0  0  0  0  0  0  0  0  0
  141.4310   77.4740  222.3460 N   0  0  0  0  0  0  0  0  0  0  0  0
  138.7830   74.8070  223.0780 H   0  0  0  0  0  0  0  0  0  0  0  0
  138.3284   72.9039  221.4447 H   0  0  0  0  0  0  0  0  0  0  0  0
  140.1100   73.2188  220.9387 H   0  0  0  0  0  0  0  0  0  0  0  0
  138.9302   69.5804  221.2583 H   0  0  0  0  0  0  0  0  0  0  0  0
  140.0719   68.9847  222.4886 H   0  0  0  0  0  0  0  0  0  0  0  0
  137.3462   68.2495  222.2811 H   0  0  0  0  0  0  0  0  0  0  0  0
  138.3266   67.9802  223.7091 H   0  0  0  0  0  0  0  0  0  0  0  0
  136.5168   70.3875  223.0354 H   0  0  0  0  0  0  0  0  0  0  0  0
  136.5484   69.5297  224.5397 H   0  0  0  0  0  0  0  0  0  0  0  0
  138.0048   71.7391  224.5318 H   0  0  0  0  0  0  0  0  0  0  0  0
  137.7352   68.5473  225.5127 H   0  0  0  0  0  0  0  0  0  0  0  0
  138.9635   67.5002  227.3612 H   0  0  0  0  0  0  0  0  0  0  0  0
  141.9133   70.5742  227.1790 H   0  0  0  0  0  0  0  0  0  0  0  0
  140.6902   71.6295  225.3269 H   0  0  0  0  0  0  0  0  0  0  0  0
  138.1625   76.7869  222.5057 H   0  0  0  0  0  0  0  0  0  0  0  0
  139.2197   81.0303  224.0021 H   0  0  0  0  0  0  0  0  0  0  0  0
  141.3646   82.3174  224.2196 H   0  0  0  0  0  0  0  0  0  0  0  0
  143.4983   81.2799  223.5460 H   0  0  0  0  0  0  0  0  0  0  0  0
  143.5944   78.9716  222.6434 H   0  0  0  0  0  0  0  0  0  0  0  0
  1  2  2  0
  2  3  1  0
  3  4  1  0
  4  5  1  0
  5  6  2  0
  5  7  1  0
  7  8  1  0
  8  9  1  0
  9 10  1  0
 10 11  1  0
 11 12  1  0
 12 13  2  0
 13 14  1  0
 14 15  2  0
 15 16  1  0
 15 17  1  0
 17 18  2  0
  2 19  1  0
 19 20  2  0
 20 21  1  0
 21 22  2  0
 22 23  1  0
 23 24  2  0
 24 25  1  0
 25 26  2  0
 26 27  1  0
 27 28  2  0
 11  7  1  0
 18 12  1  0
 28 19  1  0
 27 22  1  0
  3 29  1  0
  4 30  1  0
  4 31  1  0
  8 32  1  0
  8 33  1  0
  9 34  1  0
  9 35  1  0
 10 36  1  0
 10 37  1  0
 11 38  1  1
 13 39  1  0
 14 40  1  0
 17 41  1  0
 18 42  1  0
 20 43  1  0
 23 44  1  0
 24 45  1  0
 25 46  1  0
 26 47  1  0
M  END
>  <smiles>  (23) 
O=C(NCC(=O)N1CCCC1c1ccc(Cl)cc1)c1cnc2ccccc2n1

>  <score_type>  (23) 
oracle

>  <origin>  (23) 
autodockgpu

>  <m_score__min__energy>  (23) 
-8.6899999999999995

>  <m_primary>  (23) 
energy

>  <meeko>  (23) 
{"free_energy": -8.56, "intermolecular_energy": -10.05, "internal_energy": -0.88, "cluster_size": 2, "cluster_id": 2, "rank_in_cluster": 1}

>  <energy>  (23) 
-8.54

>  <cluster_rmsd>  (23) 
0.87

>  <rmsd>  (23) 
270.85

>  <cluster>  (23) 
1

$$$$

     RDKit          3D

 47 50  0  0  1  0  0  0  0  0999 V2000
  138.6950   70.4650  221.6370 O   0  0  0  0  0  0  0  0  0  0  0  0
  139.0840   70.9970  222.7080 C   0  0  0  0  0  0  0  0  0  0  0  0
  139.2710   72.4380  222.7210 N   0  0  0  0  0  0  0  0  0  0  0  0
  138.9890   73.1090  221.4960 C   0  0  0  0  0  0  0  0  0  0  0  0
  138.8350   74.5450  221.4800 C   0  0  0  0  0  0  0  0  0  0  0  0
  137.5970   74.9560  221.5510 O   0  0  0  0  0  0  0  0  0  0  0  0
  139.8030   75.5650  221.4000 N   0  0  0  0  0  0  0  0  0  0  0  0
  140.2680   76.5400  222.3640 C   0  0  0  0  0  0  0  0  0  0  0  0
  141.0740   77.5860  221.6000 C   0  0  0  0  0  0  0  0  0  0  0  0
  140.7080   77.3180  220.1470 C   0  0  0  0  0  0  0  0  0  0  0  0
  140.6070   75.8070  220.1730 C   0  0  1  0  0  0  0  0  0  0  0  0
  141.9160   75.1620  220.2770 C   0  0  0  0  0  0  0  0  0  0  0  0
  141.9920   73.8250  220.6900 C   0  0  0  0  0  0  0  0  0  0  0  0
  143.2010   73.1650  220.7990 C   0  0  0  0  0  0  0  0  0  0  0  0
  144.3950   73.7860  220.5080 C   0  0  0  0  0  0  0  0  0  0  0  0
  145.9470   73.0010  220.6280 Cl  0  0  0  0  0  0  0  0  0  0  0  0
  144.3420   75.0930  220.1030 C   0  0  0  0  0  0  0  0  0  0  0  0
  143.1250   75.7580  219.9920 C   0  0  0  0  0  0  0  0  0  0  0  0
  139.3490   70.2290  223.9170 C   0  0  0  0  0  0  0  0  0  0  0  0
  138.9660   68.9080  223.9310 C   0  0  0  0  0  0  0  0  0  0  0  0
  139.1910   68.1530  225.0310 N   0  0  0  0  0  0  0  0  0  0  0  0
  139.7900   68.6930  226.1180 C   0  0  0  0  0  0  0  0  0  0  0  0
  139.9930   67.8740  227.2080 C   0  0  0  0  0  0  0  0  0  0  0  0
  140.6090   68.4350  228.3200 C   0  0  0  0  0  0  0  0  0  0  0  0
  140.9940   69.7660  228.3020 C   0  0  0  0  0  0  0  0  0  0  0  0
  140.7910   70.5810  227.2110 C   0  0  0  0  0  0  0  0  0  0  0  0
  140.1780   70.0160  226.1130 C   0  0  0  0  0  0  0  0  0  0  0  0
  139.9440   70.7460  225.0080 N   0  0  0  0  0  0  0  0  0  0  0  0
  139.5950   72.8180  223.6080 H   0  0  0  0  0  0  0  0  0  0  0  0
  139.8114   72.8697  220.8058 H   0  0  0  0  0  0  0  0  0  0  0  0
  137.9858   72.7433  221.2315 H   0  0  0  0  0  0  0  0  0  0  0  0
  139.4101   77.0158  222.8617 H   0  0  0  0  0  0  0  0  0  0  0  0
  140.8870   76.0593  223.1359 H   0  0  0  0  0  0  0  0  0  0  0  0
  140.7821   78.6037  221.8986 H   0  0  0  0  0  0  0  0  0  0  0  0
  142.1553   77.5197  221.7907 H   0  0  0  0  0  0  0  0  0  0  0  0
  139.7506   77.7861  219.8746 H   0  0  0  0  0  0  0  0  0  0  0  0
  141.4175   77.7213  219.4095 H   0  0  0  0  0  0  0  0  0  0  0  0
  140.1668   75.3947  219.2531 H   0  0  0  0  0  0  0  0  0  0  0  0
  141.0643   73.2866  220.9339 H   0  0  0  0  0  0  0  0  0  0  0  0
  143.2099   72.1151  221.1271 H   0  0  0  0  0  0  0  0  0  0  0  0
  145.2745   75.6245  219.8621 H   0  0  0  0  0  0  0  0  0  0  0  0
  143.1282   76.8072  219.6617 H   0  0  0  0  0  0  0  0  0  0  0  0
  138.4778   68.4663  223.0498 H   0  0  0  0  0  0  0  0  0  0  0  0
  139.6801   66.8195  227.1979 H   0  0  0  0  0  0  0  0  0  0  0  0
  140.7911   67.8222  229.2151 H   0  0  0  0  0  0  0  0  0  0  0  0
  141.4806   70.1878  229.1938 H   0  0  0  0  0  0  0  0  0  0  0  0
  141.1039   71.6356  227.2153 H   0  0  0  0  0  0  0  0  0  0  0  0
  1  2  2  0
  2  3  1  0
  3  4  1  0
  4  5  1  0
  5  6  2  0
  5  7  1  0
  7  8  1  0
  8  9  1  0
  9 10  1  0
 10 11  1  0
 11 12  1  0
 12 13  2  0
 13 14  1  0
 14 15  2  0
 15 16  1  0
 15 17  1  0
 17 18  2  0
  2 19  1  0
 19 20  2  0
 20 21  1  0
 21 22  2  0
 22 23  1  0
 23 24  2  0
 24 25  1  0
 25 26  2  0
 26 27  1  0
 27 28  2  0
 11  7  1  0
 18 12  1  0
 28 19  1  0
 27 22  1  0
  3 29  1  0
  4 30  1  0
  4 31  1  0
  8 32  1  0
  8 33  1  0
  9 34  1  0
  9 35  1  0
 10 36  1  0
 10 37  1  0
 11 38  1  6
 13 39  1  0
 14 40  1  0
 17 41  1  0
 18 42  1  0
 20 43  1  0
 23 44  1  0
 24 45  1  0
 25 46  1  0
 26 47  1  0
M  END
>  <smiles>  (24) 
O=C(NCC(=O)N1CCCC1c1ccc(Cl)cc1)c1cnc2ccccc2n1

>  <score_type>  (24) 
oracle

>  <origin>  (24) 
autodockgpu

>  <m_score__min__energy>  (24) 
-8.6899999999999995

>  <m_primary>  (24) 
energy

>  <meeko>  (24) 
{"free_energy": -8.25, "intermolecular_energy": -9.74, "internal_energy": -1.38, "cluster_size": 11, "cluster_id": 3, "rank_in_cluster": 1}

>  <energy>  (24) 
-8.45

>  <cluster_rmsd>  (24) 
1.01

>  <rmsd>  (24) 
270.92

>  <cluster>  (24) 
1

$$$$

     RDKit          3D

 47 50  0  0  1  0  0  0  0  0999 V2000
  139.1860   70.6400  221.6510 O   0  0  0  0  0  0  0  0  0  0  0  0
  139.4910   71.1130  222.7760 C   0  0  0  0  0  0  0  0  0  0  0  0
  139.7040   72.5470  222.8730 N   0  0  0  0  0  0  0  0  0  0  0  0
  139.5430   73.2800  221.6610 C   0  0  0  0  0  0  0  0  0  0  0  0
  139.9430   74.6670  221.6000 C   0  0  0  0  0  0  0  0  0  0  0  0
  141.1900   74.8550  221.2640 O   0  0  0  0  0  0  0  0  0  0  0  0
  139.2020   75.8390  221.8420 N   0  0  0  0  0  0  0  0  0  0  0  0
  138.1390   76.1410  222.7780 C   0  0  0  0  0  0  0  0  0  0  0  0
  137.5090   77.4600  222.3410 C   0  0  0  0  0  0  0  0  0  0  0  0
  138.0460   77.6540  220.9300 C   0  0  0  0  0  0  0  0  0  0  0  0
  139.4470   77.1050  221.1010 C   0  0  1  0  0  0  0  0  0  0  0  0
  140.3070   78.0010  221.8760 C   0  0  0  0  0  0  0  0  0  0  0  0
  140.3990   79.3500  221.5090 C   0  0  0  0  0  0  0  0  0  0  0  0
  141.1890   80.2420  222.2090 C   0  0  0  0  0  0  0  0  0  0  0  0
  141.9280   79.8510  223.3040 C   0  0  0  0  0  0  0  0  0  0  0  0
  142.9400   80.9330  224.2230 Cl  0  0  0  0  0  0  0  0  0  0  0  0
  141.8510   78.5360  223.6780 C   0  0  0  0  0  0  0  0  0  0  0  0
  141.0550   77.6390  222.9740 C   0  0  0  0  0  0  0  0  0  0  0  0
  139.6340   70.2850  223.9660 C   0  0  0  0  0  0  0  0  0  0  0  0
  139.1150   69.0120  223.9230 C   0  0  0  0  0  0  0  0  0  0  0  0
  139.2230   68.2040  225.0040 N   0  0  0  0  0  0  0  0  0  0  0  0
  139.8400   68.6440  226.1250 C   0  0  0  0  0  0  0  0  0  0  0  0
  139.9200   67.7760  227.1920 C   0  0  0  0  0  0  0  0  0  0  0  0
  140.5540   68.2340  228.3400 C   0  0  0  0  0  0  0  0  0  0  0  0
  141.0770   69.5170  228.3790 C   0  0  0  0  0  0  0  0  0  0  0  0
  140.9960   70.3820  227.3110 C   0  0  0  0  0  0  0  0  0  0  0  0
  140.3640   69.9190  226.1770 C   0  0  0  0  0  0  0  0  0  0  0  0
  140.2440   70.7030  225.0900 N   0  0  0  0  0  0  0  0  0  0  0  0
  139.9570   72.8790  223.8020 H   0  0  0  0  0  0  0  0  0  0  0  0
  140.1189   72.7486  220.8890 H   0  0  0  0  0  0  0  0  0  0  0  0
  138.4513   73.3246  221.5341 H   0  0  0  0  0  0  0  0  0  0  0  0
  137.3849   75.3403  222.7619 H   0  0  0  0  0  0  0  0  0  0  0  0
  138.5330   76.2187  223.8021 H   0  0  0  0  0  0  0  0  0  0  0  0
  136.4112   77.3907  222.3388 H   0  0  0  0  0  0  0  0  0  0  0  0
  137.7518   78.2965  223.0128 H   0  0  0  0  0  0  0  0  0  0  0  0
  137.4695   77.0776  220.1915 H   0  0  0  0  0  0  0  0  0  0  0  0
  137.9969   78.6868  220.5546 H   0  0  0  0  0  0  0  0  0  0  0  0
  139.9729   76.9759  220.1435 H   0  0  0  0  0  0  0  0  0  0  0  0
  139.8271   79.7087  220.6405 H   0  0  0  0  0  0  0  0  0  0  0  0
  141.2288   81.2919  221.8833 H   0  0  0  0  0  0  0  0  0  0  0  0
  142.4265   78.1844  224.5470 H   0  0  0  0  0  0  0  0  0  0  0  0
  141.0213   76.5920  223.3097 H   0  0  0  0  0  0  0  0  0  0  0  0
  138.6135   68.6513  223.0128 H   0  0  0  0  0  0  0  0  0  0  0  0
  139.4988   66.7613  227.1370 H   0  0  0  0  0  0  0  0  0  0  0  0
  140.6410   67.5780  229.2187 H   0  0  0  0  0  0  0  0  0  0  0  0
  141.5759   69.8571  229.2985 H   0  0  0  0  0  0  0  0  0  0  0  0
  141.4168   71.3971  227.3605 H   0  0  0  0  0  0  0  0  0  0  0  0
  1  2  2  0
  2  3  1  0
  3  4  1  0
  4  5  1  0
  5  6  2  0
  5  7  1  0
  7  8  1  0
  8  9  1  0
  9 10  1  0
 10 11  1  0
 11 12  1  0
 12 13  2  0
 13 14  1  0
 14 15  2  0
 15 16  1  0
 15 17  1  0
 17 18  2  0
  2 19  1  0
 19 20  2  0
 20 21  1  0
 21 22  2  0
 22 23  1  0
 23 24  2  0
 24 25  1  0
 25 26  2  0
 26 27  1  0
 27 28  2  0
 11  7  1  0
 18 12  1  0
 28 19  1  0
 27 22  1  0
  3 29  1  0
  4 30  1  0
  4 31  1  0
  8 32  1  0
  8 33  1  0
  9 34  1  0
  9 35  1  0
 10 36  1  0
 10 37  1  0
 11 38  1  6
 13 39  1  0
 14 40  1  0
 17 41  1  0
 18 42  1  0
 20 43  1  0
 23 44  1  0
 24 45  1  0
 25 46  1  0
 26 47  1  0
M  END
>  <smiles>  (25) 
O=C(NCC(=O)N1CCCC1c1ccc(Cl)cc1)c1cnc2ccccc2n1

>  <score_type>  (25) 
oracle

>  <origin>  (25) 
autodockgpu

>  <m_score__min__energy>  (25) 
-8.6899999999999995

>  <m_primary>  (25) 
energy

>  <meeko>  (25) 
{"free_energy": -8.45, "intermolecular_energy": -9.95, "internal_energy": -1.3, "cluster_size": 6, "cluster_id": 1, "rank_in_cluster": 4}

>  <energy>  (25) 
-8.45

>  <cluster_rmsd>  (25) 
0.81

>  <rmsd>  (25) 
270.84

>  <cluster>  (25) 
1

$$$$

     RDKit          3D

 47 50  0  0  1  0  0  0  0  0999 V2000
  140.0380   71.2220  221.2920 O   0  0  0  0  0  0  0  0  0  0  0  0
  139.5670   71.7350  222.3390 C   0  0  0  0  0  0  0  0  0  0  0  0
  138.7390   72.9210  222.2010 N   0  0  0  0  0  0  0  0  0  0  0  0
  138.5440   73.3870  220.8690 C   0  0  0  0  0  0  0  0  0  0  0  0
  138.7590   74.7810  220.5540 C   0  0  0  0  0  0  0  0  0  0  0  0
  137.9060   75.2790  219.7010 O   0  0  0  0  0  0  0  0  0  0  0  0
  139.7370   75.6800  221.0210 N   0  0  0  0  0  0  0  0  0  0  0  0
  140.0030   76.2310  222.3330 C   0  0  0  0  0  0  0  0  0  0  0  0
  140.9680   77.3980  222.1490 C   0  0  0  0  0  0  0  0  0  0  0  0
  140.9130   77.6660  220.6520 C   0  0  0  0  0  0  0  0  0  0  0  0
  140.7860   76.2480  220.1330 C   0  0  1  0  0  0  0  0  0  0  0  0
  142.0340   75.4950  220.2580 C   0  0  0  0  0  0  0  0  0  0  0  0
  141.9910   74.1640  220.6950 C   0  0  0  0  0  0  0  0  0  0  0  0
  143.1380   73.4030  220.8240 C   0  0  0  0  0  0  0  0  0  0  0  0
  144.3830   73.9140  220.5310 C   0  0  0  0  0  0  0  0  0  0  0  0
  145.8600   73.0000  220.6770 Cl  0  0  0  0  0  0  0  0  0  0  0  0
  144.4450   75.2130  220.1040 C   0  0  0  0  0  0  0  0  0  0  0  0
  143.2920   75.9790  219.9730 C   0  0  0  0  0  0  0  0  0  0  0  0
  139.8200   71.1880  223.6660 C   0  0  0  0  0  0  0  0  0  0  0  0
  139.5230   69.8620  223.8760 C   0  0  0  0  0  0  0  0  0  0  0  0
  139.7400   69.3070  225.0920 N   0  0  0  0  0  0  0  0  0  0  0  0
  140.2490   70.0530  226.1000 C   0  0  0  0  0  0  0  0  0  0  0  0
  140.4490   69.4330  227.3140 C   0  0  0  0  0  0  0  0  0  0  0  0
  140.9720   70.2040  228.3450 C   0  0  0  0  0  0  0  0  0  0  0  0
  141.2720   71.5400  228.1280 C   0  0  0  0  0  0  0  0  0  0  0  0
  141.0720   72.1560  226.9140 C   0  0  0  0  0  0  0  0  0  0  0  0
  140.5510   71.3830  225.8980 C   0  0  0  0  0  0  0  0  0  0  0  0
  140.3270   71.9110  224.6810 N   0  0  0  0  0  0  0  0  0  0  0  0
  138.3900   73.3020  223.0790 H   0  0  0  0  0  0  0  0  0  0  0  0
  139.2236   72.8075  220.2268 H   0  0  0  0  0  0  0  0  0  0  0  0
  137.4637   73.2547  220.7097 H   0  0  0  0  0  0  0  0  0  0  0  0
  139.0668   76.5853  222.7892 H   0  0  0  0  0  0  0  0  0  0  0  0
  140.4378   75.4674  222.9947 H   0  0  0  0  0  0  0  0  0  0  0  0
  140.6353   78.2779  222.7192 H   0  0  0  0  0  0  0  0  0  0  0  0
  141.9836   77.1774  222.5095 H   0  0  0  0  0  0  0  0  0  0  0  0
  140.0418   78.2797  220.3793 H   0  0  0  0  0  0  0  0  0  0  0  0
  141.7681   78.2302  220.2515 H   0  0  0  0  0  0  0  0  0  0  0  0
  140.5438   76.2071  219.0608 H   0  0  0  0  0  0  0  0  0  0  0  0
  141.0187   73.7128  220.9420 H   0  0  0  0  0  0  0  0  0  0  0  0
  143.0541   72.3621  221.1697 H   0  0  0  0  0  0  0  0  0  0  0  0
  145.4214   75.6575  219.8609 H   0  0  0  0  0  0  0  0  0  0  0  0
  143.3887   77.0184  219.6262 H   0  0  0  0  0  0  0  0  0  0  0  0
  139.1100   69.2534  223.0581 H   0  0  0  0  0  0  0  0  0  0  0  0
  140.2046   68.3706  227.4611 H   0  0  0  0  0  0  0  0  0  0  0  0
  141.1480   69.7543  229.3333 H   0  0  0  0  0  0  0  0  0  0  0  0
  141.6860   72.1305  228.9586 H   0  0  0  0  0  0  0  0  0  0  0  0
  141.3168   73.2174  226.7609 H   0  0  0  0  0  0  0  0  0  0  0  0
  1  2  2  0
  2  3  1  0
  3  4  1  0
  4  5  1  0
  5  6  2  0
  5  7  1  0
  7  8  1  0
  8  9  1  0
  9 10  1  0
 10 11  1  0
 11 12  1  0
 12 13  2  0
 13 14  1  0
 14 15  2  0
 15 16  1  0
 15 17  1  0
 17 18  2  0
  2 19  1  0
 19 20  2  0
 20 21  1  0
 21 22  2  0
 22 23  1  0
 23 24  2  0
 24 25  1  0
 25 26  2  0
 26 27  1  0
 27 28  2  0
 11  7  1  0
 18 12  1  0
 28 19  1  0
 27 22  1  0
  3 29  1  0
  4 30  1  0
  4 31  1  0
  8 32  1  0
  8 33  1  0
  9 34  1  0
  9 35  1  0
 10 36  1  0
 10 37  1  0
 11 38  1  6
 13 39  1  0
 14 40  1  0
 17 41  1  0
 18 42  1  0
 20 43  1  0
 23 44  1  0
 24 45  1  0
 25 46  1  0
 26 47  1  0
M  END
>  <smiles>  (26) 
O=C(NCC(=O)N1CCCC1c1ccc(Cl)cc1)c1cnc2ccccc2n1

>  <score_type>  (26) 
oracle

>  <origin>  (26) 
autodockgpu

>  <m_score__min__energy>  (26) 
-8.6899999999999995

>  <m_primary>  (26) 
energy

>  <meeko>  (26) 
{"free_energy": -8.07, "intermolecular_energy": -9.56, "internal_energy": -1.54, "cluster_size": 11, "cluster_id": 3, "rank_in_cluster": 6}

>  <energy>  (26) 
-7.64

>  <cluster_rmsd>  (26) 
1.72

>  <rmsd>  (26) 
270.14

>  <cluster>  (26) 
1

$$$$

     RDKit          3D

 47 50  0  0  1  0  0  0  0  0999 V2000
  140.1120   71.2500  221.3000 O   0  0  0  0  0  0  0  0  0  0  0  0
  139.6190   71.7460  222.3450 C   0  0  0  0  0  0  0  0  0  0  0  0
  138.7870   72.9290  222.2080 N   0  0  0  0  0  0  0  0  0  0  0  0
  138.6140   73.4130  220.8790 C   0  0  0  0  0  0  0  0  0  0  0  0
  138.7650   74.8220  220.6000 C   0  0  0  0  0  0  0  0  0  0  0  0
  137.8350   75.3230  219.8320 O   0  0  0  0  0  0  0  0  0  0  0  0
  139.7520   75.7340  221.0220 N   0  0  0  0  0  0  0  0  0  0  0  0
  140.0320   76.3340  222.3100 C   0  0  0  0  0  0  0  0  0  0  0  0
  141.0000   77.4890  222.0720 C   0  0  0  0  0  0  0  0  0  0  0  0
  140.9320   77.6990  220.5660 C   0  0  0  0  0  0  0  0  0  0  0  0
  140.7950   76.2630  220.1040 C   0  0  1  0  0  0  0  0  0  0  0  0
  142.0410   75.5090  220.2470 C   0  0  0  0  0  0  0  0  0  0  0  0
  141.9930   74.1840  220.7000 C   0  0  0  0  0  0  0  0  0  0  0  0
  143.1370   73.4230  220.8470 C   0  0  0  0  0  0  0  0  0  0  0  0
  144.3850   73.9280  220.5570 C   0  0  0  0  0  0  0  0  0  0  0  0
  145.8600   73.0130  220.7240 Cl  0  0  0  0  0  0  0  0  0  0  0  0
  144.4530   75.2220  220.1140 C   0  0  0  0  0  0  0  0  0  0  0  0
  143.3010   75.9870  219.9650 C   0  0  0  0  0  0  0  0  0  0  0  0
  139.8500   71.1820  223.6690 C   0  0  0  0  0  0  0  0  0  0  0  0
  139.5460   69.8540  223.8580 C   0  0  0  0  0  0  0  0  0  0  0  0
  139.7430   69.2840  225.0700 N   0  0  0  0  0  0  0  0  0  0  0  0
  140.2380   70.0160  226.0950 C   0  0  0  0  0  0  0  0  0  0  0  0
  140.4160   69.3800  227.3050 C   0  0  0  0  0  0  0  0  0  0  0  0
  140.9250   70.1370  228.3530 C   0  0  0  0  0  0  0  0  0  0  0  0
  141.2300   71.4750  228.1580 C   0  0  0  0  0  0  0  0  0  0  0  0
  141.0500   72.1070  226.9480 C   0  0  0  0  0  0  0  0  0  0  0  0
  140.5450   71.3480  225.9150 C   0  0  0  0  0  0  0  0  0  0  0  0
  140.3410   71.8920  224.7010 N   0  0  0  0  0  0  0  0  0  0  0  0
  138.4190   73.2960  223.0840 H   0  0  0  0  0  0  0  0  0  0  0  0
  139.3456   72.8843  220.2503 H   0  0  0  0  0  0  0  0  0  0  0  0
  137.5485   73.2274  220.6781 H   0  0  0  0  0  0  0  0  0  0  0  0
  139.1014   76.7096  222.7605 H   0  0  0  0  0  0  0  0  0  0  0  0
  140.4695   75.5947  222.9970 H   0  0  0  0  0  0  0  0  0  0  0  0
  140.6762   78.3918  222.6107 H   0  0  0  0  0  0  0  0  0  0  0  0
  142.0180   77.2782  222.4315 H   0  0  0  0  0  0  0  0  0  0  0  0
  140.0606   78.3052  220.2776 H   0  0  0  0  0  0  0  0  0  0  0  0
  141.7854   78.2438  220.1360 H   0  0  0  0  0  0  0  0  0  0  0  0
  140.5434   76.1824  219.0362 H   0  0  0  0  0  0  0  0  0  0  0  0
  141.0181   73.7374  220.9453 H   0  0  0  0  0  0  0  0  0  0  0  0
  143.0485   72.3867  221.2050 H   0  0  0  0  0  0  0  0  0  0  0  0
  145.4318   75.6623  219.8728 H   0  0  0  0  0  0  0  0  0  0  0  0
  143.4012   77.0217  219.6052 H   0  0  0  0  0  0  0  0  0  0  0  0
  139.1439   69.2566  223.0265 H   0  0  0  0  0  0  0  0  0  0  0  0
  140.1654   68.3169  227.4355 H   0  0  0  0  0  0  0  0  0  0  0  0
  141.0860   69.6743  229.3379 H   0  0  0  0  0  0  0  0  0  0  0  0
  141.6313   72.0543  229.0026 H   0  0  0  0  0  0  0  0  0  0  0  0
  141.2982   73.1700  226.8122 H   0  0  0  0  0  0  0  0  0  0  0  0
  1  2  2  0
  2  3  1  0
  3  4  1  0
  4  5  1  0
  5  6  2  0
  5  7  1  0
  7  8  1  0
  8  9  1  0
  9 10  1  0
 10 11  1  0
 11 12  1  0
 12 13  2  0
 13 14  1  0
 14 15  2  0
 15 16  1  0
 15 17  1  0
 17 18  2  0
  2 19  1  0
 19 20  2  0
 20 21  1  0
 21 22  2  0
 22 23  1  0
 23 24  2  0
 24 25  1  0
 25 26  2  0
 26 27  1  0
 27 28  2  0
 11  7  1  0
 18 12  1  0
 28 19  1  0
 27 22  1  0
  3 29  1  0
  4 30  1  0
  4 31  1  0
  8 32  1  0
  8 33  1  0
  9 34  1  0
  9 35  1  0
 10 36  1  0
 10 37  1  0
 11 38  1  6
 13 39  1  0
 14 40  1  0
 17 41  1  0
 18 42  1  0
 20 43  1  0
 23 44  1  0
 24 45  1  0
 25 46  1  0
 26 47  1  0
M  END
>  <smiles>  (27) 
O=C(NCC(=O)N1CCCC1c1ccc(Cl)cc1)c1cnc2ccccc2n1

>  <score_type>  (27) 
oracle

>  <origin>  (27) 
autodockgpu

>  <m_score__min__energy>  (27) 
-8.6899999999999995

>  <m_primary>  (27) 
energy

>  <meeko>  (27) 
{"free_energy": -8.09, "intermolecular_energy": -9.58, "internal_energy": -1.52, "cluster_size": 11, "cluster_id": 3, "rank_in_cluster": 4}

>  <energy>  (27) 
-8.56

>  <cluster_rmsd>  (27) 
0.0

>  <rmsd>  (27) 
270.95

>  <cluster>  (27) 
2

$$$$

     RDKit          3D

 47 50  0  0  1  0  0  0  0  0999 V2000
  137.3500   69.8850  222.0210 O   0  0  0  0  0  0  0  0  0  0  0  0
  137.9360   70.5250  222.9310 C   0  0  0  0  0  0  0  0  0  0  0  0
  137.9440   71.9760  222.8430 N   0  0  0  0  0  0  0  0  0  0  0  0
  137.2740   72.5300  221.7140 C   0  0  0  0  0  0  0  0  0  0  0  0
  137.6310   73.8470  221.2390 C   0  0  0  0  0  0  0  0  0  0  0  0
  136.6190   74.6580  221.0850 O   0  0  0  0  0  0  0  0  0  0  0  0
  138.8900   74.3900  220.9190 N   0  0  0  0  0  0  0  0  0  0  0  0
  139.4840   74.7900  219.6610 C   0  0  0  0  0  0  0  0  0  0  0  0
  140.9780   74.9810  219.9030 C   0  0  0  0  0  0  0  0  0  0  0  0
  141.2020   74.3130  221.2520 C   0  0  0  0  0  0  0  0  0  0  0  0
  139.9150   74.6930  221.9540 C   0  0  1  0  0  0  0  0  0  0  0  0
  139.8760   76.1080  222.3210 C   0  0  0  0  0  0  0  0  0  0  0  0
  141.0770   76.7790  222.5920 C   0  0  0  0  0  0  0  0  0  0  0  0
  141.1010   78.1170  222.9370 C   0  0  0  0  0  0  0  0  0  0  0  0
  139.9450   78.8620  223.0330 C   0  0  0  0  0  0  0  0  0  0  0  0
  139.9180   80.5510  223.4630 Cl  0  0  0  0  0  0  0  0  0  0  0  0
  138.7620   78.2230  222.7720 C   0  0  0  0  0  0  0  0  0  0  0  0
  138.7380   76.8770  222.4240 C   0  0  0  0  0  0  0  0  0  0  0  0
  138.5980   69.8720  224.0520 C   0  0  0  0  0  0  0  0  0  0  0  0
  138.5910   68.4970  224.0840 C   0  0  0  0  0  0  0  0  0  0  0  0
  139.1920   67.8440  225.1060 N   0  0  0  0  0  0  0  0  0  0  0  0
  139.8010   68.5390  226.0940 C   0  0  0  0  0  0  0  0  0  0  0  0
  140.3960   67.8180  227.1070 C   0  0  0  0  0  0  0  0  0  0  0  0
  141.0200   68.5370  228.1190 C   0  0  0  0  0  0  0  0  0  0  0  0
  141.0270   69.9230  228.0830 C   0  0  0  0  0  0  0  0  0  0  0  0
  140.4310   70.6400  227.0700 C   0  0  0  0  0  0  0  0  0  0  0  0
  139.8140   69.9170  226.0700 C   0  0  0  0  0  0  0  0  0  0  0  0
  139.2100   70.5440  225.0450 N   0  0  0  0  0  0  0  0  0  0  0  0
  138.4390   72.4460  223.5980 H   0  0  0  0  0  0  0  0  0  0  0  0
  137.4350   71.8354  220.8764 H   0  0  0  0  0  0  0  0  0  0  0  0
  136.2414   72.6600  222.0702 H   0  0  0  0  0  0  0  0  0  0  0  0
  139.3225   74.0088  218.9036 H   0  0  0  0  0  0  0  0  0  0  0  0
  139.0275   75.7212  219.2943 H   0  0  0  0  0  0  0  0  0  0  0  0
  141.5705   74.4901  219.1169 H   0  0  0  0  0  0  0  0  0  0  0  0
  141.2849   76.0372  219.8893 H   0  0  0  0  0  0  0  0  0  0  0  0
  141.3066   73.2223  221.1545 H   0  0  0  0  0  0  0  0  0  0  0  0
  142.1207   74.6203  221.7730 H   0  0  0  0  0  0  0  0  0  0  0  0
  139.7746   74.1564  222.9039 H   0  0  0  0  0  0  0  0  0  0  0  0
  142.0255   76.2256  222.5283 H   0  0  0  0  0  0  0  0  0  0  0  0
  142.0680   78.6003  223.1404 H   0  0  0  0  0  0  0  0  0  0  0  0
  137.8173   78.7826  222.8387 H   0  0  0  0  0  0  0  0  0  0  0  0
  137.7654   76.4046  222.2216 H   0  0  0  0  0  0  0  0  0  0  0  0
  138.0982   67.9294  223.2810 H   0  0  0  0  0  0  0  0  0  0  0  0
  140.3775   66.7182  227.1139 H   0  0  0  0  0  0  0  0  0  0  0  0
  141.5088   68.0063  228.9493 H   0  0  0  0  0  0  0  0  0  0  0  0
  141.5279   70.4707  228.8949 H   0  0  0  0  0  0  0  0  0  0  0  0
  140.4461   71.7398  227.0585 H   0  0  0  0  0  0  0  0  0  0  0  0
  1  2  2  0
  2  3  1  0
  3  4  1  0
  4  5  1  0
  5  6  2  0
  5  7  1  0
  7  8  1  0
  8  9  1  0
  9 10  1  0
 10 11  1  0
 11 12  1  0
 12 13  2  0
 13 14  1  0
 14 15  2  0
 15 16  1  0
 15 17  1  0
 17 18  2  0
  2 19  1  0
 19 20  2  0
 20 21  1  0
 21 22  2  0
 22 23  1  0
 23 24  2  0
 24 25  1  0
 25 26  2  0
 26 27  1  0
 27 28  2  0
 11  7  1  0
 18 12  1  0
 28 19  1  0
 27 22  1  0
  3 29  1  0
  4 30  1  0
  4 31  1  0
  8 32  1  0
  8 33  1  0
  9 34  1  0
  9 35  1  0
 10 36  1  0
 10 37  1  0
 11 38  1  1
 13 39  1  0
 14 40  1  0
 17 41  1  0
 18 42  1  0
 20 43  1  0
 23 44  1  0
 24 45  1  0
 25 46  1  0
 26 47  1  0
M  END
>  <smiles>  (28) 
O=C(NCC(=O)N1CCCC1c1ccc(Cl)cc1)c1cnc2ccccc2n1

>  <score_type>  (28) 
oracle

>  <origin>  (28) 
autodockgpu

>  <m_score__min__energy>  (28) 
-8.6899999999999995

>  <m_primary>  (28) 
energy

>  <meeko>  (28) 
{"free_energy": -7.64, "intermolecular_energy": -9.13, "internal_energy": -1.44, "cluster_size": 6, "cluster_id": 1, "rank_in_cluster": 6}

>  <energy>  (28) 
-8.5

>  <cluster_rmsd>  (28) 
0.9

>  <rmsd>  (28) 
270.68

>  <cluster>  (28) 
2

$$$$

     RDKit          3D

 47 50  0  0  1  0  0  0  0  0999 V2000
  140.3180   71.4380  221.3850 O   0  0  0  0  0  0  0  0  0  0  0  0
  139.6700   71.7760  222.4080 C   0  0  0  0  0  0  0  0  0  0  0  0
  138.6990   72.8490  222.2720 N   0  0  0  0  0  0  0  0  0  0  0  0
  138.5810   73.4150  220.9700 C   0  0  0  0  0  0  0  0  0  0  0  0
  138.6610   74.8480  220.7970 C   0  0  0  0  0  0  0  0  0  0  0  0
  137.5980   75.3870  220.2640 O   0  0  0  0  0  0  0  0  0  0  0  0
  139.6980   75.7470  221.1120 N   0  0  0  0  0  0  0  0  0  0  0  0
  140.0510   76.4310  222.3380 C   0  0  0  0  0  0  0  0  0  0  0  0
  141.0540   77.5230  221.9770 C   0  0  0  0  0  0  0  0  0  0  0  0
  140.9350   77.6200  220.4630 C   0  0  0  0  0  0  0  0  0  0  0  0
  140.7240   76.1600  220.1190 C   0  0  1  0  0  0  0  0  0  0  0  0
  141.9440   75.3680  220.2750 C   0  0  0  0  0  0  0  0  0  0  0  0
  143.1830   75.9480  219.9690 C   0  0  0  0  0  0  0  0  0  0  0  0
  144.3670   75.2490  220.1040 C   0  0  0  0  0  0  0  0  0  0  0  0
  144.3920   73.9450  220.5480 C   0  0  0  0  0  0  0  0  0  0  0  0
  145.8570   73.0180  220.7380 Cl  0  0  0  0  0  0  0  0  0  0  0  0
  143.1920   73.3610  220.8530 C   0  0  0  0  0  0  0  0  0  0  0  0
  142.0000   74.0640  220.7170 C   0  0  0  0  0  0  0  0  0  0  0  0
  139.8570   71.1390  223.7040 C   0  0  0  0  0  0  0  0  0  0  0  0
  139.5510   69.8020  223.8080 C   0  0  0  0  0  0  0  0  0  0  0  0
  139.7080   69.1650  224.9920 N   0  0  0  0  0  0  0  0  0  0  0  0
  140.1650   69.8380  226.0730 C   0  0  0  0  0  0  0  0  0  0  0  0
  140.3040   69.1350  227.2500 C   0  0  0  0  0  0  0  0  0  0  0  0
  140.7740   69.8320  228.3560 C   0  0  0  0  0  0  0  0  0  0  0  0
  141.0830   71.1790  228.2480 C   0  0  0  0  0  0  0  0  0  0  0  0
  140.9430   71.8780  227.0700 C   0  0  0  0  0  0  0  0  0  0  0  0
  140.4750   71.1780  225.9790 C   0  0  0  0  0  0  0  0  0  0  0  0
  140.3110   71.7900  224.7910 N   0  0  0  0  0  0  0  0  0  0  0  0
  138.2080   73.0910  223.1310 H   0  0  0  0  0  0  0  0  0  0  0  0
  139.3828   72.9756  220.3584 H   0  0  0  0  0  0  0  0  0  0  0  0
  137.5443   73.1824  220.6851 H   0  0  0  0  0  0  0  0  0  0  0  0
  139.1540   76.8787  222.7907 H   0  0  0  0  0  0  0  0  0  0  0  0
  140.4855   75.7283  223.0642 H   0  0  0  0  0  0  0  0  0  0  0  0
  140.7872   78.4770  222.4553 H   0  0  0  0  0  0  0  0  0  0  0  0
  142.0762   77.2978  222.3152 H   0  0  0  0  0  0  0  0  0  0  0  0
  140.0772   78.2384  220.1602 H   0  0  0  0  0  0  0  0  0  0  0  0
  141.7915   78.0940  219.9614 H   0  0  0  0  0  0  0  0  0  0  0  0
  140.4278   76.0087  219.0705 H   0  0  0  0  0  0  0  0  0  0  0  0
  143.2133   76.9879  219.6117 H   0  0  0  0  0  0  0  0  0  0  0  0
  145.3146   75.7466  219.8503 H   0  0  0  0  0  0  0  0  0  0  0  0
  143.1704   72.3210  221.2107 H   0  0  0  0  0  0  0  0  0  0  0  0
  141.0588   73.5560  220.9740 H   0  0  0  0  0  0  0  0  0  0  0  0
  139.1795   69.2517  222.9310 H   0  0  0  0  0  0  0  0  0  0  0  0
  140.0531   68.0658  227.3113 H   0  0  0  0  0  0  0  0  0  0  0  0
  140.9011   69.3145  229.3183 H   0  0  0  0  0  0  0  0  0  0  0  0
  141.4541   71.7096  229.1372 H   0  0  0  0  0  0  0  0  0  0  0  0
  141.1934   72.9470  227.0028 H   0  0  0  0  0  0  0  0  0  0  0  0
  1  2  2  0
  2  3  1  0
  3  4  1  0
  4  5  1  0
  5  6  2  0
  5  7  1  0
  7  8  1  0
  8  9  1  0
  9 10  1  0
 10 11  1  0
 11 12  1  0
 12 13  2  0
 13 14  1  0
 14 15  2  0
 15 16  1  0
 15 17  1  0
 17 18  2  0
  2 19  1  0
 19 20  2  0
 20 21  1  0
 21 22  2  0
 22 23  1  0
 23 24  2  0
 24 25  1  0
 25 26  2  0
 26 27  1  0
 27 28  2  0
 11  7  1  0
 18 12  1  0
 28 19  1  0
 27 22  1  0
  3 29  1  0
  4 30  1  0
  4 31  1  0
  8 32  1  0
  8 33  1  0
  9 34  1  0
  9 35  1  0
 10 36  1  0
 10 37  1  0
 11 38  1  6
 13 39  1  0
 14 40  1  0
 17 41  1  0
 18 42  1  0
 20 43  1  0
 23 44  1  0
 24 45  1  0
 25 46  1  0
 26 47  1  0
M  END
>  <smiles>  (29) 
O=C(NCC(=O)N1CCCC1c1ccc(Cl)cc1)c1cnc2ccccc2n1

>  <score_type>  (29) 
oracle

>  <origin>  (29) 
autodockgpu

>  <m_score__min__energy>  (29) 
-8.6899999999999995

>  <m_primary>  (29) 
energy

>  <meeko>  (29) 
{"free_energy": -8.13, "intermolecular_energy": -9.62, "internal_energy": -1.5, "cluster_size": 11, "cluster_id": 3, "rank_in_cluster": 3}

>  <energy>  (29) 
-8.25

>  <cluster_rmsd>  (29) 
0.0

>  <rmsd>  (29) 
270.29

>  <cluster>  (29) 
3

$$$$

     RDKit          3D

 47 50  0  0  1  0  0  0  0  0999 V2000
  140.3990   77.8680  218.9170 O   0  0  0  0  0  0  0  0  0  0  0  0
  141.6120   77.6000  219.1110 C   0  0  0  0  0  0  0  0  0  0  0  0
  142.5780   78.6740  218.9480 N   0  0  0  0  0  0  0  0  0  0  0  0
  142.0390   79.9390  218.5770 C   0  0  0  0  0  0  0  0  0  0  0  0
  141.8280   80.9550  219.5820 C   0  0  0  0  0  0  0  0  0  0  0  0
  141.7690   82.1730  219.1150 O   0  0  0  0  0  0  0  0  0  0  0  0
  141.6770   80.8390  220.9780 N   0  0  0  0  0  0  0  0  0  0  0  0
  141.1510   81.7450  221.9770 C   0  0  0  0  0  0  0  0  0  0  0  0
  141.5600   81.2030  223.3430 C   0  0  0  0  0  0  0  0  0  0  0  0
  142.6310   80.1750  223.0060 C   0  0  0  0  0  0  0  0  0  0  0  0
  142.0610   79.6090  221.7210 C   0  0  1  0  0  0  0  0  0  0  0  0
  140.8920   78.7610  221.9560 C   0  0  0  0  0  0  0  0  0  0  0  0
  141.0760   77.4570  222.4350 C   0  0  0  0  0  0  0  0  0  0  0  0
  140.0090   76.6140  222.6810 C   0  0  0  0  0  0  0  0  0  0  0  0
  138.7070   77.0120  222.4670 C   0  0  0  0  0  0  0  0  0  0  0  0
  137.3250   75.9910  222.7600 Cl  0  0  0  0  0  0  0  0  0  0  0  0
  138.5070   78.2830  221.9980 C   0  0  0  0  0  0  0  0  0  0  0  0
  139.5810   79.1310  221.7510 C   0  0  0  0  0  0  0  0  0  0  0  0
  142.0740   76.2710  219.4890 C   0  0  0  0  0  0  0  0  0  0  0  0
  141.1450   75.2580  219.5200 C   0  0  0  0  0  0  0  0  0  0  0  0
  141.5260   74.0060  219.8650 N   0  0  0  0  0  0  0  0  0  0  0  0
  142.8170   73.7480  220.1790 C   0  0  0  0  0  0  0  0  0  0  0  0
  143.1440   72.4540  220.5220 C   0  0  0  0  0  0  0  0  0  0  0  0
  144.4710   72.1960  220.8440 C   0  0  0  0  0  0  0  0  0  0  0  0
  145.4050   73.2200  220.8100 C   0  0  0  0  0  0  0  0  0  0  0  0
  145.0740   74.5120  220.4670 C   0  0  0  0  0  0  0  0  0  0  0  0
  143.7560   74.7580  220.1510 C   0  0  0  0  0  0  0  0  0  0  0  0
  143.3530   75.9940  219.8050 N   0  0  0  0  0  0  0  0  0  0  0  0
  143.5470   78.4030  219.1070 H   0  0  0  0  0  0  0  0  0  0  0  0
  142.7218   80.3685  217.8291 H   0  0  0  0  0  0  0  0  0  0  0  0
  141.0190   79.6932  218.2466 H   0  0  0  0  0  0  0  0  0  0  0  0
  141.5706   82.7512  221.8305 H   0  0  0  0  0  0  0  0  0  0  0  0
  140.0561   81.8168  221.8990 H   0  0  0  0  0  0  0  0  0  0  0  0
  141.9678   82.0030  223.9783 H   0  0  0  0  0  0  0  0  0  0  0  0
  140.7170   80.7771  223.9069 H   0  0  0  0  0  0  0  0  0  0  0  0
  143.6119   80.6460  222.8444 H   0  0  0  0  0  0  0  0  0  0  0  0
  142.8225   79.4315  223.7938 H   0  0  0  0  0  0  0  0  0  0  0  0
  142.7725   78.9603  221.1891 H   0  0  0  0  0  0  0  0  0  0  0  0
  142.0979   77.0945  222.6203 H   0  0  0  0  0  0  0  0  0  0  0  0
  140.2039   75.5989  223.0574 H   0  0  0  0  0  0  0  0  0  0  0  0
  137.4823   78.6381  221.8141 H   0  0  0  0  0  0  0  0  0  0  0  0
  139.3742   80.1437  221.3747 H   0  0  0  0  0  0  0  0  0  0  0  0
  140.0951   75.4645  219.2651 H   0  0  0  0  0  0  0  0  0  0  0  0
  142.3854   71.6576  220.5402 H   0  0  0  0  0  0  0  0  0  0  0  0
  144.7805   71.1788  221.1260 H   0  0  0  0  0  0  0  0  0  0  0  0
  146.4500   72.9918  221.0667 H   0  0  0  0  0  0  0  0  0  0  0  0
  145.8286   75.3121  220.4463 H   0  0  0  0  0  0  0  0  0  0  0  0
  1  2  2  0
  2  3  1  0
  3  4  1  0
  4  5  1  0
  5  6  2  0
  5  7  1  0
  7  8  1  0
  8  9  1  0
  9 10  1  0
 10 11  1  0
 11 12  1  0
 12 13  2  0
 13 14  1  0
 14 15  2  0
 15 16  1  0
 15 17  1  0
 17 18  2  0
  2 19  1  0
 19 20  2  0
 20 21  1  0
 21 22  2  0
 22 23  1  0
 23 24  2  0
 24 25  1  0
 25 26  2  0
 26 27  1  0
 27 28  2  0
 11  7  1  0
 18 12  1  0
 28 19  1  0
 27 22  1  0
  3 29  1  0
  4 30  1  0
  4 31  1  0
  8 32  1  0
  8 33  1  0
  9 34  1  0
  9 35  1  0
 10 36  1  0
 10 37  1  0
 11 38  1  6
 13 39  1  0
 14 40  1  0
 17 41  1  0
 18 42  1  0
 20 43  1  0
 23 44  1  0
 24 45  1  0
 25 46  1  0
 26 47  1  0
M  END
>  <smiles>  (30) 
O=C(NCC(=O)N1CCCC1c1ccc(Cl)cc1)c1cnc2ccccc2n1

>  <score_type>  (30) 
oracle

>  <origin>  (30) 
autodockgpu

>  <m_score__min__energy>  (30) 
-8.6899999999999995

>  <m_primary>  (30) 
energy

>  <meeko>  (30) 
{"free_energy": -6.79, "intermolecular_energy": -8.28, "internal_energy": -2.31, "cluster_size": 1, "cluster_id": 4, "rank_in_cluster": 1}

>  <energy>  (30) 
-8.14

>  <cluster_rmsd>  (30) 
0.92

>  <rmsd>  (30) 
270.39

>  <cluster>  (30) 
3

$$$$

     RDKit          3D

 47 50  0  0  1  0  0  0  0  0999 V2000
  140.1780   71.3390  221.2990 O   0  0  0  0  0  0  0  0  0  0  0  0
  139.6260   71.7830  222.3380 C   0  0  0  0  0  0  0  0  0  0  0  0
  138.7360   72.9230  222.1990 N   0  0  0  0  0  0  0  0  0  0  0  0
  138.5790   73.4280  220.8750 C   0  0  0  0  0  0  0  0  0  0  0  0
  138.7190   74.8430  220.6220 C   0  0  0  0  0  0  0  0  0  0  0  0
  137.7680   75.3570  219.8900 O   0  0  0  0  0  0  0  0  0  0  0  0
  139.7140   75.7490  221.0380 N   0  0  0  0  0  0  0  0  0  0  0  0
  140.0090   76.3450  222.3240 C   0  0  0  0  0  0  0  0  0  0  0  0
  140.9810   77.4960  222.0800 C   0  0  0  0  0  0  0  0  0  0  0  0
  140.9010   77.7080  220.5750 C   0  0  0  0  0  0  0  0  0  0  0  0
  140.7520   76.2740  220.1110 C   0  0  1  0  0  0  0  0  0  0  0  0
  141.9950   75.5130  220.2430 C   0  0  0  0  0  0  0  0  0  0  0  0
  141.9430   74.1840  220.6850 C   0  0  0  0  0  0  0  0  0  0  0  0
  143.0840   73.4170  220.8210 C   0  0  0  0  0  0  0  0  0  0  0  0
  144.3340   73.9190  220.5290 C   0  0  0  0  0  0  0  0  0  0  0  0
  145.8050   72.9960  220.6820 Cl  0  0  0  0  0  0  0  0  0  0  0  0
  144.4050   75.2160  220.0960 C   0  0  0  0  0  0  0  0  0  0  0  0
  143.2570   75.9880  219.9590 C   0  0  0  0  0  0  0  0  0  0  0  0
  139.8450   71.2020  223.6560 C   0  0  0  0  0  0  0  0  0  0  0  0
  139.5260   69.8760  223.8290 C   0  0  0  0  0  0  0  0  0  0  0  0
  139.7120   69.2900  225.0350 N   0  0  0  0  0  0  0  0  0  0  0  0
  140.2110   70.0050  226.0710 C   0  0  0  0  0  0  0  0  0  0  0  0
  140.3780   69.3540  227.2740 C   0  0  0  0  0  0  0  0  0  0  0  0
  140.8900   70.0940  228.3320 C   0  0  0  0  0  0  0  0  0  0  0  0
  141.2110   71.4310  228.1540 C   0  0  0  0  0  0  0  0  0  0  0  0
  141.0430   72.0780  226.9500 C   0  0  0  0  0  0  0  0  0  0  0  0
  140.5340   71.3360  225.9060 C   0  0  0  0  0  0  0  0  0  0  0  0
  140.3400   71.8950  224.6980 N   0  0  0  0  0  0  0  0  0  0  0  0
  138.3210   73.2500  223.0700 H   0  0  0  0  0  0  0  0  0  0  0  0
  139.3263   72.9178  220.2495 H   0  0  0  0  0  0  0  0  0  0  0  0
  137.5189   73.2346  220.6539 H   0  0  0  0  0  0  0  0  0  0  0  0
  139.0845   76.7244  222.7838 H   0  0  0  0  0  0  0  0  0  0  0  0
  140.4493   75.6019  223.0052 H   0  0  0  0  0  0  0  0  0  0  0  0
  140.6661   78.3996  222.6226 H   0  0  0  0  0  0  0  0  0  0  0  0
  142.0009   77.2801  222.4309 H   0  0  0  0  0  0  0  0  0  0  0  0
  140.0305   78.3195  220.2952 H   0  0  0  0  0  0  0  0  0  0  0  0
  141.7541   78.2483  220.1387 H   0  0  0  0  0  0  0  0  0  0  0  0
  140.4908   76.1968  219.0452 H   0  0  0  0  0  0  0  0  0  0  0  0
  140.9671   73.7395  220.9303 H   0  0  0  0  0  0  0  0  0  0  0  0
  142.9925   72.3784  221.1715 H   0  0  0  0  0  0  0  0  0  0  0  0
  145.3846   75.6535  219.8530 H   0  0  0  0  0  0  0  0  0  0  0  0
  143.3608   77.0253  219.6079 H   0  0  0  0  0  0  0  0  0  0  0  0
  139.1205   69.2925  222.9893 H   0  0  0  0  0  0  0  0  0  0  0  0
  140.1166   68.2920  227.3915 H   0  0  0  0  0  0  0  0  0  0  0  0
  141.0410   69.6187  229.3124 H   0  0  0  0  0  0  0  0  0  0  0  0
  141.6151   71.9963  229.0067 H   0  0  0  0  0  0  0  0  0  0  0  0
  141.3034   73.1396  226.8270 H   0  0  0  0  0  0  0  0  0  0  0  0
  1  2  2  0
  2  3  1  0
  3  4  1  0
  4  5  1  0
  5  6  2  0
  5  7  1  0
  7  8  1  0
  8  9  1  0
  9 10  1  0
 10 11  1  0
 11 12  1  0
 12 13  2  0
 13 14  1  0
 14 15  2  0
 15 16  1  0
 15 17  1  0
 17 18  2  0
  2 19  1  0
 19 20  2  0
 20 21  1  0
 21 22  2  0
 22 23  1  0
 23 24  2  0
 24 25  1  0
 25 26  2  0
 26 27  1  0
 27 28  2  0
 11  7  1  0
 18 12  1  0
 28 19  1  0
 27 22  1  0
  3 29  1  0
  4 30  1  0
  4 31  1  0
  8 32  1  0
  8 33  1  0
  9 34  1  0
  9 35  1  0
 10 36  1  0
 10 37  1  0
 11 38  1  6
 13 39  1  0
 14 40  1  0
 17 41  1  0
 18 42  1  0
 20 43  1  0
 23 44  1  0
 24 45  1  0
 25 46  1  0
 26 47  1  0
M  END
>  <smiles>  (31) 
O=C(NCC(=O)N1CCCC1c1ccc(Cl)cc1)c1cnc2ccccc2n1

>  <score_type>  (31) 
oracle

>  <origin>  (31) 
autodockgpu

>  <m_score__min__energy>  (31) 
-8.6899999999999995

>  <m_primary>  (31) 
energy

>  <meeko>  (31) 
{"free_energy": -8.09, "intermolecular_energy": -9.58, "internal_energy": -1.52, "cluster_size": 11, "cluster_id": 3, "rank_in_cluster": 5}

>  <energy>  (31) 
-8.13

>  <cluster_rmsd>  (31) 
0.87

>  <rmsd>  (31) 
270.37

>  <cluster>  (31) 
3

$$$$

     RDKit          3D

 47 50  0  0  1  0  0  0  0  0999 V2000
  138.8740   70.6130  221.4650 O   0  0  0  0  0  0  0  0  0  0  0  0
  139.0850   71.3480  222.4620 C   0  0  0  0  0  0  0  0  0  0  0  0
  138.9340   72.7830  222.2920 N   0  0  0  0  0  0  0  0  0  0  0  0
  138.5550   73.2140  220.9880 C   0  0  0  0  0  0  0  0  0  0  0  0
  138.7580   74.5900  220.5960 C   0  0  0  0  0  0  0  0  0  0  0  0
  137.9190   75.0240  219.6940 O   0  0  0  0  0  0  0  0  0  0  0  0
  139.7120   75.5300  221.0320 N   0  0  0  0  0  0  0  0  0  0  0  0
  139.9750   76.1180  222.3290 C   0  0  0  0  0  0  0  0  0  0  0  0
  140.8980   77.3120  222.1080 C   0  0  0  0  0  0  0  0  0  0  0  0
  140.8170   77.5450  220.6060 C   0  0  0  0  0  0  0  0  0  0  0  0
  140.7310   76.1130  220.1190 C   0  0  1  0  0  0  0  0  0  0  0  0
  142.0050   75.4040  220.2450 C   0  0  0  0  0  0  0  0  0  0  0  0
  142.0070   74.0690  220.6720 C   0  0  0  0  0  0  0  0  0  0  0  0
  143.1790   73.3490  220.8030 C   0  0  0  0  0  0  0  0  0  0  0  0
  144.4070   73.9050  220.5200 C   0  0  0  0  0  0  0  0  0  0  0  0
  145.9150   73.0430  220.6670 Cl  0  0  0  0  0  0  0  0  0  0  0  0
  144.4250   75.2090  220.1020 C   0  0  0  0  0  0  0  0  0  0  0  0
  143.2460   75.9340  219.9700 C   0  0  0  0  0  0  0  0  0  0  0  0
  139.4710   70.8180  223.7640 C   0  0  0  0  0  0  0  0  0  0  0  0
  139.3130   69.4680  223.9740 C   0  0  0  0  0  0  0  0  0  0  0  0
  139.6560   68.9270  225.1670 N   0  0  0  0  0  0  0  0  0  0  0  0
  140.1550   69.7110  226.1510 C   0  0  0  0  0  0  0  0  0  0  0  0
  140.4880   69.1030  227.3430 C   0  0  0  0  0  0  0  0  0  0  0  0
  141.0000   69.9120  228.3500 C   0  0  0  0  0  0  0  0  0  0  0  0
  141.1590   71.2720  228.1330 C   0  0  0  0  0  0  0  0  0  0  0  0
  140.8260   71.8760  226.9410 C   0  0  0  0  0  0  0  0  0  0  0  0
  140.3180   71.0650  225.9490 C   0  0  0  0  0  0  0  0  0  0  0  0
  139.9690   71.5780  224.7550 N   0  0  0  0  0  0  0  0  0  0  0  0
  139.1260   73.3340  223.1270 H   0  0  0  0  0  0  0  0  0  0  0  0
  139.1153   72.5938  220.2729 H   0  0  0  0  0  0  0  0  0  0  0  0
  137.4598   73.1113  220.9953 H   0  0  0  0  0  0  0  0  0  0  0  0
  139.0330   76.4507  222.7893 H   0  0  0  0  0  0  0  0  0  0  0  0
  140.4429   75.3838  223.0014 H   0  0  0  0  0  0  0  0  0  0  0  0
  140.5425   78.1927  222.6630 H   0  0  0  0  0  0  0  0  0  0  0  0
  141.9244   77.1333  222.4608 H   0  0  0  0  0  0  0  0  0  0  0  0
  139.9229   78.1237  220.3308 H   0  0  0  0  0  0  0  0  0  0  0  0
  141.6485   78.1279  220.1832 H   0  0  0  0  0  0  0  0  0  0  0  0
  140.4778   76.0411  219.0510 H   0  0  0  0  0  0  0  0  0  0  0  0
  141.0499   73.5814  220.9092 H   0  0  0  0  0  0  0  0  0  0  0  0
  143.1300   72.3038  221.1424 H   0  0  0  0  0  0  0  0  0  0  0  0
  145.3861   75.6898  219.8673 H   0  0  0  0  0  0  0  0  0  0  0  0
  143.3072   76.9785  219.6305 H   0  0  0  0  0  0  0  0  0  0  0  0
  138.9090   68.8293  223.1747 H   0  0  0  0  0  0  0  0  0  0  0  0
  140.3538   68.0213  227.4907 H   0  0  0  0  0  0  0  0  0  0  0  0
  141.2792   69.4734  229.3194 H   0  0  0  0  0  0  0  0  0  0  0  0
  141.5669   71.8927  228.9444 H   0  0  0  0  0  0  0  0  0  0  0  0
  140.9594   72.9570  226.7875 H   0  0  0  0  0  0  0  0  0  0  0  0
  1  2  2  0
  2  3  1  0
  3  4  1  0
  4  5  1  0
  5  6  2  0
  5  7  1  0
  7  8  1  0
  8  9  1  0
  9 10  1  0
 10 11  1  0
 11 12  1  0
 12 13  2  0
 13 14  1  0
 14 15  2  0
 15 16  1  0
 15 17  1  0
 17 18  2  0
  2 19  1  0
 19 20  2  0
 20 21  1  0
 21 22  2  0
 22 23  1  0
 23 24  2  0
 24 25  1  0
 25 26  2  0
 26 27  1  0
 27 28  2  0
 11  7  1  0
 18 12  1  0
 28 19  1  0
 27 22  1  0
  3 29  1  0
  4 30  1  0
  4 31  1  0
  8 32  1  0
  8 33  1  0
  9 34  1  0
  9 35  1  0
 10 36  1  0
 10 37  1  0
 11 38  1  6
 13 39  1  0
 14 40  1  0
 17 41  1  0
 18 42  1  0
 20 43  1  0
 23 44  1  0
 24 45  1  0
 25 46  1  0
 26 47  1  0
M  END
>  <smiles>  (32) 
O=C(NCC(=O)N1CCCC1c1ccc(Cl)cc1)c1cnc2ccccc2n1

>  <score_type>  (32) 
oracle

>  <origin>  (32) 
autodockgpu

>  <m_score__min__energy>  (32) 
-8.6899999999999995

>  <m_primary>  (32) 
energy

>  <meeko>  (32) 
{"free_energy": -7.96, "intermolecular_energy": -9.45, "internal_energy": -1.55, "cluster_size": 11, "cluster_id": 3, "rank_in_cluster": 9}

>  <energy>  (32) 
-8.09

>  <cluster_rmsd>  (32) 
0.93

>  <rmsd>  (32) 
270.38

>  <cluster>  (32) 
3

$$$$

     RDKit          3D

 47 50  0  0  1  0  0  0  0  0999 V2000
  138.9530   70.6930  221.7020 O   0  0  0  0  0  0  0  0  0  0  0  0
  139.3500   71.1450  222.8070 C   0  0  0  0  0  0  0  0  0  0  0  0
  139.6360   72.5670  222.8940 N   0  0  0  0  0  0  0  0  0  0  0  0
  139.4330   73.3140  221.6980 C   0  0  0  0  0  0  0  0  0  0  0  0
  139.9420   74.6620  221.5940 C   0  0  0  0  0  0  0  0  0  0  0  0
  141.2390   74.7410  221.4680 O   0  0  0  0  0  0  0  0  0  0  0  0
  139.2630   75.8950  221.6080 N   0  0  0  0  0  0  0  0  0  0  0  0
  138.0910   76.3520  222.3250 C   0  0  0  0  0  0  0  0  0  0  0  0
  137.6400   77.6570  221.6760 C   0  0  0  0  0  0  0  0  0  0  0  0
  138.4070   77.6780  220.3620 C   0  0  0  0  0  0  0  0  0  0  0  0
  139.7180   77.0650  220.8090 C   0  0  1  0  0  0  0  0  0  0  0  0
  140.5090   77.9790  221.6330 C   0  0  0  0  0  0  0  0  0  0  0  0
  140.7430   79.2830  221.1790 C   0  0  0  0  0  0  0  0  0  0  0  0
  141.4770   80.1910  221.9190 C   0  0  0  0  0  0  0  0  0  0  0  0
  142.0170   79.8600  223.1420 C   0  0  0  0  0  0  0  0  0  0  0  0
  142.9500   80.9650  224.1170 Cl  0  0  0  0  0  0  0  0  0  0  0  0
  141.7990   78.5890  223.6030 C   0  0  0  0  0  0  0  0  0  0  0  0
  141.0600   77.6760  222.8580 C   0  0  0  0  0  0  0  0  0  0  0  0
  139.5310   70.3040  223.9820 C   0  0  0  0  0  0  0  0  0  0  0  0
  139.0270   69.0250  223.9350 C   0  0  0  0  0  0  0  0  0  0  0  0
  139.1700   68.2050  225.0020 N   0  0  0  0  0  0  0  0  0  0  0  0
  139.8060   68.6390  226.1150 C   0  0  0  0  0  0  0  0  0  0  0  0
  139.9200   67.7580  227.1690 C   0  0  0  0  0  0  0  0  0  0  0  0
  140.5750   68.2100  228.3090 C   0  0  0  0  0  0  0  0  0  0  0  0
  141.0820   69.4990  228.3520 C   0  0  0  0  0  0  0  0  0  0  0  0
  140.9660   70.3760  227.2970 C   0  0  0  0  0  0  0  0  0  0  0  0
  140.3150   69.9190  226.1720 C   0  0  0  0  0  0  0  0  0  0  0  0
  140.1610   70.7150  225.0980 N   0  0  0  0  0  0  0  0  0  0  0  0
  139.9630   72.8810  223.8070 H   0  0  0  0  0  0  0  0  0  0  0  0
  139.8919   72.7372  220.8814 H   0  0  0  0  0  0  0  0  0  0  0  0
  138.3421   73.4522  221.6679 H   0  0  0  0  0  0  0  0  0  0  0  0
  137.2905   75.6008  222.2549 H   0  0  0  0  0  0  0  0  0  0  0  0
  138.3223   76.5068  223.3892 H   0  0  0  0  0  0  0  0  0  0  0  0
  136.5544   77.6542  221.4986 H   0  0  0  0  0  0  0  0  0  0  0  0
  137.8357   78.5395  222.3028 H   0  0  0  0  0  0  0  0  0  0  0  0
  137.9131   77.0674  219.5918 H   0  0  0  0  0  0  0  0  0  0  0  0
  138.4962   78.6699  219.8949 H   0  0  0  0  0  0  0  0  0  0  0  0
  140.3779   76.8105  219.9665 H   0  0  0  0  0  0  0  0  0  0  0  0
  140.3315   79.5931  220.2071 H   0  0  0  0  0  0  0  0  0  0  0  0
  141.6339   81.2043  221.5207 H   0  0  0  0  0  0  0  0  0  0  0  0
  142.2139   78.2860  224.5756 H   0  0  0  0  0  0  0  0  0  0  0  0
  140.9088   76.6657  223.2661 H   0  0  0  0  0  0  0  0  0  0  0  0
  138.5089   68.6695  223.0321 H   0  0  0  0  0  0  0  0  0  0  0  0
  139.5096   66.7391  227.1105 H   0  0  0  0  0  0  0  0  0  0  0  0
  140.6908   67.5443  229.1770 H   0  0  0  0  0  0  0  0  0  0  0  0
  141.5970   69.8345  229.2643 H   0  0  0  0  0  0  0  0  0  0  0  0
  141.3748   71.3959  227.3499 H   0  0  0  0  0  0  0  0  0  0  0  0
  1  2  2  0
  2  3  1  0
  3  4  1  0
  4  5  1  0
  5  6  2  0
  5  7  1  0
  7  8  1  0
  8  9  1  0
  9 10  1  0
 10 11  1  0
 11 12  1  0
 12 13  2  0
 13 14  1  0
 14 15  2  0
 15 16  1  0
 15 17  1  0
 17 18  2  0
  2 19  1  0
 19 20  2  0
 20 21  1  0
 21 22  2  0
 22 23  1  0
 23 24  2  0
 24 25  1  0
 25 26  2  0
 26 27  1  0
 27 28  2  0
 11  7  1  0
 18 12  1  0
 28 19  1  0
 27 22  1  0
  3 29  1  0
  4 30  1  0
  4 31  1  0
  8 32  1  0
  8 33  1  0
  9 34  1  0
  9 35  1  0
 10 36  1  0
 10 37  1  0
 11 38  1  6
 13 39  1  0
 14 40  1  0
 17 41  1  0
 18 42  1  0
 20 43  1  0
 23 44  1  0
 24 45  1  0
 25 46  1  0
 26 47  1  0
M  END
>  <smiles>  (33) 
O=C(NCC(=O)N1CCCC1c1ccc(Cl)cc1)c1cnc2ccccc2n1

>  <score_type>  (33) 
oracle

>  <origin>  (33) 
autodockgpu

>  <m_score__min__energy>  (33) 
-8.6899999999999995

>  <m_primary>  (33) 
energy

>  <meeko>  (33) 
{"free_energy": -8.54, "intermolecular_energy": -10.03, "internal_energy": -1.31, "cluster_size": 6, "cluster_id": 1, "rank_in_cluster": 3}

>  <energy>  (33) 
-8.09

>  <cluster_rmsd>  (33) 
0.94

>  <rmsd>  (33) 
270.36

>  <cluster>  (33) 
3

$$$$

     RDKit          3D

 47 50  0  0  1  0  0  0  0  0999 V2000
  138.4470   70.8220  221.9680 O   0  0  0  0  0  0  0  0  0  0  0  0
  139.0980   71.2010  222.9740 C   0  0  0  0  0  0  0  0  0  0  0  0
  139.6140   72.5600  222.9760 N   0  0  0  0  0  0  0  0  0  0  0  0
  139.3230   73.3330  221.8160 C   0  0  0  0  0  0  0  0  0  0  0  0
  139.9580   74.6180  221.6280 C   0  0  0  0  0  0  0  0  0  0  0  0
  141.2620   74.5880  221.6790 O   0  0  0  0  0  0  0  0  0  0  0  0
  139.3940   75.8870  221.3980 N   0  0  0  0  0  0  0  0  0  0  0  0
  138.1510   76.4910  221.8300 C   0  0  0  0  0  0  0  0  0  0  0  0
  137.9400   77.7480  220.9910 C   0  0  0  0  0  0  0  0  0  0  0  0
  138.9390   77.5820  219.8550 C   0  0  0  0  0  0  0  0  0  0  0  0
  140.0870   76.9350  220.6020 C   0  0  1  0  0  0  0  0  0  0  0  0
  140.7830   77.8770  221.4790 C   0  0  0  0  0  0  0  0  0  0  0  0
  141.2260   79.1000  220.9580 C   0  0  0  0  0  0  0  0  0  0  0  0
  141.8820   80.0300  221.7420 C   0  0  0  0  0  0  0  0  0  0  0  0
  142.1350   79.8020  223.0770 C   0  0  0  0  0  0  0  0  0  0  0  0
  142.9580   80.9390  224.1110 Cl  0  0  0  0  0  0  0  0  0  0  0  0
  141.7100   78.6120  223.6040 C   0  0  0  0  0  0  0  0  0  0  0  0
  141.0490   77.6770  222.8150 C   0  0  0  0  0  0  0  0  0  0  0  0
  139.3480   70.3380  224.1210 C   0  0  0  0  0  0  0  0  0  0  0  0
  138.9080   69.0370  224.0480 C   0  0  0  0  0  0  0  0  0  0  0  0
  139.1170   68.1960  225.0880 N   0  0  0  0  0  0  0  0  0  0  0  0
  139.7570   68.6310  226.1980 C   0  0  0  0  0  0  0  0  0  0  0  0
  139.9400   67.7280  227.2240 C   0  0  0  0  0  0  0  0  0  0  0  0
  140.5980   68.1810  228.3600 C   0  0  0  0  0  0  0  0  0  0  0  0
  141.0410   69.4920  228.4300 C   0  0  0  0  0  0  0  0  0  0  0  0
  140.8560   70.3910  227.4040 C   0  0  0  0  0  0  0  0  0  0  0  0
  140.2020   69.9330  226.2800 C   0  0  0  0  0  0  0  0  0  0  0  0
  139.9830   70.7500  225.2340 N   0  0  0  0  0  0  0  0  0  0  0  0
  140.1420   72.8150  223.8100 H   0  0  0  0  0  0  0  0  0  0  0  0
  139.5919   72.7152  220.9465 H   0  0  0  0  0  0  0  0  0  0  0  0
  138.2611   73.5907  221.9426 H   0  0  0  0  0  0  0  0  0  0  0  0
  137.3178   75.7900  221.6736 H   0  0  0  0  0  0  0  0  0  0  0  0
  138.1913   76.7403  222.9006 H   0  0  0  0  0  0  0  0  0  0  0  0
  136.9105   77.7970  220.6065 H   0  0  0  0  0  0  0  0  0  0  0  0
  138.0876   78.6766  221.5619 H   0  0  0  0  0  0  0  0  0  0  0  0
  138.5488   76.9278  219.0614 H   0  0  0  0  0  0  0  0  0  0  0  0
  139.1970   78.5119  219.3271 H   0  0  0  0  0  0  0  0  0  0  0  0
  140.8698   76.5517  219.9309 H   0  0  0  0  0  0  0  0  0  0  0  0
  141.0468   79.3259  219.8965 H   0  0  0  0  0  0  0  0  0  0  0  0
  142.2107   80.9767  221.2885 H   0  0  0  0  0  0  0  0  0  0  0  0
  141.8940   78.3925  224.6661 H   0  0  0  0  0  0  0  0  0  0  0  0
  140.7237   76.7344  223.2795 H   0  0  0  0  0  0  0  0  0  0  0  0
  138.3876   68.6807  223.1468 H   0  0  0  0  0  0  0  0  0  0  0  0
  139.5797   66.6916  227.1459 H   0  0  0  0  0  0  0  0  0  0  0  0
  140.7677   67.4980  229.2054 H   0  0  0  0  0  0  0  0  0  0  0  0
  141.5602   69.8272  229.3400 H   0  0  0  0  0  0  0  0  0  0  0  0
  141.2140   71.4285  227.4777 H   0  0  0  0  0  0  0  0  0  0  0  0
  1  2  2  0
  2  3  1  0
  3  4  1  0
  4  5  1  0
  5  6  2  0
  5  7  1  0
  7  8  1  0
  8  9  1  0
  9 10  1  0
 10 11  1  0
 11 12  1  0
 12 13  2  0
 13 14  1  0
 14 15  2  0
 15 16  1  0
 15 17  1  0
 17 18  2  0
  2 19  1  0
 19 20  2  0
 20 21  1  0
 21 22  2  0
 22 23  1  0
 23 24  2  0
 24 25  1  0
 25 26  2  0
 26 27  1  0
 27 28  2  0
 11  7  1  0
 18 12  1  0
 28 19  1  0
 27 22  1  0
  3 29  1  0
  4 30  1  0
  4 31  1  0
  8 32  1  0
  8 33  1  0
  9 34  1  0
  9 35  1  0
 10 36  1  0
 10 37  1  0
 11 38  1  6
 13 39  1  0
 14 40  1  0
 17 41  1  0
 18 42  1  0
 20 43  1  0
 23 44  1  0
 24 45  1  0
 25 46  1  0
 26 47  1  0
M  END
>  <smiles>  (34) 
O=C(NCC(=O)N1CCCC1c1ccc(Cl)cc1)c1cnc2ccccc2n1

>  <score_type>  (34) 
oracle

>  <origin>  (34) 
autodockgpu

>  <m_score__min__energy>  (34) 
-8.6899999999999995

>  <m_primary>  (34) 
energy

>  <meeko>  (34) 
{"free_energy": -8.45, "intermolecular_energy": -9.94, "internal_energy": -1.36, "cluster_size": 6, "cluster_id": 1, "rank_in_cluster": 5}

>  <energy>  (34) 
-8.07

>  <cluster_rmsd>  (34) 
0.95

>  <rmsd>  (34) 
270.37

>  <cluster>  (34) 
3

$$$$

     RDKit          3D

 47 50  0  0  1  0  0  0  0  0999 V2000
  141.0930   72.1990  221.7160 O   0  0  0  0  0  0  0  0  0  0  0  0
  140.1840   72.3100  222.5780 C   0  0  0  0  0  0  0  0  0  0  0  0
  139.1470   73.3020  222.3450 N   0  0  0  0  0  0  0  0  0  0  0  0
  139.2720   74.0570  221.1440 C   0  0  0  0  0  0  0  0  0  0  0  0
  140.1660   75.1910  221.0950 C   0  0  0  0  0  0  0  0  0  0  0  0
  141.2700   75.0370  221.7740 O   0  0  0  0  0  0  0  0  0  0  0  0
  140.0340   76.4270  220.4330 N   0  0  0  0  0  0  0  0  0  0  0  0
  138.8740   77.1970  220.0360 C   0  0  0  0  0  0  0  0  0  0  0  0
  139.3530   78.2710  219.0630 C   0  0  0  0  0  0  0  0  0  0  0  0
  140.7520   77.8040  218.6870 C   0  0  0  0  0  0  0  0  0  0  0  0
  141.2090   77.2370  220.0140 C   0  0  1  0  0  0  0  0  0  0  0  0
  141.4950   78.2810  220.9980 C   0  0  0  0  0  0  0  0  0  0  0  0
  141.4130   77.9780  222.3640 C   0  0  0  0  0  0  0  0  0  0  0  0
  141.6790   78.9230  223.3370 C   0  0  0  0  0  0  0  0  0  0  0  0
  142.0400   80.2130  223.0140 C   0  0  0  0  0  0  0  0  0  0  0  0
  142.3870   81.4430  224.1990 Cl  0  0  0  0  0  0  0  0  0  0  0  0
  142.1260   80.5280  221.6850 C   0  0  0  0  0  0  0  0  0  0  0  0
  141.8580   79.5770  220.7060 C   0  0  0  0  0  0  0  0  0  0  0  0
  140.1360   71.4920  223.7820 C   0  0  0  0  0  0  0  0  0  0  0  0
  139.5440   70.2540  223.6890 C   0  0  0  0  0  0  0  0  0  0  0  0
  139.4750   69.4570  224.7800 N   0  0  0  0  0  0  0  0  0  0  0  0
  139.9870   69.8730  225.9620 C   0  0  0  0  0  0  0  0  0  0  0  0
  139.8870   69.0160  227.0370 C   0  0  0  0  0  0  0  0  0  0  0  0
  140.4150   69.4490  228.2470 C   0  0  0  0  0  0  0  0  0  0  0  0
  141.0120   70.6970  228.3370 C   0  0  0  0  0  0  0  0  0  0  0  0
  141.1100   71.5500  227.2610 C   0  0  0  0  0  0  0  0  0  0  0  0
  140.5830   71.1120  226.0650 C   0  0  0  0  0  0  0  0  0  0  0  0
  140.6400   71.8860  224.9660 N   0  0  0  0  0  0  0  0  0  0  0  0
  138.4400   73.3580  223.0770 H   0  0  0  0  0  0  0  0  0  0  0  0
  139.6025   73.3577  220.3619 H   0  0  0  0  0  0  0  0  0  0  0  0
  138.2778   74.5127  221.0263 H   0  0  0  0  0  0  0  0  0  0  0  0
  138.1391   76.5435  219.5432 H   0  0  0  0  0  0  0  0  0  0  0  0
  138.3910   77.6533  220.9126 H   0  0  0  0  0  0  0  0  0  0  0  0
  138.7023   78.3189  218.1774 H   0  0  0  0  0  0  0  0  0  0  0  0
  139.3386   79.2819  219.4965 H   0  0  0  0  0  0  0  0  0  0  0  0
  140.7275   77.0343  217.9015 H   0  0  0  0  0  0  0  0  0  0  0  0
  141.4035   78.5859  218.2697 H   0  0  0  0  0  0  0  0  0  0  0  0
  142.1470   76.6681  219.9327 H   0  0  0  0  0  0  0  0  0  0  0  0
  141.1292   76.9603  222.6701 H   0  0  0  0  0  0  0  0  0  0  0  0
  141.6005   78.6379  224.3965 H   0  0  0  0  0  0  0  0  0  0  0  0
  142.4111   81.5477  221.3868 H   0  0  0  0  0  0  0  0  0  0  0  0
  141.9398   79.8737  219.6499 H   0  0  0  0  0  0  0  0  0  0  0  0
  139.1276   69.9127  222.7298 H   0  0  0  0  0  0  0  0  0  0  0  0
  139.4089   68.0300  226.9408 H   0  0  0  0  0  0  0  0  0  0  0  0
  140.3593   68.8011  229.1342 H   0  0  0  0  0  0  0  0  0  0  0  0
  141.4232   71.0179  229.3055 H   0  0  0  0  0  0  0  0  0  0  0  0
  141.5874   72.5368  227.3516 H   0  0  0  0  0  0  0  0  0  0  0  0
  1  2  2  0
  2  3  1  0
  3  4  1  0
  4  5  1  0
  5  6  2  0
  5  7  1  0
  7  8  1  0
  8  9  1  0
  9 10  1  0
 10 11  1  0
 11 12  1  0
 12 13  2  0
 13 14  1  0
 14 15  2  0
 15 16  1  0
 15 17  1  0
 17 18  2  0
  2 19  1  0
 19 20  2  0
 20 21  1  0
 21 22  2  0
 22 23  1  0
 23 24  2  0
 24 25  1  0
 25 26  2  0
 26 27  1  0
 27 28  2  0
 11  7  1  0
 18 12  1  0
 28 19  1  0
 27 22  1  0
  3 29  1  0
  4 30  1  0
  4 31  1  0
  8 32  1  0
  8 33  1  0
  9 34  1  0
  9 35  1  0
 10 36  1  0
 10 37  1  0
 11 38  1  6
 13 39  1  0
 14 40  1  0
 17 41  1  0
 18 42  1  0
 20 43  1  0
 23 44  1  0
 24 45  1  0
 25 46  1  0
 26 47  1  0
M  END
>  <smiles>  (35) 
O=C(NCC(=O)N1CCCC1c1ccc(Cl)cc1)c1cnc2ccccc2n1

>  <score_type>  (35) 
oracle

>  <origin>  (35) 
autodockgpu

>  <m_score__min__energy>  (35) 
-8.6899999999999995

>  <m_primary>  (35) 
energy

>  <meeko>  (35) 
{"free_energy": -8.62, "intermolecular_energy": -10.11, "internal_energy": -1.08, "cluster_size": 6, "cluster_id": 1, "rank_in_cluster": 2}

>  <energy>  (35) 
-8.0

>  <cluster_rmsd>  (35) 
0.97

>  <rmsd>  (35) 
270.33

>  <cluster>  (35) 
3

$$$$

     RDKit          3D

 47 50  0  0  1  0  0  0  0  0999 V2000
  138.7790   70.5270  221.4390 O   0  0  0  0  0  0  0  0  0  0  0  0
  138.9390   71.2680  222.4430 C   0  0  0  0  0  0  0  0  0  0  0  0
  138.7010   72.6920  222.2800 N   0  0  0  0  0  0  0  0  0  0  0  0
  138.3030   73.1080  220.9760 C   0  0  0  0  0  0  0  0  0  0  0  0
  138.6490   74.4290  220.5040 C   0  0  0  0  0  0  0  0  0  0  0  0
  137.9650   74.8270  219.4660 O   0  0  0  0  0  0  0  0  0  0  0  0
  139.6010   75.3480  220.9850 N   0  0  0  0  0  0  0  0  0  0  0  0
  139.8340   75.9080  222.3000 C   0  0  0  0  0  0  0  0  0  0  0  0
  140.7790   77.0930  222.1290 C   0  0  0  0  0  0  0  0  0  0  0  0
  140.7450   77.3550  220.6290 C   0  0  0  0  0  0  0  0  0  0  0  0
  140.6550   75.9340  220.1130 C   0  0  1  0  0  0  0  0  0  0  0  0
  141.9150   75.2050  220.2620 C   0  0  0  0  0  0  0  0  0  0  0  0
  143.1220   75.8570  219.9760 C   0  0  0  0  0  0  0  0  0  0  0  0
  144.3410   75.2200  220.1060 C   0  0  0  0  0  0  0  0  0  0  0  0
  144.4340   73.9110  220.5240 C   0  0  0  0  0  0  0  0  0  0  0  0
  145.9450   73.0600  220.7050 Cl  0  0  0  0  0  0  0  0  0  0  0  0
  143.2650   73.2570  220.8080 C   0  0  0  0  0  0  0  0  0  0  0  0
  142.0380   73.8980  220.6780 C   0  0  0  0  0  0  0  0  0  0  0  0
  139.3500   70.7540  223.7430 C   0  0  0  0  0  0  0  0  0  0  0  0
  139.2010   69.4060  223.9710 C   0  0  0  0  0  0  0  0  0  0  0  0
  139.5680   68.8800  225.1630 N   0  0  0  0  0  0  0  0  0  0  0  0
  140.0810   69.6770  226.1300 C   0  0  0  0  0  0  0  0  0  0  0  0
  140.4360   69.0840  227.3230 C   0  0  0  0  0  0  0  0  0  0  0  0
  140.9620   69.9070  228.3110 C   0  0  0  0  0  0  0  0  0  0  0  0
  141.1110   71.2650  228.0770 C   0  0  0  0  0  0  0  0  0  0  0  0
  140.7550   71.8540  226.8840 C   0  0  0  0  0  0  0  0  0  0  0  0
  140.2340   71.0290  225.9100 C   0  0  0  0  0  0  0  0  0  0  0  0
  139.8620   71.5280  224.7170 N   0  0  0  0  0  0  0  0  0  0  0  0
  138.8540   73.2490  223.1190 H   0  0  0  0  0  0  0  0  0  0  0  0
  138.7419   72.3916  220.2660 H   0  0  0  0  0  0  0  0  0  0  0  0
  137.2057   73.1424  221.0446 H   0  0  0  0  0  0  0  0  0  0  0  0
  138.8835   76.2452  222.7391 H   0  0  0  0  0  0  0  0  0  0  0  0
  140.2723   75.1548  222.9713 H   0  0  0  0  0  0  0  0  0  0  0  0
  140.4192   77.9681  222.6901 H   0  0  0  0  0  0  0  0  0  0  0  0
  141.7922   76.8937  222.5082 H   0  0  0  0  0  0  0  0  0  0  0  0
  139.8668   77.9506  220.3389 H   0  0  0  0  0  0  0  0  0  0  0  0
  141.5959   77.9345  220.2415 H   0  0  0  0  0  0  0  0  0  0  0  0
  140.4329   75.8855  219.0368 H   0  0  0  0  0  0  0  0  0  0  0  0
  143.0982   76.9038  219.6390 H   0  0  0  0  0  0  0  0  0  0  0  0
  145.2619   75.7731  219.8693 H   0  0  0  0  0  0  0  0  0  0  0  0
  143.2970   72.2100  221.1437 H   0  0  0  0  0  0  0  0  0  0  0  0
  141.1238   73.3354  220.9184 H   0  0  0  0  0  0  0  0  0  0  0  0
  138.7846   68.7569  223.1866 H   0  0  0  0  0  0  0  0  0  0  0  0
  140.3080   68.0037  227.4858 H   0  0  0  0  0  0  0  0  0  0  0  0
  141.2605   69.4804  229.2800 H   0  0  0  0  0  0  0  0  0  0  0  0
  141.5295   71.8964  228.8746 H   0  0  0  0  0  0  0  0  0  0  0  0
  140.8807   72.9338  226.7159 H   0  0  0  0  0  0  0  0  0  0  0  0
  1  2  2  0
  2  3  1  0
  3  4  1  0
  4  5  1  0
  5  6  2  0
  5  7  1  0
  7  8  1  0
  8  9  1  0
  9 10  1  0
 10 11  1  0
 11 12  1  0
 12 13  2  0
 13 14  1  0
 14 15  2  0
 15 16  1  0
 15 17  1  0
 17 18  2  0
  2 19  1  0
 19 20  2  0
 20 21  1  0
 21 22  2  0
 22 23  1  0
 23 24  2  0
 24 25  1  0
 25 26  2  0
 26 27  1  0
 27 28  2  0
 11  7  1  0
 18 12  1  0
 28 19  1  0
 27 22  1  0
  3 29  1  0
  4 30  1  0
  4 31  1  0
  8 32  1  0
  8 33  1  0
  9 34  1  0
  9 35  1  0
 10 36  1  0
 10 37  1  0
 11 38  1  6
 13 39  1  0
 14 40  1  0
 17 41  1  0
 18 42  1  0
 20 43  1  0
 23 44  1  0
 24 45  1  0
 25 46  1  0
 26 47  1  0
M  END
>  <smiles>  (36) 
O=C(NCC(=O)N1CCCC1c1ccc(Cl)cc1)c1cnc2ccccc2n1

>  <score_type>  (36) 
oracle

>  <origin>  (36) 
autodockgpu

>  <m_score__min__energy>  (36) 
-8.6899999999999995

>  <m_primary>  (36) 
energy

>  <meeko>  (36) 
{"free_energy": -7.91, "intermolecular_energy": -9.4, "internal_energy": -1.56, "cluster_size": 11, "cluster_id": 3, "rank_in_cluster": 10}

>  <energy>  (36) 
-7.99

>  <cluster_rmsd>  (36) 
0.8

>  <rmsd>  (36) 
270.27

>  <cluster>  (36) 
3

$$$$

     RDKit          3D

 47 50  0  0  1  0  0  0  0  0999 V2000
  140.5060   71.6390  221.3960 O   0  0  0  0  0  0  0  0  0  0  0  0
  139.8190   71.9480  222.4020 C   0  0  0  0  0  0  0  0  0  0  0  0
  138.8630   73.0340  222.2640 N   0  0  0  0  0  0  0  0  0  0  0  0
  138.8030   73.6460  220.9790 C   0  0  0  0  0  0  0  0  0  0  0  0
  138.7780   75.0860  220.8670 C   0  0  0  0  0  0  0  0  0  0  0  0
  137.6000   75.5870  220.6090 O   0  0  0  0  0  0  0  0  0  0  0  0
  139.8170   76.0270  220.9910 N   0  0  0  0  0  0  0  0  0  0  0  0
  140.2200   76.8930  222.0800 C   0  0  0  0  0  0  0  0  0  0  0  0
  141.1910   77.9220  221.5090 C   0  0  0  0  0  0  0  0  0  0  0  0
  141.0010   77.7850  220.0050 C   0  0  0  0  0  0  0  0  0  0  0  0
  140.7910   76.2890  219.8980 C   0  0  1  0  0  0  0  0  0  0  0  0
  142.0270   75.5360  220.1140 C   0  0  0  0  0  0  0  0  0  0  0  0
  141.9540   74.2240  220.6010 C   0  0  0  0  0  0  0  0  0  0  0  0
  143.0880   73.4640  220.8170 C   0  0  0  0  0  0  0  0  0  0  0  0
  144.3500   73.9580  220.5670 C   0  0  0  0  0  0  0  0  0  0  0  0
  145.8130   73.0440  220.8220 Cl  0  0  0  0  0  0  0  0  0  0  0  0
  144.4410   75.2380  220.0920 C   0  0  0  0  0  0  0  0  0  0  0  0
  143.3000   76.0030  219.8730 C   0  0  0  0  0  0  0  0  0  0  0  0
  139.9470   71.2650  223.6830 C   0  0  0  0  0  0  0  0  0  0  0  0
  139.5610   69.9460  223.7430 C   0  0  0  0  0  0  0  0  0  0  0  0
  139.6610   69.2680  224.9100 N   0  0  0  0  0  0  0  0  0  0  0  0
  140.1390   69.8830  226.0170 C   0  0  0  0  0  0  0  0  0  0  0  0
  140.2180   69.1400  227.1760 C   0  0  0  0  0  0  0  0  0  0  0  0
  140.7090   69.7770  228.3080 C   0  0  0  0  0  0  0  0  0  0  0  0
  141.0980   71.1060  228.2430 C   0  0  0  0  0  0  0  0  0  0  0  0
  141.0180   71.8450  227.0840 C   0  0  0  0  0  0  0  0  0  0  0  0
  140.5290   71.2050  225.9660 C   0  0  0  0  0  0  0  0  0  0  0  0
  140.4200   71.8570  224.7950 N   0  0  0  0  0  0  0  0  0  0  0  0
  138.3380   73.2500  223.1100 H   0  0  0  0  0  0  0  0  0  0  0  0
  139.6846   73.2989  220.4201 H   0  0  0  0  0  0  0  0  0  0  0  0
  137.8150   73.3450  220.6006 H   0  0  0  0  0  0  0  0  0  0  0  0
  139.3401   77.4002  222.5024 H   0  0  0  0  0  0  0  0  0  0  0  0
  140.6976   76.3115  222.8824 H   0  0  0  0  0  0  0  0  0  0  0  0
  140.9344   78.9366  221.8479 H   0  0  0  0  0  0  0  0  0  0  0  0
  142.2305   77.7570  221.8286 H   0  0  0  0  0  0  0  0  0  0  0  0
  140.1231   78.3461  219.6522 H   0  0  0  0  0  0  0  0  0  0  0  0
  141.8282   78.1800  219.3970 H   0  0  0  0  0  0  0  0  0  0  0  0
  140.4473   75.9781  218.9004 H   0  0  0  0  0  0  0  0  0  0  0  0
  140.9678   73.7873  220.8171 H   0  0  0  0  0  0  0  0  0  0  0  0
  142.9804   72.4379  221.1985 H   0  0  0  0  0  0  0  0  0  0  0  0
  145.4309   75.6684  219.8802 H   0  0  0  0  0  0  0  0  0  0  0  0
  143.4199   77.0272  219.4900 H   0  0  0  0  0  0  0  0  0  0  0  0
  139.1721   69.4437  222.8449 H   0  0  0  0  0  0  0  0  0  0  0  0
  139.9049   68.0858  227.2027 H   0  0  0  0  0  0  0  0  0  0  0  0
  140.7893   69.2266  229.2570 H   0  0  0  0  0  0  0  0  0  0  0  0
  141.4855   71.5887  229.1523 H   0  0  0  0  0  0  0  0  0  0  0  0
  141.3305   72.8992  227.0520 H   0  0  0  0  0  0  0  0  0  0  0  0
  1  2  2  0
  2  3  1  0
  3  4  1  0
  4  5  1  0
  5  6  2  0
  5  7  1  0
  7  8  1  0
  8  9  1  0
  9 10  1  0
 10 11  1  0
 11 12  1  0
 12 13  2  0
 13 14  1  0
 14 15  2  0
 15 16  1  0
 15 17  1  0
 17 18  2  0
  2 19  1  0
 19 20  2  0
 20 21  1  0
 21 22  2  0
 22 23  1  0
 23 24  2  0
 24 25  1  0
 25 26  2  0
 26 27  1  0
 27 28  2  0
 11  7  1  0
 18 12  1  0
 28 19  1  0
 27 22  1  0
  3 29  1  0
  4 30  1  0
  4 31  1  0
  8 32  1  0
  8 33  1  0
  9 34  1  0
  9 35  1  0
 10 36  1  0
 10 37  1  0
 11 38  1  6
 13 39  1  0
 14 40  1  0
 17 41  1  0
 18 42  1  0
 20 43  1  0
 23 44  1  0
 24 45  1  0
 25 46  1  0
 26 47  1  0
M  END
>  <smiles>  (37) 
O=C(NCC(=O)N1CCCC1c1ccc(Cl)cc1)c1cnc2ccccc2n1

>  <score_type>  (37) 
oracle

>  <origin>  (37) 
autodockgpu

>  <m_score__min__energy>  (37) 
-8.6899999999999995

>  <m_primary>  (37) 
energy

>  <meeko>  (37) 
{"free_energy": -8.14, "intermolecular_energy": -9.63, "internal_energy": -1.42, "cluster_size": 11, "cluster_id": 3, "rank_in_cluster": 2}

>  <energy>  (37) 
-7.96

>  <cluster_rmsd>  (37) 
0.74

>  <rmsd>  (37) 
270.3

>  <cluster>  (37) 
3

$$$$

     RDKit          3D

 47 50  0  0  1  0  0  0  0  0999 V2000
  139.3290   70.6960  221.3190 O   0  0  0  0  0  0  0  0  0  0  0  0
  139.2380   71.3920  222.3620 C   0  0  0  0  0  0  0  0  0  0  0  0
  138.8120   72.7750  222.2190 N   0  0  0  0  0  0  0  0  0  0  0  0
  138.5390   73.2030  220.8880 C   0  0  0  0  0  0  0  0  0  0  0  0
  138.7460   74.5840  220.5190 C   0  0  0  0  0  0  0  0  0  0  0  0
  137.9210   75.0300  219.6100 O   0  0  0  0  0  0  0  0  0  0  0  0
  139.6920   75.5190  220.9810 N   0  0  0  0  0  0  0  0  0  0  0  0
  139.9320   76.0930  222.2890 C   0  0  0  0  0  0  0  0  0  0  0  0
  140.8610   77.2880  222.0970 C   0  0  0  0  0  0  0  0  0  0  0  0
  140.8070   77.5370  220.5970 C   0  0  0  0  0  0  0  0  0  0  0  0
  140.7290   76.1100  220.0940 C   0  0  1  0  0  0  0  0  0  0  0  0
  141.9990   75.3980  220.2360 C   0  0  0  0  0  0  0  0  0  0  0  0
  141.9940   74.0690  220.6790 C   0  0  0  0  0  0  0  0  0  0  0  0
  143.1630   73.3460  220.8250 C   0  0  0  0  0  0  0  0  0  0  0  0
  144.3950   73.8950  220.5420 C   0  0  0  0  0  0  0  0  0  0  0  0
  145.8990   73.0300  220.7080 Cl  0  0  0  0  0  0  0  0  0  0  0  0
  144.4200   75.1930  220.1080 C   0  0  0  0  0  0  0  0  0  0  0  0
  143.2430   75.9210  219.9600 C   0  0  0  0  0  0  0  0  0  0  0  0
  139.5390   70.8690  223.6880 C   0  0  0  0  0  0  0  0  0  0  0  0
  139.2890   69.5360  223.9190 C   0  0  0  0  0  0  0  0  0  0  0  0
  139.5520   69.0030  225.1350 N   0  0  0  0  0  0  0  0  0  0  0  0
  140.0610   69.7750  226.1230 C   0  0  0  0  0  0  0  0  0  0  0  0
  140.3080   69.1760  227.3390 C   0  0  0  0  0  0  0  0  0  0  0  0
  140.8310   69.9740  228.3480 C   0  0  0  0  0  0  0  0  0  0  0  0
  141.0830   71.3170  228.1110 C   0  0  0  0  0  0  0  0  0  0  0  0
  140.8350   71.9120  226.8950 C   0  0  0  0  0  0  0  0  0  0  0  0
  140.3160   71.1120  225.9000 C   0  0  0  0  0  0  0  0  0  0  0  0
  140.0460   71.6190  224.6830 N   0  0  0  0  0  0  0  0  0  0  0  0
  138.7630   73.2980  223.0920 H   0  0  0  0  0  0  0  0  0  0  0  0
  139.1726   72.5977  220.2230 H   0  0  0  0  0  0  0  0  0  0  0  0
  137.4499   73.0769  220.7991 H   0  0  0  0  0  0  0  0  0  0  0  0
  138.9822   76.4226  222.7354 H   0  0  0  0  0  0  0  0  0  0  0  0
  140.3862   75.3511  222.9623 H   0  0  0  0  0  0  0  0  0  0  0  0
  140.4972   78.1634  222.6550 H   0  0  0  0  0  0  0  0  0  0  0  0
  141.8807   77.1037  222.4660 H   0  0  0  0  0  0  0  0  0  0  0  0
  139.9183   78.1191  220.3119 H   0  0  0  0  0  0  0  0  0  0  0  0
  141.6461   78.1239  220.1951 H   0  0  0  0  0  0  0  0  0  0  0  0
  140.4963   76.0496  219.0206 H   0  0  0  0  0  0  0  0  0  0  0  0
  141.0339   73.5879  220.9171 H   0  0  0  0  0  0  0  0  0  0  0  0
  143.1085   72.3050  221.1763 H   0  0  0  0  0  0  0  0  0  0  0  0
  145.3841   75.6675  219.8728 H   0  0  0  0  0  0  0  0  0  0  0  0
  143.3092   76.9606  219.6068 H   0  0  0  0  0  0  0  0  0  0  0  0
  138.8766   68.9052  223.1178 H   0  0  0  0  0  0  0  0  0  0  0  0
  140.0993   68.1086  227.5039 H   0  0  0  0  0  0  0  0  0  0  0  0
  141.0456   69.5406  229.3360 H   0  0  0  0  0  0  0  0  0  0  0  0
  141.4966   71.9297  228.9255 H   0  0  0  0  0  0  0  0  0  0  0  0
  141.0419   72.9789  226.7248 H   0  0  0  0  0  0  0  0  0  0  0  0
  1  2  2  0
  2  3  1  0
  3  4  1  0
  4  5  1  0
  5  6  2  0
  5  7  1  0
  7  8  1  0
  8  9  1  0
  9 10  1  0
 10 11  1  0
 11 12  1  0
 12 13  2  0
 13 14  1  0
 14 15  2  0
 15 16  1  0
 15 17  1  0
 17 18  2  0
  2 19  1  0
 19 20  2  0
 20 21  1  0
 21 22  2  0
 22 23  1  0
 23 24  2  0
 24 25  1  0
 25 26  2  0
 26 27  1  0
 27 28  2  0
 11  7  1  0
 18 12  1  0
 28 19  1  0
 27 22  1  0
  3 29  1  0
  4 30  1  0
  4 31  1  0
  8 32  1  0
  8 33  1  0
  9 34  1  0
  9 35  1  0
 10 36  1  0
 10 37  1  0
 11 38  1  6
 13 39  1  0
 14 40  1  0
 17 41  1  0
 18 42  1  0
 20 43  1  0
 23 44  1  0
 24 45  1  0
 25 46  1  0
 26 47  1  0
M  END
>  <smiles>  (38) 
O=C(NCC(=O)N1CCCC1c1ccc(Cl)cc1)c1cnc2ccccc2n1

>  <score_type>  (38) 
oracle

>  <origin>  (38) 
autodockgpu

>  <m_score__min__energy>  (38) 
-8.6899999999999995

>  <m_primary>  (38) 
energy

>  <meeko>  (38) 
{"free_energy": -7.99, "intermolecular_energy": -9.49, "internal_energy": -1.51, "cluster_size": 11, "cluster_id": 3, "rank_in_cluster": 8}

>  <energy>  (38) 
-7.91

>  <cluster_rmsd>  (38) 
0.78

>  <rmsd>  (38) 
270.21

>  <cluster>  (38) 
3

$$$$

     RDKit          3D

 47 50  0  0  1  0  0  0  0  0999 V2000
  140.5510   71.5950  221.8140 O   0  0  0  0  0  0  0  0  0  0  0  0
  139.7340   71.6620  222.7680 C   0  0  0  0  0  0  0  0  0  0  0  0
  138.6870   72.6670  222.6950 N   0  0  0  0  0  0  0  0  0  0  0  0
  138.6960   73.4860  221.5290 C   0  0  0  0  0  0  0  0  0  0  0  0
  139.6000   74.6100  221.4460 C   0  0  0  0  0  0  0  0  0  0  0  0
  140.7620   74.4120  222.0080 O   0  0  0  0  0  0  0  0  0  0  0  0
  139.4260   75.8770  220.8560 N   0  0  0  0  0  0  0  0  0  0  0  0
  138.2590   76.7170  220.6840 C   0  0  0  0  0  0  0  0  0  0  0  0
  138.6260   77.8060  219.6810 C   0  0  0  0  0  0  0  0  0  0  0  0
  139.9160   77.2890  219.0590 C   0  0  0  0  0  0  0  0  0  0  0  0
  140.5570   76.6470  220.2710 C   0  0  1  0  0  0  0  0  0  0  0  0
  141.0580   77.6350  221.2260 C   0  0  0  0  0  0  0  0  0  0  0  0
  141.6500   78.8120  220.7480 C   0  0  0  0  0  0  0  0  0  0  0  0
  142.1350   79.7830  221.6040 C   0  0  0  0  0  0  0  0  0  0  0  0
  142.0620   79.6440  222.9720 C   0  0  0  0  0  0  0  0  0  0  0  0
  142.6560   80.8370  224.0970 Cl  0  0  0  0  0  0  0  0  0  0  0  0
  141.4870   78.5010  223.4590 C   0  0  0  0  0  0  0  0  0  0  0  0
  140.9990   77.5240  222.5980 C   0  0  0  0  0  0  0  0  0  0  0  0
  139.8000   70.7790  223.9250 C   0  0  0  0  0  0  0  0  0  0  0  0
  139.2300   69.5330  223.8110 C   0  0  0  0  0  0  0  0  0  0  0  0
  139.2660   68.6770  224.8580 N   0  0  0  0  0  0  0  0  0  0  0  0
  139.8610   69.0430  226.0170 C   0  0  0  0  0  0  0  0  0  0  0  0
  139.8660   68.1280  227.0480 C   0  0  0  0  0  0  0  0  0  0  0  0
  140.4790   68.5100  228.2350 C   0  0  0  0  0  0  0  0  0  0  0  0
  141.0540   69.7660  228.3470 C   0  0  0  0  0  0  0  0  0  0  0  0
  141.0470   70.6780  227.3150 C   0  0  0  0  0  0  0  0  0  0  0  0
  140.4360   70.2900  226.1410 C   0  0  0  0  0  0  0  0  0  0  0  0
  140.3880   71.1230  225.0860 N   0  0  0  0  0  0  0  0  0  0  0  0
  138.0570   72.6860  223.4950 H   0  0  0  0  0  0  0  0  0  0  0  0
  138.9286   72.8273  220.6793 H   0  0  0  0  0  0  0  0  0  0  0  0
  137.7030   73.9589  221.5429 H   0  0  0  0  0  0  0  0  0  0  0  0
  137.4188   76.1197  220.3001 H   0  0  0  0  0  0  0  0  0  0  0  0
  137.9534   77.1593  221.6437 H   0  0  0  0  0  0  0  0  0  0  0  0
  137.8403   77.9217  218.9199 H   0  0  0  0  0  0  0  0  0  0  0  0
  138.7385   78.7974  220.1440 H   0  0  0  0  0  0  0  0  0  0  0  0
  139.7196   76.5542  218.2644 H   0  0  0  0  0  0  0  0  0  0  0  0
  140.5297   78.0556  218.5632 H   0  0  0  0  0  0  0  0  0  0  0  0
  141.4365   76.0382  220.0142 H   0  0  0  0  0  0  0  0  0  0  0  0
  141.7309   78.9673  219.6620 H   0  0  0  0  0  0  0  0  0  0  0  0
  142.5911   80.6904  221.1813 H   0  0  0  0  0  0  0  0  0  0  0  0
  141.4099   78.3534  224.5463 H   0  0  0  0  0  0  0  0  0  0  0  0
  140.5450   76.6211  223.0324 H   0  0  0  0  0  0  0  0  0  0  0  0
  138.7456   69.2327  222.8702 H   0  0  0  0  0  0  0  0  0  0  0  0
  139.4037   67.1362  226.9356 H   0  0  0  0  0  0  0  0  0  0  0  0
  140.5080   67.8147  229.0869 H   0  0  0  0  0  0  0  0  0  0  0  0
  141.5343   70.0452  229.2964 H   0  0  0  0  0  0  0  0  0  0  0  0
  141.5079   71.6710  227.4223 H   0  0  0  0  0  0  0  0  0  0  0  0
  1  2  2  0
  2  3  1  0
  3  4  1  0
  4  5  1  0
  5  6  2  0
  5  7  1  0
  7  8  1  0
  8  9  1  0
  9 10  1  0
 10 11  1  0
 11 12  1  0
 12 13  2  0
 13 14  1  0
 14 15  2  0
 15 16  1  0
 15 17  1  0
 17 18  2  0
  2 19  1  0
 19 20  2  0
 20 21  1  0
 21 22  2  0
 22 23  1  0
 23 24  2  0
 24 25  1  0
 25 26  2  0
 26 27  1  0
 27 28  2  0
 11  7  1  0
 18 12  1  0
 28 19  1  0
 27 22  1  0
  3 29  1  0
  4 30  1  0
  4 31  1  0
  8 32  1  0
  8 33  1  0
  9 34  1  0
  9 35  1  0
 10 36  1  0
 10 37  1  0
 11 38  1  6
 13 39  1  0
 14 40  1  0
 17 41  1  0
 18 42  1  0
 20 43  1  0
 23 44  1  0
 24 45  1  0
 25 46  1  0
 26 47  1  0
M  END
>  <smiles>  (39) 
O=C(NCC(=O)N1CCCC1c1ccc(Cl)cc1)c1cnc2ccccc2n1

>  <score_type>  (39) 
oracle

>  <origin>  (39) 
autodockgpu

>  <m_score__min__energy>  (39) 
-8.6899999999999995

>  <m_primary>  (39) 
energy

>  <meeko>  (39) 
{"free_energy": -8.69, "intermolecular_energy": -10.19, "internal_energy": -1.1, "cluster_size": 6, "cluster_id": 1, "rank_in_cluster": 1}

>  <energy>  (39) 
-7.83

>  <cluster_rmsd>  (39) 
1.05

>  <rmsd>  (39) 
270.25

>  <cluster>  (39) 
3

$$$$

     RDKit          3D

 47 50  0  0  1  0  0  0  0  0999 V2000
  139.7030   71.1740  221.3540 O   0  0  0  0  0  0  0  0  0  0  0  0
  139.1860   71.6190  222.4100 C   0  0  0  0  0  0  0  0  0  0  0  0
  138.1890   72.6700  222.2860 N   0  0  0  0  0  0  0  0  0  0  0  0
  137.8990   73.0930  220.9570 C   0  0  0  0  0  0  0  0  0  0  0  0
  138.6140   74.2090  220.3830 C   0  0  0  0  0  0  0  0  0  0  0  0
  138.3790   74.4070  219.1140 O   0  0  0  0  0  0  0  0  0  0  0  0
  139.5190   75.1120  220.9740 N   0  0  0  0  0  0  0  0  0  0  0  0
  139.6910   75.5620  222.3400 C   0  0  0  0  0  0  0  0  0  0  0  0
  140.6000   76.7870  222.3050 C   0  0  0  0  0  0  0  0  0  0  0  0
  140.6040   77.1780  220.8340 C   0  0  0  0  0  0  0  0  0  0  0  0
  140.5790   75.8050  220.1940 C   0  0  1  0  0  0  0  0  0  0  0  0
  141.8570   75.1060  220.3230 C   0  0  0  0  0  0  0  0  0  0  0  0
  143.0430   75.7800  220.0010 C   0  0  0  0  0  0  0  0  0  0  0  0
  144.2790   75.1710  220.1110 C   0  0  0  0  0  0  0  0  0  0  0  0
  144.4100   73.8700  220.5420 C   0  0  0  0  0  0  0  0  0  0  0  0
  145.9430   73.0540  220.6990 Cl  0  0  0  0  0  0  0  0  0  0  0  0
  143.2620   73.1940  220.8610 C   0  0  0  0  0  0  0  0  0  0  0  0
  142.0180   73.8070  220.7510 C   0  0  0  0  0  0  0  0  0  0  0  0
  139.5450   71.1250  223.7320 C   0  0  0  0  0  0  0  0  0  0  0  0
  139.2640   69.8090  224.0200 C   0  0  0  0  0  0  0  0  0  0  0  0
  139.5790   69.3030  225.2350 N   0  0  0  0  0  0  0  0  0  0  0  0
  140.1690   70.0860  226.1670 C   0  0  0  0  0  0  0  0  0  0  0  0
  140.4660   69.5150  227.3860 C   0  0  0  0  0  0  0  0  0  0  0  0
  141.0720   70.3240  228.3380 C   0  0  0  0  0  0  0  0  0  0  0  0
  141.3550   71.6490  228.0450 C   0  0  0  0  0  0  0  0  0  0  0  0
  141.0570   72.2170  226.8270 C   0  0  0  0  0  0  0  0  0  0  0  0
  140.4550   71.4060  225.8880 C   0  0  0  0  0  0  0  0  0  0  0  0
  140.1330   71.8860  224.6730 N   0  0  0  0  0  0  0  0  0  0  0  0
  137.8080   73.0020  223.1700 H   0  0  0  0  0  0  0  0  0  0  0  0
  138.0805   72.2284  220.3016 H   0  0  0  0  0  0  0  0  0  0  0  0
  136.8660   73.4641  221.0291 H   0  0  0  0  0  0  0  0  0  0  0  0
  138.7160   75.8294  222.7735 H   0  0  0  0  0  0  0  0  0  0  0  0
  140.1335   74.7671  222.9583 H   0  0  0  0  0  0  0  0  0  0  0  0
  140.1929   77.5977  222.9271 H   0  0  0  0  0  0  0  0  0  0  0  0
  141.6070   76.5873  222.7001 H   0  0  0  0  0  0  0  0  0  0  0  0
  139.7155   77.7688  220.5667 H   0  0  0  0  0  0  0  0  0  0  0  0
  141.4463   77.8157  220.5274 H   0  0  0  0  0  0  0  0  0  0  0  0
  140.3929   75.8444  219.1106 H   0  0  0  0  0  0  0  0  0  0  0  0
  142.9887   76.8215  219.6514 H   0  0  0  0  0  0  0  0  0  0  0  0
  145.1820   75.7410  219.8471 H   0  0  0  0  0  0  0  0  0  0  0  0
  143.3246   72.1523  221.2088 H   0  0  0  0  0  0  0  0  0  0  0  0
  141.1220   73.2276  221.0182 H   0  0  0  0  0  0  0  0  0  0  0  0
  138.7844   69.1697  223.2642 H   0  0  0  0  0  0  0  0  0  0  0  0
  140.2323   68.4608  227.5961 H   0  0  0  0  0  0  0  0  0  0  0  0
  141.3278   69.9130  229.3258 H   0  0  0  0  0  0  0  0  0  0  0  0
  141.8359   72.2701  228.8150 H   0  0  0  0  0  0  0  0  0  0  0  0
  141.2887   73.2707  226.6123 H   0  0  0  0  0  0  0  0  0  0  0  0
  1  2  2  0
  2  3  1  0
  3  4  1  0
  4  5  1  0
  5  6  2  0
  5  7  1  0
  7  8  1  0
  8  9  1  0
  9 10  1  0
 10 11  1  0
 11 12  1  0
 12 13  2  0
 13 14  1  0
 14 15  2  0
 15 16  1  0
 15 17  1  0
 17 18  2  0
  2 19  1  0
 19 20  2  0
 20 21  1  0
 21 22  2  0
 22 23  1  0
 23 24  2  0
 24 25  1  0
 25 26  2  0
 26 27  1  0
 27 28  2  0
 11  7  1  0
 18 12  1  0
 28 19  1  0
 27 22  1  0
  3 29  1  0
  4 30  1  0
  4 31  1  0
  8 32  1  0
  8 33  1  0
  9 34  1  0
  9 35  1  0
 10 36  1  0
 10 37  1  0
 11 38  1  6
 13 39  1  0
 14 40  1  0
 17 41  1  0
 18 42  1  0
 20 43  1  0
 23 44  1  0
 24 45  1  0
 25 46  1  0
 26 47  1  0
M  END
>  <smiles>  (40) 
O=C(NCC(=O)N1CCCC1c1ccc(Cl)cc1)c1cnc2ccccc2n1

>  <score_type>  (40) 
oracle

>  <origin>  (40) 
autodockgpu

>  <m_score__min__energy>  (40) 
-8.6899999999999995

>  <m_primary>  (40) 
energy

>  <meeko>  (40) 
{"free_energy": -7.83, "intermolecular_energy": -9.32, "internal_energy": -1.62, "cluster_size": 11, "cluster_id": 3, "rank_in_cluster": 11}

>  <energy>  (40) 
-6.79

>  <cluster_rmsd>  (40) 
0.0

>  <rmsd>  (40) 
270.38

>  <cluster>  (40) 
4

$$$$
