
     RDKit          3D

 42 43  0  0  0  0  0  0  0  0999 V2000
  141.2210   73.5370  221.1800 O   0  0  0  0  0  0  0  0  0  0  0  0
  140.1520   73.5390  221.8320 C   0  0  0  0  0  0  0  0  0  0  0  0
  139.3540   72.3520  222.1750 C   0  0  0  0  0  0  0  0  0  0  0  0
  140.1050   71.2540  222.8540 C   0  0  0  0  0  0  0  0  0  0  0  0
  140.5600   71.6300  224.2440 C   0  0  0  0  0  0  0  0  0  0  0  0
  139.6200   71.1460  225.1890 O   0  0  0  0  0  0  0  0  0  0  0  0
  139.9780   70.1130  226.0420 C   0  0  0  0  0  0  0  0  0  0  0  0
  139.6610   68.8020  225.7340 C   0  0  0  0  0  0  0  0  0  0  0  0
  138.8020   68.4170  224.2680 Cl  0  0  0  0  0  0  0  0  0  0  0  0
  140.0560   67.8240  226.6400 C   0  0  0  0  0  0  0  0  0  0  0  0
  140.7340   68.1330  227.7960 C   0  0  0  0  0  0  0  0  0  0  0  0
  141.0440   69.4350  228.0920 C   0  0  0  0  0  0  0  0  0  0  0  0
  140.6630   70.4330  227.2080 C   0  0  0  0  0  0  0  0  0  0  0  0
  141.0690   72.1070  227.5990 Cl  0  0  0  0  0  0  0  0  0  0  0  0
  139.6760   74.8070  222.2780 N   0  0  0  0  0  0  0  0  0  0  0  0
  140.4470   75.9660  221.9480 C   0  0  0  0  0  0  0  0  0  0  0  0
  139.8460   77.2750  222.3400 C   0  0  0  0  0  0  0  0  0  0  0  0
  140.8210   78.3470  222.5330 C   0  0  0  0  0  0  0  0  0  0  0  0
  141.3760   78.7160  223.7340 C   0  0  0  0  0  0  0  0  0  0  0  0
  142.2940   79.7340  223.8680 C   0  0  0  0  0  0  0  0  0  0  0  0
  142.7020   80.4410  222.7560 C   0  0  0  0  0  0  0  0  0  0  0  0
  142.1710   80.1020  221.5480 C   0  0  0  0  0  0  0  0  0  0  0  0
  141.2460   79.0750  221.4160 C   0  0  0  0  0  0  0  0  0  0  0  0
  138.5400   72.6708  222.8427 H   0  0  0  0  0  0  0  0  0  0  0  0
  139.0019   71.9351  221.2199 H   0  0  0  0  0  0  0  0  0  0  0  0
  139.4512   70.3722  222.9245 H   0  0  0  0  0  0  0  0  0  0  0  0
  141.0044   71.0478  222.2552 H   0  0  0  0  0  0  0  0  0  0  0  0
  141.5450   71.1823  224.4424 H   0  0  0  0  0  0  0  0  0  0  0  0
  140.6354   72.7244  224.3249 H   0  0  0  0  0  0  0  0  0  0  0  0
  139.8191   66.7714  226.4257 H   0  0  0  0  0  0  0  0  0  0  0  0
  141.0294   67.3302  228.4875 H   0  0  0  0  0  0  0  0  0  0  0  0
  141.5864   69.6841  229.0160 H   0  0  0  0  0  0  0  0  0  0  0  0
  138.7890   74.8550  222.8240 H   0  0  0  0  0  0  0  0  0  0  0  0
  141.4220   75.8777  222.4497 H   0  0  0  0  0  0  0  0  0  0  0  0
  140.5109   75.9816  220.8500 H   0  0  0  0  0  0  0  0  0  0  0  0
  139.1455   77.5836  221.5500 H   0  0  0  0  0  0  0  0  0  0  0  0
  139.3514   77.1185  223.3100 H   0  0  0  0  0  0  0  0  0  0  0  0
  141.0707   78.1687  224.6380 H   0  0  0  0  0  0  0  0  0  0  0  0
  142.7008   79.9826  224.8593 H   0  0  0  0  0  0  0  0  0  0  0  0
  143.4358   81.2560  222.8422 H   0  0  0  0  0  0  0  0  0  0  0  0
  142.4840   80.6577  220.6518 H   0  0  0  0  0  0  0  0  0  0  0  0
  140.8427   78.8308  220.4222 H   0  0  0  0  0  0  0  0  0  0  0  0
  1  2  2  0
  2  3  1  0
  3  4  1  0
  4  5  1  0
  5  6  1  0
  6  7  1  0
  7  8  2  0
  8  9  1  0
  8 10  1  0
 10 11  2  0
 11 12  1  0
 12 13  2  0
 13 14  1  0
  2 15  1  0
 15 16  1  0
 16 17  1  0
 17 18  1  0
 18 19  2  0
 19 20  1  0
 20 21  2  0
 21 22  1  0
 22 23  2  0
 13  7  1  0
 23 18  1  0
  3 24  1  0
  3 25  1  0
  4 26  1  0
  4 27  1  0
  5 28  1  0
  5 29  1  0
 10 30  1  0
 11 31  1  0
 12 32  1  0
 15 33  1  0
 16 34  1  0
 16 35  1  0
 17 36  1  0
 17 37  1  0
 19 38  1  0
 20 39  1  0
 21 40  1  0
 22 41  1  0
 23 42  1  0
M  END
>  <smiles>  (1) 
O=C(CCCOc1c(Cl)cccc1Cl)NCCc1ccccc1

>  <score_type>  (1) 
oracle

>  <origin>  (1) 
autodockgpu

>  <m_score__min__energy>  (1) 
-7.8600000000000003

>  <m_primary>  (1) 
energy

>  <meeko>  (1) 
{"free_energy": -7.86, "intermolecular_energy": -10.24, "internal_energy": -0.74, "cluster_size": 7, "cluster_id": 1, "rank_in_cluster": 1}

>  <energy>  (1) 
-7.86

>  <cluster_rmsd>  (1) 
0.0

>  <rmsd>  (1) 
272.43

>  <cluster>  (1) 
1

$$$$

     RDKit          3D

 42 43  0  0  0  0  0  0  0  0999 V2000
  138.3420   68.9330  223.7230 O   0  0  0  0  0  0  0  0  0  0  0  0
  137.6450   69.8570  224.2010 C   0  0  0  0  0  0  0  0  0  0  0  0
  136.2840   69.7130  224.7430 C   0  0  0  0  0  0  0  0  0  0  0  0
  135.1910   70.2280  223.8660 C   0  0  0  0  0  0  0  0  0  0  0  0
  135.2510   71.7260  223.6780 C   0  0  0  0  0  0  0  0  0  0  0  0
  135.5620   72.3400  224.9180 O   0  0  0  0  0  0  0  0  0  0  0  0
  134.5900   73.0730  225.5800 C   0  0  0  0  0  0  0  0  0  0  0  0
  133.7770   72.4740  226.5260 C   0  0  0  0  0  0  0  0  0  0  0  0
  133.9530   70.7830  226.9050 Cl  0  0  0  0  0  0  0  0  0  0  0  0
  132.8270   73.2770  227.1460 C   0  0  0  0  0  0  0  0  0  0  0  0
  132.6910   74.6120  226.8430 C   0  0  0  0  0  0  0  0  0  0  0  0
  133.5020   75.1960  225.9050 C   0  0  0  0  0  0  0  0  0  0  0  0
  134.4590   74.4210  225.2690 C   0  0  0  0  0  0  0  0  0  0  0  0
  135.4980   75.1850  224.0630 Cl  0  0  0  0  0  0  0  0  0  0  0  0
  138.2290   71.1570  224.2190 N   0  0  0  0  0  0  0  0  0  0  0  0
  139.5520   71.3040  223.6940 C   0  0  0  0  0  0  0  0  0  0  0  0
  140.6280   71.5190  224.7050 C   0  0  0  0  0  0  0  0  0  0  0  0
  140.4710   70.7280  225.9240 C   0  0  0  0  0  0  0  0  0  0  0  0
  140.4470   69.3570  225.9900 C   0  0  0  0  0  0  0  0  0  0  0  0
  140.2970   68.6520  227.1640 C   0  0  0  0  0  0  0  0  0  0  0  0
  140.1640   69.3280  228.3580 C   0  0  0  0  0  0  0  0  0  0  0  0
  140.1840   70.6910  228.3300 C   0  0  0  0  0  0  0  0  0  0  0  0
  140.3340   71.3980  227.1450 C   0  0  0  0  0  0  0  0  0  0  0  0
  136.1007   68.6432  224.9220 H   0  0  0  0  0  0  0  0  0  0  0  0
  136.2541   70.3238  225.6573 H   0  0  0  0  0  0  0  0  0  0  0  0
  135.2739   69.7461  222.8807 H   0  0  0  0  0  0  0  0  0  0  0  0
  134.2341   69.9926  224.3548 H   0  0  0  0  0  0  0  0  0  0  0  0
  136.0283   71.9732  222.9400 H   0  0  0  0  0  0  0  0  0  0  0  0
  134.2782   72.0923  223.3181 H   0  0  0  0  0  0  0  0  0  0  0  0
  132.1637   72.8315  227.9020 H   0  0  0  0  0  0  0  0  0  0  0  0
  131.9270   75.2142  227.3565 H   0  0  0  0  0  0  0  0  0  0  0  0
  133.3950   76.2632  225.6608 H   0  0  0  0  0  0  0  0  0  0  0  0
  137.6840   71.9560  224.6090 H   0  0  0  0  0  0  0  0  0  0  0  0
  139.7953   70.3915  223.1300 H   0  0  0  0  0  0  0  0  0  0  0  0
  139.5314   72.2157  223.0789 H   0  0  0  0  0  0  0  0  0  0  0  0
  141.5917   71.2557  224.2446 H   0  0  0  0  0  0  0  0  0  0  0  0
  140.5737   72.5760  225.0047 H   0  0  0  0  0  0  0  0  0  0  0  0
  140.5535   68.7899  225.0535 H   0  0  0  0  0  0  0  0  0  0  0  0
  140.2834   67.5522  227.1487 H   0  0  0  0  0  0  0  0  0  0  0  0
  140.0451   68.7833  229.3063 H   0  0  0  0  0  0  0  0  0  0  0  0
  140.0782   71.2463  229.2736 H   0  0  0  0  0  0  0  0  0  0  0  0
  140.3453   72.4977  227.1659 H   0  0  0  0  0  0  0  0  0  0  0  0
  1  2  2  0
  2  3  1  0
  3  4  1  0
  4  5  1  0
  5  6  1  0
  6  7  1  0
  7  8  2  0
  8  9  1  0
  8 10  1  0
 10 11  2  0
 11 12  1  0
 12 13  2  0
 13 14  1  0
  2 15  1  0
 15 16  1  0
 16 17  1  0
 17 18  1  0
 18 19  2  0
 19 20  1  0
 20 21  2  0
 21 22  1  0
 22 23  2  0
 13  7  1  0
 23 18  1  0
  3 24  1  0
  3 25  1  0
  4 26  1  0
  4 27  1  0
  5 28  1  0
  5 29  1  0
 10 30  1  0
 11 31  1  0
 12 32  1  0
 15 33  1  0
 16 34  1  0
 16 35  1  0
 17 36  1  0
 17 37  1  0
 19 38  1  0
 20 39  1  0
 21 40  1  0
 22 41  1  0
 23 42  1  0
M  END
>  <smiles>  (2) 
O=C(CCCOc1c(Cl)cccc1Cl)NCCc1ccccc1

>  <score_type>  (2) 
oracle

>  <origin>  (2) 
autodockgpu

>  <m_score__min__energy>  (2) 
-7.8600000000000003

>  <m_primary>  (2) 
energy

>  <meeko>  (2) 
{"free_energy": -5.98, "intermolecular_energy": -8.36, "internal_energy": -1.96, "cluster_size": 2, "cluster_id": 4, "rank_in_cluster": 2}

>  <energy>  (2) 
-7.74

>  <cluster_rmsd>  (2) 
1.13

>  <rmsd>  (2) 
272.57

>  <cluster>  (2) 
1

$$$$

     RDKit          3D

 42 43  0  0  0  0  0  0  0  0999 V2000
  137.4230   70.3810  224.6010 O   0  0  0  0  0  0  0  0  0  0  0  0
  138.3600   70.2050  223.7890 C   0  0  0  0  0  0  0  0  0  0  0  0
  138.6420   71.0380  222.6090 C   0  0  0  0  0  0  0  0  0  0  0  0
  139.9790   71.7050  222.6050 C   0  0  0  0  0  0  0  0  0  0  0  0
  140.0400   72.8840  221.6640 C   0  0  0  0  0  0  0  0  0  0  0  0
  140.9650   73.8340  222.1660 O   0  0  0  0  0  0  0  0  0  0  0  0
  141.4450   74.8300  221.3300 C   0  0  0  0  0  0  0  0  0  0  0  0
  140.8530   76.0800  221.3100 C   0  0  0  0  0  0  0  0  0  0  0  0
  139.4890   76.4330  222.3350 Cl  0  0  0  0  0  0  0  0  0  0  0  0
  141.3930   77.0240  220.4450 C   0  0  0  0  0  0  0  0  0  0  0  0
  142.4700   76.7420  219.6370 C   0  0  0  0  0  0  0  0  0  0  0  0
  143.0490   75.5000  219.6640 C   0  0  0  0  0  0  0  0  0  0  0  0
  142.5330   74.5370  220.5170 C   0  0  0  0  0  0  0  0  0  0  0  0
  143.2890   72.9400  220.5430 Cl  0  0  0  0  0  0  0  0  0  0  0  0
  139.2250   69.0990  224.0380 N   0  0  0  0  0  0  0  0  0  0  0  0
  138.9570   68.2840  225.1830 C   0  0  0  0  0  0  0  0  0  0  0  0
  139.9850   68.3310  226.2640 C   0  0  0  0  0  0  0  0  0  0  0  0
  140.3790   69.6830  226.6570 C   0  0  0  0  0  0  0  0  0  0  0  0
  141.1270   70.5510  225.9000 C   0  0  0  0  0  0  0  0  0  0  0  0
  141.4730   71.8180  226.3120 C   0  0  0  0  0  0  0  0  0  0  0  0
  141.0610   72.2760  227.5460 C   0  0  0  0  0  0  0  0  0  0  0  0
  140.3170   71.4410  228.3250 C   0  0  0  0  0  0  0  0  0  0  0  0
  139.9700   70.1630  227.9070 C   0  0  0  0  0  0  0  0  0  0  0  0
  138.5790   70.3971  221.7172 H   0  0  0  0  0  0  0  0  0  0  0  0
  137.8974   71.8476  222.6223 H   0  0  0  0  0  0  0  0  0  0  0  0
  140.1999   72.0562  223.6237 H   0  0  0  0  0  0  0  0  0  0  0  0
  140.7174   70.9663  222.2598 H   0  0  0  0  0  0  0  0  0  0  0  0
  140.3647   72.5444  220.6694 H   0  0  0  0  0  0  0  0  0  0  0  0
  139.0443   73.3445  221.5837 H   0  0  0  0  0  0  0  0  0  0  0  0
  140.9453   78.0280  220.4052 H   0  0  0  0  0  0  0  0  0  0  0  0
  142.8685   77.5171  218.9659 H   0  0  0  0  0  0  0  0  0  0  0  0
  143.9099   75.2710  219.0187 H   0  0  0  0  0  0  0  0  0  0  0  0
  140.0190   68.9150  223.3870 H   0  0  0  0  0  0  0  0  0  0  0  0
  137.9985   68.6099  225.6133 H   0  0  0  0  0  0  0  0  0  0  0  0
  138.9515   67.2462  224.8185 H   0  0  0  0  0  0  0  0  0  0  0  0
  139.5790   67.8189  227.1488 H   0  0  0  0  0  0  0  0  0  0  0  0
  140.8861   67.8421  225.8652 H   0  0  0  0  0  0  0  0  0  0  0  0
  141.4685   70.2152  224.9097 H   0  0  0  0  0  0  0  0  0  0  0  0
  142.0771   72.4642  225.6581 H   0  0  0  0  0  0  0  0  0  0  0  0
  141.3253   73.2863  227.8916 H   0  0  0  0  0  0  0  0  0  0  0  0
  139.9818   71.7894  229.3131 H   0  0  0  0  0  0  0  0  0  0  0  0
  139.3670   69.5205  228.5654 H   0  0  0  0  0  0  0  0  0  0  0  0
  1  2  2  0
  2  3  1  0
  3  4  1  0
  4  5  1  0
  5  6  1  0
  6  7  1  0
  7  8  2  0
  8  9  1  0
  8 10  1  0
 10 11  2  0
 11 12  1  0
 12 13  2  0
 13 14  1  0
  2 15  1  0
 15 16  1  0
 16 17  1  0
 17 18  1  0
 18 19  2  0
 19 20  1  0
 20 21  2  0
 21 22  1  0
 22 23  2  0
 13  7  1  0
 23 18  1  0
  3 24  1  0
  3 25  1  0
  4 26  1  0
  4 27  1  0
  5 28  1  0
  5 29  1  0
 10 30  1  0
 11 31  1  0
 12 32  1  0
 15 33  1  0
 16 34  1  0
 16 35  1  0
 17 36  1  0
 17 37  1  0
 19 38  1  0
 20 39  1  0
 21 40  1  0
 22 41  1  0
 23 42  1  0
M  END
>  <smiles>  (3) 
O=C(CCCOc1c(Cl)cccc1Cl)NCCc1ccccc1

>  <score_type>  (3) 
oracle

>  <origin>  (3) 
autodockgpu

>  <m_score__min__energy>  (3) 
-7.8600000000000003

>  <m_primary>  (3) 
energy

>  <meeko>  (3) 
{"free_energy": -6.86, "intermolecular_energy": -9.24, "internal_energy": -1.13, "cluster_size": 9, "cluster_id": 3, "rank_in_cluster": 2}

>  <energy>  (3) 
-7.67

>  <cluster_rmsd>  (3) 
0.77

>  <rmsd>  (3) 
272.37

>  <cluster>  (3) 
1

$$$$

     RDKit          3D

 42 43  0  0  0  0  0  0  0  0999 V2000
  138.4160   70.7630  221.7050 O   0  0  0  0  0  0  0  0  0  0  0  0
  138.4740   71.9530  222.0920 C   0  0  0  0  0  0  0  0  0  0  0  0
  137.5550   73.0310  221.6950 C   0  0  0  0  0  0  0  0  0  0  0  0
  138.1980   74.2000  221.0230 C   0  0  0  0  0  0  0  0  0  0  0  0
  138.6700   75.2490  222.0030 C   0  0  0  0  0  0  0  0  0  0  0  0
  140.0510   75.0560  222.2610 O   0  0  0  0  0  0  0  0  0  0  0  0
  140.9900   75.6010  221.4000 C   0  0  0  0  0  0  0  0  0  0  0  0
  141.7930   74.7850  220.6230 C   0  0  0  0  0  0  0  0  0  0  0  0
  141.6440   73.0510  220.7110 Cl  0  0  0  0  0  0  0  0  0  0  0  0
  142.7100   75.4080  219.7840 C   0  0  0  0  0  0  0  0  0  0  0  0
  142.8240   76.7780  219.7190 C   0  0  0  0  0  0  0  0  0  0  0  0
  142.0240   77.5780  220.4920 C   0  0  0  0  0  0  0  0  0  0  0  0
  141.1000   76.9850  221.3390 C   0  0  0  0  0  0  0  0  0  0  0  0
  140.0740   78.0270  222.3300 Cl  0  0  0  0  0  0  0  0  0  0  0  0
  139.5250   72.2810  222.9990 N   0  0  0  0  0  0  0  0  0  0  0  0
  140.4220   71.2370  223.3890 C   0  0  0  0  0  0  0  0  0  0  0  0
  139.9210   70.3190  224.4540 C   0  0  0  0  0  0  0  0  0  0  0  0
  140.2930   70.7160  225.8110 C   0  0  0  0  0  0  0  0  0  0  0  0
  139.9430   70.0550  226.9620 C   0  0  0  0  0  0  0  0  0  0  0  0
  140.3190   70.4660  228.2220 C   0  0  0  0  0  0  0  0  0  0  0  0
  141.0910   71.5990  228.3720 C   0  0  0  0  0  0  0  0  0  0  0  0
  141.4560   72.2810  227.2510 C   0  0  0  0  0  0  0  0  0  0  0  0
  141.0760   71.8640  225.9820 C   0  0  0  0  0  0  0  0  0  0  0  0
  136.8120   72.6072  221.0033 H   0  0  0  0  0  0  0  0  0  0  0  0
  137.1174   73.4176  222.6272 H   0  0  0  0  0  0  0  0  0  0  0  0
  139.0638   73.8421  220.4465 H   0  0  0  0  0  0  0  0  0  0  0  0
  137.4424   74.6673  220.3744 H   0  0  0  0  0  0  0  0  0  0  0  0
  138.5117   76.2501  221.5755 H   0  0  0  0  0  0  0  0  0  0  0  0
  138.1023   75.1615  222.9411 H   0  0  0  0  0  0  0  0  0  0  0  0
  143.3638   74.7875  219.1535 H   0  0  0  0  0  0  0  0  0  0  0  0
  143.5619   77.2336  219.0423 H   0  0  0  0  0  0  0  0  0  0  0  0
  142.1133   78.6732  220.4415 H   0  0  0  0  0  0  0  0  0  0  0  0
  139.6110   73.2600  223.3470 H   0  0  0  0  0  0  0  0  0  0  0  0
  140.6443   70.6317  222.4978 H   0  0  0  0  0  0  0  0  0  0  0  0
  141.3017   71.7408  223.8161 H   0  0  0  0  0  0  0  0  0  0  0  0
  138.8232   70.2862  224.3928 H   0  0  0  0  0  0  0  0  0  0  0  0
  140.3874   69.3395  224.2721 H   0  0  0  0  0  0  0  0  0  0  0  0
  139.3284   69.1470  226.8734 H   0  0  0  0  0  0  0  0  0  0  0  0
  140.0043   69.8921  229.1061 H   0  0  0  0  0  0  0  0  0  0  0  0
  141.4033   71.9423  229.3693 H   0  0  0  0  0  0  0  0  0  0  0  0
  142.0694   73.1883  227.3537 H   0  0  0  0  0  0  0  0  0  0  0  0
  141.3937   72.4419  225.1016 H   0  0  0  0  0  0  0  0  0  0  0  0
  1  2  2  0
  2  3  1  0
  3  4  1  0
  4  5  1  0
  5  6  1  0
  6  7  1  0
  7  8  2  0
  8  9  1  0
  8 10  1  0
 10 11  2  0
 11 12  1  0
 12 13  2  0
 13 14  1  0
  2 15  1  0
 15 16  1  0
 16 17  1  0
 17 18  1  0
 18 19  2  0
 19 20  1  0
 20 21  2  0
 21 22  1  0
 22 23  2  0
 13  7  1  0
 23 18  1  0
  3 24  1  0
  3 25  1  0
  4 26  1  0
  4 27  1  0
  5 28  1  0
  5 29  1  0
 10 30  1  0
 11 31  1  0
 12 32  1  0
 15 33  1  0
 16 34  1  0
 16 35  1  0
 17 36  1  0
 17 37  1  0
 19 38  1  0
 20 39  1  0
 21 40  1  0
 22 41  1  0
 23 42  1  0
M  END
>  <smiles>  (4) 
O=C(CCCOc1c(Cl)cccc1Cl)NCCc1ccccc1

>  <score_type>  (4) 
oracle

>  <origin>  (4) 
autodockgpu

>  <m_score__min__energy>  (4) 
-7.8600000000000003

>  <m_primary>  (4) 
energy

>  <meeko>  (4) 
{"free_energy": -6.5, "intermolecular_energy": -8.88, "internal_energy": -1.8, "cluster_size": 9, "cluster_id": 3, "rank_in_cluster": 4}

>  <energy>  (4) 
-7.66

>  <cluster_rmsd>  (4) 
1.23

>  <rmsd>  (4) 
272.57

>  <cluster>  (4) 
1

$$$$

     RDKit          3D

 42 43  0  0  0  0  0  0  0  0999 V2000
  139.3900   70.1760  222.4280 O   0  0  0  0  0  0  0  0  0  0  0  0
  139.1330   71.4010  222.4560 C   0  0  0  0  0  0  0  0  0  0  0  0
  138.2040   72.1050  221.5580 C   0  0  0  0  0  0  0  0  0  0  0  0
  137.8030   73.4730  222.0010 C   0  0  0  0  0  0  0  0  0  0  0  0
  138.6440   74.5600  221.3720 C   0  0  0  0  0  0  0  0  0  0  0  0
  139.9390   74.5390  221.9480 O   0  0  0  0  0  0  0  0  0  0  0  0
  141.0060   75.0860  221.2510 C   0  0  0  0  0  0  0  0  0  0  0  0
  141.9640   74.2710  220.6750 C   0  0  0  0  0  0  0  0  0  0  0  0
  141.8550   72.5380  220.8120 Cl  0  0  0  0  0  0  0  0  0  0  0  0
  143.0020   74.8970  219.9940 C   0  0  0  0  0  0  0  0  0  0  0  0
  143.0850   76.2660  219.8890 C   0  0  0  0  0  0  0  0  0  0  0  0
  142.1300   77.0640  220.4630 C   0  0  0  0  0  0  0  0  0  0  0  0
  141.0820   76.4690  221.1500 C   0  0  0  0  0  0  0  0  0  0  0  0
  139.8580   77.5090  221.8850 Cl  0  0  0  0  0  0  0  0  0  0  0  0
  139.8040   72.1740  223.4490 N   0  0  0  0  0  0  0  0  0  0  0  0
  140.7080   71.4970  224.3270 C   0  0  0  0  0  0  0  0  0  0  0  0
  140.3330   71.5020  225.7710 C   0  0  0  0  0  0  0  0  0  0  0  0
  140.5420   70.2240  226.4490 C   0  0  0  0  0  0  0  0  0  0  0  0
  140.4890   68.9870  225.8550 C   0  0  0  0  0  0  0  0  0  0  0  0
  140.6940   67.8060  226.5350 C   0  0  0  0  0  0  0  0  0  0  0  0
  140.9720   67.8310  227.8850 C   0  0  0  0  0  0  0  0  0  0  0  0
  141.0320   69.0420  228.5070 C   0  0  0  0  0  0  0  0  0  0  0  0
  140.8240   70.2300  227.8190 C   0  0  0  0  0  0  0  0  0  0  0  0
  138.6853   72.1941  220.5729 H   0  0  0  0  0  0  0  0  0  0  0  0
  137.2811   71.5066  221.5447 H   0  0  0  0  0  0  0  0  0  0  0  0
  136.7510   73.6380  221.7251 H   0  0  0  0  0  0  0  0  0  0  0  0
  137.9513   73.5264  223.0897 H   0  0  0  0  0  0  0  0  0  0  0  0
  138.7203   74.3857  220.2886 H   0  0  0  0  0  0  0  0  0  0  0  0
  138.1759   75.5394  221.5502 H   0  0  0  0  0  0  0  0  0  0  0  0
  143.7810   74.2783  219.5246 H   0  0  0  0  0  0  0  0  0  0  0  0
  143.9225   76.7228  219.3413 H   0  0  0  0  0  0  0  0  0  0  0  0
  142.1935   78.1590  220.3802 H   0  0  0  0  0  0  0  0  0  0  0  0
  139.6190   73.1990  223.5090 H   0  0  0  0  0  0  0  0  0  0  0  0
  140.7765   70.4492  223.9992 H   0  0  0  0  0  0  0  0  0  0  0  0
  141.6580   72.0477  224.2620 H   0  0  0  0  0  0  0  0  0  0  0  0
  140.9373   72.2662  226.2816 H   0  0  0  0  0  0  0  0  0  0  0  0
  139.2540   71.7111  225.8165 H   0  0  0  0  0  0  0  0  0  0  0  0
  140.2711   68.9360  224.7780 H   0  0  0  0  0  0  0  0  0  0  0  0
  140.6359   66.8456  226.0018 H   0  0  0  0  0  0  0  0  0  0  0  0
  141.1407   66.8992  228.4447 H   0  0  0  0  0  0  0  0  0  0  0  0
  141.2513   69.0794  229.5843 H   0  0  0  0  0  0  0  0  0  0  0  0
  140.8817   71.1873  228.3578 H   0  0  0  0  0  0  0  0  0  0  0  0
  1  2  2  0
  2  3  1  0
  3  4  1  0
  4  5  1  0
  5  6  1  0
  6  7  1  0
  7  8  2  0
  8  9  1  0
  8 10  1  0
 10 11  2  0
 11 12  1  0
 12 13  2  0
 13 14  1  0
  2 15  1  0
 15 16  1  0
 16 17  1  0
 17 18  1  0
 18 19  2  0
 19 20  1  0
 20 21  2  0
 21 22  1  0
 22 23  2  0
 13  7  1  0
 23 18  1  0
  3 24  1  0
  3 25  1  0
  4 26  1  0
  4 27  1  0
  5 28  1  0
  5 29  1  0
 10 30  1  0
 11 31  1  0
 12 32  1  0
 15 33  1  0
 16 34  1  0
 16 35  1  0
 17 36  1  0
 17 37  1  0
 19 38  1  0
 20 39  1  0
 21 40  1  0
 22 41  1  0
 23 42  1  0
M  END
>  <smiles>  (5) 
O=C(CCCOc1c(Cl)cccc1Cl)NCCc1ccccc1

>  <score_type>  (5) 
oracle

>  <origin>  (5) 
autodockgpu

>  <m_score__min__energy>  (5) 
-7.8600000000000003

>  <m_primary>  (5) 
energy

>  <meeko>  (5) 
{"free_energy": -6.26, "intermolecular_energy": -8.65, "internal_energy": -1.78, "cluster_size": 9, "cluster_id": 3, "rank_in_cluster": 6}

>  <energy>  (5) 
-7.65

>  <cluster_rmsd>  (5) 
0.7

>  <rmsd>  (5) 
272.4

>  <cluster>  (5) 
1

$$$$

     RDKit          3D

 42 43  0  0  0  0  0  0  0  0999 V2000
  141.5430   73.8350  221.0500 O   0  0  0  0  0  0  0  0  0  0  0  0
  140.4560   73.5670  221.6120 C   0  0  0  0  0  0  0  0  0  0  0  0
  139.8380   72.2340  221.6940 C   0  0  0  0  0  0  0  0  0  0  0  0
  139.2040   71.9060  223.0050 C   0  0  0  0  0  0  0  0  0  0  0  0
  140.2090   71.4770  224.0480 C   0  0  0  0  0  0  0  0  0  0  0  0
  139.5380   71.2460  225.2750 O   0  0  0  0  0  0  0  0  0  0  0  0
  139.9720   70.2300  226.1120 C   0  0  0  0  0  0  0  0  0  0  0  0
  140.6940   70.5180  227.2560 C   0  0  0  0  0  0  0  0  0  0  0  0
  141.0760   72.1660  227.6730 Cl  0  0  0  0  0  0  0  0  0  0  0  0
  141.0930   69.4440  228.0420 C   0  0  0  0  0  0  0  0  0  0  0  0
  140.7900   68.1440  227.7090 C   0  0  0  0  0  0  0  0  0  0  0  0
  140.0740   67.8680  226.5730 C   0  0  0  0  0  0  0  0  0  0  0  0
  139.6620   68.9200  225.7680 C   0  0  0  0  0  0  0  0  0  0  0  0
  138.7390   68.5520  224.3080 Cl  0  0  0  0  0  0  0  0  0  0  0  0
  139.7660   74.6540  222.2250 N   0  0  0  0  0  0  0  0  0  0  0  0
  140.3620   75.9520  222.1500 C   0  0  0  0  0  0  0  0  0  0  0  0
  139.4300   77.1020  222.3450 C   0  0  0  0  0  0  0  0  0  0  0  0
  140.0820   78.3290  222.7990 C   0  0  0  0  0  0  0  0  0  0  0  0
  139.4510   79.5230  223.0520 C   0  0  0  0  0  0  0  0  0  0  0  0
  140.1070   80.6560  223.4810 C   0  0  0  0  0  0  0  0  0  0  0  0
  141.4720   80.6250  223.6790 C   0  0  0  0  0  0  0  0  0  0  0  0
  142.1300   79.4570  223.4360 C   0  0  0  0  0  0  0  0  0  0  0  0
  141.4660   78.3170  223.0040 C   0  0  0  0  0  0  0  0  0  0  0  0
  139.0631   72.1699  220.9159 H   0  0  0  0  0  0  0  0  0  0  0  0
  140.6556   71.5102  221.5612 H   0  0  0  0  0  0  0  0  0  0  0  0
  138.6743   72.7973  223.3724 H   0  0  0  0  0  0  0  0  0  0  0  0
  138.5166   71.0633  222.8398 H   0  0  0  0  0  0  0  0  0  0  0  0
  140.7065   70.5520  223.7210 H   0  0  0  0  0  0  0  0  0  0  0  0
  140.9625   72.2671  224.1820 H   0  0  0  0  0  0  0  0  0  0  0  0
  141.6688   69.6391  228.9587 H   0  0  0  0  0  0  0  0  0  0  0  0
  141.1242   67.3212  228.3581 H   0  0  0  0  0  0  0  0  0  0  0  0
  139.8302   66.8296  226.3042 H   0  0  0  0  0  0  0  0  0  0  0  0
  138.8570   74.4760  222.7040 H   0  0  0  0  0  0  0  0  0  0  0  0
  141.1406   76.0122  222.9247 H   0  0  0  0  0  0  0  0  0  0  0  0
  140.7472   76.0474  221.1241 H   0  0  0  0  0  0  0  0  0  0  0  0
  138.9325   77.3097  221.3862 H   0  0  0  0  0  0  0  0  0  0  0  0
  138.7239   76.8072  223.1353 H   0  0  0  0  0  0  0  0  0  0  0  0
  138.3624   79.5773  222.9039 H   0  0  0  0  0  0  0  0  0  0  0  0
  139.5439   81.5828  223.6652 H   0  0  0  0  0  0  0  0  0  0  0  0
  142.0138   81.5182  224.0234 H   0  0  0  0  0  0  0  0  0  0  0  0
  143.2189   79.4161  223.5865 H   0  0  0  0  0  0  0  0  0  0  0  0
  142.0346   77.3934  222.8207 H   0  0  0  0  0  0  0  0  0  0  0  0
  1  2  2  0
  2  3  1  0
  3  4  1  0
  4  5  1  0
  5  6  1  0
  6  7  1  0
  7  8  2  0
  8  9  1  0
  8 10  1  0
 10 11  2  0
 11 12  1  0
 12 13  2  0
 13 14  1  0
  2 15  1  0
 15 16  1  0
 16 17  1  0
 17 18  1  0
 18 19  2  0
 19 20  1  0
 20 21  2  0
 21 22  1  0
 22 23  2  0
 13  7  1  0
 23 18  1  0
  3 24  1  0
  3 25  1  0
  4 26  1  0
  4 27  1  0
  5 28  1  0
  5 29  1  0
 10 30  1  0
 11 31  1  0
 12 32  1  0
 15 33  1  0
 16 34  1  0
 16 35  1  0
 17 36  1  0
 17 37  1  0
 19 38  1  0
 20 39  1  0
 21 40  1  0
 22 41  1  0
 23 42  1  0
M  END
>  <smiles>  (6) 
O=C(CCCOc1c(Cl)cccc1Cl)NCCc1ccccc1

>  <score_type>  (6) 
oracle

>  <origin>  (6) 
autodockgpu

>  <m_score__min__energy>  (6) 
-7.8600000000000003

>  <m_primary>  (6) 
energy

>  <meeko>  (6) 
{"free_energy": -7.65, "intermolecular_energy": -10.04, "internal_energy": -0.71, "cluster_size": 7, "cluster_id": 1, "rank_in_cluster": 6}

>  <energy>  (6) 
-7.65

>  <cluster_rmsd>  (6) 
0.78

>  <rmsd>  (6) 
272.41

>  <cluster>  (6) 
1

$$$$

     RDKit          3D

 42 43  0  0  0  0  0  0  0  0999 V2000
  139.4020   69.7550  222.7760 O   0  0  0  0  0  0  0  0  0  0  0  0
  139.0910   70.9670  222.8230 C   0  0  0  0  0  0  0  0  0  0  0  0
  137.9810   71.5980  222.0900 C   0  0  0  0  0  0  0  0  0  0  0  0
  137.8250   73.0660  222.3120 C   0  0  0  0  0  0  0  0  0  0  0  0
  138.7050   73.8910  221.4020 C   0  0  0  0  0  0  0  0  0  0  0  0
  139.9450   74.1300  222.0440 O   0  0  0  0  0  0  0  0  0  0  0  0
  140.9780   74.7280  221.3380 C   0  0  0  0  0  0  0  0  0  0  0  0
  141.0270   76.1020  221.1880 C   0  0  0  0  0  0  0  0  0  0  0  0
  139.7920   77.1160  221.8830 Cl  0  0  0  0  0  0  0  0  0  0  0  0
  142.0940   76.6240  220.4660 C   0  0  0  0  0  0  0  0  0  0  0  0
  143.0670   75.8200  219.9190 C   0  0  0  0  0  0  0  0  0  0  0  0
  143.0090   74.4590  220.0730 C   0  0  0  0  0  0  0  0  0  0  0  0
  141.9560   73.9090  220.7880 C   0  0  0  0  0  0  0  0  0  0  0  0
  141.8930   72.1540  220.9810 Cl  0  0  0  0  0  0  0  0  0  0  0  0
  139.8850   71.8010  223.6640 N   0  0  0  0  0  0  0  0  0  0  0  0
  140.9650   71.1950  224.3800 C   0  0  0  0  0  0  0  0  0  0  0  0
  141.0420   71.5250  225.8340 C   0  0  0  0  0  0  0  0  0  0  0  0
  140.7380   70.4020  226.7190 C   0  0  0  0  0  0  0  0  0  0  0  0
  140.0420   70.4810  227.9000 C   0  0  0  0  0  0  0  0  0  0  0  0
  139.7780   69.3930  228.7030 C   0  0  0  0  0  0  0  0  0  0  0  0
  140.2190   68.1410  228.3290 C   0  0  0  0  0  0  0  0  0  0  0  0
  140.9130   68.0260  227.1620 C   0  0  0  0  0  0  0  0  0  0  0  0
  141.1780   69.1240  226.3550 C   0  0  0  0  0  0  0  0  0  0  0  0
  138.1453   71.4321  221.0151 H   0  0  0  0  0  0  0  0  0  0  0  0
  137.0602   71.1324  222.4711 H   0  0  0  0  0  0  0  0  0  0  0  0
  136.7754   73.3398  222.1293 H   0  0  0  0  0  0  0  0  0  0  0  0
  138.1270   73.2789  223.3481 H   0  0  0  0  0  0  0  0  0  0  0  0
  138.8764   73.3454  220.4623 H   0  0  0  0  0  0  0  0  0  0  0  0
  138.2125   74.8495  221.1812 H   0  0  0  0  0  0  0  0  0  0  0  0
  142.1624   77.7131  220.3279 H   0  0  0  0  0  0  0  0  0  0  0  0
  143.8963   76.2717  219.3549 H   0  0  0  0  0  0  0  0  0  0  0  0
  143.7854   73.8136  219.6363 H   0  0  0  0  0  0  0  0  0  0  0  0
  139.6610   72.8180  223.7330 H   0  0  0  0  0  0  0  0  0  0  0  0
  140.8631   70.1038  224.2858 H   0  0  0  0  0  0  0  0  0  0  0  0
  141.8856   71.5967  223.9316 H   0  0  0  0  0  0  0  0  0  0  0  0
  142.0618   71.8728  226.0555 H   0  0  0  0  0  0  0  0  0  0  0  0
  140.2792   72.2942  226.0250 H   0  0  0  0  0  0  0  0  0  0  0  0
  139.6752   71.4666  228.2226 H   0  0  0  0  0  0  0  0  0  0  0  0
  139.2168   69.5227  229.6402 H   0  0  0  0  0  0  0  0  0  0  0  0
  140.0162   67.2598  228.9553 H   0  0  0  0  0  0  0  0  0  0  0  0
  141.2736   67.0346  226.8504 H   0  0  0  0  0  0  0  0  0  0  0  0
  141.7399   68.9882  225.4192 H   0  0  0  0  0  0  0  0  0  0  0  0
  1  2  2  0
  2  3  1  0
  3  4  1  0
  4  5  1  0
  5  6  1  0
  6  7  1  0
  7  8  2  0
  8  9  1  0
  8 10  1  0
 10 11  2  0
 11 12  1  0
 12 13  2  0
 13 14  1  0
  2 15  1  0
 15 16  1  0
 16 17  1  0
 17 18  1  0
 18 19  2  0
 19 20  1  0
 20 21  2  0
 21 22  1  0
 22 23  2  0
 13  7  1  0
 23 18  1  0
  3 24  1  0
  3 25  1  0
  4 26  1  0
  4 27  1  0
  5 28  1  0
  5 29  1  0
 10 30  1  0
 11 31  1  0
 12 32  1  0
 15 33  1  0
 16 34  1  0
 16 35  1  0
 17 36  1  0
 17 37  1  0
 19 38  1  0
 20 39  1  0
 21 40  1  0
 22 41  1  0
 23 42  1  0
M  END
>  <smiles>  (7) 
O=C(CCCOc1c(Cl)cccc1Cl)NCCc1ccccc1

>  <score_type>  (7) 
oracle

>  <origin>  (7) 
autodockgpu

>  <m_score__min__energy>  (7) 
-7.8600000000000003

>  <m_primary>  (7) 
energy

>  <meeko>  (7) 
{"free_energy": -6.18, "intermolecular_energy": -8.57, "internal_energy": -1.89, "cluster_size": 9, "cluster_id": 3, "rank_in_cluster": 8}

>  <energy>  (7) 
-7.64

>  <cluster_rmsd>  (7) 
0.85

>  <rmsd>  (7) 
272.43

>  <cluster>  (7) 
1

$$$$

     RDKit          3D

 42 43  0  0  0  0  0  0  0  0999 V2000
  139.0120   70.1560  222.3390 O   0  0  0  0  0  0  0  0  0  0  0  0
  138.8820   71.3880  222.5180 C   0  0  0  0  0  0  0  0  0  0  0  0
  137.9100   72.2570  221.8340 C   0  0  0  0  0  0  0  0  0  0  0  0
  138.5010   73.3850  221.0550 C   0  0  0  0  0  0  0  0  0  0  0  0
  138.7810   74.6000  221.9090 C   0  0  0  0  0  0  0  0  0  0  0  0
  140.1510   74.6090  222.2720 O   0  0  0  0  0  0  0  0  0  0  0  0
  141.0820   75.1790  221.4170 C   0  0  0  0  0  0  0  0  0  0  0  0
  141.9570   74.3850  220.6970 C   0  0  0  0  0  0  0  0  0  0  0  0
  141.9130   72.6500  220.8510 Cl  0  0  0  0  0  0  0  0  0  0  0  0
  142.8590   75.0320  219.8610 C   0  0  0  0  0  0  0  0  0  0  0  0
  142.8910   76.4020  219.7440 C   0  0  0  0  0  0  0  0  0  0  0  0
  142.0190   77.1800  220.4610 C   0  0  0  0  0  0  0  0  0  0  0  0
  141.1070   76.5630  221.3040 C   0  0  0  0  0  0  0  0  0  0  0  0
  139.9880   77.5760  222.2220 Cl  0  0  0  0  0  0  0  0  0  0  0  0
  139.7540   71.9940  223.4690 N   0  0  0  0  0  0  0  0  0  0  0  0
  140.7000   71.1570  224.1380 C   0  0  0  0  0  0  0  0  0  0  0  0
  140.9620   71.4910  225.5690 C   0  0  0  0  0  0  0  0  0  0  0  0
  140.7400   70.3810  226.4940 C   0  0  0  0  0  0  0  0  0  0  0  0
  140.1010   70.4650  227.7060 C   0  0  0  0  0  0  0  0  0  0  0  0
  139.9140   69.3890  228.5450 C   0  0  0  0  0  0  0  0  0  0  0  0
  140.3800   68.1430  228.1790 C   0  0  0  0  0  0  0  0  0  0  0  0
  141.0200   68.0240  226.9820 C   0  0  0  0  0  0  0  0  0  0  0  0
  141.2070   69.1100  226.1380 C   0  0  0  0  0  0  0  0  0  0  0  0
  137.3262   71.6340  221.1404 H   0  0  0  0  0  0  0  0  0  0  0  0
  137.3042   72.7194  222.6272 H   0  0  0  0  0  0  0  0  0  0  0  0
  139.4459   73.0454  220.6057 H   0  0  0  0  0  0  0  0  0  0  0  0
  137.7687   73.6791  220.2887 H   0  0  0  0  0  0  0  0  0  0  0  0
  138.5451   75.5116  221.3404 H   0  0  0  0  0  0  0  0  0  0  0  0
  138.1588   74.5658  222.8155 H   0  0  0  0  0  0  0  0  0  0  0  0
  143.5690   74.4301  219.2749 H   0  0  0  0  0  0  0  0  0  0  0  0
  143.6206   76.8764  219.0712 H   0  0  0  0  0  0  0  0  0  0  0  0
  142.0424   78.2759  220.3690 H   0  0  0  0  0  0  0  0  0  0  0  0
  139.6790   73.0190  223.6490 H   0  0  0  0  0  0  0  0  0  0  0  0
  140.3262   70.1233  224.0953 H   0  0  0  0  0  0  0  0  0  0  0  0
  141.6560   71.3078  223.6152 H   0  0  0  0  0  0  0  0  0  0  0  0
  142.0097   71.8130  225.6618 H   0  0  0  0  0  0  0  0  0  0  0  0
  140.2473   72.2803  225.8452 H   0  0  0  0  0  0  0  0  0  0  0  0
  139.7173   71.4455  228.0245 H   0  0  0  0  0  0  0  0  0  0  0  0
  139.3941   69.5227  229.5051 H   0  0  0  0  0  0  0  0  0  0  0  0
  140.2390   67.2710  228.8345 H   0  0  0  0  0  0  0  0  0  0  0  0
  141.3997   67.0382  226.6754 H   0  0  0  0  0  0  0  0  0  0  0  0
  141.7277   68.9706  225.1791 H   0  0  0  0  0  0  0  0  0  0  0  0
  1  2  2  0
  2  3  1  0
  3  4  1  0
  4  5  1  0
  5  6  1  0
  6  7  1  0
  7  8  2  0
  8  9  1  0
  8 10  1  0
 10 11  2  0
 11 12  1  0
 12 13  2  0
 13 14  1  0
  2 15  1  0
 15 16  1  0
 16 17  1  0
 17 18  1  0
 18 19  2  0
 19 20  1  0
 20 21  2  0
 21 22  1  0
 22 23  2  0
 13  7  1  0
 23 18  1  0
  3 24  1  0
  3 25  1  0
  4 26  1  0
  4 27  1  0
  5 28  1  0
  5 29  1  0
 10 30  1  0
 11 31  1  0
 12 32  1  0
 15 33  1  0
 16 34  1  0
 16 35  1  0
 17 36  1  0
 17 37  1  0
 19 38  1  0
 20 39  1  0
 21 40  1  0
 22 41  1  0
 23 42  1  0
M  END
>  <smiles>  (8) 
O=C(CCCOc1c(Cl)cccc1Cl)NCCc1ccccc1

>  <score_type>  (8) 
oracle

>  <origin>  (8) 
autodockgpu

>  <m_score__min__energy>  (8) 
-7.8600000000000003

>  <m_primary>  (8) 
energy

>  <meeko>  (8) 
{"free_energy": -6.52, "intermolecular_energy": -8.91, "internal_energy": -1.79, "cluster_size": 9, "cluster_id": 3, "rank_in_cluster": 3}

>  <energy>  (8) 
-7.34

>  <cluster_rmsd>  (8) 
0.0

>  <rmsd>  (8) 
271.78

>  <cluster>  (8) 
2

$$$$

     RDKit          3D

 42 43  0  0  0  0  0  0  0  0999 V2000
  140.2680   74.3820  222.2620 O   0  0  0  0  0  0  0  0  0  0  0  0
  140.7510   73.4090  221.6390 C   0  0  0  0  0  0  0  0  0  0  0  0
  140.5140   71.9890  221.9460 C   0  0  0  0  0  0  0  0  0  0  0  0
  139.6380   71.7310  223.1280 C   0  0  0  0  0  0  0  0  0  0  0  0
  140.4180   71.5990  224.4150 C   0  0  0  0  0  0  0  0  0  0  0  0
  139.5560   71.1250  225.4360 O   0  0  0  0  0  0  0  0  0  0  0  0
  139.9530   70.0570  226.2250 C   0  0  0  0  0  0  0  0  0  0  0  0
  140.6180   70.2700  227.4190 C   0  0  0  0  0  0  0  0  0  0  0  0
  140.9750   71.8880  227.9590 Cl  0  0  0  0  0  0  0  0  0  0  0  0
  140.9820   69.1470  228.1520 C   0  0  0  0  0  0  0  0  0  0  0  0
  140.6980   67.8720  227.7220 C   0  0  0  0  0  0  0  0  0  0  0  0
  140.0380   67.6710  226.5370 C   0  0  0  0  0  0  0  0  0  0  0  0
  139.6620   68.7720  225.7830 C   0  0  0  0  0  0  0  0  0  0  0  0
  138.8110   68.5000  224.2590 Cl  0  0  0  0  0  0  0  0  0  0  0  0
  141.6030   73.7120  220.5370 N   0  0  0  0  0  0  0  0  0  0  0  0
  141.8380   75.0900  220.2320 C   0  0  0  0  0  0  0  0  0  0  0  0
  143.1700   75.4020  219.6350 C   0  0  0  0  0  0  0  0  0  0  0  0
  144.1660   74.3460  219.8100 C   0  0  0  0  0  0  0  0  0  0  0  0
  145.0590   74.2540  220.8490 C   0  0  0  0  0  0  0  0  0  0  0  0
  145.9810   73.2380  220.9730 C   0  0  0  0  0  0  0  0  0  0  0  0
  146.0370   72.2410  220.0220 C   0  0  0  0  0  0  0  0  0  0  0  0
  145.1650   72.3020  218.9760 C   0  0  0  0  0  0  0  0  0  0  0  0
  144.2370   73.3270  218.8540 C   0  0  0  0  0  0  0  0  0  0  0  0
  140.0441   71.5246  221.0665 H   0  0  0  0  0  0  0  0  0  0  0  0
  141.4968   71.5628  222.1959 H   0  0  0  0  0  0  0  0  0  0  0  0
  138.9298   72.5665  223.2300 H   0  0  0  0  0  0  0  0  0  0  0  0
  139.1195   70.7765  222.9548 H   0  0  0  0  0  0  0  0  0  0  0  0
  141.2453   70.8882  224.2725 H   0  0  0  0  0  0  0  0  0  0  0  0
  140.8265   72.5792  224.7018 H   0  0  0  0  0  0  0  0  0  0  0  0
  141.5136   69.2820  229.1055 H   0  0  0  0  0  0  0  0  0  0  0  0
  141.0020   67.0086  228.3320 H   0  0  0  0  0  0  0  0  0  0  0  0
  139.8104   66.6522  226.1901 H   0  0  0  0  0  0  0  0  0  0  0  0
  142.0280   72.9320  219.9900 H   0  0  0  0  0  0  0  0  0  0  0  0
  141.0642   75.4157  219.5212 H   0  0  0  0  0  0  0  0  0  0  0  0
  141.8094   75.6198  221.1956 H   0  0  0  0  0  0  0  0  0  0  0  0
  143.0337   75.5727  218.5569 H   0  0  0  0  0  0  0  0  0  0  0  0
  143.5530   76.2889  220.1611 H   0  0  0  0  0  0  0  0  0  0  0  0
  145.0370   75.0339  221.6244 H   0  0  0  0  0  0  0  0  0  0  0  0
  146.6714   73.2221  221.8292 H   0  0  0  0  0  0  0  0  0  0  0  0
  146.7644   71.4201  220.1051 H   0  0  0  0  0  0  0  0  0  0  0  0
  145.1977   71.5165  218.2066 H   0  0  0  0  0  0  0  0  0  0  0  0
  143.5493   73.3382  217.9956 H   0  0  0  0  0  0  0  0  0  0  0  0
  1  2  2  0
  2  3  1  0
  3  4  1  0
  4  5  1  0
  5  6  1  0
  6  7  1  0
  7  8  2  0
  8  9  1  0
  8 10  1  0
 10 11  2  0
 11 12  1  0
 12 13  2  0
 13 14  1  0
  2 15  1  0
 15 16  1  0
 16 17  1  0
 17 18  1  0
 18 19  2  0
 19 20  1  0
 20 21  2  0
 21 22  1  0
 22 23  2  0
 13  7  1  0
 23 18  1  0
  3 24  1  0
  3 25  1  0
  4 26  1  0
  4 27  1  0
  5 28  1  0
  5 29  1  0
 10 30  1  0
 11 31  1  0
 12 32  1  0
 15 33  1  0
 16 34  1  0
 16 35  1  0
 17 36  1  0
 17 37  1  0
 19 38  1  0
 20 39  1  0
 21 40  1  0
 22 41  1  0
 23 42  1  0
M  END
>  <smiles>  (9) 
O=C(CCCOc1c(Cl)cccc1Cl)NCCc1ccccc1

>  <score_type>  (9) 
oracle

>  <origin>  (9) 
autodockgpu

>  <m_score__min__energy>  (9) 
-7.8600000000000003

>  <m_primary>  (9) 
energy

>  <meeko>  (9) 
{"free_energy": -7.34, "intermolecular_energy": -9.73, "internal_energy": -0.9, "cluster_size": 1, "cluster_id": 2, "rank_in_cluster": 1}

>  <energy>  (9) 
-6.98

>  <cluster_rmsd>  (9) 
0.0

>  <rmsd>  (9) 
271.7

>  <cluster>  (9) 
3

$$$$

     RDKit          3D

 42 43  0  0  0  0  0  0  0  0999 V2000
  138.7510   69.8420  223.0970 O   0  0  0  0  0  0  0  0  0  0  0  0
  138.6160   71.0840  223.0200 C   0  0  0  0  0  0  0  0  0  0  0  0
  137.5120   71.7890  222.3480 C   0  0  0  0  0  0  0  0  0  0  0  0
  137.7570   73.2340  222.0660 C   0  0  0  0  0  0  0  0  0  0  0  0
  138.9870   73.4630  221.2200 C   0  0  0  0  0  0  0  0  0  0  0  0
  139.9610   74.1500  221.9880 O   0  0  0  0  0  0  0  0  0  0  0  0
  140.8170   75.0450  221.3650 C   0  0  0  0  0  0  0  0  0  0  0  0
  140.5560   76.4040  221.3890 C   0  0  0  0  0  0  0  0  0  0  0  0
  139.1440   77.0230  222.2010 Cl  0  0  0  0  0  0  0  0  0  0  0  0
  141.4630   77.2350  220.7420 C   0  0  0  0  0  0  0  0  0  0  0  0
  142.5770   76.7420  220.1020 C   0  0  0  0  0  0  0  0  0  0  0  0
  142.8260   75.3940  220.0850 C   0  0  0  0  0  0  0  0  0  0  0  0
  141.9390   74.5390  220.7210 C   0  0  0  0  0  0  0  0  0  0  0  0
  142.2720   72.8050  220.6930 Cl  0  0  0  0  0  0  0  0  0  0  0  0
  139.6250   71.8780  223.6410 N   0  0  0  0  0  0  0  0  0  0  0  0
  140.7010   71.2010  224.2960 C   0  0  0  0  0  0  0  0  0  0  0  0
  140.8900   71.5320  225.7390 C   0  0  0  0  0  0  0  0  0  0  0  0
  140.6620   70.4080  226.6460 C   0  0  0  0  0  0  0  0  0  0  0  0
  139.9900   70.4700  227.8420 C   0  0  0  0  0  0  0  0  0  0  0  0
  139.7980   69.3830  228.6650 C   0  0  0  0  0  0  0  0  0  0  0  0
  140.2910   68.1480  228.2980 C   0  0  0  0  0  0  0  0  0  0  0  0
  140.9640   68.0510  227.1170 C   0  0  0  0  0  0  0  0  0  0  0  0
  141.1560   69.1490  226.2900 C   0  0  0  0  0  0  0  0  0  0  0  0
  137.3189   71.2836  221.3902 H   0  0  0  0  0  0  0  0  0  0  0  0
  136.6605   71.7545  223.0435 H   0  0  0  0  0  0  0  0  0  0  0  0
  136.8841   73.6418  221.5352 H   0  0  0  0  0  0  0  0  0  0  0  0
  137.9189   73.7377  223.0304 H   0  0  0  0  0  0  0  0  0  0  0  0
  139.3932   72.4948  220.8920 H   0  0  0  0  0  0  0  0  0  0  0  0
  138.7215   74.0639  220.3377 H   0  0  0  0  0  0  0  0  0  0  0  0
  141.2848   78.3205  220.7415 H   0  0  0  0  0  0  0  0  0  0  0  0
  143.2712   77.4330  219.6015 H   0  0  0  0  0  0  0  0  0  0  0  0
  143.7158   74.9968  219.5746 H   0  0  0  0  0  0  0  0  0  0  0  0
  139.5530   72.9180  223.6010 H   0  0  0  0  0  0  0  0  0  0  0  0
  140.5169   70.1193  224.2185 H   0  0  0  0  0  0  0  0  0  0  0  0
  141.6184   71.5344  223.7889 H   0  0  0  0  0  0  0  0  0  0  0  0
  141.9222   71.8851  225.8797 H   0  0  0  0  0  0  0  0  0  0  0  0
  140.1404   72.2972  225.9889 H   0  0  0  0  0  0  0  0  0  0  0  0
  139.5829   71.4412  228.1599 H   0  0  0  0  0  0  0  0  0  0  0  0
  139.2526   69.4991  229.6132 H   0  0  0  0  0  0  0  0  0  0  0  0
  140.1451   67.2669  228.9402 H   0  0  0  0  0  0  0  0  0  0  0  0
  141.3667   67.0744  226.8103 H   0  0  0  0  0  0  0  0  0  0  0  0
  141.7031   69.0275  225.3435 H   0  0  0  0  0  0  0  0  0  0  0  0
  1  2  2  0
  2  3  1  0
  3  4  1  0
  4  5  1  0
  5  6  1  0
  6  7  1  0
  7  8  2  0
  8  9  1  0
  8 10  1  0
 10 11  2  0
 11 12  1  0
 12 13  2  0
 13 14  1  0
  2 15  1  0
 15 16  1  0
 16 17  1  0
 17 18  1  0
 18 19  2  0
 19 20  1  0
 20 21  2  0
 21 22  1  0
 22 23  2  0
 13  7  1  0
 23 18  1  0
  3 24  1  0
  3 25  1  0
  4 26  1  0
  4 27  1  0
  5 28  1  0
  5 29  1  0
 10 30  1  0
 11 31  1  0
 12 32  1  0
 15 33  1  0
 16 34  1  0
 16 35  1  0
 17 36  1  0
 17 37  1  0
 19 38  1  0
 20 39  1  0
 21 40  1  0
 22 41  1  0
 23 42  1  0
M  END
>  <smiles>  (10) 
O=C(CCCOc1c(Cl)cccc1Cl)NCCc1ccccc1

>  <score_type>  (10) 
oracle

>  <origin>  (10) 
autodockgpu

>  <m_score__min__energy>  (10) 
-7.8600000000000003

>  <m_primary>  (10) 
energy

>  <meeko>  (10) 
{"free_energy": -6.46, "intermolecular_energy": -8.85, "internal_energy": -1.75, "cluster_size": 9, "cluster_id": 3, "rank_in_cluster": 5}

>  <energy>  (10) 
-6.86

>  <cluster_rmsd>  (10) 
0.31

>  <rmsd>  (10) 
271.66

>  <cluster>  (10) 
3

$$$$

     RDKit          3D

 42 43  0  0  0  0  0  0  0  0999 V2000
  141.5100   74.5520  220.6280 O   0  0  0  0  0  0  0  0  0  0  0  0
  140.7420   74.0130  221.4580 C   0  0  0  0  0  0  0  0  0  0  0  0
  140.7920   72.6060  221.8860 C   0  0  0  0  0  0  0  0  0  0  0  0
  139.8940   72.2550  223.0270 C   0  0  0  0  0  0  0  0  0  0  0  0
  140.6190   71.5370  224.1400 C   0  0  0  0  0  0  0  0  0  0  0  0
  139.6890   71.1850  225.1510 O   0  0  0  0  0  0  0  0  0  0  0  0
  139.9850   70.1480  226.0220 C   0  0  0  0  0  0  0  0  0  0  0  0
  139.6320   68.8460  225.7150 C   0  0  0  0  0  0  0  0  0  0  0  0
  138.8040   68.4780  224.2260 Cl  0  0  0  0  0  0  0  0  0  0  0  0
  139.9650   67.8630  226.6390 C   0  0  0  0  0  0  0  0  0  0  0  0
  140.6180   68.1580  227.8140 C   0  0  0  0  0  0  0  0  0  0  0  0
  140.9640   69.4510  228.1090 C   0  0  0  0  0  0  0  0  0  0  0  0
  140.6450   70.4540  227.2050 C   0  0  0  0  0  0  0  0  0  0  0  0
  141.0970   72.1160  227.5970 Cl  0  0  0  0  0  0  0  0  0  0  0  0
  139.7370   74.8440  222.0340 N   0  0  0  0  0  0  0  0  0  0  0  0
  139.6830   76.2120  221.6230 C   0  0  0  0  0  0  0  0  0  0  0  0
  139.1750   77.1740  222.6450 C   0  0  0  0  0  0  0  0  0  0  0  0
  140.0810   78.2880  222.9220 C   0  0  0  0  0  0  0  0  0  0  0  0
  141.4520   78.2310  222.8850 C   0  0  0  0  0  0  0  0  0  0  0  0
  142.2670   79.3090  223.1520 C   0  0  0  0  0  0  0  0  0  0  0  0
  141.7090   80.5280  223.4760 C   0  0  0  0  0  0  0  0  0  0  0  0
  140.3510   80.6200  223.5230 C   0  0  0  0  0  0  0  0  0  0  0  0
  139.5320   79.5320  223.2530 C   0  0  0  0  0  0  0  0  0  0  0  0
  140.5113   71.9790  221.0269 H   0  0  0  0  0  0  0  0  0  0  0  0
  141.8184   72.4317  222.2411 H   0  0  0  0  0  0  0  0  0  0  0  0
  139.4592   73.1814  223.4305 H   0  0  0  0  0  0  0  0  0  0  0  0
  139.1190   71.5754  222.6428 H   0  0  0  0  0  0  0  0  0  0  0  0
  141.0932   70.6272  223.7433 H   0  0  0  0  0  0  0  0  0  0  0  0
  141.3925   72.1953  224.5623 H   0  0  0  0  0  0  0  0  0  0  0  0
  139.6986   66.8175  226.4248 H   0  0  0  0  0  0  0  0  0  0  0  0
  140.8637   67.3514  228.5205 H   0  0  0  0  0  0  0  0  0  0  0  0
  141.4862   69.6896  229.0473 H   0  0  0  0  0  0  0  0  0  0  0  0
  139.0750   74.4360  222.7300 H   0  0  0  0  0  0  0  0  0  0  0  0
  140.7009   76.5216  221.3435 H   0  0  0  0  0  0  0  0  0  0  0  0
  138.9627   76.2479  220.7924 H   0  0  0  0  0  0  0  0  0  0  0  0
  138.2206   77.5866  222.2861 H   0  0  0  0  0  0  0  0  0  0  0  0
  139.0696   76.6111  223.5842 H   0  0  0  0  0  0  0  0  0  0  0  0
  141.9258   77.2721  222.6281 H   0  0  0  0  0  0  0  0  0  0  0  0
  143.3604   79.1979  223.1069 H   0  0  0  0  0  0  0  0  0  0  0  0
  142.3428   81.4011  223.6904 H   0  0  0  0  0  0  0  0  0  0  0  0
  139.8897   81.5843  223.7824 H   0  0  0  0  0  0  0  0  0  0  0  0
  138.4392   79.6491  223.2998 H   0  0  0  0  0  0  0  0  0  0  0  0
  1  2  2  0
  2  3  1  0
  3  4  1  0
  4  5  1  0
  5  6  1  0
  6  7  1  0
  7  8  2  0
  8  9  1  0
  8 10  1  0
 10 11  2  0
 11 12  1  0
 12 13  2  0
 13 14  1  0
  2 15  1  0
 15 16  1  0
 16 17  1  0
 17 18  1  0
 18 19  2  0
 19 20  1  0
 20 21  2  0
 21 22  1  0
 22 23  2  0
 13  7  1  0
 23 18  1  0
  3 24  1  0
  3 25  1  0
  4 26  1  0
  4 27  1  0
  5 28  1  0
  5 29  1  0
 10 30  1  0
 11 31  1  0
 12 32  1  0
 15 33  1  0
 16 34  1  0
 16 35  1  0
 17 36  1  0
 17 37  1  0
 19 38  1  0
 20 39  1  0
 21 40  1  0
 22 41  1  0
 23 42  1  0
M  END
>  <smiles>  (11) 
O=C(CCCOc1c(Cl)cccc1Cl)NCCc1ccccc1

>  <score_type>  (11) 
oracle

>  <origin>  (11) 
autodockgpu

>  <m_score__min__energy>  (11) 
-7.8600000000000003

>  <m_primary>  (11) 
energy

>  <meeko>  (11) 
{"free_energy": -7.64, "intermolecular_energy": -10.03, "internal_energy": -0.72, "cluster_size": 7, "cluster_id": 1, "rank_in_cluster": 7}

>  <energy>  (11) 
-6.52

>  <cluster_rmsd>  (11) 
1.79

>  <rmsd>  (11) 
271.56

>  <cluster>  (11) 
3

$$$$

     RDKit          3D

 42 43  0  0  0  0  0  0  0  0999 V2000
  141.1090   73.7010  221.7750 O   0  0  0  0  0  0  0  0  0  0  0  0
  139.8790   73.6410  222.0070 C   0  0  0  0  0  0  0  0  0  0  0  0
  139.0650   72.4150  222.0160 C   0  0  0  0  0  0  0  0  0  0  0  0
  139.6650   71.2590  222.7470 C   0  0  0  0  0  0  0  0  0  0  0  0
  140.3350   71.6680  224.0370 C   0  0  0  0  0  0  0  0  0  0  0  0
  139.5110   71.2940  225.1290 O   0  0  0  0  0  0  0  0  0  0  0  0
  139.9360   70.3010  225.9980 C   0  0  0  0  0  0  0  0  0  0  0  0
  140.6970   70.6150  227.1100 C   0  0  0  0  0  0  0  0  0  0  0  0
  141.1400   72.2660  227.4450 Cl  0  0  0  0  0  0  0  0  0  0  0  0
  141.0830   69.5630  227.9320 C   0  0  0  0  0  0  0  0  0  0  0  0
  140.7300   68.2600  227.6640 C   0  0  0  0  0  0  0  0  0  0  0  0
  139.9770   67.9600  226.5590 C   0  0  0  0  0  0  0  0  0  0  0  0
  139.5760   68.9880  225.7200 C   0  0  0  0  0  0  0  0  0  0  0  0
  138.6040   68.5880  224.3000 Cl  0  0  0  0  0  0  0  0  0  0  0  0
  139.2200   74.8740  222.2870 N   0  0  0  0  0  0  0  0  0  0  0  0
  140.0050   76.0700  222.2800 C   0  0  0  0  0  0  0  0  0  0  0  0
  139.2490   77.3400  222.4900 C   0  0  0  0  0  0  0  0  0  0  0  0
  140.0910   78.4910  222.8090 C   0  0  0  0  0  0  0  0  0  0  0  0
  139.6390   79.7310  223.1900 C   0  0  0  0  0  0  0  0  0  0  0  0
  140.4710   80.7890  223.4820 C   0  0  0  0  0  0  0  0  0  0  0  0
  141.8390   80.6290  223.4010 C   0  0  0  0  0  0  0  0  0  0  0  0
  142.3220   79.4120  223.0270 C   0  0  0  0  0  0  0  0  0  0  0  0
  141.4800   78.3470  222.7320 C   0  0  0  0  0  0  0  0  0  0  0  0
  138.0992   72.6511  222.4867 H   0  0  0  0  0  0  0  0  0  0  0  0
  138.9764   72.0996  220.9659 H   0  0  0  0  0  0  0  0  0  0  0  0
  138.8679   70.5371  222.9782 H   0  0  0  0  0  0  0  0  0  0  0  0
  140.4364   70.8199  222.0972 H   0  0  0  0  0  0  0  0  0  0  0  0
  141.3091   71.1641  224.1216 H   0  0  0  0  0  0  0  0  0  0  0  0
  140.4877   72.7573  224.0451 H   0  0  0  0  0  0  0  0  0  0  0  0
  141.6893   69.7784  228.8242 H   0  0  0  0  0  0  0  0  0  0  0  0
  141.0540   67.4552  228.3403 H   0  0  0  0  0  0  0  0  0  0  0  0
  139.6951   66.9193  226.3412 H   0  0  0  0  0  0  0  0  0  0  0  0
  138.1960   74.8710  222.4860 H   0  0  0  0  0  0  0  0  0  0  0  0
  140.7554   75.9868  223.0800 H   0  0  0  0  0  0  0  0  0  0  0  0
  140.4364   76.1404  221.2706 H   0  0  0  0  0  0  0  0  0  0  0  0
  138.6903   77.5654  221.5696 H   0  0  0  0  0  0  0  0  0  0  0  0
  138.5922   77.1779  223.3574 H   0  0  0  0  0  0  0  0  0  0  0  0
  138.5529   79.8875  223.2661 H   0  0  0  0  0  0  0  0  0  0  0  0
  140.0459   81.7591  223.7790 H   0  0  0  0  0  0  0  0  0  0  0  0
  142.5203   81.4611  223.6321 H   0  0  0  0  0  0  0  0  0  0  0  0
  143.4102   79.2680  222.9564 H   0  0  0  0  0  0  0  0  0  0  0  0
  141.9107   77.3795  222.4345 H   0  0  0  0  0  0  0  0  0  0  0  0
  1  2  2  0
  2  3  1  0
  3  4  1  0
  4  5  1  0
  5  6  1  0
  6  7  1  0
  7  8  2  0
  8  9  1  0
  8 10  1  0
 10 11  2  0
 11 12  1  0
 12 13  2  0
 13 14  1  0
  2 15  1  0
 15 16  1  0
 16 17  1  0
 17 18  1  0
 18 19  2  0
 19 20  1  0
 20 21  2  0
 21 22  1  0
 22 23  2  0
 13  7  1  0
 23 18  1  0
  3 24  1  0
  3 25  1  0
  4 26  1  0
  4 27  1  0
  5 28  1  0
  5 29  1  0
 10 30  1  0
 11 31  1  0
 12 32  1  0
 15 33  1  0
 16 34  1  0
 16 35  1  0
 17 36  1  0
 17 37  1  0
 19 38  1  0
 20 39  1  0
 21 40  1  0
 22 41  1  0
 23 42  1  0
M  END
>  <smiles>  (12) 
O=C(CCCOc1c(Cl)cccc1Cl)NCCc1ccccc1

>  <score_type>  (12) 
oracle

>  <origin>  (12) 
autodockgpu

>  <m_score__min__energy>  (12) 
-7.8600000000000003

>  <m_primary>  (12) 
energy

>  <meeko>  (12) 
{"free_energy": -7.67, "intermolecular_energy": -10.06, "internal_energy": -0.76, "cluster_size": 7, "cluster_id": 1, "rank_in_cluster": 3}

>  <energy>  (12) 
-6.5

>  <cluster_rmsd>  (12) 
1.77

>  <rmsd>  (12) 
271.5

>  <cluster>  (12) 
3

$$$$

     RDKit          3D

 42 43  0  0  0  0  0  0  0  0999 V2000
  136.2290   70.3150  222.6570 O   0  0  0  0  0  0  0  0  0  0  0  0
  136.8440   71.4060  222.6680 C   0  0  0  0  0  0  0  0  0  0  0  0
  136.5020   72.5920  221.8670 C   0  0  0  0  0  0  0  0  0  0  0  0
  137.0960   73.8760  222.3450 C   0  0  0  0  0  0  0  0  0  0  0  0
  138.3370   74.2670  221.5780 C   0  0  0  0  0  0  0  0  0  0  0  0
  139.4810   73.8070  222.2770 O   0  0  0  0  0  0  0  0  0  0  0  0
  140.7150   73.8080  221.6450 C   0  0  0  0  0  0  0  0  0  0  0  0
  141.4100   74.9890  221.4540 C   0  0  0  0  0  0  0  0  0  0  0  0
  140.7500   76.5050  222.0030 Cl  0  0  0  0  0  0  0  0  0  0  0  0
  142.6400   74.9050  220.8130 C   0  0  0  0  0  0  0  0  0  0  0  0
  143.1570   73.7050  220.3810 C   0  0  0  0  0  0  0  0  0  0  0  0
  142.4610   72.5400  220.5750 C   0  0  0  0  0  0  0  0  0  0  0  0
  141.2300   72.5920  221.2120 C   0  0  0  0  0  0  0  0  0  0  0  0
  140.3440   71.0840  221.4570 Cl  0  0  0  0  0  0  0  0  0  0  0  0
  137.9700   71.4980  223.5380 N   0  0  0  0  0  0  0  0  0  0  0  0
  138.3080   70.3490  224.3200 C   0  0  0  0  0  0  0  0  0  0  0  0
  139.7640   70.1500  224.5790 C   0  0  0  0  0  0  0  0  0  0  0  0
  140.2080   70.6190  225.8910 C   0  0  0  0  0  0  0  0  0  0  0  0
  139.9360   70.0110  227.0910 C   0  0  0  0  0  0  0  0  0  0  0  0
  140.3770   70.4890  228.3050 C   0  0  0  0  0  0  0  0  0  0  0  0
  141.1390   71.6370  228.3550 C   0  0  0  0  0  0  0  0  0  0  0  0
  141.4280   72.2670  227.1820 C   0  0  0  0  0  0  0  0  0  0  0  0
  140.9810   71.7830  225.9600 C   0  0  0  0  0  0  0  0  0  0  0  0
  136.8493   72.4190  220.8377 H   0  0  0  0  0  0  0  0  0  0  0  0
  135.4116   72.7113  221.9492 H   0  0  0  0  0  0  0  0  0  0  0  0
  136.3469   74.6736  222.2320 H   0  0  0  0  0  0  0  0  0  0  0  0
  137.3865   73.7358  223.3966 H   0  0  0  0  0  0  0  0  0  0  0  0
  138.3096   73.8116  220.5771 H   0  0  0  0  0  0  0  0  0  0  0  0
  138.3802   75.3616  221.4781 H   0  0  0  0  0  0  0  0  0  0  0  0
  143.2181   75.8258  220.6458 H   0  0  0  0  0  0  0  0  0  0  0  0
  144.1345   73.6805  219.8771 H   0  0  0  0  0  0  0  0  0  0  0  0
  142.8721   71.5795  220.2310 H   0  0  0  0  0  0  0  0  0  0  0  0
  138.5110   72.3890  223.5790 H   0  0  0  0  0  0  0  0  0  0  0  0
  137.8009   70.4402  225.2919 H   0  0  0  0  0  0  0  0  0  0  0  0
  137.9860   69.4784  223.7298 H   0  0  0  0  0  0  0  0  0  0  0  0
  139.9841   69.0749  224.5041 H   0  0  0  0  0  0  0  0  0  0  0  0
  140.3035   70.7481  223.8298 H   0  0  0  0  0  0  0  0  0  0  0  0
  139.3326   69.0913  227.0827 H   0  0  0  0  0  0  0  0  0  0  0  0
  140.1218   69.9560  229.2328 H   0  0  0  0  0  0  0  0  0  0  0  0
  141.5032   72.0329  229.3145 H   0  0  0  0  0  0  0  0  0  0  0  0
  142.0329   73.1855  227.2039 H   0  0  0  0  0  0  0  0  0  0  0  0
  141.2376   72.3209  225.0354 H   0  0  0  0  0  0  0  0  0  0  0  0
  1  2  2  0
  2  3  1  0
  3  4  1  0
  4  5  1  0
  5  6  1  0
  6  7  1  0
  7  8  2  0
  8  9  1  0
  8 10  1  0
 10 11  2  0
 11 12  1  0
 12 13  2  0
 13 14  1  0
  2 15  1  0
 15 16  1  0
 16 17  1  0
 17 18  1  0
 18 19  2  0
 19 20  1  0
 20 21  2  0
 21 22  1  0
 22 23  2  0
 13  7  1  0
 23 18  1  0
  3 24  1  0
  3 25  1  0
  4 26  1  0
  4 27  1  0
  5 28  1  0
  5 29  1  0
 10 30  1  0
 11 31  1  0
 12 32  1  0
 15 33  1  0
 16 34  1  0
 16 35  1  0
 17 36  1  0
 17 37  1  0
 19 38  1  0
 20 39  1  0
 21 40  1  0
 22 41  1  0
 23 42  1  0
M  END
>  <smiles>  (13) 
O=C(CCCOc1c(Cl)cccc1Cl)NCCc1ccccc1

>  <score_type>  (13) 
oracle

>  <origin>  (13) 
autodockgpu

>  <m_score__min__energy>  (13) 
-7.8600000000000003

>  <m_primary>  (13) 
energy

>  <meeko>  (13) 
{"free_energy": -5.79, "intermolecular_energy": -8.18, "internal_energy": -2.03, "cluster_size": 9, "cluster_id": 3, "rank_in_cluster": 9}

>  <energy>  (13) 
-6.46

>  <cluster_rmsd>  (13) 
1.72

>  <rmsd>  (13) 
271.57

>  <cluster>  (13) 
3

$$$$

     RDKit          3D

 42 43  0  0  0  0  0  0  0  0999 V2000
  138.0440   70.6640  222.0710 O   0  0  0  0  0  0  0  0  0  0  0  0
  138.2060   71.8830  222.3060 C   0  0  0  0  0  0  0  0  0  0  0  0
  137.2730   72.9610  221.9400 C   0  0  0  0  0  0  0  0  0  0  0  0
  137.8550   74.3360  221.9420 C   0  0  0  0  0  0  0  0  0  0  0  0
  138.9860   74.4920  220.9520 C   0  0  0  0  0  0  0  0  0  0  0  0
  140.2050   74.6480  221.6590 O   0  0  0  0  0  0  0  0  0  0  0  0
  141.3340   75.0880  220.9850 C   0  0  0  0  0  0  0  0  0  0  0  0
  142.2920   74.1880  220.5520 C   0  0  0  0  0  0  0  0  0  0  0  0
  142.1040   72.4810  220.8440 Cl  0  0  0  0  0  0  0  0  0  0  0  0
  143.3940   74.7080  219.8840 C   0  0  0  0  0  0  0  0  0  0  0  0
  143.5390   76.0570  219.6560 C   0  0  0  0  0  0  0  0  0  0  0  0
  142.5840   76.9400  220.0890 C   0  0  0  0  0  0  0  0  0  0  0  0
  141.4730   76.4510  220.7590 C   0  0  0  0  0  0  0  0  0  0  0  0
  140.2490   77.5990  221.3110 Cl  0  0  0  0  0  0  0  0  0  0  0  0
  139.4020   72.2500  222.9910 N   0  0  0  0  0  0  0  0  0  0  0  0
  140.3140   71.2090  223.3500 C   0  0  0  0  0  0  0  0  0  0  0  0
  139.8450   70.2790  224.4200 C   0  0  0  0  0  0  0  0  0  0  0  0
  140.2270   70.6820  225.7720 C   0  0  0  0  0  0  0  0  0  0  0  0
  139.9000   70.0150  226.9270 C   0  0  0  0  0  0  0  0  0  0  0  0
  140.2840   70.4310  228.1830 C   0  0  0  0  0  0  0  0  0  0  0  0
  141.0410   71.5750  228.3250 C   0  0  0  0  0  0  0  0  0  0  0  0
  141.3840   72.2620  227.1990 C   0  0  0  0  0  0  0  0  0  0  0  0
  140.9950   71.8400  225.9350 C   0  0  0  0  0  0  0  0  0  0  0  0
  136.8941   72.7537  220.9283 H   0  0  0  0  0  0  0  0  0  0  0  0
  136.4897   72.9609  222.7123 H   0  0  0  0  0  0  0  0  0  0  0  0
  137.0620   75.0542  221.6864 H   0  0  0  0  0  0  0  0  0  0  0  0
  138.2642   74.5221  222.9460 H   0  0  0  0  0  0  0  0  0  0  0  0
  139.0425   73.5979  220.3138 H   0  0  0  0  0  0  0  0  0  0  0  0
  138.8075   75.3764  220.3227 H   0  0  0  0  0  0  0  0  0  0  0  0
  144.1743   74.0200  219.5266 H   0  0  0  0  0  0  0  0  0  0  0  0
  144.4264   76.4292  219.1232 H   0  0  0  0  0  0  0  0  0  0  0  0
  142.6973   78.0190  219.9078 H   0  0  0  0  0  0  0  0  0  0  0  0
  139.5780   73.2550  223.2080 H   0  0  0  0  0  0  0  0  0  0  0  0
  140.5177   70.6122  222.4487 H   0  0  0  0  0  0  0  0  0  0  0  0
  141.2009   71.7148  223.7594 H   0  0  0  0  0  0  0  0  0  0  0  0
  138.7474   70.2244  224.3732 H   0  0  0  0  0  0  0  0  0  0  0  0
  140.3277   69.3089  224.2304 H   0  0  0  0  0  0  0  0  0  0  0  0
  139.2982   69.0979  226.8448 H   0  0  0  0  0  0  0  0  0  0  0  0
  139.9876   69.8522  229.0702 H   0  0  0  0  0  0  0  0  0  0  0  0
  141.3589   71.9231  229.3188 H   0  0  0  0  0  0  0  0  0  0  0  0
  141.9865   73.1773  227.2946 H   0  0  0  0  0  0  0  0  0  0  0  0
  141.2940   72.4228  225.0513 H   0  0  0  0  0  0  0  0  0  0  0  0
  1  2  2  0
  2  3  1  0
  3  4  1  0
  4  5  1  0
  5  6  1  0
  6  7  1  0
  7  8  2  0
  8  9  1  0
  8 10  1  0
 10 11  2  0
 11 12  1  0
 12 13  2  0
 13 14  1  0
  2 15  1  0
 15 16  1  0
 16 17  1  0
 17 18  1  0
 18 19  2  0
 19 20  1  0
 20 21  2  0
 21 22  1  0
 22 23  2  0
 13  7  1  0
 23 18  1  0
  3 24  1  0
  3 25  1  0
  4 26  1  0
  4 27  1  0
  5 28  1  0
  5 29  1  0
 10 30  1  0
 11 31  1  0
 12 32  1  0
 15 33  1  0
 16 34  1  0
 16 35  1  0
 17 36  1  0
 17 37  1  0
 19 38  1  0
 20 39  1  0
 21 40  1  0
 22 41  1  0
 23 42  1  0
M  END
>  <smiles>  (14) 
O=C(CCCOc1c(Cl)cccc1Cl)NCCc1ccccc1

>  <score_type>  (14) 
oracle

>  <origin>  (14) 
autodockgpu

>  <m_score__min__energy>  (14) 
-7.8600000000000003

>  <m_primary>  (14) 
energy

>  <meeko>  (14) 
{"free_energy": -6.22, "intermolecular_energy": -8.61, "internal_energy": -1.81, "cluster_size": 9, "cluster_id": 3, "rank_in_cluster": 7}

>  <energy>  (14) 
-6.26

>  <cluster_rmsd>  (14) 
1.88

>  <rmsd>  (14) 
271.51

>  <cluster>  (14) 
3

$$$$

     RDKit          3D

 42 43  0  0  0  0  0  0  0  0999 V2000
  140.1740   73.5490  222.3290 O   0  0  0  0  0  0  0  0  0  0  0  0
  139.0350   73.0290  222.3420 C   0  0  0  0  0  0  0  0  0  0  0  0
  137.8040   73.6440  221.8200 C   0  0  0  0  0  0  0  0  0  0  0  0
  136.8020   72.6880  221.2610 C   0  0  0  0  0  0  0  0  0  0  0  0
  135.7050   72.3510  222.2440 C   0  0  0  0  0  0  0  0  0  0  0  0
  136.2500   72.3020  223.5520 O   0  0  0  0  0  0  0  0  0  0  0  0
  135.4750   71.8230  224.5970 C   0  0  0  0  0  0  0  0  0  0  0  0
  135.4760   70.4770  224.9170 C   0  0  0  0  0  0  0  0  0  0  0  0
  136.4490   69.3500  224.0120 Cl  0  0  0  0  0  0  0  0  0  0  0  0
  134.6740   70.0770  225.9790 C   0  0  0  0  0  0  0  0  0  0  0  0
  133.9070   70.9700  226.6910 C   0  0  0  0  0  0  0  0  0  0  0  0
  133.9130   72.3020  226.3660 C   0  0  0  0  0  0  0  0  0  0  0  0
  134.7040   72.7310  225.3110 C   0  0  0  0  0  0  0  0  0  0  0  0
  134.7040   74.4500  224.9030 Cl  0  0  0  0  0  0  0  0  0  0  0  0
  138.9330   71.7260  222.9120 N   0  0  0  0  0  0  0  0  0  0  0  0
  140.1250   71.1220  223.4210 C   0  0  0  0  0  0  0  0  0  0  0  0
  139.9270   70.1100  224.5000 C   0  0  0  0  0  0  0  0  0  0  0  0
  140.2600   70.5900  225.8400 C   0  0  0  0  0  0  0  0  0  0  0  0
  139.8590   70.0120  227.0190 C   0  0  0  0  0  0  0  0  0  0  0  0
  140.1990   70.5000  228.2610 C   0  0  0  0  0  0  0  0  0  0  0  0
  140.9840   71.6290  228.3640 C   0  0  0  0  0  0  0  0  0  0  0  0
  141.3990   72.2300  227.2130 C   0  0  0  0  0  0  0  0  0  0  0  0
  141.0550   71.7350  225.9620 C   0  0  0  0  0  0  0  0  0  0  0  0
  137.3251   74.1968  222.6417 H   0  0  0  0  0  0  0  0  0  0  0  0
  138.1151   74.2844  220.9815 H   0  0  0  0  0  0  0  0  0  0  0  0
  136.3468   73.1385  220.3667 H   0  0  0  0  0  0  0  0  0  0  0  0
  137.3317   71.7541  221.0217 H   0  0  0  0  0  0  0  0  0  0  0  0
  134.9221   73.1224  222.2003 H   0  0  0  0  0  0  0  0  0  0  0  0
  135.2675   71.3745  221.9891 H   0  0  0  0  0  0  0  0  0  0  0  0
  134.6517   69.0135  226.2590 H   0  0  0  0  0  0  0  0  0  0  0  0
  133.2855   70.6134  227.5256 H   0  0  0  0  0  0  0  0  0  0  0  0
  133.3004   73.0185  226.9328 H   0  0  0  0  0  0  0  0  0  0  0  0
  138.0020   71.2550  222.9440 H   0  0  0  0  0  0  0  0  0  0  0  0
  140.6376   70.6269  222.5830 H   0  0  0  0  0  0  0  0  0  0  0  0
  140.7037   71.9384  223.8777 H   0  0  0  0  0  0  0  0  0  0  0  0
  138.8706   69.8036  224.4959 H   0  0  0  0  0  0  0  0  0  0  0  0
  140.6129   69.2779  224.2827 H   0  0  0  0  0  0  0  0  0  0  0  0
  139.2318   69.1097  226.9688 H   0  0  0  0  0  0  0  0  0  0  0  0
  139.8451   69.9902  229.1692 H   0  0  0  0  0  0  0  0  0  0  0  0
  141.2673   72.0332  229.3471 H   0  0  0  0  0  0  0  0  0  0  0  0
  142.0242   73.1328  227.2770 H   0  0  0  0  0  0  0  0  0  0  0  0
  141.4114   72.2487  225.0570 H   0  0  0  0  0  0  0  0  0  0  0  0
  1  2  2  0
  2  3  1  0
  3  4  1  0
  4  5  1  0
  5  6  1  0
  6  7  1  0
  7  8  2  0
  8  9  1  0
  8 10  1  0
 10 11  2  0
 11 12  1  0
 12 13  2  0
 13 14  1  0
  2 15  1  0
 15 16  1  0
 16 17  1  0
 17 18  1  0
 18 19  2  0
 19 20  1  0
 20 21  2  0
 21 22  1  0
 22 23  2  0
 13  7  1  0
 23 18  1  0
  3 24  1  0
  3 25  1  0
  4 26  1  0
  4 27  1  0
  5 28  1  0
  5 29  1  0
 10 30  1  0
 11 31  1  0
 12 32  1  0
 15 33  1  0
 16 34  1  0
 16 35  1  0
 17 36  1  0
 17 37  1  0
 19 38  1  0
 20 39  1  0
 21 40  1  0
 22 41  1  0
 23 42  1  0
M  END
>  <smiles>  (15) 
O=C(CCCOc1c(Cl)cccc1Cl)NCCc1ccccc1

>  <score_type>  (15) 
oracle

>  <origin>  (15) 
autodockgpu

>  <m_score__min__energy>  (15) 
-7.8600000000000003

>  <m_primary>  (15) 
energy

>  <meeko>  (15) 
{"free_energy": -5.58, "intermolecular_energy": -7.96, "internal_energy": -2.2, "cluster_size": 1, "cluster_id": 5, "rank_in_cluster": 1}

>  <energy>  (15) 
-6.22

>  <cluster_rmsd>  (15) 
1.73

>  <rmsd>  (15) 
271.39

>  <cluster>  (15) 
3

$$$$

     RDKit          3D

 42 43  0  0  0  0  0  0  0  0999 V2000
  139.0390   74.3860  221.2110 O   0  0  0  0  0  0  0  0  0  0  0  0
  140.2140   74.2180  221.6110 C   0  0  0  0  0  0  0  0  0  0  0  0
  140.8020   72.9370  222.0360 C   0  0  0  0  0  0  0  0  0  0  0  0
  139.9190   72.0840  222.8870 C   0  0  0  0  0  0  0  0  0  0  0  0
  140.6660   71.4200  224.0200 C   0  0  0  0  0  0  0  0  0  0  0  0
  139.7880   71.2490  225.1200 O   0  0  0  0  0  0  0  0  0  0  0  0
  140.0310   70.2400  226.0380 C   0  0  0  0  0  0  0  0  0  0  0  0
  139.6400   68.9390  225.7760 C   0  0  0  0  0  0  0  0  0  0  0  0
  138.8300   68.5390  224.2860 Cl  0  0  0  0  0  0  0  0  0  0  0  0
  139.9190   67.9840  226.7470 C   0  0  0  0  0  0  0  0  0  0  0  0
  140.5580   68.3050  227.9220 C   0  0  0  0  0  0  0  0  0  0  0  0
  140.9420   69.5970  228.1730 C   0  0  0  0  0  0  0  0  0  0  0  0
  140.6770   70.5720  227.2230 C   0  0  0  0  0  0  0  0  0  0  0  0
  141.1770   72.2330  227.5570 Cl  0  0  0  0  0  0  0  0  0  0  0  0
  141.0490   75.3730  221.6510 N   0  0  0  0  0  0  0  0  0  0  0  0
  140.4860   76.6210  221.2380 C   0  0  0  0  0  0  0  0  0  0  0  0
  141.4670   77.6790  220.8580 C   0  0  0  0  0  0  0  0  0  0  0  0
  141.7200   78.6660  221.9060 C   0  0  0  0  0  0  0  0  0  0  0  0
  141.5560   78.4610  223.2540 C   0  0  0  0  0  0  0  0  0  0  0  0
  141.8080   79.4220  224.2080 C   0  0  0  0  0  0  0  0  0  0  0  0
  142.2520   80.6710  223.8240 C   0  0  0  0  0  0  0  0  0  0  0  0
  142.4240   80.9100  222.4930 C   0  0  0  0  0  0  0  0  0  0  0  0
  142.1690   79.9380  221.5350 C   0  0  0  0  0  0  0  0  0  0  0  0
  141.0604   72.3647  221.1328 H   0  0  0  0  0  0  0  0  0  0  0  0
  141.6726   73.1918  222.6582 H   0  0  0  0  0  0  0  0  0  0  0  0
  139.1238   72.7144  223.3115 H   0  0  0  0  0  0  0  0  0  0  0  0
  139.5095   71.2881  222.2475 H   0  0  0  0  0  0  0  0  0  0  0  0
  141.0381   70.4388  223.6903 H   0  0  0  0  0  0  0  0  0  0  0  0
  141.5169   72.0490  224.3205 H   0  0  0  0  0  0  0  0  0  0  0  0
  139.6198   66.9403  226.5703 H   0  0  0  0  0  0  0  0  0  0  0  0
  140.7622   67.5201  228.6651 H   0  0  0  0  0  0  0  0  0  0  0  0
  141.4520   69.8560  229.1126 H   0  0  0  0  0  0  0  0  0  0  0  0
  142.0360   75.2790  221.9770 H   0  0  0  0  0  0  0  0  0  0  0  0
  139.8414   76.4294  220.3675 H   0  0  0  0  0  0  0  0  0  0  0  0
  139.9478   77.0118  222.1141 H   0  0  0  0  0  0  0  0  0  0  0  0
  142.4202   77.1912  220.6062 H   0  0  0  0  0  0  0  0  0  0  0  0
  141.0301   78.2248  220.0087 H   0  0  0  0  0  0  0  0  0  0  0  0
  141.2039   77.4747  223.5905 H   0  0  0  0  0  0  0  0  0  0  0  0
  141.6557   79.1945  225.2734 H   0  0  0  0  0  0  0  0  0  0  0  0
  142.4611   81.4513  224.5706 H   0  0  0  0  0  0  0  0  0  0  0  0
  142.7747   81.9009  222.1688 H   0  0  0  0  0  0  0  0  0  0  0  0
  142.3219   80.1710  220.4709 H   0  0  0  0  0  0  0  0  0  0  0  0
  1  2  2  0
  2  3  1  0
  3  4  1  0
  4  5  1  0
  5  6  1  0
  6  7  1  0
  7  8  2  0
  8  9  1  0
  8 10  1  0
 10 11  2  0
 11 12  1  0
 12 13  2  0
 13 14  1  0
  2 15  1  0
 15 16  1  0
 16 17  1  0
 17 18  1  0
 18 19  2  0
 19 20  1  0
 20 21  2  0
 21 22  1  0
 22 23  2  0
 13  7  1  0
 23 18  1  0
  3 24  1  0
  3 25  1  0
  4 26  1  0
  4 27  1  0
  5 28  1  0
  5 29  1  0
 10 30  1  0
 11 31  1  0
 12 32  1  0
 15 33  1  0
 16 34  1  0
 16 35  1  0
 17 36  1  0
 17 37  1  0
 19 38  1  0
 20 39  1  0
 21 40  1  0
 22 41  1  0
 23 42  1  0
M  END
>  <smiles>  (16) 
O=C(CCCOc1c(Cl)cccc1Cl)NCCc1ccccc1

>  <score_type>  (16) 
oracle

>  <origin>  (16) 
autodockgpu

>  <m_score__min__energy>  (16) 
-7.8600000000000003

>  <m_primary>  (16) 
energy

>  <meeko>  (16) 
{"free_energy": -7.74, "intermolecular_energy": -10.13, "internal_energy": -0.67, "cluster_size": 7, "cluster_id": 1, "rank_in_cluster": 2}

>  <energy>  (16) 
-6.18

>  <cluster_rmsd>  (16) 
1.78

>  <rmsd>  (16) 
271.6

>  <cluster>  (16) 
3

$$$$

     RDKit          3D

 42 43  0  0  0  0  0  0  0  0999 V2000
  139.6060   74.6860  220.5530 O   0  0  0  0  0  0  0  0  0  0  0  0
  140.5660   74.3930  221.3010 C   0  0  0  0  0  0  0  0  0  0  0  0
  140.9010   73.0410  221.7790 C   0  0  0  0  0  0  0  0  0  0  0  0
  139.9640   72.4750  222.7950 C   0  0  0  0  0  0  0  0  0  0  0  0
  140.6500   71.5420  223.7650 C   0  0  0  0  0  0  0  0  0  0  0  0
  139.7840   71.2880  224.8590 O   0  0  0  0  0  0  0  0  0  0  0  0
  140.0700   70.2470  225.7290 C   0  0  0  0  0  0  0  0  0  0  0  0
  139.6880   68.9520  225.4290 C   0  0  0  0  0  0  0  0  0  0  0  0
  138.8370   68.5970  223.9510 Cl  0  0  0  0  0  0  0  0  0  0  0  0
  140.0120   67.9650  226.3530 C   0  0  0  0  0  0  0  0  0  0  0  0
  140.6830   68.2500  227.5190 C   0  0  0  0  0  0  0  0  0  0  0  0
  141.0570   69.5360  227.8070 C   0  0  0  0  0  0  0  0  0  0  0  0
  140.7480   70.5430  226.9050 C   0  0  0  0  0  0  0  0  0  0  0  0
  141.2370   72.1970  227.2870 Cl  0  0  0  0  0  0  0  0  0  0  0  0
  141.4040   75.4670  221.7210 N   0  0  0  0  0  0  0  0  0  0  0  0
  141.0860   76.7840  221.2600 C   0  0  0  0  0  0  0  0  0  0  0  0
  140.3030   77.6290  222.2100 C   0  0  0  0  0  0  0  0  0  0  0  0
  141.0190   78.8090  222.6910 C   0  0  0  0  0  0  0  0  0  0  0  0
  142.3630   79.0450  222.5390 C   0  0  0  0  0  0  0  0  0  0  0  0
  142.9960   80.1750  223.0090 C   0  0  0  0  0  0  0  0  0  0  0  0
  142.2700   81.1430  223.6710 C   0  0  0  0  0  0  0  0  0  0  0  0
  140.9330   80.9410  223.8390 C   0  0  0  0  0  0  0  0  0  0  0  0
  140.2990   79.8010  223.3650 C   0  0  0  0  0  0  0  0  0  0  0  0
  140.9098   72.3656  220.9108 H   0  0  0  0  0  0  0  0  0  0  0  0
  141.8771   73.1273  222.2788 H   0  0  0  0  0  0  0  0  0  0  0  0
  139.5163   73.3047  223.3617 H   0  0  0  0  0  0  0  0  0  0  0  0
  139.2021   71.8925  222.2562 H   0  0  0  0  0  0  0  0  0  0  0  0
  140.8898   70.5957  223.2582 H   0  0  0  0  0  0  0  0  0  0  0  0
  141.5792   72.0049  224.1288 H   0  0  0  0  0  0  0  0  0  0  0  0
  139.7227   66.9243  226.1450 H   0  0  0  0  0  0  0  0  0  0  0  0
  140.9209   67.4404  228.2247 H   0  0  0  0  0  0  0  0  0  0  0  0
  141.5940   69.7662  228.7390 H   0  0  0  0  0  0  0  0  0  0  0  0
  142.2160   75.2680  222.3450 H   0  0  0  0  0  0  0  0  0  0  0  0
  142.0308   77.3043  221.0442 H   0  0  0  0  0  0  0  0  0  0  0  0
  140.4422   76.6468  220.3787 H   0  0  0  0  0  0  0  0  0  0  0  0
  139.3880   77.9646  221.6999 H   0  0  0  0  0  0  0  0  0  0  0  0
  140.0944   77.0044  223.0911 H   0  0  0  0  0  0  0  0  0  0  0  0
  142.9673   78.2909  222.0134 H   0  0  0  0  0  0  0  0  0  0  0  0
  144.0776   80.3048  222.8566 H   0  0  0  0  0  0  0  0  0  0  0  0
  142.7567   82.0526  224.0527 H   0  0  0  0  0  0  0  0  0  0  0  0
  140.3393   81.7030  224.3652 H   0  0  0  0  0  0  0  0  0  0  0  0
  139.2173   79.6760  223.5212 H   0  0  0  0  0  0  0  0  0  0  0  0
  1  2  2  0
  2  3  1  0
  3  4  1  0
  4  5  1  0
  5  6  1  0
  6  7  1  0
  7  8  2  0
  8  9  1  0
  8 10  1  0
 10 11  2  0
 11 12  1  0
 12 13  2  0
 13 14  1  0
  2 15  1  0
 15 16  1  0
 16 17  1  0
 17 18  1  0
 18 19  2  0
 19 20  1  0
 20 21  2  0
 21 22  1  0
 22 23  2  0
 13  7  1  0
 23 18  1  0
  3 24  1  0
  3 25  1  0
  4 26  1  0
  4 27  1  0
  5 28  1  0
  5 29  1  0
 10 30  1  0
 11 31  1  0
 12 32  1  0
 15 33  1  0
 16 34  1  0
 16 35  1  0
 17 36  1  0
 17 37  1  0
 19 38  1  0
 20 39  1  0
 21 40  1  0
 22 41  1  0
 23 42  1  0
M  END
>  <smiles>  (17) 
O=C(CCCOc1c(Cl)cccc1Cl)NCCc1ccccc1

>  <score_type>  (17) 
oracle

>  <origin>  (17) 
autodockgpu

>  <m_score__min__energy>  (17) 
-7.8600000000000003

>  <m_primary>  (17) 
energy

>  <meeko>  (17) 
{"free_energy": -7.66, "intermolecular_energy": -10.04, "internal_energy": -0.67, "cluster_size": 7, "cluster_id": 1, "rank_in_cluster": 4}

>  <energy>  (17) 
-5.79

>  <cluster_rmsd>  (17) 
1.97

>  <rmsd>  (17) 
271.22

>  <cluster>  (17) 
3

$$$$

     RDKit          3D

 42 43  0  0  0  0  0  0  0  0999 V2000
  137.9990   70.7660  224.5910 O   0  0  0  0  0  0  0  0  0  0  0  0
  138.7180   70.2080  223.7300 C   0  0  0  0  0  0  0  0  0  0  0  0
  139.1020   70.7820  222.4300 C   0  0  0  0  0  0  0  0  0  0  0  0
  140.2130   71.7790  222.4790 C   0  0  0  0  0  0  0  0  0  0  0  0
  139.8790   73.0600  221.7520 C   0  0  0  0  0  0  0  0  0  0  0  0
  140.6790   74.1110  222.2680 O   0  0  0  0  0  0  0  0  0  0  0  0
  141.3370   74.9620  221.3930 C   0  0  0  0  0  0  0  0  0  0  0  0
  142.3850   74.5030  220.6160 C   0  0  0  0  0  0  0  0  0  0  0  0
  142.9060   72.8430  220.7190 Cl  0  0  0  0  0  0  0  0  0  0  0  0
  142.9930   75.4180  219.7640 C   0  0  0  0  0  0  0  0  0  0  0  0
  142.5790   76.7270  219.6860 C   0  0  0  0  0  0  0  0  0  0  0  0
  141.5390   77.1730  220.4610 C   0  0  0  0  0  0  0  0  0  0  0  0
  140.9130   76.2830  221.3210 C   0  0  0  0  0  0  0  0  0  0  0  0
  139.5740   76.8690  222.3120 Cl  0  0  0  0  0  0  0  0  0  0  0  0
  139.2020   68.9050  224.0460 N   0  0  0  0  0  0  0  0  0  0  0  0
  138.8320   68.3410  225.3070 C   0  0  0  0  0  0  0  0  0  0  0  0
  139.8830   68.3820  226.3660 C   0  0  0  0  0  0  0  0  0  0  0  0
  140.3170   69.7310  226.7270 C   0  0  0  0  0  0  0  0  0  0  0  0
  141.0830   70.5610  225.9450 C   0  0  0  0  0  0  0  0  0  0  0  0
  141.4670   71.8270  226.3260 C   0  0  0  0  0  0  0  0  0  0  0  0
  141.0780   72.3220  227.5530 C   0  0  0  0  0  0  0  0  0  0  0  0
  140.3170   71.5260  228.3550 C   0  0  0  0  0  0  0  0  0  0  0  0
  139.9310   70.2490  227.9680 C   0  0  0  0  0  0  0  0  0  0  0  0
  139.4136   69.9571  221.7724 H   0  0  0  0  0  0  0  0  0  0  0  0
  138.2191   71.3262  222.0635 H   0  0  0  0  0  0  0  0  0  0  0  0
  140.4261   72.0170  223.5316 H   0  0  0  0  0  0  0  0  0  0  0  0
  141.0841   71.3306  221.9790 H   0  0  0  0  0  0  0  0  0  0  0  0
  140.0814   72.9369  220.6778 H   0  0  0  0  0  0  0  0  0  0  0  0
  138.8153   73.3002  221.8961 H   0  0  0  0  0  0  0  0  0  0  0  0
  143.8304   75.0849  219.1333 H   0  0  0  0  0  0  0  0  0  0  0  0
  143.0849   77.4204  218.9981 H   0  0  0  0  0  0  0  0  0  0  0  0
  141.2067   78.2199  220.4014 H   0  0  0  0  0  0  0  0  0  0  0  0
  139.8040   68.4030  223.3570 H   0  0  0  0  0  0  0  0  0  0  0  0
  137.9551   68.8909  225.6793 H   0  0  0  0  0  0  0  0  0  0  0  0
  138.6404   67.2750  225.1148 H   0  0  0  0  0  0  0  0  0  0  0  0
  139.4834   67.8951  227.2678 H   0  0  0  0  0  0  0  0  0  0  0  0
  140.7639   67.8649  225.9577 H   0  0  0  0  0  0  0  0  0  0  0  0
  141.4074   70.1938  224.9601 H   0  0  0  0  0  0  0  0  0  0  0  0
  142.0826   72.4422  225.6533 H   0  0  0  0  0  0  0  0  0  0  0  0
  141.3739   73.3313  227.8751 H   0  0  0  0  0  0  0  0  0  0  0  0
  139.9991   71.9055  229.3373 H   0  0  0  0  0  0  0  0  0  0  0  0
  139.3151   69.6384  228.6446 H   0  0  0  0  0  0  0  0  0  0  0  0
  1  2  2  0
  2  3  1  0
  3  4  1  0
  4  5  1  0
  5  6  1  0
  6  7  1  0
  7  8  2  0
  8  9  1  0
  8 10  1  0
 10 11  2  0
 11 12  1  0
 12 13  2  0
 13 14  1  0
  2 15  1  0
 15 16  1  0
 16 17  1  0
 17 18  1  0
 18 19  2  0
 19 20  1  0
 20 21  2  0
 21 22  1  0
 22 23  2  0
 13  7  1  0
 23 18  1  0
  3 24  1  0
  3 25  1  0
  4 26  1  0
  4 27  1  0
  5 28  1  0
  5 29  1  0
 10 30  1  0
 11 31  1  0
 12 32  1  0
 15 33  1  0
 16 34  1  0
 16 35  1  0
 17 36  1  0
 17 37  1  0
 19 38  1  0
 20 39  1  0
 21 40  1  0
 22 41  1  0
 23 42  1  0
M  END
>  <smiles>  (18) 
O=C(CCCOc1c(Cl)cccc1Cl)NCCc1ccccc1

>  <score_type>  (18) 
oracle

>  <origin>  (18) 
autodockgpu

>  <m_score__min__energy>  (18) 
-7.8600000000000003

>  <m_primary>  (18) 
energy

>  <meeko>  (18) 
{"free_energy": -6.98, "intermolecular_energy": -9.37, "internal_energy": -1.07, "cluster_size": 9, "cluster_id": 3, "rank_in_cluster": 1}

>  <energy>  (18) 
-6.02

>  <cluster_rmsd>  (18) 
0.0

>  <rmsd>  (18) 
271.32

>  <cluster>  (18) 
4

$$$$

     RDKit          3D

 42 43  0  0  0  0  0  0  0  0999 V2000
  140.8430   73.6110  220.8450 O   0  0  0  0  0  0  0  0  0  0  0  0
  139.9610   73.5290  221.7300 C   0  0  0  0  0  0  0  0  0  0  0  0
  139.3110   72.2880  222.1800 C   0  0  0  0  0  0  0  0  0  0  0  0
  140.2070   71.3130  222.8700 C   0  0  0  0  0  0  0  0  0  0  0  0
  140.5610   71.7400  224.2750 C   0  0  0  0  0  0  0  0  0  0  0  0
  139.6010   71.2160  225.1780 O   0  0  0  0  0  0  0  0  0  0  0  0
  139.9680   70.2100  226.0580 C   0  0  0  0  0  0  0  0  0  0  0  0
  140.6560   70.5060  227.2210 C   0  0  0  0  0  0  0  0  0  0  0  0
  141.0800   72.1520  227.6070 Cl  0  0  0  0  0  0  0  0  0  0  0  0
  140.9870   69.4420  228.0520 C   0  0  0  0  0  0  0  0  0  0  0  0
  140.6500   68.1450  227.7430 C   0  0  0  0  0  0  0  0  0  0  0  0
  139.9690   67.8610  226.5890 C   0  0  0  0  0  0  0  0  0  0  0  0
  139.6250   68.9020  225.7400 C   0  0  0  0  0  0  0  0  0  0  0  0
  138.7450   68.5230  224.2550 Cl  0  0  0  0  0  0  0  0  0  0  0  0
  139.5610   74.7480  222.3520 N   0  0  0  0  0  0  0  0  0  0  0  0
  140.1890   75.9580  221.9200 C   0  0  0  0  0  0  0  0  0  0  0  0
  139.3990   77.2060  222.1300 C   0  0  0  0  0  0  0  0  0  0  0  0
  140.1640   78.3080  222.7120 C   0  0  0  0  0  0  0  0  0  0  0  0
  141.5160   78.3050  222.9480 C   0  0  0  0  0  0  0  0  0  0  0  0
  142.1960   79.3690  223.4990 C   0  0  0  0  0  0  0  0  0  0  0  0
  141.5130   80.5160  223.8430 C   0  0  0  0  0  0  0  0  0  0  0  0
  140.1680   80.5530  223.6230 C   0  0  0  0  0  0  0  0  0  0  0  0
  139.4860   79.4790  223.0670 C   0  0  0  0  0  0  0  0  0  0  0  0
  138.5042   72.5601  222.8764 H   0  0  0  0  0  0  0  0  0  0  0  0
  138.9554   71.7832  221.2696 H   0  0  0  0  0  0  0  0  0  0  0  0
  139.6981   70.3389  222.9159 H   0  0  0  0  0  0  0  0  0  0  0  0
  141.1426   71.2564  222.2942 H   0  0  0  0  0  0  0  0  0  0  0  0
  141.5586   71.3568  224.5355 H   0  0  0  0  0  0  0  0  0  0  0  0
  140.5657   72.8382  224.3371 H   0  0  0  0  0  0  0  0  0  0  0  0
  141.5347   69.6434  228.9844 H   0  0  0  0  0  0  0  0  0  0  0  0
  140.9292   67.3302  228.4272 H   0  0  0  0  0  0  0  0  0  0  0  0
  139.6994   66.8241  226.3398 H   0  0  0  0  0  0  0  0  0  0  0  0
  138.8290   74.7250  223.0950 H   0  0  0  0  0  0  0  0  0  0  0  0
  141.1370   76.0615  222.4683 H   0  0  0  0  0  0  0  0  0  0  0  0
  140.3126   75.8603  220.8313 H   0  0  0  0  0  0  0  0  0  0  0  0
  139.0072   77.5344  221.1560 H   0  0  0  0  0  0  0  0  0  0  0  0
  138.6029   76.9595  222.8480 H   0  0  0  0  0  0  0  0  0  0  0  0
  142.0880   77.4037  222.6827 H   0  0  0  0  0  0  0  0  0  0  0  0
  143.2816   79.3034  223.6641 H   0  0  0  0  0  0  0  0  0  0  0  0
  142.0382   81.3768  224.2825 H   0  0  0  0  0  0  0  0  0  0  0  0
  139.6071   81.4597  223.8937 H   0  0  0  0  0  0  0  0  0  0  0  0
  138.4005   79.5497  222.9038 H   0  0  0  0  0  0  0  0  0  0  0  0
  1  2  2  0
  2  3  1  0
  3  4  1  0
  4  5  1  0
  5  6  1  0
  6  7  1  0
  7  8  2  0
  8  9  1  0
  8 10  1  0
 10 11  2  0
 11 12  1  0
 12 13  2  0
 13 14  1  0
  2 15  1  0
 15 16  1  0
 16 17  1  0
 17 18  1  0
 18 19  2  0
 19 20  1  0
 20 21  2  0
 21 22  1  0
 22 23  2  0
 13  7  1  0
 23 18  1  0
  3 24  1  0
  3 25  1  0
  4 26  1  0
  4 27  1  0
  5 28  1  0
  5 29  1  0
 10 30  1  0
 11 31  1  0
 12 32  1  0
 15 33  1  0
 16 34  1  0
 16 35  1  0
 17 36  1  0
 17 37  1  0
 19 38  1  0
 20 39  1  0
 21 40  1  0
 22 41  1  0
 23 42  1  0
M  END
>  <smiles>  (19) 
O=C(CCCOc1c(Cl)cccc1Cl)NCCc1ccccc1

>  <score_type>  (19) 
oracle

>  <origin>  (19) 
autodockgpu

>  <m_score__min__energy>  (19) 
-7.8600000000000003

>  <m_primary>  (19) 
energy

>  <meeko>  (19) 
{"free_energy": -7.65, "intermolecular_energy": -10.04, "internal_energy": -0.76, "cluster_size": 7, "cluster_id": 1, "rank_in_cluster": 5}

>  <energy>  (19) 
-5.98

>  <cluster_rmsd>  (19) 
0.54

>  <rmsd>  (19) 
271.37

>  <cluster>  (19) 
4

$$$$

     RDKit          3D

 42 43  0  0  0  0  0  0  0  0999 V2000
  138.6670   68.8730  224.1440 O   0  0  0  0  0  0  0  0  0  0  0  0
  137.8580   69.8190  224.2810 C   0  0  0  0  0  0  0  0  0  0  0  0
  136.3990   69.6860  224.4270 C   0  0  0  0  0  0  0  0  0  0  0  0
  135.5970   70.1630  223.2610 C   0  0  0  0  0  0  0  0  0  0  0  0
  135.2970   71.6420  223.3260 C   0  0  0  0  0  0  0  0  0  0  0  0
  135.6120   72.1250  224.6210 O   0  0  0  0  0  0  0  0  0  0  0  0
  134.6590   72.8360  225.3360 C   0  0  0  0  0  0  0  0  0  0  0  0
  133.8260   72.1920  226.2340 C   0  0  0  0  0  0  0  0  0  0  0  0
  133.9520   70.4730  226.4860 Cl  0  0  0  0  0  0  0  0  0  0  0  0
  132.8990   72.9740  226.9110 C   0  0  0  0  0  0  0  0  0  0  0  0
  132.8020   74.3310  226.7090 C   0  0  0  0  0  0  0  0  0  0  0  0
  133.6320   74.9600  225.8170 C   0  0  0  0  0  0  0  0  0  0  0  0
  134.5680   74.2060  225.1260 C   0  0  0  0  0  0  0  0  0  0  0  0
  135.6330   75.0270  223.9800 Cl  0  0  0  0  0  0  0  0  0  0  0  0
  138.4060   71.1350  224.3000 N   0  0  0  0  0  0  0  0  0  0  0  0
  139.8230   71.2720  224.1590 C   0  0  0  0  0  0  0  0  0  0  0  0
  140.5780   71.5020  225.4260 C   0  0  0  0  0  0  0  0  0  0  0  0
  140.5240   70.3850  226.3670 C   0  0  0  0  0  0  0  0  0  0  0  0
  139.9670   70.4230  227.6220 C   0  0  0  0  0  0  0  0  0  0  0  0
  139.9380   69.3430  228.4750 C   0  0  0  0  0  0  0  0  0  0  0  0
  140.4870   68.1410  228.0810 C   0  0  0  0  0  0  0  0  0  0  0  0
  141.0490   68.0680  226.8420 C   0  0  0  0  0  0  0  0  0  0  0  0
  141.0770   69.1580  225.9830 C   0  0  0  0  0  0  0  0  0  0  0  0
  136.1685   68.6223  224.5862 H   0  0  0  0  0  0  0  0  0  0  0  0
  136.1173   70.3283  225.2744 H   0  0  0  0  0  0  0  0  0  0  0  0
  136.1607   69.9584  222.3388 H   0  0  0  0  0  0  0  0  0  0  0  0
  134.6360   69.6279  223.2774 H   0  0  0  0  0  0  0  0  0  0  0  0
  135.9030   72.1736  222.5776 H   0  0  0  0  0  0  0  0  0  0  0  0
  134.2305   71.8123  223.1174 H   0  0  0  0  0  0  0  0  0  0  0  0
  132.2211   72.4929  227.6314 H   0  0  0  0  0  0  0  0  0  0  0  0
  132.0545   74.9149  227.2661 H   0  0  0  0  0  0  0  0  0  0  0  0
  133.5564   76.0450  225.6524 H   0  0  0  0  0  0  0  0  0  0  0  0
  137.7680   71.9520  224.4120 H   0  0  0  0  0  0  0  0  0  0  0  0
  140.2079   70.3503  223.6982 H   0  0  0  0  0  0  0  0  0  0  0  0
  139.9788   72.1733  223.5480 H   0  0  0  0  0  0  0  0  0  0  0  0
  141.6318   71.6874  225.1708 H   0  0  0  0  0  0  0  0  0  0  0  0
  140.1032   72.3593  225.9256 H   0  0  0  0  0  0  0  0  0  0  0  0
  139.5197   71.3680  227.9640 H   0  0  0  0  0  0  0  0  0  0  0  0
  139.4776   69.4387  229.4694 H   0  0  0  0  0  0  0  0  0  0  0  0
  140.4716   67.2663  228.7478 H   0  0  0  0  0  0  0  0  0  0  0  0
  141.4936   67.1173  226.5127 H   0  0  0  0  0  0  0  0  0  0  0  0
  141.5388   69.0563  224.9898 H   0  0  0  0  0  0  0  0  0  0  0  0
  1  2  2  0
  2  3  1  0
  3  4  1  0
  4  5  1  0
  5  6  1  0
  6  7  1  0
  7  8  2  0
  8  9  1  0
  8 10  1  0
 10 11  2  0
 11 12  1  0
 12 13  2  0
 13 14  1  0
  2 15  1  0
 15 16  1  0
 16 17  1  0
 17 18  1  0
 18 19  2  0
 19 20  1  0
 20 21  2  0
 21 22  1  0
 22 23  2  0
 13  7  1  0
 23 18  1  0
  3 24  1  0
  3 25  1  0
  4 26  1  0
  4 27  1  0
  5 28  1  0
  5 29  1  0
 10 30  1  0
 11 31  1  0
 12 32  1  0
 15 33  1  0
 16 34  1  0
 16 35  1  0
 17 36  1  0
 17 37  1  0
 19 38  1  0
 20 39  1  0
 21 40  1  0
 22 41  1  0
 23 42  1  0
M  END
>  <smiles>  (20) 
O=C(CCCOc1c(Cl)cccc1Cl)NCCc1ccccc1

>  <score_type>  (20) 
oracle

>  <origin>  (20) 
autodockgpu

>  <m_score__min__energy>  (20) 
-7.8600000000000003

>  <m_primary>  (20) 
energy

>  <meeko>  (20) 
{"free_energy": -6.02, "intermolecular_energy": -8.41, "internal_energy": -1.99, "cluster_size": 2, "cluster_id": 4, "rank_in_cluster": 1}

>  <energy>  (20) 
-5.58

>  <cluster_rmsd>  (20) 
0.0

>  <rmsd>  (20) 
271.07

>  <cluster>  (20) 
5

$$$$
