
     RDKit          3D

 41 42  0  0  0  0  0  0  0  0999 V2000
  140.3570   73.3950  222.3320 O   0  0  0  0  0  0  0  0  0  0  0  0
  139.7950   74.2200  221.5820 C   0  0  0  0  0  0  0  0  0  0  0  0
  138.3450   74.4100  221.4250 C   0  0  0  0  0  0  0  0  0  0  0  0
  137.8930   75.6330  222.1710 C   0  0  0  0  0  0  0  0  0  0  0  0
  137.8420   76.8860  221.3680 C   0  0  0  0  0  0  0  0  0  0  0  0
  139.0960   77.3750  221.0550 O   0  0  0  0  0  0  0  0  0  0  0  0
  139.9150   78.1690  221.7850 C   0  0  0  0  0  0  0  0  0  0  0  0
  139.7400   78.6260  223.0540 C   0  0  0  0  0  0  0  0  0  0  0  0
  140.6830   79.4430  223.6850 C   0  0  0  0  0  0  0  0  0  0  0  0
  141.8350   79.8230  223.0480 C   0  0  0  0  0  0  0  0  0  0  0  0
  142.9840   80.8440  223.8780 Cl  0  0  0  0  0  0  0  0  0  0  0  0
  142.0320   79.3690  221.7640 C   0  0  0  0  0  0  0  0  0  0  0  0
  141.1060   78.5720  221.1530 C   0  0  0  0  0  0  0  0  0  0  0  0
  141.4590   78.0480  219.5080 Cl  0  0  0  0  0  0  0  0  0  0  0  0
  140.6560   75.0580  220.7990 N   0  0  0  0  0  0  0  0  0  0  0  0
  142.0900   74.9720  220.8590 C   0  0  0  0  0  0  0  0  0  0  0  0
  142.7430   74.6760  219.5280 C   0  0  0  0  0  0  0  0  0  0  0  0
  144.0250   73.9080  219.7290 C   0  0  0  0  0  0  0  0  0  0  0  0
  145.0650   74.4330  220.4770 C   0  0  0  0  0  0  0  0  0  0  0  0
  146.2250   73.7090  220.6440 C   0  0  0  0  0  0  0  0  0  0  0  0
  146.3280   72.4820  220.0700 N   0  0  0  0  0  0  0  0  0  0  0  0
  145.3200   71.9690  219.3430 C   0  0  0  0  0  0  0  0  0  0  0  0
  145.4660   70.3850  218.6070 Cl  0  0  0  0  0  0  0  0  0  0  0  0
  144.1290   72.6480  219.1380 C   0  0  0  0  0  0  0  0  0  0  0  0
  138.1086   74.5288  220.3573 H   0  0  0  0  0  0  0  0  0  0  0  0
  137.8239   73.5310  221.8322 H   0  0  0  0  0  0  0  0  0  0  0  0
  136.8834   75.4387  222.5620 H   0  0  0  0  0  0  0  0  0  0  0  0
  138.6442   75.8053  222.9559 H   0  0  0  0  0  0  0  0  0  0  0  0
  137.3013   76.6815  220.4322 H   0  0  0  0  0  0  0  0  0  0  0  0
  137.3328   77.6478  221.9766 H   0  0  0  0  0  0  0  0  0  0  0  0
  138.8282   78.3441  223.6009 H   0  0  0  0  0  0  0  0  0  0  0  0
  140.4964   79.7874  224.7129 H   0  0  0  0  0  0  0  0  0  0  0  0
  142.9469   79.6515  221.2226 H   0  0  0  0  0  0  0  0  0  0  0  0
  140.2100   75.7730  220.1490 H   0  0  0  0  0  0  0  0  0  0  0  0
  142.4791   75.9318  221.2297 H   0  0  0  0  0  0  0  0  0  0  0  0
  142.3314   74.1317  221.5266 H   0  0  0  0  0  0  0  0  0  0  0  0
  142.0552   74.0779  218.9122 H   0  0  0  0  0  0  0  0  0  0  0  0
  142.9725   75.6267  219.0246 H   0  0  0  0  0  0  0  0  0  0  0  0
  144.9652   75.4270  220.9374 H   0  0  0  0  0  0  0  0  0  0  0  0
  147.0574   74.1192  221.2347 H   0  0  0  0  0  0  0  0  0  0  0  0
  143.3108   72.2173  218.5422 H   0  0  0  0  0  0  0  0  0  0  0  0
  1  2  2  0
  2  3  1  0
  3  4  1  0
  4  5  1  0
  5  6  1  0
  6  7  1  0
  7  8  2  0
  8  9  1  0
  9 10  2  0
 10 11  1  0
 10 12  1  0
 12 13  2  0
 13 14  1  0
  2 15  1  0
 15 16  1  0
 16 17  1  0
 17 18  1  0
 18 19  2  0
 19 20  1  0
 20 21  2  0
 21 22  1  0
 22 23  1  0
 22 24  2  0
 13  7  1  0
 24 18  1  0
  3 25  1  0
  3 26  1  0
  4 27  1  0
  4 28  1  0
  5 29  1  0
  5 30  1  0
  8 31  1  0
  9 32  1  0
 12 33  1  0
 15 34  1  0
 16 35  1  0
 16 36  1  0
 17 37  1  0
 17 38  1  0
 19 39  1  0
 20 40  1  0
 24 41  1  0
M  END
>  <smiles>  (1) 
O=C(CCCOc1ccc(Cl)cc1Cl)NCCc1ccnc(Cl)c1

>  <score_type>  (1) 
oracle

>  <origin>  (1) 
autodockgpu

>  <m_score__min__energy>  (1) 
-7.4299999999999997

>  <m_primary>  (1) 
energy

>  <meeko>  (1) 
{"free_energy": -5.89, "intermolecular_energy": -8.28, "internal_energy": -1.9, "cluster_size": 2, "cluster_id": 5, "rank_in_cluster": 2}

>  <energy>  (1) 
-7.43

>  <cluster_rmsd>  (1) 
0.0

>  <rmsd>  (1) 
272.26

>  <cluster>  (1) 
1

$$$$

     RDKit          3D

 41 42  0  0  0  0  0  0  0  0999 V2000
  138.0560   74.8190  220.3380 O   0  0  0  0  0  0  0  0  0  0  0  0
  138.5150   74.1410  221.2810 C   0  0  0  0  0  0  0  0  0  0  0  0
  138.4500   72.6780  221.4150 C   0  0  0  0  0  0  0  0  0  0  0  0
  139.8060   72.0710  221.1900 C   0  0  0  0  0  0  0  0  0  0  0  0
  140.7370   72.1460  222.3500 C   0  0  0  0  0  0  0  0  0  0  0  0
  140.0800   72.2460  223.5610 O   0  0  0  0  0  0  0  0  0  0  0  0
  140.2450   71.5170  224.6910 C   0  0  0  0  0  0  0  0  0  0  0  0
  141.0330   71.7880  225.7650 C   0  0  0  0  0  0  0  0  0  0  0  0
  141.0990   70.9350  226.8710 C   0  0  0  0  0  0  0  0  0  0  0  0
  140.3660   69.7780  226.9220 C   0  0  0  0  0  0  0  0  0  0  0  0
  140.4810   68.7440  228.3250 Cl  0  0  0  0  0  0  0  0  0  0  0  0
  139.5610   69.4870  225.8450 C   0  0  0  0  0  0  0  0  0  0  0  0
  139.5020   70.3240  224.7670 C   0  0  0  0  0  0  0  0  0  0  0  0
  138.4380   69.8540  223.4420 Cl  0  0  0  0  0  0  0  0  0  0  0  0
  139.1660   74.8700  222.3310 N   0  0  0  0  0  0  0  0  0  0  0  0
  139.2950   76.3020  222.3200 C   0  0  0  0  0  0  0  0  0  0  0  0
  140.7260   76.7890  222.3400 C   0  0  0  0  0  0  0  0  0  0  0  0
  140.7930   78.2000  222.8670 C   0  0  0  0  0  0  0  0  0  0  0  0
  142.0000   78.8720  222.9640 C   0  0  0  0  0  0  0  0  0  0  0  0
  142.0320   80.1610  223.4490 C   0  0  0  0  0  0  0  0  0  0  0  0
  140.8700   80.7560  223.8260 N   0  0  0  0  0  0  0  0  0  0  0  0
  139.6960   80.1070  223.7330 C   0  0  0  0  0  0  0  0  0  0  0  0
  138.2040   80.8850  224.2220 Cl  0  0  0  0  0  0  0  0  0  0  0  0
  139.5980   78.8090  223.2530 C   0  0  0  0  0  0  0  0  0  0  0  0
  138.1014   72.4217  222.4263 H   0  0  0  0  0  0  0  0  0  0  0  0
  137.7521   72.2813  220.6630 H   0  0  0  0  0  0  0  0  0  0  0  0
  139.6655   71.0102  220.9350 H   0  0  0  0  0  0  0  0  0  0  0  0
  140.2731   72.6592  220.3864 H   0  0  0  0  0  0  0  0  0  0  0  0
  141.3575   71.2378  222.3613 H   0  0  0  0  0  0  0  0  0  0  0  0
  141.3441   73.0551  222.2278 H   0  0  0  0  0  0  0  0  0  0  0  0
  141.6376   72.7070  225.7640 H   0  0  0  0  0  0  0  0  0  0  0  0
  141.7518   71.1976  227.7165 H   0  0  0  0  0  0  0  0  0  0  0  0
  138.9567   68.5679  225.8520 H   0  0  0  0  0  0  0  0  0  0  0  0
  139.5690   74.3220  223.1490 H   0  0  0  0  0  0  0  0  0  0  0  0
  138.8112   76.6862  221.4099 H   0  0  0  0  0  0  0  0  0  0  0  0
  138.8192   76.6722  223.2401 H   0  0  0  0  0  0  0  0  0  0  0  0
  141.3238   76.1312  222.9880 H   0  0  0  0  0  0  0  0  0  0  0  0
  141.1235   76.7716  221.3145 H   0  0  0  0  0  0  0  0  0  0  0  0
  142.9322   78.3770  222.6541 H   0  0  0  0  0  0  0  0  0  0  0  0
  142.9864   80.7019  223.5301 H   0  0  0  0  0  0  0  0  0  0  0  0
  138.6317   78.2885  223.1806 H   0  0  0  0  0  0  0  0  0  0  0  0
  1  2  2  0
  2  3  1  0
  3  4  1  0
  4  5  1  0
  5  6  1  0
  6  7  1  0
  7  8  2  0
  8  9  1  0
  9 10  2  0
 10 11  1  0
 10 12  1  0
 12 13  2  0
 13 14  1  0
  2 15  1  0
 15 16  1  0
 16 17  1  0
 17 18  1  0
 18 19  2  0
 19 20  1  0
 20 21  2  0
 21 22  1  0
 22 23  1  0
 22 24  2  0
 13  7  1  0
 24 18  1  0
  3 25  1  0
  3 26  1  0
  4 27  1  0
  4 28  1  0
  5 29  1  0
  5 30  1  0
  8 31  1  0
  9 32  1  0
 12 33  1  0
 15 34  1  0
 16 35  1  0
 16 36  1  0
 17 37  1  0
 17 38  1  0
 19 39  1  0
 20 40  1  0
 24 41  1  0
M  END
>  <smiles>  (2) 
O=C(CCCOc1ccc(Cl)cc1Cl)NCCc1ccnc(Cl)c1

>  <score_type>  (2) 
oracle

>  <origin>  (2) 
autodockgpu

>  <m_score__min__energy>  (2) 
-7.4299999999999997

>  <m_primary>  (2) 
energy

>  <meeko>  (2) 
{"free_energy": -6.71, "intermolecular_energy": -9.09, "internal_energy": -1.49, "cluster_size": 4, "cluster_id": 3, "rank_in_cluster": 3}

>  <energy>  (2) 
-7.02

>  <cluster_rmsd>  (2) 
1.69

>  <rmsd>  (2) 
272.23

>  <cluster>  (2) 
1

$$$$

     RDKit          3D

 41 42  0  0  0  0  0  0  0  0999 V2000
  138.8500   77.8770  222.2590 O   0  0  0  0  0  0  0  0  0  0  0  0
  139.2640   76.7000  222.3010 C   0  0  0  0  0  0  0  0  0  0  0  0
  140.6260   76.2420  221.9820 C   0  0  0  0  0  0  0  0  0  0  0  0
  140.5780   75.0810  221.0310 C   0  0  0  0  0  0  0  0  0  0  0  0
  140.8660   73.7500  221.6350 C   0  0  0  0  0  0  0  0  0  0  0  0
  139.7980   73.2440  222.3510 O   0  0  0  0  0  0  0  0  0  0  0  0
  139.7670   72.2220  223.2390 C   0  0  0  0  0  0  0  0  0  0  0  0
  140.7080   71.8670  224.1550 C   0  0  0  0  0  0  0  0  0  0  0  0
  140.5330   70.7800  225.0160 C   0  0  0  0  0  0  0  0  0  0  0  0
  139.3970   70.0150  224.9750 C   0  0  0  0  0  0  0  0  0  0  0  0
  139.2240   68.6660  226.0710 Cl  0  0  0  0  0  0  0  0  0  0  0  0
  138.4320   70.3580  224.0560 C   0  0  0  0  0  0  0  0  0  0  0  0
  138.6090   71.4220  223.2170 C   0  0  0  0  0  0  0  0  0  0  0  0
  137.3090   71.7720  222.0800 Cl  0  0  0  0  0  0  0  0  0  0  0  0
  138.3120   75.7030  222.6990 N   0  0  0  0  0  0  0  0  0  0  0  0
  136.9500   76.0190  223.0350 C   0  0  0  0  0  0  0  0  0  0  0  0
  135.9850   74.8750  222.8260 C   0  0  0  0  0  0  0  0  0  0  0  0
  135.2180   74.5950  224.0930 C   0  0  0  0  0  0  0  0  0  0  0  0
  134.9600   73.2980  224.5030 C   0  0  0  0  0  0  0  0  0  0  0  0
  134.2560   73.0720  225.6650 C   0  0  0  0  0  0  0  0  0  0  0  0
  133.8250   74.1330  226.3950 N   0  0  0  0  0  0  0  0  0  0  0  0
  134.0740   75.3950  226.0000 C   0  0  0  0  0  0  0  0  0  0  0  0
  133.5120   76.7550  226.9510 Cl  0  0  0  0  0  0  0  0  0  0  0  0
  134.7760   75.6870  224.8410 C   0  0  0  0  0  0  0  0  0  0  0  0
  141.1868   77.0672  221.5187 H   0  0  0  0  0  0  0  0  0  0  0  0
  141.1219   75.9227  222.9105 H   0  0  0  0  0  0  0  0  0  0  0  0
  139.5704   75.0436  220.5912 H   0  0  0  0  0  0  0  0  0  0  0  0
  141.3748   75.2589  220.2938 H   0  0  0  0  0  0  0  0  0  0  0  0
  141.1141   73.0444  220.8284 H   0  0  0  0  0  0  0  0  0  0  0  0
  141.7034   73.8791  222.3365 H   0  0  0  0  0  0  0  0  0  0  0  0
  141.6360   72.4540  224.2201 H   0  0  0  0  0  0  0  0  0  0  0  0
  141.3229   70.5338  225.7409 H   0  0  0  0  0  0  0  0  0  0  0  0
  137.5057   69.7678  223.9959 H   0  0  0  0  0  0  0  0  0  0  0  0
  138.6320   74.6900  222.7450 H   0  0  0  0  0  0  0  0  0  0  0  0
  136.9142   76.3128  224.0944 H   0  0  0  0  0  0  0  0  0  0  0  0
  136.6351   76.8288  222.3604 H   0  0  0  0  0  0  0  0  0  0  0  0
  135.2782   75.1389  222.0255 H   0  0  0  0  0  0  0  0  0  0  0  0
  136.5536   73.9755  222.5475 H   0  0  0  0  0  0  0  0  0  0  0  0
  135.3169   72.4490  223.9014 H   0  0  0  0  0  0  0  0  0  0  0  0
  134.0454   72.0449  225.9976 H   0  0  0  0  0  0  0  0  0  0  0  0
  134.9738   76.7228  224.5280 H   0  0  0  0  0  0  0  0  0  0  0  0
  1  2  2  0
  2  3  1  0
  3  4  1  0
  4  5  1  0
  5  6  1  0
  6  7  1  0
  7  8  2  0
  8  9  1  0
  9 10  2  0
 10 11  1  0
 10 12  1  0
 12 13  2  0
 13 14  1  0
  2 15  1  0
 15 16  1  0
 16 17  1  0
 17 18  1  0
 18 19  2  0
 19 20  1  0
 20 21  2  0
 21 22  1  0
 22 23  1  0
 22 24  2  0
 13  7  1  0
 24 18  1  0
  3 25  1  0
  3 26  1  0
  4 27  1  0
  4 28  1  0
  5 29  1  0
  5 30  1  0
  8 31  1  0
  9 32  1  0
 12 33  1  0
 15 34  1  0
 16 35  1  0
 16 36  1  0
 17 37  1  0
 17 38  1  0
 19 39  1  0
 20 40  1  0
 24 41  1  0
M  END
>  <smiles>  (3) 
O=C(CCCOc1ccc(Cl)cc1Cl)NCCc1ccnc(Cl)c1

>  <score_type>  (3) 
oracle

>  <origin>  (3) 
autodockgpu

>  <m_score__min__energy>  (3) 
-7.4299999999999997

>  <m_primary>  (3) 
energy

>  <meeko>  (3) 
{"free_energy": -5.76, "intermolecular_energy": -8.15, "internal_energy": -2.01, "cluster_size": 1, "cluster_id": 7, "rank_in_cluster": 1}

>  <energy>  (3) 
-7.02

>  <cluster_rmsd>  (3) 
0.0

>  <rmsd>  (3) 
272.01

>  <cluster>  (3) 
2

$$$$

     RDKit          3D

 41 42  0  0  0  0  0  0  0  0999 V2000
  141.8220   78.5050  224.5040 O   0  0  0  0  0  0  0  0  0  0  0  0
  141.7660   78.2730  223.2790 C   0  0  0  0  0  0  0  0  0  0  0  0
  140.9850   77.2110  222.6260 C   0  0  0  0  0  0  0  0  0  0  0  0
  139.6150   77.7130  222.2690 C   0  0  0  0  0  0  0  0  0  0  0  0
  139.5130   78.4090  220.9570 C   0  0  0  0  0  0  0  0  0  0  0  0
  140.7120   78.4380  220.2700 O   0  0  0  0  0  0  0  0  0  0  0  0
  141.2550   79.4350  219.5320 C   0  0  0  0  0  0  0  0  0  0  0  0
  140.9130   80.7510  219.5050 C   0  0  0  0  0  0  0  0  0  0  0  0
  141.5720   81.6730  218.6870 C   0  0  0  0  0  0  0  0  0  0  0  0
  142.6020   81.2880  217.8680 C   0  0  0  0  0  0  0  0  0  0  0  0
  143.3960   82.4770  216.8640 Cl  0  0  0  0  0  0  0  0  0  0  0  0
  142.9640   79.9610  217.8820 C   0  0  0  0  0  0  0  0  0  0  0  0
  142.3150   79.0650  218.6830 C   0  0  0  0  0  0  0  0  0  0  0  0
  142.8610   77.3910  218.6210 Cl  0  0  0  0  0  0  0  0  0  0  0  0
  142.5430   79.1330  222.4320 N   0  0  0  0  0  0  0  0  0  0  0  0
  143.3490   80.2070  222.9450 C   0  0  0  0  0  0  0  0  0  0  0  0
  142.5900   81.1830  223.8140 C   0  0  0  0  0  0  0  0  0  0  0  0
  141.2610   81.5210  223.1890 C   0  0  0  0  0  0  0  0  0  0  0  0
  141.1670   82.4360  222.1540 C   0  0  0  0  0  0  0  0  0  0  0  0
  139.9380   82.7250  221.6020 C   0  0  0  0  0  0  0  0  0  0  0  0
  138.8320   82.1030  222.0850 N   0  0  0  0  0  0  0  0  0  0  0  0
  138.9190   81.2130  223.0900 C   0  0  0  0  0  0  0  0  0  0  0  0
  137.4840   80.4180  223.7040 Cl  0  0  0  0  0  0  0  0  0  0  0  0
  140.1250   80.8800  223.6870 C   0  0  0  0  0  0  0  0  0  0  0  0
  141.5036   76.8905  221.7104 H   0  0  0  0  0  0  0  0  0  0  0  0
  140.8849   76.3634  223.3200 H   0  0  0  0  0  0  0  0  0  0  0  0
  138.9318   76.8511  222.2502 H   0  0  0  0  0  0  0  0  0  0  0  0
  139.3584   78.4632  223.0314 H   0  0  0  0  0  0  0  0  0  0  0  0
  138.7670   77.8871  220.3396 H   0  0  0  0  0  0  0  0  0  0  0  0
  139.2214   79.4506  221.1571 H   0  0  0  0  0  0  0  0  0  0  0  0
  140.0915   81.1010  220.1474 H   0  0  0  0  0  0  0  0  0  0  0  0
  141.2584   82.7273  218.7005 H   0  0  0  0  0  0  0  0  0  0  0  0
  143.7876   79.6166  217.2392 H   0  0  0  0  0  0  0  0  0  0  0  0
  142.5170   78.9640  221.3820 H   0  0  0  0  0  0  0  0  0  0  0  0
  144.1642   79.7730  223.5426 H   0  0  0  0  0  0  0  0  0  0  0  0
  143.7163   80.7728  222.0762 H   0  0  0  0  0  0  0  0  0  0  0  0
  142.4210   80.7320  224.8029 H   0  0  0  0  0  0  0  0  0  0  0  0
  143.1813   82.1051  223.9146 H   0  0  0  0  0  0  0  0  0  0  0  0
  142.0722   82.9315  221.7730 H   0  0  0  0  0  0  0  0  0  0  0  0
  139.8540   83.4510  220.7799 H   0  0  0  0  0  0  0  0  0  0  0  0
  140.1838   80.1506  224.5082 H   0  0  0  0  0  0  0  0  0  0  0  0
  1  2  2  0
  2  3  1  0
  3  4  1  0
  4  5  1  0
  5  6  1  0
  6  7  1  0
  7  8  2  0
  8  9  1  0
  9 10  2  0
 10 11  1  0
 10 12  1  0
 12 13  2  0
 13 14  1  0
  2 15  1  0
 15 16  1  0
 16 17  1  0
 17 18  1  0
 18 19  2  0
 19 20  1  0
 20 21  2  0
 21 22  1  0
 22 23  1  0
 22 24  2  0
 13  7  1  0
 24 18  1  0
  3 25  1  0
  3 26  1  0
  4 27  1  0
  4 28  1  0
  5 29  1  0
  5 30  1  0
  8 31  1  0
  9 32  1  0
 12 33  1  0
 15 34  1  0
 16 35  1  0
 16 36  1  0
 17 37  1  0
 17 38  1  0
 19 39  1  0
 20 40  1  0
 24 41  1  0
M  END
>  <smiles>  (4) 
O=C(CCCOc1ccc(Cl)cc1Cl)NCCc1ccnc(Cl)c1

>  <score_type>  (4) 
oracle

>  <origin>  (4) 
autodockgpu

>  <m_score__min__energy>  (4) 
-7.4299999999999997

>  <m_primary>  (4) 
energy

>  <meeko>  (4) 
{"free_energy": -4.82, "intermolecular_energy": -7.21, "internal_energy": -2.75, "cluster_size": 1, "cluster_id": 10, "rank_in_cluster": 1}

>  <energy>  (4) 
-7.0

>  <cluster_rmsd>  (4) 
1.18

>  <rmsd>  (4) 
271.88

>  <cluster>  (4) 
2

$$$$

     RDKit          3D

 41 42  0  0  0  0  0  0  0  0999 V2000
  138.6510   74.3120  219.7910 O   0  0  0  0  0  0  0  0  0  0  0  0
  138.7490   73.6760  220.8600 C   0  0  0  0  0  0  0  0  0  0  0  0
  138.7210   72.2130  221.0120 C   0  0  0  0  0  0  0  0  0  0  0  0
  140.0970   71.6910  221.3090 C   0  0  0  0  0  0  0  0  0  0  0  0
  140.7430   72.2560  222.5260 C   0  0  0  0  0  0  0  0  0  0  0  0
  139.9550   72.1410  223.6550 O   0  0  0  0  0  0  0  0  0  0  0  0
  140.1600   71.4080  224.7750 C   0  0  0  0  0  0  0  0  0  0  0  0
  140.9650   71.6890  225.8350 C   0  0  0  0  0  0  0  0  0  0  0  0
  141.0740   70.8300  226.9330 C   0  0  0  0  0  0  0  0  0  0  0  0
  140.3660   69.6570  226.9910 C   0  0  0  0  0  0  0  0  0  0  0  0
  140.5350   68.6170  228.3840 Cl  0  0  0  0  0  0  0  0  0  0  0  0
  139.5450   69.3570  225.9300 C   0  0  0  0  0  0  0  0  0  0  0  0
  139.4440   70.1990  224.8590 C   0  0  0  0  0  0  0  0  0  0  0  0
  138.3620   69.7150  223.5550 Cl  0  0  0  0  0  0  0  0  0  0  0  0
  138.9030   74.4570  222.0540 N   0  0  0  0  0  0  0  0  0  0  0  0
  138.9440   75.8940  222.0430 C   0  0  0  0  0  0  0  0  0  0  0  0
  140.3360   76.4690  222.1770 C   0  0  0  0  0  0  0  0  0  0  0  0
  140.2760   77.8720  222.7250 C   0  0  0  0  0  0  0  0  0  0  0  0
  139.0640   78.4890  222.9850 C   0  0  0  0  0  0  0  0  0  0  0  0
  139.0400   79.7720  223.4850 C   0  0  0  0  0  0  0  0  0  0  0  0
  140.2130   80.4140  223.7190 N   0  0  0  0  0  0  0  0  0  0  0  0
  141.3930   79.8190  223.4690 C   0  0  0  0  0  0  0  0  0  0  0  0
  142.9000   80.6580  223.7750 Cl  0  0  0  0  0  0  0  0  0  0  0  0
  141.4840   78.5300  222.9650 C   0  0  0  0  0  0  0  0  0  0  0  0
  138.0463   71.9474  221.8392 H   0  0  0  0  0  0  0  0  0  0  0  0
  138.3639   71.7636  220.0736 H   0  0  0  0  0  0  0  0  0  0  0  0
  140.0266   70.6007  221.4367 H   0  0  0  0  0  0  0  0  0  0  0  0
  140.7275   71.9956  220.4607 H   0  0  0  0  0  0  0  0  0  0  0  0
  141.6884   71.7218  222.7018 H   0  0  0  0  0  0  0  0  0  0  0  0
  140.9067   73.3286  222.3453 H   0  0  0  0  0  0  0  0  0  0  0  0
  141.5486   72.6214  225.8282 H   0  0  0  0  0  0  0  0  0  0  0  0
  141.7401   71.1002  227.7657 H   0  0  0  0  0  0  0  0  0  0  0  0
  138.9607   68.4251  225.9436 H   0  0  0  0  0  0  0  0  0  0  0  0
  138.9900   73.9460  222.9830 H   0  0  0  0  0  0  0  0  0  0  0  0
  138.5142   76.2453  221.0933 H   0  0  0  0  0  0  0  0  0  0  0  0
  138.3720   76.2361  222.9181 H   0  0  0  0  0  0  0  0  0  0  0  0
  140.9242   75.8383  222.8598 H   0  0  0  0  0  0  0  0  0  0  0  0
  140.8081   76.4944  221.1838 H   0  0  0  0  0  0  0  0  0  0  0  0
  138.1217   77.9552  222.7925 H   0  0  0  0  0  0  0  0  0  0  0  0
  138.0817   80.2707  223.6923 H   0  0  0  0  0  0  0  0  0  0  0  0
  142.4545   78.0523  222.7653 H   0  0  0  0  0  0  0  0  0  0  0  0
  1  2  2  0
  2  3  1  0
  3  4  1  0
  4  5  1  0
  5  6  1  0
  6  7  1  0
  7  8  2  0
  8  9  1  0
  9 10  2  0
 10 11  1  0
 10 12  1  0
 12 13  2  0
 13 14  1  0
  2 15  1  0
 15 16  1  0
 16 17  1  0
 17 18  1  0
 18 19  2  0
 19 20  1  0
 20 21  2  0
 21 22  1  0
 22 23  1  0
 22 24  2  0
 13  7  1  0
 24 18  1  0
  3 25  1  0
  3 26  1  0
  4 27  1  0
  4 28  1  0
  5 29  1  0
  5 30  1  0
  8 31  1  0
  9 32  1  0
 12 33  1  0
 15 34  1  0
 16 35  1  0
 16 36  1  0
 17 37  1  0
 17 38  1  0
 19 39  1  0
 20 40  1  0
 24 41  1  0
M  END
>  <smiles>  (5) 
O=C(CCCOc1ccc(Cl)cc1Cl)NCCc1ccnc(Cl)c1

>  <score_type>  (5) 
oracle

>  <origin>  (5) 
autodockgpu

>  <m_score__min__energy>  (5) 
-7.4299999999999997

>  <m_primary>  (5) 
energy

>  <meeko>  (5) 
{"free_energy": -6.73, "intermolecular_energy": -9.12, "internal_energy": -1.47, "cluster_size": 4, "cluster_id": 3, "rank_in_cluster": 2}

>  <energy>  (5) 
-6.99

>  <cluster_rmsd>  (5) 
0.31

>  <rmsd>  (5) 
271.94

>  <cluster>  (5) 
2

$$$$

     RDKit          3D

 41 42  0  0  0  0  0  0  0  0999 V2000
  136.3950   74.5080  221.2400 O   0  0  0  0  0  0  0  0  0  0  0  0
  137.3190   73.9930  221.9020 C   0  0  0  0  0  0  0  0  0  0  0  0
  138.7440   74.3540  221.8390 C   0  0  0  0  0  0  0  0  0  0  0  0
  139.5760   73.1460  221.5190 C   0  0  0  0  0  0  0  0  0  0  0  0
  140.3280   72.5670  222.6670 C   0  0  0  0  0  0  0  0  0  0  0  0
  139.5480   71.7510  223.4630 O   0  0  0  0  0  0  0  0  0  0  0  0
  139.8750   71.0940  224.6010 C   0  0  0  0  0  0  0  0  0  0  0  0
  140.7680   71.4560  225.5600 C   0  0  0  0  0  0  0  0  0  0  0  0
  141.0010   70.6710  226.6940 C   0  0  0  0  0  0  0  0  0  0  0  0
  140.3320   69.4910  226.8900 C   0  0  0  0  0  0  0  0  0  0  0  0
  140.6560   68.5440  228.3220 Cl  0  0  0  0  0  0  0  0  0  0  0  0
  139.4230   69.1070  225.9320 C   0  0  0  0  0  0  0  0  0  0  0  0
  139.2010   69.8790  224.8260 C   0  0  0  0  0  0  0  0  0  0  0  0
  138.0150   69.2920  223.6630 Cl  0  0  0  0  0  0  0  0  0  0  0  0
  136.9460   72.9470  222.8110 N   0  0  0  0  0  0  0  0  0  0  0  0
  135.5880   72.5010  222.9660 C   0  0  0  0  0  0  0  0  0  0  0  0
  135.3550   71.6680  224.2060 C   0  0  0  0  0  0  0  0  0  0  0  0
  134.5590   72.4480  225.2220 C   0  0  0  0  0  0  0  0  0  0  0  0
  133.8430   71.8060  226.2170 C   0  0  0  0  0  0  0  0  0  0  0  0
  133.1250   72.5450  227.1320 C   0  0  0  0  0  0  0  0  0  0  0  0
  133.1340   73.9000  227.0420 N   0  0  0  0  0  0  0  0  0  0  0  0
  133.8290   74.5270  226.0770 C   0  0  0  0  0  0  0  0  0  0  0  0
  133.8310   76.2760  225.9710 Cl  0  0  0  0  0  0  0  0  0  0  0  0
  134.5700   73.8410  225.1270 C   0  0  0  0  0  0  0  0  0  0  0  0
  138.8914   75.1132  221.0568 H   0  0  0  0  0  0  0  0  0  0  0  0
  139.0547   74.7528  222.8160 H   0  0  0  0  0  0  0  0  0  0  0  0
  138.9066   72.3675  221.1243 H   0  0  0  0  0  0  0  0  0  0  0  0
  140.3352   73.4827  220.7977 H   0  0  0  0  0  0  0  0  0  0  0  0
  141.1678   71.9752  222.2740 H   0  0  0  0  0  0  0  0  0  0  0  0
  140.6742   73.4041  223.2911 H   0  0  0  0  0  0  0  0  0  0  0  0
  141.3254   72.3967  225.4403 H   0  0  0  0  0  0  0  0  0  0  0  0
  141.7344   71.0068  227.4419 H   0  0  0  0  0  0  0  0  0  0  0  0
  138.8672   68.1661  226.0575 H   0  0  0  0  0  0  0  0  0  0  0  0
  137.7100   72.4870  223.3910 H   0  0  0  0  0  0  0  0  0  0  0  0
  134.9363   73.3858  223.0155 H   0  0  0  0  0  0  0  0  0  0  0  0
  135.3622   71.8583  222.1023 H   0  0  0  0  0  0  0  0  0  0  0  0
  134.8007   70.7581  223.9324 H   0  0  0  0  0  0  0  0  0  0  0  0
  136.3280   71.4008  224.6441 H   0  0  0  0  0  0  0  0  0  0  0  0
  133.8470   70.7077  226.2774 H   0  0  0  0  0  0  0  0  0  0  0  0
  132.5516   72.0435  227.9256 H   0  0  0  0  0  0  0  0  0  0  0  0
  135.1351   74.3650  224.3421 H   0  0  0  0  0  0  0  0  0  0  0  0
  1  2  2  0
  2  3  1  0
  3  4  1  0
  4  5  1  0
  5  6  1  0
  6  7  1  0
  7  8  2  0
  8  9  1  0
  9 10  2  0
 10 11  1  0
 10 12  1  0
 12 13  2  0
 13 14  1  0
  2 15  1  0
 15 16  1  0
 16 17  1  0
 17 18  1  0
 18 19  2  0
 19 20  1  0
 20 21  2  0
 21 22  1  0
 22 23  1  0
 22 24  2  0
 13  7  1  0
 24 18  1  0
  3 25  1  0
  3 26  1  0
  4 27  1  0
  4 28  1  0
  5 29  1  0
  5 30  1  0
  8 31  1  0
  9 32  1  0
 12 33  1  0
 15 34  1  0
 16 35  1  0
 16 36  1  0
 17 37  1  0
 17 38  1  0
 19 39  1  0
 20 40  1  0
 24 41  1  0
M  END
>  <smiles>  (6) 
O=C(CCCOc1ccc(Cl)cc1Cl)NCCc1ccnc(Cl)c1

>  <score_type>  (6) 
oracle

>  <origin>  (6) 
autodockgpu

>  <m_score__min__energy>  (6) 
-7.4299999999999997

>  <m_primary>  (6) 
energy

>  <meeko>  (6) 
{"free_energy": -5.91, "intermolecular_energy": -8.3, "internal_energy": -1.9, "cluster_size": 2, "cluster_id": 6, "rank_in_cluster": 2}

>  <energy>  (6) 
-6.57

>  <cluster_rmsd>  (6) 
1.8

>  <rmsd>  (6) 
271.93

>  <cluster>  (6) 
2

$$$$

     RDKit          3D

 41 42  0  0  0  0  0  0  0  0999 V2000
  139.1080   70.5960  221.4550 O   0  0  0  0  0  0  0  0  0  0  0  0
  138.7670   71.7710  221.7020 C   0  0  0  0  0  0  0  0  0  0  0  0
  137.7100   72.5350  221.0220 C   0  0  0  0  0  0  0  0  0  0  0  0
  137.5740   73.9000  221.6340 C   0  0  0  0  0  0  0  0  0  0  0  0
  138.6660   74.8570  221.3040 C   0  0  0  0  0  0  0  0  0  0  0  0
  139.2310   75.4340  222.4250 O   0  0  0  0  0  0  0  0  0  0  0  0
  139.7790   76.6640  222.5740 C   0  0  0  0  0  0  0  0  0  0  0  0
  141.0950   77.0060  222.6050 C   0  0  0  0  0  0  0  0  0  0  0  0
  141.5150   78.3300  222.7630 C   0  0  0  0  0  0  0  0  0  0  0  0
  140.6100   79.3510  222.8960 C   0  0  0  0  0  0  0  0  0  0  0  0
  141.1820   80.9900  223.0910 Cl  0  0  0  0  0  0  0  0  0  0  0  0
  139.2740   79.0260  222.8650 C   0  0  0  0  0  0  0  0  0  0  0  0
  138.8710   77.7300  222.7110 C   0  0  0  0  0  0  0  0  0  0  0  0
  137.1350   77.4270  222.6860 Cl  0  0  0  0  0  0  0  0  0  0  0  0
  139.4840   72.4340  222.7540 N   0  0  0  0  0  0  0  0  0  0  0  0
  140.5400   71.7990  223.4950 C   0  0  0  0  0  0  0  0  0  0  0  0
  140.1030   70.5640  224.2490 C   0  0  0  0  0  0  0  0  0  0  0  0
  140.4820   70.6730  225.7040 C   0  0  0  0  0  0  0  0  0  0  0  0
  140.7450   71.9010  226.2860 C   0  0  0  0  0  0  0  0  0  0  0  0
  141.0900   71.9710  227.6180 C   0  0  0  0  0  0  0  0  0  0  0  0
  141.1650   70.8250  228.3430 N   0  0  0  0  0  0  0  0  0  0  0  0
  140.9110   69.6300  227.7820 C   0  0  0  0  0  0  0  0  0  0  0  0
  141.0120   68.1590  228.7280 Cl  0  0  0  0  0  0  0  0  0  0  0  0
  140.5600   69.4940  226.4470 C   0  0  0  0  0  0  0  0  0  0  0  0
  137.9659   72.6391  219.9573 H   0  0  0  0  0  0  0  0  0  0  0  0
  136.7559   71.9986  221.1309 H   0  0  0  0  0  0  0  0  0  0  0  0
  136.6249   74.3348  221.2874 H   0  0  0  0  0  0  0  0  0  0  0  0
  137.6189   73.7510  222.7229 H   0  0  0  0  0  0  0  0  0  0  0  0
  139.4508   74.3179  220.7531 H   0  0  0  0  0  0  0  0  0  0  0  0
  138.2260   75.6658  220.7021 H   0  0  0  0  0  0  0  0  0  0  0  0
  141.8531   76.2156  222.5025 H   0  0  0  0  0  0  0  0  0  0  0  0
  142.5913   78.5566  222.7809 H   0  0  0  0  0  0  0  0  0  0  0  0
  138.5198   79.8204  222.9656 H   0  0  0  0  0  0  0  0  0  0  0  0
  139.2190   73.4370  222.9910 H   0  0  0  0  0  0  0  0  0  0  0  0
  141.3334   71.5113  222.7895 H   0  0  0  0  0  0  0  0  0  0  0  0
  140.8847   72.5256  224.2454 H   0  0  0  0  0  0  0  0  0  0  0  0
  139.0114   70.4565  224.1662 H   0  0  0  0  0  0  0  0  0  0  0  0
  140.6041   69.6861  223.8153 H   0  0  0  0  0  0  0  0  0  0  0  0
  140.6786   72.8203  225.6855 H   0  0  0  0  0  0  0  0  0  0  0  0
  141.3020   72.9426  228.0882 H   0  0  0  0  0  0  0  0  0  0  0  0
  140.3544   68.5109  225.9984 H   0  0  0  0  0  0  0  0  0  0  0  0
  1  2  2  0
  2  3  1  0
  3  4  1  0
  4  5  1  0
  5  6  1  0
  6  7  1  0
  7  8  2  0
  8  9  1  0
  9 10  2  0
 10 11  1  0
 10 12  1  0
 12 13  2  0
 13 14  1  0
  2 15  1  0
 15 16  1  0
 16 17  1  0
 17 18  1  0
 18 19  2  0
 19 20  1  0
 20 21  2  0
 21 22  1  0
 22 23  1  0
 22 24  2  0
 13  7  1  0
 24 18  1  0
  3 25  1  0
  3 26  1  0
  4 27  1  0
  4 28  1  0
  5 29  1  0
  5 30  1  0
  8 31  1  0
  9 32  1  0
 12 33  1  0
 15 34  1  0
 16 35  1  0
 16 36  1  0
 17 37  1  0
 17 38  1  0
 19 39  1  0
 20 40  1  0
 24 41  1  0
M  END
>  <smiles>  (7) 
O=C(CCCOc1ccc(Cl)cc1Cl)NCCc1ccnc(Cl)c1

>  <score_type>  (7) 
oracle

>  <origin>  (7) 
autodockgpu

>  <m_score__min__energy>  (7) 
-7.4299999999999997

>  <m_primary>  (7) 
energy

>  <meeko>  (7) 
{"free_energy": -6.57, "intermolecular_energy": -8.96, "internal_energy": -1.27, "cluster_size": 5, "cluster_id": 2, "rank_in_cluster": 4}

>  <energy>  (7) 
-6.38

>  <cluster_rmsd>  (7) 
2.0

>  <rmsd>  (7) 
271.59

>  <cluster>  (7) 
2

$$$$

     RDKit          3D

 41 42  0  0  0  0  0  0  0  0999 V2000
  140.7550   74.2620  222.1040 O   0  0  0  0  0  0  0  0  0  0  0  0
  139.5560   74.0250  221.8540 C   0  0  0  0  0  0  0  0  0  0  0  0
  138.6220   74.9070  221.1370 C   0  0  0  0  0  0  0  0  0  0  0  0
  137.4730   75.2880  222.0260 C   0  0  0  0  0  0  0  0  0  0  0  0
  137.7830   76.3110  223.0630 C   0  0  0  0  0  0  0  0  0  0  0  0
  138.2410   77.4990  222.5260 O   0  0  0  0  0  0  0  0  0  0  0  0
  139.3780   78.1820  222.7970 C   0  0  0  0  0  0  0  0  0  0  0  0
  140.6660   77.7660  222.6670 C   0  0  0  0  0  0  0  0  0  0  0  0
  141.7490   78.5920  222.9850 C   0  0  0  0  0  0  0  0  0  0  0  0
  141.5580   79.8690  223.4450 C   0  0  0  0  0  0  0  0  0  0  0  0
  142.9420   80.8630  223.8300 Cl  0  0  0  0  0  0  0  0  0  0  0  0
  140.2620   80.3090  223.5820 C   0  0  0  0  0  0  0  0  0  0  0  0
  139.2090   79.4960  223.2700 C   0  0  0  0  0  0  0  0  0  0  0  0
  137.5910   80.1620  223.4830 Cl  0  0  0  0  0  0  0  0  0  0  0  0
  139.0460   72.7660  222.3170 N   0  0  0  0  0  0  0  0  0  0  0  0
  139.8540   71.8150  223.0310 C   0  0  0  0  0  0  0  0  0  0  0  0
  139.1160   70.5560  223.4260 C   0  0  0  0  0  0  0  0  0  0  0  0
  139.5000   70.1370  224.8230 C   0  0  0  0  0  0  0  0  0  0  0  0
  139.3210   68.8340  225.2540 C   0  0  0  0  0  0  0  0  0  0  0  0
  139.6820   68.4790  226.5360 C   0  0  0  0  0  0  0  0  0  0  0  0
  140.2120   69.4200  227.3590 N   0  0  0  0  0  0  0  0  0  0  0  0
  140.3890   70.6860  226.9430 C   0  0  0  0  0  0  0  0  0  0  0  0
  141.0740   71.8910  228.0150 Cl  0  0  0  0  0  0  0  0  0  0  0  0
  140.0450   71.1060  225.6670 C   0  0  0  0  0  0  0  0  0  0  0  0
  139.1531   75.8171  220.8214 H   0  0  0  0  0  0  0  0  0  0  0  0
  138.2309   74.3730  220.2584 H   0  0  0  0  0  0  0  0  0  0  0  0
  136.6672   75.6825  221.3896 H   0  0  0  0  0  0  0  0  0  0  0  0
  137.1955   74.3748  222.5728 H   0  0  0  0  0  0  0  0  0  0  0  0
  136.8683   76.5156  223.6388 H   0  0  0  0  0  0  0  0  0  0  0  0
  138.5842   75.9051  223.6982 H   0  0  0  0  0  0  0  0  0  0  0  0
  140.8624   76.7477  222.3002 H   0  0  0  0  0  0  0  0  0  0  0  0
  142.7732   78.2096  222.8637 H   0  0  0  0  0  0  0  0  0  0  0  0
  140.0707   81.3287  223.9475 H   0  0  0  0  0  0  0  0  0  0  0  0
  138.0270   72.5310  222.1200 H   0  0  0  0  0  0  0  0  0  0  0  0
  140.7026   71.5322  222.3908 H   0  0  0  0  0  0  0  0  0  0  0  0
  140.1720   72.3038  223.9637 H   0  0  0  0  0  0  0  0  0  0  0  0
  138.0329   70.7442  223.3890 H   0  0  0  0  0  0  0  0  0  0  0  0
  139.3842   69.7510  222.7259 H   0  0  0  0  0  0  0  0  0  0  0  0
  138.8914   68.0831  224.5746 H   0  0  0  0  0  0  0  0  0  0  0  0
  139.5425   67.4462  226.8880 H   0  0  0  0  0  0  0  0  0  0  0  0
  140.1934   72.1452  225.3382 H   0  0  0  0  0  0  0  0  0  0  0  0
  1  2  2  0
  2  3  1  0
  3  4  1  0
  4  5  1  0
  5  6  1  0
  6  7  1  0
  7  8  2  0
  8  9  1  0
  9 10  2  0
 10 11  1  0
 10 12  1  0
 12 13  2  0
 13 14  1  0
  2 15  1  0
 15 16  1  0
 16 17  1  0
 17 18  1  0
 18 19  2  0
 19 20  1  0
 20 21  2  0
 21 22  1  0
 22 23  1  0
 22 24  2  0
 13  7  1  0
 24 18  1  0
  3 25  1  0
  3 26  1  0
  4 27  1  0
  4 28  1  0
  5 29  1  0
  5 30  1  0
  8 31  1  0
  9 32  1  0
 12 33  1  0
 15 34  1  0
 16 35  1  0
 16 36  1  0
 17 37  1  0
 17 38  1  0
 19 39  1  0
 20 40  1  0
 24 41  1  0
M  END
>  <smiles>  (8) 
O=C(CCCOc1ccc(Cl)cc1Cl)NCCc1ccnc(Cl)c1

>  <score_type>  (8) 
oracle

>  <origin>  (8) 
autodockgpu

>  <m_score__min__energy>  (8) 
-7.4299999999999997

>  <m_primary>  (8) 
energy

>  <meeko>  (8) 
{"free_energy": -7.02, "intermolecular_energy": -9.41, "internal_energy": -0.85, "cluster_size": 5, "cluster_id": 2, "rank_in_cluster": 1}

>  <energy>  (8) 
-6.74

>  <cluster_rmsd>  (8) 
0.0

>  <rmsd>  (8) 
271.91

>  <cluster>  (8) 
3

$$$$

     RDKit          3D

 41 42  0  0  0  0  0  0  0  0999 V2000
  138.0850   74.8410  220.3200 O   0  0  0  0  0  0  0  0  0  0  0  0
  138.5340   74.1520  221.2590 C   0  0  0  0  0  0  0  0  0  0  0  0
  138.4790   72.6860  221.3690 C   0  0  0  0  0  0  0  0  0  0  0  0
  139.8400   72.0930  221.1420 C   0  0  0  0  0  0  0  0  0  0  0  0
  140.7570   72.1350  222.3150 C   0  0  0  0  0  0  0  0  0  0  0  0
  140.0860   72.2450  223.5180 O   0  0  0  0  0  0  0  0  0  0  0  0
  140.2390   71.5270  224.6560 C   0  0  0  0  0  0  0  0  0  0  0  0
  141.0170   71.8080  225.7350 C   0  0  0  0  0  0  0  0  0  0  0  0
  141.0720   70.9660  226.8500 C   0  0  0  0  0  0  0  0  0  0  0  0
  140.3370   69.8100  226.9050 C   0  0  0  0  0  0  0  0  0  0  0  0
  140.4380   68.7900  228.3200 Cl  0  0  0  0  0  0  0  0  0  0  0  0
  139.5420   69.5100  225.8240 C   0  0  0  0  0  0  0  0  0  0  0  0
  139.4940   70.3360  224.7370 C   0  0  0  0  0  0  0  0  0  0  0  0
  138.4420   69.8540  223.4080 Cl  0  0  0  0  0  0  0  0  0  0  0  0
  139.1620   74.8690  222.3310 N   0  0  0  0  0  0  0  0  0  0  0  0
  139.2790   76.3020  222.3440 C   0  0  0  0  0  0  0  0  0  0  0  0
  140.7060   76.8010  222.3400 C   0  0  0  0  0  0  0  0  0  0  0  0
  140.7730   78.2100  222.8730 C   0  0  0  0  0  0  0  0  0  0  0  0
  141.9790   78.8810  222.9760 C   0  0  0  0  0  0  0  0  0  0  0  0
  142.0090   80.1680  223.4660 C   0  0  0  0  0  0  0  0  0  0  0  0
  140.8470   80.7620  223.8410 N   0  0  0  0  0  0  0  0  0  0  0  0
  139.6720   80.1140  223.7410 C   0  0  0  0  0  0  0  0  0  0  0  0
  138.1790   80.8910  224.2270 Cl  0  0  0  0  0  0  0  0  0  0  0  0
  139.5760   78.8180  223.2570 C   0  0  0  0  0  0  0  0  0  0  0  0
  138.1267   72.4108  222.3741 H   0  0  0  0  0  0  0  0  0  0  0  0
  137.7882   72.2964  220.6068 H   0  0  0  0  0  0  0  0  0  0  0  0
  139.7078   71.0403  220.8517 H   0  0  0  0  0  0  0  0  0  0  0  0
  140.3139   72.7090  220.3636 H   0  0  0  0  0  0  0  0  0  0  0  0
  141.3524   71.2102  222.3284 H   0  0  0  0  0  0  0  0  0  0  0  0
  141.3904   73.0279  222.2073 H   0  0  0  0  0  0  0  0  0  0  0  0
  141.6222   72.7266  225.7307 H   0  0  0  0  0  0  0  0  0  0  0  0
  141.7171   71.2362  227.6990 H   0  0  0  0  0  0  0  0  0  0  0  0
  138.9361   68.5920  225.8346 H   0  0  0  0  0  0  0  0  0  0  0  0
  139.5570   74.3120  223.1470 H   0  0  0  0  0  0  0  0  0  0  0  0
  138.7710   76.6989  221.4527 H   0  0  0  0  0  0  0  0  0  0  0  0
  138.8218   76.6508  223.2817 H   0  0  0  0  0  0  0  0  0  0  0  0
  141.3210   76.1446  222.9731 H   0  0  0  0  0  0  0  0  0  0  0  0
  141.0835   76.7926  221.3068 H   0  0  0  0  0  0  0  0  0  0  0  0
  142.9122   78.3873  222.6670 H   0  0  0  0  0  0  0  0  0  0  0  0
  142.9633   80.7083  223.5525 H   0  0  0  0  0  0  0  0  0  0  0  0
  138.6100   78.2975  223.1798 H   0  0  0  0  0  0  0  0  0  0  0  0
  1  2  2  0
  2  3  1  0
  3  4  1  0
  4  5  1  0
  5  6  1  0
  6  7  1  0
  7  8  2  0
  8  9  1  0
  9 10  2  0
 10 11  1  0
 10 12  1  0
 12 13  2  0
 13 14  1  0
  2 15  1  0
 15 16  1  0
 16 17  1  0
 17 18  1  0
 18 19  2  0
 19 20  1  0
 20 21  2  0
 21 22  1  0
 22 23  1  0
 22 24  2  0
 13  7  1  0
 24 18  1  0
  3 25  1  0
  3 26  1  0
  4 27  1  0
  4 28  1  0
  5 29  1  0
  5 30  1  0
  8 31  1  0
  9 32  1  0
 12 33  1  0
 15 34  1  0
 16 35  1  0
 16 36  1  0
 17 37  1  0
 17 38  1  0
 19 39  1  0
 20 40  1  0
 24 41  1  0
M  END
>  <smiles>  (9) 
O=C(CCCOc1ccc(Cl)cc1Cl)NCCc1ccnc(Cl)c1

>  <score_type>  (9) 
oracle

>  <origin>  (9) 
autodockgpu

>  <m_score__min__energy>  (9) 
-7.4299999999999997

>  <m_primary>  (9) 
energy

>  <meeko>  (9) 
{"free_energy": -6.7, "intermolecular_energy": -9.08, "internal_energy": -1.5, "cluster_size": 4, "cluster_id": 3, "rank_in_cluster": 4}

>  <energy>  (9) 
-6.73

>  <cluster_rmsd>  (9) 
0.34

>  <rmsd>  (9) 
271.84

>  <cluster>  (9) 
3

$$$$

     RDKit          3D

 41 42  0  0  0  0  0  0  0  0999 V2000
  140.3540   74.1000  222.3380 O   0  0  0  0  0  0  0  0  0  0  0  0
  139.2350   73.6990  221.9560 C   0  0  0  0  0  0  0  0  0  0  0  0
  138.2030   74.5030  221.2840 C   0  0  0  0  0  0  0  0  0  0  0  0
  137.2480   75.0770  222.2910 C   0  0  0  0  0  0  0  0  0  0  0  0
  137.5080   76.4910  222.6810 C   0  0  0  0  0  0  0  0  0  0  0  0
  138.6410   77.0130  222.0870 O   0  0  0  0  0  0  0  0  0  0  0  0
  139.5030   77.9480  222.5530 C   0  0  0  0  0  0  0  0  0  0  0  0
  139.2680   78.9420  223.4510 C   0  0  0  0  0  0  0  0  0  0  0  0
  140.2660   79.8380  223.8440 C   0  0  0  0  0  0  0  0  0  0  0  0
  141.5370   79.7540  223.3370 C   0  0  0  0  0  0  0  0  0  0  0  0
  142.7520   80.8970  223.8580 Cl  0  0  0  0  0  0  0  0  0  0  0  0
  141.7950   78.7540  222.4290 C   0  0  0  0  0  0  0  0  0  0  0  0
  140.8150   77.8810  222.0490 C   0  0  0  0  0  0  0  0  0  0  0  0
  141.2550   76.6390  220.8790 Cl  0  0  0  0  0  0  0  0  0  0  0  0
  138.9360   72.3180  222.2020 N   0  0  0  0  0  0  0  0  0  0  0  0
  139.8580   71.4260  222.8510 C   0  0  0  0  0  0  0  0  0  0  0  0
  139.2050   70.2060  223.4610 C   0  0  0  0  0  0  0  0  0  0  0  0
  139.6630   70.0210  224.8860 C   0  0  0  0  0  0  0  0  0  0  0  0
  139.5090   68.8090  225.5360 C   0  0  0  0  0  0  0  0  0  0  0  0
  139.9380   68.6690  226.8380 C   0  0  0  0  0  0  0  0  0  0  0  0
  140.5090   69.7290  227.4650 N   0  0  0  0  0  0  0  0  0  0  0  0
  140.6600   70.9080  226.8370 C   0  0  0  0  0  0  0  0  0  0  0  0
  141.3980   72.2690  227.6570 Cl  0  0  0  0  0  0  0  0  0  0  0  0
  140.2500   71.1130  225.5280 C   0  0  0  0  0  0  0  0  0  0  0  0
  138.6850   75.3238  220.7327 H   0  0  0  0  0  0  0  0  0  0  0  0
  137.6443   73.8581  220.5898 H   0  0  0  0  0  0  0  0  0  0  0  0
  136.2342   75.0222  221.8677 H   0  0  0  0  0  0  0  0  0  0  0  0
  137.3763   74.4805  223.2063 H   0  0  0  0  0  0  0  0  0  0  0  0
  136.6428   77.1018  222.3838 H   0  0  0  0  0  0  0  0  0  0  0  0
  137.6676   76.5092  223.7692 H   0  0  0  0  0  0  0  0  0  0  0  0
  138.2609   79.0439  223.8815 H   0  0  0  0  0  0  0  0  0  0  0  0
  140.0272   80.6255  224.5739 H   0  0  0  0  0  0  0  0  0  0  0  0
  142.8043   78.6555  222.0027 H   0  0  0  0  0  0  0  0  0  0  0  0
  137.9900   71.9430  221.8880 H   0  0  0  0  0  0  0  0  0  0  0  0
  140.5951   71.0888  222.1073 H   0  0  0  0  0  0  0  0  0  0  0  0
  140.3178   71.9883  223.6771 H   0  0  0  0  0  0  0  0  0  0  0  0
  138.1126   70.3337  223.4452 H   0  0  0  0  0  0  0  0  0  0  0  0
  139.4907   69.3189  222.8766 H   0  0  0  0  0  0  0  0  0  0  0  0
  139.0450   67.9590  225.0143 H   0  0  0  0  0  0  0  0  0  0  0  0
  139.8192   67.7097  227.3630 H   0  0  0  0  0  0  0  0  0  0  0  0
  140.3801   72.0819  225.0238 H   0  0  0  0  0  0  0  0  0  0  0  0
  1  2  2  0
  2  3  1  0
  3  4  1  0
  4  5  1  0
  5  6  1  0
  6  7  1  0
  7  8  2  0
  8  9  1  0
  9 10  2  0
 10 11  1  0
 10 12  1  0
 12 13  2  0
 13 14  1  0
  2 15  1  0
 15 16  1  0
 16 17  1  0
 17 18  1  0
 18 19  2  0
 19 20  1  0
 20 21  2  0
 21 22  1  0
 22 23  1  0
 22 24  2  0
 13  7  1  0
 24 18  1  0
  3 25  1  0
  3 26  1  0
  4 27  1  0
  4 28  1  0
  5 29  1  0
  5 30  1  0
  8 31  1  0
  9 32  1  0
 12 33  1  0
 15 34  1  0
 16 35  1  0
 16 36  1  0
 17 37  1  0
 17 38  1  0
 19 39  1  0
 20 40  1  0
 24 41  1  0
M  END
>  <smiles>  (10) 
O=C(CCCOc1ccc(Cl)cc1Cl)NCCc1ccnc(Cl)c1

>  <score_type>  (10) 
oracle

>  <origin>  (10) 
autodockgpu

>  <m_score__min__energy>  (10) 
-7.4299999999999997

>  <m_primary>  (10) 
energy

>  <meeko>  (10) 
{"free_energy": -7.0, "intermolecular_energy": -9.39, "internal_energy": -0.93, "cluster_size": 5, "cluster_id": 2, "rank_in_cluster": 2}

>  <energy>  (10) 
-6.71

>  <cluster_rmsd>  (10) 
1.01

>  <rmsd>  (10) 
271.98

>  <cluster>  (10) 
3

$$$$

     RDKit          3D

 41 42  0  0  0  0  0  0  0  0999 V2000
  140.0730   71.2840  221.4040 O   0  0  0  0  0  0  0  0  0  0  0  0
  139.3130   72.1880  221.8090 C   0  0  0  0  0  0  0  0  0  0  0  0
  139.0150   73.4520  221.1180 C   0  0  0  0  0  0  0  0  0  0  0  0
  139.6060   74.6110  221.8670 C   0  0  0  0  0  0  0  0  0  0  0  0
  138.6730   75.7430  222.1280 C   0  0  0  0  0  0  0  0  0  0  0  0
  139.1340   76.9450  221.6260 O   0  0  0  0  0  0  0  0  0  0  0  0
  139.9210   77.8770  222.2160 C   0  0  0  0  0  0  0  0  0  0  0  0
  139.6220   78.7030  223.2540 C   0  0  0  0  0  0  0  0  0  0  0  0
  140.5460   79.6200  223.7630 C   0  0  0  0  0  0  0  0  0  0  0  0
  141.8070   79.7270  223.2350 C   0  0  0  0  0  0  0  0  0  0  0  0
  142.9280   80.8880  223.9050 Cl  0  0  0  0  0  0  0  0  0  0  0  0
  142.1290   78.8980  222.1860 C   0  0  0  0  0  0  0  0  0  0  0  0
  141.2210   78.0050  221.6920 C   0  0  0  0  0  0  0  0  0  0  0  0
  141.7410   76.9930  220.3470 Cl  0  0  0  0  0  0  0  0  0  0  0  0
  138.6740   71.9640  223.0730 N   0  0  0  0  0  0  0  0  0  0  0  0
  138.8820   70.7720  223.8490 C   0  0  0  0  0  0  0  0  0  0  0  0
  140.3340   70.4840  224.1540 C   0  0  0  0  0  0  0  0  0  0  0  0
  140.6020   70.6290  225.6310 C   0  0  0  0  0  0  0  0  0  0  0  0
  140.7540   71.8750  226.2120 C   0  0  0  0  0  0  0  0  0  0  0  0
  140.9970   71.9780  227.5640 C   0  0  0  0  0  0  0  0  0  0  0  0
  141.0830   70.8450  228.3090 N   0  0  0  0  0  0  0  0  0  0  0  0
  140.9360   69.6320  227.7480 C   0  0  0  0  0  0  0  0  0  0  0  0
  141.0490   68.1780  228.7200 Cl  0  0  0  0  0  0  0  0  0  0  0  0
  140.6900   69.4630  226.3940 C   0  0  0  0  0  0  0  0  0  0  0  0
  139.4416   73.4202  220.1046 H   0  0  0  0  0  0  0  0  0  0  0  0
  137.9238   73.5808  221.0654 H   0  0  0  0  0  0  0  0  0  0  0  0
  139.9690   74.2394  222.8366 H   0  0  0  0  0  0  0  0  0  0  0  0
  140.4017   75.0149  221.2237 H   0  0  0  0  0  0  0  0  0  0  0  0
  137.7044   75.5150  221.6593 H   0  0  0  0  0  0  0  0  0  0  0  0
  138.5834   75.8528  223.2188 H   0  0  0  0  0  0  0  0  0  0  0  0
  138.6213   78.6478  223.7074 H   0  0  0  0  0  0  0  0  0  0  0  0
  140.2561   80.2682  224.6031 H   0  0  0  0  0  0  0  0  0  0  0  0
  143.1322   78.9549  221.7383 H   0  0  0  0  0  0  0  0  0  0  0  0
  138.0190   72.7150  223.4480 H   0  0  0  0  0  0  0  0  0  0  0  0
  138.3432   70.8809  224.8018 H   0  0  0  0  0  0  0  0  0  0  0  0
  138.5099   69.9304  223.2464 H   0  0  0  0  0  0  0  0  0  0  0  0
  140.5726   69.4565  223.8419 H   0  0  0  0  0  0  0  0  0  0  0  0
  140.9619   71.2021  223.6062 H   0  0  0  0  0  0  0  0  0  0  0  0
  140.6809   72.7828  225.5951 H   0  0  0  0  0  0  0  0  0  0  0  0
  141.1198   72.9647  228.0344 H   0  0  0  0  0  0  0  0  0  0  0  0
  140.5708   68.4656  225.9457 H   0  0  0  0  0  0  0  0  0  0  0  0
  1  2  2  0
  2  3  1  0
  3  4  1  0
  4  5  1  0
  5  6  1  0
  6  7  1  0
  7  8  2  0
  8  9  1  0
  9 10  2  0
 10 11  1  0
 10 12  1  0
 12 13  2  0
 13 14  1  0
  2 15  1  0
 15 16  1  0
 16 17  1  0
 17 18  1  0
 18 19  2  0
 19 20  1  0
 20 21  2  0
 21 22  1  0
 22 23  1  0
 22 24  2  0
 13  7  1  0
 24 18  1  0
  3 25  1  0
  3 26  1  0
  4 27  1  0
  4 28  1  0
  5 29  1  0
  5 30  1  0
  8 31  1  0
  9 32  1  0
 12 33  1  0
 15 34  1  0
 16 35  1  0
 16 36  1  0
 17 37  1  0
 17 38  1  0
 19 39  1  0
 20 40  1  0
 24 41  1  0
M  END
>  <smiles>  (11) 
O=C(CCCOc1ccc(Cl)cc1Cl)NCCc1ccnc(Cl)c1

>  <score_type>  (11) 
oracle

>  <origin>  (11) 
autodockgpu

>  <m_score__min__energy>  (11) 
-7.4299999999999997

>  <m_primary>  (11) 
energy

>  <meeko>  (11) 
{"free_energy": -7.02, "intermolecular_energy": -9.41, "internal_energy": -0.7, "cluster_size": 2, "cluster_id": 1, "rank_in_cluster": 2}

>  <energy>  (11) 
-6.7

>  <cluster_rmsd>  (11) 
1.01

>  <rmsd>  (11) 
271.97

>  <cluster>  (11) 
3

$$$$

     RDKit          3D

 41 42  0  0  0  0  0  0  0  0999 V2000
  138.3580   70.4740  221.1950 O   0  0  0  0  0  0  0  0  0  0  0  0
  138.7260   71.6400  221.4490 C   0  0  0  0  0  0  0  0  0  0  0  0
  139.1600   72.6510  220.4730 C   0  0  0  0  0  0  0  0  0  0  0  0
  140.6410   72.8750  220.5740 C   0  0  0  0  0  0  0  0  0  0  0  0
  141.0640   73.9110  221.5560 C   0  0  0  0  0  0  0  0  0  0  0  0
  140.0040   74.6510  222.0460 O   0  0  0  0  0  0  0  0  0  0  0  0
  139.9370   75.9740  222.3260 C   0  0  0  0  0  0  0  0  0  0  0  0
  140.9580   76.8610  222.4690 C   0  0  0  0  0  0  0  0  0  0  0  0
  140.7330   78.2110  222.7570 C   0  0  0  0  0  0  0  0  0  0  0  0
  139.4630   78.7040  222.9080 C   0  0  0  0  0  0  0  0  0  0  0  0
  139.2330   80.3980  223.2680 Cl  0  0  0  0  0  0  0  0  0  0  0  0
  138.4170   77.8230  222.7650 C   0  0  0  0  0  0  0  0  0  0  0  0
  138.6440   76.5050  222.4840 C   0  0  0  0  0  0  0  0  0  0  0  0
  137.2300   75.4650  222.3220 Cl  0  0  0  0  0  0  0  0  0  0  0  0
  138.7230   72.0210  222.8330 N   0  0  0  0  0  0  0  0  0  0  0  0
  138.3230   71.1260  223.8840 C   0  0  0  0  0  0  0  0  0  0  0  0
  139.3440   70.0560  224.2010 C   0  0  0  0  0  0  0  0  0  0  0  0
  140.0060   70.3360  225.5270 C   0  0  0  0  0  0  0  0  0  0  0  0
  140.4140   71.6140  225.8680 C   0  0  0  0  0  0  0  0  0  0  0  0
  141.0170   71.8400  227.0860 C   0  0  0  0  0  0  0  0  0  0  0  0
  141.1990   70.7980  227.9380 N   0  0  0  0  0  0  0  0  0  0  0  0
  140.8030   69.5550  227.6110 C   0  0  0  0  0  0  0  0  0  0  0  0
  141.0450   68.2200  228.7190 Cl  0  0  0  0  0  0  0  0  0  0  0  0
  140.1920   69.2640  226.4010 C   0  0  0  0  0  0  0  0  0  0  0  0
  138.9144   72.3041  219.4585 H   0  0  0  0  0  0  0  0  0  0  0  0
  138.6410   73.5974  220.6852 H   0  0  0  0  0  0  0  0  0  0  0  0
  141.1095   71.9225  220.8624 H   0  0  0  0  0  0  0  0  0  0  0  0
  140.9601   73.2435  219.5879 H   0  0  0  0  0  0  0  0  0  0  0  0
  141.5637   73.4122  222.3995 H   0  0  0  0  0  0  0  0  0  0  0  0
  141.7386   74.6055  221.0339 H   0  0  0  0  0  0  0  0  0  0  0  0
  141.9927   76.5057  222.3546 H   0  0  0  0  0  0  0  0  0  0  0  0
  141.5917   78.8901  222.8644 H   0  0  0  0  0  0  0  0  0  0  0  0
  137.3841   78.1838  222.8783 H   0  0  0  0  0  0  0  0  0  0  0  0
  139.0310   73.0070  223.0850 H   0  0  0  0  0  0  0  0  0  0  0  0
  138.1477   71.7178  224.7945 H   0  0  0  0  0  0  0  0  0  0  0  0
  137.4171   70.6088  223.5348 H   0  0  0  0  0  0  0  0  0  0  0  0
  138.8420   69.0782  224.2460 H   0  0  0  0  0  0  0  0  0  0  0  0
  140.1117   70.0514  223.4133 H   0  0  0  0  0  0  0  0  0  0  0  0
  140.2571   72.4477  225.1678 H   0  0  0  0  0  0  0  0  0  0  0  0
  141.3469   72.8516  227.3649 H   0  0  0  0  0  0  0  0  0  0  0  0
  139.8713   68.2437  226.1438 H   0  0  0  0  0  0  0  0  0  0  0  0
  1  2  2  0
  2  3  1  0
  3  4  1  0
  4  5  1  0
  5  6  1  0
  6  7  1  0
  7  8  2  0
  8  9  1  0
  9 10  2  0
 10 11  1  0
 10 12  1  0
 12 13  2  0
 13 14  1  0
  2 15  1  0
 15 16  1  0
 16 17  1  0
 17 18  1  0
 18 19  2  0
 19 20  1  0
 20 21  2  0
 21 22  1  0
 22 23  1  0
 22 24  2  0
 13  7  1  0
 24 18  1  0
  3 25  1  0
  3 26  1  0
  4 27  1  0
  4 28  1  0
  5 29  1  0
  5 30  1  0
  8 31  1  0
  9 32  1  0
 12 33  1  0
 15 34  1  0
 16 35  1  0
 16 36  1  0
 17 37  1  0
 17 38  1  0
 19 39  1  0
 20 40  1  0
 24 41  1  0
M  END
>  <smiles>  (12) 
O=C(CCCOc1ccc(Cl)cc1Cl)NCCc1ccnc(Cl)c1

>  <score_type>  (12) 
oracle

>  <origin>  (12) 
autodockgpu

>  <m_score__min__energy>  (12) 
-7.4299999999999997

>  <m_primary>  (12) 
energy

>  <meeko>  (12) 
{"free_energy": -6.38, "intermolecular_energy": -8.76, "internal_energy": -1.74, "cluster_size": 5, "cluster_id": 2, "rank_in_cluster": 5}

>  <energy>  (12) 
-6.16

>  <cluster_rmsd>  (12) 
0.0

>  <rmsd>  (12) 
271.2

>  <cluster>  (12) 
4

$$$$

     RDKit          3D

 41 42  0  0  0  0  0  0  0  0999 V2000
  140.2880   74.4540  222.1100 O   0  0  0  0  0  0  0  0  0  0  0  0
  139.1550   73.9730  221.9040 C   0  0  0  0  0  0  0  0  0  0  0  0
  138.0310   74.6440  221.2320 C   0  0  0  0  0  0  0  0  0  0  0  0
  137.1120   75.2650  222.2450 C   0  0  0  0  0  0  0  0  0  0  0  0
  137.7010   76.3780  223.0400 C   0  0  0  0  0  0  0  0  0  0  0  0
  138.4390   77.2570  222.2700 O   0  0  0  0  0  0  0  0  0  0  0  0
  139.5160   78.0030  222.6140 C   0  0  0  0  0  0  0  0  0  0  0  0
  140.8320   77.6650  222.5590 C   0  0  0  0  0  0  0  0  0  0  0  0
  141.8430   78.5500  222.9470 C   0  0  0  0  0  0  0  0  0  0  0  0
  141.5490   79.8090  223.4030 C   0  0  0  0  0  0  0  0  0  0  0  0
  142.8460   80.8790  223.8760 Cl  0  0  0  0  0  0  0  0  0  0  0  0
  140.2230   80.1710  223.4630 C   0  0  0  0  0  0  0  0  0  0  0  0
  139.2410   79.3010  223.0840 C   0  0  0  0  0  0  0  0  0  0  0  0
  137.5770   79.8680  223.2020 Cl  0  0  0  0  0  0  0  0  0  0  0  0
  138.9370   72.6340  222.3710 N   0  0  0  0  0  0  0  0  0  0  0  0
  139.9530   71.8700  223.0430 C   0  0  0  0  0  0  0  0  0  0  0  0
  139.5780   70.4250  223.2800 C   0  0  0  0  0  0  0  0  0  0  0  0
  139.8150   70.0480  224.7200 C   0  0  0  0  0  0  0  0  0  0  0  0
  139.5670   68.7650  225.1750 C   0  0  0  0  0  0  0  0  0  0  0  0
  139.7930   68.4500  226.4980 C   0  0  0  0  0  0  0  0  0  0  0  0
  140.2600   69.4100  227.3370 N   0  0  0  0  0  0  0  0  0  0  0  0
  140.5030   70.6580  226.8980 C   0  0  0  0  0  0  0  0  0  0  0  0
  141.1050   71.8880  227.9910 Cl  0  0  0  0  0  0  0  0  0  0  0  0
  140.2950   71.0370  225.5810 C   0  0  0  0  0  0  0  0  0  0  0  0
  138.4219   75.4288  220.5677 H   0  0  0  0  0  0  0  0  0  0  0  0
  137.4688   73.9006  220.6478 H   0  0  0  0  0  0  0  0  0  0  0  0
  136.2330   75.6562  221.7118 H   0  0  0  0  0  0  0  0  0  0  0  0
  136.8719   74.4697  222.9660 H   0  0  0  0  0  0  0  0  0  0  0  0
  136.8845   76.9348  223.5230 H   0  0  0  0  0  0  0  0  0  0  0  0
  138.3841   75.9314  223.7775 H   0  0  0  0  0  0  0  0  0  0  0  0
  141.1101   76.6639  222.1979 H   0  0  0  0  0  0  0  0  0  0  0  0
  142.8936   78.2300  222.8852 H   0  0  0  0  0  0  0  0  0  0  0  0
  139.9502   81.1747  223.8211 H   0  0  0  0  0  0  0  0  0  0  0  0
  137.9820   72.1930  222.2100 H   0  0  0  0  0  0  0  0  0  0  0  0
  140.8664   71.8946  222.4306 H   0  0  0  0  0  0  0  0  0  0  0  0
  140.0948   72.3290  224.0326 H   0  0  0  0  0  0  0  0  0  0  0  0
  138.5142   70.2827  223.0388 H   0  0  0  0  0  0  0  0  0  0  0  0
  140.2011   69.7855  222.6374 H   0  0  0  0  0  0  0  0  0  0  0  0
  139.1903   67.9979  224.4825 H   0  0  0  0  0  0  0  0  0  0  0  0
  139.5974   67.4332  226.8694 H   0  0  0  0  0  0  0  0  0  0  0  0
  140.4970   72.0608  225.2332 H   0  0  0  0  0  0  0  0  0  0  0  0
  1  2  2  0
  2  3  1  0
  3  4  1  0
  4  5  1  0
  5  6  1  0
  6  7  1  0
  7  8  2  0
  8  9  1  0
  9 10  2  0
 10 11  1  0
 10 12  1  0
 12 13  2  0
 13 14  1  0
  2 15  1  0
 15 16  1  0
 16 17  1  0
 17 18  1  0
 18 19  2  0
 19 20  1  0
 20 21  2  0
 21 22  1  0
 22 23  1  0
 22 24  2  0
 13  7  1  0
 24 18  1  0
  3 25  1  0
  3 26  1  0
  4 27  1  0
  4 28  1  0
  5 29  1  0
  5 30  1  0
  8 31  1  0
  9 32  1  0
 12 33  1  0
 15 34  1  0
 16 35  1  0
 16 36  1  0
 17 37  1  0
 17 38  1  0
 19 39  1  0
 20 40  1  0
 24 41  1  0
M  END
>  <smiles>  (13) 
O=C(CCCOc1ccc(Cl)cc1Cl)NCCc1ccnc(Cl)c1

>  <score_type>  (13) 
oracle

>  <origin>  (13) 
autodockgpu

>  <m_score__min__energy>  (13) 
-7.4299999999999997

>  <m_primary>  (13) 
energy

>  <meeko>  (13) 
{"free_energy": -6.99, "intermolecular_energy": -9.38, "internal_energy": -0.86, "cluster_size": 5, "cluster_id": 2, "rank_in_cluster": 3}

>  <energy>  (13) 
-6.06

>  <cluster_rmsd>  (13) 
0.0

>  <rmsd>  (13) 
271.22

>  <cluster>  (13) 
5

$$$$

     RDKit          3D

 41 42  0  0  0  0  0  0  0  0999 V2000
  141.2900   81.7900  221.6290 O   0  0  0  0  0  0  0  0  0  0  0  0
  141.5740   80.7940  220.9330 C   0  0  0  0  0  0  0  0  0  0  0  0
  141.2310   80.5930  219.5160 C   0  0  0  0  0  0  0  0  0  0  0  0
  140.1450   79.5660  219.3800 C   0  0  0  0  0  0  0  0  0  0  0  0
  140.6070   78.1900  219.0460 C   0  0  0  0  0  0  0  0  0  0  0  0
  141.1310   77.5200  220.1350 O   0  0  0  0  0  0  0  0  0  0  0  0
  142.0250   76.5020  220.1680 C   0  0  0  0  0  0  0  0  0  0  0  0
  143.3140   76.4940  219.7370 C   0  0  0  0  0  0  0  0  0  0  0  0
  144.1250   75.3600  219.8420 C   0  0  0  0  0  0  0  0  0  0  0  0
  143.6510   74.1950  220.3880 C   0  0  0  0  0  0  0  0  0  0  0  0
  144.7020   72.8040  220.4980 Cl  0  0  0  0  0  0  0  0  0  0  0  0
  142.3490   74.1840  220.8320 C   0  0  0  0  0  0  0  0  0  0  0  0
  141.5620   75.2960  220.7260 C   0  0  0  0  0  0  0  0  0  0  0  0
  139.9100   75.1700  221.3260 Cl  0  0  0  0  0  0  0  0  0  0  0  0
  142.3050   79.7470  221.5870 N   0  0  0  0  0  0  0  0  0  0  0  0
  142.6990   79.8200  222.9680 C   0  0  0  0  0  0  0  0  0  0  0  0
  141.8450   78.9830  223.8940 C   0  0  0  0  0  0  0  0  0  0  0  0
  140.3980   79.0420  223.4730 C   0  0  0  0  0  0  0  0  0  0  0  0
  139.8320   78.0320  222.7150 C   0  0  0  0  0  0  0  0  0  0  0  0
  138.5070   78.1120  222.3450 C   0  0  0  0  0  0  0  0  0  0  0  0
  137.7740   79.1870  222.7350 N   0  0  0  0  0  0  0  0  0  0  0  0
  138.3210   80.1700  223.4720 C   0  0  0  0  0  0  0  0  0  0  0  0
  137.3660   81.5520  223.9680 Cl  0  0  0  0  0  0  0  0  0  0  0  0
  139.6480   80.1480  223.8750 C   0  0  0  0  0  0  0  0  0  0  0  0
  140.8844   81.5455  219.0886 H   0  0  0  0  0  0  0  0  0  0  0  0
  142.1243   80.2402  218.9797 H   0  0  0  0  0  0  0  0  0  0  0  0
  139.6005   79.5191  220.3346 H   0  0  0  0  0  0  0  0  0  0  0  0
  139.5234   79.8917  218.5329 H   0  0  0  0  0  0  0  0  0  0  0  0
  139.7516   77.6166  218.6594 H   0  0  0  0  0  0  0  0  0  0  0  0
  141.4086   78.2831  218.2985 H   0  0  0  0  0  0  0  0  0  0  0  0
  143.7323   77.4086  219.2915 H   0  0  0  0  0  0  0  0  0  0  0  0
  145.1628   75.4032  219.4798 H   0  0  0  0  0  0  0  0  0  0  0  0
  141.9358   73.2675  221.2785 H   0  0  0  0  0  0  0  0  0  0  0  0
  142.5640   78.8830  221.0220 H   0  0  0  0  0  0  0  0  0  0  0  0
  143.7400   79.4742  223.0499 H   0  0  0  0  0  0  0  0  0  0  0  0
  142.5762   80.8676  223.2801 H   0  0  0  0  0  0  0  0  0  0  0  0
  142.1899   77.9390  223.8601 H   0  0  0  0  0  0  0  0  0  0  0  0
  141.9351   79.3783  224.9165 H   0  0  0  0  0  0  0  0  0  0  0  0
  140.4385   77.1671  222.4084 H   0  0  0  0  0  0  0  0  0  0  0  0
  138.0485   77.3150  221.7412 H   0  0  0  0  0  0  0  0  0  0  0  0
  140.0850   80.9575  224.4781 H   0  0  0  0  0  0  0  0  0  0  0  0
  1  2  2  0
  2  3  1  0
  3  4  1  0
  4  5  1  0
  5  6  1  0
  6  7  1  0
  7  8  2  0
  8  9  1  0
  9 10  2  0
 10 11  1  0
 10 12  1  0
 12 13  2  0
 13 14  1  0
  2 15  1  0
 15 16  1  0
 16 17  1  0
 17 18  1  0
 18 19  2  0
 19 20  1  0
 20 21  2  0
 21 22  1  0
 22 23  1  0
 22 24  2  0
 13  7  1  0
 24 18  1  0
  3 25  1  0
  3 26  1  0
  4 27  1  0
  4 28  1  0
  5 29  1  0
  5 30  1  0
  8 31  1  0
  9 32  1  0
 12 33  1  0
 15 34  1  0
 16 35  1  0
 16 36  1  0
 17 37  1  0
 17 38  1  0
 19 39  1  0
 20 40  1  0
 24 41  1  0
M  END
>  <smiles>  (14) 
O=C(CCCOc1ccc(Cl)cc1Cl)NCCc1ccnc(Cl)c1

>  <score_type>  (14) 
oracle

>  <origin>  (14) 
autodockgpu

>  <m_score__min__energy>  (14) 
-7.4299999999999997

>  <m_primary>  (14) 
energy

>  <meeko>  (14) 
{"free_energy": -5.14, "intermolecular_energy": -7.52, "internal_energy": -2.59, "cluster_size": 1, "cluster_id": 9, "rank_in_cluster": 1}

>  <energy>  (14) 
-5.89

>  <cluster_rmsd>  (14) 
1.25

>  <rmsd>  (14) 
271.19

>  <cluster>  (14) 
5

$$$$

     RDKit          3D

 41 42  0  0  0  0  0  0  0  0999 V2000
  137.8810   74.5710  220.2680 O   0  0  0  0  0  0  0  0  0  0  0  0
  138.3920   73.9190  221.2030 C   0  0  0  0  0  0  0  0  0  0  0  0
  138.4580   72.4540  221.3110 C   0  0  0  0  0  0  0  0  0  0  0  0
  139.8760   71.9820  221.1620 C   0  0  0  0  0  0  0  0  0  0  0  0
  140.7300   72.1410  222.3720 C   0  0  0  0  0  0  0  0  0  0  0  0
  140.0020   72.1480  223.5470 O   0  0  0  0  0  0  0  0  0  0  0  0
  140.1970   71.4360  224.6820 C   0  0  0  0  0  0  0  0  0  0  0  0
  140.9760   71.7470  225.7530 C   0  0  0  0  0  0  0  0  0  0  0  0
  141.0760   70.9080  226.8670 C   0  0  0  0  0  0  0  0  0  0  0  0
  140.3880   69.7230  226.9290 C   0  0  0  0  0  0  0  0  0  0  0  0
  140.5460   68.7080  228.3420 Cl  0  0  0  0  0  0  0  0  0  0  0  0
  139.5940   69.3920  225.8560 C   0  0  0  0  0  0  0  0  0  0  0  0
  139.5000   70.2160  224.7710 C   0  0  0  0  0  0  0  0  0  0  0  0
  138.4540   69.6930  223.4530 Cl  0  0  0  0  0  0  0  0  0  0  0  0
  138.9670   74.6840  222.2720 N   0  0  0  0  0  0  0  0  0  0  0  0
  138.9670   76.1210  222.2880 C   0  0  0  0  0  0  0  0  0  0  0  0
  140.3480   76.7360  222.2600 C   0  0  0  0  0  0  0  0  0  0  0  0
  140.3070   78.1480  222.7870 C   0  0  0  0  0  0  0  0  0  0  0  0
  139.1040   78.7930  223.0140 C   0  0  0  0  0  0  0  0  0  0  0  0
  139.0960   80.0840  223.4960 C   0  0  0  0  0  0  0  0  0  0  0  0
  140.2790   80.7050  223.7440 N   0  0  0  0  0  0  0  0  0  0  0  0
  141.4500   80.0810  223.5240 C   0  0  0  0  0  0  0  0  0  0  0  0
  142.9680   80.8930  223.8470 Cl  0  0  0  0  0  0  0  0  0  0  0  0
  141.5230   78.7840  223.0400 C   0  0  0  0  0  0  0  0  0  0  0  0
  138.0746   72.1453  222.2947 H   0  0  0  0  0  0  0  0  0  0  0  0
  137.8477   72.0091  220.5113 H   0  0  0  0  0  0  0  0  0  0  0  0
  139.8530   70.9139  220.9002 H   0  0  0  0  0  0  0  0  0  0  0  0
  140.3278   72.6164  220.3852 H   0  0  0  0  0  0  0  0  0  0  0  0
  141.4465   71.3071  222.4080 H   0  0  0  0  0  0  0  0  0  0  0  0
  141.2376   73.1136  222.2923 H   0  0  0  0  0  0  0  0  0  0  0  0
  141.5452   72.6882  225.7423 H   0  0  0  0  0  0  0  0  0  0  0  0
  141.7185   71.2038  227.7095 H   0  0  0  0  0  0  0  0  0  0  0  0
  139.0264   68.4499  225.8719 H   0  0  0  0  0  0  0  0  0  0  0  0
  139.4120   74.1600  223.0840 H   0  0  0  0  0  0  0  0  0  0  0  0
  138.4119   76.4768  221.4075 H   0  0  0  0  0  0  0  0  0  0  0  0
  138.5005   76.4289  223.2354 H   0  0  0  0  0  0  0  0  0  0  0  0
  141.0247   76.1354  222.8856 H   0  0  0  0  0  0  0  0  0  0  0  0
  140.7089   76.7540  221.2210 H   0  0  0  0  0  0  0  0  0  0  0  0
  138.1549   78.2757  222.8099 H   0  0  0  0  0  0  0  0  0  0  0  0
  138.1444   80.6050  223.6776 H   0  0  0  0  0  0  0  0  0  0  0  0
  142.4868   78.2836  222.8649 H   0  0  0  0  0  0  0  0  0  0  0  0
  1  2  2  0
  2  3  1  0
  3  4  1  0
  4  5  1  0
  5  6  1  0
  6  7  1  0
  7  8  2  0
  8  9  1  0
  9 10  2  0
 10 11  1  0
 10 12  1  0
 12 13  2  0
 13 14  1  0
  2 15  1  0
 15 16  1  0
 16 17  1  0
 17 18  1  0
 18 19  2  0
 19 20  1  0
 20 21  2  0
 21 22  1  0
 22 23  1  0
 22 24  2  0
 13  7  1  0
 24 18  1  0
  3 25  1  0
  3 26  1  0
  4 27  1  0
  4 28  1  0
  5 29  1  0
  5 30  1  0
  8 31  1  0
  9 32  1  0
 12 33  1  0
 15 34  1  0
 16 35  1  0
 16 36  1  0
 17 37  1  0
 17 38  1  0
 19 39  1  0
 20 40  1  0
 24 41  1  0
M  END
>  <smiles>  (15) 
O=C(CCCOc1ccc(Cl)cc1Cl)NCCc1ccnc(Cl)c1

>  <score_type>  (15) 
oracle

>  <origin>  (15) 
autodockgpu

>  <m_score__min__energy>  (15) 
-7.4299999999999997

>  <m_primary>  (15) 
energy

>  <meeko>  (15) 
{"free_energy": -6.74, "intermolecular_energy": -9.12, "internal_energy": -1.49, "cluster_size": 4, "cluster_id": 3, "rank_in_cluster": 1}

>  <energy>  (15) 
-6.05

>  <cluster_rmsd>  (15) 
0.0

>  <rmsd>  (15) 
270.87

>  <cluster>  (15) 
6

$$$$

     RDKit          3D

 41 42  0  0  0  0  0  0  0  0999 V2000
  140.5280   73.8910  221.9900 O   0  0  0  0  0  0  0  0  0  0  0  0
  139.9520   74.9350  221.6220 C   0  0  0  0  0  0  0  0  0  0  0  0
  138.8930   75.6500  222.3510 C   0  0  0  0  0  0  0  0  0  0  0  0
  137.7770   76.0260  221.4190 C   0  0  0  0  0  0  0  0  0  0  0  0
  137.7990   77.4350  220.9350 C   0  0  0  0  0  0  0  0  0  0  0  0
  139.0790   77.9060  220.7110 O   0  0  0  0  0  0  0  0  0  0  0  0
  139.9080   78.5710  221.5500 C   0  0  0  0  0  0  0  0  0  0  0  0
  139.7420   78.8310  222.8740 C   0  0  0  0  0  0  0  0  0  0  0  0
  140.6950   79.5330  223.6180 C   0  0  0  0  0  0  0  0  0  0  0  0
  141.8490   79.9940  223.0410 C   0  0  0  0  0  0  0  0  0  0  0  0
  143.0110   80.8660  224.0120 Cl  0  0  0  0  0  0  0  0  0  0  0  0
  142.0370   79.7390  221.7020 C   0  0  0  0  0  0  0  0  0  0  0  0
  141.1010   79.0530  220.9800 C   0  0  0  0  0  0  0  0  0  0  0  0
  141.4440   78.7840  219.2730 Cl  0  0  0  0  0  0  0  0  0  0  0  0
  140.3690   75.4830  220.3640 N   0  0  0  0  0  0  0  0  0  0  0  0
  141.3920   74.8790  219.5540 C   0  0  0  0  0  0  0  0  0  0  0  0
  142.6960   75.6440  219.5430 C   0  0  0  0  0  0  0  0  0  0  0  0
  143.8630   74.6940  219.4440 C   0  0  0  0  0  0  0  0  0  0  0  0
  144.1520   74.0350  218.2620 C   0  0  0  0  0  0  0  0  0  0  0  0
  145.2250   73.1730  218.2010 C   0  0  0  0  0  0  0  0  0  0  0  0
  145.9860   72.9840  219.3100 N   0  0  0  0  0  0  0  0  0  0  0  0
  145.7090   73.6230  220.4600 C   0  0  0  0  0  0  0  0  0  0  0  0
  146.6980   73.3700  221.8840 Cl  0  0  0  0  0  0  0  0  0  0  0  0
  144.6440   74.5020  220.5850 C   0  0  0  0  0  0  0  0  0  0  0  0
  138.4979   75.0001  223.1457 H   0  0  0  0  0  0  0  0  0  0  0  0
  139.3170   76.5664  222.7875 H   0  0  0  0  0  0  0  0  0  0  0  0
  137.8294   75.3645  220.5417 H   0  0  0  0  0  0  0  0  0  0  0  0
  136.8479   75.9177  221.9978 H   0  0  0  0  0  0  0  0  0  0  0  0
  137.2341   77.4915  219.9928 H   0  0  0  0  0  0  0  0  0  0  0  0
  137.3491   78.0610  221.7196 H   0  0  0  0  0  0  0  0  0  0  0  0
  138.8290   78.4779  223.3758 H   0  0  0  0  0  0  0  0  0  0  0  0
  140.5149   79.7188  224.6871 H   0  0  0  0  0  0  0  0  0  0  0  0
  142.9531   80.0921  221.2059 H   0  0  0  0  0  0  0  0  0  0  0  0
  139.8980   76.3730  220.0210 H   0  0  0  0  0  0  0  0  0  0  0  0
  141.5871   73.8675  219.9398 H   0  0  0  0  0  0  0  0  0  0  0  0
  141.0175   74.8715  218.5198 H   0  0  0  0  0  0  0  0  0  0  0  0
  142.7091   76.3252  218.6794 H   0  0  0  0  0  0  0  0  0  0  0  0
  142.7811   76.2169  220.4782 H   0  0  0  0  0  0  0  0  0  0  0  0
  143.5260   74.1991  217.3725 H   0  0  0  0  0  0  0  0  0  0  0  0
  145.4624   72.6445  217.2659 H   0  0  0  0  0  0  0  0  0  0  0  0
  144.4265   75.0195  221.5310 H   0  0  0  0  0  0  0  0  0  0  0  0
  1  2  2  0
  2  3  1  0
  3  4  1  0
  4  5  1  0
  5  6  1  0
  6  7  1  0
  7  8  2  0
  8  9  1  0
  9 10  2  0
 10 11  1  0
 10 12  1  0
 12 13  2  0
 13 14  1  0
  2 15  1  0
 15 16  1  0
 16 17  1  0
 17 18  1  0
 18 19  2  0
 19 20  1  0
 20 21  2  0
 21 22  1  0
 22 23  1  0
 22 24  2  0
 13  7  1  0
 24 18  1  0
  3 25  1  0
  3 26  1  0
  4 27  1  0
  4 28  1  0
  5 29  1  0
  5 30  1  0
  8 31  1  0
  9 32  1  0
 12 33  1  0
 15 34  1  0
 16 35  1  0
 16 36  1  0
 17 37  1  0
 17 38  1  0
 19 39  1  0
 20 40  1  0
 24 41  1  0
M  END
>  <smiles>  (16) 
O=C(CCCOc1ccc(Cl)cc1Cl)NCCc1ccnc(Cl)c1

>  <score_type>  (16) 
oracle

>  <origin>  (16) 
autodockgpu

>  <m_score__min__energy>  (16) 
-7.4299999999999997

>  <m_primary>  (16) 
energy

>  <meeko>  (16) 
{"free_energy": -6.06, "intermolecular_energy": -8.44, "internal_energy": -1.98, "cluster_size": 2, "cluster_id": 5, "rank_in_cluster": 1}

>  <energy>  (16) 
-5.91

>  <cluster_rmsd>  (16) 
1.4

>  <rmsd>  (16) 
270.88

>  <cluster>  (16) 
6

$$$$

     RDKit          3D

 41 42  0  0  0  0  0  0  0  0999 V2000
  138.1060   74.3110  219.9110 O   0  0  0  0  0  0  0  0  0  0  0  0
  138.8520   74.0990  220.8900 C   0  0  0  0  0  0  0  0  0  0  0  0
  140.3120   73.9270  220.8540 C   0  0  0  0  0  0  0  0  0  0  0  0
  140.7590   73.0120  221.9580 C   0  0  0  0  0  0  0  0  0  0  0  0
  139.9330   71.7860  222.1420 C   0  0  0  0  0  0  0  0  0  0  0  0
  139.3020   71.7430  223.3700 O   0  0  0  0  0  0  0  0  0  0  0  0
  139.6990   71.1460  224.5190 C   0  0  0  0  0  0  0  0  0  0  0  0
  140.7240   71.4930  225.3430 C   0  0  0  0  0  0  0  0  0  0  0  0
  141.0140   70.7780  226.5080 C   0  0  0  0  0  0  0  0  0  0  0  0
  140.2730   69.6860  226.8760 C   0  0  0  0  0  0  0  0  0  0  0  0
  140.6740   68.8240  228.3420 Cl  0  0  0  0  0  0  0  0  0  0  0  0
  139.2300   69.3200  226.0570 C   0  0  0  0  0  0  0  0  0  0  0  0
  138.9520   70.0220  224.9190 C   0  0  0  0  0  0  0  0  0  0  0  0
  137.5940   69.4650  223.9440 Cl  0  0  0  0  0  0  0  0  0  0  0  0
  138.2120   74.0180  222.1720 N   0  0  0  0  0  0  0  0  0  0  0  0
  136.7920   74.1680  222.3430 C   0  0  0  0  0  0  0  0  0  0  0  0
  136.1350   73.0090  223.0570 C   0  0  0  0  0  0  0  0  0  0  0  0
  135.3650   73.4990  224.2570 C   0  0  0  0  0  0  0  0  0  0  0  0
  135.3670   74.8360  224.6130 C   0  0  0  0  0  0  0  0  0  0  0  0
  134.6540   75.2550  225.7150 C   0  0  0  0  0  0  0  0  0  0  0  0
  133.9550   74.3420  226.4380 N   0  0  0  0  0  0  0  0  0  0  0  0
  133.9500   73.0420  226.0950 C   0  0  0  0  0  0  0  0  0  0  0  0
  133.0440   71.8730  227.0360 Cl  0  0  0  0  0  0  0  0  0  0  0  0
  134.6470   72.5580  224.9980 C   0  0  0  0  0  0  0  0  0  0  0  0
  140.6022   73.4946  219.8851 H   0  0  0  0  0  0  0  0  0  0  0  0
  140.7902   74.9084  220.9885 H   0  0  0  0  0  0  0  0  0  0  0  0
  141.7907   72.6975  221.7420 H   0  0  0  0  0  0  0  0  0  0  0  0
  140.6600   73.5883  222.8897 H   0  0  0  0  0  0  0  0  0  0  0  0
  139.1674   71.7567  221.3527 H   0  0  0  0  0  0  0  0  0  0  0  0
  140.6097   70.9205  222.0878 H   0  0  0  0  0  0  0  0  0  0  0  0
  141.3442   72.3639  225.0842 H   0  0  0  0  0  0  0  0  0  0  0  0
  141.8538   71.0982  227.1421 H   0  0  0  0  0  0  0  0  0  0  0  0
  138.6114   68.4500  226.3224 H   0  0  0  0  0  0  0  0  0  0  0  0
  138.8180   73.8390  223.0280 H   0  0  0  0  0  0  0  0  0  0  0  0
  136.6081   75.0828  222.9256 H   0  0  0  0  0  0  0  0  0  0  0  0
  136.3522   74.2130  221.3357 H   0  0  0  0  0  0  0  0  0  0  0  0
  135.4453   72.5018  222.3663 H   0  0  0  0  0  0  0  0  0  0  0  0
  136.9143   72.3099  223.3944 H   0  0  0  0  0  0  0  0  0  0  0  0
  135.9372   75.5637  224.0169 H   0  0  0  0  0  0  0  0  0  0  0  0
  134.6509   76.3159  226.0057 H   0  0  0  0  0  0  0  0  0  0  0  0
  134.6349   71.4921  224.7267 H   0  0  0  0  0  0  0  0  0  0  0  0
  1  2  2  0
  2  3  1  0
  3  4  1  0
  4  5  1  0
  5  6  1  0
  6  7  1  0
  7  8  2  0
  8  9  1  0
  9 10  2  0
 10 11  1  0
 10 12  1  0
 12 13  2  0
 13 14  1  0
  2 15  1  0
 15 16  1  0
 16 17  1  0
 17 18  1  0
 18 19  2  0
 19 20  1  0
 20 21  2  0
 21 22  1  0
 22 23  1  0
 22 24  2  0
 13  7  1  0
 24 18  1  0
  3 25  1  0
  3 26  1  0
  4 27  1  0
  4 28  1  0
  5 29  1  0
  5 30  1  0
  8 31  1  0
  9 32  1  0
 12 33  1  0
 15 34  1  0
 16 35  1  0
 16 36  1  0
 17 37  1  0
 17 38  1  0
 19 39  1  0
 20 40  1  0
 24 41  1  0
M  END
>  <smiles>  (17) 
O=C(CCCOc1ccc(Cl)cc1Cl)NCCc1ccnc(Cl)c1

>  <score_type>  (17) 
oracle

>  <origin>  (17) 
autodockgpu

>  <m_score__min__energy>  (17) 
-7.4299999999999997

>  <m_primary>  (17) 
energy

>  <meeko>  (17) 
{"free_energy": -6.05, "intermolecular_energy": -8.44, "internal_energy": -1.73, "cluster_size": 2, "cluster_id": 6, "rank_in_cluster": 1}

>  <energy>  (17) 
-5.76

>  <cluster_rmsd>  (17) 
0.0

>  <rmsd>  (17) 
270.82

>  <cluster>  (17) 
7

$$$$

     RDKit          3D

 41 42  0  0  0  0  0  0  0  0999 V2000
  138.0180   71.4020  220.9920 O   0  0  0  0  0  0  0  0  0  0  0  0
  137.9840   72.5600  221.4560 C   0  0  0  0  0  0  0  0  0  0  0  0
  136.9560   73.5780  221.1900 C   0  0  0  0  0  0  0  0  0  0  0  0
  136.6000   74.3060  222.4540 C   0  0  0  0  0  0  0  0  0  0  0  0
  137.0010   75.7400  222.4970 C   0  0  0  0  0  0  0  0  0  0  0  0
  138.3480   75.9290  222.2530 O   0  0  0  0  0  0  0  0  0  0  0  0
  139.1330   76.9930  222.5460 C   0  0  0  0  0  0  0  0  0  0  0  0
  138.7720   78.1880  223.0860 C   0  0  0  0  0  0  0  0  0  0  0  0
  139.7030   79.2000  223.3390 C   0  0  0  0  0  0  0  0  0  0  0  0
  141.0330   79.0310  223.0510 C   0  0  0  0  0  0  0  0  0  0  0  0
  142.1590   80.3240  223.3840 Cl  0  0  0  0  0  0  0  0  0  0  0  0
  141.4180   77.8280  222.5060 C   0  0  0  0  0  0  0  0  0  0  0  0
  140.5030   76.8440  222.2610 C   0  0  0  0  0  0  0  0  0  0  0  0
  141.1060   75.3430  221.5610 Cl  0  0  0  0  0  0  0  0  0  0  0  0
  139.0590   72.9260  222.3340 N   0  0  0  0  0  0  0  0  0  0  0  0
  140.1260   72.0250  222.6730 C   0  0  0  0  0  0  0  0  0  0  0  0
  140.3260   71.8430  224.1610 C   0  0  0  0  0  0  0  0  0  0  0  0
  139.9250   70.4520  224.5800 C   0  0  0  0  0  0  0  0  0  0  0  0
  139.1620   69.6460  223.7540 C   0  0  0  0  0  0  0  0  0  0  0  0
  138.8100   68.3790  224.1630 C   0  0  0  0  0  0  0  0  0  0  0  0
  139.2220   67.9380  225.3800 N   0  0  0  0  0  0  0  0  0  0  0  0
  139.9640   68.7180  226.1860 C   0  0  0  0  0  0  0  0  0  0  0  0
  140.4890   68.1370  227.7540 Cl  0  0  0  0  0  0  0  0  0  0  0  0
  140.3500   70.0010  225.8310 C   0  0  0  0  0  0  0  0  0  0  0  0
  137.3414   74.2983  220.4533 H   0  0  0  0  0  0  0  0  0  0  0  0
  136.0556   73.0818  220.7987 H   0  0  0  0  0  0  0  0  0  0  0  0
  135.5085   74.2544  222.5800 H   0  0  0  0  0  0  0  0  0  0  0  0
  137.1605   73.8090  223.2595 H   0  0  0  0  0  0  0  0  0  0  0  0
  136.4261   76.2882  221.7361 H   0  0  0  0  0  0  0  0  0  0  0  0
  136.7941   76.1105  223.5119 H   0  0  0  0  0  0  0  0  0  0  0  0
  137.7142   78.3638  223.3314 H   0  0  0  0  0  0  0  0  0  0  0  0
  139.3622   80.1496  223.7773 H   0  0  0  0  0  0  0  0  0  0  0  0
  142.4773   77.6562  222.2642 H   0  0  0  0  0  0  0  0  0  0  0  0
  139.0600   73.9060  222.7480 H   0  0  0  0  0  0  0  0  0  0  0  0
  139.9032   71.0427  222.2309 H   0  0  0  0  0  0  0  0  0  0  0  0
  141.0532   72.4658  222.2781 H   0  0  0  0  0  0  0  0  0  0  0  0
  141.3862   72.0037  224.4063 H   0  0  0  0  0  0  0  0  0  0  0  0
  139.6989   72.5711  224.6964 H   0  0  0  0  0  0  0  0  0  0  0  0
  138.8366   70.0171  222.7709 H   0  0  0  0  0  0  0  0  0  0  0  0
  138.2029   67.7323  223.5125 H   0  0  0  0  0  0  0  0  0  0  0  0
  140.9579   70.6295  226.4984 H   0  0  0  0  0  0  0  0  0  0  0  0
  1  2  2  0
  2  3  1  0
  3  4  1  0
  4  5  1  0
  5  6  1  0
  6  7  1  0
  7  8  2  0
  8  9  1  0
  9 10  2  0
 10 11  1  0
 10 12  1  0
 12 13  2  0
 13 14  1  0
  2 15  1  0
 15 16  1  0
 16 17  1  0
 17 18  1  0
 18 19  2  0
 19 20  1  0
 20 21  2  0
 21 22  1  0
 22 23  1  0
 22 24  2  0
 13  7  1  0
 24 18  1  0
  3 25  1  0
  3 26  1  0
  4 27  1  0
  4 28  1  0
  5 29  1  0
  5 30  1  0
  8 31  1  0
  9 32  1  0
 12 33  1  0
 15 34  1  0
 16 35  1  0
 16 36  1  0
 17 37  1  0
 17 38  1  0
 19 39  1  0
 20 40  1  0
 24 41  1  0
M  END
>  <smiles>  (18) 
O=C(CCCOc1ccc(Cl)cc1Cl)NCCc1ccnc(Cl)c1

>  <score_type>  (18) 
oracle

>  <origin>  (18) 
autodockgpu

>  <m_score__min__energy>  (18) 
-7.4299999999999997

>  <m_primary>  (18) 
energy

>  <meeko>  (18) 
{"free_energy": -6.16, "intermolecular_energy": -8.54, "internal_energy": -1.74, "cluster_size": 1, "cluster_id": 4, "rank_in_cluster": 1}

>  <energy>  (18) 
-5.67

>  <cluster_rmsd>  (18) 
0.0

>  <rmsd>  (18) 
271.9

>  <cluster>  (18) 
8

$$$$

     RDKit          3D

 41 42  0  0  0  0  0  0  0  0999 V2000
  140.2270   74.1430  222.3090 O   0  0  0  0  0  0  0  0  0  0  0  0
  140.8990   73.2120  221.8170 C   0  0  0  0  0  0  0  0  0  0  0  0
  141.9250   73.3350  220.7700 C   0  0  0  0  0  0  0  0  0  0  0  0
  142.4050   74.7540  220.6710 C   0  0  0  0  0  0  0  0  0  0  0  0
  141.5960   75.6390  219.7870 C   0  0  0  0  0  0  0  0  0  0  0  0
  140.7990   76.5200  220.4930 O   0  0  0  0  0  0  0  0  0  0  0  0
  141.1580   77.5090  221.3460 C   0  0  0  0  0  0  0  0  0  0  0  0
  141.0860   77.5230  222.7040 C   0  0  0  0  0  0  0  0  0  0  0  0
  141.5020   78.6240  223.4580 C   0  0  0  0  0  0  0  0  0  0  0  0
  142.0050   79.7490  222.8570 C   0  0  0  0  0  0  0  0  0  0  0  0
  142.5120   81.1000  223.8410 Cl  0  0  0  0  0  0  0  0  0  0  0  0
  142.0880   79.7530  221.4840 C   0  0  0  0  0  0  0  0  0  0  0  0
  141.6790   78.6740  220.7530 C   0  0  0  0  0  0  0  0  0  0  0  0
  141.8300   78.7870  219.0000 Cl  0  0  0  0  0  0  0  0  0  0  0  0
  140.6380   71.8980  222.3310 N   0  0  0  0  0  0  0  0  0  0  0  0
  139.6600   71.6430  223.3540 C   0  0  0  0  0  0  0  0  0  0  0  0
  139.8570   70.3310  224.0770 C   0  0  0  0  0  0  0  0  0  0  0  0
  140.3450   70.5720  225.4830 C   0  0  0  0  0  0  0  0  0  0  0  0
  140.7020   71.8390  225.9090 C   0  0  0  0  0  0  0  0  0  0  0  0
  141.1450   72.0310  227.2000 C   0  0  0  0  0  0  0  0  0  0  0  0
  141.2230   70.9650  228.0380 N   0  0  0  0  0  0  0  0  0  0  0  0
  140.8760   69.7320  227.6280 C   0  0  0  0  0  0  0  0  0  0  0  0
  140.9810   68.3650  228.7190 Cl  0  0  0  0  0  0  0  0  0  0  0  0
  140.4240   69.4750  226.3420 C   0  0  0  0  0  0  0  0  0  0  0  0
  142.7747   72.6814  221.0168 H   0  0  0  0  0  0  0  0  0  0  0  0
  141.4874   73.0385  219.8053 H   0  0  0  0  0  0  0  0  0  0  0  0
  142.3987   75.1863  221.6825 H   0  0  0  0  0  0  0  0  0  0  0  0
  143.4066   74.7057  220.2189 H   0  0  0  0  0  0  0  0  0  0  0  0
  142.2800   76.2181  219.1492 H   0  0  0  0  0  0  0  0  0  0  0  0
  140.9307   74.9944  219.1938 H   0  0  0  0  0  0  0  0  0  0  0  0
  140.6878   76.6401  223.2254 H   0  0  0  0  0  0  0  0  0  0  0  0
  141.4243   78.5872  224.5546 H   0  0  0  0  0  0  0  0  0  0  0  0
  142.4893   80.6374  220.9675 H   0  0  0  0  0  0  0  0  0  0  0  0
  141.1940   71.0820  221.9340 H   0  0  0  0  0  0  0  0  0  0  0  0
  139.7115   72.4565  224.0927 H   0  0  0  0  0  0  0  0  0  0  0  0
  138.6820   71.5877  222.8536 H   0  0  0  0  0  0  0  0  0  0  0  0
  138.8997   69.7904  224.1136 H   0  0  0  0  0  0  0  0  0  0  0  0
  140.6077   69.7358  223.5366 H   0  0  0  0  0  0  0  0  0  0  0  0
  140.6324   72.6922  225.2182 H   0  0  0  0  0  0  0  0  0  0  0  0
  141.4317   73.0346  227.5471 H   0  0  0  0  0  0  0  0  0  0  0  0
  140.1433   68.4622  226.0172 H   0  0  0  0  0  0  0  0  0  0  0  0
  1  2  2  0
  2  3  1  0
  3  4  1  0
  4  5  1  0
  5  6  1  0
  6  7  1  0
  7  8  2  0
  8  9  1  0
  9 10  2  0
 10 11  1  0
 10 12  1  0
 12 13  2  0
 13 14  1  0
  2 15  1  0
 15 16  1  0
 16 17  1  0
 17 18  1  0
 18 19  2  0
 19 20  1  0
 20 21  2  0
 21 22  1  0
 22 23  1  0
 22 24  2  0
 13  7  1  0
 24 18  1  0
  3 25  1  0
  3 26  1  0
  4 27  1  0
  4 28  1  0
  5 29  1  0
  5 30  1  0
  8 31  1  0
  9 32  1  0
 12 33  1  0
 15 34  1  0
 16 35  1  0
 16 36  1  0
 17 37  1  0
 17 38  1  0
 19 39  1  0
 20 40  1  0
 24 41  1  0
M  END
>  <smiles>  (19) 
O=C(CCCOc1ccc(Cl)cc1Cl)NCCc1ccnc(Cl)c1

>  <score_type>  (19) 
oracle

>  <origin>  (19) 
autodockgpu

>  <m_score__min__energy>  (19) 
-7.4299999999999997

>  <m_primary>  (19) 
energy

>  <meeko>  (19) 
{"free_energy": -7.43, "intermolecular_energy": -9.82, "internal_energy": -0.79, "cluster_size": 2, "cluster_id": 1, "rank_in_cluster": 1}

>  <energy>  (19) 
-5.14

>  <cluster_rmsd>  (19) 
0.0

>  <rmsd>  (19) 
271.8

>  <cluster>  (19) 
9

$$$$

     RDKit          3D

 41 42  0  0  0  0  0  0  0  0999 V2000
  139.8960   80.1230  219.9420 O   0  0  0  0  0  0  0  0  0  0  0  0
  141.0300   80.1980  220.4570 C   0  0  0  0  0  0  0  0  0  0  0  0
  141.5690   81.3340  221.2210 C   0  0  0  0  0  0  0  0  0  0  0  0
  142.5510   80.8540  222.2510 C   0  0  0  0  0  0  0  0  0  0  0  0
  142.1690   81.1160  223.6660 C   0  0  0  0  0  0  0  0  0  0  0  0
  141.3760   80.1190  224.2010 O   0  0  0  0  0  0  0  0  0  0  0  0
  140.8280   79.0390  223.5950 C   0  0  0  0  0  0  0  0  0  0  0  0
  141.4400   77.8950  223.1880 C   0  0  0  0  0  0  0  0  0  0  0  0
  140.7370   76.8550  222.5740 C   0  0  0  0  0  0  0  0  0  0  0  0
  139.3870   76.9420  222.3520 C   0  0  0  0  0  0  0  0  0  0  0  0
  138.5520   75.6160  221.5810 Cl  0  0  0  0  0  0  0  0  0  0  0  0
  138.7490   78.0910  222.7580 C   0  0  0  0  0  0  0  0  0  0  0  0
  139.4420   79.1040  223.3580 C   0  0  0  0  0  0  0  0  0  0  0  0
  138.5250   80.5300  223.8370 Cl  0  0  0  0  0  0  0  0  0  0  0  0
  141.8860   79.0590  220.2820 N   0  0  0  0  0  0  0  0  0  0  0  0
  141.4800   77.8870  219.5560 C   0  0  0  0  0  0  0  0  0  0  0  0
  142.6280   77.1130  218.9490 C   0  0  0  0  0  0  0  0  0  0  0  0
  142.7720   75.7710  219.6200 C   0  0  0  0  0  0  0  0  0  0  0  0
  141.6620   75.0170  219.9600 C   0  0  0  0  0  0  0  0  0  0  0  0
  141.8240   73.7940  220.5730 C   0  0  0  0  0  0  0  0  0  0  0  0
  143.0790   73.3440  220.8330 N   0  0  0  0  0  0  0  0  0  0  0  0
  144.1600   74.0730  220.5040 C   0  0  0  0  0  0  0  0  0  0  0  0
  145.7740   73.4830  220.8450 Cl  0  0  0  0  0  0  0  0  0  0  0  0
  144.0630   75.3110  219.8860 C   0  0  0  0  0  0  0  0  0  0  0  0
  142.0755   82.0262  220.5323 H   0  0  0  0  0  0  0  0  0  0  0  0
  140.7398   81.8467  221.7305 H   0  0  0  0  0  0  0  0  0  0  0  0
  142.6697   79.7675  222.1268 H   0  0  0  0  0  0  0  0  0  0  0  0
  143.4768   81.4218  222.0761 H   0  0  0  0  0  0  0  0  0  0  0  0
  143.0860   81.1966  224.2682 H   0  0  0  0  0  0  0  0  0  0  0  0
  141.5852   82.0481  223.6838 H   0  0  0  0  0  0  0  0  0  0  0  0
  142.5228   77.7847  223.3471 H   0  0  0  0  0  0  0  0  0  0  0  0
  141.2774   75.9489  222.2627 H   0  0  0  0  0  0  0  0  0  0  0  0
  137.6658   78.1957  222.5973 H   0  0  0  0  0  0  0  0  0  0  0  0
  142.8600   79.0900  220.7090 H   0  0  0  0  0  0  0  0  0  0  0  0
  140.9406   77.2218  220.2463 H   0  0  0  0  0  0  0  0  0  0  0  0
  140.8507   78.2307  218.7218 H   0  0  0  0  0  0  0  0  0  0  0  0
  142.4365   76.9628  217.8763 H   0  0  0  0  0  0  0  0  0  0  0  0
  143.5573   77.6840  219.0916 H   0  0  0  0  0  0  0  0  0  0  0  0
  140.6520   75.3939  219.7410 H   0  0  0  0  0  0  0  0  0  0  0  0
  140.9476   73.1891  220.8486 H   0  0  0  0  0  0  0  0  0  0  0  0
  144.9544   75.8981  219.6201 H   0  0  0  0  0  0  0  0  0  0  0  0
  1  2  2  0
  2  3  1  0
  3  4  1  0
  4  5  1  0
  5  6  1  0
  6  7  1  0
  7  8  2  0
  8  9  1  0
  9 10  2  0
 10 11  1  0
 10 12  1  0
 12 13  2  0
 13 14  1  0
  2 15  1  0
 15 16  1  0
 16 17  1  0
 17 18  1  0
 18 19  2  0
 19 20  1  0
 20 21  2  0
 21 22  1  0
 22 23  1  0
 22 24  2  0
 13  7  1  0
 24 18  1  0
  3 25  1  0
  3 26  1  0
  4 27  1  0
  4 28  1  0
  5 29  1  0
  5 30  1  0
  8 31  1  0
  9 32  1  0
 12 33  1  0
 15 34  1  0
 16 35  1  0
 16 36  1  0
 17 37  1  0
 17 38  1  0
 19 39  1  0
 20 40  1  0
 24 41  1  0
M  END
>  <smiles>  (20) 
O=C(CCCOc1ccc(Cl)cc1Cl)NCCc1ccnc(Cl)c1

>  <score_type>  (20) 
oracle

>  <origin>  (20) 
autodockgpu

>  <m_score__min__energy>  (20) 
-7.4299999999999997

>  <m_primary>  (20) 
energy

>  <meeko>  (20) 
{"free_energy": -5.67, "intermolecular_energy": -8.06, "internal_energy": -1.99, "cluster_size": 1, "cluster_id": 8, "rank_in_cluster": 1}

>  <energy>  (20) 
-4.82

>  <cluster_rmsd>  (20) 
0.0

>  <rmsd>  (20) 
272.25

>  <cluster>  (20) 
10

$$$$
