
     RDKit          3D

 46 50  0  0  0  0  0  0  0  0999 V2000
  141.2650   68.1110  229.0780 C   0  0  0  0  0  0  0  0  0  0  0  0
  140.7800   68.4650  227.6970 C   0  0  0  0  0  0  0  0  0  0  0  0
  140.0660   67.5290  226.9760 C   0  0  0  0  0  0  0  0  0  0  0  0
  139.5900   67.8020  225.6910 C   0  0  0  0  0  0  0  0  0  0  0  0
  139.8670   69.0590  225.1700 C   0  0  0  0  0  0  0  0  0  0  0  0
  140.5850   70.0030  225.8900 C   0  0  0  0  0  0  0  0  0  0  0  0
  141.0490   69.7220  227.1580 C   0  0  0  0  0  0  0  0  0  0  0  0
  140.6970   71.2280  225.0360 C   0  0  0  0  0  0  0  0  0  0  0  0
  139.9680   70.8190  223.8070 C   0  0  0  0  0  0  0  0  0  0  0  0
  139.7660   71.6580  222.6150 C   0  0  0  0  0  0  0  0  0  0  0  0
  139.3300   71.0660  221.4480 C   0  0  0  0  0  0  0  0  0  0  0  0
  139.1350   71.8520  220.3120 C   0  0  0  0  0  0  0  0  0  0  0  0
  139.3950   73.2020  220.4190 C   0  0  0  0  0  0  0  0  0  0  0  0
  139.8310   73.8080  221.5730 C   0  0  0  0  0  0  0  0  0  0  0  0
  140.0810   75.2450  221.5960 C   0  0  0  0  0  0  0  0  0  0  0  0
  140.6820   75.7280  220.5870 O   0  0  0  0  0  0  0  0  0  0  0  0
  139.6910   76.0700  222.6570 N   0  0  0  0  0  0  0  0  0  0  0  0
  139.9420   77.4760  222.6690 C   0  0  0  0  0  0  0  0  0  0  0  0
  138.9490   78.4170  222.8050 C   0  0  0  0  0  0  0  0  0  0  0  0
  139.2500   79.7630  222.8100 C   0  0  0  0  0  0  0  0  0  0  0  0
  140.5730   80.1250  222.6740 C   0  0  0  0  0  0  0  0  0  0  0  0
  141.2200   81.3620  222.6370 C   0  0  0  0  0  0  0  0  0  0  0  0
  142.5420   81.1530  222.4850 N   0  0  0  0  0  0  0  0  0  0  0  0
  142.7760   79.8570  222.4240 N   0  0  0  0  0  0  0  0  0  0  0  0
  141.5950   79.2060  222.5360 C   0  0  0  0  0  0  0  0  0  0  0  0
  141.2660   77.8650  222.5340 C   0  0  0  0  0  0  0  0  0  0  0  0
  140.0140   73.0130  222.6780 C   0  0  0  0  0  0  0  0  0  0  0  0
  139.5200   69.6270  223.9010 N   0  0  0  0  0  0  0  0  0  0  0  0
  140.6149   68.5855  229.8278 H   0  0  0  0  0  0  0  0  0  0  0  0
  141.2377   67.0190  229.2075 H   0  0  0  0  0  0  0  0  0  0  0  0
  142.2967   68.4699  229.2075 H   0  0  0  0  0  0  0  0  0  0  0  0
  139.8669   66.5443  227.4240 H   0  0  0  0  0  0  0  0  0  0  0  0
  139.0214   67.0548  225.1179 H   0  0  0  0  0  0  0  0  0  0  0  0
  141.6170   70.4709  227.7295 H   0  0  0  0  0  0  0  0  0  0  0  0
  140.2171   72.0940  225.5153 H   0  0  0  0  0  0  0  0  0  0  0  0
  141.7340   71.5447  224.8505 H   0  0  0  0  0  0  0  0  0  0  0  0
  139.1377   69.9835  221.4133 H   0  0  0  0  0  0  0  0  0  0  0  0
  138.7868   71.4113  219.3662 H   0  0  0  0  0  0  0  0  0  0  0  0
  139.2447   73.8305  219.5289 H   0  0  0  0  0  0  0  0  0  0  0  0
  139.1990   75.6870  223.4880 H   0  0  0  0  0  0  0  0  0  0  0  0
  137.9032   78.0930  222.9109 H   0  0  0  0  0  0  0  0  0  0  0  0
  138.4611   80.5218  222.9188 H   0  0  0  0  0  0  0  0  0  0  0  0
  140.7312   82.3441  222.7184 H   0  0  0  0  0  0  0  0  0  0  0  0
  143.6850   79.3440  222.3090 H   0  0  0  0  0  0  0  0  0  0  0  0
  142.0542   77.1054  222.4253 H   0  0  0  0  0  0  0  0  0  0  0  0
  140.3612   73.4608  223.6208 H   0  0  0  0  0  0  0  0  0  0  0  0
  1  2  1  0
  2  3  2  0
  3  4  1  0
  4  5  2  0
  5  6  1  0
  6  7  2  0
  6  8  1  0
  8  9  1  0
  9 10  1  0
 10 11  2  0
 11 12  1  0
 12 13  2  0
 13 14  1  0
 14 15  1  0
 15 16  2  0
 15 17  1  0
 17 18  1  0
 18 19  2  0
 19 20  1  0
 20 21  2  0
 21 22  1  0
 22 23  2  0
 23 24  1  0
 24 25  1  0
 25 26  2  0
 14 27  2  0
  9 28  2  0
  7  2  1  0
 27 10  1  0
 28  5  1  0
 26 18  1  0
 25 21  1  0
  1 29  1  0
  1 30  1  0
  1 31  1  0
  3 32  1  0
  4 33  1  0
  7 34  1  0
  8 35  1  0
  8 36  1  0
 11 37  1  0
 12 38  1  0
 13 39  1  0
 17 40  1  0
 19 41  1  0
 20 42  1  0
 22 43  1  0
 24 44  1  0
 26 45  1  0
 27 46  1  0
M  END
>  <smiles>  (1) 
Cc1ccc2c(c1)CC(c1cccc(C(=O)Nc3ccc4cn[nH]c4c3)c1)=N2

>  <score_type>  (1) 
oracle

>  <origin>  (1) 
autodockgpu

>  <m_score__min__energy>  (1) 
-9.2400000000000002

>  <m_primary>  (1) 
energy

>  <meeko>  (1) 
{"free_energy": -9.23, "intermolecular_energy": -10.12, "internal_energy": -0.7, "cluster_size": 20, "cluster_id": 1, "rank_in_cluster": 7}

>  <energy>  (1) 
-9.24

>  <cluster_rmsd>  (1) 
0.0

>  <rmsd>  (1) 
271.87

>  <cluster>  (1) 
1

$$$$

     RDKit          3D

 46 50  0  0  0  0  0  0  0  0999 V2000
  141.2590   68.1340  229.0820 C   0  0  0  0  0  0  0  0  0  0  0  0
  140.7730   68.4810  227.7000 C   0  0  0  0  0  0  0  0  0  0  0  0
  140.0720   67.5340  226.9780 C   0  0  0  0  0  0  0  0  0  0  0  0
  139.5960   67.8000  225.6920 C   0  0  0  0  0  0  0  0  0  0  0  0
  139.8600   69.0600  225.1690 C   0  0  0  0  0  0  0  0  0  0  0  0
  140.5630   70.0140  225.8900 C   0  0  0  0  0  0  0  0  0  0  0  0
  141.0280   69.7400  227.1590 C   0  0  0  0  0  0  0  0  0  0  0  0
  140.6620   71.2390  225.0350 C   0  0  0  0  0  0  0  0  0  0  0  0
  139.9410   70.8190  223.8050 C   0  0  0  0  0  0  0  0  0  0  0  0
  139.7320   71.6540  222.6110 C   0  0  0  0  0  0  0  0  0  0  0  0
  139.2840   71.0590  221.4490 C   0  0  0  0  0  0  0  0  0  0  0  0
  139.0830   71.8400  220.3120 C   0  0  0  0  0  0  0  0  0  0  0  0
  139.3480   73.1900  220.4120 C   0  0  0  0  0  0  0  0  0  0  0  0
  139.7950   73.8000  221.5590 C   0  0  0  0  0  0  0  0  0  0  0  0
  140.0500   75.2360  221.5740 C   0  0  0  0  0  0  0  0  0  0  0  0
  140.6190   75.7180  220.5460 O   0  0  0  0  0  0  0  0  0  0  0  0
  139.6980   76.0620  222.6480 N   0  0  0  0  0  0  0  0  0  0  0  0
  139.9530   77.4670  222.6520 C   0  0  0  0  0  0  0  0  0  0  0  0
  138.9600   78.4120  222.7620 C   0  0  0  0  0  0  0  0  0  0  0  0
  139.2650   79.7570  222.7600 C   0  0  0  0  0  0  0  0  0  0  0  0
  140.5920   80.1140  222.6450 C   0  0  0  0  0  0  0  0  0  0  0  0
  141.2430   81.3490  222.6080 C   0  0  0  0  0  0  0  0  0  0  0  0
  142.5670   81.1340  222.4830 N   0  0  0  0  0  0  0  0  0  0  0  0
  142.7980   79.8370  222.4370 N   0  0  0  0  0  0  0  0  0  0  0  0
  141.6130   79.1900  222.5330 C   0  0  0  0  0  0  0  0  0  0  0  0
  141.2800   77.8510  222.5380 C   0  0  0  0  0  0  0  0  0  0  0  0
  139.9850   73.0090  222.6660 C   0  0  0  0  0  0  0  0  0  0  0  0
  139.5090   69.6220  223.8990 N   0  0  0  0  0  0  0  0  0  0  0  0
  140.6026   68.6027  229.8300 H   0  0  0  0  0  0  0  0  0  0  0  0
  141.2429   67.0419  229.2129 H   0  0  0  0  0  0  0  0  0  0  0  0
  142.2867   68.5039  229.2129 H   0  0  0  0  0  0  0  0  0  0  0  0
  139.8844   66.5473  227.4266 H   0  0  0  0  0  0  0  0  0  0  0  0
  139.0370   67.0456  225.1188 H   0  0  0  0  0  0  0  0  0  0  0  0
  141.5864   70.4963  227.7302 H   0  0  0  0  0  0  0  0  0  0  0  0
  140.1702   72.0996  225.5119 H   0  0  0  0  0  0  0  0  0  0  0  0
  141.6953   71.5686  224.8517 H   0  0  0  0  0  0  0  0  0  0  0  0
  139.0871   69.9771  221.4204 H   0  0  0  0  0  0  0  0  0  0  0  0
  138.7265   71.3965  219.3706 H   0  0  0  0  0  0  0  0  0  0  0  0
  139.1922   73.8153  219.5205 H   0  0  0  0  0  0  0  0  0  0  0  0
  139.2330   75.6790  223.4950 H   0  0  0  0  0  0  0  0  0  0  0  0
  137.9115   78.0918  222.8525 H   0  0  0  0  0  0  0  0  0  0  0  0
  138.4765   80.5191  222.8472 H   0  0  0  0  0  0  0  0  0  0  0  0
  140.7558   82.3333  222.6705 H   0  0  0  0  0  0  0  0  0  0  0  0
  143.7070   79.3200  222.3430 H   0  0  0  0  0  0  0  0  0  0  0  0
  142.0677   77.0881  222.4515 H   0  0  0  0  0  0  0  0  0  0  0  0
  140.3418   73.4597  223.6038 H   0  0  0  0  0  0  0  0  0  0  0  0
  1  2  1  0
  2  3  2  0
  3  4  1  0
  4  5  2  0
  5  6  1  0
  6  7  2  0
  6  8  1  0
  8  9  1  0
  9 10  1  0
 10 11  2  0
 11 12  1  0
 12 13  2  0
 13 14  1  0
 14 15  1  0
 15 16  2  0
 15 17  1  0
 17 18  1  0
 18 19  2  0
 19 20  1  0
 20 21  2  0
 21 22  1  0
 22 23  2  0
 23 24  1  0
 24 25  1  0
 25 26  2  0
 14 27  2  0
  9 28  2  0
  7  2  1  0
 27 10  1  0
 28  5  1  0
 26 18  1  0
 25 21  1  0
  1 29  1  0
  1 30  1  0
  1 31  1  0
  3 32  1  0
  4 33  1  0
  7 34  1  0
  8 35  1  0
  8 36  1  0
 11 37  1  0
 12 38  1  0
 13 39  1  0
 17 40  1  0
 19 41  1  0
 20 42  1  0
 22 43  1  0
 24 44  1  0
 26 45  1  0
 27 46  1  0
M  END
>  <smiles>  (2) 
Cc1ccc2c(c1)CC(c1cccc(C(=O)Nc3ccc4cn[nH]c4c3)c1)=N2

>  <score_type>  (2) 
oracle

>  <origin>  (2) 
autodockgpu

>  <m_score__min__energy>  (2) 
-9.2400000000000002

>  <m_primary>  (2) 
energy

>  <meeko>  (2) 
{"free_energy": -9.22, "intermolecular_energy": -10.11, "internal_energy": -0.71, "cluster_size": 20, "cluster_id": 1, "rank_in_cluster": 16}

>  <energy>  (2) 
-9.23

>  <cluster_rmsd>  (2) 
0.03

>  <rmsd>  (2) 
271.87

>  <cluster>  (2) 
1

$$$$

     RDKit          3D

 46 50  0  0  0  0  0  0  0  0999 V2000
  141.2020   68.1260  229.0650 C   0  0  0  0  0  0  0  0  0  0  0  0
  140.7350   68.4750  227.6770 C   0  0  0  0  0  0  0  0  0  0  0  0
  140.0570   67.5250  226.9390 C   0  0  0  0  0  0  0  0  0  0  0  0
  139.5990   67.7920  225.6460 C   0  0  0  0  0  0  0  0  0  0  0  0
  139.8570   69.0570  225.1340 C   0  0  0  0  0  0  0  0  0  0  0  0
  140.5390   70.0150  225.8710 C   0  0  0  0  0  0  0  0  0  0  0  0
  140.9850   69.7390  227.1470 C   0  0  0  0  0  0  0  0  0  0  0  0
  140.6380   71.2450  225.0240 C   0  0  0  0  0  0  0  0  0  0  0  0
  139.9430   70.8240  223.7800 C   0  0  0  0  0  0  0  0  0  0  0  0
  139.7440   71.6630  222.5870 C   0  0  0  0  0  0  0  0  0  0  0  0
  139.3150   71.0700  221.4170 C   0  0  0  0  0  0  0  0  0  0  0  0
  139.1240   71.8560  220.2800 C   0  0  0  0  0  0  0  0  0  0  0  0
  139.3790   73.2070  220.3890 C   0  0  0  0  0  0  0  0  0  0  0  0
  139.8080   73.8140  221.5450 C   0  0  0  0  0  0  0  0  0  0  0  0
  140.0540   75.2510  221.5700 C   0  0  0  0  0  0  0  0  0  0  0  0
  140.6280   75.7420  220.5490 O   0  0  0  0  0  0  0  0  0  0  0  0
  139.6880   76.0700  222.6450 N   0  0  0  0  0  0  0  0  0  0  0  0
  139.9350   77.4760  222.6590 C   0  0  0  0  0  0  0  0  0  0  0  0
  138.9370   78.4140  222.7800 C   0  0  0  0  0  0  0  0  0  0  0  0
  139.2340   79.7610  222.7860 C   0  0  0  0  0  0  0  0  0  0  0  0
  140.5580   80.1260  222.6680 C   0  0  0  0  0  0  0  0  0  0  0  0
  141.2010   81.3660  222.6380 C   0  0  0  0  0  0  0  0  0  0  0  0
  142.5260   81.1600  222.5050 N   0  0  0  0  0  0  0  0  0  0  0  0
  142.7650   79.8650  222.4490 N   0  0  0  0  0  0  0  0  0  0  0  0
  141.5840   79.2110  222.5450 C   0  0  0  0  0  0  0  0  0  0  0  0
  141.2590   77.8690  222.5410 C   0  0  0  0  0  0  0  0  0  0  0  0
  139.9880   73.0190  222.6510 C   0  0  0  0  0  0  0  0  0  0  0  0
  139.5210   69.6220  223.8610 N   0  0  0  0  0  0  0  0  0  0  0  0
  140.5498   68.6134  229.8047 H   0  0  0  0  0  0  0  0  0  0  0  0
  141.1610   67.0354  229.2023 H   0  0  0  0  0  0  0  0  0  0  0  0
  142.2364   68.4742  229.2023 H   0  0  0  0  0  0  0  0  0  0  0  0
  139.8730   66.5340  227.3796 H   0  0  0  0  0  0  0  0  0  0  0  0
  139.0584   67.0342  225.0600 H   0  0  0  0  0  0  0  0  0  0  0  0
  141.5248   70.4984  227.7317 H   0  0  0  0  0  0  0  0  0  0  0  0
  140.1284   72.0974  225.4970 H   0  0  0  0  0  0  0  0  0  0  0  0
  141.6705   71.5869  224.8597 H   0  0  0  0  0  0  0  0  0  0  0  0
  139.1253   69.9871  221.3811 H   0  0  0  0  0  0  0  0  0  0  0  0
  138.7827   71.4145  219.3320 H   0  0  0  0  0  0  0  0  0  0  0  0
  139.2303   73.8355  219.4986 H   0  0  0  0  0  0  0  0  0  0  0  0
  139.2190   75.6800  223.4870 H   0  0  0  0  0  0  0  0  0  0  0  0
  137.8909   78.0869  222.8730 H   0  0  0  0  0  0  0  0  0  0  0  0
  138.4415   80.5179  222.8816 H   0  0  0  0  0  0  0  0  0  0  0  0
  140.7080   82.3466  222.7108 H   0  0  0  0  0  0  0  0  0  0  0  0
  143.6770   79.3540  222.3470 H   0  0  0  0  0  0  0  0  0  0  0  0
  142.0509   77.1117  222.4442 H   0  0  0  0  0  0  0  0  0  0  0  0
  140.3296   73.4677  223.5954 H   0  0  0  0  0  0  0  0  0  0  0  0
  1  2  1  0
  2  3  2  0
  3  4  1  0
  4  5  2  0
  5  6  1  0
  6  7  2  0
  6  8  1  0
  8  9  1  0
  9 10  1  0
 10 11  2  0
 11 12  1  0
 12 13  2  0
 13 14  1  0
 14 15  1  0
 15 16  2  0
 15 17  1  0
 17 18  1  0
 18 19  2  0
 19 20  1  0
 20 21  2  0
 21 22  1  0
 22 23  2  0
 23 24  1  0
 24 25  1  0
 25 26  2  0
 14 27  2  0
  9 28  2  0
  7  2  1  0
 27 10  1  0
 28  5  1  0
 26 18  1  0
 25 21  1  0
  1 29  1  0
  1 30  1  0
  1 31  1  0
  3 32  1  0
  4 33  1  0
  7 34  1  0
  8 35  1  0
  8 36  1  0
 11 37  1  0
 12 38  1  0
 13 39  1  0
 17 40  1  0
 19 41  1  0
 20 42  1  0
 22 43  1  0
 24 44  1  0
 26 45  1  0
 27 46  1  0
M  END
>  <smiles>  (3) 
Cc1ccc2c(c1)CC(c1cccc(C(=O)Nc3ccc4cn[nH]c4c3)c1)=N2

>  <score_type>  (3) 
oracle

>  <origin>  (3) 
autodockgpu

>  <m_score__min__energy>  (3) 
-9.2400000000000002

>  <m_primary>  (3) 
energy

>  <meeko>  (3) 
{"free_energy": -9.22, "intermolecular_energy": -10.11, "internal_energy": -0.71, "cluster_size": 20, "cluster_id": 1, "rank_in_cluster": 17}

>  <energy>  (3) 
-9.23

>  <cluster_rmsd>  (3) 
0.04

>  <rmsd>  (3) 
271.89

>  <cluster>  (3) 
1

$$$$

     RDKit          3D

 46 50  0  0  0  0  0  0  0  0999 V2000
  141.1650   68.1400  229.0920 C   0  0  0  0  0  0  0  0  0  0  0  0
  140.7010   68.4870  227.7030 C   0  0  0  0  0  0  0  0  0  0  0  0
  140.0160   67.5390  226.9680 C   0  0  0  0  0  0  0  0  0  0  0  0
  139.5600   67.8040  225.6740 C   0  0  0  0  0  0  0  0  0  0  0  0
  139.8280   69.0650  225.1570 C   0  0  0  0  0  0  0  0  0  0  0  0
  140.5150   70.0210  225.8910 C   0  0  0  0  0  0  0  0  0  0  0  0
  140.9600   69.7470  227.1680 C   0  0  0  0  0  0  0  0  0  0  0  0
  140.6240   71.2470  225.0390 C   0  0  0  0  0  0  0  0  0  0  0  0
  139.9260   70.8270  223.7970 C   0  0  0  0  0  0  0  0  0  0  0  0
  139.7330   71.6620  222.6000 C   0  0  0  0  0  0  0  0  0  0  0  0
  139.3040   71.0670  221.4320 C   0  0  0  0  0  0  0  0  0  0  0  0
  139.1190   71.8500  220.2920 C   0  0  0  0  0  0  0  0  0  0  0  0
  139.3800   73.2000  220.3970 C   0  0  0  0  0  0  0  0  0  0  0  0
  139.8080   73.8090  221.5520 C   0  0  0  0  0  0  0  0  0  0  0  0
  140.0610   75.2450  221.5720 C   0  0  0  0  0  0  0  0  0  0  0  0
  140.6370   75.7310  220.5490 O   0  0  0  0  0  0  0  0  0  0  0  0
  139.6980   76.0690  222.6450 N   0  0  0  0  0  0  0  0  0  0  0  0
  139.9510   77.4740  222.6540 C   0  0  0  0  0  0  0  0  0  0  0  0
  138.9570   78.4160  222.7690 C   0  0  0  0  0  0  0  0  0  0  0  0
  139.2590   79.7630  222.7720 C   0  0  0  0  0  0  0  0  0  0  0  0
  140.5850   80.1220  222.6550 C   0  0  0  0  0  0  0  0  0  0  0  0
  141.2340   81.3580  222.6230 C   0  0  0  0  0  0  0  0  0  0  0  0
  142.5580   81.1470  222.4930 N   0  0  0  0  0  0  0  0  0  0  0  0
  142.7910   79.8500  222.4420 N   0  0  0  0  0  0  0  0  0  0  0  0
  141.6080   79.2010  222.5380 C   0  0  0  0  0  0  0  0  0  0  0  0
  141.2770   77.8610  222.5380 C   0  0  0  0  0  0  0  0  0  0  0  0
  139.9830   73.0170  222.6600 C   0  0  0  0  0  0  0  0  0  0  0  0
  139.4960   69.6270  223.8820 N   0  0  0  0  0  0  0  0  0  0  0  0
  140.5115   68.6287  229.8297 H   0  0  0  0  0  0  0  0  0  0  0  0
  141.1234   67.0496  229.2308 H   0  0  0  0  0  0  0  0  0  0  0  0
  142.1992   68.4881  229.2308 H   0  0  0  0  0  0  0  0  0  0  0  0
  139.8248   66.5511  227.4123 H   0  0  0  0  0  0  0  0  0  0  0  0
  139.0134   67.0480  225.0911 H   0  0  0  0  0  0  0  0  0  0  0  0
  141.5058   70.5047  227.7493 H   0  0  0  0  0  0  0  0  0  0  0  0
  140.1213   72.1053  225.5086 H   0  0  0  0  0  0  0  0  0  0  0  0
  141.6593   71.5799  224.8735 H   0  0  0  0  0  0  0  0  0  0  0  0
  139.1094   69.9848  221.3995 H   0  0  0  0  0  0  0  0  0  0  0  0
  138.7777   71.4069  219.3448 H   0  0  0  0  0  0  0  0  0  0  0  0
  139.2372   73.8260  219.5038 H   0  0  0  0  0  0  0  0  0  0  0  0
  139.2270   75.6840  223.4870 H   0  0  0  0  0  0  0  0  0  0  0  0
  137.9094   78.0931  222.8596 H   0  0  0  0  0  0  0  0  0  0  0  0
  138.4694   80.5233  222.8645 H   0  0  0  0  0  0  0  0  0  0  0  0
  140.7451   82.3409  222.6924 H   0  0  0  0  0  0  0  0  0  0  0  0
  143.7010   79.3350  222.3440 H   0  0  0  0  0  0  0  0  0  0  0  0
  142.0658   77.0999  222.4459 H   0  0  0  0  0  0  0  0  0  0  0  0
  140.3255   73.4671  223.6035 H   0  0  0  0  0  0  0  0  0  0  0  0
  1  2  1  0
  2  3  2  0
  3  4  1  0
  4  5  2  0
  5  6  1  0
  6  7  2  0
  6  8  1  0
  8  9  1  0
  9 10  1  0
 10 11  2  0
 11 12  1  0
 12 13  2  0
 13 14  1  0
 14 15  1  0
 15 16  2  0
 15 17  1  0
 17 18  1  0
 18 19  2  0
 19 20  1  0
 20 21  2  0
 21 22  1  0
 22 23  2  0
 23 24  1  0
 24 25  1  0
 25 26  2  0
 14 27  2  0
  9 28  2  0
  7  2  1  0
 27 10  1  0
 28  5  1  0
 26 18  1  0
 25 21  1  0
  1 29  1  0
  1 30  1  0
  1 31  1  0
  3 32  1  0
  4 33  1  0
  7 34  1  0
  8 35  1  0
  8 36  1  0
 11 37  1  0
 12 38  1  0
 13 39  1  0
 17 40  1  0
 19 41  1  0
 20 42  1  0
 22 43  1  0
 24 44  1  0
 26 45  1  0
 27 46  1  0
M  END
>  <smiles>  (4) 
Cc1ccc2c(c1)CC(c1cccc(C(=O)Nc3ccc4cn[nH]c4c3)c1)=N2

>  <score_type>  (4) 
oracle

>  <origin>  (4) 
autodockgpu

>  <m_score__min__energy>  (4) 
-9.2400000000000002

>  <m_primary>  (4) 
energy

>  <meeko>  (4) 
{"free_energy": -9.22, "intermolecular_energy": -10.12, "internal_energy": -0.71, "cluster_size": 20, "cluster_id": 1, "rank_in_cluster": 12}

>  <energy>  (4) 
-9.23

>  <cluster_rmsd>  (4) 
0.05

>  <rmsd>  (4) 
271.88

>  <cluster>  (4) 
1

$$$$

     RDKit          3D

 46 50  0  0  0  0  0  0  0  0999 V2000
  141.2640   68.0980  229.0220 C   0  0  0  0  0  0  0  0  0  0  0  0
  140.7650   68.4550  227.6480 C   0  0  0  0  0  0  0  0  0  0  0  0
  140.0430   67.5200  226.9330 C   0  0  0  0  0  0  0  0  0  0  0  0
  139.5540   67.7960  225.6530 C   0  0  0  0  0  0  0  0  0  0  0  0
  139.8260   69.0540  225.1310 C   0  0  0  0  0  0  0  0  0  0  0  0
  140.5500   69.9970  225.8460 C   0  0  0  0  0  0  0  0  0  0  0  0
  141.0280   69.7130  227.1080 C   0  0  0  0  0  0  0  0  0  0  0  0
  140.6530   71.2240  224.9940 C   0  0  0  0  0  0  0  0  0  0  0  0
  139.9110   70.8180  223.7720 C   0  0  0  0  0  0  0  0  0  0  0  0
  139.6970   71.6590  222.5840 C   0  0  0  0  0  0  0  0  0  0  0  0
  139.2460   71.0700  221.4210 C   0  0  0  0  0  0  0  0  0  0  0  0
  139.0390   71.8590  220.2890 C   0  0  0  0  0  0  0  0  0  0  0  0
  139.3030   73.2080  220.3950 C   0  0  0  0  0  0  0  0  0  0  0  0
  139.7540   73.8110  221.5450 C   0  0  0  0  0  0  0  0  0  0  0  0
  140.0070   75.2470  221.5680 C   0  0  0  0  0  0  0  0  0  0  0  0
  140.5620   75.7380  220.5350 O   0  0  0  0  0  0  0  0  0  0  0  0
  139.6690   76.0650  222.6520 N   0  0  0  0  0  0  0  0  0  0  0  0
  139.9220   77.4700  222.6630 C   0  0  0  0  0  0  0  0  0  0  0  0
  138.9290   78.4130  222.7870 C   0  0  0  0  0  0  0  0  0  0  0  0
  139.2330   79.7590  222.7910 C   0  0  0  0  0  0  0  0  0  0  0  0
  140.5590   80.1170  222.6690 C   0  0  0  0  0  0  0  0  0  0  0  0
  141.2080   81.3540  222.6350 C   0  0  0  0  0  0  0  0  0  0  0  0
  142.5310   81.1410  222.4980 N   0  0  0  0  0  0  0  0  0  0  0  0
  142.7640   79.8450  222.4420 N   0  0  0  0  0  0  0  0  0  0  0  0
  141.5800   79.1960  222.5430 C   0  0  0  0  0  0  0  0  0  0  0  0
  141.2480   77.8560  222.5410 C   0  0  0  0  0  0  0  0  0  0  0  0
  139.9490   73.0140  222.6460 C   0  0  0  0  0  0  0  0  0  0  0  0
  139.4650   69.6250  223.8680 N   0  0  0  0  0  0  0  0  0  0  0  0
  140.6154   68.5620  229.7797 H   0  0  0  0  0  0  0  0  0  0  0  0
  141.2481   67.0051  229.1454 H   0  0  0  0  0  0  0  0  0  0  0  0
  142.2933   68.4660  229.1454 H   0  0  0  0  0  0  0  0  0  0  0  0
  139.8481   66.5346  227.3814 H   0  0  0  0  0  0  0  0  0  0  0  0
  138.9793   67.0501  225.0844 H   0  0  0  0  0  0  0  0  0  0  0  0
  141.6026   70.4606  227.6745 H   0  0  0  0  0  0  0  0  0  0  0  0
  140.1782   72.0888  225.4805 H   0  0  0  0  0  0  0  0  0  0  0  0
  141.6879   71.5412  224.7983 H   0  0  0  0  0  0  0  0  0  0  0  0
  139.0513   69.9879  221.3864 H   0  0  0  0  0  0  0  0  0  0  0  0
  138.6784   71.4208  219.3467 H   0  0  0  0  0  0  0  0  0  0  0  0
  139.1434   73.8384  219.5078 H   0  0  0  0  0  0  0  0  0  0  0  0
  139.2150   75.6750  223.5020 H   0  0  0  0  0  0  0  0  0  0  0  0
  137.8816   78.0911  222.8840 H   0  0  0  0  0  0  0  0  0  0  0  0
  138.4448   80.5201  222.8882 H   0  0  0  0  0  0  0  0  0  0  0  0
  140.7201   82.3372  222.7079 H   0  0  0  0  0  0  0  0  0  0  0  0
  143.6720   79.3290  222.3380 H   0  0  0  0  0  0  0  0  0  0  0  0
  142.0356   77.0944  222.4426 H   0  0  0  0  0  0  0  0  0  0  0  0
  140.3091   73.4595  223.5851 H   0  0  0  0  0  0  0  0  0  0  0  0
  1  2  1  0
  2  3  2  0
  3  4  1  0
  4  5  2  0
  5  6  1  0
  6  7  2  0
  6  8  1  0
  8  9  1  0
  9 10  1  0
 10 11  2  0
 11 12  1  0
 12 13  2  0
 13 14  1  0
 14 15  1  0
 15 16  2  0
 15 17  1  0
 17 18  1  0
 18 19  2  0
 19 20  1  0
 20 21  2  0
 21 22  1  0
 22 23  2  0
 23 24  1  0
 24 25  1  0
 25 26  2  0
 14 27  2  0
  9 28  2  0
  7  2  1  0
 27 10  1  0
 28  5  1  0
 26 18  1  0
 25 21  1  0
  1 29  1  0
  1 30  1  0
  1 31  1  0
  3 32  1  0
  4 33  1  0
  7 34  1  0
  8 35  1  0
  8 36  1  0
 11 37  1  0
 12 38  1  0
 13 39  1  0
 17 40  1  0
 19 41  1  0
 20 42  1  0
 22 43  1  0
 24 44  1  0
 26 45  1  0
 27 46  1  0
M  END
>  <smiles>  (5) 
Cc1ccc2c(c1)CC(c1cccc(C(=O)Nc3ccc4cn[nH]c4c3)c1)=N2

>  <score_type>  (5) 
oracle

>  <origin>  (5) 
autodockgpu

>  <m_score__min__energy>  (5) 
-9.2400000000000002

>  <m_primary>  (5) 
energy

>  <meeko>  (5) 
{"free_energy": -9.21, "intermolecular_energy": -10.1, "internal_energy": -0.71, "cluster_size": 20, "cluster_id": 1, "rank_in_cluster": 19}

>  <energy>  (5) 
-9.23

>  <cluster_rmsd>  (5) 
0.03

>  <rmsd>  (5) 
271.86

>  <cluster>  (5) 
1

$$$$

     RDKit          3D

 46 50  0  0  0  0  0  0  0  0999 V2000
  141.1820   68.0900  229.0150 C   0  0  0  0  0  0  0  0  0  0  0  0
  140.7180   68.4470  227.6280 C   0  0  0  0  0  0  0  0  0  0  0  0
  140.0370   67.5040  226.8840 C   0  0  0  0  0  0  0  0  0  0  0  0
  139.5830   67.7790  225.5920 C   0  0  0  0  0  0  0  0  0  0  0  0
  139.8470   69.0450  225.0860 C   0  0  0  0  0  0  0  0  0  0  0  0
  140.5310   69.9970  225.8290 C   0  0  0  0  0  0  0  0  0  0  0  0
  140.9750   69.7130  227.1040 C   0  0  0  0  0  0  0  0  0  0  0  0
  140.6370   71.2310  224.9880 C   0  0  0  0  0  0  0  0  0  0  0  0
  139.9420   70.8190  223.7410 C   0  0  0  0  0  0  0  0  0  0  0  0
  139.7480   71.6640  222.5520 C   0  0  0  0  0  0  0  0  0  0  0  0
  139.3210   71.0780  221.3780 C   0  0  0  0  0  0  0  0  0  0  0  0
  139.1350   71.8700  220.2450 C   0  0  0  0  0  0  0  0  0  0  0  0
  139.3940   73.2200  220.3610 C   0  0  0  0  0  0  0  0  0  0  0  0
  139.8210   73.8200  221.5220 C   0  0  0  0  0  0  0  0  0  0  0  0
  140.0700   75.2570  221.5540 C   0  0  0  0  0  0  0  0  0  0  0  0
  140.6420   75.7520  220.5340 O   0  0  0  0  0  0  0  0  0  0  0  0
  139.7110   76.0690  222.6360 N   0  0  0  0  0  0  0  0  0  0  0  0
  139.9610   77.4750  222.6570 C   0  0  0  0  0  0  0  0  0  0  0  0
  138.9670   78.4140  222.7920 C   0  0  0  0  0  0  0  0  0  0  0  0
  139.2670   79.7610  222.8060 C   0  0  0  0  0  0  0  0  0  0  0  0
  140.5910   80.1240  222.6800 C   0  0  0  0  0  0  0  0  0  0  0  0
  141.2370   81.3620  222.6530 C   0  0  0  0  0  0  0  0  0  0  0  0
  142.5600   81.1540  222.5090 N   0  0  0  0  0  0  0  0  0  0  0  0
  142.7950   79.8580  222.4410 N   0  0  0  0  0  0  0  0  0  0  0  0
  141.6140   79.2060  222.5430 C   0  0  0  0  0  0  0  0  0  0  0  0
  141.2850   77.8650  222.5320 C   0  0  0  0  0  0  0  0  0  0  0  0
  139.9960   73.0190  222.6230 C   0  0  0  0  0  0  0  0  0  0  0  0
  139.5150   69.6180  223.8160 N   0  0  0  0  0  0  0  0  0  0  0  0
  140.5378   68.5857  229.7561 H   0  0  0  0  0  0  0  0  0  0  0  0
  141.1260   66.9999  229.1512 H   0  0  0  0  0  0  0  0  0  0  0  0
  142.2213   68.4236  229.1512 H   0  0  0  0  0  0  0  0  0  0  0  0
  139.8474   66.5118  227.3195 H   0  0  0  0  0  0  0  0  0  0  0  0
  139.0404   67.0261  225.0015 H   0  0  0  0  0  0  0  0  0  0  0  0
  141.5184   70.4669  227.6926 H   0  0  0  0  0  0  0  0  0  0  0  0
  140.1305   72.0834  225.4643 H   0  0  0  0  0  0  0  0  0  0  0  0
  141.6713   71.5692  224.8270 H   0  0  0  0  0  0  0  0  0  0  0  0
  139.1290   69.9957  221.3360 H   0  0  0  0  0  0  0  0  0  0  0  0
  138.7944   71.4342  219.2942 H   0  0  0  0  0  0  0  0  0  0  0  0
  139.2506   73.8532  219.4730 H   0  0  0  0  0  0  0  0  0  0  0  0
  139.2440   75.6750  223.4770 H   0  0  0  0  0  0  0  0  0  0  0  0
  137.9208   78.0886  222.8900 H   0  0  0  0  0  0  0  0  0  0  0  0
  138.4770   80.5188  222.9140 H   0  0  0  0  0  0  0  0  0  0  0  0
  140.7470   82.3434  222.7356 H   0  0  0  0  0  0  0  0  0  0  0  0
  143.7050   79.3460  222.3290 H   0  0  0  0  0  0  0  0  0  0  0  0
  142.0739   77.1061  222.4240 H   0  0  0  0  0  0  0  0  0  0  0  0
  140.3371   73.4617  223.5704 H   0  0  0  0  0  0  0  0  0  0  0  0
  1  2  1  0
  2  3  2  0
  3  4  1  0
  4  5  2  0
  5  6  1  0
  6  7  2  0
  6  8  1  0
  8  9  1  0
  9 10  1  0
 10 11  2  0
 11 12  1  0
 12 13  2  0
 13 14  1  0
 14 15  1  0
 15 16  2  0
 15 17  1  0
 17 18  1  0
 18 19  2  0
 19 20  1  0
 20 21  2  0
 21 22  1  0
 22 23  2  0
 23 24  1  0
 24 25  1  0
 25 26  2  0
 14 27  2  0
  9 28  2  0
  7  2  1  0
 27 10  1  0
 28  5  1  0
 26 18  1  0
 25 21  1  0
  1 29  1  0
  1 30  1  0
  1 31  1  0
  3 32  1  0
  4 33  1  0
  7 34  1  0
  8 35  1  0
  8 36  1  0
 11 37  1  0
 12 38  1  0
 13 39  1  0
 17 40  1  0
 19 41  1  0
 20 42  1  0
 22 43  1  0
 24 44  1  0
 26 45  1  0
 27 46  1  0
M  END
>  <smiles>  (6) 
Cc1ccc2c(c1)CC(c1cccc(C(=O)Nc3ccc4cn[nH]c4c3)c1)=N2

>  <score_type>  (6) 
oracle

>  <origin>  (6) 
autodockgpu

>  <m_score__min__energy>  (6) 
-9.2400000000000002

>  <m_primary>  (6) 
energy

>  <meeko>  (6) 
{"free_energy": -9.21, "intermolecular_energy": -10.11, "internal_energy": -0.71, "cluster_size": 20, "cluster_id": 1, "rank_in_cluster": 18}

>  <energy>  (6) 
-9.23

>  <cluster_rmsd>  (6) 
0.04

>  <rmsd>  (6) 
271.88

>  <cluster>  (6) 
1

$$$$

     RDKit          3D

 46 50  0  0  0  0  0  0  0  0999 V2000
  141.2480   68.0940  229.0480 C   0  0  0  0  0  0  0  0  0  0  0  0
  140.7600   68.4530  227.6690 C   0  0  0  0  0  0  0  0  0  0  0  0
  140.0390   67.5220  226.9490 C   0  0  0  0  0  0  0  0  0  0  0  0
  139.5600   67.8000  225.6660 C   0  0  0  0  0  0  0  0  0  0  0  0
  139.8430   69.0560  225.1460 C   0  0  0  0  0  0  0  0  0  0  0  0
  140.5690   69.9950  225.8650 C   0  0  0  0  0  0  0  0  0  0  0  0
  141.0360   69.7090  227.1310 C   0  0  0  0  0  0  0  0  0  0  0  0
  140.6850   71.2210  225.0130 C   0  0  0  0  0  0  0  0  0  0  0  0
  139.9500   70.8180  223.7860 C   0  0  0  0  0  0  0  0  0  0  0  0
  139.7490   71.6600  222.5960 C   0  0  0  0  0  0  0  0  0  0  0  0
  139.3110   71.0720  221.4270 C   0  0  0  0  0  0  0  0  0  0  0  0
  139.1170   71.8600  220.2930 C   0  0  0  0  0  0  0  0  0  0  0  0
  139.3800   73.2100  220.4030 C   0  0  0  0  0  0  0  0  0  0  0  0
  139.8180   73.8120  221.5580 C   0  0  0  0  0  0  0  0  0  0  0  0
  140.0720   75.2490  221.5840 C   0  0  0  0  0  0  0  0  0  0  0  0
  140.6630   75.7350  220.5700 O   0  0  0  0  0  0  0  0  0  0  0  0
  139.6960   76.0700  222.6530 N   0  0  0  0  0  0  0  0  0  0  0  0
  139.9500   77.4750  222.6680 C   0  0  0  0  0  0  0  0  0  0  0  0
  138.9590   78.4180  222.7980 C   0  0  0  0  0  0  0  0  0  0  0  0
  139.2630   79.7640  222.8050 C   0  0  0  0  0  0  0  0  0  0  0  0
  140.5880   80.1230  222.6790 C   0  0  0  0  0  0  0  0  0  0  0  0
  141.2380   81.3590  222.6470 C   0  0  0  0  0  0  0  0  0  0  0  0
  142.5600   81.1460  222.5040 N   0  0  0  0  0  0  0  0  0  0  0  0
  142.7920   79.8500  222.4430 N   0  0  0  0  0  0  0  0  0  0  0  0
  141.6090   79.2010  222.5470 C   0  0  0  0  0  0  0  0  0  0  0  0
  141.2760   77.8610  222.5420 C   0  0  0  0  0  0  0  0  0  0  0  0
  140.0010   73.0150  222.6610 C   0  0  0  0  0  0  0  0  0  0  0  0
  139.4960   69.6280  223.8790 N   0  0  0  0  0  0  0  0  0  0  0  0
  140.6020   68.5693  229.8008 H   0  0  0  0  0  0  0  0  0  0  0  0
  141.2170   67.0018  229.1751 H   0  0  0  0  0  0  0  0  0  0  0  0
  142.2814   68.4488  229.1751 H   0  0  0  0  0  0  0  0  0  0  0  0
  139.8366   66.5375  227.3959 H   0  0  0  0  0  0  0  0  0  0  0  0
  138.9847   67.0573  225.0938 H   0  0  0  0  0  0  0  0  0  0  0  0
  141.6114   70.4530  227.7014 H   0  0  0  0  0  0  0  0  0  0  0  0
  140.2113   72.0887  225.4953 H   0  0  0  0  0  0  0  0  0  0  0  0
  141.7230   71.5327  224.8249 H   0  0  0  0  0  0  0  0  0  0  0  0
  139.1164   69.9900  221.3900 H   0  0  0  0  0  0  0  0  0  0  0  0
  138.7675   71.4219  219.3465 H   0  0  0  0  0  0  0  0  0  0  0  0
  139.2304   73.8410  219.5145 H   0  0  0  0  0  0  0  0  0  0  0  0
  139.2130   75.6850  223.4880 H   0  0  0  0  0  0  0  0  0  0  0  0
  137.9118   78.0964  222.8976 H   0  0  0  0  0  0  0  0  0  0  0  0
  138.4749   80.5246  222.9076 H   0  0  0  0  0  0  0  0  0  0  0  0
  140.7512   82.3423  222.7255 H   0  0  0  0  0  0  0  0  0  0  0  0
  143.7000   79.3340  222.3340 H   0  0  0  0  0  0  0  0  0  0  0  0
  142.0628   77.0994  222.4381 H   0  0  0  0  0  0  0  0  0  0  0  0
  140.3513   73.4603  223.6039 H   0  0  0  0  0  0  0  0  0  0  0  0
  1  2  1  0
  2  3  2  0
  3  4  1  0
  4  5  2  0
  5  6  1  0
  6  7  2  0
  6  8  1  0
  8  9  1  0
  9 10  1  0
 10 11  2  0
 11 12  1  0
 12 13  2  0
 13 14  1  0
 14 15  1  0
 15 16  2  0
 15 17  1  0
 17 18  1  0
 18 19  2  0
 19 20  1  0
 20 21  2  0
 21 22  1  0
 22 23  2  0
 23 24  1  0
 24 25  1  0
 25 26  2  0
 14 27  2  0
  9 28  2  0
  7  2  1  0
 27 10  1  0
 28  5  1  0
 26 18  1  0
 25 21  1  0
  1 29  1  0
  1 30  1  0
  1 31  1  0
  3 32  1  0
  4 33  1  0
  7 34  1  0
  8 35  1  0
  8 36  1  0
 11 37  1  0
 12 38  1  0
 13 39  1  0
 17 40  1  0
 19 41  1  0
 20 42  1  0
 22 43  1  0
 24 44  1  0
 26 45  1  0
 27 46  1  0
M  END
>  <smiles>  (7) 
Cc1ccc2c(c1)CC(c1cccc(C(=O)Nc3ccc4cn[nH]c4c3)c1)=N2

>  <score_type>  (7) 
oracle

>  <origin>  (7) 
autodockgpu

>  <m_score__min__energy>  (7) 
-9.2400000000000002

>  <m_primary>  (7) 
energy

>  <meeko>  (7) 
{"free_energy": -9.23, "intermolecular_energy": -10.12, "internal_energy": -0.7, "cluster_size": 20, "cluster_id": 1, "rank_in_cluster": 8}

>  <energy>  (7) 
-9.23

>  <cluster_rmsd>  (7) 
0.04

>  <rmsd>  (7) 
271.88

>  <cluster>  (7) 
1

$$$$

     RDKit          3D

 46 50  0  0  0  0  0  0  0  0999 V2000
  141.2260   68.1240  229.0940 C   0  0  0  0  0  0  0  0  0  0  0  0
  140.7460   68.4740  227.7110 C   0  0  0  0  0  0  0  0  0  0  0  0
  140.0460   67.5310  226.9850 C   0  0  0  0  0  0  0  0  0  0  0  0
  139.5760   67.8010  225.6970 C   0  0  0  0  0  0  0  0  0  0  0  0
  139.8440   69.0610  225.1770 C   0  0  0  0  0  0  0  0  0  0  0  0
  140.5480   70.0120  225.9020 C   0  0  0  0  0  0  0  0  0  0  0  0
  141.0070   69.7340  227.1730 C   0  0  0  0  0  0  0  0  0  0  0  0
  140.6540   71.2380  225.0500 C   0  0  0  0  0  0  0  0  0  0  0  0
  139.9370   70.8220  223.8160 C   0  0  0  0  0  0  0  0  0  0  0  0
  139.7340   71.6600  222.6230 C   0  0  0  0  0  0  0  0  0  0  0  0
  139.2930   71.0670  221.4580 C   0  0  0  0  0  0  0  0  0  0  0  0
  139.0990   71.8520  220.3210 C   0  0  0  0  0  0  0  0  0  0  0  0
  139.3630   73.2010  220.4250 C   0  0  0  0  0  0  0  0  0  0  0  0
  139.8040   73.8080  221.5770 C   0  0  0  0  0  0  0  0  0  0  0  0
  140.0590   75.2440  221.5970 C   0  0  0  0  0  0  0  0  0  0  0  0
  140.6580   75.7240  220.5850 O   0  0  0  0  0  0  0  0  0  0  0  0
  139.6760   76.0720  222.6580 N   0  0  0  0  0  0  0  0  0  0  0  0
  139.9320   77.4770  222.6670 C   0  0  0  0  0  0  0  0  0  0  0  0
  138.9410   78.4220  222.7870 C   0  0  0  0  0  0  0  0  0  0  0  0
  139.2460   79.7670  222.7890 C   0  0  0  0  0  0  0  0  0  0  0  0
  140.5730   80.1230  222.6680 C   0  0  0  0  0  0  0  0  0  0  0  0
  141.2240   81.3590  222.6330 C   0  0  0  0  0  0  0  0  0  0  0  0
  142.5470   81.1440  222.4990 N   0  0  0  0  0  0  0  0  0  0  0  0
  142.7770   79.8470  222.4460 N   0  0  0  0  0  0  0  0  0  0  0  0
  141.5930   79.2000  222.5460 C   0  0  0  0  0  0  0  0  0  0  0  0
  141.2590   77.8610  222.5460 C   0  0  0  0  0  0  0  0  0  0  0  0
  139.9880   73.0150  222.6830 C   0  0  0  0  0  0  0  0  0  0  0  0
  139.5000   69.6260  223.9070 N   0  0  0  0  0  0  0  0  0  0  0  0
  140.5730   68.6002  229.8402 H   0  0  0  0  0  0  0  0  0  0  0  0
  141.1987   67.0323  229.2262 H   0  0  0  0  0  0  0  0  0  0  0  0
  142.2571   68.4837  229.2262 H   0  0  0  0  0  0  0  0  0  0  0  0
  139.8538   66.5440  227.4309 H   0  0  0  0  0  0  0  0  0  0  0  0
  139.0182   67.0487  225.1201 H   0  0  0  0  0  0  0  0  0  0  0  0
  141.5651   70.4876  227.7480 H   0  0  0  0  0  0  0  0  0  0  0  0
  140.1625   72.0991  225.5264 H   0  0  0  0  0  0  0  0  0  0  0  0
  141.6890   71.5652  224.8718 H   0  0  0  0  0  0  0  0  0  0  0  0
  139.0961   69.9852  221.4258 H   0  0  0  0  0  0  0  0  0  0  0  0
  138.7483   71.4107  219.3764 H   0  0  0  0  0  0  0  0  0  0  0  0
  139.2120   73.8284  219.5342 H   0  0  0  0  0  0  0  0  0  0  0  0
  139.1860   75.6920  223.4920 H   0  0  0  0  0  0  0  0  0  0  0  0
  137.8929   78.1019  222.8825 H   0  0  0  0  0  0  0  0  0  0  0  0
  138.4585   80.5291  222.8838 H   0  0  0  0  0  0  0  0  0  0  0  0
  140.7374   82.3430  222.7031 H   0  0  0  0  0  0  0  0  0  0  0  0
  143.6850   79.3300  222.3440 H   0  0  0  0  0  0  0  0  0  0  0  0
  142.0456   77.0981  222.4500 H   0  0  0  0  0  0  0  0  0  0  0  0
  140.3405   73.4633  223.6237 H   0  0  0  0  0  0  0  0  0  0  0  0
  1  2  1  0
  2  3  2  0
  3  4  1  0
  4  5  2  0
  5  6  1  0
  6  7  2  0
  6  8  1  0
  8  9  1  0
  9 10  1  0
 10 11  2  0
 11 12  1  0
 12 13  2  0
 13 14  1  0
 14 15  1  0
 15 16  2  0
 15 17  1  0
 17 18  1  0
 18 19  2  0
 19 20  1  0
 20 21  2  0
 21 22  1  0
 22 23  2  0
 23 24  1  0
 24 25  1  0
 25 26  2  0
 14 27  2  0
  9 28  2  0
  7  2  1  0
 27 10  1  0
 28  5  1  0
 26 18  1  0
 25 21  1  0
  1 29  1  0
  1 30  1  0
  1 31  1  0
  3 32  1  0
  4 33  1  0
  7 34  1  0
  8 35  1  0
  8 36  1  0
 11 37  1  0
 12 38  1  0
 13 39  1  0
 17 40  1  0
 19 41  1  0
 20 42  1  0
 22 43  1  0
 24 44  1  0
 26 45  1  0
 27 46  1  0
M  END
>  <smiles>  (8) 
Cc1ccc2c(c1)CC(c1cccc(C(=O)Nc3ccc4cn[nH]c4c3)c1)=N2

>  <score_type>  (8) 
oracle

>  <origin>  (8) 
autodockgpu

>  <m_score__min__energy>  (8) 
-9.2400000000000002

>  <m_primary>  (8) 
energy

>  <meeko>  (8) 
{"free_energy": -9.23, "intermolecular_energy": -10.13, "internal_energy": -0.7, "cluster_size": 20, "cluster_id": 1, "rank_in_cluster": 2}

>  <energy>  (8) 
-9.23

>  <cluster_rmsd>  (8) 
0.03

>  <rmsd>  (8) 
271.86

>  <cluster>  (8) 
1

$$$$

     RDKit          3D

 46 50  0  0  0  0  0  0  0  0999 V2000
  141.2700   68.0840  229.0930 C   0  0  0  0  0  0  0  0  0  0  0  0
  140.7800   68.4400  227.7150 C   0  0  0  0  0  0  0  0  0  0  0  0
  140.0590   67.5050  226.9980 C   0  0  0  0  0  0  0  0  0  0  0  0
  139.5780   67.7800  225.7150 C   0  0  0  0  0  0  0  0  0  0  0  0
  139.8570   69.0360  225.1910 C   0  0  0  0  0  0  0  0  0  0  0  0
  140.5810   69.9780  225.9080 C   0  0  0  0  0  0  0  0  0  0  0  0
  141.0510   69.6950  227.1730 C   0  0  0  0  0  0  0  0  0  0  0  0
  140.6940   71.2020  225.0530 C   0  0  0  0  0  0  0  0  0  0  0  0
  139.9570   70.7950  223.8280 C   0  0  0  0  0  0  0  0  0  0  0  0
  139.7520   71.6340  222.6360 C   0  0  0  0  0  0  0  0  0  0  0  0
  139.3080   71.0430  221.4710 C   0  0  0  0  0  0  0  0  0  0  0  0
  139.1110   71.8300  220.3360 C   0  0  0  0  0  0  0  0  0  0  0  0
  139.3770   73.1790  220.4410 C   0  0  0  0  0  0  0  0  0  0  0  0
  139.8210   73.7830  221.5920 C   0  0  0  0  0  0  0  0  0  0  0  0
  140.0780   75.2190  221.6130 C   0  0  0  0  0  0  0  0  0  0  0  0
  140.6900   75.6970  220.6080 O   0  0  0  0  0  0  0  0  0  0  0  0
  139.6830   76.0500  222.6690 N   0  0  0  0  0  0  0  0  0  0  0  0
  139.9400   77.4540  222.6790 C   0  0  0  0  0  0  0  0  0  0  0  0
  138.9510   78.3990  222.8100 C   0  0  0  0  0  0  0  0  0  0  0  0
  139.2580   79.7450  222.8130 C   0  0  0  0  0  0  0  0  0  0  0  0
  140.5830   80.1000  222.6800 C   0  0  0  0  0  0  0  0  0  0  0  0
  141.2350   81.3340  222.6420 C   0  0  0  0  0  0  0  0  0  0  0  0
  142.5570   81.1190  222.4940 N   0  0  0  0  0  0  0  0  0  0  0  0
  142.7850   79.8220  222.4350 N   0  0  0  0  0  0  0  0  0  0  0  0
  141.6010   79.1760  222.5460 C   0  0  0  0  0  0  0  0  0  0  0  0
  141.2660   77.8370  222.5460 C   0  0  0  0  0  0  0  0  0  0  0  0
  140.0070   72.9890  222.6970 C   0  0  0  0  0  0  0  0  0  0  0  0
  139.5060   69.6040  223.9240 N   0  0  0  0  0  0  0  0  0  0  0  0
  140.6213   68.5553  229.8460 H   0  0  0  0  0  0  0  0  0  0  0  0
  141.2455   66.9916  229.2200 H   0  0  0  0  0  0  0  0  0  0  0  0
  142.3013   68.4449  229.2200 H   0  0  0  0  0  0  0  0  0  0  0  0
  139.8588   66.5211  227.4473 H   0  0  0  0  0  0  0  0  0  0  0  0
  139.0037   67.0347  225.1451 H   0  0  0  0  0  0  0  0  0  0  0  0
  141.6258   70.4416  227.7406 H   0  0  0  0  0  0  0  0  0  0  0  0
  140.2201   72.0703  225.5341 H   0  0  0  0  0  0  0  0  0  0  0  0
  141.7313   71.5145  224.8622 H   0  0  0  0  0  0  0  0  0  0  0  0
  139.1112   69.9613  221.4374 H   0  0  0  0  0  0  0  0  0  0  0  0
  138.7565   71.3905  219.3920 H   0  0  0  0  0  0  0  0  0  0  0  0
  139.2248   73.8079  219.5514 H   0  0  0  0  0  0  0  0  0  0  0  0
  139.1820   75.6710  223.4970 H   0  0  0  0  0  0  0  0  0  0  0  0
  137.9035   78.0796  222.9136 H   0  0  0  0  0  0  0  0  0  0  0  0
  138.4723   80.5077  222.9179 H   0  0  0  0  0  0  0  0  0  0  0  0
  140.7501   82.3183  222.7199 H   0  0  0  0  0  0  0  0  0  0  0  0
  143.6920   79.3040  222.3240 H   0  0  0  0  0  0  0  0  0  0  0  0
  142.0510   77.0737  222.4405 H   0  0  0  0  0  0  0  0  0  0  0  0
  140.3617   73.4362  223.6373 H   0  0  0  0  0  0  0  0  0  0  0  0
  1  2  1  0
  2  3  2  0
  3  4  1  0
  4  5  2  0
  5  6  1  0
  6  7  2  0
  6  8  1  0
  8  9  1  0
  9 10  1  0
 10 11  2  0
 11 12  1  0
 12 13  2  0
 13 14  1  0
 14 15  1  0
 15 16  2  0
 15 17  1  0
 17 18  1  0
 18 19  2  0
 19 20  1  0
 20 21  2  0
 21 22  1  0
 22 23  2  0
 23 24  1  0
 24 25  1  0
 25 26  2  0
 14 27  2  0
  9 28  2  0
  7  2  1  0
 27 10  1  0
 28  5  1  0
 26 18  1  0
 25 21  1  0
  1 29  1  0
  1 30  1  0
  1 31  1  0
  3 32  1  0
  4 33  1  0
  7 34  1  0
  8 35  1  0
  8 36  1  0
 11 37  1  0
 12 38  1  0
 13 39  1  0
 17 40  1  0
 19 41  1  0
 20 42  1  0
 22 43  1  0
 24 44  1  0
 26 45  1  0
 27 46  1  0
M  END
>  <smiles>  (9) 
Cc1ccc2c(c1)CC(c1cccc(C(=O)Nc3ccc4cn[nH]c4c3)c1)=N2

>  <score_type>  (9) 
oracle

>  <origin>  (9) 
autodockgpu

>  <m_score__min__energy>  (9) 
-9.2400000000000002

>  <m_primary>  (9) 
energy

>  <meeko>  (9) 
{"free_energy": -9.23, "intermolecular_energy": -10.12, "internal_energy": -0.7, "cluster_size": 20, "cluster_id": 1, "rank_in_cluster": 6}

>  <energy>  (9) 
-9.23

>  <cluster_rmsd>  (9) 
0.04

>  <rmsd>  (9) 
271.88

>  <cluster>  (9) 
1

$$$$

     RDKit          3D

 46 50  0  0  0  0  0  0  0  0999 V2000
  141.2890   68.1050  229.0700 C   0  0  0  0  0  0  0  0  0  0  0  0
  140.7950   68.4560  227.6920 C   0  0  0  0  0  0  0  0  0  0  0  0
  140.0830   67.5160  226.9740 C   0  0  0  0  0  0  0  0  0  0  0  0
  139.5990   67.7860  225.6920 C   0  0  0  0  0  0  0  0  0  0  0  0
  139.8670   69.0450  225.1690 C   0  0  0  0  0  0  0  0  0  0  0  0
  140.5820   69.9940  225.8860 C   0  0  0  0  0  0  0  0  0  0  0  0
  141.0540   69.7140  227.1510 C   0  0  0  0  0  0  0  0  0  0  0  0
  140.6830   71.2190  225.0320 C   0  0  0  0  0  0  0  0  0  0  0  0
  139.9500   70.8060  223.8060 C   0  0  0  0  0  0  0  0  0  0  0  0
  139.7370   71.6440  222.6150 C   0  0  0  0  0  0  0  0  0  0  0  0
  139.2870   71.0510  221.4530 C   0  0  0  0  0  0  0  0  0  0  0  0
  139.0830   71.8360  220.3180 C   0  0  0  0  0  0  0  0  0  0  0  0
  139.3470   73.1860  220.4210 C   0  0  0  0  0  0  0  0  0  0  0  0
  139.7970   73.7920  221.5690 C   0  0  0  0  0  0  0  0  0  0  0  0
  140.0510   75.2290  221.5880 C   0  0  0  0  0  0  0  0  0  0  0  0
  140.6340   75.7100  220.5670 O   0  0  0  0  0  0  0  0  0  0  0  0
  139.6850   76.0550  222.6560 N   0  0  0  0  0  0  0  0  0  0  0  0
  139.9400   77.4600  222.6640 C   0  0  0  0  0  0  0  0  0  0  0  0
  138.9470   78.4040  222.7790 C   0  0  0  0  0  0  0  0  0  0  0  0
  139.2520   79.7500  222.7800 C   0  0  0  0  0  0  0  0  0  0  0  0
  140.5790   80.1060  222.6620 C   0  0  0  0  0  0  0  0  0  0  0  0
  141.2290   81.3420  222.6270 C   0  0  0  0  0  0  0  0  0  0  0  0
  142.5520   81.1280  222.4960 N   0  0  0  0  0  0  0  0  0  0  0  0
  142.7840   79.8310  222.4460 N   0  0  0  0  0  0  0  0  0  0  0  0
  141.5990   79.1840  222.5440 C   0  0  0  0  0  0  0  0  0  0  0  0
  141.2660   77.8440  222.5460 C   0  0  0  0  0  0  0  0  0  0  0  0
  139.9900   72.9990  222.6730 C   0  0  0  0  0  0  0  0  0  0  0  0
  139.5100   69.6110  223.9020 N   0  0  0  0  0  0  0  0  0  0  0  0
  140.6354   68.5694  229.8231 H   0  0  0  0  0  0  0  0  0  0  0  0
  141.2761   67.0124  229.1969 H   0  0  0  0  0  0  0  0  0  0  0  0
  142.3165   68.4767  229.1969 H   0  0  0  0  0  0  0  0  0  0  0  0
  139.8922   66.5300  227.4227 H   0  0  0  0  0  0  0  0  0  0  0  0
  139.0313   67.0358  225.1221 H   0  0  0  0  0  0  0  0  0  0  0  0
  141.6214   70.4656  227.7195 H   0  0  0  0  0  0  0  0  0  0  0  0
  140.2006   72.0823  225.5137 H   0  0  0  0  0  0  0  0  0  0  0  0
  141.7173   71.5414  224.8415 H   0  0  0  0  0  0  0  0  0  0  0  0
  139.0909   69.9691  221.4220 H   0  0  0  0  0  0  0  0  0  0  0  0
  138.7250   71.3949  219.3760 H   0  0  0  0  0  0  0  0  0  0  0  0
  139.1879   73.8141  219.5321 H   0  0  0  0  0  0  0  0  0  0  0  0
  139.2090   75.6720  223.4970 H   0  0  0  0  0  0  0  0  0  0  0  0
  137.8989   78.0832  222.8712 H   0  0  0  0  0  0  0  0  0  0  0  0
  138.4641   80.5121  222.8717 H   0  0  0  0  0  0  0  0  0  0  0  0
  140.7415   82.3257  222.6951 H   0  0  0  0  0  0  0  0  0  0  0  0
  143.6930   79.3150  222.3480 H   0  0  0  0  0  0  0  0  0  0  0  0
  142.0534   77.0814  222.4539 H   0  0  0  0  0  0  0  0  0  0  0  0
  140.3491   73.4475  223.6110 H   0  0  0  0  0  0  0  0  0  0  0  0
  1  2  1  0
  2  3  2  0
  3  4  1  0
  4  5  2  0
  5  6  1  0
  6  7  2  0
  6  8  1  0
  8  9  1  0
  9 10  1  0
 10 11  2  0
 11 12  1  0
 12 13  2  0
 13 14  1  0
 14 15  1  0
 15 16  2  0
 15 17  1  0
 17 18  1  0
 18 19  2  0
 19 20  1  0
 20 21  2  0
 21 22  1  0
 22 23  2  0
 23 24  1  0
 24 25  1  0
 25 26  2  0
 14 27  2  0
  9 28  2  0
  7  2  1  0
 27 10  1  0
 28  5  1  0
 26 18  1  0
 25 21  1  0
  1 29  1  0
  1 30  1  0
  1 31  1  0
  3 32  1  0
  4 33  1  0
  7 34  1  0
  8 35  1  0
  8 36  1  0
 11 37  1  0
 12 38  1  0
 13 39  1  0
 17 40  1  0
 19 41  1  0
 20 42  1  0
 22 43  1  0
 24 44  1  0
 26 45  1  0
 27 46  1  0
M  END
>  <smiles>  (10) 
Cc1ccc2c(c1)CC(c1cccc(C(=O)Nc3ccc4cn[nH]c4c3)c1)=N2

>  <score_type>  (10) 
oracle

>  <origin>  (10) 
autodockgpu

>  <m_score__min__energy>  (10) 
-9.2400000000000002

>  <m_primary>  (10) 
energy

>  <meeko>  (10) 
{"free_energy": -9.22, "intermolecular_energy": -10.12, "internal_energy": -0.71, "cluster_size": 20, "cluster_id": 1, "rank_in_cluster": 13}

>  <energy>  (10) 
-9.23

>  <cluster_rmsd>  (10) 
0.03

>  <rmsd>  (10) 
271.85

>  <cluster>  (10) 
1

$$$$

     RDKit          3D

 46 50  0  0  0  0  0  0  0  0999 V2000
  141.2320   68.0710  229.0760 C   0  0  0  0  0  0  0  0  0  0  0  0
  140.7510   68.4290  227.6950 C   0  0  0  0  0  0  0  0  0  0  0  0
  140.0450   67.4930  226.9670 C   0  0  0  0  0  0  0  0  0  0  0  0
  139.5730   67.7700  225.6810 C   0  0  0  0  0  0  0  0  0  0  0  0
  139.8450   69.0310  225.1670 C   0  0  0  0  0  0  0  0  0  0  0  0
  140.5550   69.9760  225.8950 C   0  0  0  0  0  0  0  0  0  0  0  0
  141.0160   69.6900  227.1630 C   0  0  0  0  0  0  0  0  0  0  0  0
  140.6640   71.2050  225.0480 C   0  0  0  0  0  0  0  0  0  0  0  0
  139.9420   70.7980  223.8140 C   0  0  0  0  0  0  0  0  0  0  0  0
  139.7400   71.6420  222.6250 C   0  0  0  0  0  0  0  0  0  0  0  0
  139.2950   71.0570  221.4580 C   0  0  0  0  0  0  0  0  0  0  0  0
  139.1000   71.8470  220.3250 C   0  0  0  0  0  0  0  0  0  0  0  0
  139.3700   73.1950  220.4350 C   0  0  0  0  0  0  0  0  0  0  0  0
  139.8160   73.7950  221.5890 C   0  0  0  0  0  0  0  0  0  0  0  0
  140.0770   75.2300  221.6150 C   0  0  0  0  0  0  0  0  0  0  0  0
  140.6920   75.7090  220.6120 O   0  0  0  0  0  0  0  0  0  0  0  0
  139.6830   76.0580  222.6720 N   0  0  0  0  0  0  0  0  0  0  0  0
  139.9440   77.4620  222.6870 C   0  0  0  0  0  0  0  0  0  0  0  0
  138.9570   78.4090  222.8160 C   0  0  0  0  0  0  0  0  0  0  0  0
  139.2680   79.7540  222.8240 C   0  0  0  0  0  0  0  0  0  0  0  0
  140.5950   80.1050  222.6980 C   0  0  0  0  0  0  0  0  0  0  0  0
  141.2510   81.3380  222.6670 C   0  0  0  0  0  0  0  0  0  0  0  0
  142.5720   81.1190  222.5250 N   0  0  0  0  0  0  0  0  0  0  0  0
  142.7980   79.8210  222.4640 N   0  0  0  0  0  0  0  0  0  0  0  0
  141.6110   79.1790  222.5670 C   0  0  0  0  0  0  0  0  0  0  0  0
  141.2720   77.8410  222.5620 C   0  0  0  0  0  0  0  0  0  0  0  0
  139.9990   72.9960  222.6900 C   0  0  0  0  0  0  0  0  0  0  0  0
  139.5010   69.6030  223.9000 N   0  0  0  0  0  0  0  0  0  0  0  0
  140.5860   68.5518  229.8254 H   0  0  0  0  0  0  0  0  0  0  0  0
  141.1944   66.9793  229.2058 H   0  0  0  0  0  0  0  0  0  0  0  0
  142.2670   68.4203  229.2058 H   0  0  0  0  0  0  0  0  0  0  0  0
  139.8490   66.5052  227.4095 H   0  0  0  0  0  0  0  0  0  0  0  0
  139.0111   67.0225  225.1018 H   0  0  0  0  0  0  0  0  0  0  0  0
  141.5788   70.4384  227.7402 H   0  0  0  0  0  0  0  0  0  0  0  0
  140.1776   72.0662  225.5295 H   0  0  0  0  0  0  0  0  0  0  0  0
  141.7000   71.5282  224.8683 H   0  0  0  0  0  0  0  0  0  0  0  0
  139.0954   69.9759  221.4210 H   0  0  0  0  0  0  0  0  0  0  0  0
  138.7444   71.4113  219.3796 H   0  0  0  0  0  0  0  0  0  0  0  0
  139.2197   73.8272  219.5475 H   0  0  0  0  0  0  0  0  0  0  0  0
  139.1800   75.6780  223.4980 H   0  0  0  0  0  0  0  0  0  0  0  0
  137.9082   78.0922  222.9139 H   0  0  0  0  0  0  0  0  0  0  0  0
  138.4842   80.5189  222.9273 H   0  0  0  0  0  0  0  0  0  0  0  0
  140.7688   82.3235  222.7455 H   0  0  0  0  0  0  0  0  0  0  0  0
  143.7030   79.3010  222.3550 H   0  0  0  0  0  0  0  0  0  0  0  0
  142.0552   77.0755  222.4589 H   0  0  0  0  0  0  0  0  0  0  0  0
  140.3550   73.4386  223.6320 H   0  0  0  0  0  0  0  0  0  0  0  0
  1  2  1  0
  2  3  2  0
  3  4  1  0
  4  5  2  0
  5  6  1  0
  6  7  2  0
  6  8  1  0
  8  9  1  0
  9 10  1  0
 10 11  2  0
 11 12  1  0
 12 13  2  0
 13 14  1  0
 14 15  1  0
 15 16  2  0
 15 17  1  0
 17 18  1  0
 18 19  2  0
 19 20  1  0
 20 21  2  0
 21 22  1  0
 22 23  2  0
 23 24  1  0
 24 25  1  0
 25 26  2  0
 14 27  2  0
  9 28  2  0
  7  2  1  0
 27 10  1  0
 28  5  1  0
 26 18  1  0
 25 21  1  0
  1 29  1  0
  1 30  1  0
  1 31  1  0
  3 32  1  0
  4 33  1  0
  7 34  1  0
  8 35  1  0
  8 36  1  0
 11 37  1  0
 12 38  1  0
 13 39  1  0
 17 40  1  0
 19 41  1  0
 20 42  1  0
 22 43  1  0
 24 44  1  0
 26 45  1  0
 27 46  1  0
M  END
>  <smiles>  (11) 
Cc1ccc2c(c1)CC(c1cccc(C(=O)Nc3ccc4cn[nH]c4c3)c1)=N2

>  <score_type>  (11) 
oracle

>  <origin>  (11) 
autodockgpu

>  <m_score__min__energy>  (11) 
-9.2400000000000002

>  <m_primary>  (11) 
energy

>  <meeko>  (11) 
{"free_energy": -9.23, "intermolecular_energy": -10.12, "internal_energy": -0.7, "cluster_size": 20, "cluster_id": 1, "rank_in_cluster": 9}

>  <energy>  (11) 
-9.22

>  <cluster_rmsd>  (11) 
0.06

>  <rmsd>  (11) 
271.85

>  <cluster>  (11) 
1

$$$$

     RDKit          3D

 46 50  0  0  0  0  0  0  0  0999 V2000
  141.1740   68.1090  229.0930 C   0  0  0  0  0  0  0  0  0  0  0  0
  140.7070   68.4620  227.7070 C   0  0  0  0  0  0  0  0  0  0  0  0
  140.0080   67.5240  226.9750 C   0  0  0  0  0  0  0  0  0  0  0  0
  139.5490   67.7960  225.6830 C   0  0  0  0  0  0  0  0  0  0  0  0
  139.8280   69.0550  225.1670 C   0  0  0  0  0  0  0  0  0  0  0  0
  140.5310   70.0020  225.8980 C   0  0  0  0  0  0  0  0  0  0  0  0
  140.9790   69.7200  227.1720 C   0  0  0  0  0  0  0  0  0  0  0  0
  140.6510   71.2270  225.0470 C   0  0  0  0  0  0  0  0  0  0  0  0
  139.9410   70.8170  223.8070 C   0  0  0  0  0  0  0  0  0  0  0  0
  139.7520   71.6560  222.6130 C   0  0  0  0  0  0  0  0  0  0  0  0
  139.3240   71.0650  221.4420 C   0  0  0  0  0  0  0  0  0  0  0  0
  139.1420   71.8510  220.3040 C   0  0  0  0  0  0  0  0  0  0  0  0
  139.4060   73.2010  220.4140 C   0  0  0  0  0  0  0  0  0  0  0  0
  139.8350   73.8050  221.5710 C   0  0  0  0  0  0  0  0  0  0  0  0
  140.0910   75.2410  221.5950 C   0  0  0  0  0  0  0  0  0  0  0  0
  140.7130   75.7190  220.5970 O   0  0  0  0  0  0  0  0  0  0  0  0
  139.6840   76.0710  222.6470 N   0  0  0  0  0  0  0  0  0  0  0  0
  139.9410   77.4750  222.6600 C   0  0  0  0  0  0  0  0  0  0  0  0
  138.9500   78.4200  222.7880 C   0  0  0  0  0  0  0  0  0  0  0  0
  139.2570   79.7650  222.7950 C   0  0  0  0  0  0  0  0  0  0  0  0
  140.5830   80.1210  222.6690 C   0  0  0  0  0  0  0  0  0  0  0  0
  141.2350   81.3560  222.6370 C   0  0  0  0  0  0  0  0  0  0  0  0
  142.5570   81.1410  222.4960 N   0  0  0  0  0  0  0  0  0  0  0  0
  142.7870   79.8440  222.4370 N   0  0  0  0  0  0  0  0  0  0  0  0
  141.6020   79.1980  222.5400 C   0  0  0  0  0  0  0  0  0  0  0  0
  141.2670   77.8590  222.5360 C   0  0  0  0  0  0  0  0  0  0  0  0
  140.0060   73.0100  222.6770 C   0  0  0  0  0  0  0  0  0  0  0  0
  139.4970   69.6230  223.8940 N   0  0  0  0  0  0  0  0  0  0  0  0
  140.5257   68.5991  229.8343 H   0  0  0  0  0  0  0  0  0  0  0  0
  141.1273   67.0184  229.2290 H   0  0  0  0  0  0  0  0  0  0  0  0
  142.2105   68.4514  229.2290 H   0  0  0  0  0  0  0  0  0  0  0  0
  139.8070   66.5379  227.4192 H   0  0  0  0  0  0  0  0  0  0  0  0
  138.9920   67.0468  225.1012 H   0  0  0  0  0  0  0  0  0  0  0  0
  141.5374   70.4699  227.7516 H   0  0  0  0  0  0  0  0  0  0  0  0
  140.1615   72.0911  225.5200 H   0  0  0  0  0  0  0  0  0  0  0  0
  141.6896   71.5469  224.8766 H   0  0  0  0  0  0  0  0  0  0  0  0
  139.1280   69.9832  221.4061 H   0  0  0  0  0  0  0  0  0  0  0  0
  138.8010   71.4114  219.3551 H   0  0  0  0  0  0  0  0  0  0  0  0
  139.2647   73.8304  219.5230 H   0  0  0  0  0  0  0  0  0  0  0  0
  139.1750   75.6910  223.4700 H   0  0  0  0  0  0  0  0  0  0  0  0
  137.9021   78.1002  222.8858 H   0  0  0  0  0  0  0  0  0  0  0  0
  138.4707   80.5274  222.8976 H   0  0  0  0  0  0  0  0  0  0  0  0
  140.7496   82.3401  222.7141 H   0  0  0  0  0  0  0  0  0  0  0  0
  143.6940   79.3270  222.3290 H   0  0  0  0  0  0  0  0  0  0  0  0
  142.0529   77.0961  222.4343 H   0  0  0  0  0  0  0  0  0  0  0  0
  140.3484   73.4566  223.6221 H   0  0  0  0  0  0  0  0  0  0  0  0
  1  2  1  0
  2  3  2  0
  3  4  1  0
  4  5  2  0
  5  6  1  0
  6  7  2  0
  6  8  1  0
  8  9  1  0
  9 10  1  0
 10 11  2  0
 11 12  1  0
 12 13  2  0
 13 14  1  0
 14 15  1  0
 15 16  2  0
 15 17  1  0
 17 18  1  0
 18 19  2  0
 19 20  1  0
 20 21  2  0
 21 22  1  0
 22 23  2  0
 23 24  1  0
 24 25  1  0
 25 26  2  0
 14 27  2  0
  9 28  2  0
  7  2  1  0
 27 10  1  0
 28  5  1  0
 26 18  1  0
 25 21  1  0
  1 29  1  0
  1 30  1  0
  1 31  1  0
  3 32  1  0
  4 33  1  0
  7 34  1  0
  8 35  1  0
  8 36  1  0
 11 37  1  0
 12 38  1  0
 13 39  1  0
 17 40  1  0
 19 41  1  0
 20 42  1  0
 22 43  1  0
 24 44  1  0
 26 45  1  0
 27 46  1  0
M  END
>  <smiles>  (12) 
Cc1ccc2c(c1)CC(c1cccc(C(=O)Nc3ccc4cn[nH]c4c3)c1)=N2

>  <score_type>  (12) 
oracle

>  <origin>  (12) 
autodockgpu

>  <m_score__min__energy>  (12) 
-9.2400000000000002

>  <m_primary>  (12) 
energy

>  <meeko>  (12) 
{"free_energy": -9.24, "intermolecular_energy": -10.13, "internal_energy": -0.7, "cluster_size": 20, "cluster_id": 1, "rank_in_cluster": 1}

>  <energy>  (12) 
-9.22

>  <cluster_rmsd>  (12) 
0.03

>  <rmsd>  (12) 
271.86

>  <cluster>  (12) 
1

$$$$

     RDKit          3D

 46 50  0  0  0  0  0  0  0  0999 V2000
  141.2700   68.1140  229.0930 C   0  0  0  0  0  0  0  0  0  0  0  0
  140.7810   68.4670  227.7130 C   0  0  0  0  0  0  0  0  0  0  0  0
  140.0710   67.5280  226.9920 C   0  0  0  0  0  0  0  0  0  0  0  0
  139.5930   67.7990  225.7080 C   0  0  0  0  0  0  0  0  0  0  0  0
  139.8630   69.0580  225.1870 C   0  0  0  0  0  0  0  0  0  0  0  0
  140.5770   70.0060  225.9070 C   0  0  0  0  0  0  0  0  0  0  0  0
  141.0440   69.7250  227.1740 C   0  0  0  0  0  0  0  0  0  0  0  0
  140.6820   71.2310  225.0540 C   0  0  0  0  0  0  0  0  0  0  0  0
  139.9540   70.8200  223.8250 C   0  0  0  0  0  0  0  0  0  0  0  0
  139.7470   71.6580  222.6340 C   0  0  0  0  0  0  0  0  0  0  0  0
  139.3010   71.0670  221.4700 C   0  0  0  0  0  0  0  0  0  0  0  0
  139.1010   71.8530  220.3350 C   0  0  0  0  0  0  0  0  0  0  0  0
  139.3660   73.2020  220.4390 C   0  0  0  0  0  0  0  0  0  0  0  0
  139.8120   73.8080  221.5900 C   0  0  0  0  0  0  0  0  0  0  0  0
  140.0670   75.2440  221.6100 C   0  0  0  0  0  0  0  0  0  0  0  0
  140.6660   75.7240  220.5970 O   0  0  0  0  0  0  0  0  0  0  0  0
  139.6860   76.0720  222.6720 N   0  0  0  0  0  0  0  0  0  0  0  0
  139.9410   77.4760  222.6810 C   0  0  0  0  0  0  0  0  0  0  0  0
  138.9510   78.4210  222.8070 C   0  0  0  0  0  0  0  0  0  0  0  0
  139.2560   79.7660  222.8090 C   0  0  0  0  0  0  0  0  0  0  0  0
  140.5820   80.1230  222.6820 C   0  0  0  0  0  0  0  0  0  0  0  0
  141.2330   81.3580  222.6450 C   0  0  0  0  0  0  0  0  0  0  0  0
  142.5550   81.1430  222.5050 N   0  0  0  0  0  0  0  0  0  0  0  0
  142.7860   79.8460  222.4490 N   0  0  0  0  0  0  0  0  0  0  0  0
  141.6020   79.2000  222.5540 C   0  0  0  0  0  0  0  0  0  0  0  0
  141.2680   77.8600  222.5550 C   0  0  0  0  0  0  0  0  0  0  0  0
  140.0000   73.0130  222.6940 C   0  0  0  0  0  0  0  0  0  0  0  0
  139.5120   69.6250  223.9190 N   0  0  0  0  0  0  0  0  0  0  0  0
  140.6185   68.5843  229.8443 H   0  0  0  0  0  0  0  0  0  0  0  0
  141.2486   67.0217  229.2213 H   0  0  0  0  0  0  0  0  0  0  0  0
  142.3000   68.4782  229.2213 H   0  0  0  0  0  0  0  0  0  0  0  0
  139.8770   66.5422  227.4398 H   0  0  0  0  0  0  0  0  0  0  0  0
  139.0280   67.0490  225.1350 H   0  0  0  0  0  0  0  0  0  0  0  0
  141.6102   70.4755  227.7451 H   0  0  0  0  0  0  0  0  0  0  0  0
  140.1983   72.0943  225.5343 H   0  0  0  0  0  0  0  0  0  0  0  0
  141.7174   71.5524  224.8677 H   0  0  0  0  0  0  0  0  0  0  0  0
  139.1047   69.9852  221.4371 H   0  0  0  0  0  0  0  0  0  0  0  0
  138.7450   71.4127  219.3919 H   0  0  0  0  0  0  0  0  0  0  0  0
  139.2116   73.8302  219.5493 H   0  0  0  0  0  0  0  0  0  0  0  0
  139.1960   75.6910  223.5060 H   0  0  0  0  0  0  0  0  0  0  0  0
  137.9034   78.1009  222.9074 H   0  0  0  0  0  0  0  0  0  0  0  0
  138.4687   80.5278  222.9085 H   0  0  0  0  0  0  0  0  0  0  0  0
  140.7470   82.3421  222.7180 H   0  0  0  0  0  0  0  0  0  0  0  0
  143.6930   79.3290  222.3420 H   0  0  0  0  0  0  0  0  0  0  0  0
  142.0543   77.0971  222.4559 H   0  0  0  0  0  0  0  0  0  0  0  0
  140.3553   73.4603  223.6340 H   0  0  0  0  0  0  0  0  0  0  0  0
  1  2  1  0
  2  3  2  0
  3  4  1  0
  4  5  2  0
  5  6  1  0
  6  7  2  0
  6  8  1  0
  8  9  1  0
  9 10  1  0
 10 11  2  0
 11 12  1  0
 12 13  2  0
 13 14  1  0
 14 15  1  0
 15 16  2  0
 15 17  1  0
 17 18  1  0
 18 19  2  0
 19 20  1  0
 20 21  2  0
 21 22  1  0
 22 23  2  0
 23 24  1  0
 24 25  1  0
 25 26  2  0
 14 27  2  0
  9 28  2  0
  7  2  1  0
 27 10  1  0
 28  5  1  0
 26 18  1  0
 25 21  1  0
  1 29  1  0
  1 30  1  0
  1 31  1  0
  3 32  1  0
  4 33  1  0
  7 34  1  0
  8 35  1  0
  8 36  1  0
 11 37  1  0
 12 38  1  0
 13 39  1  0
 17 40  1  0
 19 41  1  0
 20 42  1  0
 22 43  1  0
 24 44  1  0
 26 45  1  0
 27 46  1  0
M  END
>  <smiles>  (13) 
Cc1ccc2c(c1)CC(c1cccc(C(=O)Nc3ccc4cn[nH]c4c3)c1)=N2

>  <score_type>  (13) 
oracle

>  <origin>  (13) 
autodockgpu

>  <m_score__min__energy>  (13) 
-9.2400000000000002

>  <m_primary>  (13) 
energy

>  <meeko>  (13) 
{"free_energy": -9.23, "intermolecular_energy": -10.13, "internal_energy": -0.7, "cluster_size": 20, "cluster_id": 1, "rank_in_cluster": 3}

>  <energy>  (13) 
-9.22

>  <cluster_rmsd>  (13) 
0.05

>  <rmsd>  (13) 
271.87

>  <cluster>  (13) 
1

$$$$

     RDKit          3D

 46 50  0  0  0  0  0  0  0  0999 V2000
  140.6140   68.1470  228.9580 C   0  0  0  0  0  0  0  0  0  0  0  0
  140.6420   69.2220  227.9050 C   0  0  0  0  0  0  0  0  0  0  0  0
  141.0510   70.4940  228.2550 C   0  0  0  0  0  0  0  0  0  0  0  0
  141.0970   71.5310  227.3200 C   0  0  0  0  0  0  0  0  0  0  0  0
  140.7130   71.2270  226.0200 C   0  0  0  0  0  0  0  0  0  0  0  0
  140.3010   69.9510  225.6630 C   0  0  0  0  0  0  0  0  0  0  0  0
  140.2590   68.9350  226.5960 C   0  0  0  0  0  0  0  0  0  0  0  0
  139.9650   69.9790  224.2050 C   0  0  0  0  0  0  0  0  0  0  0  0
  140.2440   71.3950  223.8490 C   0  0  0  0  0  0  0  0  0  0  0  0
  140.0820   71.9870  222.5110 C   0  0  0  0  0  0  0  0  0  0  0  0
  139.7680   71.1630  221.4490 C   0  0  0  0  0  0  0  0  0  0  0  0
  139.6120   71.7140  220.1770 C   0  0  0  0  0  0  0  0  0  0  0  0
  139.7850   73.0760  220.0470 C   0  0  0  0  0  0  0  0  0  0  0  0
  140.0990   73.9100  221.0920 C   0  0  0  0  0  0  0  0  0  0  0  0
  140.2640   75.3420  220.8630 C   0  0  0  0  0  0  0  0  0  0  0  0
  139.5020   75.8630  219.9900 O   0  0  0  0  0  0  0  0  0  0  0  0
  141.2000   76.1220  221.5510 N   0  0  0  0  0  0  0  0  0  0  0  0
  141.3530   77.5220  221.3180 C   0  0  0  0  0  0  0  0  0  0  0  0
  141.5750   78.0580  220.0720 C   0  0  0  0  0  0  0  0  0  0  0  0
  141.7150   79.4210  219.9050 C   0  0  0  0  0  0  0  0  0  0  0  0
  141.6240   80.2160  221.0270 C   0  0  0  0  0  0  0  0  0  0  0  0
  141.7150   81.5960  221.2220 C   0  0  0  0  0  0  0  0  0  0  0  0
  141.5510   81.8580  222.5330 N   0  0  0  0  0  0  0  0  0  0  0  0
  141.3610   80.7280  223.1850 N   0  0  0  0  0  0  0  0  0  0  0  0
  141.4010   79.7110  222.2930 C   0  0  0  0  0  0  0  0  0  0  0  0
  141.2650   78.3440  222.4310 C   0  0  0  0  0  0  0  0  0  0  0  0
  140.2470   73.3450  222.3350 C   0  0  0  0  0  0  0  0  0  0  0  0
  140.6530   72.0610  224.8580 N   0  0  0  0  0  0  0  0  0  0  0  0
  140.6261   68.6105  229.9555 H   0  0  0  0  0  0  0  0  0  0  0  0
  139.6999   67.5458  228.8440 H   0  0  0  0  0  0  0  0  0  0  0  0
  141.4956   67.4991  228.8440 H   0  0  0  0  0  0  0  0  0  0  0  0
  141.3476   70.6953  229.2949 H   0  0  0  0  0  0  0  0  0  0  0  0
  141.4229   72.5434  227.6008 H   0  0  0  0  0  0  0  0  0  0  0  0
  139.9314   67.9236  226.3135 H   0  0  0  0  0  0  0  0  0  0  0  0
  140.6051   69.2901  223.6343 H   0  0  0  0  0  0  0  0  0  0  0  0
  138.9361   69.6606  223.9815 H   0  0  0  0  0  0  0  0  0  0  0  0
  139.6419   70.0814  221.6044 H   0  0  0  0  0  0  0  0  0  0  0  0
  139.3604   71.0855  219.3100 H   0  0  0  0  0  0  0  0  0  0  0  0
  139.6645   73.5203  219.0480 H   0  0  0  0  0  0  0  0  0  0  0  0
  141.8290   75.7070  222.2670 H   0  0  0  0  0  0  0  0  0  0  0  0
  141.6419   77.3933  219.1981 H   0  0  0  0  0  0  0  0  0  0  0  0
  141.8930   79.8574  218.9111 H   0  0  0  0  0  0  0  0  0  0  0  0
  141.8913   82.3446  220.4355 H   0  0  0  0  0  0  0  0  0  0  0  0
  141.2020   80.5620  224.2090 H   0  0  0  0  0  0  0  0  0  0  0  0
  141.0867   77.9068  223.4245 H   0  0  0  0  0  0  0  0  0  0  0  0
  140.4991   73.9804  223.1968 H   0  0  0  0  0  0  0  0  0  0  0  0
  1  2  1  0
  2  3  2  0
  3  4  1  0
  4  5  2  0
  5  6  1  0
  6  7  2  0
  6  8  1  0
  8  9  1  0
  9 10  1  0
 10 11  2  0
 11 12  1  0
 12 13  2  0
 13 14  1  0
 14 15  1  0
 15 16  2  0
 15 17  1  0
 17 18  1  0
 18 19  2  0
 19 20  1  0
 20 21  2  0
 21 22  1  0
 22 23  2  0
 23 24  1  0
 24 25  1  0
 25 26  2  0
 14 27  2  0
  9 28  2  0
  7  2  1  0
 27 10  1  0
 28  5  1  0
 26 18  1  0
 25 21  1  0
  1 29  1  0
  1 30  1  0
  1 31  1  0
  3 32  1  0
  4 33  1  0
  7 34  1  0
  8 35  1  0
  8 36  1  0
 11 37  1  0
 12 38  1  0
 13 39  1  0
 17 40  1  0
 19 41  1  0
 20 42  1  0
 22 43  1  0
 24 44  1  0
 26 45  1  0
 27 46  1  0
M  END
>  <smiles>  (14) 
Cc1ccc2c(c1)CC(c1cccc(C(=O)Nc3ccc4cn[nH]c4c3)c1)=N2

>  <score_type>  (14) 
oracle

>  <origin>  (14) 
autodockgpu

>  <m_score__min__energy>  (14) 
-9.2400000000000002

>  <m_primary>  (14) 
energy

>  <meeko>  (14) 
{"free_energy": -8.5, "intermolecular_energy": -9.39, "internal_energy": -0.7, "cluster_size": 20, "cluster_id": 1, "rank_in_cluster": 20}

>  <energy>  (14) 
-9.22

>  <cluster_rmsd>  (14) 
0.05

>  <rmsd>  (14) 
271.85

>  <cluster>  (14) 
1

$$$$

     RDKit          3D

 46 50  0  0  0  0  0  0  0  0999 V2000
  141.2490   68.1050  229.0510 C   0  0  0  0  0  0  0  0  0  0  0  0
  140.7560   68.4610  227.6740 C   0  0  0  0  0  0  0  0  0  0  0  0
  140.0460   67.5210  226.9520 C   0  0  0  0  0  0  0  0  0  0  0  0
  139.5640   67.7950  225.6700 C   0  0  0  0  0  0  0  0  0  0  0  0
  139.8290   69.0570  225.1520 C   0  0  0  0  0  0  0  0  0  0  0  0
  140.5420   70.0040  225.8730 C   0  0  0  0  0  0  0  0  0  0  0  0
  141.0130   69.7210  227.1380 C   0  0  0  0  0  0  0  0  0  0  0  0
  140.6410   71.2330  225.0230 C   0  0  0  0  0  0  0  0  0  0  0  0
  139.9110   70.8220  223.7960 C   0  0  0  0  0  0  0  0  0  0  0  0
  139.6980   71.6640  222.6070 C   0  0  0  0  0  0  0  0  0  0  0  0
  139.2380   71.0770  221.4460 C   0  0  0  0  0  0  0  0  0  0  0  0
  139.0330   71.8660  220.3140 C   0  0  0  0  0  0  0  0  0  0  0  0
  139.3070   73.2130  220.4180 C   0  0  0  0  0  0  0  0  0  0  0  0
  139.7670   73.8140  221.5650 C   0  0  0  0  0  0  0  0  0  0  0  0
  140.0310   75.2490  221.5850 C   0  0  0  0  0  0  0  0  0  0  0  0
  140.6280   75.7250  220.5700 O   0  0  0  0  0  0  0  0  0  0  0  0
  139.6590   76.0780  222.6490 N   0  0  0  0  0  0  0  0  0  0  0  0
  139.9240   77.4820  222.6580 C   0  0  0  0  0  0  0  0  0  0  0  0
  138.9390   78.4320  222.7810 C   0  0  0  0  0  0  0  0  0  0  0  0
  139.2530   79.7760  222.7830 C   0  0  0  0  0  0  0  0  0  0  0  0
  140.5820   80.1240  222.6580 C   0  0  0  0  0  0  0  0  0  0  0  0
  141.2410   81.3550  222.6220 C   0  0  0  0  0  0  0  0  0  0  0  0
  142.5620   81.1320  222.4850 N   0  0  0  0  0  0  0  0  0  0  0  0
  142.7840   79.8330  222.4300 N   0  0  0  0  0  0  0  0  0  0  0  0
  141.5950   79.1940  222.5340 C   0  0  0  0  0  0  0  0  0  0  0  0
  141.2530   77.8570  222.5340 C   0  0  0  0  0  0  0  0  0  0  0  0
  139.9610   73.0170  222.6660 C   0  0  0  0  0  0  0  0  0  0  0  0
  139.4730   69.6260  223.8870 N   0  0  0  0  0  0  0  0  0  0  0  0
  140.5999   68.5737  229.8054 H   0  0  0  0  0  0  0  0  0  0  0  0
  141.2278   67.0124  229.1769 H   0  0  0  0  0  0  0  0  0  0  0  0
  142.2794   68.4687  229.1769 H   0  0  0  0  0  0  0  0  0  0  0  0
  139.8558   66.5334  227.3974 H   0  0  0  0  0  0  0  0  0  0  0  0
  138.9998   67.0452  225.0960 H   0  0  0  0  0  0  0  0  0  0  0  0
  141.5779   70.4719  227.7099 H   0  0  0  0  0  0  0  0  0  0  0  0
  140.1558   72.0934  225.5070 H   0  0  0  0  0  0  0  0  0  0  0  0
  141.6746   71.5591  224.8349 H   0  0  0  0  0  0  0  0  0  0  0  0
  139.0348   69.9964  221.4134 H   0  0  0  0  0  0  0  0  0  0  0  0
  138.6663   71.4295  219.3733 H   0  0  0  0  0  0  0  0  0  0  0  0
  139.1481   73.8437  219.5309 H   0  0  0  0  0  0  0  0  0  0  0  0
  139.1710   75.7000  223.4850 H   0  0  0  0  0  0  0  0  0  0  0  0
  137.8893   78.1182  222.8789 H   0  0  0  0  0  0  0  0  0  0  0  0
  138.4707   80.5430  222.8809 H   0  0  0  0  0  0  0  0  0  0  0  0
  140.7609   82.3421  222.6936 H   0  0  0  0  0  0  0  0  0  0  0  0
  143.6880   79.3110  222.3270 H   0  0  0  0  0  0  0  0  0  0  0  0
  142.0345   77.0892  222.4357 H   0  0  0  0  0  0  0  0  0  0  0  0
  140.3291   73.4609  223.6027 H   0  0  0  0  0  0  0  0  0  0  0  0
  1  2  1  0
  2  3  2  0
  3  4  1  0
  4  5  2  0
  5  6  1  0
  6  7  2  0
  6  8  1  0
  8  9  1  0
  9 10  1  0
 10 11  2  0
 11 12  1  0
 12 13  2  0
 13 14  1  0
 14 15  1  0
 15 16  2  0
 15 17  1  0
 17 18  1  0
 18 19  2  0
 19 20  1  0
 20 21  2  0
 21 22  1  0
 22 23  2  0
 23 24  1  0
 24 25  1  0
 25 26  2  0
 14 27  2  0
  9 28  2  0
  7  2  1  0
 27 10  1  0
 28  5  1  0
 26 18  1  0
 25 21  1  0
  1 29  1  0
  1 30  1  0
  1 31  1  0
  3 32  1  0
  4 33  1  0
  7 34  1  0
  8 35  1  0
  8 36  1  0
 11 37  1  0
 12 38  1  0
 13 39  1  0
 17 40  1  0
 19 41  1  0
 20 42  1  0
 22 43  1  0
 24 44  1  0
 26 45  1  0
 27 46  1  0
M  END
>  <smiles>  (15) 
Cc1ccc2c(c1)CC(c1cccc(C(=O)Nc3ccc4cn[nH]c4c3)c1)=N2

>  <score_type>  (15) 
oracle

>  <origin>  (15) 
autodockgpu

>  <m_score__min__energy>  (15) 
-9.2400000000000002

>  <m_primary>  (15) 
energy

>  <meeko>  (15) 
{"free_energy": -9.22, "intermolecular_energy": -10.12, "internal_energy": -0.71, "cluster_size": 20, "cluster_id": 1, "rank_in_cluster": 14}

>  <energy>  (15) 
-9.22

>  <cluster_rmsd>  (15) 
0.05

>  <rmsd>  (15) 
271.86

>  <cluster>  (15) 
1

$$$$

     RDKit          3D

 46 50  0  0  0  0  0  0  0  0999 V2000
  141.1890   68.1320  229.0910 C   0  0  0  0  0  0  0  0  0  0  0  0
  140.7160   68.4790  227.7050 C   0  0  0  0  0  0  0  0  0  0  0  0
  140.0210   67.5340  226.9770 C   0  0  0  0  0  0  0  0  0  0  0  0
  139.5570   67.8000  225.6860 C   0  0  0  0  0  0  0  0  0  0  0  0
  139.8270   69.0600  225.1660 C   0  0  0  0  0  0  0  0  0  0  0  0
  140.5250   70.0130  225.8930 C   0  0  0  0  0  0  0  0  0  0  0  0
  140.9780   69.7380  227.1670 C   0  0  0  0  0  0  0  0  0  0  0  0
  140.6330   71.2380  225.0400 C   0  0  0  0  0  0  0  0  0  0  0  0
  139.9230   70.8200  223.8030 C   0  0  0  0  0  0  0  0  0  0  0  0
  139.7260   71.6550  222.6070 C   0  0  0  0  0  0  0  0  0  0  0  0
  139.2950   71.0600  221.4400 C   0  0  0  0  0  0  0  0  0  0  0  0
  139.1050   71.8420  220.3010 C   0  0  0  0  0  0  0  0  0  0  0  0
  139.3640   73.1930  220.4050 C   0  0  0  0  0  0  0  0  0  0  0  0
  139.7940   73.8020  221.5590 C   0  0  0  0  0  0  0  0  0  0  0  0
  140.0440   75.2400  221.5790 C   0  0  0  0  0  0  0  0  0  0  0  0
  140.6280   75.7240  220.5600 O   0  0  0  0  0  0  0  0  0  0  0  0
  139.6710   76.0640  222.6470 N   0  0  0  0  0  0  0  0  0  0  0  0
  139.9210   77.4700  222.6560 C   0  0  0  0  0  0  0  0  0  0  0  0
  138.9250   78.4100  222.7730 C   0  0  0  0  0  0  0  0  0  0  0  0
  139.2250   79.7570  222.7760 C   0  0  0  0  0  0  0  0  0  0  0  0
  140.5510   80.1190  222.6570 C   0  0  0  0  0  0  0  0  0  0  0  0
  141.1970   81.3560  222.6230 C   0  0  0  0  0  0  0  0  0  0  0  0
  142.5210   81.1470  222.4920 N   0  0  0  0  0  0  0  0  0  0  0  0
  142.7570   79.8510  222.4400 N   0  0  0  0  0  0  0  0  0  0  0  0
  141.5740   79.2000  222.5380 C   0  0  0  0  0  0  0  0  0  0  0  0
  141.2460   77.8590  222.5380 C   0  0  0  0  0  0  0  0  0  0  0  0
  139.9740   73.0110  222.6670 C   0  0  0  0  0  0  0  0  0  0  0  0
  139.4880   69.6230  223.8930 N   0  0  0  0  0  0  0  0  0  0  0  0
  140.5342   68.6124  229.8329 H   0  0  0  0  0  0  0  0  0  0  0  0
  141.1580   67.0408  229.2266 H   0  0  0  0  0  0  0  0  0  0  0  0
  142.2205   68.4892  229.2266 H   0  0  0  0  0  0  0  0  0  0  0  0
  139.8278   66.5477  227.4241 H   0  0  0  0  0  0  0  0  0  0  0  0
  139.0031   67.0460  225.1075 H   0  0  0  0  0  0  0  0  0  0  0  0
  141.5320   70.4933  227.7437 H   0  0  0  0  0  0  0  0  0  0  0  0
  140.1378   72.0988  225.5130 H   0  0  0  0  0  0  0  0  0  0  0  0
  141.6684   71.5664  224.8664 H   0  0  0  0  0  0  0  0  0  0  0  0
  139.1026   69.9774  221.4078 H   0  0  0  0  0  0  0  0  0  0  0  0
  138.7614   71.3981  219.3550 H   0  0  0  0  0  0  0  0  0  0  0  0
  139.2178   73.8189  219.5123 H   0  0  0  0  0  0  0  0  0  0  0  0
  139.1930   75.6790  223.4860 H   0  0  0  0  0  0  0  0  0  0  0  0
  137.8781   78.0853  222.8652 H   0  0  0  0  0  0  0  0  0  0  0  0
  138.4342   80.5159  222.8700 H   0  0  0  0  0  0  0  0  0  0  0  0
  140.7063   82.3381  222.6918 H   0  0  0  0  0  0  0  0  0  0  0  0
  143.6670   79.3380  222.3410 H   0  0  0  0  0  0  0  0  0  0  0  0
  142.0361   77.0994  222.4444 H   0  0  0  0  0  0  0  0  0  0  0  0
  140.3185   73.4618  223.6094 H   0  0  0  0  0  0  0  0  0  0  0  0
  1  2  1  0
  2  3  2  0
  3  4  1  0
  4  5  2  0
  5  6  1  0
  6  7  2  0
  6  8  1  0
  8  9  1  0
  9 10  1  0
 10 11  2  0
 11 12  1  0
 12 13  2  0
 13 14  1  0
 14 15  1  0
 15 16  2  0
 15 17  1  0
 17 18  1  0
 18 19  2  0
 19 20  1  0
 20 21  2  0
 21 22  1  0
 22 23  2  0
 23 24  1  0
 24 25  1  0
 25 26  2  0
 14 27  2  0
  9 28  2  0
  7  2  1  0
 27 10  1  0
 28  5  1  0
 26 18  1  0
 25 21  1  0
  1 29  1  0
  1 30  1  0
  1 31  1  0
  3 32  1  0
  4 33  1  0
  7 34  1  0
  8 35  1  0
  8 36  1  0
 11 37  1  0
 12 38  1  0
 13 39  1  0
 17 40  1  0
 19 41  1  0
 20 42  1  0
 22 43  1  0
 24 44  1  0
 26 45  1  0
 27 46  1  0
M  END
>  <smiles>  (16) 
Cc1ccc2c(c1)CC(c1cccc(C(=O)Nc3ccc4cn[nH]c4c3)c1)=N2

>  <score_type>  (16) 
oracle

>  <origin>  (16) 
autodockgpu

>  <m_score__min__energy>  (16) 
-9.2400000000000002

>  <m_primary>  (16) 
energy

>  <meeko>  (16) 
{"free_energy": -9.23, "intermolecular_energy": -10.12, "internal_energy": -0.71, "cluster_size": 20, "cluster_id": 1, "rank_in_cluster": 10}

>  <energy>  (16) 
-9.22

>  <cluster_rmsd>  (16) 
0.04

>  <rmsd>  (16) 
271.86

>  <cluster>  (16) 
1

$$$$

     RDKit          3D

 46 50  0  0  0  0  0  0  0  0999 V2000
  141.2090   68.1050  229.0820 C   0  0  0  0  0  0  0  0  0  0  0  0
  140.7330   68.4570  227.6980 C   0  0  0  0  0  0  0  0  0  0  0  0
  140.0290   67.5170  226.9720 C   0  0  0  0  0  0  0  0  0  0  0  0
  139.5620   67.7880  225.6830 C   0  0  0  0  0  0  0  0  0  0  0  0
  139.8380   69.0460  225.1630 C   0  0  0  0  0  0  0  0  0  0  0  0
  140.5450   69.9940  225.8890 C   0  0  0  0  0  0  0  0  0  0  0  0
  141.0000   69.7150  227.1610 C   0  0  0  0  0  0  0  0  0  0  0  0
  140.6580   71.2190  225.0360 C   0  0  0  0  0  0  0  0  0  0  0  0
  139.9400   70.8060  223.8010 C   0  0  0  0  0  0  0  0  0  0  0  0
  139.7440   71.6440  222.6070 C   0  0  0  0  0  0  0  0  0  0  0  0
  139.3150   71.0510  221.4380 C   0  0  0  0  0  0  0  0  0  0  0  0
  139.1250   71.8350  220.3000 C   0  0  0  0  0  0  0  0  0  0  0  0
  139.3830   73.1860  220.4080 C   0  0  0  0  0  0  0  0  0  0  0  0
  139.8120   73.7930  221.5630 C   0  0  0  0  0  0  0  0  0  0  0  0
  140.0610   75.2310  221.5870 C   0  0  0  0  0  0  0  0  0  0  0  0
  140.6530   75.7160  220.5730 O   0  0  0  0  0  0  0  0  0  0  0  0
  139.6800   76.0540  222.6530 N   0  0  0  0  0  0  0  0  0  0  0  0
  139.9300   77.4600  222.6650 C   0  0  0  0  0  0  0  0  0  0  0  0
  138.9340   78.3990  222.7880 C   0  0  0  0  0  0  0  0  0  0  0  0
  139.2340   79.7460  222.7940 C   0  0  0  0  0  0  0  0  0  0  0  0
  140.5590   80.1090  222.6710 C   0  0  0  0  0  0  0  0  0  0  0  0
  141.2040   81.3470  222.6380 C   0  0  0  0  0  0  0  0  0  0  0  0
  142.5270   81.1390  222.5010 N   0  0  0  0  0  0  0  0  0  0  0  0
  142.7640   79.8430  222.4450 N   0  0  0  0  0  0  0  0  0  0  0  0
  141.5820   79.1910  222.5450 C   0  0  0  0  0  0  0  0  0  0  0  0
  141.2540   77.8500  222.5430 C   0  0  0  0  0  0  0  0  0  0  0  0
  139.9910   73.0000  222.6700 C   0  0  0  0  0  0  0  0  0  0  0  0
  139.4980   69.6120  223.8920 N   0  0  0  0  0  0  0  0  0  0  0  0
  140.5583   68.5862  229.8270 H   0  0  0  0  0  0  0  0  0  0  0  0
  141.1743   67.0136  229.2152 H   0  0  0  0  0  0  0  0  0  0  0  0
  142.2423   68.4579  229.2152 H   0  0  0  0  0  0  0  0  0  0  0  0
  139.8310   66.5315  227.4187 H   0  0  0  0  0  0  0  0  0  0  0  0
  139.0008   67.0383  225.1059 H   0  0  0  0  0  0  0  0  0  0  0  0
  141.5596   70.4667  227.7371 H   0  0  0  0  0  0  0  0  0  0  0  0
  140.1704   72.0829  225.5113 H   0  0  0  0  0  0  0  0  0  0  0  0
  141.6949   71.5406  224.8585 H   0  0  0  0  0  0  0  0  0  0  0  0
  139.1242   69.9682  221.4033 H   0  0  0  0  0  0  0  0  0  0  0  0
  138.7826   71.3930  219.3527 H   0  0  0  0  0  0  0  0  0  0  0  0
  139.2365   73.8139  219.5168 H   0  0  0  0  0  0  0  0  0  0  0  0
  139.1960   75.6680  223.4880 H   0  0  0  0  0  0  0  0  0  0  0  0
  137.8875   78.0737  222.8826 H   0  0  0  0  0  0  0  0  0  0  0  0
  138.4434   80.5043  222.8935 H   0  0  0  0  0  0  0  0  0  0  0  0
  140.7130   82.3286  222.7117 H   0  0  0  0  0  0  0  0  0  0  0  0
  143.6740   79.3300  222.3400 H   0  0  0  0  0  0  0  0  0  0  0  0
  142.0440   77.0909  222.4445 H   0  0  0  0  0  0  0  0  0  0  0  0
  140.3338   73.4492  223.6138 H   0  0  0  0  0  0  0  0  0  0  0  0
  1  2  1  0
  2  3  2  0
  3  4  1  0
  4  5  2  0
  5  6  1  0
  6  7  2  0
  6  8  1  0
  8  9  1  0
  9 10  1  0
 10 11  2  0
 11 12  1  0
 12 13  2  0
 13 14  1  0
 14 15  1  0
 15 16  2  0
 15 17  1  0
 17 18  1  0
 18 19  2  0
 19 20  1  0
 20 21  2  0
 21 22  1  0
 22 23  2  0
 23 24  1  0
 24 25  1  0
 25 26  2  0
 14 27  2  0
  9 28  2  0
  7  2  1  0
 27 10  1  0
 28  5  1  0
 26 18  1  0
 25 21  1  0
  1 29  1  0
  1 30  1  0
  1 31  1  0
  3 32  1  0
  4 33  1  0
  7 34  1  0
  8 35  1  0
  8 36  1  0
 11 37  1  0
 12 38  1  0
 13 39  1  0
 17 40  1  0
 19 41  1  0
 20 42  1  0
 22 43  1  0
 24 44  1  0
 26 45  1  0
 27 46  1  0
M  END
>  <smiles>  (17) 
Cc1ccc2c(c1)CC(c1cccc(C(=O)Nc3ccc4cn[nH]c4c3)c1)=N2

>  <score_type>  (17) 
oracle

>  <origin>  (17) 
autodockgpu

>  <m_score__min__energy>  (17) 
-9.2400000000000002

>  <m_primary>  (17) 
energy

>  <meeko>  (17) 
{"free_energy": -9.23, "intermolecular_energy": -10.12, "internal_energy": -0.71, "cluster_size": 20, "cluster_id": 1, "rank_in_cluster": 5}

>  <energy>  (17) 
-9.22

>  <cluster_rmsd>  (17) 
0.04

>  <rmsd>  (17) 
271.85

>  <cluster>  (17) 
1

$$$$

     RDKit          3D

 46 50  0  0  0  0  0  0  0  0999 V2000
  141.1690   68.0660  229.0160 C   0  0  0  0  0  0  0  0  0  0  0  0
  140.7060   68.4290  227.6300 C   0  0  0  0  0  0  0  0  0  0  0  0
  140.0180   67.4910  226.8860 C   0  0  0  0  0  0  0  0  0  0  0  0
  139.5640   67.7710  225.5940 C   0  0  0  0  0  0  0  0  0  0  0  0
  139.8360   69.0370  225.0910 C   0  0  0  0  0  0  0  0  0  0  0  0
  140.5270   69.9820  225.8340 C   0  0  0  0  0  0  0  0  0  0  0  0
  140.9700   69.6940  227.1080 C   0  0  0  0  0  0  0  0  0  0  0  0
  140.6400   71.2170  224.9950 C   0  0  0  0  0  0  0  0  0  0  0  0
  139.9410   70.8110  223.7480 C   0  0  0  0  0  0  0  0  0  0  0  0
  139.7510   71.6600  222.5600 C   0  0  0  0  0  0  0  0  0  0  0  0
  139.3270   71.0770  221.3840 C   0  0  0  0  0  0  0  0  0  0  0  0
  139.1450   71.8720  220.2520 C   0  0  0  0  0  0  0  0  0  0  0  0
  139.4040   73.2210  220.3730 C   0  0  0  0  0  0  0  0  0  0  0  0
  139.8290   73.8180  221.5360 C   0  0  0  0  0  0  0  0  0  0  0  0
  140.0800   75.2540  221.5730 C   0  0  0  0  0  0  0  0  0  0  0  0
  140.6730   75.7490  220.5640 O   0  0  0  0  0  0  0  0  0  0  0  0
  139.6990   76.0680  222.6460 N   0  0  0  0  0  0  0  0  0  0  0  0
  139.9510   77.4730  222.6720 C   0  0  0  0  0  0  0  0  0  0  0  0
  138.9570   78.4140  222.8060 C   0  0  0  0  0  0  0  0  0  0  0  0
  139.2590   79.7600  222.8240 C   0  0  0  0  0  0  0  0  0  0  0  0
  140.5840   80.1210  222.7030 C   0  0  0  0  0  0  0  0  0  0  0  0
  141.2310   81.3590  222.6820 C   0  0  0  0  0  0  0  0  0  0  0  0
  142.5540   81.1500  222.5410 N   0  0  0  0  0  0  0  0  0  0  0  0
  142.7890   79.8540  222.4710 N   0  0  0  0  0  0  0  0  0  0  0  0
  141.6060   79.2030  222.5670 C   0  0  0  0  0  0  0  0  0  0  0  0
  141.2760   77.8630  222.5520 C   0  0  0  0  0  0  0  0  0  0  0  0
  140.0000   73.0150  222.6360 C   0  0  0  0  0  0  0  0  0  0  0  0
  139.5070   69.6130  223.8210 N   0  0  0  0  0  0  0  0  0  0  0  0
  140.5305   68.5666  229.7588 H   0  0  0  0  0  0  0  0  0  0  0  0
  141.1033   66.9763  229.1509 H   0  0  0  0  0  0  0  0  0  0  0  0
  142.2115   68.3899  229.1509 H   0  0  0  0  0  0  0  0  0  0  0  0
  139.8225   66.4995  227.3205 H   0  0  0  0  0  0  0  0  0  0  0  0
  139.0162   67.0228  225.0023 H   0  0  0  0  0  0  0  0  0  0  0  0
  141.5180   70.4439  227.6973 H   0  0  0  0  0  0  0  0  0  0  0  0
  140.1394   72.0718  225.4732 H   0  0  0  0  0  0  0  0  0  0  0  0
  141.6761   71.5492  224.8336 H   0  0  0  0  0  0  0  0  0  0  0  0
  139.1341   69.9950  221.3391 H   0  0  0  0  0  0  0  0  0  0  0  0
  138.8076   71.4390  219.2988 H   0  0  0  0  0  0  0  0  0  0  0  0
  139.2622   73.8568  219.4867 H   0  0  0  0  0  0  0  0  0  0  0  0
  139.2140   75.6760  223.4770 H   0  0  0  0  0  0  0  0  0  0  0  0
  137.9100   78.0900  222.8998 H   0  0  0  0  0  0  0  0  0  0  0  0
  138.4699   80.5189  222.9312 H   0  0  0  0  0  0  0  0  0  0  0  0
  140.7416   82.3405  222.7665 H   0  0  0  0  0  0  0  0  0  0  0  0
  143.6980   79.3410  222.3600 H   0  0  0  0  0  0  0  0  0  0  0  0
  142.0648   77.1039  222.4448 H   0  0  0  0  0  0  0  0  0  0  0  0
  140.3382   73.4552  223.5856 H   0  0  0  0  0  0  0  0  0  0  0  0
  1  2  1  0
  2  3  2  0
  3  4  1  0
  4  5  2  0
  5  6  1  0
  6  7  2  0
  6  8  1  0
  8  9  1  0
  9 10  1  0
 10 11  2  0
 11 12  1  0
 12 13  2  0
 13 14  1  0
 14 15  1  0
 15 16  2  0
 15 17  1  0
 17 18  1  0
 18 19  2  0
 19 20  1  0
 20 21  2  0
 21 22  1  0
 22 23  2  0
 23 24  1  0
 24 25  1  0
 25 26  2  0
 14 27  2  0
  9 28  2  0
  7  2  1  0
 27 10  1  0
 28  5  1  0
 26 18  1  0
 25 21  1  0
  1 29  1  0
  1 30  1  0
  1 31  1  0
  3 32  1  0
  4 33  1  0
  7 34  1  0
  8 35  1  0
  8 36  1  0
 11 37  1  0
 12 38  1  0
 13 39  1  0
 17 40  1  0
 19 41  1  0
 20 42  1  0
 22 43  1  0
 24 44  1  0
 26 45  1  0
 27 46  1  0
M  END
>  <smiles>  (18) 
Cc1ccc2c(c1)CC(c1cccc(C(=O)Nc3ccc4cn[nH]c4c3)c1)=N2

>  <score_type>  (18) 
oracle

>  <origin>  (18) 
autodockgpu

>  <m_score__min__energy>  (18) 
-9.2400000000000002

>  <m_primary>  (18) 
energy

>  <meeko>  (18) 
{"free_energy": -9.22, "intermolecular_energy": -10.12, "internal_energy": -0.7, "cluster_size": 20, "cluster_id": 1, "rank_in_cluster": 11}

>  <energy>  (18) 
-9.21

>  <cluster_rmsd>  (18) 
0.06

>  <rmsd>  (18) 
271.84

>  <cluster>  (18) 
1

$$$$

     RDKit          3D

 46 50  0  0  0  0  0  0  0  0999 V2000
  141.2750   68.0880  229.0840 C   0  0  0  0  0  0  0  0  0  0  0  0
  140.7840   68.4430  227.7060 C   0  0  0  0  0  0  0  0  0  0  0  0
  140.0810   67.5010  226.9810 C   0  0  0  0  0  0  0  0  0  0  0  0
  139.6010   67.7740  225.6980 C   0  0  0  0  0  0  0  0  0  0  0  0
  139.8640   69.0370  225.1810 C   0  0  0  0  0  0  0  0  0  0  0  0
  140.5700   69.9860  225.9050 C   0  0  0  0  0  0  0  0  0  0  0  0
  141.0390   69.7050  227.1720 C   0  0  0  0  0  0  0  0  0  0  0  0
  140.6670   71.2160  225.0570 C   0  0  0  0  0  0  0  0  0  0  0  0
  139.9420   70.8040  223.8270 C   0  0  0  0  0  0  0  0  0  0  0  0
  139.7300   71.6450  222.6380 C   0  0  0  0  0  0  0  0  0  0  0  0
  139.2700   71.0580  221.4770 C   0  0  0  0  0  0  0  0  0  0  0  0
  139.0650   71.8470  220.3450 C   0  0  0  0  0  0  0  0  0  0  0  0
  139.3400   73.1940  220.4490 C   0  0  0  0  0  0  0  0  0  0  0  0
  139.7990   73.7950  221.5960 C   0  0  0  0  0  0  0  0  0  0  0  0
  140.0640   75.2300  221.6160 C   0  0  0  0  0  0  0  0  0  0  0  0
  140.6930   75.7000  220.6170 O   0  0  0  0  0  0  0  0  0  0  0  0
  139.6590   76.0660  222.6630 N   0  0  0  0  0  0  0  0  0  0  0  0
  139.9250   77.4690  222.6720 C   0  0  0  0  0  0  0  0  0  0  0  0
  138.9400   78.4200  222.7930 C   0  0  0  0  0  0  0  0  0  0  0  0
  139.2540   79.7640  222.7960 C   0  0  0  0  0  0  0  0  0  0  0  0
  140.5830   80.1110  222.6730 C   0  0  0  0  0  0  0  0  0  0  0  0
  141.2420   81.3420  222.6370 C   0  0  0  0  0  0  0  0  0  0  0  0
  142.5640   81.1180  222.5010 N   0  0  0  0  0  0  0  0  0  0  0  0
  142.7860   79.8200  222.4470 N   0  0  0  0  0  0  0  0  0  0  0  0
  141.5970   79.1810  222.5490 C   0  0  0  0  0  0  0  0  0  0  0  0
  141.2540   77.8440  222.5500 C   0  0  0  0  0  0  0  0  0  0  0  0
  139.9930   72.9980  222.6970 C   0  0  0  0  0  0  0  0  0  0  0  0
  139.5090   69.6060  223.9150 N   0  0  0  0  0  0  0  0  0  0  0  0
  140.6252   68.5578  229.8371 H   0  0  0  0  0  0  0  0  0  0  0  0
  141.2530   66.9956  229.2109 H   0  0  0  0  0  0  0  0  0  0  0  0
  142.3055   68.4512  229.2109 H   0  0  0  0  0  0  0  0  0  0  0  0
  139.8946   66.5118  227.4246 H   0  0  0  0  0  0  0  0  0  0  0  0
  139.0399   67.0230  225.1225 H   0  0  0  0  0  0  0  0  0  0  0  0
  141.5997   70.4576  227.7458 H   0  0  0  0  0  0  0  0  0  0  0  0
  140.1773   72.0741  225.5406 H   0  0  0  0  0  0  0  0  0  0  0  0
  141.7000   71.5460  224.8724 H   0  0  0  0  0  0  0  0  0  0  0  0
  139.0668   69.9774  221.4444 H   0  0  0  0  0  0  0  0  0  0  0  0
  138.6976   71.4107  219.4044 H   0  0  0  0  0  0  0  0  0  0  0  0
  139.1826   73.8245  219.5615 H   0  0  0  0  0  0  0  0  0  0  0  0
  139.1450   75.6930  223.4860 H   0  0  0  0  0  0  0  0  0  0  0  0
  137.8900   78.1065  222.8885 H   0  0  0  0  0  0  0  0  0  0  0  0
  138.4718   80.5313  222.8931 H   0  0  0  0  0  0  0  0  0  0  0  0
  140.7622   82.3293  222.7078 H   0  0  0  0  0  0  0  0  0  0  0  0
  143.6900   79.2970  222.3450 H   0  0  0  0  0  0  0  0  0  0  0  0
  142.0355   77.0758  222.4540 H   0  0  0  0  0  0  0  0  0  0  0  0
  140.3611   73.4419  223.6337 H   0  0  0  0  0  0  0  0  0  0  0  0
  1  2  1  0
  2  3  2  0
  3  4  1  0
  4  5  2  0
  5  6  1  0
  6  7  2  0
  6  8  1  0
  8  9  1  0
  9 10  1  0
 10 11  2  0
 11 12  1  0
 12 13  2  0
 13 14  1  0
 14 15  1  0
 15 16  2  0
 15 17  1  0
 17 18  1  0
 18 19  2  0
 19 20  1  0
 20 21  2  0
 21 22  1  0
 22 23  2  0
 23 24  1  0
 24 25  1  0
 25 26  2  0
 14 27  2  0
  9 28  2  0
  7  2  1  0
 27 10  1  0
 28  5  1  0
 26 18  1  0
 25 21  1  0
  1 29  1  0
  1 30  1  0
  1 31  1  0
  3 32  1  0
  4 33  1  0
  7 34  1  0
  8 35  1  0
  8 36  1  0
 11 37  1  0
 12 38  1  0
 13 39  1  0
 17 40  1  0
 19 41  1  0
 20 42  1  0
 22 43  1  0
 24 44  1  0
 26 45  1  0
 27 46  1  0
M  END
>  <smiles>  (19) 
Cc1ccc2c(c1)CC(c1cccc(C(=O)Nc3ccc4cn[nH]c4c3)c1)=N2

>  <score_type>  (19) 
oracle

>  <origin>  (19) 
autodockgpu

>  <m_score__min__energy>  (19) 
-9.2400000000000002

>  <m_primary>  (19) 
energy

>  <meeko>  (19) 
{"free_energy": -9.23, "intermolecular_energy": -10.12, "internal_energy": -0.7, "cluster_size": 20, "cluster_id": 1, "rank_in_cluster": 4}

>  <energy>  (19) 
-9.21

>  <cluster_rmsd>  (19) 
0.07

>  <rmsd>  (19) 
271.84

>  <cluster>  (19) 
1

$$$$

     RDKit          3D

 46 50  0  0  0  0  0  0  0  0999 V2000
  141.2120   68.1060  229.0670 C   0  0  0  0  0  0  0  0  0  0  0  0
  140.7260   68.4620  227.6870 C   0  0  0  0  0  0  0  0  0  0  0  0
  140.0200   67.5230  226.9620 C   0  0  0  0  0  0  0  0  0  0  0  0
  139.5430   67.7980  225.6770 C   0  0  0  0  0  0  0  0  0  0  0  0
  139.8120   69.0590  225.1610 C   0  0  0  0  0  0  0  0  0  0  0  0
  140.5210   70.0060  225.8860 C   0  0  0  0  0  0  0  0  0  0  0  0
  140.9860   69.7230  227.1530 C   0  0  0  0  0  0  0  0  0  0  0  0
  140.6240   71.2350  225.0370 C   0  0  0  0  0  0  0  0  0  0  0  0
  139.9000   70.8250  223.8060 C   0  0  0  0  0  0  0  0  0  0  0  0
  139.6930   71.6680  222.6170 C   0  0  0  0  0  0  0  0  0  0  0  0
  139.2440   71.0800  221.4520 C   0  0  0  0  0  0  0  0  0  0  0  0
  139.0440   71.8690  220.3190 C   0  0  0  0  0  0  0  0  0  0  0  0
  139.3130   73.2180  220.4270 C   0  0  0  0  0  0  0  0  0  0  0  0
  139.7620   73.8190  221.5780 C   0  0  0  0  0  0  0  0  0  0  0  0
  140.0210   75.2550  221.6010 C   0  0  0  0  0  0  0  0  0  0  0  0
  140.5940   75.7400  220.5770 O   0  0  0  0  0  0  0  0  0  0  0  0
  139.6680   76.0760  222.6780 N   0  0  0  0  0  0  0  0  0  0  0  0
  139.9270   77.4800  222.6910 C   0  0  0  0  0  0  0  0  0  0  0  0
  138.9390   78.4270  222.8220 C   0  0  0  0  0  0  0  0  0  0  0  0
  139.2480   79.7710  222.8270 C   0  0  0  0  0  0  0  0  0  0  0  0
  140.5750   80.1250  222.6960 C   0  0  0  0  0  0  0  0  0  0  0  0
  141.2280   81.3590  222.6610 C   0  0  0  0  0  0  0  0  0  0  0  0
  142.5500   81.1410  222.5150 N   0  0  0  0  0  0  0  0  0  0  0  0
  142.7770   79.8440  222.4550 N   0  0  0  0  0  0  0  0  0  0  0  0
  141.5910   79.2000  222.5630 C   0  0  0  0  0  0  0  0  0  0  0  0
  141.2540   77.8610  222.5610 C   0  0  0  0  0  0  0  0  0  0  0  0
  139.9500   73.0210  222.6800 C   0  0  0  0  0  0  0  0  0  0  0  0
  139.4620   69.6290  223.8940 N   0  0  0  0  0  0  0  0  0  0  0  0
  140.5636   68.5810  229.8180 H   0  0  0  0  0  0  0  0  0  0  0  0
  141.1830   67.0139  229.1956 H   0  0  0  0  0  0  0  0  0  0  0  0
  142.2445   68.4630  229.1956 H   0  0  0  0  0  0  0  0  0  0  0  0
  139.8282   66.5350  227.4059 H   0  0  0  0  0  0  0  0  0  0  0  0
  138.9799   67.0492  225.1005 H   0  0  0  0  0  0  0  0  0  0  0  0
  141.5481   70.4737  227.7279 H   0  0  0  0  0  0  0  0  0  0  0  0
  140.1365   72.0952  225.5191 H   0  0  0  0  0  0  0  0  0  0  0  0
  141.6586   71.5609  224.8540 H   0  0  0  0  0  0  0  0  0  0  0  0
  139.0456   69.9986  221.4171 H   0  0  0  0  0  0  0  0  0  0  0  0
  138.6854   71.4322  219.3753 H   0  0  0  0  0  0  0  0  0  0  0  0
  139.1589   73.8493  219.5395 H   0  0  0  0  0  0  0  0  0  0  0  0
  139.2000   75.6900  223.5220 H   0  0  0  0  0  0  0  0  0  0  0  0
  137.8908   78.1093  222.9239 H   0  0  0  0  0  0  0  0  0  0  0  0
  138.4633   80.5347  222.9318 H   0  0  0  0  0  0  0  0  0  0  0  0
  140.7444   82.3439  222.7394 H   0  0  0  0  0  0  0  0  0  0  0  0
  143.6830   79.3250  222.3450 H   0  0  0  0  0  0  0  0  0  0  0  0
  142.0380   77.0966  222.4563 H   0  0  0  0  0  0  0  0  0  0  0  0
  140.3085   73.4650  223.6204 H   0  0  0  0  0  0  0  0  0  0  0  0
  1  2  1  0
  2  3  2  0
  3  4  1  0
  4  5  2  0
  5  6  1  0
  6  7  2  0
  6  8  1  0
  8  9  1  0
  9 10  1  0
 10 11  2  0
 11 12  1  0
 12 13  2  0
 13 14  1  0
 14 15  1  0
 15 16  2  0
 15 17  1  0
 17 18  1  0
 18 19  2  0
 19 20  1  0
 20 21  2  0
 21 22  1  0
 22 23  2  0
 23 24  1  0
 24 25  1  0
 25 26  2  0
 14 27  2  0
  9 28  2  0
  7  2  1  0
 27 10  1  0
 28  5  1  0
 26 18  1  0
 25 21  1  0
  1 29  1  0
  1 30  1  0
  1 31  1  0
  3 32  1  0
  4 33  1  0
  7 34  1  0
  8 35  1  0
  8 36  1  0
 11 37  1  0
 12 38  1  0
 13 39  1  0
 17 40  1  0
 19 41  1  0
 20 42  1  0
 22 43  1  0
 24 44  1  0
 26 45  1  0
 27 46  1  0
M  END
>  <smiles>  (20) 
Cc1ccc2c(c1)CC(c1cccc(C(=O)Nc3ccc4cn[nH]c4c3)c1)=N2

>  <score_type>  (20) 
oracle

>  <origin>  (20) 
autodockgpu

>  <m_score__min__energy>  (20) 
-9.2400000000000002

>  <m_primary>  (20) 
energy

>  <meeko>  (20) 
{"free_energy": -9.22, "intermolecular_energy": -10.11, "internal_energy": -0.71, "cluster_size": 20, "cluster_id": 1, "rank_in_cluster": 15}

>  <energy>  (20) 
-8.5

>  <cluster_rmsd>  (20) 
1.55

>  <rmsd>  (20) 
271.92

>  <cluster>  (20) 
1

$$$$
