IETZWVUTNAYKDK-BUHFOSPRNA-N
     RDKit          3D

 63 67  0  0  0  0  0  0  0  0999 V2000
  136.6480   72.6776  222.7180 H   0  0  0  0  0  0  0  0  0  0  0  0
  137.6480   72.2580  222.5340 C   0  0  0  0  0  0  0  0  0  0  0  0
  137.8050   70.9270  222.6220 C   0  0  0  0  0  0  0  0  0  0  0  0
  137.3566   70.2866  221.8481 H   0  0  0  0  0  0  0  0  0  0  0  0
  138.5670   70.2880  223.7340 C   0  0  0  0  0  0  0  0  0  0  0  0
  139.1060   71.1020  224.6820 N   0  0  0  0  0  0  0  0  0  0  0  0
  139.7910   70.6220  225.7430 C   0  0  0  0  0  0  0  0  0  0  0  0
  140.3330   71.5040  226.6860 C   0  0  0  0  0  0  0  0  0  0  0  0
  140.2074   72.5894  226.5589 H   0  0  0  0  0  0  0  0  0  0  0  0
  141.0330   71.0070  227.7880 C   0  0  0  0  0  0  0  0  0  0  0  0
  141.4587   71.7014  228.5273 H   0  0  0  0  0  0  0  0  0  0  0  0
  141.1930   69.6290  227.9520 C   0  0  0  0  0  0  0  0  0  0  0  0
  141.7438   69.2401  228.8211 H   0  0  0  0  0  0  0  0  0  0  0  0
  140.6540   68.7420  227.0130 C   0  0  0  0  0  0  0  0  0  0  0  0
  140.7815   67.6575  227.1453 H   0  0  0  0  0  0  0  0  0  0  0  0
  139.9480   69.2370  225.8980 C   0  0  0  0  0  0  0  0  0  0  0  0
  139.3900   68.3920  224.9250 C   0  0  0  0  0  0  0  0  0  0  0  0
  139.5080   67.1410  225.0610 O   0  0  0  0  0  0  0  0  0  0  0  0
  138.7250   68.9170  223.8380 N   0  0  0  0  0  0  0  0  0  0  0  0
  138.2260   68.0000  222.7830 C   0  0  0  0  0  0  0  0  0  0  0  0
  137.9611   67.0379  223.2458 H   0  0  0  0  0  0  0  0  0  0  0  0
  137.3509   68.4710  222.3115 H   0  0  0  0  0  0  0  0  0  0  0  0
  139.2790   67.7500  221.6850 C   0  0  0  0  0  0  0  0  0  0  0  0
  140.0759   67.1186  222.1049 H   0  0  0  0  0  0  0  0  0  0  0  0
  138.7598   67.2656  220.8449 H   0  0  0  0  0  0  0  0  0  0  0  0
  139.9170   69.0380  221.1380 C   0  0  0  0  0  0  0  0  0  0  0  0
  139.6353   69.8798  221.7876 H   0  0  0  0  0  0  0  0  0  0  0  0
  141.0085   68.9021  221.1228 H   0  0  0  0  0  0  0  0  0  0  0  0
  139.4660   69.3250  219.7560 N   0  0  0  0  0  0  0  0  0  0  0  0
  139.0780   70.7500  219.5640 C   0  0  0  0  0  0  0  0  0  0  0  0
  138.1310   70.7785  219.0051 H   0  0  0  0  0  0  0  0  0  0  0  0
  138.9913   71.1944  220.5665 H   0  0  0  0  0  0  0  0  0  0  0  0
  140.1210   71.5850  218.7940 C   0  0  0  0  0  0  0  0  0  0  0  0
  139.9175   71.5149  217.7153 H   0  0  0  0  0  0  0  0  0  0  0  0
  140.0542   72.6328  219.1223 H   0  0  0  0  0  0  0  0  0  0  0  0
  141.4720   71.0850  219.0650 N   0  0  0  0  0  0  0  0  0  0  0  0
  142.5000   71.9500  219.5840 C   0  0  0  0  0  0  0  0  0  0  0  0
  142.5530   73.3030  219.2030 C   0  0  0  0  0  0  0  0  0  0  0  0
  141.7985   73.7060  218.5114 H   0  0  0  0  0  0  0  0  0  0  0  0
  143.5590   74.1390  219.6980 C   0  0  0  0  0  0  0  0  0  0  0  0
  143.5900   75.1974  219.3999 H   0  0  0  0  0  0  0  0  0  0  0  0
  144.5250   73.6310  220.5710 C   0  0  0  0  0  0  0  0  0  0  0  0
  145.3138   74.2904  220.9621 H   0  0  0  0  0  0  0  0  0  0  0  0
  144.4890   72.2860  220.9470 C   0  0  0  0  0  0  0  0  0  0  0  0
  145.2522   71.8863  221.6310 H   0  0  0  0  0  0  0  0  0  0  0  0
  143.4840   71.4470  220.4550 C   0  0  0  0  0  0  0  0  0  0  0  0
  143.4627   70.3877  220.7507 H   0  0  0  0  0  0  0  0  0  0  0  0
  141.7530   69.6670  218.8200 C   0  0  0  0  0  0  0  0  0  0  0  0
  142.2923   69.5651  217.8667 H   0  0  0  0  0  0  0  0  0  0  0  0
  142.3650   69.2794  219.6477 H   0  0  0  0  0  0  0  0  0  0  0  0
  140.4470   68.8590  218.7500 C   0  0  0  0  0  0  0  0  0  0  0  0
  140.0106   68.9712  217.7465 H   0  0  0  0  0  0  0  0  0  0  0  0
  140.6817   67.8049  218.9593 H   0  0  0  0  0  0  0  0  0  0  0  0
  138.7510   73.1920  222.2020 C   0  0  0  0  0  0  0  0  0  0  0  0
  140.1090   72.8210  222.2620 C   0  0  0  0  0  0  0  0  0  0  0  0
  140.3855   71.7969  222.5530 H   0  0  0  0  0  0  0  0  0  0  0  0
  141.0790   73.7260  221.9610 N   0  0  0  0  0  0  0  0  0  0  0  0
  140.7840   75.0020  221.6010 C   0  0  0  0  0  0  0  0  0  0  0  0
  141.5935   75.7051  221.3551 H   0  0  0  0  0  0  0  0  0  0  0  0
  139.4550   75.4210  221.5430 C   0  0  0  0  0  0  0  0  0  0  0  0
  139.2104   76.4548  221.2575 H   0  0  0  0  0  0  0  0  0  0  0  0
  138.4380   74.5150  221.8510 C   0  0  0  0  0  0  0  0  0  0  0  0
  137.3873   74.8391  221.8185 H   0  0  0  0  0  0  0  0  0  0  0  0
  1  2  1  0
  2  3  2  0
  3  4  1  0
  3  5  1  0
  5  6  2  0
  6  7  1  0
  7  8  2  0
  8  9  1  0
  8 10  1  0
 10 11  1  0
 10 12  2  0
 12 13  1  0
 12 14  1  0
 14 15  1  0
 14 16  2  0
 16 17  1  0
 17 18  2  0
 17 19  1  0
 19 20  1  0
 20 21  1  0
 20 22  1  0
 20 23  1  0
 23 24  1  0
 23 25  1  0
 23 26  1  0
 26 27  1  0
 26 28  1  0
 26 29  1  0
 29 30  1  0
 30 31  1  0
 30 32  1  0
 30 33  1  0
 33 34  1  0
 33 35  1  0
 33 36  1  0
 36 37  1  0
 37 38  2  0
 38 39  1  0
 38 40  1  0
 40 41  1  0
 40 42  2  0
 42 43  1  0
 42 44  1  0
 44 45  1  0
 44 46  2  0
 46 47  1  0
 36 48  1  0
 48 49  1  0
 48 50  1  0
 48 51  1  0
 51 52  1  0
 51 53  1  0
  2 54  1  0
 54 55  2  0
 55 56  1  0
 55 57  1  0
 57 58  2  0
 58 59  1  0
 58 60  1  0
 60 61  1  0
 60 62  2  0
 62 63  1  0
 19  5  1  0
 51 29  1  0
 62 54  1  0
 16  7  1  0
 46 37  1  0
M  END
>  <UniqueID>  (1) 
604

>  <SMILES>  (1) 
O=c1c2ccccc2nc(/C=C/c2cccnc2)n1CCCN1CCN(c2ccccc2)CC1

>  <Energy>  (1) 
89.98523172245278

>  <Genealogy>  (1) 
O=c1c2ccccc2nc(/C=C/c2cccnc2)n1CCCN1CCN(c2ccccc2)CC1 (cis-trans isomerization)
O=c1c2ccccc2nc(/C=C/c2cccnc2)n1CCCN1CCN(c2ccccc2)CC1 (3D coordinates assigned)
O=c1c2ccccc2nc(/C=C/c2cccnc2)n1CCCN1CCN(c2ccccc2)CC1 (nonaromatic ring conformer: 89.98523172245278 kcal/mol)

>  <smiles>  (1) 
O=c1c2ccccc2nc(/C=C/c2cccnc2)n1CCCN1CCN(c2ccccc2)CC1

>  <score_type>  (1) 
oracle

>  <origin>  (1) 
autodockgpu

>  <m_score__min__energy>  (1) 
-9.1400000000000006

>  <m_primary>  (1) 
energy

>  <meeko>  (1) 
{"free_energy": -6.98, "intermolecular_energy": -9.37, "internal_energy": -2.79, "cluster_size": 1, "cluster_id": 7, "rank_in_cluster": 1}

>  <energy>  (1) 
-9.14

>  <cluster_rmsd>  (1) 
0.0

>  <rmsd>  (1) 
270.58

>  <cluster>  (1) 
1

$$$$
IETZWVUTNAYKDK-BUHFOSPRNA-N
     RDKit          3D

 63 67  0  0  0  0  0  0  0  0999 V2000
  135.8966   77.0827  223.8992 H   0  0  0  0  0  0  0  0  0  0  0  0
  136.0910   76.0220  223.6820 C   0  0  0  0  0  0  0  0  0  0  0  0
  136.9570   75.7230  222.7000 C   0  0  0  0  0  0  0  0  0  0  0  0
  136.7029   74.9185  221.9942 H   0  0  0  0  0  0  0  0  0  0  0  0
  138.2520   76.4450  222.5340 C   0  0  0  0  0  0  0  0  0  0  0  0
  138.3600   77.6850  223.0810 N   0  0  0  0  0  0  0  0  0  0  0  0
  139.4970   78.4110  223.0090 C   0  0  0  0  0  0  0  0  0  0  0  0
  139.5520   79.6870  223.5840 C   0  0  0  0  0  0  0  0  0  0  0  0
  138.6664   80.1014  224.0879 H   0  0  0  0  0  0  0  0  0  0  0  0
  140.7310   80.4340  223.5180 C   0  0  0  0  0  0  0  0  0  0  0  0
  140.7724   81.4363  223.9694 H   0  0  0  0  0  0  0  0  0  0  0  0
  141.8580   79.9090  222.8790 C   0  0  0  0  0  0  0  0  0  0  0  0
  142.7856   80.4982  222.8296 H   0  0  0  0  0  0  0  0  0  0  0  0
  141.8080   78.6350  222.3020 C   0  0  0  0  0  0  0  0  0  0  0  0
  142.6959   78.2252  221.7984 H   0  0  0  0  0  0  0  0  0  0  0  0
  140.6220   77.8760  222.3650 C   0  0  0  0  0  0  0  0  0  0  0  0
  140.5170   76.5950  221.8000 C   0  0  0  0  0  0  0  0  0  0  0  0
  141.5280   76.0930  221.2310 O   0  0  0  0  0  0  0  0  0  0  0  0
  139.3310   75.8940  221.8640 N   0  0  0  0  0  0  0  0  0  0  0  0
  139.2290   74.5820  221.1790 C   0  0  0  0  0  0  0  0  0  0  0  0
  138.3747   74.6091  220.4866 H   0  0  0  0  0  0  0  0  0  0  0  0
  140.1730   74.4063  220.6424 H   0  0  0  0  0  0  0  0  0  0  0  0
  139.0260   73.4220  222.1730 C   0  0  0  0  0  0  0  0  0  0  0  0
  139.3625   73.7528  223.1667 H   0  0  0  0  0  0  0  0  0  0  0  0
  137.9561   73.1671  222.1565 H   0  0  0  0  0  0  0  0  0  0  0  0
  139.7990   72.1460  221.7980 C   0  0  0  0  0  0  0  0  0  0  0  0
  140.3075   72.3062  220.8358 H   0  0  0  0  0  0  0  0  0  0  0  0
  140.5265   71.9368  222.5961 H   0  0  0  0  0  0  0  0  0  0  0  0
  138.8950   70.9780  221.6760 N   0  0  0  0  0  0  0  0  0  0  0  0
  139.5690   69.6940  222.0170 C   0  0  0  0  0  0  0  0  0  0  0  0
  139.2995   68.9486  221.2543 H   0  0  0  0  0  0  0  0  0  0  0  0
  140.6493   69.8992  222.0454 H   0  0  0  0  0  0  0  0  0  0  0  0
  139.1850   69.1330  223.4000 C   0  0  0  0  0  0  0  0  0  0  0  0
  138.2950   68.4945  223.2985 H   0  0  0  0  0  0  0  0  0  0  0  0
  140.0269   68.5451  223.7945 H   0  0  0  0  0  0  0  0  0  0  0  0
  138.8910   70.2290  224.3290 N   0  0  0  0  0  0  0  0  0  0  0  0
  139.5900   70.3570  225.5820 C   0  0  0  0  0  0  0  0  0  0  0  0
  140.3760   71.4940  225.8470 C   0  0  0  0  0  0  0  0  0  0  0  0
  140.4503   72.2945  225.0962 H   0  0  0  0  0  0  0  0  0  0  0  0
  141.0630   71.6120  227.0590 C   0  0  0  0  0  0  0  0  0  0  0  0
  141.6703   72.5066  227.2615 H   0  0  0  0  0  0  0  0  0  0  0  0
  140.9790   70.5950  228.0130 C   0  0  0  0  0  0  0  0  0  0  0  0
  141.5181   70.6909  228.9670 H   0  0  0  0  0  0  0  0  0  0  0  0
  140.2110   69.4560  227.7570 C   0  0  0  0  0  0  0  0  0  0  0  0
  140.1490   68.6544  228.5078 H   0  0  0  0  0  0  0  0  0  0  0  0
  139.5210   69.3350  226.5460 C   0  0  0  0  0  0  0  0  0  0  0  0
  138.9208   68.4350  226.3465 H   0  0  0  0  0  0  0  0  0  0  0  0
  137.8800   71.2180  223.9420 C   0  0  0  0  0  0  0  0  0  0  0  0
  136.9387   70.9962  224.4662 H   0  0  0  0  0  0  0  0  0  0  0  0
  138.2425   72.2198  224.2157 H   0  0  0  0  0  0  0  0  0  0  0  0
  137.6340   71.1790  222.4250 C   0  0  0  0  0  0  0  0  0  0  0  0
  136.9462   70.3518  222.1956 H   0  0  0  0  0  0  0  0  0  0  0  0
  137.2017   72.1436  222.1205 H   0  0  0  0  0  0  0  0  0  0  0  0
  135.3830   75.0000  224.4890 C   0  0  0  0  0  0  0  0  0  0  0  0
  134.6910   75.3100  225.6770 C   0  0  0  0  0  0  0  0  0  0  0  0
  134.6515   76.3501  226.0327 H   0  0  0  0  0  0  0  0  0  0  0  0
  134.0720   74.3280  226.3850 N   0  0  0  0  0  0  0  0  0  0  0  0
  134.0990   73.0300  225.9850 C   0  0  0  0  0  0  0  0  0  0  0  0
  133.5791   72.2618  226.5762 H   0  0  0  0  0  0  0  0  0  0  0  0
  134.7850   72.6710  224.8260 C   0  0  0  0  0  0  0  0  0  0  0  0
  134.8155   71.6204  224.5015 H   0  0  0  0  0  0  0  0  0  0  0  0
  135.4330   73.6580  224.0810 C   0  0  0  0  0  0  0  0  0  0  0  0
  135.9851   73.3827  223.1703 H   0  0  0  0  0  0  0  0  0  0  0  0
  1  2  1  0
  2  3  2  0
  3  4  1  0
  3  5  1  0
  5  6  2  0
  6  7  1  0
  7  8  2  0
  8  9  1  0
  8 10  1  0
 10 11  1  0
 10 12  2  0
 12 13  1  0
 12 14  1  0
 14 15  1  0
 14 16  2  0
 16 17  1  0
 17 18  2  0
 17 19  1  0
 19 20  1  0
 20 21  1  0
 20 22  1  0
 20 23  1  0
 23 24  1  0
 23 25  1  0
 23 26  1  0
 26 27  1  0
 26 28  1  0
 26 29  1  0
 29 30  1  0
 30 31  1  0
 30 32  1  0
 30 33  1  0
 33 34  1  0
 33 35  1  0
 33 36  1  0
 36 37  1  0
 37 38  2  0
 38 39  1  0
 38 40  1  0
 40 41  1  0
 40 42  2  0
 42 43  1  0
 42 44  1  0
 44 45  1  0
 44 46  2  0
 46 47  1  0
 36 48  1  0
 48 49  1  0
 48 50  1  0
 48 51  1  0
 51 52  1  0
 51 53  1  0
  2 54  1  0
 54 55  2  0
 55 56  1  0
 55 57  1  0
 57 58  2  0
 58 59  1  0
 58 60  1  0
 60 61  1  0
 60 62  2  0
 62 63  1  0
 19  5  1  0
 51 29  1  0
 62 54  1  0
 16  7  1  0
 46 37  1  0
M  END
>  <UniqueID>  (2) 
604

>  <SMILES>  (2) 
O=c1c2ccccc2nc(/C=C/c2cccnc2)n1CCCN1CCN(c2ccccc2)CC1

>  <Energy>  (2) 
89.98523172245278

>  <Genealogy>  (2) 
O=c1c2ccccc2nc(/C=C/c2cccnc2)n1CCCN1CCN(c2ccccc2)CC1 (cis-trans isomerization)
O=c1c2ccccc2nc(/C=C/c2cccnc2)n1CCCN1CCN(c2ccccc2)CC1 (3D coordinates assigned)
O=c1c2ccccc2nc(/C=C/c2cccnc2)n1CCCN1CCN(c2ccccc2)CC1 (nonaromatic ring conformer: 89.98523172245278 kcal/mol)

>  <smiles>  (2) 
O=c1c2ccccc2nc(/C=C/c2cccnc2)n1CCCN1CCN(c2ccccc2)CC1

>  <score_type>  (2) 
oracle

>  <origin>  (2) 
autodockgpu

>  <m_score__min__energy>  (2) 
-9.1400000000000006

>  <m_primary>  (2) 
energy

>  <meeko>  (2) 
{"free_energy": -8.64, "intermolecular_energy": -11.03, "internal_energy": -1.64, "cluster_size": 2, "cluster_id": 2, "rank_in_cluster": 1}

>  <energy>  (2) 
-9.11

>  <cluster_rmsd>  (2) 
0.82

>  <rmsd>  (2) 
270.76

>  <cluster>  (2) 
1

$$$$
IETZWVUTNAYKDK-BUHFOSPRNA-N
     RDKit          3D

 63 67  0  0  0  0  0  0  0  0999 V2000
  142.3687   79.8857  219.3151 H   0  0  0  0  0  0  0  0  0  0  0  0
  141.7460   79.4740  220.1230 C   0  0  0  0  0  0  0  0  0  0  0  0
  140.9170   78.4590  219.8320 C   0  0  0  0  0  0  0  0  0  0  0  0
  139.9770   78.6753  219.3031 H   0  0  0  0  0  0  0  0  0  0  0  0
  141.2280   77.0470  220.2020 C   0  0  0  0  0  0  0  0  0  0  0  0
  142.4390   76.5480  219.8330 N   0  0  0  0  0  0  0  0  0  0  0  0
  142.8270   75.2920  220.1420 C   0  0  0  0  0  0  0  0  0  0  0  0
  144.0820   74.8250  219.7310 C   0  0  0  0  0  0  0  0  0  0  0  0
  144.7485   75.4795  219.1502 H   0  0  0  0  0  0  0  0  0  0  0  0
  144.4880   73.5290  220.0580 C   0  0  0  0  0  0  0  0  0  0  0  0
  145.4738   73.1639  219.7342 H   0  0  0  0  0  0  0  0  0  0  0  0
  143.6430   72.6960  220.7960 C   0  0  0  0  0  0  0  0  0  0  0  0
  143.9656   71.6763  221.0531 H   0  0  0  0  0  0  0  0  0  0  0  0
  142.3870   73.1560  221.2090 C   0  0  0  0  0  0  0  0  0  0  0  0
  141.7237   72.4974  221.7889 H   0  0  0  0  0  0  0  0  0  0  0  0
  141.9720   74.4630  220.8820 C   0  0  0  0  0  0  0  0  0  0  0  0
  140.7220   74.9730  221.2670 C   0  0  0  0  0  0  0  0  0  0  0  0
  139.9470   74.2440  221.9500 O   0  0  0  0  0  0  0  0  0  0  0  0
  140.3440   76.2500  220.9080 N   0  0  0  0  0  0  0  0  0  0  0  0
  138.9820   76.7260  221.2550 C   0  0  0  0  0  0  0  0  0  0  0  0
  138.7167   77.5585  220.5868 H   0  0  0  0  0  0  0  0  0  0  0  0
  138.2882   75.8807  221.1360 H   0  0  0  0  0  0  0  0  0  0  0  0
  138.8900   77.2120  222.7140 C   0  0  0  0  0  0  0  0  0  0  0  0
  137.9052   76.9279  223.1134 H   0  0  0  0  0  0  0  0  0  0  0  0
  139.7176   76.7394  223.2634 H   0  0  0  0  0  0  0  0  0  0  0  0
  139.0570   78.7330  222.8700 C   0  0  0  0  0  0  0  0  0  0  0  0
  139.8543   78.9314  223.6014 H   0  0  0  0  0  0  0  0  0  0  0  0
  139.3126   79.1537  221.8863 H   0  0  0  0  0  0  0  0  0  0  0  0
  137.8060   79.3740  223.3370 N   0  0  0  0  0  0  0  0  0  0  0  0
  138.0500   80.6640  224.0400 C   0  0  0  0  0  0  0  0  0  0  0  0
  137.4347   80.6827  224.9516 H   0  0  0  0  0  0  0  0  0  0  0  0
  139.1279   80.7099  224.2547 H   0  0  0  0  0  0  0  0  0  0  0  0
  137.7100   81.9100  223.2010 C   0  0  0  0  0  0  0  0  0  0  0  0
  136.6524   82.1719  223.3522 H   0  0  0  0  0  0  0  0  0  0  0  0
  138.3535   82.7431  223.5201 H   0  0  0  0  0  0  0  0  0  0  0  0
  137.9440   81.6440  221.7780 N   0  0  0  0  0  0  0  0  0  0  0  0
  138.8230   82.4740  220.9950 C   0  0  0  0  0  0  0  0  0  0  0  0
  139.2470   82.0570  219.7200 C   0  0  0  0  0  0  0  0  0  0  0  0
  138.8975   81.0959  219.3148 H   0  0  0  0  0  0  0  0  0  0  0  0
  140.1100   82.8570  218.9650 C   0  0  0  0  0  0  0  0  0  0  0  0
  140.4335   82.5264  217.9669 H   0  0  0  0  0  0  0  0  0  0  0  0
  140.5620   84.0760  219.4770 C   0  0  0  0  0  0  0  0  0  0  0  0
  141.2380   84.7060  218.8803 H   0  0  0  0  0  0  0  0  0  0  0  0
  140.1560   84.4950  220.7460 C   0  0  0  0  0  0  0  0  0  0  0  0
  140.5156   85.4531  221.1494 H   0  0  0  0  0  0  0  0  0  0  0  0
  139.2930   83.6980  221.5040 C   0  0  0  0  0  0  0  0  0  0  0  0
  138.9796   84.0303  222.5047 H   0  0  0  0  0  0  0  0  0  0  0  0
  137.2790   80.4880  221.1670 C   0  0  0  0  0  0  0  0  0  0  0  0
  136.4070   80.8346  220.5930 H   0  0  0  0  0  0  0  0  0  0  0  0
  137.9936   79.9781  220.5041 H   0  0  0  0  0  0  0  0  0  0  0  0
  136.8120   79.4980  222.2460 C   0  0  0  0  0  0  0  0  0  0  0  0
  135.8603   79.8527  222.6684 H   0  0  0  0  0  0  0  0  0  0  0  0
  136.6892   78.5103  221.7777 H   0  0  0  0  0  0  0  0  0  0  0  0
  141.8670   80.0700  221.4760 C   0  0  0  0  0  0  0  0  0  0  0  0
  141.7160   81.4500  221.7170 C   0  0  0  0  0  0  0  0  0  0  0  0
  141.4868   82.1306  220.8838 H   0  0  0  0  0  0  0  0  0  0  0  0
  141.8530   81.9430  222.9780 N   0  0  0  0  0  0  0  0  0  0  0  0
  142.1410   81.1400  224.0350 C   0  0  0  0  0  0  0  0  0  0  0  0
  142.2362   81.5706  225.0427 H   0  0  0  0  0  0  0  0  0  0  0  0
  142.3160   79.7700  223.8430 C   0  0  0  0  0  0  0  0  0  0  0  0
  142.5550   79.1162  224.6947 H   0  0  0  0  0  0  0  0  0  0  0  0
  142.1850   79.2360  222.5600 C   0  0  0  0  0  0  0  0  0  0  0  0
  142.3314   78.1580  222.3975 H   0  0  0  0  0  0  0  0  0  0  0  0
  1  2  1  0
  2  3  2  0
  3  4  1  0
  3  5  1  0
  5  6  2  0
  6  7  1  0
  7  8  2  0
  8  9  1  0
  8 10  1  0
 10 11  1  0
 10 12  2  0
 12 13  1  0
 12 14  1  0
 14 15  1  0
 14 16  2  0
 16 17  1  0
 17 18  2  0
 17 19  1  0
 19 20  1  0
 20 21  1  0
 20 22  1  0
 20 23  1  0
 23 24  1  0
 23 25  1  0
 23 26  1  0
 26 27  1  0
 26 28  1  0
 26 29  1  0
 29 30  1  0
 30 31  1  0
 30 32  1  0
 30 33  1  0
 33 34  1  0
 33 35  1  0
 33 36  1  0
 36 37  1  0
 37 38  2  0
 38 39  1  0
 38 40  1  0
 40 41  1  0
 40 42  2  0
 42 43  1  0
 42 44  1  0
 44 45  1  0
 44 46  2  0
 46 47  1  0
 36 48  1  0
 48 49  1  0
 48 50  1  0
 48 51  1  0
 51 52  1  0
 51 53  1  0
  2 54  1  0
 54 55  2  0
 55 56  1  0
 55 57  1  0
 57 58  2  0
 58 59  1  0
 58 60  1  0
 60 61  1  0
 60 62  2  0
 62 63  1  0
 19  5  1  0
 51 29  1  0
 62 54  1  0
 16  7  1  0
 46 37  1  0
M  END
>  <UniqueID>  (3) 
604

>  <SMILES>  (3) 
O=c1c2ccccc2nc(/C=C/c2cccnc2)n1CCCN1CCN(c2ccccc2)CC1

>  <Energy>  (3) 
89.98523172245278

>  <Genealogy>  (3) 
O=c1c2ccccc2nc(/C=C/c2cccnc2)n1CCCN1CCN(c2ccccc2)CC1 (cis-trans isomerization)
O=c1c2ccccc2nc(/C=C/c2cccnc2)n1CCCN1CCN(c2ccccc2)CC1 (3D coordinates assigned)
O=c1c2ccccc2nc(/C=C/c2cccnc2)n1CCCN1CCN(c2ccccc2)CC1 (nonaromatic ring conformer: 89.98523172245278 kcal/mol)

>  <smiles>  (3) 
O=c1c2ccccc2nc(/C=C/c2cccnc2)n1CCCN1CCN(c2ccccc2)CC1

>  <score_type>  (3) 
oracle

>  <origin>  (3) 
autodockgpu

>  <m_score__min__energy>  (3) 
-9.1400000000000006

>  <m_primary>  (3) 
energy

>  <meeko>  (3) 
{"free_energy": -6.57, "intermolecular_energy": -8.96, "internal_energy": -3.03, "cluster_size": 1, "cluster_id": 8, "rank_in_cluster": 1}

>  <energy>  (3) 
-9.01

>  <cluster_rmsd>  (3) 
0.27

>  <rmsd>  (3) 
270.5

>  <cluster>  (3) 
1

$$$$
IETZWVUTNAYKDK-BUHFOSPRNA-N
     RDKit          3D

 63 67  0  0  0  0  0  0  0  0999 V2000
  142.7271   71.7031  218.3788 H   0  0  0  0  0  0  0  0  0  0  0  0
  143.5100   71.5490  219.1360 C   0  0  0  0  0  0  0  0  0  0  0  0
  143.8890   72.6000  219.8820 C   0  0  0  0  0  0  0  0  0  0  0  0
  144.9557   72.7266  220.1188 H   0  0  0  0  0  0  0  0  0  0  0  0
  142.9120   73.6010  220.4000 C   0  0  0  0  0  0  0  0  0  0  0  0
  143.0930   74.9030  220.0480 N   0  0  0  0  0  0  0  0  0  0  0  0
  142.2510   75.8820  220.4430 C   0  0  0  0  0  0  0  0  0  0  0  0
  142.4870   77.2080  220.0580 C   0  0  0  0  0  0  0  0  0  0  0  0
  143.3633   77.4530  219.4399 H   0  0  0  0  0  0  0  0  0  0  0  0
  141.6110   78.2190  220.4580 C   0  0  0  0  0  0  0  0  0  0  0  0
  141.7992   79.2598  220.1557 H   0  0  0  0  0  0  0  0  0  0  0  0
  140.4950   77.9110  221.2420 C   0  0  0  0  0  0  0  0  0  0  0  0
  139.8059   78.7093  221.5548 H   0  0  0  0  0  0  0  0  0  0  0  0
  140.2540   76.5880  221.6290 C   0  0  0  0  0  0  0  0  0  0  0  0
  139.3754   76.3479  222.2458 H   0  0  0  0  0  0  0  0  0  0  0  0
  141.1350   75.5620  221.2300 C   0  0  0  0  0  0  0  0  0  0  0  0
  140.9410   74.2200  221.5940 C   0  0  0  0  0  0  0  0  0  0  0  0
  139.9300   73.9140  222.2880 O   0  0  0  0  0  0  0  0  0  0  0  0
  141.8380   73.2500  221.2000 N   0  0  0  0  0  0  0  0  0  0  0  0
  141.6520   71.8570  221.6770 C   0  0  0  0  0  0  0  0  0  0  0  0
  142.6033   71.3154  221.5690 H   0  0  0  0  0  0  0  0  0  0  0  0
  141.3332   71.8996  222.7289 H   0  0  0  0  0  0  0  0  0  0  0  0
  140.5630   71.1110  220.8820 C   0  0  0  0  0  0  0  0  0  0  0  0
  139.7598   71.8228  220.6408 H   0  0  0  0  0  0  0  0  0  0  0  0
  141.0449   70.7019  219.9818 H   0  0  0  0  0  0  0  0  0  0  0  0
  139.9480   69.9240  221.6420 C   0  0  0  0  0  0  0  0  0  0  0  0
  140.0111   69.0249  221.0114 H   0  0  0  0  0  0  0  0  0  0  0  0
  140.5088   69.7868  222.5783 H   0  0  0  0  0  0  0  0  0  0  0  0
  138.5280   70.1730  221.9840 N   0  0  0  0  0  0  0  0  0  0  0  0
  137.8650   68.9820  222.5840 C   0  0  0  0  0  0  0  0  0  0  0  0
  136.8795   68.8598  222.1109 H   0  0  0  0  0  0  0  0  0  0  0  0
  138.5300   68.1241  222.4056 H   0  0  0  0  0  0  0  0  0  0  0  0
  137.6620   69.0790  224.1080 C   0  0  0  0  0  0  0  0  0  0  0  0
  136.6970   69.5644  224.3155 H   0  0  0  0  0  0  0  0  0  0  0  0
  137.6734   68.0658  224.5361 H   0  0  0  0  0  0  0  0  0  0  0  0
  138.7400   69.8660  224.7150 N   0  0  0  0  0  0  0  0  0  0  0  0
  139.5570   69.3280  225.7720 C   0  0  0  0  0  0  0  0  0  0  0  0
  139.8710   67.9560  225.8030 C   0  0  0  0  0  0  0  0  0  0  0  0
  139.4984   67.2916  225.0094 H   0  0  0  0  0  0  0  0  0  0  0  0
  140.6540   67.4330  226.8370 C   0  0  0  0  0  0  0  0  0  0  0  0
  140.8999   66.3609  226.8515 H   0  0  0  0  0  0  0  0  0  0  0  0
  141.1240   68.2700  227.8510 C   0  0  0  0  0  0  0  0  0  0  0  0
  141.7422   67.8571  228.6618 H   0  0  0  0  0  0  0  0  0  0  0  0
  140.8100   69.6310  227.8370 C   0  0  0  0  0  0  0  0  0  0  0  0
  141.1783   70.2881  228.6386 H   0  0  0  0  0  0  0  0  0  0  0  0
  140.0280   70.1590  226.8050 C   0  0  0  0  0  0  0  0  0  0  0  0
  139.7796   71.2306  226.8008 H   0  0  0  0  0  0  0  0  0  0  0  0
  138.9900   71.2170  224.2020 C   0  0  0  0  0  0  0  0  0  0  0  0
  138.5476   71.9523  224.8902 H   0  0  0  0  0  0  0  0  0  0  0  0
  140.0765   71.3713  224.1260 H   0  0  0  0  0  0  0  0  0  0  0  0
  138.3670   71.3920  222.8080 C   0  0  0  0  0  0  0  0  0  0  0  0
  137.2943   71.6080  222.9206 H   0  0  0  0  0  0  0  0  0  0  0  0
  138.8828   72.2211  222.3015 H   0  0  0  0  0  0  0  0  0  0  0  0
  144.0910   70.1920  219.2790 C   0  0  0  0  0  0  0  0  0  0  0  0
  145.4800   69.9590  219.3220 C   0  0  0  0  0  0  0  0  0  0  0  0
  146.1801   70.8053  219.2616 H   0  0  0  0  0  0  0  0  0  0  0  0
  145.9580   68.6900  219.4380 N   0  0  0  0  0  0  0  0  0  0  0  0
  145.1290   67.6160  219.5110 C   0  0  0  0  0  0  0  0  0  0  0  0
  145.5480   66.6041  219.6135 H   0  0  0  0  0  0  0  0  0  0  0  0
  143.7470   67.7960  219.4560 C   0  0  0  0  0  0  0  0  0  0  0  0
  143.0717   66.9293  219.5091 H   0  0  0  0  0  0  0  0  0  0  0  0
  143.2290   69.0860  219.3330 C   0  0  0  0  0  0  0  0  0  0  0  0
  142.1407   69.2364  219.2781 H   0  0  0  0  0  0  0  0  0  0  0  0
  1  2  1  0
  2  3  2  0
  3  4  1  0
  3  5  1  0
  5  6  2  0
  6  7  1  0
  7  8  2  0
  8  9  1  0
  8 10  1  0
 10 11  1  0
 10 12  2  0
 12 13  1  0
 12 14  1  0
 14 15  1  0
 14 16  2  0
 16 17  1  0
 17 18  2  0
 17 19  1  0
 19 20  1  0
 20 21  1  0
 20 22  1  0
 20 23  1  0
 23 24  1  0
 23 25  1  0
 23 26  1  0
 26 27  1  0
 26 28  1  0
 26 29  1  0
 29 30  1  0
 30 31  1  0
 30 32  1  0
 30 33  1  0
 33 34  1  0
 33 35  1  0
 33 36  1  0
 36 37  1  0
 37 38  2  0
 38 39  1  0
 38 40  1  0
 40 41  1  0
 40 42  2  0
 42 43  1  0
 42 44  1  0
 44 45  1  0
 44 46  2  0
 46 47  1  0
 36 48  1  0
 48 49  1  0
 48 50  1  0
 48 51  1  0
 51 52  1  0
 51 53  1  0
  2 54  1  0
 54 55  2  0
 55 56  1  0
 55 57  1  0
 57 58  2  0
 58 59  1  0
 58 60  1  0
 60 61  1  0
 60 62  2  0
 62 63  1  0
 19  5  1  0
 51 29  1  0
 62 54  1  0
 16  7  1  0
 46 37  1  0
M  END
>  <UniqueID>  (4) 
604

>  <SMILES>  (4) 
O=c1c2ccccc2nc(/C=C/c2cccnc2)n1CCCN1CCN(c2ccccc2)CC1

>  <Energy>  (4) 
89.98523172245278

>  <Genealogy>  (4) 
O=c1c2ccccc2nc(/C=C/c2cccnc2)n1CCCN1CCN(c2ccccc2)CC1 (cis-trans isomerization)
O=c1c2ccccc2nc(/C=C/c2cccnc2)n1CCCN1CCN(c2ccccc2)CC1 (3D coordinates assigned)
O=c1c2ccccc2nc(/C=C/c2cccnc2)n1CCCN1CCN(c2ccccc2)CC1 (nonaromatic ring conformer: 89.98523172245278 kcal/mol)

>  <smiles>  (4) 
O=c1c2ccccc2nc(/C=C/c2cccnc2)n1CCCN1CCN(c2ccccc2)CC1

>  <score_type>  (4) 
oracle

>  <origin>  (4) 
autodockgpu

>  <m_score__min__energy>  (4) 
-9.1400000000000006

>  <m_primary>  (4) 
energy

>  <meeko>  (4) 
{"free_energy": -8.11, "intermolecular_energy": -10.5, "internal_energy": -1.61, "cluster_size": 1, "cluster_id": 5, "rank_in_cluster": 1}

>  <energy>  (4) 
-8.88

>  <cluster_rmsd>  (4) 
0.72

>  <rmsd>  (4) 
270.47

>  <cluster>  (4) 
1

$$$$
IETZWVUTNAYKDK-BUHFOSPRNA-N
     RDKit          3D

 63 67  0  0  0  0  0  0  0  0999 V2000
  134.3898   76.2007  222.8185 H   0  0  0  0  0  0  0  0  0  0  0  0
  134.9260   75.2570  222.9970 C   0  0  0  0  0  0  0  0  0  0  0  0
  135.8880   74.8990  222.1310 C   0  0  0  0  0  0  0  0  0  0  0  0
  135.6431   74.1876  221.3285 H   0  0  0  0  0  0  0  0  0  0  0  0
  137.2780   75.4340  222.2210 C   0  0  0  0  0  0  0  0  0  0  0  0
  137.4340   76.7360  222.5790 N   0  0  0  0  0  0  0  0  0  0  0  0
  138.6500   77.3090  222.7140 C   0  0  0  0  0  0  0  0  0  0  0  0
  138.7540   78.6570  223.0780 C   0  0  0  0  0  0  0  0  0  0  0  0
  137.8445   79.2522  223.2469 H   0  0  0  0  0  0  0  0  0  0  0  0
  140.0120   79.2470  223.2270 C   0  0  0  0  0  0  0  0  0  0  0  0
  140.0915   80.3064  223.5123 H   0  0  0  0  0  0  0  0  0  0  0  0
  141.1690   78.4930  223.0140 C   0  0  0  0  0  0  0  0  0  0  0  0
  142.1581   78.9594  223.1326 H   0  0  0  0  0  0  0  0  0  0  0  0
  141.0710   77.1450  222.6500 C   0  0  0  0  0  0  0  0  0  0  0  0
  141.9833   76.5536  222.4830 H   0  0  0  0  0  0  0  0  0  0  0  0
  139.8050   76.5440  222.4970 C   0  0  0  0  0  0  0  0  0  0  0  0
  139.6510   75.1980  222.1300 C   0  0  0  0  0  0  0  0  0  0  0  0
  140.6830   74.4910  221.9480 O   0  0  0  0  0  0  0  0  0  0  0  0
  138.3940   74.6530  221.9700 N   0  0  0  0  0  0  0  0  0  0  0  0
  138.2670   73.2530  221.4940 C   0  0  0  0  0  0  0  0  0  0  0  0
  137.3383   73.1593  220.9121 H   0  0  0  0  0  0  0  0  0  0  0  0
  139.1492   73.0236  220.8783 H   0  0  0  0  0  0  0  0  0  0  0  0
  138.2270   72.2450  222.6590 C   0  0  0  0  0  0  0  0  0  0  0  0
  139.0441   71.5216  222.5207 H   0  0  0  0  0  0  0  0  0  0  0  0
  138.3319   72.8235  223.5887 H   0  0  0  0  0  0  0  0  0  0  0  0
  136.9030   71.4690  222.7590 C   0  0  0  0  0  0  0  0  0  0  0  0
  136.4710   71.6272  223.7582 H   0  0  0  0  0  0  0  0  0  0  0  0
  136.2263   71.8404  221.9753 H   0  0  0  0  0  0  0  0  0  0  0  0
  137.1050   70.0170  222.5470 N   0  0  0  0  0  0  0  0  0  0  0  0
  138.5350   69.6620  222.3300 C   0  0  0  0  0  0  0  0  0  0  0  0
  138.5929   68.9618  221.4836 H   0  0  0  0  0  0  0  0  0  0  0  0
  139.0709   70.6034  222.1388 H   0  0  0  0  0  0  0  0  0  0  0  0
  139.2100   69.0050  223.5490 C   0  0  0  0  0  0  0  0  0  0  0  0
  139.0630   67.9159  223.5022 H   0  0  0  0  0  0  0  0  0  0  0  0
  140.2843   69.2407  223.5339 H   0  0  0  0  0  0  0  0  0  0  0  0
  138.6260   69.5190  224.7910 N   0  0  0  0  0  0  0  0  0  0  0  0
  139.4440   70.1270  225.8090 C   0  0  0  0  0  0  0  0  0  0  0  0
  140.2420   71.2470  225.5080 C   0  0  0  0  0  0  0  0  0  0  0  0
  140.2336   71.6668  224.4913 H   0  0  0  0  0  0  0  0  0  0  0  0
  141.0450   71.8290  226.4930 C   0  0  0  0  0  0  0  0  0  0  0  0
  141.6610   72.7077  226.2513 H   0  0  0  0  0  0  0  0  0  0  0  0
  141.0660   71.2960  227.7840 C   0  0  0  0  0  0  0  0  0  0  0  0
  141.6964   71.7569  228.5587 H   0  0  0  0  0  0  0  0  0  0  0  0
  140.2870   70.1780  228.0920 C   0  0  0  0  0  0  0  0  0  0  0  0
  140.3076   69.7572  229.1081 H   0  0  0  0  0  0  0  0  0  0  0  0
  139.4810   69.5930  227.1100 C   0  0  0  0  0  0  0  0  0  0  0  0
  138.8726   68.7103  227.3563 H   0  0  0  0  0  0  0  0  0  0  0  0
  137.1730   69.4260  224.9700 C   0  0  0  0  0  0  0  0  0  0  0  0
  136.9441   68.5786  225.6329 H   0  0  0  0  0  0  0  0  0  0  0  0
  136.8098   70.3651  225.4130 H   0  0  0  0  0  0  0  0  0  0  0  0
  136.4730   69.2130  223.6180 C   0  0  0  0  0  0  0  0  0  0  0  0
  136.5330   68.1483  223.3483 H   0  0  0  0  0  0  0  0  0  0  0  0
  135.4254   69.5334  223.7175 H   0  0  0  0  0  0  0  0  0  0  0  0
  134.5480   74.4480  224.1810 C   0  0  0  0  0  0  0  0  0  0  0  0
  134.2450   75.0220  225.4310 C   0  0  0  0  0  0  0  0  0  0  0  0
  134.2719   76.1148  225.5534 H   0  0  0  0  0  0  0  0  0  0  0  0
  133.9190   74.2290  226.4880 N   0  0  0  0  0  0  0  0  0  0  0  0
  133.8780   72.8750  226.3820 C   0  0  0  0  0  0  0  0  0  0  0  0
  133.6017   72.2636  227.2537 H   0  0  0  0  0  0  0  0  0  0  0  0
  134.1860   72.2600  225.1690 C   0  0  0  0  0  0  0  0  0  0  0  0
  134.1598   71.1640  225.0796 H   0  0  0  0  0  0  0  0  0  0  0  0
  134.5280   73.0490  224.0690 C   0  0  0  0  0  0  0  0  0  0  0  0
  134.7827   72.5724  223.1109 H   0  0  0  0  0  0  0  0  0  0  0  0
  1  2  1  0
  2  3  2  0
  3  4  1  0
  3  5  1  0
  5  6  2  0
  6  7  1  0
  7  8  2  0
  8  9  1  0
  8 10  1  0
 10 11  1  0
 10 12  2  0
 12 13  1  0
 12 14  1  0
 14 15  1  0
 14 16  2  0
 16 17  1  0
 17 18  2  0
 17 19  1  0
 19 20  1  0
 20 21  1  0
 20 22  1  0
 20 23  1  0
 23 24  1  0
 23 25  1  0
 23 26  1  0
 26 27  1  0
 26 28  1  0
 26 29  1  0
 29 30  1  0
 30 31  1  0
 30 32  1  0
 30 33  1  0
 33 34  1  0
 33 35  1  0
 33 36  1  0
 36 37  1  0
 37 38  2  0
 38 39  1  0
 38 40  1  0
 40 41  1  0
 40 42  2  0
 42 43  1  0
 42 44  1  0
 44 45  1  0
 44 46  2  0
 46 47  1  0
 36 48  1  0
 48 49  1  0
 48 50  1  0
 48 51  1  0
 51 52  1  0
 51 53  1  0
  2 54  1  0
 54 55  2  0
 55 56  1  0
 55 57  1  0
 57 58  2  0
 58 59  1  0
 58 60  1  0
 60 61  1  0
 60 62  2  0
 62 63  1  0
 19  5  1  0
 51 29  1  0
 62 54  1  0
 16  7  1  0
 46 37  1  0
M  END
>  <UniqueID>  (5) 
604

>  <SMILES>  (5) 
O=c1c2ccccc2nc(/C=C/c2cccnc2)n1CCCN1CCN(c2ccccc2)CC1

>  <Energy>  (5) 
89.98523172245278

>  <Genealogy>  (5) 
O=c1c2ccccc2nc(/C=C/c2cccnc2)n1CCCN1CCN(c2ccccc2)CC1 (cis-trans isomerization)
O=c1c2ccccc2nc(/C=C/c2cccnc2)n1CCCN1CCN(c2ccccc2)CC1 (3D coordinates assigned)
O=c1c2ccccc2nc(/C=C/c2cccnc2)n1CCCN1CCN(c2ccccc2)CC1 (nonaromatic ring conformer: 89.98523172245278 kcal/mol)

>  <smiles>  (5) 
O=c1c2ccccc2nc(/C=C/c2cccnc2)n1CCCN1CCN(c2ccccc2)CC1

>  <score_type>  (5) 
oracle

>  <origin>  (5) 
autodockgpu

>  <m_score__min__energy>  (5) 
-9.1400000000000006

>  <m_primary>  (5) 
energy

>  <meeko>  (5) 
{"free_energy": -8.3, "intermolecular_energy": -10.69, "internal_energy": -2.01, "cluster_size": 2, "cluster_id": 2, "rank_in_cluster": 2}

>  <energy>  (5) 
-8.86

>  <cluster_rmsd>  (5) 
0.63

>  <rmsd>  (5) 
270.51

>  <cluster>  (5) 
1

$$$$
IETZWVUTNAYKDK-BUHFOSPRNA-N
     RDKit          3D

 63 67  0  0  0  0  0  0  0  0999 V2000
  143.9072   75.6271  217.3096 H   0  0  0  0  0  0  0  0  0  0  0  0
  143.4770   75.1100  218.1800 C   0  0  0  0  0  0  0  0  0  0  0  0
  142.1700   75.2800  218.4380 C   0  0  0  0  0  0  0  0  0  0  0  0
  141.4326   74.9328  217.6993 H   0  0  0  0  0  0  0  0  0  0  0  0
  141.6850   75.9240  219.6930 C   0  0  0  0  0  0  0  0  0  0  0  0
  142.0670   77.2070  219.9350 N   0  0  0  0  0  0  0  0  0  0  0  0
  141.6620   77.8880  221.0290 C   0  0  0  0  0  0  0  0  0  0  0  0
  142.0910   79.2050  221.2330 C   0  0  0  0  0  0  0  0  0  0  0  0
  142.7643   79.6827  220.5061 H   0  0  0  0  0  0  0  0  0  0  0  0
  141.6640   79.9130  222.3600 C   0  0  0  0  0  0  0  0  0  0  0  0
  142.0030   80.9472  222.5199 H   0  0  0  0  0  0  0  0  0  0  0  0
  140.8070   79.3090  223.2840 C   0  0  0  0  0  0  0  0  0  0  0  0
  140.4715   79.8691  224.1693 H   0  0  0  0  0  0  0  0  0  0  0  0
  140.3750   77.9930  223.0850 C   0  0  0  0  0  0  0  0  0  0  0  0
  139.7008   77.5198  223.8141 H   0  0  0  0  0  0  0  0  0  0  0  0
  140.8030   77.2730  221.9510 C   0  0  0  0  0  0  0  0  0  0  0  0
  140.4030   75.9490  221.7060 C   0  0  0  0  0  0  0  0  0  0  0  0
  139.6150   75.3870  222.5190 O   0  0  0  0  0  0  0  0  0  0  0  0
  140.8610   75.2720  220.5950 N   0  0  0  0  0  0  0  0  0  0  0  0
  140.4900   73.8470  220.4130 C   0  0  0  0  0  0  0  0  0  0  0  0
  139.4070   73.7394  220.5729 H   0  0  0  0  0  0  0  0  0  0  0  0
  140.7747   73.5510  219.3925 H   0  0  0  0  0  0  0  0  0  0  0  0
  141.2320   72.9230  221.3990 C   0  0  0  0  0  0  0  0  0  0  0  0
  141.6301   72.0644  220.8383 H   0  0  0  0  0  0  0  0  0  0  0  0
  142.0268   73.5226  221.8667 H   0  0  0  0  0  0  0  0  0  0  0  0
  140.3410   72.3910  222.5350 C   0  0  0  0  0  0  0  0  0  0  0  0
  140.9660   71.8320  223.2470 H   0  0  0  0  0  0  0  0  0  0  0  0
  139.8592   73.2497  223.0253 H   0  0  0  0  0  0  0  0  0  0  0  0
  139.2790   71.4950  222.0210 N   0  0  0  0  0  0  0  0  0  0  0  0
  139.7180   70.0740  221.9390 C   0  0  0  0  0  0  0  0  0  0  0  0
  139.3925   69.6668  220.9704 H   0  0  0  0  0  0  0  0  0  0  0  0
  140.8120   70.0718  222.0534 H   0  0  0  0  0  0  0  0  0  0  0  0
  139.1510   69.1770  223.0570 C   0  0  0  0  0  0  0  0  0  0  0  0
  138.1831   68.7647  222.7358 H   0  0  0  0  0  0  0  0  0  0  0  0
  139.8609   68.3605  223.2556 H   0  0  0  0  0  0  0  0  0  0  0  0
  138.9620   69.9540  224.2850 N   0  0  0  0  0  0  0  0  0  0  0  0
  139.5770   69.5560  225.5250 C   0  0  0  0  0  0  0  0  0  0  0  0
  140.0910   70.5240  226.4080 C   0  0  0  0  0  0  0  0  0  0  0  0
  140.0143   71.5915  226.1541 H   0  0  0  0  0  0  0  0  0  0  0  0
  140.6990   70.1360  227.6070 C   0  0  0  0  0  0  0  0  0  0  0  0
  141.0938   70.8982  228.2949 H   0  0  0  0  0  0  0  0  0  0  0  0
  140.8050   68.7810  227.9310 C   0  0  0  0  0  0  0  0  0  0  0  0
  141.2810   68.4775  228.8751 H   0  0  0  0  0  0  0  0  0  0  0  0
  140.3070   67.8110  227.0570 C   0  0  0  0  0  0  0  0  0  0  0  0
  140.3941   66.7446  227.3123 H   0  0  0  0  0  0  0  0  0  0  0  0
  139.6980   68.1950  225.8580 C   0  0  0  0  0  0  0  0  0  0  0  0
  139.3112   67.4278  225.1712 H   0  0  0  0  0  0  0  0  0  0  0  0
  138.1480   71.1730  224.2220 C   0  0  0  0  0  0  0  0  0  0  0  0
  137.1476   70.9607  224.6270 H   0  0  0  0  0  0  0  0  0  0  0  0
  138.6402   71.9585  224.8143 H   0  0  0  0  0  0  0  0  0  0  0  0
  138.0120   71.6600  222.7700 C   0  0  0  0  0  0  0  0  0  0  0  0
  137.2232   71.0785  222.2704 H   0  0  0  0  0  0  0  0  0  0  0  0
  137.7583   72.7302  222.7874 H   0  0  0  0  0  0  0  0  0  0  0  0
  144.3710   74.2630  219.0050 C   0  0  0  0  0  0  0  0  0  0  0  0
  145.1340   73.2080  218.4660 C   0  0  0  0  0  0  0  0  0  0  0  0
  145.0885   72.9933  217.3881 H   0  0  0  0  0  0  0  0  0  0  0  0
  145.9270   72.4540  219.2750 N   0  0  0  0  0  0  0  0  0  0  0  0
  146.0090   72.6800  220.6120 C   0  0  0  0  0  0  0  0  0  0  0  0
  146.6669   72.0568  221.2355 H   0  0  0  0  0  0  0  0  0  0  0  0
  145.2600   73.7010  221.1940 C   0  0  0  0  0  0  0  0  0  0  0  0
  145.3187   73.8846  222.2770 H   0  0  0  0  0  0  0  0  0  0  0  0
  144.4340   74.4890  220.3890 C   0  0  0  0  0  0  0  0  0  0  0  0
  143.8306   75.2898  220.8414 H   0  0  0  0  0  0  0  0  0  0  0  0
  1  2  1  0
  2  3  2  0
  3  4  1  0
  3  5  1  0
  5  6  2  0
  6  7  1  0
  7  8  2  0
  8  9  1  0
  8 10  1  0
 10 11  1  0
 10 12  2  0
 12 13  1  0
 12 14  1  0
 14 15  1  0
 14 16  2  0
 16 17  1  0
 17 18  2  0
 17 19  1  0
 19 20  1  0
 20 21  1  0
 20 22  1  0
 20 23  1  0
 23 24  1  0
 23 25  1  0
 23 26  1  0
 26 27  1  0
 26 28  1  0
 26 29  1  0
 29 30  1  0
 30 31  1  0
 30 32  1  0
 30 33  1  0
 33 34  1  0
 33 35  1  0
 33 36  1  0
 36 37  1  0
 37 38  2  0
 38 39  1  0
 38 40  1  0
 40 41  1  0
 40 42  2  0
 42 43  1  0
 42 44  1  0
 44 45  1  0
 44 46  2  0
 46 47  1  0
 36 48  1  0
 48 49  1  0
 48 50  1  0
 48 51  1  0
 51 52  1  0
 51 53  1  0
  2 54  1  0
 54 55  2  0
 55 56  1  0
 55 57  1  0
 57 58  2  0
 58 59  1  0
 58 60  1  0
 60 61  1  0
 60 62  2  0
 62 63  1  0
 19  5  1  0
 51 29  1  0
 62 54  1  0
 16  7  1  0
 46 37  1  0
M  END
>  <UniqueID>  (6) 
604

>  <SMILES>  (6) 
O=c1c2ccccc2nc(/C=C/c2cccnc2)n1CCCN1CCN(c2ccccc2)CC1

>  <Energy>  (6) 
89.98523172245278

>  <Genealogy>  (6) 
O=c1c2ccccc2nc(/C=C/c2cccnc2)n1CCCN1CCN(c2ccccc2)CC1 (cis-trans isomerization)
O=c1c2ccccc2nc(/C=C/c2cccnc2)n1CCCN1CCN(c2ccccc2)CC1 (3D coordinates assigned)
O=c1c2ccccc2nc(/C=C/c2cccnc2)n1CCCN1CCN(c2ccccc2)CC1 (nonaromatic ring conformer: 89.98523172245278 kcal/mol)

>  <smiles>  (6) 
O=c1c2ccccc2nc(/C=C/c2cccnc2)n1CCCN1CCN(c2ccccc2)CC1

>  <score_type>  (6) 
oracle

>  <origin>  (6) 
autodockgpu

>  <m_score__min__energy>  (6) 
-9.1400000000000006

>  <m_primary>  (6) 
energy

>  <meeko>  (6) 
{"free_energy": -9.01, "intermolecular_energy": -11.39, "internal_energy": -1.7, "cluster_size": 10, "cluster_id": 1, "rank_in_cluster": 3}

>  <energy>  (6) 
-8.67

>  <cluster_rmsd>  (6) 
1.65

>  <rmsd>  (6) 
270.28

>  <cluster>  (6) 
1

$$$$
IETZWVUTNAYKDK-BUHFOSPRNA-N
     RDKit          3D

 63 67  0  0  0  0  0  0  0  0999 V2000
  139.2273   76.6721  222.5833 H   0  0  0  0  0  0  0  0  0  0  0  0
  140.0540   76.8800  221.8880 C   0  0  0  0  0  0  0  0  0  0  0  0
  140.2020   76.0800  220.8200 C   0  0  0  0  0  0  0  0  0  0  0  0
  139.5482   76.2307  219.9483 H   0  0  0  0  0  0  0  0  0  0  0  0
  141.2230   74.9940  220.7760 C   0  0  0  0  0  0  0  0  0  0  0  0
  142.5270   75.3560  220.6380 N   0  0  0  0  0  0  0  0  0  0  0  0
  143.5300   74.4510  220.6120 C   0  0  0  0  0  0  0  0  0  0  0  0
  144.8560   74.8770  220.4610 C   0  0  0  0  0  0  0  0  0  0  0  0
  145.0799   75.9488  220.3557 H   0  0  0  0  0  0  0  0  0  0  0  0
  145.8940   73.9430  220.4440 C   0  0  0  0  0  0  0  0  0  0  0  0
  146.9343   74.2795  220.3235 H   0  0  0  0  0  0  0  0  0  0  0  0
  145.6120   72.5810  220.5800 C   0  0  0  0  0  0  0  0  0  0  0  0
  146.4311   71.8469  220.5676 H   0  0  0  0  0  0  0  0  0  0  0  0
  144.2890   72.1490  220.7320 C   0  0  0  0  0  0  0  0  0  0  0  0
  144.0705   71.0762  220.8391 H   0  0  0  0  0  0  0  0  0  0  0  0
  143.2370   73.0860  220.7480 C   0  0  0  0  0  0  0  0  0  0  0  0
  141.8930   72.7070  220.8940 C   0  0  0  0  0  0  0  0  0  0  0  0
  141.6150   71.4820  221.0350 O   0  0  0  0  0  0  0  0  0  0  0  0
  140.8910   73.6540  220.8840 N   0  0  0  0  0  0  0  0  0  0  0  0
  139.4760   73.2110  220.9490 C   0  0  0  0  0  0  0  0  0  0  0  0
  138.8260   74.0623  220.6985 H   0  0  0  0  0  0  0  0  0  0  0  0
  139.3465   72.3856  220.2335 H   0  0  0  0  0  0  0  0  0  0  0  0
  139.0950   72.6900  222.3480 C   0  0  0  0  0  0  0  0  0  0  0  0
  139.8234   71.9201  222.6423 H   0  0  0  0  0  0  0  0  0  0  0  0
  139.1025   73.5555  223.0268 H   0  0  0  0  0  0  0  0  0  0  0  0
  137.6860   72.0770  222.4160 C   0  0  0  0  0  0  0  0  0  0  0  0
  137.2659   72.2582  223.4163 H   0  0  0  0  0  0  0  0  0  0  0  0
  137.0676   72.5494  221.6385 H   0  0  0  0  0  0  0  0  0  0  0  0
  137.7130   70.6170  222.1630 N   0  0  0  0  0  0  0  0  0  0  0  0
  139.0970   70.0710  222.1100 C   0  0  0  0  0  0  0  0  0  0  0  0
  139.1690   69.3947  221.2455 H   0  0  0  0  0  0  0  0  0  0  0  0
  139.7761   70.9328  222.0317 H   0  0  0  0  0  0  0  0  0  0  0  0
  139.5120   69.2900  223.3720 C   0  0  0  0  0  0  0  0  0  0  0  0
  139.2258   68.2342  223.2561 H   0  0  0  0  0  0  0  0  0  0  0  0
  140.6011   69.3724  223.5025 H   0  0  0  0  0  0  0  0  0  0  0  0
  138.8460   69.8450  224.5540 N   0  0  0  0  0  0  0  0  0  0  0  0
  139.6010   70.3010  225.6940 C   0  0  0  0  0  0  0  0  0  0  0  0
  140.4300   71.4340  225.5920 C   0  0  0  0  0  0  0  0  0  0  0  0
  140.4952   71.9801  224.6394 H   0  0  0  0  0  0  0  0  0  0  0  0
  141.1710   71.8690  226.6950 C   0  0  0  0  0  0  0  0  0  0  0  0
  141.8128   72.7583  226.6096 H   0  0  0  0  0  0  0  0  0  0  0  0
  141.0970   71.1750  227.9060 C   0  0  0  0  0  0  0  0  0  0  0  0
  141.6786   71.5198  228.7736 H   0  0  0  0  0  0  0  0  0  0  0  0
  140.2850   70.0440  228.0150 C   0  0  0  0  0  0  0  0  0  0  0  0
  140.2299   69.4975  228.9681 H   0  0  0  0  0  0  0  0  0  0  0  0
  139.5420   69.6050  226.9150 C   0  0  0  0  0  0  0  0  0  0  0  0
  138.9080   68.7106  227.0048 H   0  0  0  0  0  0  0  0  0  0  0  0
  137.3840   69.9530  224.5450 C   0  0  0  0  0  0  0  0  0  0  0  0
  136.9573   69.1277  225.1339 H   0  0  0  0  0  0  0  0  0  0  0  0
  137.0981   70.9211  224.9819 H   0  0  0  0  0  0  0  0  0  0  0  0
  136.8430   69.8800  223.1080 C   0  0  0  0  0  0  0  0  0  0  0  0
  136.7914   68.8257  222.7985 H   0  0  0  0  0  0  0  0  0  0  0  0
  135.8450   70.3422  223.0908 H   0  0  0  0  0  0  0  0  0  0  0  0
  140.9450   78.0290  222.1810 C   0  0  0  0  0  0  0  0  0  0  0  0
  141.5090   78.2510  223.4520 C   0  0  0  0  0  0  0  0  0  0  0  0
  141.3024   77.5494  224.2737 H   0  0  0  0  0  0  0  0  0  0  0  0
  142.3090   79.3310  223.6670 N   0  0  0  0  0  0  0  0  0  0  0  0
  142.5850   80.2250  222.6830 C   0  0  0  0  0  0  0  0  0  0  0  0
  143.2425   81.0826  222.8884 H   0  0  0  0  0  0  0  0  0  0  0  0
  142.0360   80.0570  221.4130 C   0  0  0  0  0  0  0  0  0  0  0  0
  142.2522   80.7819  220.6144 H   0  0  0  0  0  0  0  0  0  0  0  0
  141.2090   78.9600  221.1640 C   0  0  0  0  0  0  0  0  0  0  0  0
  140.7628   78.8248  220.1677 H   0  0  0  0  0  0  0  0  0  0  0  0
  1  2  1  0
  2  3  2  0
  3  4  1  0
  3  5  1  0
  5  6  2  0
  6  7  1  0
  7  8  2  0
  8  9  1  0
  8 10  1  0
 10 11  1  0
 10 12  2  0
 12 13  1  0
 12 14  1  0
 14 15  1  0
 14 16  2  0
 16 17  1  0
 17 18  2  0
 17 19  1  0
 19 20  1  0
 20 21  1  0
 20 22  1  0
 20 23  1  0
 23 24  1  0
 23 25  1  0
 23 26  1  0
 26 27  1  0
 26 28  1  0
 26 29  1  0
 29 30  1  0
 30 31  1  0
 30 32  1  0
 30 33  1  0
 33 34  1  0
 33 35  1  0
 33 36  1  0
 36 37  1  0
 37 38  2  0
 38 39  1  0
 38 40  1  0
 40 41  1  0
 40 42  2  0
 42 43  1  0
 42 44  1  0
 44 45  1  0
 44 46  2  0
 46 47  1  0
 36 48  1  0
 48 49  1  0
 48 50  1  0
 48 51  1  0
 51 52  1  0
 51 53  1  0
  2 54  1  0
 54 55  2  0
 55 56  1  0
 55 57  1  0
 57 58  2  0
 58 59  1  0
 58 60  1  0
 60 61  1  0
 60 62  2  0
 62 63  1  0
 19  5  1  0
 51 29  1  0
 62 54  1  0
 16  7  1  0
 46 37  1  0
M  END
>  <UniqueID>  (7) 
604

>  <SMILES>  (7) 
O=c1c2ccccc2nc(/C=C/c2cccnc2)n1CCCN1CCN(c2ccccc2)CC1

>  <Energy>  (7) 
89.98523172245278

>  <Genealogy>  (7) 
O=c1c2ccccc2nc(/C=C/c2cccnc2)n1CCCN1CCN(c2ccccc2)CC1 (cis-trans isomerization)
O=c1c2ccccc2nc(/C=C/c2cccnc2)n1CCCN1CCN(c2ccccc2)CC1 (3D coordinates assigned)
O=c1c2ccccc2nc(/C=C/c2cccnc2)n1CCCN1CCN(c2ccccc2)CC1 (nonaromatic ring conformer: 89.98523172245278 kcal/mol)

>  <smiles>  (7) 
O=c1c2ccccc2nc(/C=C/c2cccnc2)n1CCCN1CCN(c2ccccc2)CC1

>  <score_type>  (7) 
oracle

>  <origin>  (7) 
autodockgpu

>  <m_score__min__energy>  (7) 
-9.1400000000000006

>  <m_primary>  (7) 
energy

>  <meeko>  (7) 
{"free_energy": -8.47, "intermolecular_energy": -10.86, "internal_energy": -1.77, "cluster_size": 10, "cluster_id": 1, "rank_in_cluster": 9}

>  <energy>  (7) 
-8.59

>  <cluster_rmsd>  (7) 
1.59

>  <rmsd>  (7) 
270.22

>  <cluster>  (7) 
1

$$$$
IETZWVUTNAYKDK-BUHFOSPRNA-N
     RDKit          3D

 63 67  0  0  0  0  0  0  0  0999 V2000
  143.2567   70.2729  220.3649 H   0  0  0  0  0  0  0  0  0  0  0  0
  143.1440   71.3470  220.1560 C   0  0  0  0  0  0  0  0  0  0  0  0
  141.9050   71.8350  219.9870 C   0  0  0  0  0  0  0  0  0  0  0  0
  141.1543   71.2143  219.4760 H   0  0  0  0  0  0  0  0  0  0  0  0
  141.5120   73.1910  220.4690 C   0  0  0  0  0  0  0  0  0  0  0  0
  142.1280   74.2660  219.9070 N   0  0  0  0  0  0  0  0  0  0  0  0
  141.8260   75.5360  220.2540 C   0  0  0  0  0  0  0  0  0  0  0  0
  142.4960   76.6060  219.6500 C   0  0  0  0  0  0  0  0  0  0  0  0
  143.2737   76.4124  218.8966 H   0  0  0  0  0  0  0  0  0  0  0  0
  142.1780   77.9200  220.0030 C   0  0  0  0  0  0  0  0  0  0  0  0
  142.7075   78.7598  219.5294 H   0  0  0  0  0  0  0  0  0  0  0  0
  141.1880   78.1680  220.9570 C   0  0  0  0  0  0  0  0  0  0  0  0
  140.9376   79.2035  221.2310 H   0  0  0  0  0  0  0  0  0  0  0  0
  140.5140   77.1030  221.5650 C   0  0  0  0  0  0  0  0  0  0  0  0
  139.7357   77.3022  222.3164 H   0  0  0  0  0  0  0  0  0  0  0  0
  140.8320   75.7750  221.2150 C   0  0  0  0  0  0  0  0  0  0  0  0
  140.1900   74.6690  221.7960 C   0  0  0  0  0  0  0  0  0  0  0  0
  139.2800   74.8700  222.6500 O   0  0  0  0  0  0  0  0  0  0  0  0
  140.5460   73.3850  221.4410 N   0  0  0  0  0  0  0  0  0  0  0  0
  139.9100   72.2400  222.1400 C   0  0  0  0  0  0  0  0  0  0  0  0
  140.5873   71.3746  222.0912 H   0  0  0  0  0  0  0  0  0  0  0  0
  139.7212   72.5421  223.1807 H   0  0  0  0  0  0  0  0  0  0  0  0
  138.5600   71.8500  221.5080 C   0  0  0  0  0  0  0  0  0  0  0  0
  138.1524   72.7297  220.9884 H   0  0  0  0  0  0  0  0  0  0  0  0
  138.7553   71.0119  220.8228 H   0  0  0  0  0  0  0  0  0  0  0  0
  137.5180   71.3630  222.5300 C   0  0  0  0  0  0  0  0  0  0  0  0
  137.8162   71.7014  223.5333 H   0  0  0  0  0  0  0  0  0  0  0  0
  136.5394   71.7805  222.2505 H   0  0  0  0  0  0  0  0  0  0  0  0
  137.4090   69.8850  222.5330 N   0  0  0  0  0  0  0  0  0  0  0  0
  138.7370   69.2120  222.5110 C   0  0  0  0  0  0  0  0  0  0  0  0
  138.6988   68.3957  221.7746 H   0  0  0  0  0  0  0  0  0  0  0  0
  139.4793   69.9816  222.2526 H   0  0  0  0  0  0  0  0  0  0  0  0
  139.1630   68.6200  223.8690 C   0  0  0  0  0  0  0  0  0  0  0  0
  138.7832   67.5910  223.9517 H   0  0  0  0  0  0  0  0  0  0  0  0
  140.2612   68.6220  223.9321 H   0  0  0  0  0  0  0  0  0  0  0  0
  138.6200   69.4260  224.9670 N   0  0  0  0  0  0  0  0  0  0  0  0
  139.4780   69.9970  225.9730 C   0  0  0  0  0  0  0  0  0  0  0  0
  139.5870   69.3960  227.2410 C   0  0  0  0  0  0  0  0  0  0  0  0
  139.0214   68.4787  227.4617 H   0  0  0  0  0  0  0  0  0  0  0  0
  140.4100   69.9580  228.2220 C   0  0  0  0  0  0  0  0  0  0  0  0
  140.4931   69.4803  229.2094 H   0  0  0  0  0  0  0  0  0  0  0  0
  141.1270   71.1260  227.9490 C   0  0  0  0  0  0  0  0  0  0  0  0
  141.7775   71.5646  228.7200 H   0  0  0  0  0  0  0  0  0  0  0  0
  141.0180   71.7370  226.6970 C   0  0  0  0  0  0  0  0  0  0  0  0
  141.5796   72.6587  226.4847 H   0  0  0  0  0  0  0  0  0  0  0  0
  140.1960   71.1780  225.7140 C   0  0  0  0  0  0  0  0  0  0  0  0
  140.1103   71.6652  224.7315 H   0  0  0  0  0  0  0  0  0  0  0  0
  137.1730   69.6650  225.0080 C   0  0  0  0  0  0  0  0  0  0  0  0
  136.7166   68.9928  225.7494 H   0  0  0  0  0  0  0  0  0  0  0  0
  136.9950   70.7146  225.2849 H   0  0  0  0  0  0  0  0  0  0  0  0
  136.5410   69.4020  223.6310 C   0  0  0  0  0  0  0  0  0  0  0  0
  136.3825   68.3201  223.5115 H   0  0  0  0  0  0  0  0  0  0  0  0
  135.5864   69.9462  223.5804 H   0  0  0  0  0  0  0  0  0  0  0  0
  144.3690   72.1790  220.0760 C   0  0  0  0  0  0  0  0  0  0  0  0
  145.1310   72.3020  218.8970 C   0  0  0  0  0  0  0  0  0  0  0  0
  144.8157   71.7775  217.9830 H   0  0  0  0  0  0  0  0  0  0  0  0
  146.2560   73.0680  218.8860 N   0  0  0  0  0  0  0  0  0  0  0  0
  146.6840   73.7290  219.9930 C   0  0  0  0  0  0  0  0  0  0  0  0
  147.5926   74.3474  219.9470 H   0  0  0  0  0  0  0  0  0  0  0  0
  145.9720   73.6240  221.1880 C   0  0  0  0  0  0  0  0  0  0  0  0
  146.3175   74.1523  222.0888 H   0  0  0  0  0  0  0  0  0  0  0  0
  144.8170   72.8420  221.2290 C   0  0  0  0  0  0  0  0  0  0  0  0
  144.2550   72.7447  222.1696 H   0  0  0  0  0  0  0  0  0  0  0  0
  1  2  1  0
  2  3  2  0
  3  4  1  0
  3  5  1  0
  5  6  2  0
  6  7  1  0
  7  8  2  0
  8  9  1  0
  8 10  1  0
 10 11  1  0
 10 12  2  0
 12 13  1  0
 12 14  1  0
 14 15  1  0
 14 16  2  0
 16 17  1  0
 17 18  2  0
 17 19  1  0
 19 20  1  0
 20 21  1  0
 20 22  1  0
 20 23  1  0
 23 24  1  0
 23 25  1  0
 23 26  1  0
 26 27  1  0
 26 28  1  0
 26 29  1  0
 29 30  1  0
 30 31  1  0
 30 32  1  0
 30 33  1  0
 33 34  1  0
 33 35  1  0
 33 36  1  0
 36 37  1  0
 37 38  2  0
 38 39  1  0
 38 40  1  0
 40 41  1  0
 40 42  2  0
 42 43  1  0
 42 44  1  0
 44 45  1  0
 44 46  2  0
 46 47  1  0
 36 48  1  0
 48 49  1  0
 48 50  1  0
 48 51  1  0
 51 52  1  0
 51 53  1  0
  2 54  1  0
 54 55  2  0
 55 56  1  0
 55 57  1  0
 57 58  2  0
 58 59  1  0
 58 60  1  0
 60 61  1  0
 60 62  2  0
 62 63  1  0
 19  5  1  0
 51 29  1  0
 62 54  1  0
 16  7  1  0
 46 37  1  0
M  END
>  <UniqueID>  (8) 
604

>  <SMILES>  (8) 
O=c1c2ccccc2nc(/C=C/c2cccnc2)n1CCCN1CCN(c2ccccc2)CC1

>  <Energy>  (8) 
89.98523172245278

>  <Genealogy>  (8) 
O=c1c2ccccc2nc(/C=C/c2cccnc2)n1CCCN1CCN(c2ccccc2)CC1 (cis-trans isomerization)
O=c1c2ccccc2nc(/C=C/c2cccnc2)n1CCCN1CCN(c2ccccc2)CC1 (3D coordinates assigned)
O=c1c2ccccc2nc(/C=C/c2cccnc2)n1CCCN1CCN(c2ccccc2)CC1 (nonaromatic ring conformer: 89.98523172245278 kcal/mol)

>  <smiles>  (8) 
O=c1c2ccccc2nc(/C=C/c2cccnc2)n1CCCN1CCN(c2ccccc2)CC1

>  <score_type>  (8) 
oracle

>  <origin>  (8) 
autodockgpu

>  <m_score__min__energy>  (8) 
-9.1400000000000006

>  <m_primary>  (8) 
energy

>  <meeko>  (8) 
{"free_energy": -8.59, "intermolecular_energy": -10.97, "internal_energy": -1.9, "cluster_size": 10, "cluster_id": 1, "rank_in_cluster": 7}

>  <energy>  (8) 
-8.5

>  <cluster_rmsd>  (8) 
1.83

>  <rmsd>  (8) 
270.71

>  <cluster>  (8) 
1

$$$$
IETZWVUTNAYKDK-BUHFOSPRNA-N
     RDKit          3D

 63 67  0  0  0  0  0  0  0  0999 V2000
  137.4391   71.7430  221.5472 H   0  0  0  0  0  0  0  0  0  0  0  0
  138.4840   71.9400  221.8290 C   0  0  0  0  0  0  0  0  0  0  0  0
  139.2770   70.8910  222.1020 C   0  0  0  0  0  0  0  0  0  0  0  0
  139.7625   70.3603  221.2697 H   0  0  0  0  0  0  0  0  0  0  0  0
  139.5210   70.4220  223.4970 C   0  0  0  0  0  0  0  0  0  0  0  0
  140.1030   71.2920  224.3660 N   0  0  0  0  0  0  0  0  0  0  0  0
  140.3430   70.9740  225.6560 C   0  0  0  0  0  0  0  0  0  0  0  0
  140.9520   71.9060  226.5070 C   0  0  0  0  0  0  0  0  0  0  0  0
  141.2412   72.8950  226.1220 H   0  0  0  0  0  0  0  0  0  0  0  0
  141.1920   71.5800  227.8440 C   0  0  0  0  0  0  0  0  0  0  0  0
  141.6704   72.3126  228.5106 H   0  0  0  0  0  0  0  0  0  0  0  0
  140.8250   70.3240  228.3360 C   0  0  0  0  0  0  0  0  0  0  0  0
  141.0145   70.0703  229.3894 H   0  0  0  0  0  0  0  0  0  0  0  0
  140.2170   69.3890  227.4910 C   0  0  0  0  0  0  0  0  0  0  0  0
  139.9290   68.4016  227.8811 H   0  0  0  0  0  0  0  0  0  0  0  0
  139.9730   69.7110  226.1400 C   0  0  0  0  0  0  0  0  0  0  0  0
  139.3690   68.8090  225.2490 C   0  0  0  0  0  0  0  0  0  0  0  0
  139.0130   67.6730  225.6750 O   0  0  0  0  0  0  0  0  0  0  0  0
  139.1670   69.1550  223.9300 N   0  0  0  0  0  0  0  0  0  0  0  0
  138.6100   68.1470  222.9950 C   0  0  0  0  0  0  0  0  0  0  0  0
  139.1002   68.2620  222.0170 H   0  0  0  0  0  0  0  0  0  0  0  0
  138.7971   67.1506  223.4218 H   0  0  0  0  0  0  0  0  0  0  0  0
  137.0880   68.3040  222.8090 C   0  0  0  0  0  0  0  0  0  0  0  0
  136.8942   68.6060  221.7692 H   0  0  0  0  0  0  0  0  0  0  0  0
  136.6314   67.3340  223.0553 H   0  0  0  0  0  0  0  0  0  0  0  0
  136.4570   69.3500  223.7450 C   0  0  0  0  0  0  0  0  0  0  0  0
  137.1233   69.5069  224.6060 H   0  0  0  0  0  0  0  0  0  0  0  0
  136.3223   70.2828  223.1778 H   0  0  0  0  0  0  0  0  0  0  0  0
  135.1310   68.9110  224.2370 N   0  0  0  0  0  0  0  0  0  0  0  0
  134.8970   69.2800  225.6610 C   0  0  0  0  0  0  0  0  0  0  0  0
  134.4669   68.4094  226.1778 H   0  0  0  0  0  0  0  0  0  0  0  0
  135.8704   69.5806  226.0760 H   0  0  0  0  0  0  0  0  0  0  0  0
  133.9430   70.4760  225.8500 C   0  0  0  0  0  0  0  0  0  0  0  0
  132.9074   70.1092  225.9052 H   0  0  0  0  0  0  0  0  0  0  0  0
  134.2064   71.0009  226.7801 H   0  0  0  0  0  0  0  0  0  0  0  0
  134.0670   71.4070  224.7250 N   0  0  0  0  0  0  0  0  0  0  0  0
  134.3880   72.7950  224.9330 C   0  0  0  0  0  0  0  0  0  0  0  0
  135.3990   73.4150  224.1740 C   0  0  0  0  0  0  0  0  0  0  0  0
  135.9411   72.8378  223.4105 H   0  0  0  0  0  0  0  0  0  0  0  0
  135.7180   74.7600  224.3850 C   0  0  0  0  0  0  0  0  0  0  0  0
  136.5048   75.2391  223.7838 H   0  0  0  0  0  0  0  0  0  0  0  0
  135.0380   75.4960  225.3590 C   0  0  0  0  0  0  0  0  0  0  0  0
  135.2879   76.5548  225.5219 H   0  0  0  0  0  0  0  0  0  0  0  0
  134.0410   74.8880  226.1260 C   0  0  0  0  0  0  0  0  0  0  0  0
  133.5096   75.4675  226.8953 H   0  0  0  0  0  0  0  0  0  0  0  0
  133.7180   73.5440  225.9170 C   0  0  0  0  0  0  0  0  0  0  0  0
  132.9347   73.0692  226.5261 H   0  0  0  0  0  0  0  0  0  0  0  0
  133.8820   70.8870  223.3660 C   0  0  0  0  0  0  0  0  0  0  0  0
  132.8750   71.1525  223.0118 H   0  0  0  0  0  0  0  0  0  0  0  0
  134.6464   71.3302  222.7108 H   0  0  0  0  0  0  0  0  0  0  0  0
  134.0380   69.3580  223.3430 C   0  0  0  0  0  0  0  0  0  0  0  0
  133.0952   68.8974  223.6730 H   0  0  0  0  0  0  0  0  0  0  0  0
  134.2847   69.0514  222.3158 H   0  0  0  0  0  0  0  0  0  0  0  0
  138.9410   73.3490  221.8870 C   0  0  0  0  0  0  0  0  0  0  0  0
  140.3040   73.7080  221.9100 C   0  0  0  0  0  0  0  0  0  0  0  0
  141.0777   72.9270  221.8721 H   0  0  0  0  0  0  0  0  0  0  0  0
  140.6650   75.0180  221.9790 N   0  0  0  0  0  0  0  0  0  0  0  0
  139.7440   76.0140  222.0330 C   0  0  0  0  0  0  0  0  0  0  0  0
  140.0713   77.0631  222.0799 H   0  0  0  0  0  0  0  0  0  0  0  0
  138.3830   75.7080  222.0290 C   0  0  0  0  0  0  0  0  0  0  0  0
  137.6327   76.5110  222.0774 H   0  0  0  0  0  0  0  0  0  0  0  0
  137.9830   74.3720  221.9630 C   0  0  0  0  0  0  0  0  0  0  0  0
  136.9123   74.1200  221.9706 H   0  0  0  0  0  0  0  0  0  0  0  0
  1  2  1  0
  2  3  2  0
  3  4  1  0
  3  5  1  0
  5  6  2  0
  6  7  1  0
  7  8  2  0
  8  9  1  0
  8 10  1  0
 10 11  1  0
 10 12  2  0
 12 13  1  0
 12 14  1  0
 14 15  1  0
 14 16  2  0
 16 17  1  0
 17 18  2  0
 17 19  1  0
 19 20  1  0
 20 21  1  0
 20 22  1  0
 20 23  1  0
 23 24  1  0
 23 25  1  0
 23 26  1  0
 26 27  1  0
 26 28  1  0
 26 29  1  0
 29 30  1  0
 30 31  1  0
 30 32  1  0
 30 33  1  0
 33 34  1  0
 33 35  1  0
 33 36  1  0
 36 37  1  0
 37 38  2  0
 38 39  1  0
 38 40  1  0
 40 41  1  0
 40 42  2  0
 42 43  1  0
 42 44  1  0
 44 45  1  0
 44 46  2  0
 46 47  1  0
 36 48  1  0
 48 49  1  0
 48 50  1  0
 48 51  1  0
 51 52  1  0
 51 53  1  0
  2 54  1  0
 54 55  2  0
 55 56  1  0
 55 57  1  0
 57 58  2  0
 58 59  1  0
 58 60  1  0
 60 61  1  0
 60 62  2  0
 62 63  1  0
 19  5  1  0
 51 29  1  0
 62 54  1  0
 16  7  1  0
 46 37  1  0
M  END
>  <UniqueID>  (9) 
604

>  <SMILES>  (9) 
O=c1c2ccccc2nc(/C=C/c2cccnc2)n1CCCN1CCN(c2ccccc2)CC1

>  <Energy>  (9) 
89.98523172245278

>  <Genealogy>  (9) 
O=c1c2ccccc2nc(/C=C/c2cccnc2)n1CCCN1CCN(c2ccccc2)CC1 (cis-trans isomerization)
O=c1c2ccccc2nc(/C=C/c2cccnc2)n1CCCN1CCN(c2ccccc2)CC1 (3D coordinates assigned)
O=c1c2ccccc2nc(/C=C/c2cccnc2)n1CCCN1CCN(c2ccccc2)CC1 (nonaromatic ring conformer: 89.98523172245278 kcal/mol)

>  <smiles>  (9) 
O=c1c2ccccc2nc(/C=C/c2cccnc2)n1CCCN1CCN(c2ccccc2)CC1

>  <score_type>  (9) 
oracle

>  <origin>  (9) 
autodockgpu

>  <m_score__min__energy>  (9) 
-9.1400000000000006

>  <m_primary>  (9) 
energy

>  <meeko>  (9) 
{"free_energy": -8.49, "intermolecular_energy": -10.88, "internal_energy": -2.32, "cluster_size": 3, "cluster_id": 3, "rank_in_cluster": 1}

>  <energy>  (9) 
-8.47

>  <cluster_rmsd>  (9) 
1.82

>  <rmsd>  (9) 
270.69

>  <cluster>  (9) 
1

$$$$
IETZWVUTNAYKDK-BUHFOSPRNA-N
     RDKit          3D

 63 67  0  0  0  0  0  0  0  0999 V2000
  143.9575   75.8248  217.4583 H   0  0  0  0  0  0  0  0  0  0  0  0
  143.5230   75.2380  218.2810 C   0  0  0  0  0  0  0  0  0  0  0  0
  142.2150   75.3860  218.5460 C   0  0  0  0  0  0  0  0  0  0  0  0
  141.4795   74.9759  217.8383 H   0  0  0  0  0  0  0  0  0  0  0  0
  141.7260   76.0880  219.7680 C   0  0  0  0  0  0  0  0  0  0  0  0
  142.0020   77.4140  219.8910 N   0  0  0  0  0  0  0  0  0  0  0  0
  141.5820   78.1460  220.9460 C   0  0  0  0  0  0  0  0  0  0  0  0
  141.9010   79.5070  221.0270 C   0  0  0  0  0  0  0  0  0  0  0  0
  142.5003   79.9789  220.2345 H   0  0  0  0  0  0  0  0  0  0  0  0
  141.4590   80.2660  222.1130 C   0  0  0  0  0  0  0  0  0  0  0  0
  141.7112   81.3349  222.1755 H   0  0  0  0  0  0  0  0  0  0  0  0
  140.6960   79.6680  223.1210 C   0  0  0  0  0  0  0  0  0  0  0  0
  140.3475   80.2679  223.9746 H   0  0  0  0  0  0  0  0  0  0  0  0
  140.3750   78.3080  223.0460 C   0  0  0  0  0  0  0  0  0  0  0  0
  139.7755   77.8403  223.8409 H   0  0  0  0  0  0  0  0  0  0  0  0
  140.8190   77.5370  221.9530 C   0  0  0  0  0  0  0  0  0  0  0  0
  140.5280   76.1690  221.8300 C   0  0  0  0  0  0  0  0  0  0  0  0
  139.8260   75.6100  222.7210 O   0  0  0  0  0  0  0  0  0  0  0  0
  140.9990   75.4440  220.7560 N   0  0  0  0  0  0  0  0  0  0  0  0
  140.7500   73.9820  220.7030 C   0  0  0  0  0  0  0  0  0  0  0  0
  141.1772   73.5830  219.7712 H   0  0  0  0  0  0  0  0  0  0  0  0
  141.2218   73.5259  221.5859 H   0  0  0  0  0  0  0  0  0  0  0  0
  139.2460   73.6480  220.7430 C   0  0  0  0  0  0  0  0  0  0  0  0
  138.6800   74.5907  220.7134 H   0  0  0  0  0  0  0  0  0  0  0  0
  139.0362   73.0052  219.8754 H   0  0  0  0  0  0  0  0  0  0  0  0
  138.8200   72.8650  221.9960 C   0  0  0  0  0  0  0  0  0  0  0  0
  139.6597   72.8438  222.7062 H   0  0  0  0  0  0  0  0  0  0  0  0
  137.9462   73.3683  222.4355 H   0  0  0  0  0  0  0  0  0  0  0  0
  138.4350   71.4730  221.6650 N   0  0  0  0  0  0  0  0  0  0  0  0
  139.5800   70.5260  221.7480 C   0  0  0  0  0  0  0  0  0  0  0  0
  139.5564   69.8762  220.8607 H   0  0  0  0  0  0  0  0  0  0  0  0
  140.4939   71.1358  221.8025 H   0  0  0  0  0  0  0  0  0  0  0  0
  139.5650   69.6320  223.0040 C   0  0  0  0  0  0  0  0  0  0  0  0
  138.9884   68.7193  222.7932 H   0  0  0  0  0  0  0  0  0  0  0  0
  140.5998   69.3702  223.2700 H   0  0  0  0  0  0  0  0  0  0  0  0
  138.9490   70.3450  224.1270 N   0  0  0  0  0  0  0  0  0  0  0  0
  139.6470   70.5250  225.3740 C   0  0  0  0  0  0  0  0  0  0  0  0
  140.5720   71.5750  225.5280 C   0  0  0  0  0  0  0  0  0  0  0  0
  140.7558   72.2686  224.6943 H   0  0  0  0  0  0  0  0  0  0  0  0
  141.2580   71.7410  226.7340 C   0  0  0  0  0  0  0  0  0  0  0  0
  141.9749   72.5674  226.8485 H   0  0  0  0  0  0  0  0  0  0  0  0
  141.0350   70.8590  227.7950 C   0  0  0  0  0  0  0  0  0  0  0  0
  141.5736   70.9933  228.7447 H   0  0  0  0  0  0  0  0  0  0  0  0
  140.1280   69.8070  227.6490 C   0  0  0  0  0  0  0  0  0  0  0  0
  139.9559   69.1108  228.4831 H   0  0  0  0  0  0  0  0  0  0  0  0
  139.4380   69.6370  226.4440 C   0  0  0  0  0  0  0  0  0  0  0  0
  138.7281   68.8041  226.3330 H   0  0  0  0  0  0  0  0  0  0  0  0
  137.6040   70.9010  223.9470 C   0  0  0  0  0  0  0  0  0  0  0  0
  136.8713   70.2381  224.4305 H   0  0  0  0  0  0  0  0  0  0  0  0
  137.5708   71.9019  224.4020 H   0  0  0  0  0  0  0  0  0  0  0  0
  137.2640   71.0250  222.4530 C   0  0  0  0  0  0  0  0  0  0  0  0
  136.9354   70.0442  222.0787 H   0  0  0  0  0  0  0  0  0  0  0  0
  136.4663   71.7741  222.3418 H   0  0  0  0  0  0  0  0  0  0  0  0
  144.4130   74.3250  219.0390 C   0  0  0  0  0  0  0  0  0  0  0  0
  145.1550   73.2980  218.4220 C   0  0  0  0  0  0  0  0  0  0  0  0
  145.0961   73.1580  217.3325 H   0  0  0  0  0  0  0  0  0  0  0  0
  145.9440   72.4790  219.1690 N   0  0  0  0  0  0  0  0  0  0  0  0
  146.0430   72.6140  220.5170 C   0  0  0  0  0  0  0  0  0  0  0  0
  146.6979   71.9412  221.0901 H   0  0  0  0  0  0  0  0  0  0  0  0
  145.3150   73.6050  221.1750 C   0  0  0  0  0  0  0  0  0  0  0  0
  145.3870   73.7143  222.2672 H   0  0  0  0  0  0  0  0  0  0  0  0
  144.4940   74.4570  220.4340 C   0  0  0  0  0  0  0  0  0  0  0  0
  143.9082   75.2349  220.9455 H   0  0  0  0  0  0  0  0  0  0  0  0
  1  2  1  0
  2  3  2  0
  3  4  1  0
  3  5  1  0
  5  6  2  0
  6  7  1  0
  7  8  2  0
  8  9  1  0
  8 10  1  0
 10 11  1  0
 10 12  2  0
 12 13  1  0
 12 14  1  0
 14 15  1  0
 14 16  2  0
 16 17  1  0
 17 18  2  0
 17 19  1  0
 19 20  1  0
 20 21  1  0
 20 22  1  0
 20 23  1  0
 23 24  1  0
 23 25  1  0
 23 26  1  0
 26 27  1  0
 26 28  1  0
 26 29  1  0
 29 30  1  0
 30 31  1  0
 30 32  1  0
 30 33  1  0
 33 34  1  0
 33 35  1  0
 33 36  1  0
 36 37  1  0
 37 38  2  0
 38 39  1  0
 38 40  1  0
 40 41  1  0
 40 42  2  0
 42 43  1  0
 42 44  1  0
 44 45  1  0
 44 46  2  0
 46 47  1  0
 36 48  1  0
 48 49  1  0
 48 50  1  0
 48 51  1  0
 51 52  1  0
 51 53  1  0
  2 54  1  0
 54 55  2  0
 55 56  1  0
 55 57  1  0
 57 58  2  0
 58 59  1  0
 58 60  1  0
 60 61  1  0
 60 62  2  0
 62 63  1  0
 19  5  1  0
 51 29  1  0
 62 54  1  0
 16  7  1  0
 46 37  1  0
M  END
>  <UniqueID>  (10) 
604

>  <SMILES>  (10) 
O=c1c2ccccc2nc(/C=C/c2cccnc2)n1CCCN1CCN(c2ccccc2)CC1

>  <Energy>  (10) 
89.98523172245278

>  <Genealogy>  (10) 
O=c1c2ccccc2nc(/C=C/c2cccnc2)n1CCCN1CCN(c2ccccc2)CC1 (cis-trans isomerization)
O=c1c2ccccc2nc(/C=C/c2cccnc2)n1CCCN1CCN(c2ccccc2)CC1 (3D coordinates assigned)
O=c1c2ccccc2nc(/C=C/c2cccnc2)n1CCCN1CCN(c2ccccc2)CC1 (nonaromatic ring conformer: 89.98523172245278 kcal/mol)

>  <smiles>  (10) 
O=c1c2ccccc2nc(/C=C/c2cccnc2)n1CCCN1CCN(c2ccccc2)CC1

>  <score_type>  (10) 
oracle

>  <origin>  (10) 
autodockgpu

>  <m_score__min__energy>  (10) 
-9.1400000000000006

>  <m_primary>  (10) 
energy

>  <meeko>  (10) 
{"free_energy": -8.88, "intermolecular_energy": -11.26, "internal_energy": -1.49, "cluster_size": 10, "cluster_id": 1, "rank_in_cluster": 4}

>  <energy>  (10) 
-8.06

>  <cluster_rmsd>  (10) 
1.47

>  <rmsd>  (10) 
270.83

>  <cluster>  (10) 
1

$$$$
IETZWVUTNAYKDK-BUHFOSPRNA-N
     RDKit          3D

 63 67  0  0  0  0  0  0  0  0999 V2000
  144.0297   75.6458  217.1912 H   0  0  0  0  0  0  0  0  0  0  0  0
  143.5840   75.1660  218.0750 C   0  0  0  0  0  0  0  0  0  0  0  0
  142.2910   75.4080  218.3450 C   0  0  0  0  0  0  0  0  0  0  0  0
  141.5265   75.0670  217.6313 H   0  0  0  0  0  0  0  0  0  0  0  0
  141.8560   76.1230  219.5790 C   0  0  0  0  0  0  0  0  0  0  0  0
  142.0300   77.4710  219.6240 N   0  0  0  0  0  0  0  0  0  0  0  0
  141.6470   78.2150  220.6850 C   0  0  0  0  0  0  0  0  0  0  0  0
  141.8560   79.6000  220.6830 C   0  0  0  0  0  0  0  0  0  0  0  0
  142.3393   80.0817  219.8202 H   0  0  0  0  0  0  0  0  0  0  0  0
  141.4510   80.3700  221.7760 C   0  0  0  0  0  0  0  0  0  0  0  0
  141.6165   81.4575  221.7731 H   0  0  0  0  0  0  0  0  0  0  0  0
  140.8360   79.7610  222.8730 C   0  0  0  0  0  0  0  0  0  0  0  0
  140.5172   80.3700  223.7318 H   0  0  0  0  0  0  0  0  0  0  0  0
  140.6250   78.3780  222.8810 C   0  0  0  0  0  0  0  0  0  0  0  0
  140.1408   77.9014  223.7461 H   0  0  0  0  0  0  0  0  0  0  0  0
  141.0320   77.5940  221.7820 C   0  0  0  0  0  0  0  0  0  0  0  0
  140.8470   76.2030  221.7400 C   0  0  0  0  0  0  0  0  0  0  0  0
  140.2780   75.6320  222.7140 O   0  0  0  0  0  0  0  0  0  0  0  0
  141.2790   75.4700  220.6550 N   0  0  0  0  0  0  0  0  0  0  0  0
  141.1500   73.9920  220.6830 C   0  0  0  0  0  0  0  0  0  0  0  0
  141.4839   73.5887  219.7156 H   0  0  0  0  0  0  0  0  0  0  0  0
  141.7700   73.6140  221.5092 H   0  0  0  0  0  0  0  0  0  0  0  0
  139.6980   73.5400  220.9350 C   0  0  0  0  0  0  0  0  0  0  0  0
  139.0753   74.4354  221.0782 H   0  0  0  0  0  0  0  0  0  0  0  0
  139.3885   72.9494  220.0601 H   0  0  0  0  0  0  0  0  0  0  0  0
  139.5380   72.6350  222.1680 C   0  0  0  0  0  0  0  0  0  0  0  0
  140.5355   72.3446  222.5295 H   0  0  0  0  0  0  0  0  0  0  0  0
  138.9891   73.1968  222.9381 H   0  0  0  0  0  0  0  0  0  0  0  0
  138.7670   71.4110  221.8500 N   0  0  0  0  0  0  0  0  0  0  0  0
  139.5910   70.1740  221.9410 C   0  0  0  0  0  0  0  0  0  0  0  0
  139.3779   69.5508  221.0599 H   0  0  0  0  0  0  0  0  0  0  0  0
  140.6422   70.4946  221.9888 H   0  0  0  0  0  0  0  0  0  0  0  0
  139.3230   69.3340  223.2050 C   0  0  0  0  0  0  0  0  0  0  0  0
  138.5067   68.6248  223.0032 H   0  0  0  0  0  0  0  0  0  0  0  0
  140.2392   68.7872  223.4726 H   0  0  0  0  0  0  0  0  0  0  0  0
  138.9430   70.2040  224.3220 N   0  0  0  0  0  0  0  0  0  0  0  0
  139.6680   70.1860  225.5670 C   0  0  0  0  0  0  0  0  0  0  0  0
  139.6500   69.0410  226.3850 C   0  0  0  0  0  0  0  0  0  0  0  0
  139.0862   68.1512  226.0680 H   0  0  0  0  0  0  0  0  0  0  0  0
  140.3450   69.0280  227.5990 C   0  0  0  0  0  0  0  0  0  0  0  0
  140.3319   68.1273  228.2304 H   0  0  0  0  0  0  0  0  0  0  0  0
  141.0560   70.1590  228.0100 C   0  0  0  0  0  0  0  0  0  0  0  0
  141.6043   70.1468  228.9635 H   0  0  0  0  0  0  0  0  0  0  0  0
  141.0710   71.3050  227.2110 C   0  0  0  0  0  0  0  0  0  0  0  0
  141.6282   72.1954  227.5376 H   0  0  0  0  0  0  0  0  0  0  0  0
  140.3780   71.3210  225.9960 C   0  0  0  0  0  0  0  0  0  0  0  0
  140.3887   72.2271  225.3725 H   0  0  0  0  0  0  0  0  0  0  0  0
  137.8140   71.1230  224.1380 C   0  0  0  0  0  0  0  0  0  0  0  0
  136.9231   70.7035  224.6282 H   0  0  0  0  0  0  0  0  0  0  0  0
  138.0723   72.0949  224.5838 H   0  0  0  0  0  0  0  0  0  0  0  0
  137.5190   71.3270  222.6440 C   0  0  0  0  0  0  0  0  0  0  0  0
  136.9197   70.4798  222.2792 H   0  0  0  0  0  0  0  0  0  0  0  0
  136.9713   72.2737  222.5268 H   0  0  0  0  0  0  0  0  0  0  0  0
  144.4430   74.2870  218.9040 C   0  0  0  0  0  0  0  0  0  0  0  0
  145.2030   73.2320  218.3620 C   0  0  0  0  0  0  0  0  0  0  0  0
  145.1828   73.0421  217.2787 H   0  0  0  0  0  0  0  0  0  0  0  0
  145.9620   72.4470  219.1740 N   0  0  0  0  0  0  0  0  0  0  0  0
  146.0130   72.6430  220.5170 C   0  0  0  0  0  0  0  0  0  0  0  0
  146.6447   71.9960  221.1434 H   0  0  0  0  0  0  0  0  0  0  0  0
  145.2650   73.6640  221.1020 C   0  0  0  0  0  0  0  0  0  0  0  0
  145.2978   73.8227  222.1900 H   0  0  0  0  0  0  0  0  0  0  0  0
  144.4740   74.4830  220.2940 C   0  0  0  0  0  0  0  0  0  0  0  0
  143.8730   75.2847  220.7480 H   0  0  0  0  0  0  0  0  0  0  0  0
  1  2  1  0
  2  3  2  0
  3  4  1  0
  3  5  1  0
  5  6  2  0
  6  7  1  0
  7  8  2  0
  8  9  1  0
  8 10  1  0
 10 11  1  0
 10 12  2  0
 12 13  1  0
 12 14  1  0
 14 15  1  0
 14 16  2  0
 16 17  1  0
 17 18  2  0
 17 19  1  0
 19 20  1  0
 20 21  1  0
 20 22  1  0
 20 23  1  0
 23 24  1  0
 23 25  1  0
 23 26  1  0
 26 27  1  0
 26 28  1  0
 26 29  1  0
 29 30  1  0
 30 31  1  0
 30 32  1  0
 30 33  1  0
 33 34  1  0
 33 35  1  0
 33 36  1  0
 36 37  1  0
 37 38  2  0
 38 39  1  0
 38 40  1  0
 40 41  1  0
 40 42  2  0
 42 43  1  0
 42 44  1  0
 44 45  1  0
 44 46  2  0
 46 47  1  0
 36 48  1  0
 48 49  1  0
 48 50  1  0
 48 51  1  0
 51 52  1  0
 51 53  1  0
  2 54  1  0
 54 55  2  0
 55 56  1  0
 55 57  1  0
 57 58  2  0
 58 59  1  0
 58 60  1  0
 60 61  1  0
 60 62  2  0
 62 63  1  0
 19  5  1  0
 51 29  1  0
 62 54  1  0
 16  7  1  0
 46 37  1  0
M  END
>  <UniqueID>  (11) 
604

>  <SMILES>  (11) 
O=c1c2ccccc2nc(/C=C/c2cccnc2)n1CCCN1CCN(c2ccccc2)CC1

>  <Energy>  (11) 
89.98523172245278

>  <Genealogy>  (11) 
O=c1c2ccccc2nc(/C=C/c2cccnc2)n1CCCN1CCN(c2ccccc2)CC1 (cis-trans isomerization)
O=c1c2ccccc2nc(/C=C/c2cccnc2)n1CCCN1CCN(c2ccccc2)CC1 (3D coordinates assigned)
O=c1c2ccccc2nc(/C=C/c2cccnc2)n1CCCN1CCN(c2ccccc2)CC1 (nonaromatic ring conformer: 89.98523172245278 kcal/mol)

>  <smiles>  (11) 
O=c1c2ccccc2nc(/C=C/c2cccnc2)n1CCCN1CCN(c2ccccc2)CC1

>  <score_type>  (11) 
oracle

>  <origin>  (11) 
autodockgpu

>  <m_score__min__energy>  (11) 
-9.1400000000000006

>  <m_primary>  (11) 
energy

>  <meeko>  (11) 
{"free_energy": -8.86, "intermolecular_energy": -11.24, "internal_energy": -1.43, "cluster_size": 10, "cluster_id": 1, "rank_in_cluster": 5}

>  <energy>  (11) 
-8.64

>  <cluster_rmsd>  (11) 
0.0

>  <rmsd>  (11) 
270.53

>  <cluster>  (11) 
2

$$$$
IETZWVUTNAYKDK-BUHFOSPRNA-N
     RDKit          3D

 63 67  0  0  0  0  0  0  0  0999 V2000
  143.2796   76.4975  218.5938 H   0  0  0  0  0  0  0  0  0  0  0  0
  142.7740   75.8790  219.3500 C   0  0  0  0  0  0  0  0  0  0  0  0
  141.5030   76.1750  219.6670 C   0  0  0  0  0  0  0  0  0  0  0  0
  140.6890   75.6876  219.1104 H   0  0  0  0  0  0  0  0  0  0  0  0
  141.1580   77.1430  220.7490 C   0  0  0  0  0  0  0  0  0  0  0  0
  142.1090   78.0420  221.1210 N   0  0  0  0  0  0  0  0  0  0  0  0
  141.8880   78.9760  222.0720 C   0  0  0  0  0  0  0  0  0  0  0  0
  142.9050   79.8730  222.4230 C   0  0  0  0  0  0  0  0  0  0  0  0
  143.8864   79.8120  221.9300 H   0  0  0  0  0  0  0  0  0  0  0  0
  142.6730   80.8450  223.3990 C   0  0  0  0  0  0  0  0  0  0  0  0
  143.4721   81.5492  223.6737 H   0  0  0  0  0  0  0  0  0  0  0  0
  141.4270   80.9240  224.0270 C   0  0  0  0  0  0  0  0  0  0  0  0
  141.2471   81.6907  224.7950 H   0  0  0  0  0  0  0  0  0  0  0  0
  140.4080   80.0300  223.6810 C   0  0  0  0  0  0  0  0  0  0  0  0
  139.4286   80.0944  224.1776 H   0  0  0  0  0  0  0  0  0  0  0  0
  140.6350   79.0470  222.6970 C   0  0  0  0  0  0  0  0  0  0  0  0
  139.6490   78.1230  222.3150 C   0  0  0  0  0  0  0  0  0  0  0  0
  138.5090   78.1860  222.8570 O   0  0  0  0  0  0  0  0  0  0  0  0
  139.9180   77.1620  221.3630 N   0  0  0  0  0  0  0  0  0  0  0  0
  138.8830   76.1460  221.0480 C   0  0  0  0  0  0  0  0  0  0  0  0
  137.9003   76.6393  221.0156 H   0  0  0  0  0  0  0  0  0  0  0  0
  139.1362   75.6951  220.0771 H   0  0  0  0  0  0  0  0  0  0  0  0
  138.8380   75.0180  222.0970 C   0  0  0  0  0  0  0  0  0  0  0  0
  138.9539   75.4666  223.0947 H   0  0  0  0  0  0  0  0  0  0  0  0
  137.8720   74.5056  221.9771 H   0  0  0  0  0  0  0  0  0  0  0  0
  139.9360   73.9570  221.9110 C   0  0  0  0  0  0  0  0  0  0  0  0
  140.7653   74.3979  221.3384 H   0  0  0  0  0  0  0  0  0  0  0  0
  140.2747   73.6336  222.9063 H   0  0  0  0  0  0  0  0  0  0  0  0
  139.4280   72.7690  221.1850 N   0  0  0  0  0  0  0  0  0  0  0  0
  140.3890   71.6320  221.2050 C   0  0  0  0  0  0  0  0  0  0  0  0
  140.4471   71.2103  220.1907 H   0  0  0  0  0  0  0  0  0  0  0  0
  141.3519   72.0352  221.5518 H   0  0  0  0  0  0  0  0  0  0  0  0
  140.0020   70.5010  222.1790 C   0  0  0  0  0  0  0  0  0  0  0  0
  139.3528   69.7807  221.6597 H   0  0  0  0  0  0  0  0  0  0  0  0
  140.9167   69.9993  222.5276 H   0  0  0  0  0  0  0  0  0  0  0  0
  139.2880   71.0500  223.3350 N   0  0  0  0  0  0  0  0  0  0  0  0
  139.7490   70.8170  224.6800 C   0  0  0  0  0  0  0  0  0  0  0  0
  139.2630   69.7240  225.4210 C   0  0  0  0  0  0  0  0  0  0  0  0
  138.5338   69.0365  224.9675 H   0  0  0  0  0  0  0  0  0  0  0  0
  139.7020   69.5070  226.7310 C   0  0  0  0  0  0  0  0  0  0  0  0
  139.3214   68.6475  227.3024 H   0  0  0  0  0  0  0  0  0  0  0  0
  140.6230   70.3800  227.3150 C   0  0  0  0  0  0  0  0  0  0  0  0
  140.9703   70.2049  228.3439 H   0  0  0  0  0  0  0  0  0  0  0  0
  141.1030   71.4750  226.5930 C   0  0  0  0  0  0  0  0  0  0  0  0
  141.8242   72.1646  227.0560 H   0  0  0  0  0  0  0  0  0  0  0  0
  140.6680   71.6960  225.2820 C   0  0  0  0  0  0  0  0  0  0  0  0
  141.0465   72.5617  224.7187 H   0  0  0  0  0  0  0  0  0  0  0  0
  138.0960   71.8700  223.0940 C   0  0  0  0  0  0  0  0  0  0  0  0
  137.1970   71.2630  223.2763 H   0  0  0  0  0  0  0  0  0  0  0  0
  138.1170   72.7340  223.7745 H   0  0  0  0  0  0  0  0  0  0  0  0
  138.0740   72.3820  221.6450 C   0  0  0  0  0  0  0  0  0  0  0  0
  137.6881   71.5864  220.9907 H   0  0  0  0  0  0  0  0  0  0  0  0
  137.4281   73.2714  221.6031 H   0  0  0  0  0  0  0  0  0  0  0  0
  143.5320   74.7630  219.9650 C   0  0  0  0  0  0  0  0  0  0  0  0
  144.8400   74.9140  220.4650 C   0  0  0  0  0  0  0  0  0  0  0  0
  145.3348   75.8953  220.4181 H   0  0  0  0  0  0  0  0  0  0  0  0
  145.4940   73.8500  221.0060 N   0  0  0  0  0  0  0  0  0  0  0  0
  144.9230   72.6200  221.0790 C   0  0  0  0  0  0  0  0  0  0  0  0
  145.4761   71.7832  221.5305 H   0  0  0  0  0  0  0  0  0  0  0  0
  143.6360   72.4170  220.5820 C   0  0  0  0  0  0  0  0  0  0  0  0
  143.1713   71.4213  220.6338 H   0  0  0  0  0  0  0  0  0  0  0  0
  142.9430   73.4900  220.0180 C   0  0  0  0  0  0  0  0  0  0  0  0
  141.9315   73.3371  219.6137 H   0  0  0  0  0  0  0  0  0  0  0  0
  1  2  1  0
  2  3  2  0
  3  4  1  0
  3  5  1  0
  5  6  2  0
  6  7  1  0
  7  8  2  0
  8  9  1  0
  8 10  1  0
 10 11  1  0
 10 12  2  0
 12 13  1  0
 12 14  1  0
 14 15  1  0
 14 16  2  0
 16 17  1  0
 17 18  2  0
 17 19  1  0
 19 20  1  0
 20 21  1  0
 20 22  1  0
 20 23  1  0
 23 24  1  0
 23 25  1  0
 23 26  1  0
 26 27  1  0
 26 28  1  0
 26 29  1  0
 29 30  1  0
 30 31  1  0
 30 32  1  0
 30 33  1  0
 33 34  1  0
 33 35  1  0
 33 36  1  0
 36 37  1  0
 37 38  2  0
 38 39  1  0
 38 40  1  0
 40 41  1  0
 40 42  2  0
 42 43  1  0
 42 44  1  0
 44 45  1  0
 44 46  2  0
 46 47  1  0
 36 48  1  0
 48 49  1  0
 48 50  1  0
 48 51  1  0
 51 52  1  0
 51 53  1  0
  2 54  1  0
 54 55  2  0
 55 56  1  0
 55 57  1  0
 57 58  2  0
 58 59  1  0
 58 60  1  0
 60 61  1  0
 60 62  2  0
 62 63  1  0
 19  5  1  0
 51 29  1  0
 62 54  1  0
 16  7  1  0
 46 37  1  0
M  END
>  <UniqueID>  (12) 
604

>  <SMILES>  (12) 
O=c1c2ccccc2nc(/C=C/c2cccnc2)n1CCCN1CCN(c2ccccc2)CC1

>  <Energy>  (12) 
89.98523172245278

>  <Genealogy>  (12) 
O=c1c2ccccc2nc(/C=C/c2cccnc2)n1CCCN1CCN(c2ccccc2)CC1 (cis-trans isomerization)
O=c1c2ccccc2nc(/C=C/c2cccnc2)n1CCCN1CCN(c2ccccc2)CC1 (3D coordinates assigned)
O=c1c2ccccc2nc(/C=C/c2cccnc2)n1CCCN1CCN(c2ccccc2)CC1 (nonaromatic ring conformer: 89.98523172245278 kcal/mol)

>  <smiles>  (12) 
O=c1c2ccccc2nc(/C=C/c2cccnc2)n1CCCN1CCN(c2ccccc2)CC1

>  <score_type>  (12) 
oracle

>  <origin>  (12) 
autodockgpu

>  <m_score__min__energy>  (12) 
-9.1400000000000006

>  <m_primary>  (12) 
energy

>  <meeko>  (12) 
{"free_energy": -8.06, "intermolecular_energy": -10.45, "internal_energy": -1.92, "cluster_size": 10, "cluster_id": 1, "rank_in_cluster": 10}

>  <energy>  (12) 
-8.3

>  <cluster_rmsd>  (12) 
1.2

>  <rmsd>  (12) 
270.07

>  <cluster>  (12) 
2

$$$$
IETZWVUTNAYKDK-BUHFOSPRNA-N
     RDKit          3D

 63 67  0  0  0  0  0  0  0  0999 V2000
  137.8499   79.9312  222.9840 H   0  0  0  0  0  0  0  0  0  0  0  0
  138.7080   79.4220  222.5210 C   0  0  0  0  0  0  0  0  0  0  0  0
  138.4650   78.3970  221.6880 C   0  0  0  0  0  0  0  0  0  0  0  0
  137.5085   78.3678  221.1456 H   0  0  0  0  0  0  0  0  0  0  0  0
  139.4490   77.2970  221.4740 C   0  0  0  0  0  0  0  0  0  0  0  0
  140.5780   77.5840  220.7710 N   0  0  0  0  0  0  0  0  0  0  0  0
  141.5420   76.6660  220.5440 C   0  0  0  0  0  0  0  0  0  0  0  0
  142.6820   77.0120  219.8070 C   0  0  0  0  0  0  0  0  0  0  0  0
  142.7887   78.0307  219.4059 H   0  0  0  0  0  0  0  0  0  0  0  0
  143.6830   76.0650  219.5810 C   0  0  0  0  0  0  0  0  0  0  0  0
  144.5766   76.3382  219.0006 H   0  0  0  0  0  0  0  0  0  0  0  0
  143.5510   74.7710  220.0910 C   0  0  0  0  0  0  0  0  0  0  0  0
  144.3421   74.0278  219.9128 H   0  0  0  0  0  0  0  0  0  0  0  0
  142.4150   74.4180  220.8280 C   0  0  0  0  0  0  0  0  0  0  0  0
  142.3138   73.3980  221.2273 H   0  0  0  0  0  0  0  0  0  0  0  0
  141.4000   75.3690  221.0590 C   0  0  0  0  0  0  0  0  0  0  0  0
  140.2390   75.0670  221.7880 C   0  0  0  0  0  0  0  0  0  0  0  0
  140.1050   73.9070  222.2730 O   0  0  0  0  0  0  0  0  0  0  0  0
  139.2590   76.0190  221.9730 N   0  0  0  0  0  0  0  0  0  0  0  0
  138.0050   75.6410  222.6710 C   0  0  0  0  0  0  0  0  0  0  0  0
  138.2587   75.2425  223.6644 H   0  0  0  0  0  0  0  0  0  0  0  0
  137.3773   76.5409  222.7494 H   0  0  0  0  0  0  0  0  0  0  0  0
  137.2080   74.5740  221.8970 C   0  0  0  0  0  0  0  0  0  0  0  0
  136.2413   75.0083  221.6024 H   0  0  0  0  0  0  0  0  0  0  0  0
  137.8186   74.2826  221.0297 H   0  0  0  0  0  0  0  0  0  0  0  0
  136.9390   73.2950  222.7080 C   0  0  0  0  0  0  0  0  0  0  0  0
  137.6661   73.2349  223.5313 H   0  0  0  0  0  0  0  0  0  0  0  0
  135.9104   73.3430  223.0948 H   0  0  0  0  0  0  0  0  0  0  0  0
  137.0620   72.0800  221.8680 N   0  0  0  0  0  0  0  0  0  0  0  0
  138.4740   71.7760  221.5030 C   0  0  0  0  0  0  0  0  0  0  0  0
  138.5082   71.5252  220.4325 H   0  0  0  0  0  0  0  0  0  0  0  0
  139.0656   72.6705  221.7476 H   0  0  0  0  0  0  0  0  0  0  0  0
  139.0880   70.6050  222.2950 C   0  0  0  0  0  0  0  0  0  0  0  0
  138.8811   69.6620  221.7678 H   0  0  0  0  0  0  0  0  0  0  0  0
  140.1740   70.7590  222.3783 H   0  0  0  0  0  0  0  0  0  0  0  0
  138.5100   70.5440  223.6400 N   0  0  0  0  0  0  0  0  0  0  0  0
  139.3430   70.5840  224.8150 C   0  0  0  0  0  0  0  0  0  0  0  0
  140.3600   71.5490  224.9350 C   0  0  0  0  0  0  0  0  0  0  0  0
  140.5143   72.2839  224.1312 H   0  0  0  0  0  0  0  0  0  0  0  0
  141.1760   71.5790  226.0710 C   0  0  0  0  0  0  0  0  0  0  0  0
  141.9656   72.3396  226.1604 H   0  0  0  0  0  0  0  0  0  0  0  0
  140.9890   70.6440  227.0920 C   0  0  0  0  0  0  0  0  0  0  0  0
  141.6297   70.6708  227.9857 H   0  0  0  0  0  0  0  0  0  0  0  0
  139.9890   69.6750  226.9790 C   0  0  0  0  0  0  0  0  0  0  0  0
  139.8452   68.9374  227.7823 H   0  0  0  0  0  0  0  0  0  0  0  0
  139.1710   69.6420  225.8460 C   0  0  0  0  0  0  0  0  0  0  0  0
  138.3877   68.8746  225.7598 H   0  0  0  0  0  0  0  0  0  0  0  0
  137.0520   70.4670  223.7710 C   0  0  0  0  0  0  0  0  0  0  0  0
  136.7631   69.4279  223.9872 H   0  0  0  0  0  0  0  0  0  0  0  0
  136.7347   71.1292  224.5900 H   0  0  0  0  0  0  0  0  0  0  0  0
  136.3660   70.9220  222.4730 C   0  0  0  0  0  0  0  0  0  0  0  0
  136.3697   70.0881  221.7556 H   0  0  0  0  0  0  0  0  0  0  0  0
  135.3370   71.2261  222.7151 H   0  0  0  0  0  0  0  0  0  0  0  0
  140.0710   79.9040  222.8500 C   0  0  0  0  0  0  0  0  0  0  0  0
  140.5540   81.1620  222.4400 C   0  0  0  0  0  0  0  0  0  0  0  0
  139.9056   81.8357  221.8607 H   0  0  0  0  0  0  0  0  0  0  0  0
  141.8200   81.5470  222.7580 N   0  0  0  0  0  0  0  0  0  0  0  0
  142.6550   80.7440  223.4680 C   0  0  0  0  0  0  0  0  0  0  0  0
  143.6697   81.0890  223.7157 H   0  0  0  0  0  0  0  0  0  0  0  0
  142.2280   79.4840  223.8830 C   0  0  0  0  0  0  0  0  0  0  0  0
  142.9025   78.8287  224.4536 H   0  0  0  0  0  0  0  0  0  0  0  0
  140.9350   79.0620  223.5670 C   0  0  0  0  0  0  0  0  0  0  0  0
  140.5921   78.0652  223.8814 H   0  0  0  0  0  0  0  0  0  0  0  0
  1  2  1  0
  2  3  2  0
  3  4  1  0
  3  5  1  0
  5  6  2  0
  6  7  1  0
  7  8  2  0
  8  9  1  0
  8 10  1  0
 10 11  1  0
 10 12  2  0
 12 13  1  0
 12 14  1  0
 14 15  1  0
 14 16  2  0
 16 17  1  0
 17 18  2  0
 17 19  1  0
 19 20  1  0
 20 21  1  0
 20 22  1  0
 20 23  1  0
 23 24  1  0
 23 25  1  0
 23 26  1  0
 26 27  1  0
 26 28  1  0
 26 29  1  0
 29 30  1  0
 30 31  1  0
 30 32  1  0
 30 33  1  0
 33 34  1  0
 33 35  1  0
 33 36  1  0
 36 37  1  0
 37 38  2  0
 38 39  1  0
 38 40  1  0
 40 41  1  0
 40 42  2  0
 42 43  1  0
 42 44  1  0
 44 45  1  0
 44 46  2  0
 46 47  1  0
 36 48  1  0
 48 49  1  0
 48 50  1  0
 48 51  1  0
 51 52  1  0
 51 53  1  0
  2 54  1  0
 54 55  2  0
 55 56  1  0
 55 57  1  0
 57 58  2  0
 58 59  1  0
 58 60  1  0
 60 61  1  0
 60 62  2  0
 62 63  1  0
 19  5  1  0
 51 29  1  0
 62 54  1  0
 16  7  1  0
 46 37  1  0
M  END
>  <UniqueID>  (13) 
604

>  <SMILES>  (13) 
O=c1c2ccccc2nc(/C=C/c2cccnc2)n1CCCN1CCN(c2ccccc2)CC1

>  <Energy>  (13) 
89.98523172245278

>  <Genealogy>  (13) 
O=c1c2ccccc2nc(/C=C/c2cccnc2)n1CCCN1CCN(c2ccccc2)CC1 (cis-trans isomerization)
O=c1c2ccccc2nc(/C=C/c2cccnc2)n1CCCN1CCN(c2ccccc2)CC1 (3D coordinates assigned)
O=c1c2ccccc2nc(/C=C/c2cccnc2)n1CCCN1CCN(c2ccccc2)CC1 (nonaromatic ring conformer: 89.98523172245278 kcal/mol)

>  <smiles>  (13) 
O=c1c2ccccc2nc(/C=C/c2cccnc2)n1CCCN1CCN(c2ccccc2)CC1

>  <score_type>  (13) 
oracle

>  <origin>  (13) 
autodockgpu

>  <m_score__min__energy>  (13) 
-9.1400000000000006

>  <m_primary>  (13) 
energy

>  <meeko>  (13) 
{"free_energy": -8.2, "intermolecular_energy": -10.59, "internal_energy": -1.96, "cluster_size": 1, "cluster_id": 4, "rank_in_cluster": 1}

>  <energy>  (13) 
-8.49

>  <cluster_rmsd>  (13) 
0.0

>  <rmsd>  (13) 
269.76

>  <cluster>  (13) 
3

$$$$
IETZWVUTNAYKDK-BUHFOSPRNA-N
     RDKit          3D

 63 67  0  0  0  0  0  0  0  0999 V2000
  141.5491   72.8164  219.1896 H   0  0  0  0  0  0  0  0  0  0  0  0
  142.0840   72.9460  220.1420 C   0  0  0  0  0  0  0  0  0  0  0  0
  141.3680   72.9500  221.2770 C   0  0  0  0  0  0  0  0  0  0  0  0
  141.4254   72.0773  221.9442 H   0  0  0  0  0  0  0  0  0  0  0  0
  140.4970   74.0970  221.6650 C   0  0  0  0  0  0  0  0  0  0  0  0
  141.1030   75.2710  221.9900 N   0  0  0  0  0  0  0  0  0  0  0  0
  140.4050   76.3760  222.3290 C   0  0  0  0  0  0  0  0  0  0  0  0
  141.0790   77.5570  222.6630 C   0  0  0  0  0  0  0  0  0  0  0  0
  142.1787   77.5825  222.6561 H   0  0  0  0  0  0  0  0  0  0  0  0
  140.3570   78.7030  223.0050 C   0  0  0  0  0  0  0  0  0  0  0  0
  140.8885   79.6294  223.2681 H   0  0  0  0  0  0  0  0  0  0  0  0
  138.9590   78.6730  223.0130 C   0  0  0  0  0  0  0  0  0  0  0  0
  138.3921   79.5768  223.2809 H   0  0  0  0  0  0  0  0  0  0  0  0
  138.2800   77.4960  222.6810 C   0  0  0  0  0  0  0  0  0  0  0  0
  137.1802   77.4757  222.6884 H   0  0  0  0  0  0  0  0  0  0  0  0
  139.0030   76.3360  222.3370 C   0  0  0  0  0  0  0  0  0  0  0  0
  138.3710   75.1280  221.9990 C   0  0  0  0  0  0  0  0  0  0  0  0
  137.1080   75.0810  221.9840 O   0  0  0  0  0  0  0  0  0  0  0  0
  139.1160   74.0100  221.6880 N   0  0  0  0  0  0  0  0  0  0  0  0
  138.4180   72.7270  221.4240 C   0  0  0  0  0  0  0  0  0  0  0  0
  137.4530   72.9415  220.9415 H   0  0  0  0  0  0  0  0  0  0  0  0
  139.0642   72.1186  220.7741 H   0  0  0  0  0  0  0  0  0  0  0  0
  138.1600   71.9280  222.7160 C   0  0  0  0  0  0  0  0  0  0  0  0
  138.9734   71.1981  222.8412 H   0  0  0  0  0  0  0  0  0  0  0  0
  138.1178   72.6550  223.5405 H   0  0  0  0  0  0  0  0  0  0  0  0
  136.8220   71.1690  222.7170 C   0  0  0  0  0  0  0  0  0  0  0  0
  136.2868   71.3900  223.6522 H   0  0  0  0  0  0  0  0  0  0  0  0
  136.2390   71.4977  221.8440 H   0  0  0  0  0  0  0  0  0  0  0  0
  137.0260   69.7050  222.6140 N   0  0  0  0  0  0  0  0  0  0  0  0
  138.4520   69.3390  222.3930 C   0  0  0  0  0  0  0  0  0  0  0  0
  138.4948   68.5757  221.6021 H   0  0  0  0  0  0  0  0  0  0  0  0
  138.9794   70.2641  222.1172 H   0  0  0  0  0  0  0  0  0  0  0  0
  139.1560   68.7800  223.6450 C   0  0  0  0  0  0  0  0  0  0  0  0
  139.0126   67.6902  223.6859 H   0  0  0  0  0  0  0  0  0  0  0  0
  140.2287   69.0168  223.5883 H   0  0  0  0  0  0  0  0  0  0  0  0
  138.5970   69.3870  224.8560 N   0  0  0  0  0  0  0  0  0  0  0  0
  139.4340   70.0740  225.8060 C   0  0  0  0  0  0  0  0  0  0  0  0
  139.4880   69.6500  227.1470 C   0  0  0  0  0  0  0  0  0  0  0  0
  138.8945   68.7821  227.4703 H   0  0  0  0  0  0  0  0  0  0  0  0
  140.2910   70.3250  228.0700 C   0  0  0  0  0  0  0  0  0  0  0  0
  140.3318   69.9840  229.1150 H   0  0  0  0  0  0  0  0  0  0  0  0
  141.0420   71.4320  227.6680 C   0  0  0  0  0  0  0  0  0  0  0  0
  141.6769   71.9592  228.3953 H   0  0  0  0  0  0  0  0  0  0  0  0
  140.9870   71.8700  226.3420 C   0  0  0  0  0  0  0  0  0  0  0  0
  141.5746   72.7451  226.0275 H   0  0  0  0  0  0  0  0  0  0  0  0
  140.1860   71.1970  225.4150 C   0  0  0  0  0  0  0  0  0  0  0  0
  140.1433   71.5476  224.3732 H   0  0  0  0  0  0  0  0  0  0  0  0
  137.1480   69.3030  225.0730 C   0  0  0  0  0  0  0  0  0  0  0  0
  136.9376   68.5079  225.8035 H   0  0  0  0  0  0  0  0  0  0  0  0
  136.7898   70.2721  225.4505 H   0  0  0  0  0  0  0  0  0  0  0  0
  136.4200   68.9850  223.7570 C   0  0  0  0  0  0  0  0  0  0  0  0
  136.4779   67.9027  223.5690 H   0  0  0  0  0  0  0  0  0  0  0  0
  135.3736   69.3101  223.8541 H   0  0  0  0  0  0  0  0  0  0  0  0
  143.5580   73.1070  220.1030 C   0  0  0  0  0  0  0  0  0  0  0  0
  144.4010   72.2320  219.3890 C   0  0  0  0  0  0  0  0  0  0  0  0
  143.9683   71.3956  218.8205 H   0  0  0  0  0  0  0  0  0  0  0  0
  145.7490   72.4190  219.4010 N   0  0  0  0  0  0  0  0  0  0  0  0
  146.3250   73.4360  220.0940 C   0  0  0  0  0  0  0  0  0  0  0  0
  147.4173   73.5643  220.0751 H   0  0  0  0  0  0  0  0  0  0  0  0
  145.5330   74.3170  220.8290 C   0  0  0  0  0  0  0  0  0  0  0  0
  145.9954   75.1382  221.3963 H   0  0  0  0  0  0  0  0  0  0  0  0
  144.1480   74.1470  220.8380 C   0  0  0  0  0  0  0  0  0  0  0  0
  143.5160   74.8309  221.4236 H   0  0  0  0  0  0  0  0  0  0  0  0
  1  2  1  0
  2  3  2  0
  3  4  1  0
  3  5  1  0
  5  6  2  0
  6  7  1  0
  7  8  2  0
  8  9  1  0
  8 10  1  0
 10 11  1  0
 10 12  2  0
 12 13  1  0
 12 14  1  0
 14 15  1  0
 14 16  2  0
 16 17  1  0
 17 18  2  0
 17 19  1  0
 19 20  1  0
 20 21  1  0
 20 22  1  0
 20 23  1  0
 23 24  1  0
 23 25  1  0
 23 26  1  0
 26 27  1  0
 26 28  1  0
 26 29  1  0
 29 30  1  0
 30 31  1  0
 30 32  1  0
 30 33  1  0
 33 34  1  0
 33 35  1  0
 33 36  1  0
 36 37  1  0
 37 38  2  0
 38 39  1  0
 38 40  1  0
 40 41  1  0
 40 42  2  0
 42 43  1  0
 42 44  1  0
 44 45  1  0
 44 46  2  0
 46 47  1  0
 36 48  1  0
 48 49  1  0
 48 50  1  0
 48 51  1  0
 51 52  1  0
 51 53  1  0
  2 54  1  0
 54 55  2  0
 55 56  1  0
 55 57  1  0
 57 58  2  0
 58 59  1  0
 58 60  1  0
 60 61  1  0
 60 62  2  0
 62 63  1  0
 19  5  1  0
 51 29  1  0
 62 54  1  0
 16  7  1  0
 46 37  1  0
M  END
>  <UniqueID>  (14) 
604

>  <SMILES>  (14) 
O=c1c2ccccc2nc(/C=C/c2cccnc2)n1CCCN1CCN(c2ccccc2)CC1

>  <Energy>  (14) 
89.98523172245278

>  <Genealogy>  (14) 
O=c1c2ccccc2nc(/C=C/c2cccnc2)n1CCCN1CCN(c2ccccc2)CC1 (cis-trans isomerization)
O=c1c2ccccc2nc(/C=C/c2cccnc2)n1CCCN1CCN(c2ccccc2)CC1 (3D coordinates assigned)
O=c1c2ccccc2nc(/C=C/c2cccnc2)n1CCCN1CCN(c2ccccc2)CC1 (nonaromatic ring conformer: 89.98523172245278 kcal/mol)

>  <smiles>  (14) 
O=c1c2ccccc2nc(/C=C/c2cccnc2)n1CCCN1CCN(c2ccccc2)CC1

>  <score_type>  (14) 
oracle

>  <origin>  (14) 
autodockgpu

>  <m_score__min__energy>  (14) 
-9.1400000000000006

>  <m_primary>  (14) 
energy

>  <meeko>  (14) 
{"free_energy": -8.67, "intermolecular_energy": -11.06, "internal_energy": -1.72, "cluster_size": 10, "cluster_id": 1, "rank_in_cluster": 6}

>  <energy>  (14) 
-8.41

>  <cluster_rmsd>  (14) 
0.29

>  <rmsd>  (14) 
269.77

>  <cluster>  (14) 
3

$$$$
IETZWVUTNAYKDK-BUHFOSPRNA-N
     RDKit          3D

 63 67  0  0  0  0  0  0  0  0999 V2000
  140.2925   77.8546  219.6891 H   0  0  0  0  0  0  0  0  0  0  0  0
  140.5260   77.3830  220.6550 C   0  0  0  0  0  0  0  0  0  0  0  0
  140.1990   76.0920  220.8280 C   0  0  0  0  0  0  0  0  0  0  0  0
  139.1458   75.8300  221.0075 H   0  0  0  0  0  0  0  0  0  0  0  0
  141.2160   75.0010  220.7850 C   0  0  0  0  0  0  0  0  0  0  0  0
  142.5210   75.3580  220.6410 N   0  0  0  0  0  0  0  0  0  0  0  0
  143.5200   74.4490  220.6160 C   0  0  0  0  0  0  0  0  0  0  0  0
  144.8470   74.8700  220.4580 C   0  0  0  0  0  0  0  0  0  0  0  0
  145.0746   75.9404  220.3465 H   0  0  0  0  0  0  0  0  0  0  0  0
  145.8810   73.9310  220.4420 C   0  0  0  0  0  0  0  0  0  0  0  0
  146.9221   74.2628  220.3158 H   0  0  0  0  0  0  0  0  0  0  0  0
  145.5950   72.5710  220.5860 C   0  0  0  0  0  0  0  0  0  0  0  0
  146.4117   71.8342  220.5752 H   0  0  0  0  0  0  0  0  0  0  0  0
  144.2710   72.1440  220.7440 C   0  0  0  0  0  0  0  0  0  0  0  0
  144.0487   71.0725  220.8557 H   0  0  0  0  0  0  0  0  0  0  0  0
  143.2230   73.0860  220.7600 C   0  0  0  0  0  0  0  0  0  0  0  0
  141.8780   72.7120  220.9120 C   0  0  0  0  0  0  0  0  0  0  0  0
  141.5960   71.4890  221.0600 O   0  0  0  0  0  0  0  0  0  0  0  0
  140.8790   73.6630  220.9000 N   0  0  0  0  0  0  0  0  0  0  0  0
  139.4630   73.2260  220.9730 C   0  0  0  0  0  0  0  0  0  0  0  0
  138.8146   74.0870  220.7532 H   0  0  0  0  0  0  0  0  0  0  0  0
  139.3197   72.4197  220.2386 H   0  0  0  0  0  0  0  0  0  0  0  0
  139.0970   72.6710  222.3630 C   0  0  0  0  0  0  0  0  0  0  0  0
  139.8246   71.8897  222.6279 H   0  0  0  0  0  0  0  0  0  0  0  0
  139.1183   73.5185  223.0640 H   0  0  0  0  0  0  0  0  0  0  0  0
  137.6850   72.0640  222.4330 C   0  0  0  0  0  0  0  0  0  0  0  0
  137.2623   72.2567  223.4301 H   0  0  0  0  0  0  0  0  0  0  0  0
  137.0700   72.5307  221.6495 H   0  0  0  0  0  0  0  0  0  0  0  0
  137.7090   70.6020  222.1950 N   0  0  0  0  0  0  0  0  0  0  0  0
  139.0920   70.0530  222.1370 C   0  0  0  0  0  0  0  0  0  0  0  0
  139.1566   69.3683  221.2785 H   0  0  0  0  0  0  0  0  0  0  0  0
  139.7720   70.9128  222.0454 H   0  0  0  0  0  0  0  0  0  0  0  0
  139.5150   69.2830  223.4040 C   0  0  0  0  0  0  0  0  0  0  0  0
  139.2258   68.2268  223.3006 H   0  0  0  0  0  0  0  0  0  0  0  0
  140.6052   69.3641  223.5256 H   0  0  0  0  0  0  0  0  0  0  0  0
  138.8590   69.8510  224.5850 N   0  0  0  0  0  0  0  0  0  0  0  0
  139.6220   70.3180  225.7140 C   0  0  0  0  0  0  0  0  0  0  0  0
  139.5470   69.6500  226.9500 C   0  0  0  0  0  0  0  0  0  0  0  0
  138.9089   68.7599  227.0526 H   0  0  0  0  0  0  0  0  0  0  0  0
  140.2790   70.1110  228.0490 C   0  0  0  0  0  0  0  0  0  0  0  0
  140.2193   69.5801  229.0106 H   0  0  0  0  0  0  0  0  0  0  0  0
  141.0860   71.2450  227.9270 C   0  0  0  0  0  0  0  0  0  0  0  0
  141.6634   71.6044  228.7915 H   0  0  0  0  0  0  0  0  0  0  0  0
  141.1600   71.9230  226.7070 C   0  0  0  0  0  0  0  0  0  0  0  0
  141.7927   72.8179  226.6128 H   0  0  0  0  0  0  0  0  0  0  0  0
  140.4300   71.4640  225.6060 C   0  0  0  0  0  0  0  0  0  0  0  0
  140.4882   72.0031  224.6489 H   0  0  0  0  0  0  0  0  0  0  0  0
  137.3960   69.9610  224.5860 C   0  0  0  0  0  0  0  0  0  0  0  0
  136.9725   69.1420  225.1859 H   0  0  0  0  0  0  0  0  0  0  0  0
  137.1143   70.9335  225.0160 H   0  0  0  0  0  0  0  0  0  0  0  0
  136.8450   69.8750  223.1540 C   0  0  0  0  0  0  0  0  0  0  0  0
  136.7900   68.8178  222.8551 H   0  0  0  0  0  0  0  0  0  0  0  0
  135.8475   70.3385  223.1397 H   0  0  0  0  0  0  0  0  0  0  0  0
  141.1850   78.2060  221.6970 C   0  0  0  0  0  0  0  0  0  0  0  0
  141.1640   77.8660  223.0640 C   0  0  0  0  0  0  0  0  0  0  0  0
  140.6534   76.9488  223.3928 H   0  0  0  0  0  0  0  0  0  0  0  0
  141.7730   78.6680  223.9790 N   0  0  0  0  0  0  0  0  0  0  0  0
  142.4120   79.8110  223.6170 C   0  0  0  0  0  0  0  0  0  0  0  0
  142.9036   80.4314  224.3808 H   0  0  0  0  0  0  0  0  0  0  0  0
  142.4450   80.1980  222.2780 C   0  0  0  0  0  0  0  0  0  0  0  0
  142.9551   81.1262  221.9809 H   0  0  0  0  0  0  0  0  0  0  0  0
  141.8250   79.3970  221.3180 C   0  0  0  0  0  0  0  0  0  0  0  0
  141.8377   79.6998  220.2606 H   0  0  0  0  0  0  0  0  0  0  0  0
  1  2  1  0
  2  3  2  0
  3  4  1  0
  3  5  1  0
  5  6  2  0
  6  7  1  0
  7  8  2  0
  8  9  1  0
  8 10  1  0
 10 11  1  0
 10 12  2  0
 12 13  1  0
 12 14  1  0
 14 15  1  0
 14 16  2  0
 16 17  1  0
 17 18  2  0
 17 19  1  0
 19 20  1  0
 20 21  1  0
 20 22  1  0
 20 23  1  0
 23 24  1  0
 23 25  1  0
 23 26  1  0
 26 27  1  0
 26 28  1  0
 26 29  1  0
 29 30  1  0
 30 31  1  0
 30 32  1  0
 30 33  1  0
 33 34  1  0
 33 35  1  0
 33 36  1  0
 36 37  1  0
 37 38  2  0
 38 39  1  0
 38 40  1  0
 40 41  1  0
 40 42  2  0
 42 43  1  0
 42 44  1  0
 44 45  1  0
 44 46  2  0
 46 47  1  0
 36 48  1  0
 48 49  1  0
 48 50  1  0
 48 51  1  0
 51 52  1  0
 51 53  1  0
  2 54  1  0
 54 55  2  0
 55 56  1  0
 55 57  1  0
 57 58  2  0
 58 59  1  0
 58 60  1  0
 60 61  1  0
 60 62  2  0
 62 63  1  0
 19  5  1  0
 51 29  1  0
 62 54  1  0
 16  7  1  0
 46 37  1  0
M  END
>  <UniqueID>  (15) 
604

>  <SMILES>  (15) 
O=c1c2ccccc2nc(/C=C/c2cccnc2)n1CCCN1CCN(c2ccccc2)CC1

>  <Energy>  (15) 
89.98523172245278

>  <Genealogy>  (15) 
O=c1c2ccccc2nc(/C=C/c2cccnc2)n1CCCN1CCN(c2ccccc2)CC1 (cis-trans isomerization)
O=c1c2ccccc2nc(/C=C/c2cccnc2)n1CCCN1CCN(c2ccccc2)CC1 (3D coordinates assigned)
O=c1c2ccccc2nc(/C=C/c2cccnc2)n1CCCN1CCN(c2ccccc2)CC1 (nonaromatic ring conformer: 89.98523172245278 kcal/mol)

>  <smiles>  (15) 
O=c1c2ccccc2nc(/C=C/c2cccnc2)n1CCCN1CCN(c2ccccc2)CC1

>  <score_type>  (15) 
oracle

>  <origin>  (15) 
autodockgpu

>  <m_score__min__energy>  (15) 
-9.1400000000000006

>  <m_primary>  (15) 
energy

>  <meeko>  (15) 
{"free_energy": -8.5, "intermolecular_energy": -10.88, "internal_energy": -1.75, "cluster_size": 10, "cluster_id": 1, "rank_in_cluster": 8}

>  <energy>  (15) 
-8.36

>  <cluster_rmsd>  (15) 
0.62

>  <rmsd>  (15) 
269.7

>  <cluster>  (15) 
3

$$$$
IETZWVUTNAYKDK-BUHFOSPRNA-N
     RDKit          3D

 63 67  0  0  0  0  0  0  0  0999 V2000
  143.7482   76.4698  218.5627 H   0  0  0  0  0  0  0  0  0  0  0  0
  143.3320   75.6030  219.0970 C   0  0  0  0  0  0  0  0  0  0  0  0
  142.0260   75.6160  219.4090 C   0  0  0  0  0  0  0  0  0  0  0  0
  141.3370   74.9755  218.8389 H   0  0  0  0  0  0  0  0  0  0  0  0
  141.4780   76.4700  220.5030 C   0  0  0  0  0  0  0  0  0  0  0  0
  142.1810   77.5820  220.8510 N   0  0  0  0  0  0  0  0  0  0  0  0
  141.7580   78.4340  221.8100 C   0  0  0  0  0  0  0  0  0  0  0  0
  142.5240   79.5610  222.1340 C   0  0  0  0  0  0  0  0  0  0  0  0
  143.4742   79.7483  221.6124 H   0  0  0  0  0  0  0  0  0  0  0  0
  142.0820   80.4470  223.1190 C   0  0  0  0  0  0  0  0  0  0  0  0
  142.6853   81.3309  223.3734 H   0  0  0  0  0  0  0  0  0  0  0  0
  140.8740   80.2120  223.7820 C   0  0  0  0  0  0  0  0  0  0  0  0
  140.5275   80.9124  224.5561 H   0  0  0  0  0  0  0  0  0  0  0  0
  140.1050   79.0880  223.4630 C   0  0  0  0  0  0  0  0  0  0  0  0
  139.1553   78.9055  223.9873 H   0  0  0  0  0  0  0  0  0  0  0  0
  140.5450   78.1890  222.4710 C   0  0  0  0  0  0  0  0  0  0  0  0
  139.8140   77.0440  222.1140 C   0  0  0  0  0  0  0  0  0  0  0  0
  138.7100   76.8200  222.6880 O   0  0  0  0  0  0  0  0  0  0  0  0
  140.2910   76.1780  221.1520 N   0  0  0  0  0  0  0  0  0  0  0  0
  139.5380   74.9320  220.8640 C   0  0  0  0  0  0  0  0  0  0  0  0
  138.5186   75.1989  220.5484 H   0  0  0  0  0  0  0  0  0  0  0  0
  140.0730   74.3894  220.0707 H   0  0  0  0  0  0  0  0  0  0  0  0
  139.4510   74.0080  222.0940 C   0  0  0  0  0  0  0  0  0  0  0  0
  139.8771   74.5387  222.9582 H   0  0  0  0  0  0  0  0  0  0  0  0
  138.3887   73.7605  222.2364 H   0  0  0  0  0  0  0  0  0  0  0  0
  140.2040   72.6780  221.9210 C   0  0  0  0  0  0  0  0  0  0  0  0
  140.9405   72.7876  221.1113 H   0  0  0  0  0  0  0  0  0  0  0  0
  140.6993   72.4371  222.8732 H   0  0  0  0  0  0  0  0  0  0  0  0
  139.2820   71.5680  221.5850 N   0  0  0  0  0  0  0  0  0  0  0  0
  139.9060   70.2290  221.7680 C   0  0  0  0  0  0  0  0  0  0  0  0
  139.6605   69.6103  220.8923 H   0  0  0  0  0  0  0  0  0  0  0  0
  140.9878   70.3943  221.8797 H   0  0  0  0  0  0  0  0  0  0  0  0
  139.4350   69.4860  223.0340 C   0  0  0  0  0  0  0  0  0  0  0  0
  138.5373   68.8965  222.7961 H   0  0  0  0  0  0  0  0  0  0  0  0
  140.2406   68.8218  223.3801 H   0  0  0  0  0  0  0  0  0  0  0  0
  139.1170   70.4440  224.0960 N   0  0  0  0  0  0  0  0  0  0  0  0
  139.7500   70.3680  225.3880 C   0  0  0  0  0  0  0  0  0  0  0  0
  140.4300   71.4820  225.9150 C   0  0  0  0  0  0  0  0  0  0  0  0
  140.4708   72.4197  225.3414 H   0  0  0  0  0  0  0  0  0  0  0  0
  141.0540   71.4030  227.1640 C   0  0  0  0  0  0  0  0  0  0  0  0
  141.5792   72.2791  227.5723 H   0  0  0  0  0  0  0  0  0  0  0  0
  141.0110   70.2120  227.8940 C   0  0  0  0  0  0  0  0  0  0  0  0
  141.4998   70.1526  228.8776 H   0  0  0  0  0  0  0  0  0  0  0  0
  140.3480   69.0970  227.3760 C   0  0  0  0  0  0  0  0  0  0  0  0
  140.3184   68.1593  227.9503 H   0  0  0  0  0  0  0  0  0  0  0  0
  139.7220   69.1720  226.1280 C   0  0  0  0  0  0  0  0  0  0  0  0
  139.2044   68.2902  225.7223 H   0  0  0  0  0  0  0  0  0  0  0  0
  138.1510   71.5100  223.8080 C   0  0  0  0  0  0  0  0  0  0  0  0
  137.1779   71.2438  224.2463 H   0  0  0  0  0  0  0  0  0  0  0  0
  138.5208   72.4501  224.2434 H   0  0  0  0  0  0  0  0  0  0  0  0
  137.9870   71.6980  222.2910 C   0  0  0  0  0  0  0  0  0  0  0  0
  137.2935   70.9344  221.9091 H   0  0  0  0  0  0  0  0  0  0  0  0
  137.5947   72.7094  222.1090 H   0  0  0  0  0  0  0  0  0  0  0  0
  144.2430   74.4830  219.4340 C   0  0  0  0  0  0  0  0  0  0  0  0
  144.8460   73.6700  218.4530 C   0  0  0  0  0  0  0  0  0  0  0  0
  144.6556   73.8639  217.3871 H   0  0  0  0  0  0  0  0  0  0  0  0
  145.6630   72.6460  218.8210 N   0  0  0  0  0  0  0  0  0  0  0  0
  145.9200   72.3670  220.1260 C   0  0  0  0  0  0  0  0  0  0  0  0
  146.5920   71.5367  220.3888 H   0  0  0  0  0  0  0  0  0  0  0  0
  145.3320   73.1330  221.1320 C   0  0  0  0  0  0  0  0  0  0  0  0
  145.5322   72.9079  222.1899 H   0  0  0  0  0  0  0  0  0  0  0  0
  144.4870   74.1880  220.7840 C   0  0  0  0  0  0  0  0  0  0  0  0
  144.0104   74.7906  221.5712 H   0  0  0  0  0  0  0  0  0  0  0  0
  1  2  1  0
  2  3  2  0
  3  4  1  0
  3  5  1  0
  5  6  2  0
  6  7  1  0
  7  8  2  0
  8  9  1  0
  8 10  1  0
 10 11  1  0
 10 12  2  0
 12 13  1  0
 12 14  1  0
 14 15  1  0
 14 16  2  0
 16 17  1  0
 17 18  2  0
 17 19  1  0
 19 20  1  0
 20 21  1  0
 20 22  1  0
 20 23  1  0
 23 24  1  0
 23 25  1  0
 23 26  1  0
 26 27  1  0
 26 28  1  0
 26 29  1  0
 29 30  1  0
 30 31  1  0
 30 32  1  0
 30 33  1  0
 33 34  1  0
 33 35  1  0
 33 36  1  0
 36 37  1  0
 37 38  2  0
 38 39  1  0
 38 40  1  0
 40 41  1  0
 40 42  2  0
 42 43  1  0
 42 44  1  0
 44 45  1  0
 44 46  2  0
 46 47  1  0
 36 48  1  0
 48 49  1  0
 48 50  1  0
 48 51  1  0
 51 52  1  0
 51 53  1  0
  2 54  1  0
 54 55  2  0
 55 56  1  0
 55 57  1  0
 57 58  2  0
 58 59  1  0
 58 60  1  0
 60 61  1  0
 60 62  2  0
 62 63  1  0
 19  5  1  0
 51 29  1  0
 62 54  1  0
 16  7  1  0
 46 37  1  0
M  END
>  <UniqueID>  (16) 
604

>  <SMILES>  (16) 
O=c1c2ccccc2nc(/C=C/c2cccnc2)n1CCCN1CCN(c2ccccc2)CC1

>  <Energy>  (16) 
89.98523172245278

>  <Genealogy>  (16) 
O=c1c2ccccc2nc(/C=C/c2cccnc2)n1CCCN1CCN(c2ccccc2)CC1 (cis-trans isomerization)
O=c1c2ccccc2nc(/C=C/c2cccnc2)n1CCCN1CCN(c2ccccc2)CC1 (3D coordinates assigned)
O=c1c2ccccc2nc(/C=C/c2cccnc2)n1CCCN1CCN(c2ccccc2)CC1 (nonaromatic ring conformer: 89.98523172245278 kcal/mol)

>  <smiles>  (16) 
O=c1c2ccccc2nc(/C=C/c2cccnc2)n1CCCN1CCN(c2ccccc2)CC1

>  <score_type>  (16) 
oracle

>  <origin>  (16) 
autodockgpu

>  <m_score__min__energy>  (16) 
-9.1400000000000006

>  <m_primary>  (16) 
energy

>  <meeko>  (16) 
{"free_energy": -9.11, "intermolecular_energy": -11.49, "internal_energy": -1.45, "cluster_size": 10, "cluster_id": 1, "rank_in_cluster": 2}

>  <energy>  (16) 
-8.2

>  <cluster_rmsd>  (16) 
0.0

>  <rmsd>  (16) 
270.56

>  <cluster>  (16) 
4

$$$$
IETZWVUTNAYKDK-BUHFOSPRNA-N
     RDKit          3D

 63 67  0  0  0  0  0  0  0  0999 V2000
  137.7927   71.8108  221.4066 H   0  0  0  0  0  0  0  0  0  0  0  0
  138.8510   71.7120  221.6900 C   0  0  0  0  0  0  0  0  0  0  0  0
  139.3040   70.4980  222.0430 C   0  0  0  0  0  0  0  0  0  0  0  0
  139.5147   69.7597  221.2553 H   0  0  0  0  0  0  0  0  0  0  0  0
  139.5310   70.1170  223.4670 C   0  0  0  0  0  0  0  0  0  0  0  0
  140.0690   71.0530  224.2950 N   0  0  0  0  0  0  0  0  0  0  0  0
  140.2910   70.8170  225.6060 C   0  0  0  0  0  0  0  0  0  0  0  0
  140.8540   71.8140  226.4130 C   0  0  0  0  0  0  0  0  0  0  0  0
  141.1230   72.7874  225.9769 H   0  0  0  0  0  0  0  0  0  0  0  0
  141.0740   71.5730  227.7710 C   0  0  0  0  0  0  0  0  0  0  0  0
  141.5170   72.3567  228.4032 H   0  0  0  0  0  0  0  0  0  0  0  0
  140.7320   70.3370  228.3280 C   0  0  0  0  0  0  0  0  0  0  0  0
  140.9059   70.1499  229.3979 H   0  0  0  0  0  0  0  0  0  0  0  0
  140.1690   69.3380  227.5270 C   0  0  0  0  0  0  0  0  0  0  0  0
  139.9006   68.3667  227.9681 H   0  0  0  0  0  0  0  0  0  0  0  0
  139.9450   69.5740  226.1550 C   0  0  0  0  0  0  0  0  0  0  0  0
  139.3870   68.6050  225.3070 C   0  0  0  0  0  0  0  0  0  0  0  0
  139.0540   67.4850  225.7910 O   0  0  0  0  0  0  0  0  0  0  0  0
  139.2040   68.8680  223.9650 N   0  0  0  0  0  0  0  0  0  0  0  0
  138.6950   67.7910  223.0800 C   0  0  0  0  0  0  0  0  0  0  0  0
  139.4007   67.6533  222.2475 H   0  0  0  0  0  0  0  0  0  0  0  0
  138.6024   66.8747  223.6816 H   0  0  0  0  0  0  0  0  0  0  0  0
  137.3050   68.1210  222.5030 C   0  0  0  0  0  0  0  0  0  0  0  0
  137.4307   68.4532  221.4619 H   0  0  0  0  0  0  0  0  0  0  0  0
  136.6986   67.2065  222.5806 H   0  0  0  0  0  0  0  0  0  0  0  0
  136.5610   69.2220  223.2780 C   0  0  0  0  0  0  0  0  0  0  0  0
  137.2169   69.6031  224.0746 H   0  0  0  0  0  0  0  0  0  0  0  0
  136.2963   70.0215  222.5704 H   0  0  0  0  0  0  0  0  0  0  0  0
  135.3110   68.7110  223.8880 N   0  0  0  0  0  0  0  0  0  0  0  0
  135.2190   69.0120  225.3430 C   0  0  0  0  0  0  0  0  0  0  0  0
  134.8779   68.1046  225.8629 H   0  0  0  0  0  0  0  0  0  0  0  0
  136.2203   69.3340  225.6651 H   0  0  0  0  0  0  0  0  0  0  0  0
  134.2500   70.1600  225.6860 C   0  0  0  0  0  0  0  0  0  0  0  0
  133.2400   69.7504  225.8345 H   0  0  0  0  0  0  0  0  0  0  0  0
  134.5938   70.6563  226.6055 H   0  0  0  0  0  0  0  0  0  0  0  0
  134.2190   71.1410  224.5970 N   0  0  0  0  0  0  0  0  0  0  0  0
  134.5120   72.5310  224.8320 C   0  0  0  0  0  0  0  0  0  0  0  0
  133.8650   73.2310  225.8670 C   0  0  0  0  0  0  0  0  0  0  0  0
  133.1379   72.7102  226.5074 H   0  0  0  0  0  0  0  0  0  0  0  0
  134.1400   74.5840  226.0870 C   0  0  0  0  0  0  0  0  0  0  0  0
  133.6342   75.1222  226.9022 H   0  0  0  0  0  0  0  0  0  0  0  0
  135.0570   75.2530  225.2720 C   0  0  0  0  0  0  0  0  0  0  0  0
  135.2750   76.3167  225.4481 H   0  0  0  0  0  0  0  0  0  0  0  0
  135.6970   74.5720  224.2340 C   0  0  0  0  0  0  0  0  0  0  0  0
  136.4158   75.1010  223.5910 H   0  0  0  0  0  0  0  0  0  0  0  0
  135.4250   73.2180  224.0110 C   0  0  0  0  0  0  0  0  0  0  0  0
  135.9278   72.6874  223.1890 H   0  0  0  0  0  0  0  0  0  0  0  0
  133.9070   70.6700  223.2430 C   0  0  0  0  0  0  0  0  0  0  0  0
  132.8589   70.9090  223.0099 H   0  0  0  0  0  0  0  0  0  0  0  0
  134.5796   71.1700  222.5305 H   0  0  0  0  0  0  0  0  0  0  0  0
  134.1140   69.1510  223.1360 C   0  0  0  0  0  0  0  0  0  0  0  0
  133.2288   68.6403  223.5430 H   0  0  0  0  0  0  0  0  0  0  0  0
  134.2605   68.8970  222.0758 H   0  0  0  0  0  0  0  0  0  0  0  0
  139.7020   72.9270  221.6620 C   0  0  0  0  0  0  0  0  0  0  0  0
  139.2230   74.2010  222.0260 C   0  0  0  0  0  0  0  0  0  0  0  0
  138.1814   74.3207  222.3589 H   0  0  0  0  0  0  0  0  0  0  0  0
  140.0450   75.2840  221.9670 N   0  0  0  0  0  0  0  0  0  0  0  0
  141.3360   75.1820  221.5570 C   0  0  0  0  0  0  0  0  0  0  0  0
  141.9763   76.0760  221.5296 H   0  0  0  0  0  0  0  0  0  0  0  0
  141.8500   73.9450  221.1710 C   0  0  0  0  0  0  0  0  0  0  0  0
  142.8930   73.8586  220.8325 H   0  0  0  0  0  0  0  0  0  0  0  0
  141.0290   72.8170  221.2180 C   0  0  0  0  0  0  0  0  0  0  0  0
  141.4233   71.8386  220.9060 H   0  0  0  0  0  0  0  0  0  0  0  0
  1  2  1  0
  2  3  2  0
  3  4  1  0
  3  5  1  0
  5  6  2  0
  6  7  1  0
  7  8  2  0
  8  9  1  0
  8 10  1  0
 10 11  1  0
 10 12  2  0
 12 13  1  0
 12 14  1  0
 14 15  1  0
 14 16  2  0
 16 17  1  0
 17 18  2  0
 17 19  1  0
 19 20  1  0
 20 21  1  0
 20 22  1  0
 20 23  1  0
 23 24  1  0
 23 25  1  0
 23 26  1  0
 26 27  1  0
 26 28  1  0
 26 29  1  0
 29 30  1  0
 30 31  1  0
 30 32  1  0
 30 33  1  0
 33 34  1  0
 33 35  1  0
 33 36  1  0
 36 37  1  0
 37 38  2  0
 38 39  1  0
 38 40  1  0
 40 41  1  0
 40 42  2  0
 42 43  1  0
 42 44  1  0
 44 45  1  0
 44 46  2  0
 46 47  1  0
 36 48  1  0
 48 49  1  0
 48 50  1  0
 48 51  1  0
 51 52  1  0
 51 53  1  0
  2 54  1  0
 54 55  2  0
 55 56  1  0
 55 57  1  0
 57 58  2  0
 58 59  1  0
 58 60  1  0
 60 61  1  0
 60 62  2  0
 62 63  1  0
 19  5  1  0
 51 29  1  0
 62 54  1  0
 16  7  1  0
 46 37  1  0
M  END
>  <UniqueID>  (17) 
604

>  <SMILES>  (17) 
O=c1c2ccccc2nc(/C=C/c2cccnc2)n1CCCN1CCN(c2ccccc2)CC1

>  <Energy>  (17) 
89.98523172245278

>  <Genealogy>  (17) 
O=c1c2ccccc2nc(/C=C/c2cccnc2)n1CCCN1CCN(c2ccccc2)CC1 (cis-trans isomerization)
O=c1c2ccccc2nc(/C=C/c2cccnc2)n1CCCN1CCN(c2ccccc2)CC1 (3D coordinates assigned)
O=c1c2ccccc2nc(/C=C/c2cccnc2)n1CCCN1CCN(c2ccccc2)CC1 (nonaromatic ring conformer: 89.98523172245278 kcal/mol)

>  <smiles>  (17) 
O=c1c2ccccc2nc(/C=C/c2cccnc2)n1CCCN1CCN(c2ccccc2)CC1

>  <score_type>  (17) 
oracle

>  <origin>  (17) 
autodockgpu

>  <m_score__min__energy>  (17) 
-9.1400000000000006

>  <m_primary>  (17) 
energy

>  <meeko>  (17) 
{"free_energy": -8.36, "intermolecular_energy": -10.74, "internal_energy": -2.09, "cluster_size": 3, "cluster_id": 3, "rank_in_cluster": 3}

>  <energy>  (17) 
-8.11

>  <cluster_rmsd>  (17) 
0.0

>  <rmsd>  (17) 
269.89

>  <cluster>  (17) 
5

$$$$
IETZWVUTNAYKDK-BUHFOSPRNA-N
     RDKit          3D

 63 67  0  0  0  0  0  0  0  0999 V2000
  143.8652   75.9566  217.5727 H   0  0  0  0  0  0  0  0  0  0  0  0
  143.4450   75.3400  218.3810 C   0  0  0  0  0  0  0  0  0  0  0  0
  142.1410   75.4760  218.6710 C   0  0  0  0  0  0  0  0  0  0  0  0
  141.3957   75.0679  217.9724 H   0  0  0  0  0  0  0  0  0  0  0  0
  141.6690   76.1620  219.9090 C   0  0  0  0  0  0  0  0  0  0  0  0
  142.0950   77.4350  220.1280 N   0  0  0  0  0  0  0  0  0  0  0  0
  141.7050   78.1530  221.2040 C   0  0  0  0  0  0  0  0  0  0  0  0
  142.1790   79.4580  221.3860 C   0  0  0  0  0  0  0  0  0  0  0  0
  142.8750   79.8964  220.6557 H   0  0  0  0  0  0  0  0  0  0  0  0
  141.7690   80.2040  222.4940 C   0  0  0  0  0  0  0  0  0  0  0  0
  142.1439   81.2283  222.6360 H   0  0  0  0  0  0  0  0  0  0  0  0
  140.8830   79.6500  223.4220 C   0  0  0  0  0  0  0  0  0  0  0  0
  140.5599   80.2399  224.2924 H   0  0  0  0  0  0  0  0  0  0  0  0
  140.4060   78.3460  223.2460 C   0  0  0  0  0  0  0  0  0  0  0  0
  139.7096   77.9122  223.9787 H   0  0  0  0  0  0  0  0  0  0  0  0
  140.8170   77.5880  222.1310 C   0  0  0  0  0  0  0  0  0  0  0  0
  140.3720   76.2750  221.9080 C   0  0  0  0  0  0  0  0  0  0  0  0
  139.5570   75.7580  222.7250 O   0  0  0  0  0  0  0  0  0  0  0  0
  140.8140   75.5590  220.8160 N   0  0  0  0  0  0  0  0  0  0  0  0
  140.3940   74.1450  220.6600 C   0  0  0  0  0  0  0  0  0  0  0  0
  139.3250   74.0637  220.9061 H   0  0  0  0  0  0  0  0  0  0  0  0
  140.5886   73.8475  219.6190 H   0  0  0  0  0  0  0  0  0  0  0  0
  141.1890   73.1970  221.5800 C   0  0  0  0  0  0  0  0  0  0  0  0
  141.6463   72.4126  220.9591 H   0  0  0  0  0  0  0  0  0  0  0  0
  141.9396   73.8088  222.1019 H   0  0  0  0  0  0  0  0  0  0  0  0
  140.3280   72.5210  222.6610 C   0  0  0  0  0  0  0  0  0  0  0  0
  140.9787   71.9149  223.3085 H   0  0  0  0  0  0  0  0  0  0  0  0
  139.8215   73.3076  223.2396 H   0  0  0  0  0  0  0  0  0  0  0  0
  139.2930   71.6450  222.0640 N   0  0  0  0  0  0  0  0  0  0  0  0
  139.7610   70.2430  221.8870 C   0  0  0  0  0  0  0  0  0  0  0  0
  139.4607   69.9020  220.8852 H   0  0  0  0  0  0  0  0  0  0  0  0
  140.8527   70.2525  222.0216 H   0  0  0  0  0  0  0  0  0  0  0  0
  139.1920   69.2560  222.9260 C   0  0  0  0  0  0  0  0  0  0  0  0
  138.2379   68.8510  222.5576 H   0  0  0  0  0  0  0  0  0  0  0  0
  139.9137   68.4398  223.0776 H   0  0  0  0  0  0  0  0  0  0  0  0
  138.9670   69.9380  224.2040 N   0  0  0  0  0  0  0  0  0  0  0  0
  139.5690   69.4620  225.4230 C   0  0  0  0  0  0  0  0  0  0  0  0
  140.1600   70.3660  226.3260 C   0  0  0  0  0  0  0  0  0  0  0  0
  140.1544   71.4434  226.1044 H   0  0  0  0  0  0  0  0  0  0  0  0
  140.7540   69.9010  227.5030 C   0  0  0  0  0  0  0  0  0  0  0  0
  141.2096   70.6133  228.2066 H   0  0  0  0  0  0  0  0  0  0  0  0
  140.7700   68.5340  227.7870 C   0  0  0  0  0  0  0  0  0  0  0  0
  141.2350   68.1710  228.7155 H   0  0  0  0  0  0  0  0  0  0  0  0
  140.1960   67.6270  226.8930 C   0  0  0  0  0  0  0  0  0  0  0  0
  140.2129   66.5500  227.1161 H   0  0  0  0  0  0  0  0  0  0  0  0
  139.6000   68.0870  225.7150 C   0  0  0  0  0  0  0  0  0  0  0  0
  139.1526   67.3687  225.0122 H   0  0  0  0  0  0  0  0  0  0  0  0
  138.1310   71.1430  224.2140 C   0  0  0  0  0  0  0  0  0  0  0  0
  137.1281   70.8837  224.5842 H   0  0  0  0  0  0  0  0  0  0  0  0
  138.5981   71.8921  224.8702 H   0  0  0  0  0  0  0  0  0  0  0  0
  138.0100   71.7320  222.7990 C   0  0  0  0  0  0  0  0  0  0  0  0
  137.2414   71.1741  222.2440 H   0  0  0  0  0  0  0  0  0  0  0  0
  137.7347   72.7932  222.8889 H   0  0  0  0  0  0  0  0  0  0  0  0
  144.3490   74.4040  219.0910 C   0  0  0  0  0  0  0  0  0  0  0  0
  145.0890   73.4060  218.4260 C   0  0  0  0  0  0  0  0  0  0  0  0
  145.0171   73.3067  217.3328 H   0  0  0  0  0  0  0  0  0  0  0  0
  145.8920   72.5650  219.1320 N   0  0  0  0  0  0  0  0  0  0  0  0
  146.0060   72.6480  220.4830 C   0  0  0  0  0  0  0  0  0  0  0  0
  146.6710   71.9571  221.0219 H   0  0  0  0  0  0  0  0  0  0  0  0
  145.2810   73.6080  221.1870 C   0  0  0  0  0  0  0  0  0  0  0  0
  145.3658   73.6757  222.2816 H   0  0  0  0  0  0  0  0  0  0  0  0
  144.4460   74.4830  220.4890 C   0  0  0  0  0  0  0  0  0  0  0  0
  143.8620   75.2371  221.0369 H   0  0  0  0  0  0  0  0  0  0  0  0
  1  2  1  0
  2  3  2  0
  3  4  1  0
  3  5  1  0
  5  6  2  0
  6  7  1  0
  7  8  2  0
  8  9  1  0
  8 10  1  0
 10 11  1  0
 10 12  2  0
 12 13  1  0
 12 14  1  0
 14 15  1  0
 14 16  2  0
 16 17  1  0
 17 18  2  0
 17 19  1  0
 19 20  1  0
 20 21  1  0
 20 22  1  0
 20 23  1  0
 23 24  1  0
 23 25  1  0
 23 26  1  0
 26 27  1  0
 26 28  1  0
 26 29  1  0
 29 30  1  0
 30 31  1  0
 30 32  1  0
 30 33  1  0
 33 34  1  0
 33 35  1  0
 33 36  1  0
 36 37  1  0
 37 38  2  0
 38 39  1  0
 38 40  1  0
 40 41  1  0
 40 42  2  0
 42 43  1  0
 42 44  1  0
 44 45  1  0
 44 46  2  0
 46 47  1  0
 36 48  1  0
 48 49  1  0
 48 50  1  0
 48 51  1  0
 51 52  1  0
 51 53  1  0
  2 54  1  0
 54 55  2  0
 55 56  1  0
 55 57  1  0
 57 58  2  0
 58 59  1  0
 58 60  1  0
 60 61  1  0
 60 62  2  0
 62 63  1  0
 19  5  1  0
 51 29  1  0
 62 54  1  0
 16  7  1  0
 46 37  1  0
M  END
>  <UniqueID>  (18) 
604

>  <SMILES>  (18) 
O=c1c2ccccc2nc(/C=C/c2cccnc2)n1CCCN1CCN(c2ccccc2)CC1

>  <Energy>  (18) 
89.98523172245278

>  <Genealogy>  (18) 
O=c1c2ccccc2nc(/C=C/c2cccnc2)n1CCCN1CCN(c2ccccc2)CC1 (cis-trans isomerization)
O=c1c2ccccc2nc(/C=C/c2cccnc2)n1CCCN1CCN(c2ccccc2)CC1 (3D coordinates assigned)
O=c1c2ccccc2nc(/C=C/c2cccnc2)n1CCCN1CCN(c2ccccc2)CC1 (nonaromatic ring conformer: 89.98523172245278 kcal/mol)

>  <smiles>  (18) 
O=c1c2ccccc2nc(/C=C/c2cccnc2)n1CCCN1CCN(c2ccccc2)CC1

>  <score_type>  (18) 
oracle

>  <origin>  (18) 
autodockgpu

>  <m_score__min__energy>  (18) 
-9.1400000000000006

>  <m_primary>  (18) 
energy

>  <meeko>  (18) 
{"free_energy": -9.14, "intermolecular_energy": -11.53, "internal_energy": -1.66, "cluster_size": 10, "cluster_id": 1, "rank_in_cluster": 1}

>  <energy>  (18) 
-7.42

>  <cluster_rmsd>  (18) 
0.0

>  <rmsd>  (18) 
270.6

>  <cluster>  (18) 
6

$$$$
IETZWVUTNAYKDK-BUHFOSPRNA-N
     RDKit          3D

 63 67  0  0  0  0  0  0  0  0999 V2000
  137.4153   72.2177  221.8868 H   0  0  0  0  0  0  0  0  0  0  0  0
  138.5070   72.2930  221.9990 C   0  0  0  0  0  0  0  0  0  0  0  0
  139.2100   71.1590  222.1550 C   0  0  0  0  0  0  0  0  0  0  0  0
  139.5960   70.6458  221.2619 H   0  0  0  0  0  0  0  0  0  0  0  0
  139.4850   70.5720  223.4990 C   0  0  0  0  0  0  0  0  0  0  0  0
  139.9860   71.3950  224.4590 N   0  0  0  0  0  0  0  0  0  0  0  0
  140.2450   70.9690  225.7140 C   0  0  0  0  0  0  0  0  0  0  0  0
  140.7670   71.8570  226.6630 C   0  0  0  0  0  0  0  0  0  0  0  0
  140.9724   72.9011  226.3841 H   0  0  0  0  0  0  0  0  0  0  0  0
  141.0270   71.4180  227.9630 C   0  0  0  0  0  0  0  0  0  0  0  0
  141.4401   72.1159  228.7062 H   0  0  0  0  0  0  0  0  0  0  0  0
  140.7630   70.0930  228.3210 C   0  0  0  0  0  0  0  0  0  0  0  0
  140.9661   69.7508  229.3465 H   0  0  0  0  0  0  0  0  0  0  0  0
  140.2410   69.2010  227.3780 C   0  0  0  0  0  0  0  0  0  0  0  0
  140.0355   68.1585  227.6627 H   0  0  0  0  0  0  0  0  0  0  0  0
  139.9780   69.6370  226.0630 C   0  0  0  0  0  0  0  0  0  0  0  0
  139.4580   68.7830  225.0770 C   0  0  0  0  0  0  0  0  0  0  0  0
  139.1970   67.5840  225.3820 O   0  0  0  0  0  0  0  0  0  0  0  0
  139.2360   69.2430  223.7970 N   0  0  0  0  0  0  0  0  0  0  0  0
  138.7700   68.2920  222.7570 C   0  0  0  0  0  0  0  0  0  0  0  0
  139.1108   68.6477  221.7735 H   0  0  0  0  0  0  0  0  0  0  0  0
  139.1891   67.3025  222.9921 H   0  0  0  0  0  0  0  0  0  0  0  0
  137.2350   68.1620  222.7330 C   0  0  0  0  0  0  0  0  0  0  0  0
  136.9059   68.1235  221.6841 H   0  0  0  0  0  0  0  0  0  0  0  0
  136.9807   67.2456  223.2858 H   0  0  0  0  0  0  0  0  0  0  0  0
  136.5060   69.3250  223.4290 C   0  0  0  0  0  0  0  0  0  0  0  0
  137.1620   69.7435  224.2065 H   0  0  0  0  0  0  0  0  0  0  0  0
  136.2639   70.0833  222.6698 H   0  0  0  0  0  0  0  0  0  0  0  0
  135.2410   68.8770  224.0570 N   0  0  0  0  0  0  0  0  0  0  0  0
  135.1570   69.2410  225.4980 C   0  0  0  0  0  0  0  0  0  0  0  0
  134.7882   68.3668  226.0545 H   0  0  0  0  0  0  0  0  0  0  0  0
  136.1673   69.5458  225.8084 H   0  0  0  0  0  0  0  0  0  0  0  0
  134.2230   70.4310  225.7910 C   0  0  0  0  0  0  0  0  0  0  0  0
  133.2010   70.0586  225.9548 H   0  0  0  0  0  0  0  0  0  0  0  0
  134.5814   70.9548  226.6895 H   0  0  0  0  0  0  0  0  0  0  0  0
  134.2220   71.3660  224.6620 N   0  0  0  0  0  0  0  0  0  0  0  0
  134.5570   72.7560  224.8400 C   0  0  0  0  0  0  0  0  0  0  0  0
  133.9830   73.4980  225.8890 C   0  0  0  0  0  0  0  0  0  0  0  0
  133.2826   73.0114  226.5837 H   0  0  0  0  0  0  0  0  0  0  0  0
  134.2980   74.8500  226.0530 C   0  0  0  0  0  0  0  0  0  0  0  0
  133.8489   75.4226  226.8779 H   0  0  0  0  0  0  0  0  0  0  0  0
  135.1830   75.4750  225.1700 C   0  0  0  0  0  0  0  0  0  0  0  0
  135.4331   76.5379  225.3030 H   0  0  0  0  0  0  0  0  0  0  0  0
  135.7500   74.7510  224.1190 C   0  0  0  0  0  0  0  0  0  0  0  0
  136.4434   75.2451  223.4226 H   0  0  0  0  0  0  0  0  0  0  0  0
  135.4370   73.3980  223.9510 C   0  0  0  0  0  0  0  0  0  0  0  0
  135.8819   72.8331  223.1186 H   0  0  0  0  0  0  0  0  0  0  0  0
  133.8980   70.8490  223.3280 C   0  0  0  0  0  0  0  0  0  0  0  0
  132.8582   71.1104  223.0820 H   0  0  0  0  0  0  0  0  0  0  0  0
  134.5870   71.2978  222.5974 H   0  0  0  0  0  0  0  0  0  0  0  0
  134.0580   69.3210  223.2850 C   0  0  0  0  0  0  0  0  0  0  0  0
  133.1574   68.8552  223.7117 H   0  0  0  0  0  0  0  0  0  0  0  0
  134.1966   69.0180  222.2367 H   0  0  0  0  0  0  0  0  0  0  0  0
  139.1240   73.6400  221.9700 C   0  0  0  0  0  0  0  0  0  0  0  0
  140.5190   73.8400  221.9560 C   0  0  0  0  0  0  0  0  0  0  0  0
  141.1970   72.9738  221.9539 H   0  0  0  0  0  0  0  0  0  0  0  0
  141.0300   75.1010  221.9450 N   0  0  0  0  0  0  0  0  0  0  0  0
  140.2300   76.1990  221.9500 C   0  0  0  0  0  0  0  0  0  0  0  0
  140.6760   77.2043  221.9304 H   0  0  0  0  0  0  0  0  0  0  0  0
  138.8440   76.0520  221.9800 C   0  0  0  0  0  0  0  0  0  0  0  0
  138.1917   76.9377  221.9909 H   0  0  0  0  0  0  0  0  0  0  0  0
  138.2920   74.7700  221.9960 C   0  0  0  0  0  0  0  0  0  0  0  0
  137.1997   74.6448  222.0292 H   0  0  0  0  0  0  0  0  0  0  0  0
  1  2  1  0
  2  3  2  0
  3  4  1  0
  3  5  1  0
  5  6  2  0
  6  7  1  0
  7  8  2  0
  8  9  1  0
  8 10  1  0
 10 11  1  0
 10 12  2  0
 12 13  1  0
 12 14  1  0
 14 15  1  0
 14 16  2  0
 16 17  1  0
 17 18  2  0
 17 19  1  0
 19 20  1  0
 20 21  1  0
 20 22  1  0
 20 23  1  0
 23 24  1  0
 23 25  1  0
 23 26  1  0
 26 27  1  0
 26 28  1  0
 26 29  1  0
 29 30  1  0
 30 31  1  0
 30 32  1  0
 30 33  1  0
 33 34  1  0
 33 35  1  0
 33 36  1  0
 36 37  1  0
 37 38  2  0
 38 39  1  0
 38 40  1  0
 40 41  1  0
 40 42  2  0
 42 43  1  0
 42 44  1  0
 44 45  1  0
 44 46  2  0
 46 47  1  0
 36 48  1  0
 48 49  1  0
 48 50  1  0
 48 51  1  0
 51 52  1  0
 51 53  1  0
  2 54  1  0
 54 55  2  0
 55 56  1  0
 55 57  1  0
 57 58  2  0
 58 59  1  0
 58 60  1  0
 60 61  1  0
 60 62  2  0
 62 63  1  0
 19  5  1  0
 51 29  1  0
 62 54  1  0
 16  7  1  0
 46 37  1  0
M  END
>  <UniqueID>  (19) 
604

>  <SMILES>  (19) 
O=c1c2ccccc2nc(/C=C/c2cccnc2)n1CCCN1CCN(c2ccccc2)CC1

>  <Energy>  (19) 
89.98523172245278

>  <Genealogy>  (19) 
O=c1c2ccccc2nc(/C=C/c2cccnc2)n1CCCN1CCN(c2ccccc2)CC1 (cis-trans isomerization)
O=c1c2ccccc2nc(/C=C/c2cccnc2)n1CCCN1CCN(c2ccccc2)CC1 (3D coordinates assigned)
O=c1c2ccccc2nc(/C=C/c2cccnc2)n1CCCN1CCN(c2ccccc2)CC1 (nonaromatic ring conformer: 89.98523172245278 kcal/mol)

>  <smiles>  (19) 
O=c1c2ccccc2nc(/C=C/c2cccnc2)n1CCCN1CCN(c2ccccc2)CC1

>  <score_type>  (19) 
oracle

>  <origin>  (19) 
autodockgpu

>  <m_score__min__energy>  (19) 
-9.1400000000000006

>  <m_primary>  (19) 
energy

>  <meeko>  (19) 
{"free_energy": -8.41, "intermolecular_energy": -10.8, "internal_energy": -2.34, "cluster_size": 3, "cluster_id": 3, "rank_in_cluster": 2}

>  <energy>  (19) 
-6.98

>  <cluster_rmsd>  (19) 
0.0

>  <rmsd>  (19) 
269.44

>  <cluster>  (19) 
7

$$$$
IETZWVUTNAYKDK-BUHFOSPRNA-N
     RDKit          3D

 63 67  0  0  0  0  0  0  0  0999 V2000
  139.5030   70.1787  222.7259 H   0  0  0  0  0  0  0  0  0  0  0  0
  139.6120   71.0980  223.3200 C   0  0  0  0  0  0  0  0  0  0  0  0
  139.4120   72.2770  222.7090 C   0  0  0  0  0  0  0  0  0  0  0  0
  138.3959   72.6978  222.6848 H   0  0  0  0  0  0  0  0  0  0  0  0
  140.5220   73.0350  222.0620 C   0  0  0  0  0  0  0  0  0  0  0  0
  141.6200   72.3350  221.6660 N   0  0  0  0  0  0  0  0  0  0  0  0
  142.6670   72.9230  221.0470 C   0  0  0  0  0  0  0  0  0  0  0  0
  143.7760   72.1570  220.6660 C   0  0  0  0  0  0  0  0  0  0  0  0
  143.7970   71.0776  220.8769 H   0  0  0  0  0  0  0  0  0  0  0  0
  144.8560   72.7630  220.0180 C   0  0  0  0  0  0  0  0  0  0  0  0
  145.7271   72.1605  219.7211 H   0  0  0  0  0  0  0  0  0  0  0  0
  144.8300   74.1340  219.7470 C   0  0  0  0  0  0  0  0  0  0  0  0
  145.6800   74.6085  219.2347 H   0  0  0  0  0  0  0  0  0  0  0  0
  143.7250   74.9040  220.1260 C   0  0  0  0  0  0  0  0  0  0  0  0
  143.7083   75.9830  219.9126 H   0  0  0  0  0  0  0  0  0  0  0  0
  142.6330   74.2990  220.7810 C   0  0  0  0  0  0  0  0  0  0  0  0
  141.5010   75.0260  221.1850 C   0  0  0  0  0  0  0  0  0  0  0  0
  141.4480   76.2640  220.9360 O   0  0  0  0  0  0  0  0  0  0  0  0
  140.4630   74.4000  221.8420 N   0  0  0  0  0  0  0  0  0  0  0  0
  139.3240   75.2140  222.3350 C   0  0  0  0  0  0  0  0  0  0  0  0
  138.9819   74.8004  223.2952 H   0  0  0  0  0  0  0  0  0  0  0  0
  139.6731   76.2509  222.4485 H   0  0  0  0  0  0  0  0  0  0  0  0
  138.1420   75.2170  221.3460 C   0  0  0  0  0  0  0  0  0  0  0  0
  137.9930   74.1905  220.9797 H   0  0  0  0  0  0  0  0  0  0  0  0
  137.2668   75.5989  221.8920 H   0  0  0  0  0  0  0  0  0  0  0  0
  138.3530   76.1390  220.1340 C   0  0  0  0  0  0  0  0  0  0  0  0
  139.3819   76.5275  220.1560 H   0  0  0  0  0  0  0  0  0  0  0  0
  138.1736   75.5528  219.2207 H   0  0  0  0  0  0  0  0  0  0  0  0
  137.4080   77.2800  220.1450 N   0  0  0  0  0  0  0  0  0  0  0  0
  137.0970   77.7520  221.5220 C   0  0  0  0  0  0  0  0  0  0  0  0
  136.0109   77.9098  221.5963 H   0  0  0  0  0  0  0  0  0  0  0  0
  137.4614   76.9777  222.2131 H   0  0  0  0  0  0  0  0  0  0  0  0
  137.8050   79.0650  221.9110 C   0  0  0  0  0  0  0  0  0  0  0  0
  137.1780   79.9181  221.6126 H   0  0  0  0  0  0  0  0  0  0  0  0
  137.9639   79.0783  222.9994 H   0  0  0  0  0  0  0  0  0  0  0  0
  139.1030   79.1590  221.2370 N   0  0  0  0  0  0  0  0  0  0  0  0
  140.3220   79.3440  221.9830 C   0  0  0  0  0  0  0  0  0  0  0  0
  140.6400   78.4860  223.0520 C   0  0  0  0  0  0  0  0  0  0  0  0
  139.9585   77.6633  223.3141 H   0  0  0  0  0  0  0  0  0  0  0  0
  141.8170   78.6730  223.7830 C   0  0  0  0  0  0  0  0  0  0  0  0
  142.0609   77.9951  224.6143 H   0  0  0  0  0  0  0  0  0  0  0  0
  142.6840   79.7200  223.4590 C   0  0  0  0  0  0  0  0  0  0  0  0
  143.6113   79.8639  224.0330 H   0  0  0  0  0  0  0  0  0  0  0  0
  142.3730   80.5840  222.4060 C   0  0  0  0  0  0  0  0  0  0  0  0
  143.0541   81.4101  222.1540 H   0  0  0  0  0  0  0  0  0  0  0  0
  141.1970   80.4000  221.6720 C   0  0  0  0  0  0  0  0  0  0  0  0
  140.9550   81.0854  220.8464 H   0  0  0  0  0  0  0  0  0  0  0  0
  139.1430   79.0360  219.7760 C   0  0  0  0  0  0  0  0  0  0  0  0
  139.2406   80.0374  219.3315 H   0  0  0  0  0  0  0  0  0  0  0  0
  140.0031   78.4100  219.4963 H   0  0  0  0  0  0  0  0  0  0  0  0
  137.8570   78.3740  219.2530 C   0  0  0  0  0  0  0  0  0  0  0  0
  137.0636   79.1334  219.1915 H   0  0  0  0  0  0  0  0  0  0  0  0
  138.0676   77.9465  218.2616 H   0  0  0  0  0  0  0  0  0  0  0  0
  139.9720   70.9690  224.7530 C   0  0  0  0  0  0  0  0  0  0  0  0
  140.8070   71.8910  225.4150 C   0  0  0  0  0  0  0  0  0  0  0  0
  141.2095   72.7566  224.8685 H   0  0  0  0  0  0  0  0  0  0  0  0
  141.1170   71.7140  226.7280 N   0  0  0  0  0  0  0  0  0  0  0  0
  140.6460   70.6570  227.4390 C   0  0  0  0  0  0  0  0  0  0  0  0
  140.9085   70.5487  228.5017 H   0  0  0  0  0  0  0  0  0  0  0  0
  139.8300   69.7090  226.8230 C   0  0  0  0  0  0  0  0  0  0  0  0
  139.4508   68.8481  227.3931 H   0  0  0  0  0  0  0  0  0  0  0  0
  139.4990   69.8630  225.4760 C   0  0  0  0  0  0  0  0  0  0  0  0
  138.8647   69.1143  224.9789 H   0  0  0  0  0  0  0  0  0  0  0  0
  1  2  1  0
  2  3  2  0
  3  4  1  0
  3  5  1  0
  5  6  2  0
  6  7  1  0
  7  8  2  0
  8  9  1  0
  8 10  1  0
 10 11  1  0
 10 12  2  0
 12 13  1  0
 12 14  1  0
 14 15  1  0
 14 16  2  0
 16 17  1  0
 17 18  2  0
 17 19  1  0
 19 20  1  0
 20 21  1  0
 20 22  1  0
 20 23  1  0
 23 24  1  0
 23 25  1  0
 23 26  1  0
 26 27  1  0
 26 28  1  0
 26 29  1  0
 29 30  1  0
 30 31  1  0
 30 32  1  0
 30 33  1  0
 33 34  1  0
 33 35  1  0
 33 36  1  0
 36 37  1  0
 37 38  2  0
 38 39  1  0
 38 40  1  0
 40 41  1  0
 40 42  2  0
 42 43  1  0
 42 44  1  0
 44 45  1  0
 44 46  2  0
 46 47  1  0
 36 48  1  0
 48 49  1  0
 48 50  1  0
 48 51  1  0
 51 52  1  0
 51 53  1  0
  2 54  1  0
 54 55  2  0
 55 56  1  0
 55 57  1  0
 57 58  2  0
 58 59  1  0
 58 60  1  0
 60 61  1  0
 60 62  2  0
 62 63  1  0
 19  5  1  0
 51 29  1  0
 62 54  1  0
 16  7  1  0
 46 37  1  0
M  END
>  <UniqueID>  (20) 
604

>  <SMILES>  (20) 
O=c1c2ccccc2nc(/C=C/c2cccnc2)n1CCCN1CCN(c2ccccc2)CC1

>  <Energy>  (20) 
89.98523172245278

>  <Genealogy>  (20) 
O=c1c2ccccc2nc(/C=C/c2cccnc2)n1CCCN1CCN(c2ccccc2)CC1 (cis-trans isomerization)
O=c1c2ccccc2nc(/C=C/c2cccnc2)n1CCCN1CCN(c2ccccc2)CC1 (3D coordinates assigned)
O=c1c2ccccc2nc(/C=C/c2cccnc2)n1CCCN1CCN(c2ccccc2)CC1 (nonaromatic ring conformer: 89.98523172245278 kcal/mol)

>  <smiles>  (20) 
O=c1c2ccccc2nc(/C=C/c2cccnc2)n1CCCN1CCN(c2ccccc2)CC1

>  <score_type>  (20) 
oracle

>  <origin>  (20) 
autodockgpu

>  <m_score__min__energy>  (20) 
-9.1400000000000006

>  <m_primary>  (20) 
energy

>  <meeko>  (20) 
{"free_energy": -7.42, "intermolecular_energy": -9.81, "internal_energy": -2.12, "cluster_size": 1, "cluster_id": 6, "rank_in_cluster": 1}

>  <energy>  (20) 
-6.57

>  <cluster_rmsd>  (20) 
0.0

>  <rmsd>  (20) 
270.93

>  <cluster>  (20) 
8

$$$$
IETZWVUTNAYKDK-BUHFOSPRNA-N
     RDKit          3D

 63 67  0  0  0  0  0  0  0  0999 V2000
  136.6480   72.6776  222.7180 H   0  0  0  0  0  0  0  0  0  0  0  0
  137.6480   72.2580  222.5340 C   0  0  0  0  0  0  0  0  0  0  0  0
  137.8050   70.9270  222.6220 C   0  0  0  0  0  0  0  0  0  0  0  0
  137.3566   70.2866  221.8481 H   0  0  0  0  0  0  0  0  0  0  0  0
  138.5670   70.2880  223.7340 C   0  0  0  0  0  0  0  0  0  0  0  0
  139.1060   71.1020  224.6820 N   0  0  0  0  0  0  0  0  0  0  0  0
  139.7910   70.6220  225.7430 C   0  0  0  0  0  0  0  0  0  0  0  0
  140.3330   71.5040  226.6860 C   0  0  0  0  0  0  0  0  0  0  0  0
  140.2074   72.5894  226.5589 H   0  0  0  0  0  0  0  0  0  0  0  0
  141.0330   71.0070  227.7880 C   0  0  0  0  0  0  0  0  0  0  0  0
  141.4587   71.7014  228.5273 H   0  0  0  0  0  0  0  0  0  0  0  0
  141.1930   69.6290  227.9520 C   0  0  0  0  0  0  0  0  0  0  0  0
  141.7438   69.2401  228.8211 H   0  0  0  0  0  0  0  0  0  0  0  0
  140.6540   68.7420  227.0130 C   0  0  0  0  0  0  0  0  0  0  0  0
  140.7815   67.6575  227.1453 H   0  0  0  0  0  0  0  0  0  0  0  0
  139.9480   69.2370  225.8980 C   0  0  0  0  0  0  0  0  0  0  0  0
  139.3900   68.3920  224.9250 C   0  0  0  0  0  0  0  0  0  0  0  0
  139.5080   67.1410  225.0610 O   0  0  0  0  0  0  0  0  0  0  0  0
  138.7250   68.9170  223.8380 N   0  0  0  0  0  0  0  0  0  0  0  0
  138.2260   68.0000  222.7830 C   0  0  0  0  0  0  0  0  0  0  0  0
  137.9611   67.0379  223.2458 H   0  0  0  0  0  0  0  0  0  0  0  0
  137.3509   68.4710  222.3115 H   0  0  0  0  0  0  0  0  0  0  0  0
  139.2790   67.7500  221.6850 C   0  0  0  0  0  0  0  0  0  0  0  0
  140.0759   67.1186  222.1049 H   0  0  0  0  0  0  0  0  0  0  0  0
  138.7598   67.2656  220.8449 H   0  0  0  0  0  0  0  0  0  0  0  0
  139.9170   69.0380  221.1380 C   0  0  0  0  0  0  0  0  0  0  0  0
  139.6353   69.8798  221.7876 H   0  0  0  0  0  0  0  0  0  0  0  0
  141.0085   68.9021  221.1228 H   0  0  0  0  0  0  0  0  0  0  0  0
  139.4660   69.3250  219.7560 N   0  0  0  0  0  0  0  0  0  0  0  0
  139.0780   70.7500  219.5640 C   0  0  0  0  0  0  0  0  0  0  0  0
  138.1310   70.7785  219.0051 H   0  0  0  0  0  0  0  0  0  0  0  0
  138.9913   71.1944  220.5665 H   0  0  0  0  0  0  0  0  0  0  0  0
  140.1210   71.5850  218.7940 C   0  0  0  0  0  0  0  0  0  0  0  0
  139.9175   71.5149  217.7153 H   0  0  0  0  0  0  0  0  0  0  0  0
  140.0542   72.6328  219.1223 H   0  0  0  0  0  0  0  0  0  0  0  0
  141.4720   71.0850  219.0650 N   0  0  0  0  0  0  0  0  0  0  0  0
  142.5000   71.9500  219.5840 C   0  0  0  0  0  0  0  0  0  0  0  0
  142.5530   73.3030  219.2030 C   0  0  0  0  0  0  0  0  0  0  0  0
  141.7985   73.7060  218.5114 H   0  0  0  0  0  0  0  0  0  0  0  0
  143.5590   74.1390  219.6980 C   0  0  0  0  0  0  0  0  0  0  0  0
  143.5900   75.1974  219.3999 H   0  0  0  0  0  0  0  0  0  0  0  0
  144.5250   73.6310  220.5710 C   0  0  0  0  0  0  0  0  0  0  0  0
  145.3138   74.2904  220.9621 H   0  0  0  0  0  0  0  0  0  0  0  0
  144.4890   72.2860  220.9470 C   0  0  0  0  0  0  0  0  0  0  0  0
  145.2522   71.8863  221.6310 H   0  0  0  0  0  0  0  0  0  0  0  0
  143.4840   71.4470  220.4550 C   0  0  0  0  0  0  0  0  0  0  0  0
  143.4627   70.3877  220.7507 H   0  0  0  0  0  0  0  0  0  0  0  0
  141.7530   69.6670  218.8200 C   0  0  0  0  0  0  0  0  0  0  0  0
  142.2923   69.5651  217.8667 H   0  0  0  0  0  0  0  0  0  0  0  0
  142.3650   69.2794  219.6477 H   0  0  0  0  0  0  0  0  0  0  0  0
  140.4470   68.8590  218.7500 C   0  0  0  0  0  0  0  0  0  0  0  0
  140.0106   68.9712  217.7465 H   0  0  0  0  0  0  0  0  0  0  0  0
  140.6817   67.8049  218.9593 H   0  0  0  0  0  0  0  0  0  0  0  0
  138.7510   73.1920  222.2020 C   0  0  0  0  0  0  0  0  0  0  0  0
  140.1090   72.8210  222.2620 C   0  0  0  0  0  0  0  0  0  0  0  0
  140.3855   71.7969  222.5530 H   0  0  0  0  0  0  0  0  0  0  0  0
  141.0790   73.7260  221.9610 N   0  0  0  0  0  0  0  0  0  0  0  0
  140.7840   75.0020  221.6010 C   0  0  0  0  0  0  0  0  0  0  0  0
  141.5935   75.7051  221.3551 H   0  0  0  0  0  0  0  0  0  0  0  0
  139.4550   75.4210  221.5430 C   0  0  0  0  0  0  0  0  0  0  0  0
  139.2104   76.4548  221.2575 H   0  0  0  0  0  0  0  0  0  0  0  0
  138.4380   74.5150  221.8510 C   0  0  0  0  0  0  0  0  0  0  0  0
  137.3873   74.8391  221.8185 H   0  0  0  0  0  0  0  0  0  0  0  0
  1  2  1  0
  2  3  2  0
  3  4  1  0
  3  5  1  0
  5  6  2  0
  6  7  1  0
  7  8  2  0
  8  9  1  0
  8 10  1  0
 10 11  1  0
 10 12  2  0
 12 13  1  0
 12 14  1  0
 14 15  1  0
 14 16  2  0
 16 17  1  0
 17 18  2  0
 17 19  1  0
 19 20  1  0
 20 21  1  0
 20 22  1  0
 20 23  1  0
 23 24  1  0
 23 25  1  0
 23 26  1  0
 26 27  1  0
 26 28  1  0
 26 29  1  0
 29 30  1  0
 30 31  1  0
 30 32  1  0
 30 33  1  0
 33 34  1  0
 33 35  1  0
 33 36  1  0
 36 37  1  0
 37 38  2  0
 38 39  1  0
 38 40  1  0
 40 41  1  0
 40 42  2  0
 42 43  1  0
 42 44  1  0
 44 45  1  0
 44 46  2  0
 46 47  1  0
 36 48  1  0
 48 49  1  0
 48 50  1  0
 48 51  1  0
 51 52  1  0
 51 53  1  0
  2 54  1  0
 54 55  2  0
 55 56  1  0
 55 57  1  0
 57 58  2  0
 58 59  1  0
 58 60  1  0
 60 61  1  0
 60 62  2  0
 62 63  1  0
 19  5  1  0
 51 29  1  0
 62 54  1  0
 16  7  1  0
 46 37  1  0
M  END
>  <UniqueID>  (21) 
605

>  <SMILES>  (21) 
O=c1c2ccccc2nc(/C=C/c2cccnc2)n1CCCN1CCN(c2ccccc2)CC1

>  <Energy>  (21) 
90.34088226420579

>  <Genealogy>  (21) 
O=c1c2ccccc2nc(/C=C/c2cccnc2)n1CCCN1CCN(c2ccccc2)CC1 (cis-trans isomerization)
O=c1c2ccccc2nc(/C=C/c2cccnc2)n1CCCN1CCN(c2ccccc2)CC1 (3D coordinates assigned)
O=c1c2ccccc2nc(/C=C/c2cccnc2)n1CCCN1CCN(c2ccccc2)CC1 (nonaromatic ring conformer: 90.34088226420579 kcal/mol)

>  <smiles>  (21) 
O=c1c2ccccc2nc(/C=C/c2cccnc2)n1CCCN1CCN(c2ccccc2)CC1

>  <score_type>  (21) 
oracle

>  <origin>  (21) 
autodockgpu

>  <m_score__min__energy>  (21) 
-9.1400000000000006

>  <m_primary>  (21) 
energy

>  <meeko>  (21) 
{"free_energy": -6.98, "intermolecular_energy": -9.37, "internal_energy": -2.79, "cluster_size": 1, "cluster_id": 7, "rank_in_cluster": 1}

>  <energy>  (21) 
-9.14

>  <cluster_rmsd>  (21) 
0.0

>  <rmsd>  (21) 
270.58

>  <cluster>  (21) 
1

$$$$
IETZWVUTNAYKDK-BUHFOSPRNA-N
     RDKit          3D

 63 67  0  0  0  0  0  0  0  0999 V2000
  135.8966   77.0827  223.8992 H   0  0  0  0  0  0  0  0  0  0  0  0
  136.0910   76.0220  223.6820 C   0  0  0  0  0  0  0  0  0  0  0  0
  136.9570   75.7230  222.7000 C   0  0  0  0  0  0  0  0  0  0  0  0
  136.7029   74.9185  221.9942 H   0  0  0  0  0  0  0  0  0  0  0  0
  138.2520   76.4450  222.5340 C   0  0  0  0  0  0  0  0  0  0  0  0
  138.3600   77.6850  223.0810 N   0  0  0  0  0  0  0  0  0  0  0  0
  139.4970   78.4110  223.0090 C   0  0  0  0  0  0  0  0  0  0  0  0
  139.5520   79.6870  223.5840 C   0  0  0  0  0  0  0  0  0  0  0  0
  138.6664   80.1014  224.0879 H   0  0  0  0  0  0  0  0  0  0  0  0
  140.7310   80.4340  223.5180 C   0  0  0  0  0  0  0  0  0  0  0  0
  140.7724   81.4363  223.9694 H   0  0  0  0  0  0  0  0  0  0  0  0
  141.8580   79.9090  222.8790 C   0  0  0  0  0  0  0  0  0  0  0  0
  142.7856   80.4982  222.8296 H   0  0  0  0  0  0  0  0  0  0  0  0
  141.8080   78.6350  222.3020 C   0  0  0  0  0  0  0  0  0  0  0  0
  142.6959   78.2252  221.7984 H   0  0  0  0  0  0  0  0  0  0  0  0
  140.6220   77.8760  222.3650 C   0  0  0  0  0  0  0  0  0  0  0  0
  140.5170   76.5950  221.8000 C   0  0  0  0  0  0  0  0  0  0  0  0
  141.5280   76.0930  221.2310 O   0  0  0  0  0  0  0  0  0  0  0  0
  139.3310   75.8940  221.8640 N   0  0  0  0  0  0  0  0  0  0  0  0
  139.2290   74.5820  221.1790 C   0  0  0  0  0  0  0  0  0  0  0  0
  138.3747   74.6091  220.4866 H   0  0  0  0  0  0  0  0  0  0  0  0
  140.1730   74.4063  220.6424 H   0  0  0  0  0  0  0  0  0  0  0  0
  139.0260   73.4220  222.1730 C   0  0  0  0  0  0  0  0  0  0  0  0
  139.3625   73.7528  223.1667 H   0  0  0  0  0  0  0  0  0  0  0  0
  137.9561   73.1671  222.1565 H   0  0  0  0  0  0  0  0  0  0  0  0
  139.7990   72.1460  221.7980 C   0  0  0  0  0  0  0  0  0  0  0  0
  140.3075   72.3062  220.8358 H   0  0  0  0  0  0  0  0  0  0  0  0
  140.5265   71.9368  222.5961 H   0  0  0  0  0  0  0  0  0  0  0  0
  138.8950   70.9780  221.6760 N   0  0  0  0  0  0  0  0  0  0  0  0
  139.5690   69.6940  222.0170 C   0  0  0  0  0  0  0  0  0  0  0  0
  139.2995   68.9486  221.2543 H   0  0  0  0  0  0  0  0  0  0  0  0
  140.6493   69.8992  222.0454 H   0  0  0  0  0  0  0  0  0  0  0  0
  139.1850   69.1330  223.4000 C   0  0  0  0  0  0  0  0  0  0  0  0
  138.2950   68.4945  223.2985 H   0  0  0  0  0  0  0  0  0  0  0  0
  140.0269   68.5451  223.7945 H   0  0  0  0  0  0  0  0  0  0  0  0
  138.8910   70.2290  224.3290 N   0  0  0  0  0  0  0  0  0  0  0  0
  139.5900   70.3570  225.5820 C   0  0  0  0  0  0  0  0  0  0  0  0
  140.3760   71.4940  225.8470 C   0  0  0  0  0  0  0  0  0  0  0  0
  140.4503   72.2945  225.0962 H   0  0  0  0  0  0  0  0  0  0  0  0
  141.0630   71.6120  227.0590 C   0  0  0  0  0  0  0  0  0  0  0  0
  141.6703   72.5066  227.2615 H   0  0  0  0  0  0  0  0  0  0  0  0
  140.9790   70.5950  228.0130 C   0  0  0  0  0  0  0  0  0  0  0  0
  141.5181   70.6909  228.9670 H   0  0  0  0  0  0  0  0  0  0  0  0
  140.2110   69.4560  227.7570 C   0  0  0  0  0  0  0  0  0  0  0  0
  140.1490   68.6544  228.5078 H   0  0  0  0  0  0  0  0  0  0  0  0
  139.5210   69.3350  226.5460 C   0  0  0  0  0  0  0  0  0  0  0  0
  138.9208   68.4350  226.3465 H   0  0  0  0  0  0  0  0  0  0  0  0
  137.8800   71.2180  223.9420 C   0  0  0  0  0  0  0  0  0  0  0  0
  136.9387   70.9962  224.4662 H   0  0  0  0  0  0  0  0  0  0  0  0
  138.2425   72.2198  224.2157 H   0  0  0  0  0  0  0  0  0  0  0  0
  137.6340   71.1790  222.4250 C   0  0  0  0  0  0  0  0  0  0  0  0
  136.9462   70.3518  222.1956 H   0  0  0  0  0  0  0  0  0  0  0  0
  137.2017   72.1436  222.1205 H   0  0  0  0  0  0  0  0  0  0  0  0
  135.3830   75.0000  224.4890 C   0  0  0  0  0  0  0  0  0  0  0  0
  134.6910   75.3100  225.6770 C   0  0  0  0  0  0  0  0  0  0  0  0
  134.6515   76.3501  226.0327 H   0  0  0  0  0  0  0  0  0  0  0  0
  134.0720   74.3280  226.3850 N   0  0  0  0  0  0  0  0  0  0  0  0
  134.0990   73.0300  225.9850 C   0  0  0  0  0  0  0  0  0  0  0  0
  133.5791   72.2618  226.5762 H   0  0  0  0  0  0  0  0  0  0  0  0
  134.7850   72.6710  224.8260 C   0  0  0  0  0  0  0  0  0  0  0  0
  134.8155   71.6204  224.5015 H   0  0  0  0  0  0  0  0  0  0  0  0
  135.4330   73.6580  224.0810 C   0  0  0  0  0  0  0  0  0  0  0  0
  135.9851   73.3827  223.1703 H   0  0  0  0  0  0  0  0  0  0  0  0
  1  2  1  0
  2  3  2  0
  3  4  1  0
  3  5  1  0
  5  6  2  0
  6  7  1  0
  7  8  2  0
  8  9  1  0
  8 10  1  0
 10 11  1  0
 10 12  2  0
 12 13  1  0
 12 14  1  0
 14 15  1  0
 14 16  2  0
 16 17  1  0
 17 18  2  0
 17 19  1  0
 19 20  1  0
 20 21  1  0
 20 22  1  0
 20 23  1  0
 23 24  1  0
 23 25  1  0
 23 26  1  0
 26 27  1  0
 26 28  1  0
 26 29  1  0
 29 30  1  0
 30 31  1  0
 30 32  1  0
 30 33  1  0
 33 34  1  0
 33 35  1  0
 33 36  1  0
 36 37  1  0
 37 38  2  0
 38 39  1  0
 38 40  1  0
 40 41  1  0
 40 42  2  0
 42 43  1  0
 42 44  1  0
 44 45  1  0
 44 46  2  0
 46 47  1  0
 36 48  1  0
 48 49  1  0
 48 50  1  0
 48 51  1  0
 51 52  1  0
 51 53  1  0
  2 54  1  0
 54 55  2  0
 55 56  1  0
 55 57  1  0
 57 58  2  0
 58 59  1  0
 58 60  1  0
 60 61  1  0
 60 62  2  0
 62 63  1  0
 19  5  1  0
 51 29  1  0
 62 54  1  0
 16  7  1  0
 46 37  1  0
M  END
>  <UniqueID>  (22) 
605

>  <SMILES>  (22) 
O=c1c2ccccc2nc(/C=C/c2cccnc2)n1CCCN1CCN(c2ccccc2)CC1

>  <Energy>  (22) 
90.34088226420579

>  <Genealogy>  (22) 
O=c1c2ccccc2nc(/C=C/c2cccnc2)n1CCCN1CCN(c2ccccc2)CC1 (cis-trans isomerization)
O=c1c2ccccc2nc(/C=C/c2cccnc2)n1CCCN1CCN(c2ccccc2)CC1 (3D coordinates assigned)
O=c1c2ccccc2nc(/C=C/c2cccnc2)n1CCCN1CCN(c2ccccc2)CC1 (nonaromatic ring conformer: 90.34088226420579 kcal/mol)

>  <smiles>  (22) 
O=c1c2ccccc2nc(/C=C/c2cccnc2)n1CCCN1CCN(c2ccccc2)CC1

>  <score_type>  (22) 
oracle

>  <origin>  (22) 
autodockgpu

>  <m_score__min__energy>  (22) 
-9.1400000000000006

>  <m_primary>  (22) 
energy

>  <meeko>  (22) 
{"free_energy": -8.64, "intermolecular_energy": -11.03, "internal_energy": -1.64, "cluster_size": 2, "cluster_id": 2, "rank_in_cluster": 1}

>  <energy>  (22) 
-9.11

>  <cluster_rmsd>  (22) 
0.82

>  <rmsd>  (22) 
270.76

>  <cluster>  (22) 
1

$$$$
IETZWVUTNAYKDK-BUHFOSPRNA-N
     RDKit          3D

 63 67  0  0  0  0  0  0  0  0999 V2000
  142.3687   79.8857  219.3151 H   0  0  0  0  0  0  0  0  0  0  0  0
  141.7460   79.4740  220.1230 C   0  0  0  0  0  0  0  0  0  0  0  0
  140.9170   78.4590  219.8320 C   0  0  0  0  0  0  0  0  0  0  0  0
  139.9770   78.6753  219.3031 H   0  0  0  0  0  0  0  0  0  0  0  0
  141.2280   77.0470  220.2020 C   0  0  0  0  0  0  0  0  0  0  0  0
  142.4390   76.5480  219.8330 N   0  0  0  0  0  0  0  0  0  0  0  0
  142.8270   75.2920  220.1420 C   0  0  0  0  0  0  0  0  0  0  0  0
  144.0820   74.8250  219.7310 C   0  0  0  0  0  0  0  0  0  0  0  0
  144.7485   75.4795  219.1502 H   0  0  0  0  0  0  0  0  0  0  0  0
  144.4880   73.5290  220.0580 C   0  0  0  0  0  0  0  0  0  0  0  0
  145.4738   73.1639  219.7342 H   0  0  0  0  0  0  0  0  0  0  0  0
  143.6430   72.6960  220.7960 C   0  0  0  0  0  0  0  0  0  0  0  0
  143.9656   71.6763  221.0531 H   0  0  0  0  0  0  0  0  0  0  0  0
  142.3870   73.1560  221.2090 C   0  0  0  0  0  0  0  0  0  0  0  0
  141.7237   72.4974  221.7889 H   0  0  0  0  0  0  0  0  0  0  0  0
  141.9720   74.4630  220.8820 C   0  0  0  0  0  0  0  0  0  0  0  0
  140.7220   74.9730  221.2670 C   0  0  0  0  0  0  0  0  0  0  0  0
  139.9470   74.2440  221.9500 O   0  0  0  0  0  0  0  0  0  0  0  0
  140.3440   76.2500  220.9080 N   0  0  0  0  0  0  0  0  0  0  0  0
  138.9820   76.7260  221.2550 C   0  0  0  0  0  0  0  0  0  0  0  0
  138.7167   77.5585  220.5868 H   0  0  0  0  0  0  0  0  0  0  0  0
  138.2882   75.8807  221.1360 H   0  0  0  0  0  0  0  0  0  0  0  0
  138.8900   77.2120  222.7140 C   0  0  0  0  0  0  0  0  0  0  0  0
  137.9052   76.9279  223.1134 H   0  0  0  0  0  0  0  0  0  0  0  0
  139.7176   76.7394  223.2634 H   0  0  0  0  0  0  0  0  0  0  0  0
  139.0570   78.7330  222.8700 C   0  0  0  0  0  0  0  0  0  0  0  0
  139.8543   78.9314  223.6014 H   0  0  0  0  0  0  0  0  0  0  0  0
  139.3126   79.1537  221.8863 H   0  0  0  0  0  0  0  0  0  0  0  0
  137.8060   79.3740  223.3370 N   0  0  0  0  0  0  0  0  0  0  0  0
  138.0500   80.6640  224.0400 C   0  0  0  0  0  0  0  0  0  0  0  0
  137.4347   80.6827  224.9516 H   0  0  0  0  0  0  0  0  0  0  0  0
  139.1279   80.7099  224.2547 H   0  0  0  0  0  0  0  0  0  0  0  0
  137.7100   81.9100  223.2010 C   0  0  0  0  0  0  0  0  0  0  0  0
  136.6524   82.1719  223.3522 H   0  0  0  0  0  0  0  0  0  0  0  0
  138.3535   82.7431  223.5201 H   0  0  0  0  0  0  0  0  0  0  0  0
  137.9440   81.6440  221.7780 N   0  0  0  0  0  0  0  0  0  0  0  0
  138.8230   82.4740  220.9950 C   0  0  0  0  0  0  0  0  0  0  0  0
  139.2470   82.0570  219.7200 C   0  0  0  0  0  0  0  0  0  0  0  0
  138.8975   81.0959  219.3148 H   0  0  0  0  0  0  0  0  0  0  0  0
  140.1100   82.8570  218.9650 C   0  0  0  0  0  0  0  0  0  0  0  0
  140.4335   82.5264  217.9669 H   0  0  0  0  0  0  0  0  0  0  0  0
  140.5620   84.0760  219.4770 C   0  0  0  0  0  0  0  0  0  0  0  0
  141.2380   84.7060  218.8803 H   0  0  0  0  0  0  0  0  0  0  0  0
  140.1560   84.4950  220.7460 C   0  0  0  0  0  0  0  0  0  0  0  0
  140.5156   85.4531  221.1494 H   0  0  0  0  0  0  0  0  0  0  0  0
  139.2930   83.6980  221.5040 C   0  0  0  0  0  0  0  0  0  0  0  0
  138.9796   84.0303  222.5047 H   0  0  0  0  0  0  0  0  0  0  0  0
  137.2790   80.4880  221.1670 C   0  0  0  0  0  0  0  0  0  0  0  0
  136.4070   80.8346  220.5930 H   0  0  0  0  0  0  0  0  0  0  0  0
  137.9936   79.9781  220.5041 H   0  0  0  0  0  0  0  0  0  0  0  0
  136.8120   79.4980  222.2460 C   0  0  0  0  0  0  0  0  0  0  0  0
  135.8603   79.8527  222.6684 H   0  0  0  0  0  0  0  0  0  0  0  0
  136.6892   78.5103  221.7777 H   0  0  0  0  0  0  0  0  0  0  0  0
  141.8670   80.0700  221.4760 C   0  0  0  0  0  0  0  0  0  0  0  0
  141.7160   81.4500  221.7170 C   0  0  0  0  0  0  0  0  0  0  0  0
  141.4868   82.1306  220.8838 H   0  0  0  0  0  0  0  0  0  0  0  0
  141.8530   81.9430  222.9780 N   0  0  0  0  0  0  0  0  0  0  0  0
  142.1410   81.1400  224.0350 C   0  0  0  0  0  0  0  0  0  0  0  0
  142.2362   81.5706  225.0427 H   0  0  0  0  0  0  0  0  0  0  0  0
  142.3160   79.7700  223.8430 C   0  0  0  0  0  0  0  0  0  0  0  0
  142.5550   79.1162  224.6947 H   0  0  0  0  0  0  0  0  0  0  0  0
  142.1850   79.2360  222.5600 C   0  0  0  0  0  0  0  0  0  0  0  0
  142.3314   78.1580  222.3975 H   0  0  0  0  0  0  0  0  0  0  0  0
  1  2  1  0
  2  3  2  0
  3  4  1  0
  3  5  1  0
  5  6  2  0
  6  7  1  0
  7  8  2  0
  8  9  1  0
  8 10  1  0
 10 11  1  0
 10 12  2  0
 12 13  1  0
 12 14  1  0
 14 15  1  0
 14 16  2  0
 16 17  1  0
 17 18  2  0
 17 19  1  0
 19 20  1  0
 20 21  1  0
 20 22  1  0
 20 23  1  0
 23 24  1  0
 23 25  1  0
 23 26  1  0
 26 27  1  0
 26 28  1  0
 26 29  1  0
 29 30  1  0
 30 31  1  0
 30 32  1  0
 30 33  1  0
 33 34  1  0
 33 35  1  0
 33 36  1  0
 36 37  1  0
 37 38  2  0
 38 39  1  0
 38 40  1  0
 40 41  1  0
 40 42  2  0
 42 43  1  0
 42 44  1  0
 44 45  1  0
 44 46  2  0
 46 47  1  0
 36 48  1  0
 48 49  1  0
 48 50  1  0
 48 51  1  0
 51 52  1  0
 51 53  1  0
  2 54  1  0
 54 55  2  0
 55 56  1  0
 55 57  1  0
 57 58  2  0
 58 59  1  0
 58 60  1  0
 60 61  1  0
 60 62  2  0
 62 63  1  0
 19  5  1  0
 51 29  1  0
 62 54  1  0
 16  7  1  0
 46 37  1  0
M  END
>  <UniqueID>  (23) 
605

>  <SMILES>  (23) 
O=c1c2ccccc2nc(/C=C/c2cccnc2)n1CCCN1CCN(c2ccccc2)CC1

>  <Energy>  (23) 
90.34088226420579

>  <Genealogy>  (23) 
O=c1c2ccccc2nc(/C=C/c2cccnc2)n1CCCN1CCN(c2ccccc2)CC1 (cis-trans isomerization)
O=c1c2ccccc2nc(/C=C/c2cccnc2)n1CCCN1CCN(c2ccccc2)CC1 (3D coordinates assigned)
O=c1c2ccccc2nc(/C=C/c2cccnc2)n1CCCN1CCN(c2ccccc2)CC1 (nonaromatic ring conformer: 90.34088226420579 kcal/mol)

>  <smiles>  (23) 
O=c1c2ccccc2nc(/C=C/c2cccnc2)n1CCCN1CCN(c2ccccc2)CC1

>  <score_type>  (23) 
oracle

>  <origin>  (23) 
autodockgpu

>  <m_score__min__energy>  (23) 
-9.1400000000000006

>  <m_primary>  (23) 
energy

>  <meeko>  (23) 
{"free_energy": -6.57, "intermolecular_energy": -8.96, "internal_energy": -3.03, "cluster_size": 1, "cluster_id": 8, "rank_in_cluster": 1}

>  <energy>  (23) 
-9.01

>  <cluster_rmsd>  (23) 
0.27

>  <rmsd>  (23) 
270.5

>  <cluster>  (23) 
1

$$$$
IETZWVUTNAYKDK-BUHFOSPRNA-N
     RDKit          3D

 63 67  0  0  0  0  0  0  0  0999 V2000
  142.7271   71.7031  218.3788 H   0  0  0  0  0  0  0  0  0  0  0  0
  143.5100   71.5490  219.1360 C   0  0  0  0  0  0  0  0  0  0  0  0
  143.8890   72.6000  219.8820 C   0  0  0  0  0  0  0  0  0  0  0  0
  144.9557   72.7266  220.1188 H   0  0  0  0  0  0  0  0  0  0  0  0
  142.9120   73.6010  220.4000 C   0  0  0  0  0  0  0  0  0  0  0  0
  143.0930   74.9030  220.0480 N   0  0  0  0  0  0  0  0  0  0  0  0
  142.2510   75.8820  220.4430 C   0  0  0  0  0  0  0  0  0  0  0  0
  142.4870   77.2080  220.0580 C   0  0  0  0  0  0  0  0  0  0  0  0
  143.3633   77.4530  219.4399 H   0  0  0  0  0  0  0  0  0  0  0  0
  141.6110   78.2190  220.4580 C   0  0  0  0  0  0  0  0  0  0  0  0
  141.7992   79.2598  220.1557 H   0  0  0  0  0  0  0  0  0  0  0  0
  140.4950   77.9110  221.2420 C   0  0  0  0  0  0  0  0  0  0  0  0
  139.8059   78.7093  221.5548 H   0  0  0  0  0  0  0  0  0  0  0  0
  140.2540   76.5880  221.6290 C   0  0  0  0  0  0  0  0  0  0  0  0
  139.3754   76.3479  222.2458 H   0  0  0  0  0  0  0  0  0  0  0  0
  141.1350   75.5620  221.2300 C   0  0  0  0  0  0  0  0  0  0  0  0
  140.9410   74.2200  221.5940 C   0  0  0  0  0  0  0  0  0  0  0  0
  139.9300   73.9140  222.2880 O   0  0  0  0  0  0  0  0  0  0  0  0
  141.8380   73.2500  221.2000 N   0  0  0  0  0  0  0  0  0  0  0  0
  141.6520   71.8570  221.6770 C   0  0  0  0  0  0  0  0  0  0  0  0
  142.6033   71.3154  221.5690 H   0  0  0  0  0  0  0  0  0  0  0  0
  141.3332   71.8996  222.7289 H   0  0  0  0  0  0  0  0  0  0  0  0
  140.5630   71.1110  220.8820 C   0  0  0  0  0  0  0  0  0  0  0  0
  139.7598   71.8228  220.6408 H   0  0  0  0  0  0  0  0  0  0  0  0
  141.0449   70.7019  219.9818 H   0  0  0  0  0  0  0  0  0  0  0  0
  139.9480   69.9240  221.6420 C   0  0  0  0  0  0  0  0  0  0  0  0
  140.0111   69.0249  221.0114 H   0  0  0  0  0  0  0  0  0  0  0  0
  140.5088   69.7868  222.5783 H   0  0  0  0  0  0  0  0  0  0  0  0
  138.5280   70.1730  221.9840 N   0  0  0  0  0  0  0  0  0  0  0  0
  137.8650   68.9820  222.5840 C   0  0  0  0  0  0  0  0  0  0  0  0
  136.8795   68.8598  222.1109 H   0  0  0  0  0  0  0  0  0  0  0  0
  138.5300   68.1241  222.4056 H   0  0  0  0  0  0  0  0  0  0  0  0
  137.6620   69.0790  224.1080 C   0  0  0  0  0  0  0  0  0  0  0  0
  136.6970   69.5644  224.3155 H   0  0  0  0  0  0  0  0  0  0  0  0
  137.6734   68.0658  224.5361 H   0  0  0  0  0  0  0  0  0  0  0  0
  138.7400   69.8660  224.7150 N   0  0  0  0  0  0  0  0  0  0  0  0
  139.5570   69.3280  225.7720 C   0  0  0  0  0  0  0  0  0  0  0  0
  139.8710   67.9560  225.8030 C   0  0  0  0  0  0  0  0  0  0  0  0
  139.4984   67.2916  225.0094 H   0  0  0  0  0  0  0  0  0  0  0  0
  140.6540   67.4330  226.8370 C   0  0  0  0  0  0  0  0  0  0  0  0
  140.8999   66.3609  226.8515 H   0  0  0  0  0  0  0  0  0  0  0  0
  141.1240   68.2700  227.8510 C   0  0  0  0  0  0  0  0  0  0  0  0
  141.7422   67.8571  228.6618 H   0  0  0  0  0  0  0  0  0  0  0  0
  140.8100   69.6310  227.8370 C   0  0  0  0  0  0  0  0  0  0  0  0
  141.1783   70.2881  228.6386 H   0  0  0  0  0  0  0  0  0  0  0  0
  140.0280   70.1590  226.8050 C   0  0  0  0  0  0  0  0  0  0  0  0
  139.7796   71.2306  226.8008 H   0  0  0  0  0  0  0  0  0  0  0  0
  138.9900   71.2170  224.2020 C   0  0  0  0  0  0  0  0  0  0  0  0
  138.5476   71.9523  224.8902 H   0  0  0  0  0  0  0  0  0  0  0  0
  140.0765   71.3713  224.1260 H   0  0  0  0  0  0  0  0  0  0  0  0
  138.3670   71.3920  222.8080 C   0  0  0  0  0  0  0  0  0  0  0  0
  137.2943   71.6080  222.9206 H   0  0  0  0  0  0  0  0  0  0  0  0
  138.8828   72.2211  222.3015 H   0  0  0  0  0  0  0  0  0  0  0  0
  144.0910   70.1920  219.2790 C   0  0  0  0  0  0  0  0  0  0  0  0
  145.4800   69.9590  219.3220 C   0  0  0  0  0  0  0  0  0  0  0  0
  146.1801   70.8053  219.2616 H   0  0  0  0  0  0  0  0  0  0  0  0
  145.9580   68.6900  219.4380 N   0  0  0  0  0  0  0  0  0  0  0  0
  145.1290   67.6160  219.5110 C   0  0  0  0  0  0  0  0  0  0  0  0
  145.5480   66.6041  219.6135 H   0  0  0  0  0  0  0  0  0  0  0  0
  143.7470   67.7960  219.4560 C   0  0  0  0  0  0  0  0  0  0  0  0
  143.0717   66.9293  219.5091 H   0  0  0  0  0  0  0  0  0  0  0  0
  143.2290   69.0860  219.3330 C   0  0  0  0  0  0  0  0  0  0  0  0
  142.1407   69.2364  219.2781 H   0  0  0  0  0  0  0  0  0  0  0  0
  1  2  1  0
  2  3  2  0
  3  4  1  0
  3  5  1  0
  5  6  2  0
  6  7  1  0
  7  8  2  0
  8  9  1  0
  8 10  1  0
 10 11  1  0
 10 12  2  0
 12 13  1  0
 12 14  1  0
 14 15  1  0
 14 16  2  0
 16 17  1  0
 17 18  2  0
 17 19  1  0
 19 20  1  0
 20 21  1  0
 20 22  1  0
 20 23  1  0
 23 24  1  0
 23 25  1  0
 23 26  1  0
 26 27  1  0
 26 28  1  0
 26 29  1  0
 29 30  1  0
 30 31  1  0
 30 32  1  0
 30 33  1  0
 33 34  1  0
 33 35  1  0
 33 36  1  0
 36 37  1  0
 37 38  2  0
 38 39  1  0
 38 40  1  0
 40 41  1  0
 40 42  2  0
 42 43  1  0
 42 44  1  0
 44 45  1  0
 44 46  2  0
 46 47  1  0
 36 48  1  0
 48 49  1  0
 48 50  1  0
 48 51  1  0
 51 52  1  0
 51 53  1  0
  2 54  1  0
 54 55  2  0
 55 56  1  0
 55 57  1  0
 57 58  2  0
 58 59  1  0
 58 60  1  0
 60 61  1  0
 60 62  2  0
 62 63  1  0
 19  5  1  0
 51 29  1  0
 62 54  1  0
 16  7  1  0
 46 37  1  0
M  END
>  <UniqueID>  (24) 
605

>  <SMILES>  (24) 
O=c1c2ccccc2nc(/C=C/c2cccnc2)n1CCCN1CCN(c2ccccc2)CC1

>  <Energy>  (24) 
90.34088226420579

>  <Genealogy>  (24) 
O=c1c2ccccc2nc(/C=C/c2cccnc2)n1CCCN1CCN(c2ccccc2)CC1 (cis-trans isomerization)
O=c1c2ccccc2nc(/C=C/c2cccnc2)n1CCCN1CCN(c2ccccc2)CC1 (3D coordinates assigned)
O=c1c2ccccc2nc(/C=C/c2cccnc2)n1CCCN1CCN(c2ccccc2)CC1 (nonaromatic ring conformer: 90.34088226420579 kcal/mol)

>  <smiles>  (24) 
O=c1c2ccccc2nc(/C=C/c2cccnc2)n1CCCN1CCN(c2ccccc2)CC1

>  <score_type>  (24) 
oracle

>  <origin>  (24) 
autodockgpu

>  <m_score__min__energy>  (24) 
-9.1400000000000006

>  <m_primary>  (24) 
energy

>  <meeko>  (24) 
{"free_energy": -8.11, "intermolecular_energy": -10.5, "internal_energy": -1.61, "cluster_size": 1, "cluster_id": 5, "rank_in_cluster": 1}

>  <energy>  (24) 
-8.88

>  <cluster_rmsd>  (24) 
0.72

>  <rmsd>  (24) 
270.47

>  <cluster>  (24) 
1

$$$$
IETZWVUTNAYKDK-BUHFOSPRNA-N
     RDKit          3D

 63 67  0  0  0  0  0  0  0  0999 V2000
  134.3898   76.2007  222.8185 H   0  0  0  0  0  0  0  0  0  0  0  0
  134.9260   75.2570  222.9970 C   0  0  0  0  0  0  0  0  0  0  0  0
  135.8880   74.8990  222.1310 C   0  0  0  0  0  0  0  0  0  0  0  0
  135.6431   74.1876  221.3285 H   0  0  0  0  0  0  0  0  0  0  0  0
  137.2780   75.4340  222.2210 C   0  0  0  0  0  0  0  0  0  0  0  0
  137.4340   76.7360  222.5790 N   0  0  0  0  0  0  0  0  0  0  0  0
  138.6500   77.3090  222.7140 C   0  0  0  0  0  0  0  0  0  0  0  0
  138.7540   78.6570  223.0780 C   0  0  0  0  0  0  0  0  0  0  0  0
  137.8445   79.2522  223.2469 H   0  0  0  0  0  0  0  0  0  0  0  0
  140.0120   79.2470  223.2270 C   0  0  0  0  0  0  0  0  0  0  0  0
  140.0915   80.3064  223.5123 H   0  0  0  0  0  0  0  0  0  0  0  0
  141.1690   78.4930  223.0140 C   0  0  0  0  0  0  0  0  0  0  0  0
  142.1581   78.9594  223.1326 H   0  0  0  0  0  0  0  0  0  0  0  0
  141.0710   77.1450  222.6500 C   0  0  0  0  0  0  0  0  0  0  0  0
  141.9833   76.5536  222.4830 H   0  0  0  0  0  0  0  0  0  0  0  0
  139.8050   76.5440  222.4970 C   0  0  0  0  0  0  0  0  0  0  0  0
  139.6510   75.1980  222.1300 C   0  0  0  0  0  0  0  0  0  0  0  0
  140.6830   74.4910  221.9480 O   0  0  0  0  0  0  0  0  0  0  0  0
  138.3940   74.6530  221.9700 N   0  0  0  0  0  0  0  0  0  0  0  0
  138.2670   73.2530  221.4940 C   0  0  0  0  0  0  0  0  0  0  0  0
  137.3383   73.1593  220.9121 H   0  0  0  0  0  0  0  0  0  0  0  0
  139.1492   73.0236  220.8783 H   0  0  0  0  0  0  0  0  0  0  0  0
  138.2270   72.2450  222.6590 C   0  0  0  0  0  0  0  0  0  0  0  0
  139.0441   71.5216  222.5207 H   0  0  0  0  0  0  0  0  0  0  0  0
  138.3319   72.8235  223.5887 H   0  0  0  0  0  0  0  0  0  0  0  0
  136.9030   71.4690  222.7590 C   0  0  0  0  0  0  0  0  0  0  0  0
  136.4710   71.6272  223.7582 H   0  0  0  0  0  0  0  0  0  0  0  0
  136.2263   71.8404  221.9753 H   0  0  0  0  0  0  0  0  0  0  0  0
  137.1050   70.0170  222.5470 N   0  0  0  0  0  0  0  0  0  0  0  0
  138.5350   69.6620  222.3300 C   0  0  0  0  0  0  0  0  0  0  0  0
  138.5929   68.9618  221.4836 H   0  0  0  0  0  0  0  0  0  0  0  0
  139.0709   70.6034  222.1388 H   0  0  0  0  0  0  0  0  0  0  0  0
  139.2100   69.0050  223.5490 C   0  0  0  0  0  0  0  0  0  0  0  0
  139.0630   67.9159  223.5022 H   0  0  0  0  0  0  0  0  0  0  0  0
  140.2843   69.2407  223.5339 H   0  0  0  0  0  0  0  0  0  0  0  0
  138.6260   69.5190  224.7910 N   0  0  0  0  0  0  0  0  0  0  0  0
  139.4440   70.1270  225.8090 C   0  0  0  0  0  0  0  0  0  0  0  0
  140.2420   71.2470  225.5080 C   0  0  0  0  0  0  0  0  0  0  0  0
  140.2336   71.6668  224.4913 H   0  0  0  0  0  0  0  0  0  0  0  0
  141.0450   71.8290  226.4930 C   0  0  0  0  0  0  0  0  0  0  0  0
  141.6610   72.7077  226.2513 H   0  0  0  0  0  0  0  0  0  0  0  0
  141.0660   71.2960  227.7840 C   0  0  0  0  0  0  0  0  0  0  0  0
  141.6964   71.7569  228.5587 H   0  0  0  0  0  0  0  0  0  0  0  0
  140.2870   70.1780  228.0920 C   0  0  0  0  0  0  0  0  0  0  0  0
  140.3076   69.7572  229.1081 H   0  0  0  0  0  0  0  0  0  0  0  0
  139.4810   69.5930  227.1100 C   0  0  0  0  0  0  0  0  0  0  0  0
  138.8726   68.7103  227.3563 H   0  0  0  0  0  0  0  0  0  0  0  0
  137.1730   69.4260  224.9700 C   0  0  0  0  0  0  0  0  0  0  0  0
  136.9441   68.5786  225.6329 H   0  0  0  0  0  0  0  0  0  0  0  0
  136.8098   70.3651  225.4130 H   0  0  0  0  0  0  0  0  0  0  0  0
  136.4730   69.2130  223.6180 C   0  0  0  0  0  0  0  0  0  0  0  0
  136.5330   68.1483  223.3483 H   0  0  0  0  0  0  0  0  0  0  0  0
  135.4254   69.5334  223.7175 H   0  0  0  0  0  0  0  0  0  0  0  0
  134.5480   74.4480  224.1810 C   0  0  0  0  0  0  0  0  0  0  0  0
  134.2450   75.0220  225.4310 C   0  0  0  0  0  0  0  0  0  0  0  0
  134.2719   76.1148  225.5534 H   0  0  0  0  0  0  0  0  0  0  0  0
  133.9190   74.2290  226.4880 N   0  0  0  0  0  0  0  0  0  0  0  0
  133.8780   72.8750  226.3820 C   0  0  0  0  0  0  0  0  0  0  0  0
  133.6017   72.2636  227.2537 H   0  0  0  0  0  0  0  0  0  0  0  0
  134.1860   72.2600  225.1690 C   0  0  0  0  0  0  0  0  0  0  0  0
  134.1598   71.1640  225.0796 H   0  0  0  0  0  0  0  0  0  0  0  0
  134.5280   73.0490  224.0690 C   0  0  0  0  0  0  0  0  0  0  0  0
  134.7827   72.5724  223.1109 H   0  0  0  0  0  0  0  0  0  0  0  0
  1  2  1  0
  2  3  2  0
  3  4  1  0
  3  5  1  0
  5  6  2  0
  6  7  1  0
  7  8  2  0
  8  9  1  0
  8 10  1  0
 10 11  1  0
 10 12  2  0
 12 13  1  0
 12 14  1  0
 14 15  1  0
 14 16  2  0
 16 17  1  0
 17 18  2  0
 17 19  1  0
 19 20  1  0
 20 21  1  0
 20 22  1  0
 20 23  1  0
 23 24  1  0
 23 25  1  0
 23 26  1  0
 26 27  1  0
 26 28  1  0
 26 29  1  0
 29 30  1  0
 30 31  1  0
 30 32  1  0
 30 33  1  0
 33 34  1  0
 33 35  1  0
 33 36  1  0
 36 37  1  0
 37 38  2  0
 38 39  1  0
 38 40  1  0
 40 41  1  0
 40 42  2  0
 42 43  1  0
 42 44  1  0
 44 45  1  0
 44 46  2  0
 46 47  1  0
 36 48  1  0
 48 49  1  0
 48 50  1  0
 48 51  1  0
 51 52  1  0
 51 53  1  0
  2 54  1  0
 54 55  2  0
 55 56  1  0
 55 57  1  0
 57 58  2  0
 58 59  1  0
 58 60  1  0
 60 61  1  0
 60 62  2  0
 62 63  1  0
 19  5  1  0
 51 29  1  0
 62 54  1  0
 16  7  1  0
 46 37  1  0
M  END
>  <UniqueID>  (25) 
605

>  <SMILES>  (25) 
O=c1c2ccccc2nc(/C=C/c2cccnc2)n1CCCN1CCN(c2ccccc2)CC1

>  <Energy>  (25) 
90.34088226420579

>  <Genealogy>  (25) 
O=c1c2ccccc2nc(/C=C/c2cccnc2)n1CCCN1CCN(c2ccccc2)CC1 (cis-trans isomerization)
O=c1c2ccccc2nc(/C=C/c2cccnc2)n1CCCN1CCN(c2ccccc2)CC1 (3D coordinates assigned)
O=c1c2ccccc2nc(/C=C/c2cccnc2)n1CCCN1CCN(c2ccccc2)CC1 (nonaromatic ring conformer: 90.34088226420579 kcal/mol)

>  <smiles>  (25) 
O=c1c2ccccc2nc(/C=C/c2cccnc2)n1CCCN1CCN(c2ccccc2)CC1

>  <score_type>  (25) 
oracle

>  <origin>  (25) 
autodockgpu

>  <m_score__min__energy>  (25) 
-9.1400000000000006

>  <m_primary>  (25) 
energy

>  <meeko>  (25) 
{"free_energy": -8.3, "intermolecular_energy": -10.69, "internal_energy": -2.01, "cluster_size": 2, "cluster_id": 2, "rank_in_cluster": 2}

>  <energy>  (25) 
-8.86

>  <cluster_rmsd>  (25) 
0.63

>  <rmsd>  (25) 
270.51

>  <cluster>  (25) 
1

$$$$
IETZWVUTNAYKDK-BUHFOSPRNA-N
     RDKit          3D

 63 67  0  0  0  0  0  0  0  0999 V2000
  143.9072   75.6271  217.3096 H   0  0  0  0  0  0  0  0  0  0  0  0
  143.4770   75.1100  218.1800 C   0  0  0  0  0  0  0  0  0  0  0  0
  142.1700   75.2800  218.4380 C   0  0  0  0  0  0  0  0  0  0  0  0
  141.4326   74.9328  217.6993 H   0  0  0  0  0  0  0  0  0  0  0  0
  141.6850   75.9240  219.6930 C   0  0  0  0  0  0  0  0  0  0  0  0
  142.0670   77.2070  219.9350 N   0  0  0  0  0  0  0  0  0  0  0  0
  141.6620   77.8880  221.0290 C   0  0  0  0  0  0  0  0  0  0  0  0
  142.0910   79.2050  221.2330 C   0  0  0  0  0  0  0  0  0  0  0  0
  142.7643   79.6827  220.5061 H   0  0  0  0  0  0  0  0  0  0  0  0
  141.6640   79.9130  222.3600 C   0  0  0  0  0  0  0  0  0  0  0  0
  142.0030   80.9472  222.5199 H   0  0  0  0  0  0  0  0  0  0  0  0
  140.8070   79.3090  223.2840 C   0  0  0  0  0  0  0  0  0  0  0  0
  140.4715   79.8691  224.1693 H   0  0  0  0  0  0  0  0  0  0  0  0
  140.3750   77.9930  223.0850 C   0  0  0  0  0  0  0  0  0  0  0  0
  139.7008   77.5198  223.8141 H   0  0  0  0  0  0  0  0  0  0  0  0
  140.8030   77.2730  221.9510 C   0  0  0  0  0  0  0  0  0  0  0  0
  140.4030   75.9490  221.7060 C   0  0  0  0  0  0  0  0  0  0  0  0
  139.6150   75.3870  222.5190 O   0  0  0  0  0  0  0  0  0  0  0  0
  140.8610   75.2720  220.5950 N   0  0  0  0  0  0  0  0  0  0  0  0
  140.4900   73.8470  220.4130 C   0  0  0  0  0  0  0  0  0  0  0  0
  139.4070   73.7394  220.5729 H   0  0  0  0  0  0  0  0  0  0  0  0
  140.7747   73.5510  219.3925 H   0  0  0  0  0  0  0  0  0  0  0  0
  141.2320   72.9230  221.3990 C   0  0  0  0  0  0  0  0  0  0  0  0
  141.6301   72.0644  220.8383 H   0  0  0  0  0  0  0  0  0  0  0  0
  142.0268   73.5226  221.8667 H   0  0  0  0  0  0  0  0  0  0  0  0
  140.3410   72.3910  222.5350 C   0  0  0  0  0  0  0  0  0  0  0  0
  140.9660   71.8320  223.2470 H   0  0  0  0  0  0  0  0  0  0  0  0
  139.8592   73.2497  223.0253 H   0  0  0  0  0  0  0  0  0  0  0  0
  139.2790   71.4950  222.0210 N   0  0  0  0  0  0  0  0  0  0  0  0
  139.7180   70.0740  221.9390 C   0  0  0  0  0  0  0  0  0  0  0  0
  139.3925   69.6668  220.9704 H   0  0  0  0  0  0  0  0  0  0  0  0
  140.8120   70.0718  222.0534 H   0  0  0  0  0  0  0  0  0  0  0  0
  139.1510   69.1770  223.0570 C   0  0  0  0  0  0  0  0  0  0  0  0
  138.1831   68.7647  222.7358 H   0  0  0  0  0  0  0  0  0  0  0  0
  139.8609   68.3605  223.2556 H   0  0  0  0  0  0  0  0  0  0  0  0
  138.9620   69.9540  224.2850 N   0  0  0  0  0  0  0  0  0  0  0  0
  139.5770   69.5560  225.5250 C   0  0  0  0  0  0  0  0  0  0  0  0
  140.0910   70.5240  226.4080 C   0  0  0  0  0  0  0  0  0  0  0  0
  140.0143   71.5915  226.1541 H   0  0  0  0  0  0  0  0  0  0  0  0
  140.6990   70.1360  227.6070 C   0  0  0  0  0  0  0  0  0  0  0  0
  141.0938   70.8982  228.2949 H   0  0  0  0  0  0  0  0  0  0  0  0
  140.8050   68.7810  227.9310 C   0  0  0  0  0  0  0  0  0  0  0  0
  141.2810   68.4775  228.8751 H   0  0  0  0  0  0  0  0  0  0  0  0
  140.3070   67.8110  227.0570 C   0  0  0  0  0  0  0  0  0  0  0  0
  140.3941   66.7446  227.3123 H   0  0  0  0  0  0  0  0  0  0  0  0
  139.6980   68.1950  225.8580 C   0  0  0  0  0  0  0  0  0  0  0  0
  139.3112   67.4278  225.1712 H   0  0  0  0  0  0  0  0  0  0  0  0
  138.1480   71.1730  224.2220 C   0  0  0  0  0  0  0  0  0  0  0  0
  137.1476   70.9607  224.6270 H   0  0  0  0  0  0  0  0  0  0  0  0
  138.6402   71.9585  224.8143 H   0  0  0  0  0  0  0  0  0  0  0  0
  138.0120   71.6600  222.7700 C   0  0  0  0  0  0  0  0  0  0  0  0
  137.2232   71.0785  222.2704 H   0  0  0  0  0  0  0  0  0  0  0  0
  137.7583   72.7302  222.7874 H   0  0  0  0  0  0  0  0  0  0  0  0
  144.3710   74.2630  219.0050 C   0  0  0  0  0  0  0  0  0  0  0  0
  145.1340   73.2080  218.4660 C   0  0  0  0  0  0  0  0  0  0  0  0
  145.0885   72.9933  217.3881 H   0  0  0  0  0  0  0  0  0  0  0  0
  145.9270   72.4540  219.2750 N   0  0  0  0  0  0  0  0  0  0  0  0
  146.0090   72.6800  220.6120 C   0  0  0  0  0  0  0  0  0  0  0  0
  146.6669   72.0568  221.2355 H   0  0  0  0  0  0  0  0  0  0  0  0
  145.2600   73.7010  221.1940 C   0  0  0  0  0  0  0  0  0  0  0  0
  145.3187   73.8846  222.2770 H   0  0  0  0  0  0  0  0  0  0  0  0
  144.4340   74.4890  220.3890 C   0  0  0  0  0  0  0  0  0  0  0  0
  143.8306   75.2898  220.8414 H   0  0  0  0  0  0  0  0  0  0  0  0
  1  2  1  0
  2  3  2  0
  3  4  1  0
  3  5  1  0
  5  6  2  0
  6  7  1  0
  7  8  2  0
  8  9  1  0
  8 10  1  0
 10 11  1  0
 10 12  2  0
 12 13  1  0
 12 14  1  0
 14 15  1  0
 14 16  2  0
 16 17  1  0
 17 18  2  0
 17 19  1  0
 19 20  1  0
 20 21  1  0
 20 22  1  0
 20 23  1  0
 23 24  1  0
 23 25  1  0
 23 26  1  0
 26 27  1  0
 26 28  1  0
 26 29  1  0
 29 30  1  0
 30 31  1  0
 30 32  1  0
 30 33  1  0
 33 34  1  0
 33 35  1  0
 33 36  1  0
 36 37  1  0
 37 38  2  0
 38 39  1  0
 38 40  1  0
 40 41  1  0
 40 42  2  0
 42 43  1  0
 42 44  1  0
 44 45  1  0
 44 46  2  0
 46 47  1  0
 36 48  1  0
 48 49  1  0
 48 50  1  0
 48 51  1  0
 51 52  1  0
 51 53  1  0
  2 54  1  0
 54 55  2  0
 55 56  1  0
 55 57  1  0
 57 58  2  0
 58 59  1  0
 58 60  1  0
 60 61  1  0
 60 62  2  0
 62 63  1  0
 19  5  1  0
 51 29  1  0
 62 54  1  0
 16  7  1  0
 46 37  1  0
M  END
>  <UniqueID>  (26) 
605

>  <SMILES>  (26) 
O=c1c2ccccc2nc(/C=C/c2cccnc2)n1CCCN1CCN(c2ccccc2)CC1

>  <Energy>  (26) 
90.34088226420579

>  <Genealogy>  (26) 
O=c1c2ccccc2nc(/C=C/c2cccnc2)n1CCCN1CCN(c2ccccc2)CC1 (cis-trans isomerization)
O=c1c2ccccc2nc(/C=C/c2cccnc2)n1CCCN1CCN(c2ccccc2)CC1 (3D coordinates assigned)
O=c1c2ccccc2nc(/C=C/c2cccnc2)n1CCCN1CCN(c2ccccc2)CC1 (nonaromatic ring conformer: 90.34088226420579 kcal/mol)

>  <smiles>  (26) 
O=c1c2ccccc2nc(/C=C/c2cccnc2)n1CCCN1CCN(c2ccccc2)CC1

>  <score_type>  (26) 
oracle

>  <origin>  (26) 
autodockgpu

>  <m_score__min__energy>  (26) 
-9.1400000000000006

>  <m_primary>  (26) 
energy

>  <meeko>  (26) 
{"free_energy": -9.01, "intermolecular_energy": -11.39, "internal_energy": -1.7, "cluster_size": 10, "cluster_id": 1, "rank_in_cluster": 3}

>  <energy>  (26) 
-8.67

>  <cluster_rmsd>  (26) 
1.65

>  <rmsd>  (26) 
270.28

>  <cluster>  (26) 
1

$$$$
IETZWVUTNAYKDK-BUHFOSPRNA-N
     RDKit          3D

 63 67  0  0  0  0  0  0  0  0999 V2000
  139.2273   76.6721  222.5833 H   0  0  0  0  0  0  0  0  0  0  0  0
  140.0540   76.8800  221.8880 C   0  0  0  0  0  0  0  0  0  0  0  0
  140.2020   76.0800  220.8200 C   0  0  0  0  0  0  0  0  0  0  0  0
  139.5482   76.2307  219.9483 H   0  0  0  0  0  0  0  0  0  0  0  0
  141.2230   74.9940  220.7760 C   0  0  0  0  0  0  0  0  0  0  0  0
  142.5270   75.3560  220.6380 N   0  0  0  0  0  0  0  0  0  0  0  0
  143.5300   74.4510  220.6120 C   0  0  0  0  0  0  0  0  0  0  0  0
  144.8560   74.8770  220.4610 C   0  0  0  0  0  0  0  0  0  0  0  0
  145.0799   75.9488  220.3557 H   0  0  0  0  0  0  0  0  0  0  0  0
  145.8940   73.9430  220.4440 C   0  0  0  0  0  0  0  0  0  0  0  0
  146.9343   74.2795  220.3235 H   0  0  0  0  0  0  0  0  0  0  0  0
  145.6120   72.5810  220.5800 C   0  0  0  0  0  0  0  0  0  0  0  0
  146.4311   71.8469  220.5676 H   0  0  0  0  0  0  0  0  0  0  0  0
  144.2890   72.1490  220.7320 C   0  0  0  0  0  0  0  0  0  0  0  0
  144.0705   71.0762  220.8391 H   0  0  0  0  0  0  0  0  0  0  0  0
  143.2370   73.0860  220.7480 C   0  0  0  0  0  0  0  0  0  0  0  0
  141.8930   72.7070  220.8940 C   0  0  0  0  0  0  0  0  0  0  0  0
  141.6150   71.4820  221.0350 O   0  0  0  0  0  0  0  0  0  0  0  0
  140.8910   73.6540  220.8840 N   0  0  0  0  0  0  0  0  0  0  0  0
  139.4760   73.2110  220.9490 C   0  0  0  0  0  0  0  0  0  0  0  0
  138.8260   74.0623  220.6985 H   0  0  0  0  0  0  0  0  0  0  0  0
  139.3465   72.3856  220.2335 H   0  0  0  0  0  0  0  0  0  0  0  0
  139.0950   72.6900  222.3480 C   0  0  0  0  0  0  0  0  0  0  0  0
  139.8234   71.9201  222.6423 H   0  0  0  0  0  0  0  0  0  0  0  0
  139.1025   73.5555  223.0268 H   0  0  0  0  0  0  0  0  0  0  0  0
  137.6860   72.0770  222.4160 C   0  0  0  0  0  0  0  0  0  0  0  0
  137.2659   72.2582  223.4163 H   0  0  0  0  0  0  0  0  0  0  0  0
  137.0676   72.5494  221.6385 H   0  0  0  0  0  0  0  0  0  0  0  0
  137.7130   70.6170  222.1630 N   0  0  0  0  0  0  0  0  0  0  0  0
  139.0970   70.0710  222.1100 C   0  0  0  0  0  0  0  0  0  0  0  0
  139.1690   69.3947  221.2455 H   0  0  0  0  0  0  0  0  0  0  0  0
  139.7761   70.9328  222.0317 H   0  0  0  0  0  0  0  0  0  0  0  0
  139.5120   69.2900  223.3720 C   0  0  0  0  0  0  0  0  0  0  0  0
  139.2258   68.2342  223.2561 H   0  0  0  0  0  0  0  0  0  0  0  0
  140.6011   69.3724  223.5025 H   0  0  0  0  0  0  0  0  0  0  0  0
  138.8460   69.8450  224.5540 N   0  0  0  0  0  0  0  0  0  0  0  0
  139.6010   70.3010  225.6940 C   0  0  0  0  0  0  0  0  0  0  0  0
  140.4300   71.4340  225.5920 C   0  0  0  0  0  0  0  0  0  0  0  0
  140.4952   71.9801  224.6394 H   0  0  0  0  0  0  0  0  0  0  0  0
  141.1710   71.8690  226.6950 C   0  0  0  0  0  0  0  0  0  0  0  0
  141.8128   72.7583  226.6096 H   0  0  0  0  0  0  0  0  0  0  0  0
  141.0970   71.1750  227.9060 C   0  0  0  0  0  0  0  0  0  0  0  0
  141.6786   71.5198  228.7736 H   0  0  0  0  0  0  0  0  0  0  0  0
  140.2850   70.0440  228.0150 C   0  0  0  0  0  0  0  0  0  0  0  0
  140.2299   69.4975  228.9681 H   0  0  0  0  0  0  0  0  0  0  0  0
  139.5420   69.6050  226.9150 C   0  0  0  0  0  0  0  0  0  0  0  0
  138.9080   68.7106  227.0048 H   0  0  0  0  0  0  0  0  0  0  0  0
  137.3840   69.9530  224.5450 C   0  0  0  0  0  0  0  0  0  0  0  0
  136.9573   69.1277  225.1339 H   0  0  0  0  0  0  0  0  0  0  0  0
  137.0981   70.9211  224.9819 H   0  0  0  0  0  0  0  0  0  0  0  0
  136.8430   69.8800  223.1080 C   0  0  0  0  0  0  0  0  0  0  0  0
  136.7914   68.8257  222.7985 H   0  0  0  0  0  0  0  0  0  0  0  0
  135.8450   70.3422  223.0908 H   0  0  0  0  0  0  0  0  0  0  0  0
  140.9450   78.0290  222.1810 C   0  0  0  0  0  0  0  0  0  0  0  0
  141.5090   78.2510  223.4520 C   0  0  0  0  0  0  0  0  0  0  0  0
  141.3024   77.5494  224.2737 H   0  0  0  0  0  0  0  0  0  0  0  0
  142.3090   79.3310  223.6670 N   0  0  0  0  0  0  0  0  0  0  0  0
  142.5850   80.2250  222.6830 C   0  0  0  0  0  0  0  0  0  0  0  0
  143.2425   81.0826  222.8884 H   0  0  0  0  0  0  0  0  0  0  0  0
  142.0360   80.0570  221.4130 C   0  0  0  0  0  0  0  0  0  0  0  0
  142.2522   80.7819  220.6144 H   0  0  0  0  0  0  0  0  0  0  0  0
  141.2090   78.9600  221.1640 C   0  0  0  0  0  0  0  0  0  0  0  0
  140.7628   78.8248  220.1677 H   0  0  0  0  0  0  0  0  0  0  0  0
  1  2  1  0
  2  3  2  0
  3  4  1  0
  3  5  1  0
  5  6  2  0
  6  7  1  0
  7  8  2  0
  8  9  1  0
  8 10  1  0
 10 11  1  0
 10 12  2  0
 12 13  1  0
 12 14  1  0
 14 15  1  0
 14 16  2  0
 16 17  1  0
 17 18  2  0
 17 19  1  0
 19 20  1  0
 20 21  1  0
 20 22  1  0
 20 23  1  0
 23 24  1  0
 23 25  1  0
 23 26  1  0
 26 27  1  0
 26 28  1  0
 26 29  1  0
 29 30  1  0
 30 31  1  0
 30 32  1  0
 30 33  1  0
 33 34  1  0
 33 35  1  0
 33 36  1  0
 36 37  1  0
 37 38  2  0
 38 39  1  0
 38 40  1  0
 40 41  1  0
 40 42  2  0
 42 43  1  0
 42 44  1  0
 44 45  1  0
 44 46  2  0
 46 47  1  0
 36 48  1  0
 48 49  1  0
 48 50  1  0
 48 51  1  0
 51 52  1  0
 51 53  1  0
  2 54  1  0
 54 55  2  0
 55 56  1  0
 55 57  1  0
 57 58  2  0
 58 59  1  0
 58 60  1  0
 60 61  1  0
 60 62  2  0
 62 63  1  0
 19  5  1  0
 51 29  1  0
 62 54  1  0
 16  7  1  0
 46 37  1  0
M  END
>  <UniqueID>  (27) 
605

>  <SMILES>  (27) 
O=c1c2ccccc2nc(/C=C/c2cccnc2)n1CCCN1CCN(c2ccccc2)CC1

>  <Energy>  (27) 
90.34088226420579

>  <Genealogy>  (27) 
O=c1c2ccccc2nc(/C=C/c2cccnc2)n1CCCN1CCN(c2ccccc2)CC1 (cis-trans isomerization)
O=c1c2ccccc2nc(/C=C/c2cccnc2)n1CCCN1CCN(c2ccccc2)CC1 (3D coordinates assigned)
O=c1c2ccccc2nc(/C=C/c2cccnc2)n1CCCN1CCN(c2ccccc2)CC1 (nonaromatic ring conformer: 90.34088226420579 kcal/mol)

>  <smiles>  (27) 
O=c1c2ccccc2nc(/C=C/c2cccnc2)n1CCCN1CCN(c2ccccc2)CC1

>  <score_type>  (27) 
oracle

>  <origin>  (27) 
autodockgpu

>  <m_score__min__energy>  (27) 
-9.1400000000000006

>  <m_primary>  (27) 
energy

>  <meeko>  (27) 
{"free_energy": -8.47, "intermolecular_energy": -10.86, "internal_energy": -1.77, "cluster_size": 10, "cluster_id": 1, "rank_in_cluster": 9}

>  <energy>  (27) 
-8.59

>  <cluster_rmsd>  (27) 
1.59

>  <rmsd>  (27) 
270.22

>  <cluster>  (27) 
1

$$$$
IETZWVUTNAYKDK-BUHFOSPRNA-N
     RDKit          3D

 63 67  0  0  0  0  0  0  0  0999 V2000
  143.2567   70.2729  220.3649 H   0  0  0  0  0  0  0  0  0  0  0  0
  143.1440   71.3470  220.1560 C   0  0  0  0  0  0  0  0  0  0  0  0
  141.9050   71.8350  219.9870 C   0  0  0  0  0  0  0  0  0  0  0  0
  141.1543   71.2143  219.4760 H   0  0  0  0  0  0  0  0  0  0  0  0
  141.5120   73.1910  220.4690 C   0  0  0  0  0  0  0  0  0  0  0  0
  142.1280   74.2660  219.9070 N   0  0  0  0  0  0  0  0  0  0  0  0
  141.8260   75.5360  220.2540 C   0  0  0  0  0  0  0  0  0  0  0  0
  142.4960   76.6060  219.6500 C   0  0  0  0  0  0  0  0  0  0  0  0
  143.2737   76.4124  218.8966 H   0  0  0  0  0  0  0  0  0  0  0  0
  142.1780   77.9200  220.0030 C   0  0  0  0  0  0  0  0  0  0  0  0
  142.7075   78.7598  219.5294 H   0  0  0  0  0  0  0  0  0  0  0  0
  141.1880   78.1680  220.9570 C   0  0  0  0  0  0  0  0  0  0  0  0
  140.9376   79.2035  221.2310 H   0  0  0  0  0  0  0  0  0  0  0  0
  140.5140   77.1030  221.5650 C   0  0  0  0  0  0  0  0  0  0  0  0
  139.7357   77.3022  222.3164 H   0  0  0  0  0  0  0  0  0  0  0  0
  140.8320   75.7750  221.2150 C   0  0  0  0  0  0  0  0  0  0  0  0
  140.1900   74.6690  221.7960 C   0  0  0  0  0  0  0  0  0  0  0  0
  139.2800   74.8700  222.6500 O   0  0  0  0  0  0  0  0  0  0  0  0
  140.5460   73.3850  221.4410 N   0  0  0  0  0  0  0  0  0  0  0  0
  139.9100   72.2400  222.1400 C   0  0  0  0  0  0  0  0  0  0  0  0
  140.5873   71.3746  222.0912 H   0  0  0  0  0  0  0  0  0  0  0  0
  139.7212   72.5421  223.1807 H   0  0  0  0  0  0  0  0  0  0  0  0
  138.5600   71.8500  221.5080 C   0  0  0  0  0  0  0  0  0  0  0  0
  138.1524   72.7297  220.9884 H   0  0  0  0  0  0  0  0  0  0  0  0
  138.7553   71.0119  220.8228 H   0  0  0  0  0  0  0  0  0  0  0  0
  137.5180   71.3630  222.5300 C   0  0  0  0  0  0  0  0  0  0  0  0
  137.8162   71.7014  223.5333 H   0  0  0  0  0  0  0  0  0  0  0  0
  136.5394   71.7805  222.2505 H   0  0  0  0  0  0  0  0  0  0  0  0
  137.4090   69.8850  222.5330 N   0  0  0  0  0  0  0  0  0  0  0  0
  138.7370   69.2120  222.5110 C   0  0  0  0  0  0  0  0  0  0  0  0
  138.6988   68.3957  221.7746 H   0  0  0  0  0  0  0  0  0  0  0  0
  139.4793   69.9816  222.2526 H   0  0  0  0  0  0  0  0  0  0  0  0
  139.1630   68.6200  223.8690 C   0  0  0  0  0  0  0  0  0  0  0  0
  138.7832   67.5910  223.9517 H   0  0  0  0  0  0  0  0  0  0  0  0
  140.2612   68.6220  223.9321 H   0  0  0  0  0  0  0  0  0  0  0  0
  138.6200   69.4260  224.9670 N   0  0  0  0  0  0  0  0  0  0  0  0
  139.4780   69.9970  225.9730 C   0  0  0  0  0  0  0  0  0  0  0  0
  139.5870   69.3960  227.2410 C   0  0  0  0  0  0  0  0  0  0  0  0
  139.0214   68.4787  227.4617 H   0  0  0  0  0  0  0  0  0  0  0  0
  140.4100   69.9580  228.2220 C   0  0  0  0  0  0  0  0  0  0  0  0
  140.4931   69.4803  229.2094 H   0  0  0  0  0  0  0  0  0  0  0  0
  141.1270   71.1260  227.9490 C   0  0  0  0  0  0  0  0  0  0  0  0
  141.7775   71.5646  228.7200 H   0  0  0  0  0  0  0  0  0  0  0  0
  141.0180   71.7370  226.6970 C   0  0  0  0  0  0  0  0  0  0  0  0
  141.5796   72.6587  226.4847 H   0  0  0  0  0  0  0  0  0  0  0  0
  140.1960   71.1780  225.7140 C   0  0  0  0  0  0  0  0  0  0  0  0
  140.1103   71.6652  224.7315 H   0  0  0  0  0  0  0  0  0  0  0  0
  137.1730   69.6650  225.0080 C   0  0  0  0  0  0  0  0  0  0  0  0
  136.7166   68.9928  225.7494 H   0  0  0  0  0  0  0  0  0  0  0  0
  136.9950   70.7146  225.2849 H   0  0  0  0  0  0  0  0  0  0  0  0
  136.5410   69.4020  223.6310 C   0  0  0  0  0  0  0  0  0  0  0  0
  136.3825   68.3201  223.5115 H   0  0  0  0  0  0  0  0  0  0  0  0
  135.5864   69.9462  223.5804 H   0  0  0  0  0  0  0  0  0  0  0  0
  144.3690   72.1790  220.0760 C   0  0  0  0  0  0  0  0  0  0  0  0
  145.1310   72.3020  218.8970 C   0  0  0  0  0  0  0  0  0  0  0  0
  144.8157   71.7775  217.9830 H   0  0  0  0  0  0  0  0  0  0  0  0
  146.2560   73.0680  218.8860 N   0  0  0  0  0  0  0  0  0  0  0  0
  146.6840   73.7290  219.9930 C   0  0  0  0  0  0  0  0  0  0  0  0
  147.5926   74.3474  219.9470 H   0  0  0  0  0  0  0  0  0  0  0  0
  145.9720   73.6240  221.1880 C   0  0  0  0  0  0  0  0  0  0  0  0
  146.3175   74.1523  222.0888 H   0  0  0  0  0  0  0  0  0  0  0  0
  144.8170   72.8420  221.2290 C   0  0  0  0  0  0  0  0  0  0  0  0
  144.2550   72.7447  222.1696 H   0  0  0  0  0  0  0  0  0  0  0  0
  1  2  1  0
  2  3  2  0
  3  4  1  0
  3  5  1  0
  5  6  2  0
  6  7  1  0
  7  8  2  0
  8  9  1  0
  8 10  1  0
 10 11  1  0
 10 12  2  0
 12 13  1  0
 12 14  1  0
 14 15  1  0
 14 16  2  0
 16 17  1  0
 17 18  2  0
 17 19  1  0
 19 20  1  0
 20 21  1  0
 20 22  1  0
 20 23  1  0
 23 24  1  0
 23 25  1  0
 23 26  1  0
 26 27  1  0
 26 28  1  0
 26 29  1  0
 29 30  1  0
 30 31  1  0
 30 32  1  0
 30 33  1  0
 33 34  1  0
 33 35  1  0
 33 36  1  0
 36 37  1  0
 37 38  2  0
 38 39  1  0
 38 40  1  0
 40 41  1  0
 40 42  2  0
 42 43  1  0
 42 44  1  0
 44 45  1  0
 44 46  2  0
 46 47  1  0
 36 48  1  0
 48 49  1  0
 48 50  1  0
 48 51  1  0
 51 52  1  0
 51 53  1  0
  2 54  1  0
 54 55  2  0
 55 56  1  0
 55 57  1  0
 57 58  2  0
 58 59  1  0
 58 60  1  0
 60 61  1  0
 60 62  2  0
 62 63  1  0
 19  5  1  0
 51 29  1  0
 62 54  1  0
 16  7  1  0
 46 37  1  0
M  END
>  <UniqueID>  (28) 
605

>  <SMILES>  (28) 
O=c1c2ccccc2nc(/C=C/c2cccnc2)n1CCCN1CCN(c2ccccc2)CC1

>  <Energy>  (28) 
90.34088226420579

>  <Genealogy>  (28) 
O=c1c2ccccc2nc(/C=C/c2cccnc2)n1CCCN1CCN(c2ccccc2)CC1 (cis-trans isomerization)
O=c1c2ccccc2nc(/C=C/c2cccnc2)n1CCCN1CCN(c2ccccc2)CC1 (3D coordinates assigned)
O=c1c2ccccc2nc(/C=C/c2cccnc2)n1CCCN1CCN(c2ccccc2)CC1 (nonaromatic ring conformer: 90.34088226420579 kcal/mol)

>  <smiles>  (28) 
O=c1c2ccccc2nc(/C=C/c2cccnc2)n1CCCN1CCN(c2ccccc2)CC1

>  <score_type>  (28) 
oracle

>  <origin>  (28) 
autodockgpu

>  <m_score__min__energy>  (28) 
-9.1400000000000006

>  <m_primary>  (28) 
energy

>  <meeko>  (28) 
{"free_energy": -8.59, "intermolecular_energy": -10.97, "internal_energy": -1.9, "cluster_size": 10, "cluster_id": 1, "rank_in_cluster": 7}

>  <energy>  (28) 
-8.5

>  <cluster_rmsd>  (28) 
1.83

>  <rmsd>  (28) 
270.71

>  <cluster>  (28) 
1

$$$$
IETZWVUTNAYKDK-BUHFOSPRNA-N
     RDKit          3D

 63 67  0  0  0  0  0  0  0  0999 V2000
  137.4391   71.7430  221.5472 H   0  0  0  0  0  0  0  0  0  0  0  0
  138.4840   71.9400  221.8290 C   0  0  0  0  0  0  0  0  0  0  0  0
  139.2770   70.8910  222.1020 C   0  0  0  0  0  0  0  0  0  0  0  0
  139.7625   70.3603  221.2697 H   0  0  0  0  0  0  0  0  0  0  0  0
  139.5210   70.4220  223.4970 C   0  0  0  0  0  0  0  0  0  0  0  0
  140.1030   71.2920  224.3660 N   0  0  0  0  0  0  0  0  0  0  0  0
  140.3430   70.9740  225.6560 C   0  0  0  0  0  0  0  0  0  0  0  0
  140.9520   71.9060  226.5070 C   0  0  0  0  0  0  0  0  0  0  0  0
  141.2412   72.8950  226.1220 H   0  0  0  0  0  0  0  0  0  0  0  0
  141.1920   71.5800  227.8440 C   0  0  0  0  0  0  0  0  0  0  0  0
  141.6704   72.3126  228.5106 H   0  0  0  0  0  0  0  0  0  0  0  0
  140.8250   70.3240  228.3360 C   0  0  0  0  0  0  0  0  0  0  0  0
  141.0145   70.0703  229.3894 H   0  0  0  0  0  0  0  0  0  0  0  0
  140.2170   69.3890  227.4910 C   0  0  0  0  0  0  0  0  0  0  0  0
  139.9290   68.4016  227.8811 H   0  0  0  0  0  0  0  0  0  0  0  0
  139.9730   69.7110  226.1400 C   0  0  0  0  0  0  0  0  0  0  0  0
  139.3690   68.8090  225.2490 C   0  0  0  0  0  0  0  0  0  0  0  0
  139.0130   67.6730  225.6750 O   0  0  0  0  0  0  0  0  0  0  0  0
  139.1670   69.1550  223.9300 N   0  0  0  0  0  0  0  0  0  0  0  0
  138.6100   68.1470  222.9950 C   0  0  0  0  0  0  0  0  0  0  0  0
  139.1002   68.2620  222.0170 H   0  0  0  0  0  0  0  0  0  0  0  0
  138.7971   67.1506  223.4218 H   0  0  0  0  0  0  0  0  0  0  0  0
  137.0880   68.3040  222.8090 C   0  0  0  0  0  0  0  0  0  0  0  0
  136.8942   68.6060  221.7692 H   0  0  0  0  0  0  0  0  0  0  0  0
  136.6314   67.3340  223.0553 H   0  0  0  0  0  0  0  0  0  0  0  0
  136.4570   69.3500  223.7450 C   0  0  0  0  0  0  0  0  0  0  0  0
  137.1233   69.5069  224.6060 H   0  0  0  0  0  0  0  0  0  0  0  0
  136.3223   70.2828  223.1778 H   0  0  0  0  0  0  0  0  0  0  0  0
  135.1310   68.9110  224.2370 N   0  0  0  0  0  0  0  0  0  0  0  0
  134.8970   69.2800  225.6610 C   0  0  0  0  0  0  0  0  0  0  0  0
  134.4669   68.4094  226.1778 H   0  0  0  0  0  0  0  0  0  0  0  0
  135.8704   69.5806  226.0760 H   0  0  0  0  0  0  0  0  0  0  0  0
  133.9430   70.4760  225.8500 C   0  0  0  0  0  0  0  0  0  0  0  0
  132.9074   70.1092  225.9052 H   0  0  0  0  0  0  0  0  0  0  0  0
  134.2064   71.0009  226.7801 H   0  0  0  0  0  0  0  0  0  0  0  0
  134.0670   71.4070  224.7250 N   0  0  0  0  0  0  0  0  0  0  0  0
  134.3880   72.7950  224.9330 C   0  0  0  0  0  0  0  0  0  0  0  0
  135.3990   73.4150  224.1740 C   0  0  0  0  0  0  0  0  0  0  0  0
  135.9411   72.8378  223.4105 H   0  0  0  0  0  0  0  0  0  0  0  0
  135.7180   74.7600  224.3850 C   0  0  0  0  0  0  0  0  0  0  0  0
  136.5048   75.2391  223.7838 H   0  0  0  0  0  0  0  0  0  0  0  0
  135.0380   75.4960  225.3590 C   0  0  0  0  0  0  0  0  0  0  0  0
  135.2879   76.5548  225.5219 H   0  0  0  0  0  0  0  0  0  0  0  0
  134.0410   74.8880  226.1260 C   0  0  0  0  0  0  0  0  0  0  0  0
  133.5096   75.4675  226.8953 H   0  0  0  0  0  0  0  0  0  0  0  0
  133.7180   73.5440  225.9170 C   0  0  0  0  0  0  0  0  0  0  0  0
  132.9347   73.0692  226.5261 H   0  0  0  0  0  0  0  0  0  0  0  0
  133.8820   70.8870  223.3660 C   0  0  0  0  0  0  0  0  0  0  0  0
  132.8750   71.1525  223.0118 H   0  0  0  0  0  0  0  0  0  0  0  0
  134.6464   71.3302  222.7108 H   0  0  0  0  0  0  0  0  0  0  0  0
  134.0380   69.3580  223.3430 C   0  0  0  0  0  0  0  0  0  0  0  0
  133.0952   68.8974  223.6730 H   0  0  0  0  0  0  0  0  0  0  0  0
  134.2847   69.0514  222.3158 H   0  0  0  0  0  0  0  0  0  0  0  0
  138.9410   73.3490  221.8870 C   0  0  0  0  0  0  0  0  0  0  0  0
  140.3040   73.7080  221.9100 C   0  0  0  0  0  0  0  0  0  0  0  0
  141.0777   72.9270  221.8721 H   0  0  0  0  0  0  0  0  0  0  0  0
  140.6650   75.0180  221.9790 N   0  0  0  0  0  0  0  0  0  0  0  0
  139.7440   76.0140  222.0330 C   0  0  0  0  0  0  0  0  0  0  0  0
  140.0713   77.0631  222.0799 H   0  0  0  0  0  0  0  0  0  0  0  0
  138.3830   75.7080  222.0290 C   0  0  0  0  0  0  0  0  0  0  0  0
  137.6327   76.5110  222.0774 H   0  0  0  0  0  0  0  0  0  0  0  0
  137.9830   74.3720  221.9630 C   0  0  0  0  0  0  0  0  0  0  0  0
  136.9123   74.1200  221.9706 H   0  0  0  0  0  0  0  0  0  0  0  0
  1  2  1  0
  2  3  2  0
  3  4  1  0
  3  5  1  0
  5  6  2  0
  6  7  1  0
  7  8  2  0
  8  9  1  0
  8 10  1  0
 10 11  1  0
 10 12  2  0
 12 13  1  0
 12 14  1  0
 14 15  1  0
 14 16  2  0
 16 17  1  0
 17 18  2  0
 17 19  1  0
 19 20  1  0
 20 21  1  0
 20 22  1  0
 20 23  1  0
 23 24  1  0
 23 25  1  0
 23 26  1  0
 26 27  1  0
 26 28  1  0
 26 29  1  0
 29 30  1  0
 30 31  1  0
 30 32  1  0
 30 33  1  0
 33 34  1  0
 33 35  1  0
 33 36  1  0
 36 37  1  0
 37 38  2  0
 38 39  1  0
 38 40  1  0
 40 41  1  0
 40 42  2  0
 42 43  1  0
 42 44  1  0
 44 45  1  0
 44 46  2  0
 46 47  1  0
 36 48  1  0
 48 49  1  0
 48 50  1  0
 48 51  1  0
 51 52  1  0
 51 53  1  0
  2 54  1  0
 54 55  2  0
 55 56  1  0
 55 57  1  0
 57 58  2  0
 58 59  1  0
 58 60  1  0
 60 61  1  0
 60 62  2  0
 62 63  1  0
 19  5  1  0
 51 29  1  0
 62 54  1  0
 16  7  1  0
 46 37  1  0
M  END
>  <UniqueID>  (29) 
605

>  <SMILES>  (29) 
O=c1c2ccccc2nc(/C=C/c2cccnc2)n1CCCN1CCN(c2ccccc2)CC1

>  <Energy>  (29) 
90.34088226420579

>  <Genealogy>  (29) 
O=c1c2ccccc2nc(/C=C/c2cccnc2)n1CCCN1CCN(c2ccccc2)CC1 (cis-trans isomerization)
O=c1c2ccccc2nc(/C=C/c2cccnc2)n1CCCN1CCN(c2ccccc2)CC1 (3D coordinates assigned)
O=c1c2ccccc2nc(/C=C/c2cccnc2)n1CCCN1CCN(c2ccccc2)CC1 (nonaromatic ring conformer: 90.34088226420579 kcal/mol)

>  <smiles>  (29) 
O=c1c2ccccc2nc(/C=C/c2cccnc2)n1CCCN1CCN(c2ccccc2)CC1

>  <score_type>  (29) 
oracle

>  <origin>  (29) 
autodockgpu

>  <m_score__min__energy>  (29) 
-9.1400000000000006

>  <m_primary>  (29) 
energy

>  <meeko>  (29) 
{"free_energy": -8.49, "intermolecular_energy": -10.88, "internal_energy": -2.32, "cluster_size": 3, "cluster_id": 3, "rank_in_cluster": 1}

>  <energy>  (29) 
-8.47

>  <cluster_rmsd>  (29) 
1.82

>  <rmsd>  (29) 
270.69

>  <cluster>  (29) 
1

$$$$
IETZWVUTNAYKDK-BUHFOSPRNA-N
     RDKit          3D

 63 67  0  0  0  0  0  0  0  0999 V2000
  143.9575   75.8248  217.4583 H   0  0  0  0  0  0  0  0  0  0  0  0
  143.5230   75.2380  218.2810 C   0  0  0  0  0  0  0  0  0  0  0  0
  142.2150   75.3860  218.5460 C   0  0  0  0  0  0  0  0  0  0  0  0
  141.4795   74.9759  217.8383 H   0  0  0  0  0  0  0  0  0  0  0  0
  141.7260   76.0880  219.7680 C   0  0  0  0  0  0  0  0  0  0  0  0
  142.0020   77.4140  219.8910 N   0  0  0  0  0  0  0  0  0  0  0  0
  141.5820   78.1460  220.9460 C   0  0  0  0  0  0  0  0  0  0  0  0
  141.9010   79.5070  221.0270 C   0  0  0  0  0  0  0  0  0  0  0  0
  142.5003   79.9789  220.2345 H   0  0  0  0  0  0  0  0  0  0  0  0
  141.4590   80.2660  222.1130 C   0  0  0  0  0  0  0  0  0  0  0  0
  141.7112   81.3349  222.1755 H   0  0  0  0  0  0  0  0  0  0  0  0
  140.6960   79.6680  223.1210 C   0  0  0  0  0  0  0  0  0  0  0  0
  140.3475   80.2679  223.9746 H   0  0  0  0  0  0  0  0  0  0  0  0
  140.3750   78.3080  223.0460 C   0  0  0  0  0  0  0  0  0  0  0  0
  139.7755   77.8403  223.8409 H   0  0  0  0  0  0  0  0  0  0  0  0
  140.8190   77.5370  221.9530 C   0  0  0  0  0  0  0  0  0  0  0  0
  140.5280   76.1690  221.8300 C   0  0  0  0  0  0  0  0  0  0  0  0
  139.8260   75.6100  222.7210 O   0  0  0  0  0  0  0  0  0  0  0  0
  140.9990   75.4440  220.7560 N   0  0  0  0  0  0  0  0  0  0  0  0
  140.7500   73.9820  220.7030 C   0  0  0  0  0  0  0  0  0  0  0  0
  141.1772   73.5830  219.7712 H   0  0  0  0  0  0  0  0  0  0  0  0
  141.2218   73.5259  221.5859 H   0  0  0  0  0  0  0  0  0  0  0  0
  139.2460   73.6480  220.7430 C   0  0  0  0  0  0  0  0  0  0  0  0
  138.6800   74.5907  220.7134 H   0  0  0  0  0  0  0  0  0  0  0  0
  139.0362   73.0052  219.8754 H   0  0  0  0  0  0  0  0  0  0  0  0
  138.8200   72.8650  221.9960 C   0  0  0  0  0  0  0  0  0  0  0  0
  139.6597   72.8438  222.7062 H   0  0  0  0  0  0  0  0  0  0  0  0
  137.9462   73.3683  222.4355 H   0  0  0  0  0  0  0  0  0  0  0  0
  138.4350   71.4730  221.6650 N   0  0  0  0  0  0  0  0  0  0  0  0
  139.5800   70.5260  221.7480 C   0  0  0  0  0  0  0  0  0  0  0  0
  139.5564   69.8762  220.8607 H   0  0  0  0  0  0  0  0  0  0  0  0
  140.4939   71.1358  221.8025 H   0  0  0  0  0  0  0  0  0  0  0  0
  139.5650   69.6320  223.0040 C   0  0  0  0  0  0  0  0  0  0  0  0
  138.9884   68.7193  222.7932 H   0  0  0  0  0  0  0  0  0  0  0  0
  140.5998   69.3702  223.2700 H   0  0  0  0  0  0  0  0  0  0  0  0
  138.9490   70.3450  224.1270 N   0  0  0  0  0  0  0  0  0  0  0  0
  139.6470   70.5250  225.3740 C   0  0  0  0  0  0  0  0  0  0  0  0
  140.5720   71.5750  225.5280 C   0  0  0  0  0  0  0  0  0  0  0  0
  140.7558   72.2686  224.6943 H   0  0  0  0  0  0  0  0  0  0  0  0
  141.2580   71.7410  226.7340 C   0  0  0  0  0  0  0  0  0  0  0  0
  141.9749   72.5674  226.8485 H   0  0  0  0  0  0  0  0  0  0  0  0
  141.0350   70.8590  227.7950 C   0  0  0  0  0  0  0  0  0  0  0  0
  141.5736   70.9933  228.7447 H   0  0  0  0  0  0  0  0  0  0  0  0
  140.1280   69.8070  227.6490 C   0  0  0  0  0  0  0  0  0  0  0  0
  139.9559   69.1108  228.4831 H   0  0  0  0  0  0  0  0  0  0  0  0
  139.4380   69.6370  226.4440 C   0  0  0  0  0  0  0  0  0  0  0  0
  138.7281   68.8041  226.3330 H   0  0  0  0  0  0  0  0  0  0  0  0
  137.6040   70.9010  223.9470 C   0  0  0  0  0  0  0  0  0  0  0  0
  136.8713   70.2381  224.4305 H   0  0  0  0  0  0  0  0  0  0  0  0
  137.5708   71.9019  224.4020 H   0  0  0  0  0  0  0  0  0  0  0  0
  137.2640   71.0250  222.4530 C   0  0  0  0  0  0  0  0  0  0  0  0
  136.9354   70.0442  222.0787 H   0  0  0  0  0  0  0  0  0  0  0  0
  136.4663   71.7741  222.3418 H   0  0  0  0  0  0  0  0  0  0  0  0
  144.4130   74.3250  219.0390 C   0  0  0  0  0  0  0  0  0  0  0  0
  145.1550   73.2980  218.4220 C   0  0  0  0  0  0  0  0  0  0  0  0
  145.0961   73.1580  217.3325 H   0  0  0  0  0  0  0  0  0  0  0  0
  145.9440   72.4790  219.1690 N   0  0  0  0  0  0  0  0  0  0  0  0
  146.0430   72.6140  220.5170 C   0  0  0  0  0  0  0  0  0  0  0  0
  146.6979   71.9412  221.0901 H   0  0  0  0  0  0  0  0  0  0  0  0
  145.3150   73.6050  221.1750 C   0  0  0  0  0  0  0  0  0  0  0  0
  145.3870   73.7143  222.2672 H   0  0  0  0  0  0  0  0  0  0  0  0
  144.4940   74.4570  220.4340 C   0  0  0  0  0  0  0  0  0  0  0  0
  143.9082   75.2349  220.9455 H   0  0  0  0  0  0  0  0  0  0  0  0
  1  2  1  0
  2  3  2  0
  3  4  1  0
  3  5  1  0
  5  6  2  0
  6  7  1  0
  7  8  2  0
  8  9  1  0
  8 10  1  0
 10 11  1  0
 10 12  2  0
 12 13  1  0
 12 14  1  0
 14 15  1  0
 14 16  2  0
 16 17  1  0
 17 18  2  0
 17 19  1  0
 19 20  1  0
 20 21  1  0
 20 22  1  0
 20 23  1  0
 23 24  1  0
 23 25  1  0
 23 26  1  0
 26 27  1  0
 26 28  1  0
 26 29  1  0
 29 30  1  0
 30 31  1  0
 30 32  1  0
 30 33  1  0
 33 34  1  0
 33 35  1  0
 33 36  1  0
 36 37  1  0
 37 38  2  0
 38 39  1  0
 38 40  1  0
 40 41  1  0
 40 42  2  0
 42 43  1  0
 42 44  1  0
 44 45  1  0
 44 46  2  0
 46 47  1  0
 36 48  1  0
 48 49  1  0
 48 50  1  0
 48 51  1  0
 51 52  1  0
 51 53  1  0
  2 54  1  0
 54 55  2  0
 55 56  1  0
 55 57  1  0
 57 58  2  0
 58 59  1  0
 58 60  1  0
 60 61  1  0
 60 62  2  0
 62 63  1  0
 19  5  1  0
 51 29  1  0
 62 54  1  0
 16  7  1  0
 46 37  1  0
M  END
>  <UniqueID>  (30) 
605

>  <SMILES>  (30) 
O=c1c2ccccc2nc(/C=C/c2cccnc2)n1CCCN1CCN(c2ccccc2)CC1

>  <Energy>  (30) 
90.34088226420579

>  <Genealogy>  (30) 
O=c1c2ccccc2nc(/C=C/c2cccnc2)n1CCCN1CCN(c2ccccc2)CC1 (cis-trans isomerization)
O=c1c2ccccc2nc(/C=C/c2cccnc2)n1CCCN1CCN(c2ccccc2)CC1 (3D coordinates assigned)
O=c1c2ccccc2nc(/C=C/c2cccnc2)n1CCCN1CCN(c2ccccc2)CC1 (nonaromatic ring conformer: 90.34088226420579 kcal/mol)

>  <smiles>  (30) 
O=c1c2ccccc2nc(/C=C/c2cccnc2)n1CCCN1CCN(c2ccccc2)CC1

>  <score_type>  (30) 
oracle

>  <origin>  (30) 
autodockgpu

>  <m_score__min__energy>  (30) 
-9.1400000000000006

>  <m_primary>  (30) 
energy

>  <meeko>  (30) 
{"free_energy": -8.88, "intermolecular_energy": -11.26, "internal_energy": -1.49, "cluster_size": 10, "cluster_id": 1, "rank_in_cluster": 4}

>  <energy>  (30) 
-8.06

>  <cluster_rmsd>  (30) 
1.47

>  <rmsd>  (30) 
270.83

>  <cluster>  (30) 
1

$$$$
IETZWVUTNAYKDK-BUHFOSPRNA-N
     RDKit          3D

 63 67  0  0  0  0  0  0  0  0999 V2000
  144.0297   75.6458  217.1912 H   0  0  0  0  0  0  0  0  0  0  0  0
  143.5840   75.1660  218.0750 C   0  0  0  0  0  0  0  0  0  0  0  0
  142.2910   75.4080  218.3450 C   0  0  0  0  0  0  0  0  0  0  0  0
  141.5265   75.0670  217.6313 H   0  0  0  0  0  0  0  0  0  0  0  0
  141.8560   76.1230  219.5790 C   0  0  0  0  0  0  0  0  0  0  0  0
  142.0300   77.4710  219.6240 N   0  0  0  0  0  0  0  0  0  0  0  0
  141.6470   78.2150  220.6850 C   0  0  0  0  0  0  0  0  0  0  0  0
  141.8560   79.6000  220.6830 C   0  0  0  0  0  0  0  0  0  0  0  0
  142.3393   80.0817  219.8202 H   0  0  0  0  0  0  0  0  0  0  0  0
  141.4510   80.3700  221.7760 C   0  0  0  0  0  0  0  0  0  0  0  0
  141.6165   81.4575  221.7731 H   0  0  0  0  0  0  0  0  0  0  0  0
  140.8360   79.7610  222.8730 C   0  0  0  0  0  0  0  0  0  0  0  0
  140.5172   80.3700  223.7318 H   0  0  0  0  0  0  0  0  0  0  0  0
  140.6250   78.3780  222.8810 C   0  0  0  0  0  0  0  0  0  0  0  0
  140.1408   77.9014  223.7461 H   0  0  0  0  0  0  0  0  0  0  0  0
  141.0320   77.5940  221.7820 C   0  0  0  0  0  0  0  0  0  0  0  0
  140.8470   76.2030  221.7400 C   0  0  0  0  0  0  0  0  0  0  0  0
  140.2780   75.6320  222.7140 O   0  0  0  0  0  0  0  0  0  0  0  0
  141.2790   75.4700  220.6550 N   0  0  0  0  0  0  0  0  0  0  0  0
  141.1500   73.9920  220.6830 C   0  0  0  0  0  0  0  0  0  0  0  0
  141.4839   73.5887  219.7156 H   0  0  0  0  0  0  0  0  0  0  0  0
  141.7700   73.6140  221.5092 H   0  0  0  0  0  0  0  0  0  0  0  0
  139.6980   73.5400  220.9350 C   0  0  0  0  0  0  0  0  0  0  0  0
  139.0753   74.4354  221.0782 H   0  0  0  0  0  0  0  0  0  0  0  0
  139.3885   72.9494  220.0601 H   0  0  0  0  0  0  0  0  0  0  0  0
  139.5380   72.6350  222.1680 C   0  0  0  0  0  0  0  0  0  0  0  0
  140.5355   72.3446  222.5295 H   0  0  0  0  0  0  0  0  0  0  0  0
  138.9891   73.1968  222.9381 H   0  0  0  0  0  0  0  0  0  0  0  0
  138.7670   71.4110  221.8500 N   0  0  0  0  0  0  0  0  0  0  0  0
  139.5910   70.1740  221.9410 C   0  0  0  0  0  0  0  0  0  0  0  0
  139.3779   69.5508  221.0599 H   0  0  0  0  0  0  0  0  0  0  0  0
  140.6422   70.4946  221.9888 H   0  0  0  0  0  0  0  0  0  0  0  0
  139.3230   69.3340  223.2050 C   0  0  0  0  0  0  0  0  0  0  0  0
  138.5067   68.6248  223.0032 H   0  0  0  0  0  0  0  0  0  0  0  0
  140.2392   68.7872  223.4726 H   0  0  0  0  0  0  0  0  0  0  0  0
  138.9430   70.2040  224.3220 N   0  0  0  0  0  0  0  0  0  0  0  0
  139.6680   70.1860  225.5670 C   0  0  0  0  0  0  0  0  0  0  0  0
  139.6500   69.0410  226.3850 C   0  0  0  0  0  0  0  0  0  0  0  0
  139.0862   68.1512  226.0680 H   0  0  0  0  0  0  0  0  0  0  0  0
  140.3450   69.0280  227.5990 C   0  0  0  0  0  0  0  0  0  0  0  0
  140.3319   68.1273  228.2304 H   0  0  0  0  0  0  0  0  0  0  0  0
  141.0560   70.1590  228.0100 C   0  0  0  0  0  0  0  0  0  0  0  0
  141.6043   70.1468  228.9635 H   0  0  0  0  0  0  0  0  0  0  0  0
  141.0710   71.3050  227.2110 C   0  0  0  0  0  0  0  0  0  0  0  0
  141.6282   72.1954  227.5376 H   0  0  0  0  0  0  0  0  0  0  0  0
  140.3780   71.3210  225.9960 C   0  0  0  0  0  0  0  0  0  0  0  0
  140.3887   72.2271  225.3725 H   0  0  0  0  0  0  0  0  0  0  0  0
  137.8140   71.1230  224.1380 C   0  0  0  0  0  0  0  0  0  0  0  0
  136.9231   70.7035  224.6282 H   0  0  0  0  0  0  0  0  0  0  0  0
  138.0723   72.0949  224.5838 H   0  0  0  0  0  0  0  0  0  0  0  0
  137.5190   71.3270  222.6440 C   0  0  0  0  0  0  0  0  0  0  0  0
  136.9197   70.4798  222.2792 H   0  0  0  0  0  0  0  0  0  0  0  0
  136.9713   72.2737  222.5268 H   0  0  0  0  0  0  0  0  0  0  0  0
  144.4430   74.2870  218.9040 C   0  0  0  0  0  0  0  0  0  0  0  0
  145.2030   73.2320  218.3620 C   0  0  0  0  0  0  0  0  0  0  0  0
  145.1828   73.0421  217.2787 H   0  0  0  0  0  0  0  0  0  0  0  0
  145.9620   72.4470  219.1740 N   0  0  0  0  0  0  0  0  0  0  0  0
  146.0130   72.6430  220.5170 C   0  0  0  0  0  0  0  0  0  0  0  0
  146.6447   71.9960  221.1434 H   0  0  0  0  0  0  0  0  0  0  0  0
  145.2650   73.6640  221.1020 C   0  0  0  0  0  0  0  0  0  0  0  0
  145.2978   73.8227  222.1900 H   0  0  0  0  0  0  0  0  0  0  0  0
  144.4740   74.4830  220.2940 C   0  0  0  0  0  0  0  0  0  0  0  0
  143.8730   75.2847  220.7480 H   0  0  0  0  0  0  0  0  0  0  0  0
  1  2  1  0
  2  3  2  0
  3  4  1  0
  3  5  1  0
  5  6  2  0
  6  7  1  0
  7  8  2  0
  8  9  1  0
  8 10  1  0
 10 11  1  0
 10 12  2  0
 12 13  1  0
 12 14  1  0
 14 15  1  0
 14 16  2  0
 16 17  1  0
 17 18  2  0
 17 19  1  0
 19 20  1  0
 20 21  1  0
 20 22  1  0
 20 23  1  0
 23 24  1  0
 23 25  1  0
 23 26  1  0
 26 27  1  0
 26 28  1  0
 26 29  1  0
 29 30  1  0
 30 31  1  0
 30 32  1  0
 30 33  1  0
 33 34  1  0
 33 35  1  0
 33 36  1  0
 36 37  1  0
 37 38  2  0
 38 39  1  0
 38 40  1  0
 40 41  1  0
 40 42  2  0
 42 43  1  0
 42 44  1  0
 44 45  1  0
 44 46  2  0
 46 47  1  0
 36 48  1  0
 48 49  1  0
 48 50  1  0
 48 51  1  0
 51 52  1  0
 51 53  1  0
  2 54  1  0
 54 55  2  0
 55 56  1  0
 55 57  1  0
 57 58  2  0
 58 59  1  0
 58 60  1  0
 60 61  1  0
 60 62  2  0
 62 63  1  0
 19  5  1  0
 51 29  1  0
 62 54  1  0
 16  7  1  0
 46 37  1  0
M  END
>  <UniqueID>  (31) 
605

>  <SMILES>  (31) 
O=c1c2ccccc2nc(/C=C/c2cccnc2)n1CCCN1CCN(c2ccccc2)CC1

>  <Energy>  (31) 
90.34088226420579

>  <Genealogy>  (31) 
O=c1c2ccccc2nc(/C=C/c2cccnc2)n1CCCN1CCN(c2ccccc2)CC1 (cis-trans isomerization)
O=c1c2ccccc2nc(/C=C/c2cccnc2)n1CCCN1CCN(c2ccccc2)CC1 (3D coordinates assigned)
O=c1c2ccccc2nc(/C=C/c2cccnc2)n1CCCN1CCN(c2ccccc2)CC1 (nonaromatic ring conformer: 90.34088226420579 kcal/mol)

>  <smiles>  (31) 
O=c1c2ccccc2nc(/C=C/c2cccnc2)n1CCCN1CCN(c2ccccc2)CC1

>  <score_type>  (31) 
oracle

>  <origin>  (31) 
autodockgpu

>  <m_score__min__energy>  (31) 
-9.1400000000000006

>  <m_primary>  (31) 
energy

>  <meeko>  (31) 
{"free_energy": -8.86, "intermolecular_energy": -11.24, "internal_energy": -1.43, "cluster_size": 10, "cluster_id": 1, "rank_in_cluster": 5}

>  <energy>  (31) 
-8.64

>  <cluster_rmsd>  (31) 
0.0

>  <rmsd>  (31) 
270.53

>  <cluster>  (31) 
2

$$$$
IETZWVUTNAYKDK-BUHFOSPRNA-N
     RDKit          3D

 63 67  0  0  0  0  0  0  0  0999 V2000
  143.2796   76.4975  218.5938 H   0  0  0  0  0  0  0  0  0  0  0  0
  142.7740   75.8790  219.3500 C   0  0  0  0  0  0  0  0  0  0  0  0
  141.5030   76.1750  219.6670 C   0  0  0  0  0  0  0  0  0  0  0  0
  140.6890   75.6876  219.1104 H   0  0  0  0  0  0  0  0  0  0  0  0
  141.1580   77.1430  220.7490 C   0  0  0  0  0  0  0  0  0  0  0  0
  142.1090   78.0420  221.1210 N   0  0  0  0  0  0  0  0  0  0  0  0
  141.8880   78.9760  222.0720 C   0  0  0  0  0  0  0  0  0  0  0  0
  142.9050   79.8730  222.4230 C   0  0  0  0  0  0  0  0  0  0  0  0
  143.8864   79.8120  221.9300 H   0  0  0  0  0  0  0  0  0  0  0  0
  142.6730   80.8450  223.3990 C   0  0  0  0  0  0  0  0  0  0  0  0
  143.4721   81.5492  223.6737 H   0  0  0  0  0  0  0  0  0  0  0  0
  141.4270   80.9240  224.0270 C   0  0  0  0  0  0  0  0  0  0  0  0
  141.2471   81.6907  224.7950 H   0  0  0  0  0  0  0  0  0  0  0  0
  140.4080   80.0300  223.6810 C   0  0  0  0  0  0  0  0  0  0  0  0
  139.4286   80.0944  224.1776 H   0  0  0  0  0  0  0  0  0  0  0  0
  140.6350   79.0470  222.6970 C   0  0  0  0  0  0  0  0  0  0  0  0
  139.6490   78.1230  222.3150 C   0  0  0  0  0  0  0  0  0  0  0  0
  138.5090   78.1860  222.8570 O   0  0  0  0  0  0  0  0  0  0  0  0
  139.9180   77.1620  221.3630 N   0  0  0  0  0  0  0  0  0  0  0  0
  138.8830   76.1460  221.0480 C   0  0  0  0  0  0  0  0  0  0  0  0
  137.9003   76.6393  221.0156 H   0  0  0  0  0  0  0  0  0  0  0  0
  139.1362   75.6951  220.0771 H   0  0  0  0  0  0  0  0  0  0  0  0
  138.8380   75.0180  222.0970 C   0  0  0  0  0  0  0  0  0  0  0  0
  138.9539   75.4666  223.0947 H   0  0  0  0  0  0  0  0  0  0  0  0
  137.8720   74.5056  221.9771 H   0  0  0  0  0  0  0  0  0  0  0  0
  139.9360   73.9570  221.9110 C   0  0  0  0  0  0  0  0  0  0  0  0
  140.7653   74.3979  221.3384 H   0  0  0  0  0  0  0  0  0  0  0  0
  140.2747   73.6336  222.9063 H   0  0  0  0  0  0  0  0  0  0  0  0
  139.4280   72.7690  221.1850 N   0  0  0  0  0  0  0  0  0  0  0  0
  140.3890   71.6320  221.2050 C   0  0  0  0  0  0  0  0  0  0  0  0
  140.4471   71.2103  220.1907 H   0  0  0  0  0  0  0  0  0  0  0  0
  141.3519   72.0352  221.5518 H   0  0  0  0  0  0  0  0  0  0  0  0
  140.0020   70.5010  222.1790 C   0  0  0  0  0  0  0  0  0  0  0  0
  139.3528   69.7807  221.6597 H   0  0  0  0  0  0  0  0  0  0  0  0
  140.9167   69.9993  222.5276 H   0  0  0  0  0  0  0  0  0  0  0  0
  139.2880   71.0500  223.3350 N   0  0  0  0  0  0  0  0  0  0  0  0
  139.7490   70.8170  224.6800 C   0  0  0  0  0  0  0  0  0  0  0  0
  139.2630   69.7240  225.4210 C   0  0  0  0  0  0  0  0  0  0  0  0
  138.5338   69.0365  224.9675 H   0  0  0  0  0  0  0  0  0  0  0  0
  139.7020   69.5070  226.7310 C   0  0  0  0  0  0  0  0  0  0  0  0
  139.3214   68.6475  227.3024 H   0  0  0  0  0  0  0  0  0  0  0  0
  140.6230   70.3800  227.3150 C   0  0  0  0  0  0  0  0  0  0  0  0
  140.9703   70.2049  228.3439 H   0  0  0  0  0  0  0  0  0  0  0  0
  141.1030   71.4750  226.5930 C   0  0  0  0  0  0  0  0  0  0  0  0
  141.8242   72.1646  227.0560 H   0  0  0  0  0  0  0  0  0  0  0  0
  140.6680   71.6960  225.2820 C   0  0  0  0  0  0  0  0  0  0  0  0
  141.0465   72.5617  224.7187 H   0  0  0  0  0  0  0  0  0  0  0  0
  138.0960   71.8700  223.0940 C   0  0  0  0  0  0  0  0  0  0  0  0
  137.1970   71.2630  223.2763 H   0  0  0  0  0  0  0  0  0  0  0  0
  138.1170   72.7340  223.7745 H   0  0  0  0  0  0  0  0  0  0  0  0
  138.0740   72.3820  221.6450 C   0  0  0  0  0  0  0  0  0  0  0  0
  137.6881   71.5864  220.9907 H   0  0  0  0  0  0  0  0  0  0  0  0
  137.4281   73.2714  221.6031 H   0  0  0  0  0  0  0  0  0  0  0  0
  143.5320   74.7630  219.9650 C   0  0  0  0  0  0  0  0  0  0  0  0
  144.8400   74.9140  220.4650 C   0  0  0  0  0  0  0  0  0  0  0  0
  145.3348   75.8953  220.4181 H   0  0  0  0  0  0  0  0  0  0  0  0
  145.4940   73.8500  221.0060 N   0  0  0  0  0  0  0  0  0  0  0  0
  144.9230   72.6200  221.0790 C   0  0  0  0  0  0  0  0  0  0  0  0
  145.4761   71.7832  221.5305 H   0  0  0  0  0  0  0  0  0  0  0  0
  143.6360   72.4170  220.5820 C   0  0  0  0  0  0  0  0  0  0  0  0
  143.1713   71.4213  220.6338 H   0  0  0  0  0  0  0  0  0  0  0  0
  142.9430   73.4900  220.0180 C   0  0  0  0  0  0  0  0  0  0  0  0
  141.9315   73.3371  219.6137 H   0  0  0  0  0  0  0  0  0  0  0  0
  1  2  1  0
  2  3  2  0
  3  4  1  0
  3  5  1  0
  5  6  2  0
  6  7  1  0
  7  8  2  0
  8  9  1  0
  8 10  1  0
 10 11  1  0
 10 12  2  0
 12 13  1  0
 12 14  1  0
 14 15  1  0
 14 16  2  0
 16 17  1  0
 17 18  2  0
 17 19  1  0
 19 20  1  0
 20 21  1  0
 20 22  1  0
 20 23  1  0
 23 24  1  0
 23 25  1  0
 23 26  1  0
 26 27  1  0
 26 28  1  0
 26 29  1  0
 29 30  1  0
 30 31  1  0
 30 32  1  0
 30 33  1  0
 33 34  1  0
 33 35  1  0
 33 36  1  0
 36 37  1  0
 37 38  2  0
 38 39  1  0
 38 40  1  0
 40 41  1  0
 40 42  2  0
 42 43  1  0
 42 44  1  0
 44 45  1  0
 44 46  2  0
 46 47  1  0
 36 48  1  0
 48 49  1  0
 48 50  1  0
 48 51  1  0
 51 52  1  0
 51 53  1  0
  2 54  1  0
 54 55  2  0
 55 56  1  0
 55 57  1  0
 57 58  2  0
 58 59  1  0
 58 60  1  0
 60 61  1  0
 60 62  2  0
 62 63  1  0
 19  5  1  0
 51 29  1  0
 62 54  1  0
 16  7  1  0
 46 37  1  0
M  END
>  <UniqueID>  (32) 
605

>  <SMILES>  (32) 
O=c1c2ccccc2nc(/C=C/c2cccnc2)n1CCCN1CCN(c2ccccc2)CC1

>  <Energy>  (32) 
90.34088226420579

>  <Genealogy>  (32) 
O=c1c2ccccc2nc(/C=C/c2cccnc2)n1CCCN1CCN(c2ccccc2)CC1 (cis-trans isomerization)
O=c1c2ccccc2nc(/C=C/c2cccnc2)n1CCCN1CCN(c2ccccc2)CC1 (3D coordinates assigned)
O=c1c2ccccc2nc(/C=C/c2cccnc2)n1CCCN1CCN(c2ccccc2)CC1 (nonaromatic ring conformer: 90.34088226420579 kcal/mol)

>  <smiles>  (32) 
O=c1c2ccccc2nc(/C=C/c2cccnc2)n1CCCN1CCN(c2ccccc2)CC1

>  <score_type>  (32) 
oracle

>  <origin>  (32) 
autodockgpu

>  <m_score__min__energy>  (32) 
-9.1400000000000006

>  <m_primary>  (32) 
energy

>  <meeko>  (32) 
{"free_energy": -8.06, "intermolecular_energy": -10.45, "internal_energy": -1.92, "cluster_size": 10, "cluster_id": 1, "rank_in_cluster": 10}

>  <energy>  (32) 
-8.3

>  <cluster_rmsd>  (32) 
1.2

>  <rmsd>  (32) 
270.07

>  <cluster>  (32) 
2

$$$$
IETZWVUTNAYKDK-BUHFOSPRNA-N
     RDKit          3D

 63 67  0  0  0  0  0  0  0  0999 V2000
  137.8499   79.9312  222.9840 H   0  0  0  0  0  0  0  0  0  0  0  0
  138.7080   79.4220  222.5210 C   0  0  0  0  0  0  0  0  0  0  0  0
  138.4650   78.3970  221.6880 C   0  0  0  0  0  0  0  0  0  0  0  0
  137.5085   78.3678  221.1456 H   0  0  0  0  0  0  0  0  0  0  0  0
  139.4490   77.2970  221.4740 C   0  0  0  0  0  0  0  0  0  0  0  0
  140.5780   77.5840  220.7710 N   0  0  0  0  0  0  0  0  0  0  0  0
  141.5420   76.6660  220.5440 C   0  0  0  0  0  0  0  0  0  0  0  0
  142.6820   77.0120  219.8070 C   0  0  0  0  0  0  0  0  0  0  0  0
  142.7887   78.0307  219.4059 H   0  0  0  0  0  0  0  0  0  0  0  0
  143.6830   76.0650  219.5810 C   0  0  0  0  0  0  0  0  0  0  0  0
  144.5766   76.3382  219.0006 H   0  0  0  0  0  0  0  0  0  0  0  0
  143.5510   74.7710  220.0910 C   0  0  0  0  0  0  0  0  0  0  0  0
  144.3421   74.0278  219.9128 H   0  0  0  0  0  0  0  0  0  0  0  0
  142.4150   74.4180  220.8280 C   0  0  0  0  0  0  0  0  0  0  0  0
  142.3138   73.3980  221.2273 H   0  0  0  0  0  0  0  0  0  0  0  0
  141.4000   75.3690  221.0590 C   0  0  0  0  0  0  0  0  0  0  0  0
  140.2390   75.0670  221.7880 C   0  0  0  0  0  0  0  0  0  0  0  0
  140.1050   73.9070  222.2730 O   0  0  0  0  0  0  0  0  0  0  0  0
  139.2590   76.0190  221.9730 N   0  0  0  0  0  0  0  0  0  0  0  0
  138.0050   75.6410  222.6710 C   0  0  0  0  0  0  0  0  0  0  0  0
  138.2587   75.2425  223.6644 H   0  0  0  0  0  0  0  0  0  0  0  0
  137.3773   76.5409  222.7494 H   0  0  0  0  0  0  0  0  0  0  0  0
  137.2080   74.5740  221.8970 C   0  0  0  0  0  0  0  0  0  0  0  0
  136.2413   75.0083  221.6024 H   0  0  0  0  0  0  0  0  0  0  0  0
  137.8186   74.2826  221.0297 H   0  0  0  0  0  0  0  0  0  0  0  0
  136.9390   73.2950  222.7080 C   0  0  0  0  0  0  0  0  0  0  0  0
  137.6661   73.2349  223.5313 H   0  0  0  0  0  0  0  0  0  0  0  0
  135.9104   73.3430  223.0948 H   0  0  0  0  0  0  0  0  0  0  0  0
  137.0620   72.0800  221.8680 N   0  0  0  0  0  0  0  0  0  0  0  0
  138.4740   71.7760  221.5030 C   0  0  0  0  0  0  0  0  0  0  0  0
  138.5082   71.5252  220.4325 H   0  0  0  0  0  0  0  0  0  0  0  0
  139.0656   72.6705  221.7476 H   0  0  0  0  0  0  0  0  0  0  0  0
  139.0880   70.6050  222.2950 C   0  0  0  0  0  0  0  0  0  0  0  0
  138.8811   69.6620  221.7678 H   0  0  0  0  0  0  0  0  0  0  0  0
  140.1740   70.7590  222.3783 H   0  0  0  0  0  0  0  0  0  0  0  0
  138.5100   70.5440  223.6400 N   0  0  0  0  0  0  0  0  0  0  0  0
  139.3430   70.5840  224.8150 C   0  0  0  0  0  0  0  0  0  0  0  0
  140.3600   71.5490  224.9350 C   0  0  0  0  0  0  0  0  0  0  0  0
  140.5143   72.2839  224.1312 H   0  0  0  0  0  0  0  0  0  0  0  0
  141.1760   71.5790  226.0710 C   0  0  0  0  0  0  0  0  0  0  0  0
  141.9656   72.3396  226.1604 H   0  0  0  0  0  0  0  0  0  0  0  0
  140.9890   70.6440  227.0920 C   0  0  0  0  0  0  0  0  0  0  0  0
  141.6297   70.6708  227.9857 H   0  0  0  0  0  0  0  0  0  0  0  0
  139.9890   69.6750  226.9790 C   0  0  0  0  0  0  0  0  0  0  0  0
  139.8452   68.9374  227.7823 H   0  0  0  0  0  0  0  0  0  0  0  0
  139.1710   69.6420  225.8460 C   0  0  0  0  0  0  0  0  0  0  0  0
  138.3877   68.8746  225.7598 H   0  0  0  0  0  0  0  0  0  0  0  0
  137.0520   70.4670  223.7710 C   0  0  0  0  0  0  0  0  0  0  0  0
  136.7631   69.4279  223.9872 H   0  0  0  0  0  0  0  0  0  0  0  0
  136.7347   71.1292  224.5900 H   0  0  0  0  0  0  0  0  0  0  0  0
  136.3660   70.9220  222.4730 C   0  0  0  0  0  0  0  0  0  0  0  0
  136.3697   70.0881  221.7556 H   0  0  0  0  0  0  0  0  0  0  0  0
  135.3370   71.2261  222.7151 H   0  0  0  0  0  0  0  0  0  0  0  0
  140.0710   79.9040  222.8500 C   0  0  0  0  0  0  0  0  0  0  0  0
  140.5540   81.1620  222.4400 C   0  0  0  0  0  0  0  0  0  0  0  0
  139.9056   81.8357  221.8607 H   0  0  0  0  0  0  0  0  0  0  0  0
  141.8200   81.5470  222.7580 N   0  0  0  0  0  0  0  0  0  0  0  0
  142.6550   80.7440  223.4680 C   0  0  0  0  0  0  0  0  0  0  0  0
  143.6697   81.0890  223.7157 H   0  0  0  0  0  0  0  0  0  0  0  0
  142.2280   79.4840  223.8830 C   0  0  0  0  0  0  0  0  0  0  0  0
  142.9025   78.8287  224.4536 H   0  0  0  0  0  0  0  0  0  0  0  0
  140.9350   79.0620  223.5670 C   0  0  0  0  0  0  0  0  0  0  0  0
  140.5921   78.0652  223.8814 H   0  0  0  0  0  0  0  0  0  0  0  0
  1  2  1  0
  2  3  2  0
  3  4  1  0
  3  5  1  0
  5  6  2  0
  6  7  1  0
  7  8  2  0
  8  9  1  0
  8 10  1  0
 10 11  1  0
 10 12  2  0
 12 13  1  0
 12 14  1  0
 14 15  1  0
 14 16  2  0
 16 17  1  0
 17 18  2  0
 17 19  1  0
 19 20  1  0
 20 21  1  0
 20 22  1  0
 20 23  1  0
 23 24  1  0
 23 25  1  0
 23 26  1  0
 26 27  1  0
 26 28  1  0
 26 29  1  0
 29 30  1  0
 30 31  1  0
 30 32  1  0
 30 33  1  0
 33 34  1  0
 33 35  1  0
 33 36  1  0
 36 37  1  0
 37 38  2  0
 38 39  1  0
 38 40  1  0
 40 41  1  0
 40 42  2  0
 42 43  1  0
 42 44  1  0
 44 45  1  0
 44 46  2  0
 46 47  1  0
 36 48  1  0
 48 49  1  0
 48 50  1  0
 48 51  1  0
 51 52  1  0
 51 53  1  0
  2 54  1  0
 54 55  2  0
 55 56  1  0
 55 57  1  0
 57 58  2  0
 58 59  1  0
 58 60  1  0
 60 61  1  0
 60 62  2  0
 62 63  1  0
 19  5  1  0
 51 29  1  0
 62 54  1  0
 16  7  1  0
 46 37  1  0
M  END
>  <UniqueID>  (33) 
605

>  <SMILES>  (33) 
O=c1c2ccccc2nc(/C=C/c2cccnc2)n1CCCN1CCN(c2ccccc2)CC1

>  <Energy>  (33) 
90.34088226420579

>  <Genealogy>  (33) 
O=c1c2ccccc2nc(/C=C/c2cccnc2)n1CCCN1CCN(c2ccccc2)CC1 (cis-trans isomerization)
O=c1c2ccccc2nc(/C=C/c2cccnc2)n1CCCN1CCN(c2ccccc2)CC1 (3D coordinates assigned)
O=c1c2ccccc2nc(/C=C/c2cccnc2)n1CCCN1CCN(c2ccccc2)CC1 (nonaromatic ring conformer: 90.34088226420579 kcal/mol)

>  <smiles>  (33) 
O=c1c2ccccc2nc(/C=C/c2cccnc2)n1CCCN1CCN(c2ccccc2)CC1

>  <score_type>  (33) 
oracle

>  <origin>  (33) 
autodockgpu

>  <m_score__min__energy>  (33) 
-9.1400000000000006

>  <m_primary>  (33) 
energy

>  <meeko>  (33) 
{"free_energy": -8.2, "intermolecular_energy": -10.59, "internal_energy": -1.96, "cluster_size": 1, "cluster_id": 4, "rank_in_cluster": 1}

>  <energy>  (33) 
-8.49

>  <cluster_rmsd>  (33) 
0.0

>  <rmsd>  (33) 
269.76

>  <cluster>  (33) 
3

$$$$
IETZWVUTNAYKDK-BUHFOSPRNA-N
     RDKit          3D

 63 67  0  0  0  0  0  0  0  0999 V2000
  141.5491   72.8164  219.1896 H   0  0  0  0  0  0  0  0  0  0  0  0
  142.0840   72.9460  220.1420 C   0  0  0  0  0  0  0  0  0  0  0  0
  141.3680   72.9500  221.2770 C   0  0  0  0  0  0  0  0  0  0  0  0
  141.4254   72.0773  221.9442 H   0  0  0  0  0  0  0  0  0  0  0  0
  140.4970   74.0970  221.6650 C   0  0  0  0  0  0  0  0  0  0  0  0
  141.1030   75.2710  221.9900 N   0  0  0  0  0  0  0  0  0  0  0  0
  140.4050   76.3760  222.3290 C   0  0  0  0  0  0  0  0  0  0  0  0
  141.0790   77.5570  222.6630 C   0  0  0  0  0  0  0  0  0  0  0  0
  142.1787   77.5825  222.6561 H   0  0  0  0  0  0  0  0  0  0  0  0
  140.3570   78.7030  223.0050 C   0  0  0  0  0  0  0  0  0  0  0  0
  140.8885   79.6294  223.2681 H   0  0  0  0  0  0  0  0  0  0  0  0
  138.9590   78.6730  223.0130 C   0  0  0  0  0  0  0  0  0  0  0  0
  138.3921   79.5768  223.2809 H   0  0  0  0  0  0  0  0  0  0  0  0
  138.2800   77.4960  222.6810 C   0  0  0  0  0  0  0  0  0  0  0  0
  137.1802   77.4757  222.6884 H   0  0  0  0  0  0  0  0  0  0  0  0
  139.0030   76.3360  222.3370 C   0  0  0  0  0  0  0  0  0  0  0  0
  138.3710   75.1280  221.9990 C   0  0  0  0  0  0  0  0  0  0  0  0
  137.1080   75.0810  221.9840 O   0  0  0  0  0  0  0  0  0  0  0  0
  139.1160   74.0100  221.6880 N   0  0  0  0  0  0  0  0  0  0  0  0
  138.4180   72.7270  221.4240 C   0  0  0  0  0  0  0  0  0  0  0  0
  137.4530   72.9415  220.9415 H   0  0  0  0  0  0  0  0  0  0  0  0
  139.0642   72.1186  220.7741 H   0  0  0  0  0  0  0  0  0  0  0  0
  138.1600   71.9280  222.7160 C   0  0  0  0  0  0  0  0  0  0  0  0
  138.9734   71.1981  222.8412 H   0  0  0  0  0  0  0  0  0  0  0  0
  138.1178   72.6550  223.5405 H   0  0  0  0  0  0  0  0  0  0  0  0
  136.8220   71.1690  222.7170 C   0  0  0  0  0  0  0  0  0  0  0  0
  136.2868   71.3900  223.6522 H   0  0  0  0  0  0  0  0  0  0  0  0
  136.2390   71.4977  221.8440 H   0  0  0  0  0  0  0  0  0  0  0  0
  137.0260   69.7050  222.6140 N   0  0  0  0  0  0  0  0  0  0  0  0
  138.4520   69.3390  222.3930 C   0  0  0  0  0  0  0  0  0  0  0  0
  138.4948   68.5757  221.6021 H   0  0  0  0  0  0  0  0  0  0  0  0
  138.9794   70.2641  222.1172 H   0  0  0  0  0  0  0  0  0  0  0  0
  139.1560   68.7800  223.6450 C   0  0  0  0  0  0  0  0  0  0  0  0
  139.0126   67.6902  223.6859 H   0  0  0  0  0  0  0  0  0  0  0  0
  140.2287   69.0168  223.5883 H   0  0  0  0  0  0  0  0  0  0  0  0
  138.5970   69.3870  224.8560 N   0  0  0  0  0  0  0  0  0  0  0  0
  139.4340   70.0740  225.8060 C   0  0  0  0  0  0  0  0  0  0  0  0
  139.4880   69.6500  227.1470 C   0  0  0  0  0  0  0  0  0  0  0  0
  138.8945   68.7821  227.4703 H   0  0  0  0  0  0  0  0  0  0  0  0
  140.2910   70.3250  228.0700 C   0  0  0  0  0  0  0  0  0  0  0  0
  140.3318   69.9840  229.1150 H   0  0  0  0  0  0  0  0  0  0  0  0
  141.0420   71.4320  227.6680 C   0  0  0  0  0  0  0  0  0  0  0  0
  141.6769   71.9592  228.3953 H   0  0  0  0  0  0  0  0  0  0  0  0
  140.9870   71.8700  226.3420 C   0  0  0  0  0  0  0  0  0  0  0  0
  141.5746   72.7451  226.0275 H   0  0  0  0  0  0  0  0  0  0  0  0
  140.1860   71.1970  225.4150 C   0  0  0  0  0  0  0  0  0  0  0  0
  140.1433   71.5476  224.3732 H   0  0  0  0  0  0  0  0  0  0  0  0
  137.1480   69.3030  225.0730 C   0  0  0  0  0  0  0  0  0  0  0  0
  136.9376   68.5079  225.8035 H   0  0  0  0  0  0  0  0  0  0  0  0
  136.7898   70.2721  225.4505 H   0  0  0  0  0  0  0  0  0  0  0  0
  136.4200   68.9850  223.7570 C   0  0  0  0  0  0  0  0  0  0  0  0
  136.4779   67.9027  223.5690 H   0  0  0  0  0  0  0  0  0  0  0  0
  135.3736   69.3101  223.8541 H   0  0  0  0  0  0  0  0  0  0  0  0
  143.5580   73.1070  220.1030 C   0  0  0  0  0  0  0  0  0  0  0  0
  144.4010   72.2320  219.3890 C   0  0  0  0  0  0  0  0  0  0  0  0
  143.9683   71.3956  218.8205 H   0  0  0  0  0  0  0  0  0  0  0  0
  145.7490   72.4190  219.4010 N   0  0  0  0  0  0  0  0  0  0  0  0
  146.3250   73.4360  220.0940 C   0  0  0  0  0  0  0  0  0  0  0  0
  147.4173   73.5643  220.0751 H   0  0  0  0  0  0  0  0  0  0  0  0
  145.5330   74.3170  220.8290 C   0  0  0  0  0  0  0  0  0  0  0  0
  145.9954   75.1382  221.3963 H   0  0  0  0  0  0  0  0  0  0  0  0
  144.1480   74.1470  220.8380 C   0  0  0  0  0  0  0  0  0  0  0  0
  143.5160   74.8309  221.4236 H   0  0  0  0  0  0  0  0  0  0  0  0
  1  2  1  0
  2  3  2  0
  3  4  1  0
  3  5  1  0
  5  6  2  0
  6  7  1  0
  7  8  2  0
  8  9  1  0
  8 10  1  0
 10 11  1  0
 10 12  2  0
 12 13  1  0
 12 14  1  0
 14 15  1  0
 14 16  2  0
 16 17  1  0
 17 18  2  0
 17 19  1  0
 19 20  1  0
 20 21  1  0
 20 22  1  0
 20 23  1  0
 23 24  1  0
 23 25  1  0
 23 26  1  0
 26 27  1  0
 26 28  1  0
 26 29  1  0
 29 30  1  0
 30 31  1  0
 30 32  1  0
 30 33  1  0
 33 34  1  0
 33 35  1  0
 33 36  1  0
 36 37  1  0
 37 38  2  0
 38 39  1  0
 38 40  1  0
 40 41  1  0
 40 42  2  0
 42 43  1  0
 42 44  1  0
 44 45  1  0
 44 46  2  0
 46 47  1  0
 36 48  1  0
 48 49  1  0
 48 50  1  0
 48 51  1  0
 51 52  1  0
 51 53  1  0
  2 54  1  0
 54 55  2  0
 55 56  1  0
 55 57  1  0
 57 58  2  0
 58 59  1  0
 58 60  1  0
 60 61  1  0
 60 62  2  0
 62 63  1  0
 19  5  1  0
 51 29  1  0
 62 54  1  0
 16  7  1  0
 46 37  1  0
M  END
>  <UniqueID>  (34) 
605

>  <SMILES>  (34) 
O=c1c2ccccc2nc(/C=C/c2cccnc2)n1CCCN1CCN(c2ccccc2)CC1

>  <Energy>  (34) 
90.34088226420579

>  <Genealogy>  (34) 
O=c1c2ccccc2nc(/C=C/c2cccnc2)n1CCCN1CCN(c2ccccc2)CC1 (cis-trans isomerization)
O=c1c2ccccc2nc(/C=C/c2cccnc2)n1CCCN1CCN(c2ccccc2)CC1 (3D coordinates assigned)
O=c1c2ccccc2nc(/C=C/c2cccnc2)n1CCCN1CCN(c2ccccc2)CC1 (nonaromatic ring conformer: 90.34088226420579 kcal/mol)

>  <smiles>  (34) 
O=c1c2ccccc2nc(/C=C/c2cccnc2)n1CCCN1CCN(c2ccccc2)CC1

>  <score_type>  (34) 
oracle

>  <origin>  (34) 
autodockgpu

>  <m_score__min__energy>  (34) 
-9.1400000000000006

>  <m_primary>  (34) 
energy

>  <meeko>  (34) 
{"free_energy": -8.67, "intermolecular_energy": -11.06, "internal_energy": -1.72, "cluster_size": 10, "cluster_id": 1, "rank_in_cluster": 6}

>  <energy>  (34) 
-8.41

>  <cluster_rmsd>  (34) 
0.29

>  <rmsd>  (34) 
269.77

>  <cluster>  (34) 
3

$$$$
IETZWVUTNAYKDK-BUHFOSPRNA-N
     RDKit          3D

 63 67  0  0  0  0  0  0  0  0999 V2000
  140.2925   77.8546  219.6891 H   0  0  0  0  0  0  0  0  0  0  0  0
  140.5260   77.3830  220.6550 C   0  0  0  0  0  0  0  0  0  0  0  0
  140.1990   76.0920  220.8280 C   0  0  0  0  0  0  0  0  0  0  0  0
  139.1458   75.8300  221.0075 H   0  0  0  0  0  0  0  0  0  0  0  0
  141.2160   75.0010  220.7850 C   0  0  0  0  0  0  0  0  0  0  0  0
  142.5210   75.3580  220.6410 N   0  0  0  0  0  0  0  0  0  0  0  0
  143.5200   74.4490  220.6160 C   0  0  0  0  0  0  0  0  0  0  0  0
  144.8470   74.8700  220.4580 C   0  0  0  0  0  0  0  0  0  0  0  0
  145.0746   75.9404  220.3465 H   0  0  0  0  0  0  0  0  0  0  0  0
  145.8810   73.9310  220.4420 C   0  0  0  0  0  0  0  0  0  0  0  0
  146.9221   74.2628  220.3158 H   0  0  0  0  0  0  0  0  0  0  0  0
  145.5950   72.5710  220.5860 C   0  0  0  0  0  0  0  0  0  0  0  0
  146.4117   71.8342  220.5752 H   0  0  0  0  0  0  0  0  0  0  0  0
  144.2710   72.1440  220.7440 C   0  0  0  0  0  0  0  0  0  0  0  0
  144.0487   71.0725  220.8557 H   0  0  0  0  0  0  0  0  0  0  0  0
  143.2230   73.0860  220.7600 C   0  0  0  0  0  0  0  0  0  0  0  0
  141.8780   72.7120  220.9120 C   0  0  0  0  0  0  0  0  0  0  0  0
  141.5960   71.4890  221.0600 O   0  0  0  0  0  0  0  0  0  0  0  0
  140.8790   73.6630  220.9000 N   0  0  0  0  0  0  0  0  0  0  0  0
  139.4630   73.2260  220.9730 C   0  0  0  0  0  0  0  0  0  0  0  0
  138.8146   74.0870  220.7532 H   0  0  0  0  0  0  0  0  0  0  0  0
  139.3197   72.4197  220.2386 H   0  0  0  0  0  0  0  0  0  0  0  0
  139.0970   72.6710  222.3630 C   0  0  0  0  0  0  0  0  0  0  0  0
  139.8246   71.8897  222.6279 H   0  0  0  0  0  0  0  0  0  0  0  0
  139.1183   73.5185  223.0640 H   0  0  0  0  0  0  0  0  0  0  0  0
  137.6850   72.0640  222.4330 C   0  0  0  0  0  0  0  0  0  0  0  0
  137.2623   72.2567  223.4301 H   0  0  0  0  0  0  0  0  0  0  0  0
  137.0700   72.5307  221.6495 H   0  0  0  0  0  0  0  0  0  0  0  0
  137.7090   70.6020  222.1950 N   0  0  0  0  0  0  0  0  0  0  0  0
  139.0920   70.0530  222.1370 C   0  0  0  0  0  0  0  0  0  0  0  0
  139.1566   69.3683  221.2785 H   0  0  0  0  0  0  0  0  0  0  0  0
  139.7720   70.9128  222.0454 H   0  0  0  0  0  0  0  0  0  0  0  0
  139.5150   69.2830  223.4040 C   0  0  0  0  0  0  0  0  0  0  0  0
  139.2258   68.2268  223.3006 H   0  0  0  0  0  0  0  0  0  0  0  0
  140.6052   69.3641  223.5256 H   0  0  0  0  0  0  0  0  0  0  0  0
  138.8590   69.8510  224.5850 N   0  0  0  0  0  0  0  0  0  0  0  0
  139.6220   70.3180  225.7140 C   0  0  0  0  0  0  0  0  0  0  0  0
  139.5470   69.6500  226.9500 C   0  0  0  0  0  0  0  0  0  0  0  0
  138.9089   68.7599  227.0526 H   0  0  0  0  0  0  0  0  0  0  0  0
  140.2790   70.1110  228.0490 C   0  0  0  0  0  0  0  0  0  0  0  0
  140.2193   69.5801  229.0106 H   0  0  0  0  0  0  0  0  0  0  0  0
  141.0860   71.2450  227.9270 C   0  0  0  0  0  0  0  0  0  0  0  0
  141.6634   71.6044  228.7915 H   0  0  0  0  0  0  0  0  0  0  0  0
  141.1600   71.9230  226.7070 C   0  0  0  0  0  0  0  0  0  0  0  0
  141.7927   72.8179  226.6128 H   0  0  0  0  0  0  0  0  0  0  0  0
  140.4300   71.4640  225.6060 C   0  0  0  0  0  0  0  0  0  0  0  0
  140.4882   72.0031  224.6489 H   0  0  0  0  0  0  0  0  0  0  0  0
  137.3960   69.9610  224.5860 C   0  0  0  0  0  0  0  0  0  0  0  0
  136.9725   69.1420  225.1859 H   0  0  0  0  0  0  0  0  0  0  0  0
  137.1143   70.9335  225.0160 H   0  0  0  0  0  0  0  0  0  0  0  0
  136.8450   69.8750  223.1540 C   0  0  0  0  0  0  0  0  0  0  0  0
  136.7900   68.8178  222.8551 H   0  0  0  0  0  0  0  0  0  0  0  0
  135.8475   70.3385  223.1397 H   0  0  0  0  0  0  0  0  0  0  0  0
  141.1850   78.2060  221.6970 C   0  0  0  0  0  0  0  0  0  0  0  0
  141.1640   77.8660  223.0640 C   0  0  0  0  0  0  0  0  0  0  0  0
  140.6534   76.9488  223.3928 H   0  0  0  0  0  0  0  0  0  0  0  0
  141.7730   78.6680  223.9790 N   0  0  0  0  0  0  0  0  0  0  0  0
  142.4120   79.8110  223.6170 C   0  0  0  0  0  0  0  0  0  0  0  0
  142.9036   80.4314  224.3808 H   0  0  0  0  0  0  0  0  0  0  0  0
  142.4450   80.1980  222.2780 C   0  0  0  0  0  0  0  0  0  0  0  0
  142.9551   81.1262  221.9809 H   0  0  0  0  0  0  0  0  0  0  0  0
  141.8250   79.3970  221.3180 C   0  0  0  0  0  0  0  0  0  0  0  0
  141.8377   79.6998  220.2606 H   0  0  0  0  0  0  0  0  0  0  0  0
  1  2  1  0
  2  3  2  0
  3  4  1  0
  3  5  1  0
  5  6  2  0
  6  7  1  0
  7  8  2  0
  8  9  1  0
  8 10  1  0
 10 11  1  0
 10 12  2  0
 12 13  1  0
 12 14  1  0
 14 15  1  0
 14 16  2  0
 16 17  1  0
 17 18  2  0
 17 19  1  0
 19 20  1  0
 20 21  1  0
 20 22  1  0
 20 23  1  0
 23 24  1  0
 23 25  1  0
 23 26  1  0
 26 27  1  0
 26 28  1  0
 26 29  1  0
 29 30  1  0
 30 31  1  0
 30 32  1  0
 30 33  1  0
 33 34  1  0
 33 35  1  0
 33 36  1  0
 36 37  1  0
 37 38  2  0
 38 39  1  0
 38 40  1  0
 40 41  1  0
 40 42  2  0
 42 43  1  0
 42 44  1  0
 44 45  1  0
 44 46  2  0
 46 47  1  0
 36 48  1  0
 48 49  1  0
 48 50  1  0
 48 51  1  0
 51 52  1  0
 51 53  1  0
  2 54  1  0
 54 55  2  0
 55 56  1  0
 55 57  1  0
 57 58  2  0
 58 59  1  0
 58 60  1  0
 60 61  1  0
 60 62  2  0
 62 63  1  0
 19  5  1  0
 51 29  1  0
 62 54  1  0
 16  7  1  0
 46 37  1  0
M  END
>  <UniqueID>  (35) 
605

>  <SMILES>  (35) 
O=c1c2ccccc2nc(/C=C/c2cccnc2)n1CCCN1CCN(c2ccccc2)CC1

>  <Energy>  (35) 
90.34088226420579

>  <Genealogy>  (35) 
O=c1c2ccccc2nc(/C=C/c2cccnc2)n1CCCN1CCN(c2ccccc2)CC1 (cis-trans isomerization)
O=c1c2ccccc2nc(/C=C/c2cccnc2)n1CCCN1CCN(c2ccccc2)CC1 (3D coordinates assigned)
O=c1c2ccccc2nc(/C=C/c2cccnc2)n1CCCN1CCN(c2ccccc2)CC1 (nonaromatic ring conformer: 90.34088226420579 kcal/mol)

>  <smiles>  (35) 
O=c1c2ccccc2nc(/C=C/c2cccnc2)n1CCCN1CCN(c2ccccc2)CC1

>  <score_type>  (35) 
oracle

>  <origin>  (35) 
autodockgpu

>  <m_score__min__energy>  (35) 
-9.1400000000000006

>  <m_primary>  (35) 
energy

>  <meeko>  (35) 
{"free_energy": -8.5, "intermolecular_energy": -10.88, "internal_energy": -1.75, "cluster_size": 10, "cluster_id": 1, "rank_in_cluster": 8}

>  <energy>  (35) 
-8.36

>  <cluster_rmsd>  (35) 
0.62

>  <rmsd>  (35) 
269.7

>  <cluster>  (35) 
3

$$$$
IETZWVUTNAYKDK-BUHFOSPRNA-N
     RDKit          3D

 63 67  0  0  0  0  0  0  0  0999 V2000
  143.7482   76.4698  218.5627 H   0  0  0  0  0  0  0  0  0  0  0  0
  143.3320   75.6030  219.0970 C   0  0  0  0  0  0  0  0  0  0  0  0
  142.0260   75.6160  219.4090 C   0  0  0  0  0  0  0  0  0  0  0  0
  141.3370   74.9755  218.8389 H   0  0  0  0  0  0  0  0  0  0  0  0
  141.4780   76.4700  220.5030 C   0  0  0  0  0  0  0  0  0  0  0  0
  142.1810   77.5820  220.8510 N   0  0  0  0  0  0  0  0  0  0  0  0
  141.7580   78.4340  221.8100 C   0  0  0  0  0  0  0  0  0  0  0  0
  142.5240   79.5610  222.1340 C   0  0  0  0  0  0  0  0  0  0  0  0
  143.4742   79.7483  221.6124 H   0  0  0  0  0  0  0  0  0  0  0  0
  142.0820   80.4470  223.1190 C   0  0  0  0  0  0  0  0  0  0  0  0
  142.6853   81.3309  223.3734 H   0  0  0  0  0  0  0  0  0  0  0  0
  140.8740   80.2120  223.7820 C   0  0  0  0  0  0  0  0  0  0  0  0
  140.5275   80.9124  224.5561 H   0  0  0  0  0  0  0  0  0  0  0  0
  140.1050   79.0880  223.4630 C   0  0  0  0  0  0  0  0  0  0  0  0
  139.1553   78.9055  223.9873 H   0  0  0  0  0  0  0  0  0  0  0  0
  140.5450   78.1890  222.4710 C   0  0  0  0  0  0  0  0  0  0  0  0
  139.8140   77.0440  222.1140 C   0  0  0  0  0  0  0  0  0  0  0  0
  138.7100   76.8200  222.6880 O   0  0  0  0  0  0  0  0  0  0  0  0
  140.2910   76.1780  221.1520 N   0  0  0  0  0  0  0  0  0  0  0  0
  139.5380   74.9320  220.8640 C   0  0  0  0  0  0  0  0  0  0  0  0
  138.5186   75.1989  220.5484 H   0  0  0  0  0  0  0  0  0  0  0  0
  140.0730   74.3894  220.0707 H   0  0  0  0  0  0  0  0  0  0  0  0
  139.4510   74.0080  222.0940 C   0  0  0  0  0  0  0  0  0  0  0  0
  139.8771   74.5387  222.9582 H   0  0  0  0  0  0  0  0  0  0  0  0
  138.3887   73.7605  222.2364 H   0  0  0  0  0  0  0  0  0  0  0  0
  140.2040   72.6780  221.9210 C   0  0  0  0  0  0  0  0  0  0  0  0
  140.9405   72.7876  221.1113 H   0  0  0  0  0  0  0  0  0  0  0  0
  140.6993   72.4371  222.8732 H   0  0  0  0  0  0  0  0  0  0  0  0
  139.2820   71.5680  221.5850 N   0  0  0  0  0  0  0  0  0  0  0  0
  139.9060   70.2290  221.7680 C   0  0  0  0  0  0  0  0  0  0  0  0
  139.6605   69.6103  220.8923 H   0  0  0  0  0  0  0  0  0  0  0  0
  140.9878   70.3943  221.8797 H   0  0  0  0  0  0  0  0  0  0  0  0
  139.4350   69.4860  223.0340 C   0  0  0  0  0  0  0  0  0  0  0  0
  138.5373   68.8965  222.7961 H   0  0  0  0  0  0  0  0  0  0  0  0
  140.2406   68.8218  223.3801 H   0  0  0  0  0  0  0  0  0  0  0  0
  139.1170   70.4440  224.0960 N   0  0  0  0  0  0  0  0  0  0  0  0
  139.7500   70.3680  225.3880 C   0  0  0  0  0  0  0  0  0  0  0  0
  140.4300   71.4820  225.9150 C   0  0  0  0  0  0  0  0  0  0  0  0
  140.4708   72.4197  225.3414 H   0  0  0  0  0  0  0  0  0  0  0  0
  141.0540   71.4030  227.1640 C   0  0  0  0  0  0  0  0  0  0  0  0
  141.5792   72.2791  227.5723 H   0  0  0  0  0  0  0  0  0  0  0  0
  141.0110   70.2120  227.8940 C   0  0  0  0  0  0  0  0  0  0  0  0
  141.4998   70.1526  228.8776 H   0  0  0  0  0  0  0  0  0  0  0  0
  140.3480   69.0970  227.3760 C   0  0  0  0  0  0  0  0  0  0  0  0
  140.3184   68.1593  227.9503 H   0  0  0  0  0  0  0  0  0  0  0  0
  139.7220   69.1720  226.1280 C   0  0  0  0  0  0  0  0  0  0  0  0
  139.2044   68.2902  225.7223 H   0  0  0  0  0  0  0  0  0  0  0  0
  138.1510   71.5100  223.8080 C   0  0  0  0  0  0  0  0  0  0  0  0
  137.1779   71.2438  224.2463 H   0  0  0  0  0  0  0  0  0  0  0  0
  138.5208   72.4501  224.2434 H   0  0  0  0  0  0  0  0  0  0  0  0
  137.9870   71.6980  222.2910 C   0  0  0  0  0  0  0  0  0  0  0  0
  137.2935   70.9344  221.9091 H   0  0  0  0  0  0  0  0  0  0  0  0
  137.5947   72.7094  222.1090 H   0  0  0  0  0  0  0  0  0  0  0  0
  144.2430   74.4830  219.4340 C   0  0  0  0  0  0  0  0  0  0  0  0
  144.8460   73.6700  218.4530 C   0  0  0  0  0  0  0  0  0  0  0  0
  144.6556   73.8639  217.3871 H   0  0  0  0  0  0  0  0  0  0  0  0
  145.6630   72.6460  218.8210 N   0  0  0  0  0  0  0  0  0  0  0  0
  145.9200   72.3670  220.1260 C   0  0  0  0  0  0  0  0  0  0  0  0
  146.5920   71.5367  220.3888 H   0  0  0  0  0  0  0  0  0  0  0  0
  145.3320   73.1330  221.1320 C   0  0  0  0  0  0  0  0  0  0  0  0
  145.5322   72.9079  222.1899 H   0  0  0  0  0  0  0  0  0  0  0  0
  144.4870   74.1880  220.7840 C   0  0  0  0  0  0  0  0  0  0  0  0
  144.0104   74.7906  221.5712 H   0  0  0  0  0  0  0  0  0  0  0  0
  1  2  1  0
  2  3  2  0
  3  4  1  0
  3  5  1  0
  5  6  2  0
  6  7  1  0
  7  8  2  0
  8  9  1  0
  8 10  1  0
 10 11  1  0
 10 12  2  0
 12 13  1  0
 12 14  1  0
 14 15  1  0
 14 16  2  0
 16 17  1  0
 17 18  2  0
 17 19  1  0
 19 20  1  0
 20 21  1  0
 20 22  1  0
 20 23  1  0
 23 24  1  0
 23 25  1  0
 23 26  1  0
 26 27  1  0
 26 28  1  0
 26 29  1  0
 29 30  1  0
 30 31  1  0
 30 32  1  0
 30 33  1  0
 33 34  1  0
 33 35  1  0
 33 36  1  0
 36 37  1  0
 37 38  2  0
 38 39  1  0
 38 40  1  0
 40 41  1  0
 40 42  2  0
 42 43  1  0
 42 44  1  0
 44 45  1  0
 44 46  2  0
 46 47  1  0
 36 48  1  0
 48 49  1  0
 48 50  1  0
 48 51  1  0
 51 52  1  0
 51 53  1  0
  2 54  1  0
 54 55  2  0
 55 56  1  0
 55 57  1  0
 57 58  2  0
 58 59  1  0
 58 60  1  0
 60 61  1  0
 60 62  2  0
 62 63  1  0
 19  5  1  0
 51 29  1  0
 62 54  1  0
 16  7  1  0
 46 37  1  0
M  END
>  <UniqueID>  (36) 
605

>  <SMILES>  (36) 
O=c1c2ccccc2nc(/C=C/c2cccnc2)n1CCCN1CCN(c2ccccc2)CC1

>  <Energy>  (36) 
90.34088226420579

>  <Genealogy>  (36) 
O=c1c2ccccc2nc(/C=C/c2cccnc2)n1CCCN1CCN(c2ccccc2)CC1 (cis-trans isomerization)
O=c1c2ccccc2nc(/C=C/c2cccnc2)n1CCCN1CCN(c2ccccc2)CC1 (3D coordinates assigned)
O=c1c2ccccc2nc(/C=C/c2cccnc2)n1CCCN1CCN(c2ccccc2)CC1 (nonaromatic ring conformer: 90.34088226420579 kcal/mol)

>  <smiles>  (36) 
O=c1c2ccccc2nc(/C=C/c2cccnc2)n1CCCN1CCN(c2ccccc2)CC1

>  <score_type>  (36) 
oracle

>  <origin>  (36) 
autodockgpu

>  <m_score__min__energy>  (36) 
-9.1400000000000006

>  <m_primary>  (36) 
energy

>  <meeko>  (36) 
{"free_energy": -9.11, "intermolecular_energy": -11.49, "internal_energy": -1.45, "cluster_size": 10, "cluster_id": 1, "rank_in_cluster": 2}

>  <energy>  (36) 
-8.2

>  <cluster_rmsd>  (36) 
0.0

>  <rmsd>  (36) 
270.56

>  <cluster>  (36) 
4

$$$$
IETZWVUTNAYKDK-BUHFOSPRNA-N
     RDKit          3D

 63 67  0  0  0  0  0  0  0  0999 V2000
  137.7927   71.8108  221.4066 H   0  0  0  0  0  0  0  0  0  0  0  0
  138.8510   71.7120  221.6900 C   0  0  0  0  0  0  0  0  0  0  0  0
  139.3040   70.4980  222.0430 C   0  0  0  0  0  0  0  0  0  0  0  0
  139.5147   69.7597  221.2553 H   0  0  0  0  0  0  0  0  0  0  0  0
  139.5310   70.1170  223.4670 C   0  0  0  0  0  0  0  0  0  0  0  0
  140.0690   71.0530  224.2950 N   0  0  0  0  0  0  0  0  0  0  0  0
  140.2910   70.8170  225.6060 C   0  0  0  0  0  0  0  0  0  0  0  0
  140.8540   71.8140  226.4130 C   0  0  0  0  0  0  0  0  0  0  0  0
  141.1230   72.7874  225.9769 H   0  0  0  0  0  0  0  0  0  0  0  0
  141.0740   71.5730  227.7710 C   0  0  0  0  0  0  0  0  0  0  0  0
  141.5170   72.3567  228.4032 H   0  0  0  0  0  0  0  0  0  0  0  0
  140.7320   70.3370  228.3280 C   0  0  0  0  0  0  0  0  0  0  0  0
  140.9059   70.1499  229.3979 H   0  0  0  0  0  0  0  0  0  0  0  0
  140.1690   69.3380  227.5270 C   0  0  0  0  0  0  0  0  0  0  0  0
  139.9006   68.3667  227.9681 H   0  0  0  0  0  0  0  0  0  0  0  0
  139.9450   69.5740  226.1550 C   0  0  0  0  0  0  0  0  0  0  0  0
  139.3870   68.6050  225.3070 C   0  0  0  0  0  0  0  0  0  0  0  0
  139.0540   67.4850  225.7910 O   0  0  0  0  0  0  0  0  0  0  0  0
  139.2040   68.8680  223.9650 N   0  0  0  0  0  0  0  0  0  0  0  0
  138.6950   67.7910  223.0800 C   0  0  0  0  0  0  0  0  0  0  0  0
  139.4007   67.6533  222.2475 H   0  0  0  0  0  0  0  0  0  0  0  0
  138.6024   66.8747  223.6816 H   0  0  0  0  0  0  0  0  0  0  0  0
  137.3050   68.1210  222.5030 C   0  0  0  0  0  0  0  0  0  0  0  0
  137.4307   68.4532  221.4619 H   0  0  0  0  0  0  0  0  0  0  0  0
  136.6986   67.2065  222.5806 H   0  0  0  0  0  0  0  0  0  0  0  0
  136.5610   69.2220  223.2780 C   0  0  0  0  0  0  0  0  0  0  0  0
  137.2169   69.6031  224.0746 H   0  0  0  0  0  0  0  0  0  0  0  0
  136.2963   70.0215  222.5704 H   0  0  0  0  0  0  0  0  0  0  0  0
  135.3110   68.7110  223.8880 N   0  0  0  0  0  0  0  0  0  0  0  0
  135.2190   69.0120  225.3430 C   0  0  0  0  0  0  0  0  0  0  0  0
  134.8779   68.1046  225.8629 H   0  0  0  0  0  0  0  0  0  0  0  0
  136.2203   69.3340  225.6651 H   0  0  0  0  0  0  0  0  0  0  0  0
  134.2500   70.1600  225.6860 C   0  0  0  0  0  0  0  0  0  0  0  0
  133.2400   69.7504  225.8345 H   0  0  0  0  0  0  0  0  0  0  0  0
  134.5938   70.6563  226.6055 H   0  0  0  0  0  0  0  0  0  0  0  0
  134.2190   71.1410  224.5970 N   0  0  0  0  0  0  0  0  0  0  0  0
  134.5120   72.5310  224.8320 C   0  0  0  0  0  0  0  0  0  0  0  0
  133.8650   73.2310  225.8670 C   0  0  0  0  0  0  0  0  0  0  0  0
  133.1379   72.7102  226.5074 H   0  0  0  0  0  0  0  0  0  0  0  0
  134.1400   74.5840  226.0870 C   0  0  0  0  0  0  0  0  0  0  0  0
  133.6342   75.1222  226.9022 H   0  0  0  0  0  0  0  0  0  0  0  0
  135.0570   75.2530  225.2720 C   0  0  0  0  0  0  0  0  0  0  0  0
  135.2750   76.3167  225.4481 H   0  0  0  0  0  0  0  0  0  0  0  0
  135.6970   74.5720  224.2340 C   0  0  0  0  0  0  0  0  0  0  0  0
  136.4158   75.1010  223.5910 H   0  0  0  0  0  0  0  0  0  0  0  0
  135.4250   73.2180  224.0110 C   0  0  0  0  0  0  0  0  0  0  0  0
  135.9278   72.6874  223.1890 H   0  0  0  0  0  0  0  0  0  0  0  0
  133.9070   70.6700  223.2430 C   0  0  0  0  0  0  0  0  0  0  0  0
  132.8589   70.9090  223.0099 H   0  0  0  0  0  0  0  0  0  0  0  0
  134.5796   71.1700  222.5305 H   0  0  0  0  0  0  0  0  0  0  0  0
  134.1140   69.1510  223.1360 C   0  0  0  0  0  0  0  0  0  0  0  0
  133.2288   68.6403  223.5430 H   0  0  0  0  0  0  0  0  0  0  0  0
  134.2605   68.8970  222.0758 H   0  0  0  0  0  0  0  0  0  0  0  0
  139.7020   72.9270  221.6620 C   0  0  0  0  0  0  0  0  0  0  0  0
  139.2230   74.2010  222.0260 C   0  0  0  0  0  0  0  0  0  0  0  0
  138.1814   74.3207  222.3589 H   0  0  0  0  0  0  0  0  0  0  0  0
  140.0450   75.2840  221.9670 N   0  0  0  0  0  0  0  0  0  0  0  0
  141.3360   75.1820  221.5570 C   0  0  0  0  0  0  0  0  0  0  0  0
  141.9763   76.0760  221.5296 H   0  0  0  0  0  0  0  0  0  0  0  0
  141.8500   73.9450  221.1710 C   0  0  0  0  0  0  0  0  0  0  0  0
  142.8930   73.8586  220.8325 H   0  0  0  0  0  0  0  0  0  0  0  0
  141.0290   72.8170  221.2180 C   0  0  0  0  0  0  0  0  0  0  0  0
  141.4233   71.8386  220.9060 H   0  0  0  0  0  0  0  0  0  0  0  0
  1  2  1  0
  2  3  2  0
  3  4  1  0
  3  5  1  0
  5  6  2  0
  6  7  1  0
  7  8  2  0
  8  9  1  0
  8 10  1  0
 10 11  1  0
 10 12  2  0
 12 13  1  0
 12 14  1  0
 14 15  1  0
 14 16  2  0
 16 17  1  0
 17 18  2  0
 17 19  1  0
 19 20  1  0
 20 21  1  0
 20 22  1  0
 20 23  1  0
 23 24  1  0
 23 25  1  0
 23 26  1  0
 26 27  1  0
 26 28  1  0
 26 29  1  0
 29 30  1  0
 30 31  1  0
 30 32  1  0
 30 33  1  0
 33 34  1  0
 33 35  1  0
 33 36  1  0
 36 37  1  0
 37 38  2  0
 38 39  1  0
 38 40  1  0
 40 41  1  0
 40 42  2  0
 42 43  1  0
 42 44  1  0
 44 45  1  0
 44 46  2  0
 46 47  1  0
 36 48  1  0
 48 49  1  0
 48 50  1  0
 48 51  1  0
 51 52  1  0
 51 53  1  0
  2 54  1  0
 54 55  2  0
 55 56  1  0
 55 57  1  0
 57 58  2  0
 58 59  1  0
 58 60  1  0
 60 61  1  0
 60 62  2  0
 62 63  1  0
 19  5  1  0
 51 29  1  0
 62 54  1  0
 16  7  1  0
 46 37  1  0
M  END
>  <UniqueID>  (37) 
605

>  <SMILES>  (37) 
O=c1c2ccccc2nc(/C=C/c2cccnc2)n1CCCN1CCN(c2ccccc2)CC1

>  <Energy>  (37) 
90.34088226420579

>  <Genealogy>  (37) 
O=c1c2ccccc2nc(/C=C/c2cccnc2)n1CCCN1CCN(c2ccccc2)CC1 (cis-trans isomerization)
O=c1c2ccccc2nc(/C=C/c2cccnc2)n1CCCN1CCN(c2ccccc2)CC1 (3D coordinates assigned)
O=c1c2ccccc2nc(/C=C/c2cccnc2)n1CCCN1CCN(c2ccccc2)CC1 (nonaromatic ring conformer: 90.34088226420579 kcal/mol)

>  <smiles>  (37) 
O=c1c2ccccc2nc(/C=C/c2cccnc2)n1CCCN1CCN(c2ccccc2)CC1

>  <score_type>  (37) 
oracle

>  <origin>  (37) 
autodockgpu

>  <m_score__min__energy>  (37) 
-9.1400000000000006

>  <m_primary>  (37) 
energy

>  <meeko>  (37) 
{"free_energy": -8.36, "intermolecular_energy": -10.74, "internal_energy": -2.09, "cluster_size": 3, "cluster_id": 3, "rank_in_cluster": 3}

>  <energy>  (37) 
-8.11

>  <cluster_rmsd>  (37) 
0.0

>  <rmsd>  (37) 
269.89

>  <cluster>  (37) 
5

$$$$
IETZWVUTNAYKDK-BUHFOSPRNA-N
     RDKit          3D

 63 67  0  0  0  0  0  0  0  0999 V2000
  143.8652   75.9566  217.5727 H   0  0  0  0  0  0  0  0  0  0  0  0
  143.4450   75.3400  218.3810 C   0  0  0  0  0  0  0  0  0  0  0  0
  142.1410   75.4760  218.6710 C   0  0  0  0  0  0  0  0  0  0  0  0
  141.3957   75.0679  217.9724 H   0  0  0  0  0  0  0  0  0  0  0  0
  141.6690   76.1620  219.9090 C   0  0  0  0  0  0  0  0  0  0  0  0
  142.0950   77.4350  220.1280 N   0  0  0  0  0  0  0  0  0  0  0  0
  141.7050   78.1530  221.2040 C   0  0  0  0  0  0  0  0  0  0  0  0
  142.1790   79.4580  221.3860 C   0  0  0  0  0  0  0  0  0  0  0  0
  142.8750   79.8964  220.6557 H   0  0  0  0  0  0  0  0  0  0  0  0
  141.7690   80.2040  222.4940 C   0  0  0  0  0  0  0  0  0  0  0  0
  142.1439   81.2283  222.6360 H   0  0  0  0  0  0  0  0  0  0  0  0
  140.8830   79.6500  223.4220 C   0  0  0  0  0  0  0  0  0  0  0  0
  140.5599   80.2399  224.2924 H   0  0  0  0  0  0  0  0  0  0  0  0
  140.4060   78.3460  223.2460 C   0  0  0  0  0  0  0  0  0  0  0  0
  139.7096   77.9122  223.9787 H   0  0  0  0  0  0  0  0  0  0  0  0
  140.8170   77.5880  222.1310 C   0  0  0  0  0  0  0  0  0  0  0  0
  140.3720   76.2750  221.9080 C   0  0  0  0  0  0  0  0  0  0  0  0
  139.5570   75.7580  222.7250 O   0  0  0  0  0  0  0  0  0  0  0  0
  140.8140   75.5590  220.8160 N   0  0  0  0  0  0  0  0  0  0  0  0
  140.3940   74.1450  220.6600 C   0  0  0  0  0  0  0  0  0  0  0  0
  139.3250   74.0637  220.9061 H   0  0  0  0  0  0  0  0  0  0  0  0
  140.5886   73.8475  219.6190 H   0  0  0  0  0  0  0  0  0  0  0  0
  141.1890   73.1970  221.5800 C   0  0  0  0  0  0  0  0  0  0  0  0
  141.6463   72.4126  220.9591 H   0  0  0  0  0  0  0  0  0  0  0  0
  141.9396   73.8088  222.1019 H   0  0  0  0  0  0  0  0  0  0  0  0
  140.3280   72.5210  222.6610 C   0  0  0  0  0  0  0  0  0  0  0  0
  140.9787   71.9149  223.3085 H   0  0  0  0  0  0  0  0  0  0  0  0
  139.8215   73.3076  223.2396 H   0  0  0  0  0  0  0  0  0  0  0  0
  139.2930   71.6450  222.0640 N   0  0  0  0  0  0  0  0  0  0  0  0
  139.7610   70.2430  221.8870 C   0  0  0  0  0  0  0  0  0  0  0  0
  139.4607   69.9020  220.8852 H   0  0  0  0  0  0  0  0  0  0  0  0
  140.8527   70.2525  222.0216 H   0  0  0  0  0  0  0  0  0  0  0  0
  139.1920   69.2560  222.9260 C   0  0  0  0  0  0  0  0  0  0  0  0
  138.2379   68.8510  222.5576 H   0  0  0  0  0  0  0  0  0  0  0  0
  139.9137   68.4398  223.0776 H   0  0  0  0  0  0  0  0  0  0  0  0
  138.9670   69.9380  224.2040 N   0  0  0  0  0  0  0  0  0  0  0  0
  139.5690   69.4620  225.4230 C   0  0  0  0  0  0  0  0  0  0  0  0
  140.1600   70.3660  226.3260 C   0  0  0  0  0  0  0  0  0  0  0  0
  140.1544   71.4434  226.1044 H   0  0  0  0  0  0  0  0  0  0  0  0
  140.7540   69.9010  227.5030 C   0  0  0  0  0  0  0  0  0  0  0  0
  141.2096   70.6133  228.2066 H   0  0  0  0  0  0  0  0  0  0  0  0
  140.7700   68.5340  227.7870 C   0  0  0  0  0  0  0  0  0  0  0  0
  141.2350   68.1710  228.7155 H   0  0  0  0  0  0  0  0  0  0  0  0
  140.1960   67.6270  226.8930 C   0  0  0  0  0  0  0  0  0  0  0  0
  140.2129   66.5500  227.1161 H   0  0  0  0  0  0  0  0  0  0  0  0
  139.6000   68.0870  225.7150 C   0  0  0  0  0  0  0  0  0  0  0  0
  139.1526   67.3687  225.0122 H   0  0  0  0  0  0  0  0  0  0  0  0
  138.1310   71.1430  224.2140 C   0  0  0  0  0  0  0  0  0  0  0  0
  137.1281   70.8837  224.5842 H   0  0  0  0  0  0  0  0  0  0  0  0
  138.5981   71.8921  224.8702 H   0  0  0  0  0  0  0  0  0  0  0  0
  138.0100   71.7320  222.7990 C   0  0  0  0  0  0  0  0  0  0  0  0
  137.2414   71.1741  222.2440 H   0  0  0  0  0  0  0  0  0  0  0  0
  137.7347   72.7932  222.8889 H   0  0  0  0  0  0  0  0  0  0  0  0
  144.3490   74.4040  219.0910 C   0  0  0  0  0  0  0  0  0  0  0  0
  145.0890   73.4060  218.4260 C   0  0  0  0  0  0  0  0  0  0  0  0
  145.0171   73.3067  217.3328 H   0  0  0  0  0  0  0  0  0  0  0  0
  145.8920   72.5650  219.1320 N   0  0  0  0  0  0  0  0  0  0  0  0
  146.0060   72.6480  220.4830 C   0  0  0  0  0  0  0  0  0  0  0  0
  146.6710   71.9571  221.0219 H   0  0  0  0  0  0  0  0  0  0  0  0
  145.2810   73.6080  221.1870 C   0  0  0  0  0  0  0  0  0  0  0  0
  145.3658   73.6757  222.2816 H   0  0  0  0  0  0  0  0  0  0  0  0
  144.4460   74.4830  220.4890 C   0  0  0  0  0  0  0  0  0  0  0  0
  143.8620   75.2371  221.0369 H   0  0  0  0  0  0  0  0  0  0  0  0
  1  2  1  0
  2  3  2  0
  3  4  1  0
  3  5  1  0
  5  6  2  0
  6  7  1  0
  7  8  2  0
  8  9  1  0
  8 10  1  0
 10 11  1  0
 10 12  2  0
 12 13  1  0
 12 14  1  0
 14 15  1  0
 14 16  2  0
 16 17  1  0
 17 18  2  0
 17 19  1  0
 19 20  1  0
 20 21  1  0
 20 22  1  0
 20 23  1  0
 23 24  1  0
 23 25  1  0
 23 26  1  0
 26 27  1  0
 26 28  1  0
 26 29  1  0
 29 30  1  0
 30 31  1  0
 30 32  1  0
 30 33  1  0
 33 34  1  0
 33 35  1  0
 33 36  1  0
 36 37  1  0
 37 38  2  0
 38 39  1  0
 38 40  1  0
 40 41  1  0
 40 42  2  0
 42 43  1  0
 42 44  1  0
 44 45  1  0
 44 46  2  0
 46 47  1  0
 36 48  1  0
 48 49  1  0
 48 50  1  0
 48 51  1  0
 51 52  1  0
 51 53  1  0
  2 54  1  0
 54 55  2  0
 55 56  1  0
 55 57  1  0
 57 58  2  0
 58 59  1  0
 58 60  1  0
 60 61  1  0
 60 62  2  0
 62 63  1  0
 19  5  1  0
 51 29  1  0
 62 54  1  0
 16  7  1  0
 46 37  1  0
M  END
>  <UniqueID>  (38) 
605

>  <SMILES>  (38) 
O=c1c2ccccc2nc(/C=C/c2cccnc2)n1CCCN1CCN(c2ccccc2)CC1

>  <Energy>  (38) 
90.34088226420579

>  <Genealogy>  (38) 
O=c1c2ccccc2nc(/C=C/c2cccnc2)n1CCCN1CCN(c2ccccc2)CC1 (cis-trans isomerization)
O=c1c2ccccc2nc(/C=C/c2cccnc2)n1CCCN1CCN(c2ccccc2)CC1 (3D coordinates assigned)
O=c1c2ccccc2nc(/C=C/c2cccnc2)n1CCCN1CCN(c2ccccc2)CC1 (nonaromatic ring conformer: 90.34088226420579 kcal/mol)

>  <smiles>  (38) 
O=c1c2ccccc2nc(/C=C/c2cccnc2)n1CCCN1CCN(c2ccccc2)CC1

>  <score_type>  (38) 
oracle

>  <origin>  (38) 
autodockgpu

>  <m_score__min__energy>  (38) 
-9.1400000000000006

>  <m_primary>  (38) 
energy

>  <meeko>  (38) 
{"free_energy": -9.14, "intermolecular_energy": -11.53, "internal_energy": -1.66, "cluster_size": 10, "cluster_id": 1, "rank_in_cluster": 1}

>  <energy>  (38) 
-7.42

>  <cluster_rmsd>  (38) 
0.0

>  <rmsd>  (38) 
270.6

>  <cluster>  (38) 
6

$$$$
IETZWVUTNAYKDK-BUHFOSPRNA-N
     RDKit          3D

 63 67  0  0  0  0  0  0  0  0999 V2000
  137.4153   72.2177  221.8868 H   0  0  0  0  0  0  0  0  0  0  0  0
  138.5070   72.2930  221.9990 C   0  0  0  0  0  0  0  0  0  0  0  0
  139.2100   71.1590  222.1550 C   0  0  0  0  0  0  0  0  0  0  0  0
  139.5960   70.6458  221.2619 H   0  0  0  0  0  0  0  0  0  0  0  0
  139.4850   70.5720  223.4990 C   0  0  0  0  0  0  0  0  0  0  0  0
  139.9860   71.3950  224.4590 N   0  0  0  0  0  0  0  0  0  0  0  0
  140.2450   70.9690  225.7140 C   0  0  0  0  0  0  0  0  0  0  0  0
  140.7670   71.8570  226.6630 C   0  0  0  0  0  0  0  0  0  0  0  0
  140.9724   72.9011  226.3841 H   0  0  0  0  0  0  0  0  0  0  0  0
  141.0270   71.4180  227.9630 C   0  0  0  0  0  0  0  0  0  0  0  0
  141.4401   72.1159  228.7062 H   0  0  0  0  0  0  0  0  0  0  0  0
  140.7630   70.0930  228.3210 C   0  0  0  0  0  0  0  0  0  0  0  0
  140.9661   69.7508  229.3465 H   0  0  0  0  0  0  0  0  0  0  0  0
  140.2410   69.2010  227.3780 C   0  0  0  0  0  0  0  0  0  0  0  0
  140.0355   68.1585  227.6627 H   0  0  0  0  0  0  0  0  0  0  0  0
  139.9780   69.6370  226.0630 C   0  0  0  0  0  0  0  0  0  0  0  0
  139.4580   68.7830  225.0770 C   0  0  0  0  0  0  0  0  0  0  0  0
  139.1970   67.5840  225.3820 O   0  0  0  0  0  0  0  0  0  0  0  0
  139.2360   69.2430  223.7970 N   0  0  0  0  0  0  0  0  0  0  0  0
  138.7700   68.2920  222.7570 C   0  0  0  0  0  0  0  0  0  0  0  0
  139.1108   68.6477  221.7735 H   0  0  0  0  0  0  0  0  0  0  0  0
  139.1891   67.3025  222.9921 H   0  0  0  0  0  0  0  0  0  0  0  0
  137.2350   68.1620  222.7330 C   0  0  0  0  0  0  0  0  0  0  0  0
  136.9059   68.1235  221.6841 H   0  0  0  0  0  0  0  0  0  0  0  0
  136.9807   67.2456  223.2858 H   0  0  0  0  0  0  0  0  0  0  0  0
  136.5060   69.3250  223.4290 C   0  0  0  0  0  0  0  0  0  0  0  0
  137.1620   69.7435  224.2065 H   0  0  0  0  0  0  0  0  0  0  0  0
  136.2639   70.0833  222.6698 H   0  0  0  0  0  0  0  0  0  0  0  0
  135.2410   68.8770  224.0570 N   0  0  0  0  0  0  0  0  0  0  0  0
  135.1570   69.2410  225.4980 C   0  0  0  0  0  0  0  0  0  0  0  0
  134.7882   68.3668  226.0545 H   0  0  0  0  0  0  0  0  0  0  0  0
  136.1673   69.5458  225.8084 H   0  0  0  0  0  0  0  0  0  0  0  0
  134.2230   70.4310  225.7910 C   0  0  0  0  0  0  0  0  0  0  0  0
  133.2010   70.0586  225.9548 H   0  0  0  0  0  0  0  0  0  0  0  0
  134.5814   70.9548  226.6895 H   0  0  0  0  0  0  0  0  0  0  0  0
  134.2220   71.3660  224.6620 N   0  0  0  0  0  0  0  0  0  0  0  0
  134.5570   72.7560  224.8400 C   0  0  0  0  0  0  0  0  0  0  0  0
  133.9830   73.4980  225.8890 C   0  0  0  0  0  0  0  0  0  0  0  0
  133.2826   73.0114  226.5837 H   0  0  0  0  0  0  0  0  0  0  0  0
  134.2980   74.8500  226.0530 C   0  0  0  0  0  0  0  0  0  0  0  0
  133.8489   75.4226  226.8779 H   0  0  0  0  0  0  0  0  0  0  0  0
  135.1830   75.4750  225.1700 C   0  0  0  0  0  0  0  0  0  0  0  0
  135.4331   76.5379  225.3030 H   0  0  0  0  0  0  0  0  0  0  0  0
  135.7500   74.7510  224.1190 C   0  0  0  0  0  0  0  0  0  0  0  0
  136.4434   75.2451  223.4226 H   0  0  0  0  0  0  0  0  0  0  0  0
  135.4370   73.3980  223.9510 C   0  0  0  0  0  0  0  0  0  0  0  0
  135.8819   72.8331  223.1186 H   0  0  0  0  0  0  0  0  0  0  0  0
  133.8980   70.8490  223.3280 C   0  0  0  0  0  0  0  0  0  0  0  0
  132.8582   71.1104  223.0820 H   0  0  0  0  0  0  0  0  0  0  0  0
  134.5870   71.2978  222.5974 H   0  0  0  0  0  0  0  0  0  0  0  0
  134.0580   69.3210  223.2850 C   0  0  0  0  0  0  0  0  0  0  0  0
  133.1574   68.8552  223.7117 H   0  0  0  0  0  0  0  0  0  0  0  0
  134.1966   69.0180  222.2367 H   0  0  0  0  0  0  0  0  0  0  0  0
  139.1240   73.6400  221.9700 C   0  0  0  0  0  0  0  0  0  0  0  0
  140.5190   73.8400  221.9560 C   0  0  0  0  0  0  0  0  0  0  0  0
  141.1970   72.9738  221.9539 H   0  0  0  0  0  0  0  0  0  0  0  0
  141.0300   75.1010  221.9450 N   0  0  0  0  0  0  0  0  0  0  0  0
  140.2300   76.1990  221.9500 C   0  0  0  0  0  0  0  0  0  0  0  0
  140.6760   77.2043  221.9304 H   0  0  0  0  0  0  0  0  0  0  0  0
  138.8440   76.0520  221.9800 C   0  0  0  0  0  0  0  0  0  0  0  0
  138.1917   76.9377  221.9909 H   0  0  0  0  0  0  0  0  0  0  0  0
  138.2920   74.7700  221.9960 C   0  0  0  0  0  0  0  0  0  0  0  0
  137.1997   74.6448  222.0292 H   0  0  0  0  0  0  0  0  0  0  0  0
  1  2  1  0
  2  3  2  0
  3  4  1  0
  3  5  1  0
  5  6  2  0
  6  7  1  0
  7  8  2  0
  8  9  1  0
  8 10  1  0
 10 11  1  0
 10 12  2  0
 12 13  1  0
 12 14  1  0
 14 15  1  0
 14 16  2  0
 16 17  1  0
 17 18  2  0
 17 19  1  0
 19 20  1  0
 20 21  1  0
 20 22  1  0
 20 23  1  0
 23 24  1  0
 23 25  1  0
 23 26  1  0
 26 27  1  0
 26 28  1  0
 26 29  1  0
 29 30  1  0
 30 31  1  0
 30 32  1  0
 30 33  1  0
 33 34  1  0
 33 35  1  0
 33 36  1  0
 36 37  1  0
 37 38  2  0
 38 39  1  0
 38 40  1  0
 40 41  1  0
 40 42  2  0
 42 43  1  0
 42 44  1  0
 44 45  1  0
 44 46  2  0
 46 47  1  0
 36 48  1  0
 48 49  1  0
 48 50  1  0
 48 51  1  0
 51 52  1  0
 51 53  1  0
  2 54  1  0
 54 55  2  0
 55 56  1  0
 55 57  1  0
 57 58  2  0
 58 59  1  0
 58 60  1  0
 60 61  1  0
 60 62  2  0
 62 63  1  0
 19  5  1  0
 51 29  1  0
 62 54  1  0
 16  7  1  0
 46 37  1  0
M  END
>  <UniqueID>  (39) 
605

>  <SMILES>  (39) 
O=c1c2ccccc2nc(/C=C/c2cccnc2)n1CCCN1CCN(c2ccccc2)CC1

>  <Energy>  (39) 
90.34088226420579

>  <Genealogy>  (39) 
O=c1c2ccccc2nc(/C=C/c2cccnc2)n1CCCN1CCN(c2ccccc2)CC1 (cis-trans isomerization)
O=c1c2ccccc2nc(/C=C/c2cccnc2)n1CCCN1CCN(c2ccccc2)CC1 (3D coordinates assigned)
O=c1c2ccccc2nc(/C=C/c2cccnc2)n1CCCN1CCN(c2ccccc2)CC1 (nonaromatic ring conformer: 90.34088226420579 kcal/mol)

>  <smiles>  (39) 
O=c1c2ccccc2nc(/C=C/c2cccnc2)n1CCCN1CCN(c2ccccc2)CC1

>  <score_type>  (39) 
oracle

>  <origin>  (39) 
autodockgpu

>  <m_score__min__energy>  (39) 
-9.1400000000000006

>  <m_primary>  (39) 
energy

>  <meeko>  (39) 
{"free_energy": -8.41, "intermolecular_energy": -10.8, "internal_energy": -2.34, "cluster_size": 3, "cluster_id": 3, "rank_in_cluster": 2}

>  <energy>  (39) 
-6.98

>  <cluster_rmsd>  (39) 
0.0

>  <rmsd>  (39) 
269.44

>  <cluster>  (39) 
7

$$$$
IETZWVUTNAYKDK-BUHFOSPRNA-N
     RDKit          3D

 63 67  0  0  0  0  0  0  0  0999 V2000
  139.5030   70.1787  222.7259 H   0  0  0  0  0  0  0  0  0  0  0  0
  139.6120   71.0980  223.3200 C   0  0  0  0  0  0  0  0  0  0  0  0
  139.4120   72.2770  222.7090 C   0  0  0  0  0  0  0  0  0  0  0  0
  138.3959   72.6978  222.6848 H   0  0  0  0  0  0  0  0  0  0  0  0
  140.5220   73.0350  222.0620 C   0  0  0  0  0  0  0  0  0  0  0  0
  141.6200   72.3350  221.6660 N   0  0  0  0  0  0  0  0  0  0  0  0
  142.6670   72.9230  221.0470 C   0  0  0  0  0  0  0  0  0  0  0  0
  143.7760   72.1570  220.6660 C   0  0  0  0  0  0  0  0  0  0  0  0
  143.7970   71.0776  220.8769 H   0  0  0  0  0  0  0  0  0  0  0  0
  144.8560   72.7630  220.0180 C   0  0  0  0  0  0  0  0  0  0  0  0
  145.7271   72.1605  219.7211 H   0  0  0  0  0  0  0  0  0  0  0  0
  144.8300   74.1340  219.7470 C   0  0  0  0  0  0  0  0  0  0  0  0
  145.6800   74.6085  219.2347 H   0  0  0  0  0  0  0  0  0  0  0  0
  143.7250   74.9040  220.1260 C   0  0  0  0  0  0  0  0  0  0  0  0
  143.7083   75.9830  219.9126 H   0  0  0  0  0  0  0  0  0  0  0  0
  142.6330   74.2990  220.7810 C   0  0  0  0  0  0  0  0  0  0  0  0
  141.5010   75.0260  221.1850 C   0  0  0  0  0  0  0  0  0  0  0  0
  141.4480   76.2640  220.9360 O   0  0  0  0  0  0  0  0  0  0  0  0
  140.4630   74.4000  221.8420 N   0  0  0  0  0  0  0  0  0  0  0  0
  139.3240   75.2140  222.3350 C   0  0  0  0  0  0  0  0  0  0  0  0
  138.9819   74.8004  223.2952 H   0  0  0  0  0  0  0  0  0  0  0  0
  139.6731   76.2509  222.4485 H   0  0  0  0  0  0  0  0  0  0  0  0
  138.1420   75.2170  221.3460 C   0  0  0  0  0  0  0  0  0  0  0  0
  137.9930   74.1905  220.9797 H   0  0  0  0  0  0  0  0  0  0  0  0
  137.2668   75.5989  221.8920 H   0  0  0  0  0  0  0  0  0  0  0  0
  138.3530   76.1390  220.1340 C   0  0  0  0  0  0  0  0  0  0  0  0
  139.3819   76.5275  220.1560 H   0  0  0  0  0  0  0  0  0  0  0  0
  138.1736   75.5528  219.2207 H   0  0  0  0  0  0  0  0  0  0  0  0
  137.4080   77.2800  220.1450 N   0  0  0  0  0  0  0  0  0  0  0  0
  137.0970   77.7520  221.5220 C   0  0  0  0  0  0  0  0  0  0  0  0
  136.0109   77.9098  221.5963 H   0  0  0  0  0  0  0  0  0  0  0  0
  137.4614   76.9777  222.2131 H   0  0  0  0  0  0  0  0  0  0  0  0
  137.8050   79.0650  221.9110 C   0  0  0  0  0  0  0  0  0  0  0  0
  137.1780   79.9181  221.6126 H   0  0  0  0  0  0  0  0  0  0  0  0
  137.9639   79.0783  222.9994 H   0  0  0  0  0  0  0  0  0  0  0  0
  139.1030   79.1590  221.2370 N   0  0  0  0  0  0  0  0  0  0  0  0
  140.3220   79.3440  221.9830 C   0  0  0  0  0  0  0  0  0  0  0  0
  140.6400   78.4860  223.0520 C   0  0  0  0  0  0  0  0  0  0  0  0
  139.9585   77.6633  223.3141 H   0  0  0  0  0  0  0  0  0  0  0  0
  141.8170   78.6730  223.7830 C   0  0  0  0  0  0  0  0  0  0  0  0
  142.0609   77.9951  224.6143 H   0  0  0  0  0  0  0  0  0  0  0  0
  142.6840   79.7200  223.4590 C   0  0  0  0  0  0  0  0  0  0  0  0
  143.6113   79.8639  224.0330 H   0  0  0  0  0  0  0  0  0  0  0  0
  142.3730   80.5840  222.4060 C   0  0  0  0  0  0  0  0  0  0  0  0
  143.0541   81.4101  222.1540 H   0  0  0  0  0  0  0  0  0  0  0  0
  141.1970   80.4000  221.6720 C   0  0  0  0  0  0  0  0  0  0  0  0
  140.9550   81.0854  220.8464 H   0  0  0  0  0  0  0  0  0  0  0  0
  139.1430   79.0360  219.7760 C   0  0  0  0  0  0  0  0  0  0  0  0
  139.2406   80.0374  219.3315 H   0  0  0  0  0  0  0  0  0  0  0  0
  140.0031   78.4100  219.4963 H   0  0  0  0  0  0  0  0  0  0  0  0
  137.8570   78.3740  219.2530 C   0  0  0  0  0  0  0  0  0  0  0  0
  137.0636   79.1334  219.1915 H   0  0  0  0  0  0  0  0  0  0  0  0
  138.0676   77.9465  218.2616 H   0  0  0  0  0  0  0  0  0  0  0  0
  139.9720   70.9690  224.7530 C   0  0  0  0  0  0  0  0  0  0  0  0
  140.8070   71.8910  225.4150 C   0  0  0  0  0  0  0  0  0  0  0  0
  141.2095   72.7566  224.8685 H   0  0  0  0  0  0  0  0  0  0  0  0
  141.1170   71.7140  226.7280 N   0  0  0  0  0  0  0  0  0  0  0  0
  140.6460   70.6570  227.4390 C   0  0  0  0  0  0  0  0  0  0  0  0
  140.9085   70.5487  228.5017 H   0  0  0  0  0  0  0  0  0  0  0  0
  139.8300   69.7090  226.8230 C   0  0  0  0  0  0  0  0  0  0  0  0
  139.4508   68.8481  227.3931 H   0  0  0  0  0  0  0  0  0  0  0  0
  139.4990   69.8630  225.4760 C   0  0  0  0  0  0  0  0  0  0  0  0
  138.8647   69.1143  224.9789 H   0  0  0  0  0  0  0  0  0  0  0  0
  1  2  1  0
  2  3  2  0
  3  4  1  0
  3  5  1  0
  5  6  2  0
  6  7  1  0
  7  8  2  0
  8  9  1  0
  8 10  1  0
 10 11  1  0
 10 12  2  0
 12 13  1  0
 12 14  1  0
 14 15  1  0
 14 16  2  0
 16 17  1  0
 17 18  2  0
 17 19  1  0
 19 20  1  0
 20 21  1  0
 20 22  1  0
 20 23  1  0
 23 24  1  0
 23 25  1  0
 23 26  1  0
 26 27  1  0
 26 28  1  0
 26 29  1  0
 29 30  1  0
 30 31  1  0
 30 32  1  0
 30 33  1  0
 33 34  1  0
 33 35  1  0
 33 36  1  0
 36 37  1  0
 37 38  2  0
 38 39  1  0
 38 40  1  0
 40 41  1  0
 40 42  2  0
 42 43  1  0
 42 44  1  0
 44 45  1  0
 44 46  2  0
 46 47  1  0
 36 48  1  0
 48 49  1  0
 48 50  1  0
 48 51  1  0
 51 52  1  0
 51 53  1  0
  2 54  1  0
 54 55  2  0
 55 56  1  0
 55 57  1  0
 57 58  2  0
 58 59  1  0
 58 60  1  0
 60 61  1  0
 60 62  2  0
 62 63  1  0
 19  5  1  0
 51 29  1  0
 62 54  1  0
 16  7  1  0
 46 37  1  0
M  END
>  <UniqueID>  (40) 
605

>  <SMILES>  (40) 
O=c1c2ccccc2nc(/C=C/c2cccnc2)n1CCCN1CCN(c2ccccc2)CC1

>  <Energy>  (40) 
90.34088226420579

>  <Genealogy>  (40) 
O=c1c2ccccc2nc(/C=C/c2cccnc2)n1CCCN1CCN(c2ccccc2)CC1 (cis-trans isomerization)
O=c1c2ccccc2nc(/C=C/c2cccnc2)n1CCCN1CCN(c2ccccc2)CC1 (3D coordinates assigned)
O=c1c2ccccc2nc(/C=C/c2cccnc2)n1CCCN1CCN(c2ccccc2)CC1 (nonaromatic ring conformer: 90.34088226420579 kcal/mol)

>  <smiles>  (40) 
O=c1c2ccccc2nc(/C=C/c2cccnc2)n1CCCN1CCN(c2ccccc2)CC1

>  <score_type>  (40) 
oracle

>  <origin>  (40) 
autodockgpu

>  <m_score__min__energy>  (40) 
-9.1400000000000006

>  <m_primary>  (40) 
energy

>  <meeko>  (40) 
{"free_energy": -7.42, "intermolecular_energy": -9.81, "internal_energy": -2.12, "cluster_size": 1, "cluster_id": 6, "rank_in_cluster": 1}

>  <energy>  (40) 
-6.57

>  <cluster_rmsd>  (40) 
0.0

>  <rmsd>  (40) 
270.93

>  <cluster>  (40) 
8

$$$$
IETZWVUTNAYKDK-BUHFOSPRNA-N
     RDKit          3D

 63 67  0  0  0  0  0  0  0  0999 V2000
  136.6480   72.6776  222.7180 H   0  0  0  0  0  0  0  0  0  0  0  0
  137.6480   72.2580  222.5340 C   0  0  0  0  0  0  0  0  0  0  0  0
  137.8050   70.9270  222.6220 C   0  0  0  0  0  0  0  0  0  0  0  0
  137.3566   70.2866  221.8481 H   0  0  0  0  0  0  0  0  0  0  0  0
  138.5670   70.2880  223.7340 C   0  0  0  0  0  0  0  0  0  0  0  0
  139.1060   71.1020  224.6820 N   0  0  0  0  0  0  0  0  0  0  0  0
  139.7910   70.6220  225.7430 C   0  0  0  0  0  0  0  0  0  0  0  0
  140.3330   71.5040  226.6860 C   0  0  0  0  0  0  0  0  0  0  0  0
  140.2074   72.5894  226.5589 H   0  0  0  0  0  0  0  0  0  0  0  0
  141.0330   71.0070  227.7880 C   0  0  0  0  0  0  0  0  0  0  0  0
  141.4587   71.7014  228.5273 H   0  0  0  0  0  0  0  0  0  0  0  0
  141.1930   69.6290  227.9520 C   0  0  0  0  0  0  0  0  0  0  0  0
  141.7438   69.2401  228.8211 H   0  0  0  0  0  0  0  0  0  0  0  0
  140.6540   68.7420  227.0130 C   0  0  0  0  0  0  0  0  0  0  0  0
  140.7815   67.6575  227.1453 H   0  0  0  0  0  0  0  0  0  0  0  0
  139.9480   69.2370  225.8980 C   0  0  0  0  0  0  0  0  0  0  0  0
  139.3900   68.3920  224.9250 C   0  0  0  0  0  0  0  0  0  0  0  0
  139.5080   67.1410  225.0610 O   0  0  0  0  0  0  0  0  0  0  0  0
  138.7250   68.9170  223.8380 N   0  0  0  0  0  0  0  0  0  0  0  0
  138.2260   68.0000  222.7830 C   0  0  0  0  0  0  0  0  0  0  0  0
  137.9611   67.0379  223.2458 H   0  0  0  0  0  0  0  0  0  0  0  0
  137.3509   68.4710  222.3115 H   0  0  0  0  0  0  0  0  0  0  0  0
  139.2790   67.7500  221.6850 C   0  0  0  0  0  0  0  0  0  0  0  0
  140.0759   67.1186  222.1049 H   0  0  0  0  0  0  0  0  0  0  0  0
  138.7598   67.2656  220.8449 H   0  0  0  0  0  0  0  0  0  0  0  0
  139.9170   69.0380  221.1380 C   0  0  0  0  0  0  0  0  0  0  0  0
  139.6353   69.8798  221.7876 H   0  0  0  0  0  0  0  0  0  0  0  0
  141.0085   68.9021  221.1228 H   0  0  0  0  0  0  0  0  0  0  0  0
  139.4660   69.3250  219.7560 N   0  0  0  0  0  0  0  0  0  0  0  0
  139.0780   70.7500  219.5640 C   0  0  0  0  0  0  0  0  0  0  0  0
  138.1310   70.7785  219.0051 H   0  0  0  0  0  0  0  0  0  0  0  0
  138.9913   71.1944  220.5665 H   0  0  0  0  0  0  0  0  0  0  0  0
  140.1210   71.5850  218.7940 C   0  0  0  0  0  0  0  0  0  0  0  0
  139.9175   71.5149  217.7153 H   0  0  0  0  0  0  0  0  0  0  0  0
  140.0542   72.6328  219.1223 H   0  0  0  0  0  0  0  0  0  0  0  0
  141.4720   71.0850  219.0650 N   0  0  0  0  0  0  0  0  0  0  0  0
  142.5000   71.9500  219.5840 C   0  0  0  0  0  0  0  0  0  0  0  0
  142.5530   73.3030  219.2030 C   0  0  0  0  0  0  0  0  0  0  0  0
  141.7985   73.7060  218.5114 H   0  0  0  0  0  0  0  0  0  0  0  0
  143.5590   74.1390  219.6980 C   0  0  0  0  0  0  0  0  0  0  0  0
  143.5900   75.1974  219.3999 H   0  0  0  0  0  0  0  0  0  0  0  0
  144.5250   73.6310  220.5710 C   0  0  0  0  0  0  0  0  0  0  0  0
  145.3138   74.2904  220.9621 H   0  0  0  0  0  0  0  0  0  0  0  0
  144.4890   72.2860  220.9470 C   0  0  0  0  0  0  0  0  0  0  0  0
  145.2522   71.8863  221.6310 H   0  0  0  0  0  0  0  0  0  0  0  0
  143.4840   71.4470  220.4550 C   0  0  0  0  0  0  0  0  0  0  0  0
  143.4627   70.3877  220.7507 H   0  0  0  0  0  0  0  0  0  0  0  0
  141.7530   69.6670  218.8200 C   0  0  0  0  0  0  0  0  0  0  0  0
  142.2923   69.5651  217.8667 H   0  0  0  0  0  0  0  0  0  0  0  0
  142.3650   69.2794  219.6477 H   0  0  0  0  0  0  0  0  0  0  0  0
  140.4470   68.8590  218.7500 C   0  0  0  0  0  0  0  0  0  0  0  0
  140.0106   68.9712  217.7465 H   0  0  0  0  0  0  0  0  0  0  0  0
  140.6817   67.8049  218.9593 H   0  0  0  0  0  0  0  0  0  0  0  0
  138.7510   73.1920  222.2020 C   0  0  0  0  0  0  0  0  0  0  0  0
  140.1090   72.8210  222.2620 C   0  0  0  0  0  0  0  0  0  0  0  0
  140.3855   71.7969  222.5530 H   0  0  0  0  0  0  0  0  0  0  0  0
  141.0790   73.7260  221.9610 N   0  0  0  0  0  0  0  0  0  0  0  0
  140.7840   75.0020  221.6010 C   0  0  0  0  0  0  0  0  0  0  0  0
  141.5935   75.7051  221.3551 H   0  0  0  0  0  0  0  0  0  0  0  0
  139.4550   75.4210  221.5430 C   0  0  0  0  0  0  0  0  0  0  0  0
  139.2104   76.4548  221.2575 H   0  0  0  0  0  0  0  0  0  0  0  0
  138.4380   74.5150  221.8510 C   0  0  0  0  0  0  0  0  0  0  0  0
  137.3873   74.8391  221.8185 H   0  0  0  0  0  0  0  0  0  0  0  0
  1  2  1  0
  2  3  2  0
  3  4  1  0
  3  5  1  0
  5  6  2  0
  6  7  1  0
  7  8  2  0
  8  9  1  0
  8 10  1  0
 10 11  1  0
 10 12  2  0
 12 13  1  0
 12 14  1  0
 14 15  1  0
 14 16  2  0
 16 17  1  0
 17 18  2  0
 17 19  1  0
 19 20  1  0
 20 21  1  0
 20 22  1  0
 20 23  1  0
 23 24  1  0
 23 25  1  0
 23 26  1  0
 26 27  1  0
 26 28  1  0
 26 29  1  0
 29 30  1  0
 30 31  1  0
 30 32  1  0
 30 33  1  0
 33 34  1  0
 33 35  1  0
 33 36  1  0
 36 37  1  0
 37 38  2  0
 38 39  1  0
 38 40  1  0
 40 41  1  0
 40 42  2  0
 42 43  1  0
 42 44  1  0
 44 45  1  0
 44 46  2  0
 46 47  1  0
 36 48  1  0
 48 49  1  0
 48 50  1  0
 48 51  1  0
 51 52  1  0
 51 53  1  0
  2 54  1  0
 54 55  2  0
 55 56  1  0
 55 57  1  0
 57 58  2  0
 58 59  1  0
 58 60  1  0
 60 61  1  0
 60 62  2  0
 62 63  1  0
 19  5  1  0
 51 29  1  0
 62 54  1  0
 16  7  1  0
 46 37  1  0
M  END
>  <UniqueID>  (41) 
606

>  <SMILES>  (41) 
O=c1c2ccccc2nc(/C=C/c2cccnc2)n1CCCN1CCN(c2ccccc2)CC1

>  <Energy>  (41) 
91.13176627644881

>  <Genealogy>  (41) 
O=c1c2ccccc2nc(/C=C/c2cccnc2)n1CCCN1CCN(c2ccccc2)CC1 (cis-trans isomerization)
O=c1c2ccccc2nc(/C=C/c2cccnc2)n1CCCN1CCN(c2ccccc2)CC1 (3D coordinates assigned)
O=c1c2ccccc2nc(/C=C/c2cccnc2)n1CCCN1CCN(c2ccccc2)CC1 (nonaromatic ring conformer: 91.13176627644881 kcal/mol)

>  <smiles>  (41) 
O=c1c2ccccc2nc(/C=C/c2cccnc2)n1CCCN1CCN(c2ccccc2)CC1

>  <score_type>  (41) 
oracle

>  <origin>  (41) 
autodockgpu

>  <m_score__min__energy>  (41) 
-9.1400000000000006

>  <m_primary>  (41) 
energy

>  <meeko>  (41) 
{"free_energy": -6.98, "intermolecular_energy": -9.37, "internal_energy": -2.79, "cluster_size": 1, "cluster_id": 7, "rank_in_cluster": 1}

>  <energy>  (41) 
-9.14

>  <cluster_rmsd>  (41) 
0.0

>  <rmsd>  (41) 
270.58

>  <cluster>  (41) 
1

$$$$
IETZWVUTNAYKDK-BUHFOSPRNA-N
     RDKit          3D

 63 67  0  0  0  0  0  0  0  0999 V2000
  135.8966   77.0827  223.8992 H   0  0  0  0  0  0  0  0  0  0  0  0
  136.0910   76.0220  223.6820 C   0  0  0  0  0  0  0  0  0  0  0  0
  136.9570   75.7230  222.7000 C   0  0  0  0  0  0  0  0  0  0  0  0
  136.7029   74.9185  221.9942 H   0  0  0  0  0  0  0  0  0  0  0  0
  138.2520   76.4450  222.5340 C   0  0  0  0  0  0  0  0  0  0  0  0
  138.3600   77.6850  223.0810 N   0  0  0  0  0  0  0  0  0  0  0  0
  139.4970   78.4110  223.0090 C   0  0  0  0  0  0  0  0  0  0  0  0
  139.5520   79.6870  223.5840 C   0  0  0  0  0  0  0  0  0  0  0  0
  138.6664   80.1014  224.0879 H   0  0  0  0  0  0  0  0  0  0  0  0
  140.7310   80.4340  223.5180 C   0  0  0  0  0  0  0  0  0  0  0  0
  140.7724   81.4363  223.9694 H   0  0  0  0  0  0  0  0  0  0  0  0
  141.8580   79.9090  222.8790 C   0  0  0  0  0  0  0  0  0  0  0  0
  142.7856   80.4982  222.8296 H   0  0  0  0  0  0  0  0  0  0  0  0
  141.8080   78.6350  222.3020 C   0  0  0  0  0  0  0  0  0  0  0  0
  142.6959   78.2252  221.7984 H   0  0  0  0  0  0  0  0  0  0  0  0
  140.6220   77.8760  222.3650 C   0  0  0  0  0  0  0  0  0  0  0  0
  140.5170   76.5950  221.8000 C   0  0  0  0  0  0  0  0  0  0  0  0
  141.5280   76.0930  221.2310 O   0  0  0  0  0  0  0  0  0  0  0  0
  139.3310   75.8940  221.8640 N   0  0  0  0  0  0  0  0  0  0  0  0
  139.2290   74.5820  221.1790 C   0  0  0  0  0  0  0  0  0  0  0  0
  138.3747   74.6091  220.4866 H   0  0  0  0  0  0  0  0  0  0  0  0
  140.1730   74.4063  220.6424 H   0  0  0  0  0  0  0  0  0  0  0  0
  139.0260   73.4220  222.1730 C   0  0  0  0  0  0  0  0  0  0  0  0
  139.3625   73.7528  223.1667 H   0  0  0  0  0  0  0  0  0  0  0  0
  137.9561   73.1671  222.1565 H   0  0  0  0  0  0  0  0  0  0  0  0
  139.7990   72.1460  221.7980 C   0  0  0  0  0  0  0  0  0  0  0  0
  140.3075   72.3062  220.8358 H   0  0  0  0  0  0  0  0  0  0  0  0
  140.5265   71.9368  222.5961 H   0  0  0  0  0  0  0  0  0  0  0  0
  138.8950   70.9780  221.6760 N   0  0  0  0  0  0  0  0  0  0  0  0
  139.5690   69.6940  222.0170 C   0  0  0  0  0  0  0  0  0  0  0  0
  139.2995   68.9486  221.2543 H   0  0  0  0  0  0  0  0  0  0  0  0
  140.6493   69.8992  222.0454 H   0  0  0  0  0  0  0  0  0  0  0  0
  139.1850   69.1330  223.4000 C   0  0  0  0  0  0  0  0  0  0  0  0
  138.2950   68.4945  223.2985 H   0  0  0  0  0  0  0  0  0  0  0  0
  140.0269   68.5451  223.7945 H   0  0  0  0  0  0  0  0  0  0  0  0
  138.8910   70.2290  224.3290 N   0  0  0  0  0  0  0  0  0  0  0  0
  139.5900   70.3570  225.5820 C   0  0  0  0  0  0  0  0  0  0  0  0
  140.3760   71.4940  225.8470 C   0  0  0  0  0  0  0  0  0  0  0  0
  140.4503   72.2945  225.0962 H   0  0  0  0  0  0  0  0  0  0  0  0
  141.0630   71.6120  227.0590 C   0  0  0  0  0  0  0  0  0  0  0  0
  141.6703   72.5066  227.2615 H   0  0  0  0  0  0  0  0  0  0  0  0
  140.9790   70.5950  228.0130 C   0  0  0  0  0  0  0  0  0  0  0  0
  141.5181   70.6909  228.9670 H   0  0  0  0  0  0  0  0  0  0  0  0
  140.2110   69.4560  227.7570 C   0  0  0  0  0  0  0  0  0  0  0  0
  140.1490   68.6544  228.5078 H   0  0  0  0  0  0  0  0  0  0  0  0
  139.5210   69.3350  226.5460 C   0  0  0  0  0  0  0  0  0  0  0  0
  138.9208   68.4350  226.3465 H   0  0  0  0  0  0  0  0  0  0  0  0
  137.8800   71.2180  223.9420 C   0  0  0  0  0  0  0  0  0  0  0  0
  136.9387   70.9962  224.4662 H   0  0  0  0  0  0  0  0  0  0  0  0
  138.2425   72.2198  224.2157 H   0  0  0  0  0  0  0  0  0  0  0  0
  137.6340   71.1790  222.4250 C   0  0  0  0  0  0  0  0  0  0  0  0
  136.9462   70.3518  222.1956 H   0  0  0  0  0  0  0  0  0  0  0  0
  137.2017   72.1436  222.1205 H   0  0  0  0  0  0  0  0  0  0  0  0
  135.3830   75.0000  224.4890 C   0  0  0  0  0  0  0  0  0  0  0  0
  134.6910   75.3100  225.6770 C   0  0  0  0  0  0  0  0  0  0  0  0
  134.6515   76.3501  226.0327 H   0  0  0  0  0  0  0  0  0  0  0  0
  134.0720   74.3280  226.3850 N   0  0  0  0  0  0  0  0  0  0  0  0
  134.0990   73.0300  225.9850 C   0  0  0  0  0  0  0  0  0  0  0  0
  133.5791   72.2618  226.5762 H   0  0  0  0  0  0  0  0  0  0  0  0
  134.7850   72.6710  224.8260 C   0  0  0  0  0  0  0  0  0  0  0  0
  134.8155   71.6204  224.5015 H   0  0  0  0  0  0  0  0  0  0  0  0
  135.4330   73.6580  224.0810 C   0  0  0  0  0  0  0  0  0  0  0  0
  135.9851   73.3827  223.1703 H   0  0  0  0  0  0  0  0  0  0  0  0
  1  2  1  0
  2  3  2  0
  3  4  1  0
  3  5  1  0
  5  6  2  0
  6  7  1  0
  7  8  2  0
  8  9  1  0
  8 10  1  0
 10 11  1  0
 10 12  2  0
 12 13  1  0
 12 14  1  0
 14 15  1  0
 14 16  2  0
 16 17  1  0
 17 18  2  0
 17 19  1  0
 19 20  1  0
 20 21  1  0
 20 22  1  0
 20 23  1  0
 23 24  1  0
 23 25  1  0
 23 26  1  0
 26 27  1  0
 26 28  1  0
 26 29  1  0
 29 30  1  0
 30 31  1  0
 30 32  1  0
 30 33  1  0
 33 34  1  0
 33 35  1  0
 33 36  1  0
 36 37  1  0
 37 38  2  0
 38 39  1  0
 38 40  1  0
 40 41  1  0
 40 42  2  0
 42 43  1  0
 42 44  1  0
 44 45  1  0
 44 46  2  0
 46 47  1  0
 36 48  1  0
 48 49  1  0
 48 50  1  0
 48 51  1  0
 51 52  1  0
 51 53  1  0
  2 54  1  0
 54 55  2  0
 55 56  1  0
 55 57  1  0
 57 58  2  0
 58 59  1  0
 58 60  1  0
 60 61  1  0
 60 62  2  0
 62 63  1  0
 19  5  1  0
 51 29  1  0
 62 54  1  0
 16  7  1  0
 46 37  1  0
M  END
>  <UniqueID>  (42) 
606

>  <SMILES>  (42) 
O=c1c2ccccc2nc(/C=C/c2cccnc2)n1CCCN1CCN(c2ccccc2)CC1

>  <Energy>  (42) 
91.13176627644881

>  <Genealogy>  (42) 
O=c1c2ccccc2nc(/C=C/c2cccnc2)n1CCCN1CCN(c2ccccc2)CC1 (cis-trans isomerization)
O=c1c2ccccc2nc(/C=C/c2cccnc2)n1CCCN1CCN(c2ccccc2)CC1 (3D coordinates assigned)
O=c1c2ccccc2nc(/C=C/c2cccnc2)n1CCCN1CCN(c2ccccc2)CC1 (nonaromatic ring conformer: 91.13176627644881 kcal/mol)

>  <smiles>  (42) 
O=c1c2ccccc2nc(/C=C/c2cccnc2)n1CCCN1CCN(c2ccccc2)CC1

>  <score_type>  (42) 
oracle

>  <origin>  (42) 
autodockgpu

>  <m_score__min__energy>  (42) 
-9.1400000000000006

>  <m_primary>  (42) 
energy

>  <meeko>  (42) 
{"free_energy": -8.64, "intermolecular_energy": -11.03, "internal_energy": -1.64, "cluster_size": 2, "cluster_id": 2, "rank_in_cluster": 1}

>  <energy>  (42) 
-9.11

>  <cluster_rmsd>  (42) 
0.82

>  <rmsd>  (42) 
270.76

>  <cluster>  (42) 
1

$$$$
IETZWVUTNAYKDK-BUHFOSPRNA-N
     RDKit          3D

 63 67  0  0  0  0  0  0  0  0999 V2000
  142.3687   79.8857  219.3151 H   0  0  0  0  0  0  0  0  0  0  0  0
  141.7460   79.4740  220.1230 C   0  0  0  0  0  0  0  0  0  0  0  0
  140.9170   78.4590  219.8320 C   0  0  0  0  0  0  0  0  0  0  0  0
  139.9770   78.6753  219.3031 H   0  0  0  0  0  0  0  0  0  0  0  0
  141.2280   77.0470  220.2020 C   0  0  0  0  0  0  0  0  0  0  0  0
  142.4390   76.5480  219.8330 N   0  0  0  0  0  0  0  0  0  0  0  0
  142.8270   75.2920  220.1420 C   0  0  0  0  0  0  0  0  0  0  0  0
  144.0820   74.8250  219.7310 C   0  0  0  0  0  0  0  0  0  0  0  0
  144.7485   75.4795  219.1502 H   0  0  0  0  0  0  0  0  0  0  0  0
  144.4880   73.5290  220.0580 C   0  0  0  0  0  0  0  0  0  0  0  0
  145.4738   73.1639  219.7342 H   0  0  0  0  0  0  0  0  0  0  0  0
  143.6430   72.6960  220.7960 C   0  0  0  0  0  0  0  0  0  0  0  0
  143.9656   71.6763  221.0531 H   0  0  0  0  0  0  0  0  0  0  0  0
  142.3870   73.1560  221.2090 C   0  0  0  0  0  0  0  0  0  0  0  0
  141.7237   72.4974  221.7889 H   0  0  0  0  0  0  0  0  0  0  0  0
  141.9720   74.4630  220.8820 C   0  0  0  0  0  0  0  0  0  0  0  0
  140.7220   74.9730  221.2670 C   0  0  0  0  0  0  0  0  0  0  0  0
  139.9470   74.2440  221.9500 O   0  0  0  0  0  0  0  0  0  0  0  0
  140.3440   76.2500  220.9080 N   0  0  0  0  0  0  0  0  0  0  0  0
  138.9820   76.7260  221.2550 C   0  0  0  0  0  0  0  0  0  0  0  0
  138.7167   77.5585  220.5868 H   0  0  0  0  0  0  0  0  0  0  0  0
  138.2882   75.8807  221.1360 H   0  0  0  0  0  0  0  0  0  0  0  0
  138.8900   77.2120  222.7140 C   0  0  0  0  0  0  0  0  0  0  0  0
  137.9052   76.9279  223.1134 H   0  0  0  0  0  0  0  0  0  0  0  0
  139.7176   76.7394  223.2634 H   0  0  0  0  0  0  0  0  0  0  0  0
  139.0570   78.7330  222.8700 C   0  0  0  0  0  0  0  0  0  0  0  0
  139.8543   78.9314  223.6014 H   0  0  0  0  0  0  0  0  0  0  0  0
  139.3126   79.1537  221.8863 H   0  0  0  0  0  0  0  0  0  0  0  0
  137.8060   79.3740  223.3370 N   0  0  0  0  0  0  0  0  0  0  0  0
  138.0500   80.6640  224.0400 C   0  0  0  0  0  0  0  0  0  0  0  0
  137.4347   80.6827  224.9516 H   0  0  0  0  0  0  0  0  0  0  0  0
  139.1279   80.7099  224.2547 H   0  0  0  0  0  0  0  0  0  0  0  0
  137.7100   81.9100  223.2010 C   0  0  0  0  0  0  0  0  0  0  0  0
  136.6524   82.1719  223.3522 H   0  0  0  0  0  0  0  0  0  0  0  0
  138.3535   82.7431  223.5201 H   0  0  0  0  0  0  0  0  0  0  0  0
  137.9440   81.6440  221.7780 N   0  0  0  0  0  0  0  0  0  0  0  0
  138.8230   82.4740  220.9950 C   0  0  0  0  0  0  0  0  0  0  0  0
  139.2470   82.0570  219.7200 C   0  0  0  0  0  0  0  0  0  0  0  0
  138.8975   81.0959  219.3148 H   0  0  0  0  0  0  0  0  0  0  0  0
  140.1100   82.8570  218.9650 C   0  0  0  0  0  0  0  0  0  0  0  0
  140.4335   82.5264  217.9669 H   0  0  0  0  0  0  0  0  0  0  0  0
  140.5620   84.0760  219.4770 C   0  0  0  0  0  0  0  0  0  0  0  0
  141.2380   84.7060  218.8803 H   0  0  0  0  0  0  0  0  0  0  0  0
  140.1560   84.4950  220.7460 C   0  0  0  0  0  0  0  0  0  0  0  0
  140.5156   85.4531  221.1494 H   0  0  0  0  0  0  0  0  0  0  0  0
  139.2930   83.6980  221.5040 C   0  0  0  0  0  0  0  0  0  0  0  0
  138.9796   84.0303  222.5047 H   0  0  0  0  0  0  0  0  0  0  0  0
  137.2790   80.4880  221.1670 C   0  0  0  0  0  0  0  0  0  0  0  0
  136.4070   80.8346  220.5930 H   0  0  0  0  0  0  0  0  0  0  0  0
  137.9936   79.9781  220.5041 H   0  0  0  0  0  0  0  0  0  0  0  0
  136.8120   79.4980  222.2460 C   0  0  0  0  0  0  0  0  0  0  0  0
  135.8603   79.8527  222.6684 H   0  0  0  0  0  0  0  0  0  0  0  0
  136.6892   78.5103  221.7777 H   0  0  0  0  0  0  0  0  0  0  0  0
  141.8670   80.0700  221.4760 C   0  0  0  0  0  0  0  0  0  0  0  0
  141.7160   81.4500  221.7170 C   0  0  0  0  0  0  0  0  0  0  0  0
  141.4868   82.1306  220.8838 H   0  0  0  0  0  0  0  0  0  0  0  0
  141.8530   81.9430  222.9780 N   0  0  0  0  0  0  0  0  0  0  0  0
  142.1410   81.1400  224.0350 C   0  0  0  0  0  0  0  0  0  0  0  0
  142.2362   81.5706  225.0427 H   0  0  0  0  0  0  0  0  0  0  0  0
  142.3160   79.7700  223.8430 C   0  0  0  0  0  0  0  0  0  0  0  0
  142.5550   79.1162  224.6947 H   0  0  0  0  0  0  0  0  0  0  0  0
  142.1850   79.2360  222.5600 C   0  0  0  0  0  0  0  0  0  0  0  0
  142.3314   78.1580  222.3975 H   0  0  0  0  0  0  0  0  0  0  0  0
  1  2  1  0
  2  3  2  0
  3  4  1  0
  3  5  1  0
  5  6  2  0
  6  7  1  0
  7  8  2  0
  8  9  1  0
  8 10  1  0
 10 11  1  0
 10 12  2  0
 12 13  1  0
 12 14  1  0
 14 15  1  0
 14 16  2  0
 16 17  1  0
 17 18  2  0
 17 19  1  0
 19 20  1  0
 20 21  1  0
 20 22  1  0
 20 23  1  0
 23 24  1  0
 23 25  1  0
 23 26  1  0
 26 27  1  0
 26 28  1  0
 26 29  1  0
 29 30  1  0
 30 31  1  0
 30 32  1  0
 30 33  1  0
 33 34  1  0
 33 35  1  0
 33 36  1  0
 36 37  1  0
 37 38  2  0
 38 39  1  0
 38 40  1  0
 40 41  1  0
 40 42  2  0
 42 43  1  0
 42 44  1  0
 44 45  1  0
 44 46  2  0
 46 47  1  0
 36 48  1  0
 48 49  1  0
 48 50  1  0
 48 51  1  0
 51 52  1  0
 51 53  1  0
  2 54  1  0
 54 55  2  0
 55 56  1  0
 55 57  1  0
 57 58  2  0
 58 59  1  0
 58 60  1  0
 60 61  1  0
 60 62  2  0
 62 63  1  0
 19  5  1  0
 51 29  1  0
 62 54  1  0
 16  7  1  0
 46 37  1  0
M  END
>  <UniqueID>  (43) 
606

>  <SMILES>  (43) 
O=c1c2ccccc2nc(/C=C/c2cccnc2)n1CCCN1CCN(c2ccccc2)CC1

>  <Energy>  (43) 
91.13176627644881

>  <Genealogy>  (43) 
O=c1c2ccccc2nc(/C=C/c2cccnc2)n1CCCN1CCN(c2ccccc2)CC1 (cis-trans isomerization)
O=c1c2ccccc2nc(/C=C/c2cccnc2)n1CCCN1CCN(c2ccccc2)CC1 (3D coordinates assigned)
O=c1c2ccccc2nc(/C=C/c2cccnc2)n1CCCN1CCN(c2ccccc2)CC1 (nonaromatic ring conformer: 91.13176627644881 kcal/mol)

>  <smiles>  (43) 
O=c1c2ccccc2nc(/C=C/c2cccnc2)n1CCCN1CCN(c2ccccc2)CC1

>  <score_type>  (43) 
oracle

>  <origin>  (43) 
autodockgpu

>  <m_score__min__energy>  (43) 
-9.1400000000000006

>  <m_primary>  (43) 
energy

>  <meeko>  (43) 
{"free_energy": -6.57, "intermolecular_energy": -8.96, "internal_energy": -3.03, "cluster_size": 1, "cluster_id": 8, "rank_in_cluster": 1}

>  <energy>  (43) 
-9.01

>  <cluster_rmsd>  (43) 
0.27

>  <rmsd>  (43) 
270.5

>  <cluster>  (43) 
1

$$$$
IETZWVUTNAYKDK-BUHFOSPRNA-N
     RDKit          3D

 63 67  0  0  0  0  0  0  0  0999 V2000
  142.7271   71.7031  218.3788 H   0  0  0  0  0  0  0  0  0  0  0  0
  143.5100   71.5490  219.1360 C   0  0  0  0  0  0  0  0  0  0  0  0
  143.8890   72.6000  219.8820 C   0  0  0  0  0  0  0  0  0  0  0  0
  144.9557   72.7266  220.1188 H   0  0  0  0  0  0  0  0  0  0  0  0
  142.9120   73.6010  220.4000 C   0  0  0  0  0  0  0  0  0  0  0  0
  143.0930   74.9030  220.0480 N   0  0  0  0  0  0  0  0  0  0  0  0
  142.2510   75.8820  220.4430 C   0  0  0  0  0  0  0  0  0  0  0  0
  142.4870   77.2080  220.0580 C   0  0  0  0  0  0  0  0  0  0  0  0
  143.3633   77.4530  219.4399 H   0  0  0  0  0  0  0  0  0  0  0  0
  141.6110   78.2190  220.4580 C   0  0  0  0  0  0  0  0  0  0  0  0
  141.7992   79.2598  220.1557 H   0  0  0  0  0  0  0  0  0  0  0  0
  140.4950   77.9110  221.2420 C   0  0  0  0  0  0  0  0  0  0  0  0
  139.8059   78.7093  221.5548 H   0  0  0  0  0  0  0  0  0  0  0  0
  140.2540   76.5880  221.6290 C   0  0  0  0  0  0  0  0  0  0  0  0
  139.3754   76.3479  222.2458 H   0  0  0  0  0  0  0  0  0  0  0  0
  141.1350   75.5620  221.2300 C   0  0  0  0  0  0  0  0  0  0  0  0
  140.9410   74.2200  221.5940 C   0  0  0  0  0  0  0  0  0  0  0  0
  139.9300   73.9140  222.2880 O   0  0  0  0  0  0  0  0  0  0  0  0
  141.8380   73.2500  221.2000 N   0  0  0  0  0  0  0  0  0  0  0  0
  141.6520   71.8570  221.6770 C   0  0  0  0  0  0  0  0  0  0  0  0
  142.6033   71.3154  221.5690 H   0  0  0  0  0  0  0  0  0  0  0  0
  141.3332   71.8996  222.7289 H   0  0  0  0  0  0  0  0  0  0  0  0
  140.5630   71.1110  220.8820 C   0  0  0  0  0  0  0  0  0  0  0  0
  139.7598   71.8228  220.6408 H   0  0  0  0  0  0  0  0  0  0  0  0
  141.0449   70.7019  219.9818 H   0  0  0  0  0  0  0  0  0  0  0  0
  139.9480   69.9240  221.6420 C   0  0  0  0  0  0  0  0  0  0  0  0
  140.0111   69.0249  221.0114 H   0  0  0  0  0  0  0  0  0  0  0  0
  140.5088   69.7868  222.5783 H   0  0  0  0  0  0  0  0  0  0  0  0
  138.5280   70.1730  221.9840 N   0  0  0  0  0  0  0  0  0  0  0  0
  137.8650   68.9820  222.5840 C   0  0  0  0  0  0  0  0  0  0  0  0
  136.8795   68.8598  222.1109 H   0  0  0  0  0  0  0  0  0  0  0  0
  138.5300   68.1241  222.4056 H   0  0  0  0  0  0  0  0  0  0  0  0
  137.6620   69.0790  224.1080 C   0  0  0  0  0  0  0  0  0  0  0  0
  136.6970   69.5644  224.3155 H   0  0  0  0  0  0  0  0  0  0  0  0
  137.6734   68.0658  224.5361 H   0  0  0  0  0  0  0  0  0  0  0  0
  138.7400   69.8660  224.7150 N   0  0  0  0  0  0  0  0  0  0  0  0
  139.5570   69.3280  225.7720 C   0  0  0  0  0  0  0  0  0  0  0  0
  139.8710   67.9560  225.8030 C   0  0  0  0  0  0  0  0  0  0  0  0
  139.4984   67.2916  225.0094 H   0  0  0  0  0  0  0  0  0  0  0  0
  140.6540   67.4330  226.8370 C   0  0  0  0  0  0  0  0  0  0  0  0
  140.8999   66.3609  226.8515 H   0  0  0  0  0  0  0  0  0  0  0  0
  141.1240   68.2700  227.8510 C   0  0  0  0  0  0  0  0  0  0  0  0
  141.7422   67.8571  228.6618 H   0  0  0  0  0  0  0  0  0  0  0  0
  140.8100   69.6310  227.8370 C   0  0  0  0  0  0  0  0  0  0  0  0
  141.1783   70.2881  228.6386 H   0  0  0  0  0  0  0  0  0  0  0  0
  140.0280   70.1590  226.8050 C   0  0  0  0  0  0  0  0  0  0  0  0
  139.7796   71.2306  226.8008 H   0  0  0  0  0  0  0  0  0  0  0  0
  138.9900   71.2170  224.2020 C   0  0  0  0  0  0  0  0  0  0  0  0
  138.5476   71.9523  224.8902 H   0  0  0  0  0  0  0  0  0  0  0  0
  140.0765   71.3713  224.1260 H   0  0  0  0  0  0  0  0  0  0  0  0
  138.3670   71.3920  222.8080 C   0  0  0  0  0  0  0  0  0  0  0  0
  137.2943   71.6080  222.9206 H   0  0  0  0  0  0  0  0  0  0  0  0
  138.8828   72.2211  222.3015 H   0  0  0  0  0  0  0  0  0  0  0  0
  144.0910   70.1920  219.2790 C   0  0  0  0  0  0  0  0  0  0  0  0
  145.4800   69.9590  219.3220 C   0  0  0  0  0  0  0  0  0  0  0  0
  146.1801   70.8053  219.2616 H   0  0  0  0  0  0  0  0  0  0  0  0
  145.9580   68.6900  219.4380 N   0  0  0  0  0  0  0  0  0  0  0  0
  145.1290   67.6160  219.5110 C   0  0  0  0  0  0  0  0  0  0  0  0
  145.5480   66.6041  219.6135 H   0  0  0  0  0  0  0  0  0  0  0  0
  143.7470   67.7960  219.4560 C   0  0  0  0  0  0  0  0  0  0  0  0
  143.0717   66.9293  219.5091 H   0  0  0  0  0  0  0  0  0  0  0  0
  143.2290   69.0860  219.3330 C   0  0  0  0  0  0  0  0  0  0  0  0
  142.1407   69.2364  219.2781 H   0  0  0  0  0  0  0  0  0  0  0  0
  1  2  1  0
  2  3  2  0
  3  4  1  0
  3  5  1  0
  5  6  2  0
  6  7  1  0
  7  8  2  0
  8  9  1  0
  8 10  1  0
 10 11  1  0
 10 12  2  0
 12 13  1  0
 12 14  1  0
 14 15  1  0
 14 16  2  0
 16 17  1  0
 17 18  2  0
 17 19  1  0
 19 20  1  0
 20 21  1  0
 20 22  1  0
 20 23  1  0
 23 24  1  0
 23 25  1  0
 23 26  1  0
 26 27  1  0
 26 28  1  0
 26 29  1  0
 29 30  1  0
 30 31  1  0
 30 32  1  0
 30 33  1  0
 33 34  1  0
 33 35  1  0
 33 36  1  0
 36 37  1  0
 37 38  2  0
 38 39  1  0
 38 40  1  0
 40 41  1  0
 40 42  2  0
 42 43  1  0
 42 44  1  0
 44 45  1  0
 44 46  2  0
 46 47  1  0
 36 48  1  0
 48 49  1  0
 48 50  1  0
 48 51  1  0
 51 52  1  0
 51 53  1  0
  2 54  1  0
 54 55  2  0
 55 56  1  0
 55 57  1  0
 57 58  2  0
 58 59  1  0
 58 60  1  0
 60 61  1  0
 60 62  2  0
 62 63  1  0
 19  5  1  0
 51 29  1  0
 62 54  1  0
 16  7  1  0
 46 37  1  0
M  END
>  <UniqueID>  (44) 
606

>  <SMILES>  (44) 
O=c1c2ccccc2nc(/C=C/c2cccnc2)n1CCCN1CCN(c2ccccc2)CC1

>  <Energy>  (44) 
91.13176627644881

>  <Genealogy>  (44) 
O=c1c2ccccc2nc(/C=C/c2cccnc2)n1CCCN1CCN(c2ccccc2)CC1 (cis-trans isomerization)
O=c1c2ccccc2nc(/C=C/c2cccnc2)n1CCCN1CCN(c2ccccc2)CC1 (3D coordinates assigned)
O=c1c2ccccc2nc(/C=C/c2cccnc2)n1CCCN1CCN(c2ccccc2)CC1 (nonaromatic ring conformer: 91.13176627644881 kcal/mol)

>  <smiles>  (44) 
O=c1c2ccccc2nc(/C=C/c2cccnc2)n1CCCN1CCN(c2ccccc2)CC1

>  <score_type>  (44) 
oracle

>  <origin>  (44) 
autodockgpu

>  <m_score__min__energy>  (44) 
-9.1400000000000006

>  <m_primary>  (44) 
energy

>  <meeko>  (44) 
{"free_energy": -8.11, "intermolecular_energy": -10.5, "internal_energy": -1.61, "cluster_size": 1, "cluster_id": 5, "rank_in_cluster": 1}

>  <energy>  (44) 
-8.88

>  <cluster_rmsd>  (44) 
0.72

>  <rmsd>  (44) 
270.47

>  <cluster>  (44) 
1

$$$$
IETZWVUTNAYKDK-BUHFOSPRNA-N
     RDKit          3D

 63 67  0  0  0  0  0  0  0  0999 V2000
  134.3898   76.2007  222.8185 H   0  0  0  0  0  0  0  0  0  0  0  0
  134.9260   75.2570  222.9970 C   0  0  0  0  0  0  0  0  0  0  0  0
  135.8880   74.8990  222.1310 C   0  0  0  0  0  0  0  0  0  0  0  0
  135.6431   74.1876  221.3285 H   0  0  0  0  0  0  0  0  0  0  0  0
  137.2780   75.4340  222.2210 C   0  0  0  0  0  0  0  0  0  0  0  0
  137.4340   76.7360  222.5790 N   0  0  0  0  0  0  0  0  0  0  0  0
  138.6500   77.3090  222.7140 C   0  0  0  0  0  0  0  0  0  0  0  0
  138.7540   78.6570  223.0780 C   0  0  0  0  0  0  0  0  0  0  0  0
  137.8445   79.2522  223.2469 H   0  0  0  0  0  0  0  0  0  0  0  0
  140.0120   79.2470  223.2270 C   0  0  0  0  0  0  0  0  0  0  0  0
  140.0915   80.3064  223.5123 H   0  0  0  0  0  0  0  0  0  0  0  0
  141.1690   78.4930  223.0140 C   0  0  0  0  0  0  0  0  0  0  0  0
  142.1581   78.9594  223.1326 H   0  0  0  0  0  0  0  0  0  0  0  0
  141.0710   77.1450  222.6500 C   0  0  0  0  0  0  0  0  0  0  0  0
  141.9833   76.5536  222.4830 H   0  0  0  0  0  0  0  0  0  0  0  0
  139.8050   76.5440  222.4970 C   0  0  0  0  0  0  0  0  0  0  0  0
  139.6510   75.1980  222.1300 C   0  0  0  0  0  0  0  0  0  0  0  0
  140.6830   74.4910  221.9480 O   0  0  0  0  0  0  0  0  0  0  0  0
  138.3940   74.6530  221.9700 N   0  0  0  0  0  0  0  0  0  0  0  0
  138.2670   73.2530  221.4940 C   0  0  0  0  0  0  0  0  0  0  0  0
  137.3383   73.1593  220.9121 H   0  0  0  0  0  0  0  0  0  0  0  0
  139.1492   73.0236  220.8783 H   0  0  0  0  0  0  0  0  0  0  0  0
  138.2270   72.2450  222.6590 C   0  0  0  0  0  0  0  0  0  0  0  0
  139.0441   71.5216  222.5207 H   0  0  0  0  0  0  0  0  0  0  0  0
  138.3319   72.8235  223.5887 H   0  0  0  0  0  0  0  0  0  0  0  0
  136.9030   71.4690  222.7590 C   0  0  0  0  0  0  0  0  0  0  0  0
  136.4710   71.6272  223.7582 H   0  0  0  0  0  0  0  0  0  0  0  0
  136.2263   71.8404  221.9753 H   0  0  0  0  0  0  0  0  0  0  0  0
  137.1050   70.0170  222.5470 N   0  0  0  0  0  0  0  0  0  0  0  0
  138.5350   69.6620  222.3300 C   0  0  0  0  0  0  0  0  0  0  0  0
  138.5929   68.9618  221.4836 H   0  0  0  0  0  0  0  0  0  0  0  0
  139.0709   70.6034  222.1388 H   0  0  0  0  0  0  0  0  0  0  0  0
  139.2100   69.0050  223.5490 C   0  0  0  0  0  0  0  0  0  0  0  0
  139.0630   67.9159  223.5022 H   0  0  0  0  0  0  0  0  0  0  0  0
  140.2843   69.2407  223.5339 H   0  0  0  0  0  0  0  0  0  0  0  0
  138.6260   69.5190  224.7910 N   0  0  0  0  0  0  0  0  0  0  0  0
  139.4440   70.1270  225.8090 C   0  0  0  0  0  0  0  0  0  0  0  0
  140.2420   71.2470  225.5080 C   0  0  0  0  0  0  0  0  0  0  0  0
  140.2336   71.6668  224.4913 H   0  0  0  0  0  0  0  0  0  0  0  0
  141.0450   71.8290  226.4930 C   0  0  0  0  0  0  0  0  0  0  0  0
  141.6610   72.7077  226.2513 H   0  0  0  0  0  0  0  0  0  0  0  0
  141.0660   71.2960  227.7840 C   0  0  0  0  0  0  0  0  0  0  0  0
  141.6964   71.7569  228.5587 H   0  0  0  0  0  0  0  0  0  0  0  0
  140.2870   70.1780  228.0920 C   0  0  0  0  0  0  0  0  0  0  0  0
  140.3076   69.7572  229.1081 H   0  0  0  0  0  0  0  0  0  0  0  0
  139.4810   69.5930  227.1100 C   0  0  0  0  0  0  0  0  0  0  0  0
  138.8726   68.7103  227.3563 H   0  0  0  0  0  0  0  0  0  0  0  0
  137.1730   69.4260  224.9700 C   0  0  0  0  0  0  0  0  0  0  0  0
  136.9441   68.5786  225.6329 H   0  0  0  0  0  0  0  0  0  0  0  0
  136.8098   70.3651  225.4130 H   0  0  0  0  0  0  0  0  0  0  0  0
  136.4730   69.2130  223.6180 C   0  0  0  0  0  0  0  0  0  0  0  0
  136.5330   68.1483  223.3483 H   0  0  0  0  0  0  0  0  0  0  0  0
  135.4254   69.5334  223.7175 H   0  0  0  0  0  0  0  0  0  0  0  0
  134.5480   74.4480  224.1810 C   0  0  0  0  0  0  0  0  0  0  0  0
  134.2450   75.0220  225.4310 C   0  0  0  0  0  0  0  0  0  0  0  0
  134.2719   76.1148  225.5534 H   0  0  0  0  0  0  0  0  0  0  0  0
  133.9190   74.2290  226.4880 N   0  0  0  0  0  0  0  0  0  0  0  0
  133.8780   72.8750  226.3820 C   0  0  0  0  0  0  0  0  0  0  0  0
  133.6017   72.2636  227.2537 H   0  0  0  0  0  0  0  0  0  0  0  0
  134.1860   72.2600  225.1690 C   0  0  0  0  0  0  0  0  0  0  0  0
  134.1598   71.1640  225.0796 H   0  0  0  0  0  0  0  0  0  0  0  0
  134.5280   73.0490  224.0690 C   0  0  0  0  0  0  0  0  0  0  0  0
  134.7827   72.5724  223.1109 H   0  0  0  0  0  0  0  0  0  0  0  0
  1  2  1  0
  2  3  2  0
  3  4  1  0
  3  5  1  0
  5  6  2  0
  6  7  1  0
  7  8  2  0
  8  9  1  0
  8 10  1  0
 10 11  1  0
 10 12  2  0
 12 13  1  0
 12 14  1  0
 14 15  1  0
 14 16  2  0
 16 17  1  0
 17 18  2  0
 17 19  1  0
 19 20  1  0
 20 21  1  0
 20 22  1  0
 20 23  1  0
 23 24  1  0
 23 25  1  0
 23 26  1  0
 26 27  1  0
 26 28  1  0
 26 29  1  0
 29 30  1  0
 30 31  1  0
 30 32  1  0
 30 33  1  0
 33 34  1  0
 33 35  1  0
 33 36  1  0
 36 37  1  0
 37 38  2  0
 38 39  1  0
 38 40  1  0
 40 41  1  0
 40 42  2  0
 42 43  1  0
 42 44  1  0
 44 45  1  0
 44 46  2  0
 46 47  1  0
 36 48  1  0
 48 49  1  0
 48 50  1  0
 48 51  1  0
 51 52  1  0
 51 53  1  0
  2 54  1  0
 54 55  2  0
 55 56  1  0
 55 57  1  0
 57 58  2  0
 58 59  1  0
 58 60  1  0
 60 61  1  0
 60 62  2  0
 62 63  1  0
 19  5  1  0
 51 29  1  0
 62 54  1  0
 16  7  1  0
 46 37  1  0
M  END
>  <UniqueID>  (45) 
606

>  <SMILES>  (45) 
O=c1c2ccccc2nc(/C=C/c2cccnc2)n1CCCN1CCN(c2ccccc2)CC1

>  <Energy>  (45) 
91.13176627644881

>  <Genealogy>  (45) 
O=c1c2ccccc2nc(/C=C/c2cccnc2)n1CCCN1CCN(c2ccccc2)CC1 (cis-trans isomerization)
O=c1c2ccccc2nc(/C=C/c2cccnc2)n1CCCN1CCN(c2ccccc2)CC1 (3D coordinates assigned)
O=c1c2ccccc2nc(/C=C/c2cccnc2)n1CCCN1CCN(c2ccccc2)CC1 (nonaromatic ring conformer: 91.13176627644881 kcal/mol)

>  <smiles>  (45) 
O=c1c2ccccc2nc(/C=C/c2cccnc2)n1CCCN1CCN(c2ccccc2)CC1

>  <score_type>  (45) 
oracle

>  <origin>  (45) 
autodockgpu

>  <m_score__min__energy>  (45) 
-9.1400000000000006

>  <m_primary>  (45) 
energy

>  <meeko>  (45) 
{"free_energy": -8.3, "intermolecular_energy": -10.69, "internal_energy": -2.01, "cluster_size": 2, "cluster_id": 2, "rank_in_cluster": 2}

>  <energy>  (45) 
-8.86

>  <cluster_rmsd>  (45) 
0.63

>  <rmsd>  (45) 
270.51

>  <cluster>  (45) 
1

$$$$
IETZWVUTNAYKDK-BUHFOSPRNA-N
     RDKit          3D

 63 67  0  0  0  0  0  0  0  0999 V2000
  143.9072   75.6271  217.3096 H   0  0  0  0  0  0  0  0  0  0  0  0
  143.4770   75.1100  218.1800 C   0  0  0  0  0  0  0  0  0  0  0  0
  142.1700   75.2800  218.4380 C   0  0  0  0  0  0  0  0  0  0  0  0
  141.4326   74.9328  217.6993 H   0  0  0  0  0  0  0  0  0  0  0  0
  141.6850   75.9240  219.6930 C   0  0  0  0  0  0  0  0  0  0  0  0
  142.0670   77.2070  219.9350 N   0  0  0  0  0  0  0  0  0  0  0  0
  141.6620   77.8880  221.0290 C   0  0  0  0  0  0  0  0  0  0  0  0
  142.0910   79.2050  221.2330 C   0  0  0  0  0  0  0  0  0  0  0  0
  142.7643   79.6827  220.5061 H   0  0  0  0  0  0  0  0  0  0  0  0
  141.6640   79.9130  222.3600 C   0  0  0  0  0  0  0  0  0  0  0  0
  142.0030   80.9472  222.5199 H   0  0  0  0  0  0  0  0  0  0  0  0
  140.8070   79.3090  223.2840 C   0  0  0  0  0  0  0  0  0  0  0  0
  140.4715   79.8691  224.1693 H   0  0  0  0  0  0  0  0  0  0  0  0
  140.3750   77.9930  223.0850 C   0  0  0  0  0  0  0  0  0  0  0  0
  139.7008   77.5198  223.8141 H   0  0  0  0  0  0  0  0  0  0  0  0
  140.8030   77.2730  221.9510 C   0  0  0  0  0  0  0  0  0  0  0  0
  140.4030   75.9490  221.7060 C   0  0  0  0  0  0  0  0  0  0  0  0
  139.6150   75.3870  222.5190 O   0  0  0  0  0  0  0  0  0  0  0  0
  140.8610   75.2720  220.5950 N   0  0  0  0  0  0  0  0  0  0  0  0
  140.4900   73.8470  220.4130 C   0  0  0  0  0  0  0  0  0  0  0  0
  139.4070   73.7394  220.5729 H   0  0  0  0  0  0  0  0  0  0  0  0
  140.7747   73.5510  219.3925 H   0  0  0  0  0  0  0  0  0  0  0  0
  141.2320   72.9230  221.3990 C   0  0  0  0  0  0  0  0  0  0  0  0
  141.6301   72.0644  220.8383 H   0  0  0  0  0  0  0  0  0  0  0  0
  142.0268   73.5226  221.8667 H   0  0  0  0  0  0  0  0  0  0  0  0
  140.3410   72.3910  222.5350 C   0  0  0  0  0  0  0  0  0  0  0  0
  140.9660   71.8320  223.2470 H   0  0  0  0  0  0  0  0  0  0  0  0
  139.8592   73.2497  223.0253 H   0  0  0  0  0  0  0  0  0  0  0  0
  139.2790   71.4950  222.0210 N   0  0  0  0  0  0  0  0  0  0  0  0
  139.7180   70.0740  221.9390 C   0  0  0  0  0  0  0  0  0  0  0  0
  139.3925   69.6668  220.9704 H   0  0  0  0  0  0  0  0  0  0  0  0
  140.8120   70.0718  222.0534 H   0  0  0  0  0  0  0  0  0  0  0  0
  139.1510   69.1770  223.0570 C   0  0  0  0  0  0  0  0  0  0  0  0
  138.1831   68.7647  222.7358 H   0  0  0  0  0  0  0  0  0  0  0  0
  139.8609   68.3605  223.2556 H   0  0  0  0  0  0  0  0  0  0  0  0
  138.9620   69.9540  224.2850 N   0  0  0  0  0  0  0  0  0  0  0  0
  139.5770   69.5560  225.5250 C   0  0  0  0  0  0  0  0  0  0  0  0
  140.0910   70.5240  226.4080 C   0  0  0  0  0  0  0  0  0  0  0  0
  140.0143   71.5915  226.1541 H   0  0  0  0  0  0  0  0  0  0  0  0
  140.6990   70.1360  227.6070 C   0  0  0  0  0  0  0  0  0  0  0  0
  141.0938   70.8982  228.2949 H   0  0  0  0  0  0  0  0  0  0  0  0
  140.8050   68.7810  227.9310 C   0  0  0  0  0  0  0  0  0  0  0  0
  141.2810   68.4775  228.8751 H   0  0  0  0  0  0  0  0  0  0  0  0
  140.3070   67.8110  227.0570 C   0  0  0  0  0  0  0  0  0  0  0  0
  140.3941   66.7446  227.3123 H   0  0  0  0  0  0  0  0  0  0  0  0
  139.6980   68.1950  225.8580 C   0  0  0  0  0  0  0  0  0  0  0  0
  139.3112   67.4278  225.1712 H   0  0  0  0  0  0  0  0  0  0  0  0
  138.1480   71.1730  224.2220 C   0  0  0  0  0  0  0  0  0  0  0  0
  137.1476   70.9607  224.6270 H   0  0  0  0  0  0  0  0  0  0  0  0
  138.6402   71.9585  224.8143 H   0  0  0  0  0  0  0  0  0  0  0  0
  138.0120   71.6600  222.7700 C   0  0  0  0  0  0  0  0  0  0  0  0
  137.2232   71.0785  222.2704 H   0  0  0  0  0  0  0  0  0  0  0  0
  137.7583   72.7302  222.7874 H   0  0  0  0  0  0  0  0  0  0  0  0
  144.3710   74.2630  219.0050 C   0  0  0  0  0  0  0  0  0  0  0  0
  145.1340   73.2080  218.4660 C   0  0  0  0  0  0  0  0  0  0  0  0
  145.0885   72.9933  217.3881 H   0  0  0  0  0  0  0  0  0  0  0  0
  145.9270   72.4540  219.2750 N   0  0  0  0  0  0  0  0  0  0  0  0
  146.0090   72.6800  220.6120 C   0  0  0  0  0  0  0  0  0  0  0  0
  146.6669   72.0568  221.2355 H   0  0  0  0  0  0  0  0  0  0  0  0
  145.2600   73.7010  221.1940 C   0  0  0  0  0  0  0  0  0  0  0  0
  145.3187   73.8846  222.2770 H   0  0  0  0  0  0  0  0  0  0  0  0
  144.4340   74.4890  220.3890 C   0  0  0  0  0  0  0  0  0  0  0  0
  143.8306   75.2898  220.8414 H   0  0  0  0  0  0  0  0  0  0  0  0
  1  2  1  0
  2  3  2  0
  3  4  1  0
  3  5  1  0
  5  6  2  0
  6  7  1  0
  7  8  2  0
  8  9  1  0
  8 10  1  0
 10 11  1  0
 10 12  2  0
 12 13  1  0
 12 14  1  0
 14 15  1  0
 14 16  2  0
 16 17  1  0
 17 18  2  0
 17 19  1  0
 19 20  1  0
 20 21  1  0
 20 22  1  0
 20 23  1  0
 23 24  1  0
 23 25  1  0
 23 26  1  0
 26 27  1  0
 26 28  1  0
 26 29  1  0
 29 30  1  0
 30 31  1  0
 30 32  1  0
 30 33  1  0
 33 34  1  0
 33 35  1  0
 33 36  1  0
 36 37  1  0
 37 38  2  0
 38 39  1  0
 38 40  1  0
 40 41  1  0
 40 42  2  0
 42 43  1  0
 42 44  1  0
 44 45  1  0
 44 46  2  0
 46 47  1  0
 36 48  1  0
 48 49  1  0
 48 50  1  0
 48 51  1  0
 51 52  1  0
 51 53  1  0
  2 54  1  0
 54 55  2  0
 55 56  1  0
 55 57  1  0
 57 58  2  0
 58 59  1  0
 58 60  1  0
 60 61  1  0
 60 62  2  0
 62 63  1  0
 19  5  1  0
 51 29  1  0
 62 54  1  0
 16  7  1  0
 46 37  1  0
M  END
>  <UniqueID>  (46) 
606

>  <SMILES>  (46) 
O=c1c2ccccc2nc(/C=C/c2cccnc2)n1CCCN1CCN(c2ccccc2)CC1

>  <Energy>  (46) 
91.13176627644881

>  <Genealogy>  (46) 
O=c1c2ccccc2nc(/C=C/c2cccnc2)n1CCCN1CCN(c2ccccc2)CC1 (cis-trans isomerization)
O=c1c2ccccc2nc(/C=C/c2cccnc2)n1CCCN1CCN(c2ccccc2)CC1 (3D coordinates assigned)
O=c1c2ccccc2nc(/C=C/c2cccnc2)n1CCCN1CCN(c2ccccc2)CC1 (nonaromatic ring conformer: 91.13176627644881 kcal/mol)

>  <smiles>  (46) 
O=c1c2ccccc2nc(/C=C/c2cccnc2)n1CCCN1CCN(c2ccccc2)CC1

>  <score_type>  (46) 
oracle

>  <origin>  (46) 
autodockgpu

>  <m_score__min__energy>  (46) 
-9.1400000000000006

>  <m_primary>  (46) 
energy

>  <meeko>  (46) 
{"free_energy": -9.01, "intermolecular_energy": -11.39, "internal_energy": -1.7, "cluster_size": 10, "cluster_id": 1, "rank_in_cluster": 3}

>  <energy>  (46) 
-8.67

>  <cluster_rmsd>  (46) 
1.65

>  <rmsd>  (46) 
270.28

>  <cluster>  (46) 
1

$$$$
IETZWVUTNAYKDK-BUHFOSPRNA-N
     RDKit          3D

 63 67  0  0  0  0  0  0  0  0999 V2000
  139.2273   76.6721  222.5833 H   0  0  0  0  0  0  0  0  0  0  0  0
  140.0540   76.8800  221.8880 C   0  0  0  0  0  0  0  0  0  0  0  0
  140.2020   76.0800  220.8200 C   0  0  0  0  0  0  0  0  0  0  0  0
  139.5482   76.2307  219.9483 H   0  0  0  0  0  0  0  0  0  0  0  0
  141.2230   74.9940  220.7760 C   0  0  0  0  0  0  0  0  0  0  0  0
  142.5270   75.3560  220.6380 N   0  0  0  0  0  0  0  0  0  0  0  0
  143.5300   74.4510  220.6120 C   0  0  0  0  0  0  0  0  0  0  0  0
  144.8560   74.8770  220.4610 C   0  0  0  0  0  0  0  0  0  0  0  0
  145.0799   75.9488  220.3557 H   0  0  0  0  0  0  0  0  0  0  0  0
  145.8940   73.9430  220.4440 C   0  0  0  0  0  0  0  0  0  0  0  0
  146.9343   74.2795  220.3235 H   0  0  0  0  0  0  0  0  0  0  0  0
  145.6120   72.5810  220.5800 C   0  0  0  0  0  0  0  0  0  0  0  0
  146.4311   71.8469  220.5676 H   0  0  0  0  0  0  0  0  0  0  0  0
  144.2890   72.1490  220.7320 C   0  0  0  0  0  0  0  0  0  0  0  0
  144.0705   71.0762  220.8391 H   0  0  0  0  0  0  0  0  0  0  0  0
  143.2370   73.0860  220.7480 C   0  0  0  0  0  0  0  0  0  0  0  0
  141.8930   72.7070  220.8940 C   0  0  0  0  0  0  0  0  0  0  0  0
  141.6150   71.4820  221.0350 O   0  0  0  0  0  0  0  0  0  0  0  0
  140.8910   73.6540  220.8840 N   0  0  0  0  0  0  0  0  0  0  0  0
  139.4760   73.2110  220.9490 C   0  0  0  0  0  0  0  0  0  0  0  0
  138.8260   74.0623  220.6985 H   0  0  0  0  0  0  0  0  0  0  0  0
  139.3465   72.3856  220.2335 H   0  0  0  0  0  0  0  0  0  0  0  0
  139.0950   72.6900  222.3480 C   0  0  0  0  0  0  0  0  0  0  0  0
  139.8234   71.9201  222.6423 H   0  0  0  0  0  0  0  0  0  0  0  0
  139.1025   73.5555  223.0268 H   0  0  0  0  0  0  0  0  0  0  0  0
  137.6860   72.0770  222.4160 C   0  0  0  0  0  0  0  0  0  0  0  0
  137.2659   72.2582  223.4163 H   0  0  0  0  0  0  0  0  0  0  0  0
  137.0676   72.5494  221.6385 H   0  0  0  0  0  0  0  0  0  0  0  0
  137.7130   70.6170  222.1630 N   0  0  0  0  0  0  0  0  0  0  0  0
  139.0970   70.0710  222.1100 C   0  0  0  0  0  0  0  0  0  0  0  0
  139.1690   69.3947  221.2455 H   0  0  0  0  0  0  0  0  0  0  0  0
  139.7761   70.9328  222.0317 H   0  0  0  0  0  0  0  0  0  0  0  0
  139.5120   69.2900  223.3720 C   0  0  0  0  0  0  0  0  0  0  0  0
  139.2258   68.2342  223.2561 H   0  0  0  0  0  0  0  0  0  0  0  0
  140.6011   69.3724  223.5025 H   0  0  0  0  0  0  0  0  0  0  0  0
  138.8460   69.8450  224.5540 N   0  0  0  0  0  0  0  0  0  0  0  0
  139.6010   70.3010  225.6940 C   0  0  0  0  0  0  0  0  0  0  0  0
  140.4300   71.4340  225.5920 C   0  0  0  0  0  0  0  0  0  0  0  0
  140.4952   71.9801  224.6394 H   0  0  0  0  0  0  0  0  0  0  0  0
  141.1710   71.8690  226.6950 C   0  0  0  0  0  0  0  0  0  0  0  0
  141.8128   72.7583  226.6096 H   0  0  0  0  0  0  0  0  0  0  0  0
  141.0970   71.1750  227.9060 C   0  0  0  0  0  0  0  0  0  0  0  0
  141.6786   71.5198  228.7736 H   0  0  0  0  0  0  0  0  0  0  0  0
  140.2850   70.0440  228.0150 C   0  0  0  0  0  0  0  0  0  0  0  0
  140.2299   69.4975  228.9681 H   0  0  0  0  0  0  0  0  0  0  0  0
  139.5420   69.6050  226.9150 C   0  0  0  0  0  0  0  0  0  0  0  0
  138.9080   68.7106  227.0048 H   0  0  0  0  0  0  0  0  0  0  0  0
  137.3840   69.9530  224.5450 C   0  0  0  0  0  0  0  0  0  0  0  0
  136.9573   69.1277  225.1339 H   0  0  0  0  0  0  0  0  0  0  0  0
  137.0981   70.9211  224.9819 H   0  0  0  0  0  0  0  0  0  0  0  0
  136.8430   69.8800  223.1080 C   0  0  0  0  0  0  0  0  0  0  0  0
  136.7914   68.8257  222.7985 H   0  0  0  0  0  0  0  0  0  0  0  0
  135.8450   70.3422  223.0908 H   0  0  0  0  0  0  0  0  0  0  0  0
  140.9450   78.0290  222.1810 C   0  0  0  0  0  0  0  0  0  0  0  0
  141.5090   78.2510  223.4520 C   0  0  0  0  0  0  0  0  0  0  0  0
  141.3024   77.5494  224.2737 H   0  0  0  0  0  0  0  0  0  0  0  0
  142.3090   79.3310  223.6670 N   0  0  0  0  0  0  0  0  0  0  0  0
  142.5850   80.2250  222.6830 C   0  0  0  0  0  0  0  0  0  0  0  0
  143.2425   81.0826  222.8884 H   0  0  0  0  0  0  0  0  0  0  0  0
  142.0360   80.0570  221.4130 C   0  0  0  0  0  0  0  0  0  0  0  0
  142.2522   80.7819  220.6144 H   0  0  0  0  0  0  0  0  0  0  0  0
  141.2090   78.9600  221.1640 C   0  0  0  0  0  0  0  0  0  0  0  0
  140.7628   78.8248  220.1677 H   0  0  0  0  0  0  0  0  0  0  0  0
  1  2  1  0
  2  3  2  0
  3  4  1  0
  3  5  1  0
  5  6  2  0
  6  7  1  0
  7  8  2  0
  8  9  1  0
  8 10  1  0
 10 11  1  0
 10 12  2  0
 12 13  1  0
 12 14  1  0
 14 15  1  0
 14 16  2  0
 16 17  1  0
 17 18  2  0
 17 19  1  0
 19 20  1  0
 20 21  1  0
 20 22  1  0
 20 23  1  0
 23 24  1  0
 23 25  1  0
 23 26  1  0
 26 27  1  0
 26 28  1  0
 26 29  1  0
 29 30  1  0
 30 31  1  0
 30 32  1  0
 30 33  1  0
 33 34  1  0
 33 35  1  0
 33 36  1  0
 36 37  1  0
 37 38  2  0
 38 39  1  0
 38 40  1  0
 40 41  1  0
 40 42  2  0
 42 43  1  0
 42 44  1  0
 44 45  1  0
 44 46  2  0
 46 47  1  0
 36 48  1  0
 48 49  1  0
 48 50  1  0
 48 51  1  0
 51 52  1  0
 51 53  1  0
  2 54  1  0
 54 55  2  0
 55 56  1  0
 55 57  1  0
 57 58  2  0
 58 59  1  0
 58 60  1  0
 60 61  1  0
 60 62  2  0
 62 63  1  0
 19  5  1  0
 51 29  1  0
 62 54  1  0
 16  7  1  0
 46 37  1  0
M  END
>  <UniqueID>  (47) 
606

>  <SMILES>  (47) 
O=c1c2ccccc2nc(/C=C/c2cccnc2)n1CCCN1CCN(c2ccccc2)CC1

>  <Energy>  (47) 
91.13176627644881

>  <Genealogy>  (47) 
O=c1c2ccccc2nc(/C=C/c2cccnc2)n1CCCN1CCN(c2ccccc2)CC1 (cis-trans isomerization)
O=c1c2ccccc2nc(/C=C/c2cccnc2)n1CCCN1CCN(c2ccccc2)CC1 (3D coordinates assigned)
O=c1c2ccccc2nc(/C=C/c2cccnc2)n1CCCN1CCN(c2ccccc2)CC1 (nonaromatic ring conformer: 91.13176627644881 kcal/mol)

>  <smiles>  (47) 
O=c1c2ccccc2nc(/C=C/c2cccnc2)n1CCCN1CCN(c2ccccc2)CC1

>  <score_type>  (47) 
oracle

>  <origin>  (47) 
autodockgpu

>  <m_score__min__energy>  (47) 
-9.1400000000000006

>  <m_primary>  (47) 
energy

>  <meeko>  (47) 
{"free_energy": -8.47, "intermolecular_energy": -10.86, "internal_energy": -1.77, "cluster_size": 10, "cluster_id": 1, "rank_in_cluster": 9}

>  <energy>  (47) 
-8.59

>  <cluster_rmsd>  (47) 
1.59

>  <rmsd>  (47) 
270.22

>  <cluster>  (47) 
1

$$$$
IETZWVUTNAYKDK-BUHFOSPRNA-N
     RDKit          3D

 63 67  0  0  0  0  0  0  0  0999 V2000
  143.2567   70.2729  220.3649 H   0  0  0  0  0  0  0  0  0  0  0  0
  143.1440   71.3470  220.1560 C   0  0  0  0  0  0  0  0  0  0  0  0
  141.9050   71.8350  219.9870 C   0  0  0  0  0  0  0  0  0  0  0  0
  141.1543   71.2143  219.4760 H   0  0  0  0  0  0  0  0  0  0  0  0
  141.5120   73.1910  220.4690 C   0  0  0  0  0  0  0  0  0  0  0  0
  142.1280   74.2660  219.9070 N   0  0  0  0  0  0  0  0  0  0  0  0
  141.8260   75.5360  220.2540 C   0  0  0  0  0  0  0  0  0  0  0  0
  142.4960   76.6060  219.6500 C   0  0  0  0  0  0  0  0  0  0  0  0
  143.2737   76.4124  218.8966 H   0  0  0  0  0  0  0  0  0  0  0  0
  142.1780   77.9200  220.0030 C   0  0  0  0  0  0  0  0  0  0  0  0
  142.7075   78.7598  219.5294 H   0  0  0  0  0  0  0  0  0  0  0  0
  141.1880   78.1680  220.9570 C   0  0  0  0  0  0  0  0  0  0  0  0
  140.9376   79.2035  221.2310 H   0  0  0  0  0  0  0  0  0  0  0  0
  140.5140   77.1030  221.5650 C   0  0  0  0  0  0  0  0  0  0  0  0
  139.7357   77.3022  222.3164 H   0  0  0  0  0  0  0  0  0  0  0  0
  140.8320   75.7750  221.2150 C   0  0  0  0  0  0  0  0  0  0  0  0
  140.1900   74.6690  221.7960 C   0  0  0  0  0  0  0  0  0  0  0  0
  139.2800   74.8700  222.6500 O   0  0  0  0  0  0  0  0  0  0  0  0
  140.5460   73.3850  221.4410 N   0  0  0  0  0  0  0  0  0  0  0  0
  139.9100   72.2400  222.1400 C   0  0  0  0  0  0  0  0  0  0  0  0
  140.5873   71.3746  222.0912 H   0  0  0  0  0  0  0  0  0  0  0  0
  139.7212   72.5421  223.1807 H   0  0  0  0  0  0  0  0  0  0  0  0
  138.5600   71.8500  221.5080 C   0  0  0  0  0  0  0  0  0  0  0  0
  138.1524   72.7297  220.9884 H   0  0  0  0  0  0  0  0  0  0  0  0
  138.7553   71.0119  220.8228 H   0  0  0  0  0  0  0  0  0  0  0  0
  137.5180   71.3630  222.5300 C   0  0  0  0  0  0  0  0  0  0  0  0
  137.8162   71.7014  223.5333 H   0  0  0  0  0  0  0  0  0  0  0  0
  136.5394   71.7805  222.2505 H   0  0  0  0  0  0  0  0  0  0  0  0
  137.4090   69.8850  222.5330 N   0  0  0  0  0  0  0  0  0  0  0  0
  138.7370   69.2120  222.5110 C   0  0  0  0  0  0  0  0  0  0  0  0
  138.6988   68.3957  221.7746 H   0  0  0  0  0  0  0  0  0  0  0  0
  139.4793   69.9816  222.2526 H   0  0  0  0  0  0  0  0  0  0  0  0
  139.1630   68.6200  223.8690 C   0  0  0  0  0  0  0  0  0  0  0  0
  138.7832   67.5910  223.9517 H   0  0  0  0  0  0  0  0  0  0  0  0
  140.2612   68.6220  223.9321 H   0  0  0  0  0  0  0  0  0  0  0  0
  138.6200   69.4260  224.9670 N   0  0  0  0  0  0  0  0  0  0  0  0
  139.4780   69.9970  225.9730 C   0  0  0  0  0  0  0  0  0  0  0  0
  139.5870   69.3960  227.2410 C   0  0  0  0  0  0  0  0  0  0  0  0
  139.0214   68.4787  227.4617 H   0  0  0  0  0  0  0  0  0  0  0  0
  140.4100   69.9580  228.2220 C   0  0  0  0  0  0  0  0  0  0  0  0
  140.4931   69.4803  229.2094 H   0  0  0  0  0  0  0  0  0  0  0  0
  141.1270   71.1260  227.9490 C   0  0  0  0  0  0  0  0  0  0  0  0
  141.7775   71.5646  228.7200 H   0  0  0  0  0  0  0  0  0  0  0  0
  141.0180   71.7370  226.6970 C   0  0  0  0  0  0  0  0  0  0  0  0
  141.5796   72.6587  226.4847 H   0  0  0  0  0  0  0  0  0  0  0  0
  140.1960   71.1780  225.7140 C   0  0  0  0  0  0  0  0  0  0  0  0
  140.1103   71.6652  224.7315 H   0  0  0  0  0  0  0  0  0  0  0  0
  137.1730   69.6650  225.0080 C   0  0  0  0  0  0  0  0  0  0  0  0
  136.7166   68.9928  225.7494 H   0  0  0  0  0  0  0  0  0  0  0  0
  136.9950   70.7146  225.2849 H   0  0  0  0  0  0  0  0  0  0  0  0
  136.5410   69.4020  223.6310 C   0  0  0  0  0  0  0  0  0  0  0  0
  136.3825   68.3201  223.5115 H   0  0  0  0  0  0  0  0  0  0  0  0
  135.5864   69.9462  223.5804 H   0  0  0  0  0  0  0  0  0  0  0  0
  144.3690   72.1790  220.0760 C   0  0  0  0  0  0  0  0  0  0  0  0
  145.1310   72.3020  218.8970 C   0  0  0  0  0  0  0  0  0  0  0  0
  144.8157   71.7775  217.9830 H   0  0  0  0  0  0  0  0  0  0  0  0
  146.2560   73.0680  218.8860 N   0  0  0  0  0  0  0  0  0  0  0  0
  146.6840   73.7290  219.9930 C   0  0  0  0  0  0  0  0  0  0  0  0
  147.5926   74.3474  219.9470 H   0  0  0  0  0  0  0  0  0  0  0  0
  145.9720   73.6240  221.1880 C   0  0  0  0  0  0  0  0  0  0  0  0
  146.3175   74.1523  222.0888 H   0  0  0  0  0  0  0  0  0  0  0  0
  144.8170   72.8420  221.2290 C   0  0  0  0  0  0  0  0  0  0  0  0
  144.2550   72.7447  222.1696 H   0  0  0  0  0  0  0  0  0  0  0  0
  1  2  1  0
  2  3  2  0
  3  4  1  0
  3  5  1  0
  5  6  2  0
  6  7  1  0
  7  8  2  0
  8  9  1  0
  8 10  1  0
 10 11  1  0
 10 12  2  0
 12 13  1  0
 12 14  1  0
 14 15  1  0
 14 16  2  0
 16 17  1  0
 17 18  2  0
 17 19  1  0
 19 20  1  0
 20 21  1  0
 20 22  1  0
 20 23  1  0
 23 24  1  0
 23 25  1  0
 23 26  1  0
 26 27  1  0
 26 28  1  0
 26 29  1  0
 29 30  1  0
 30 31  1  0
 30 32  1  0
 30 33  1  0
 33 34  1  0
 33 35  1  0
 33 36  1  0
 36 37  1  0
 37 38  2  0
 38 39  1  0
 38 40  1  0
 40 41  1  0
 40 42  2  0
 42 43  1  0
 42 44  1  0
 44 45  1  0
 44 46  2  0
 46 47  1  0
 36 48  1  0
 48 49  1  0
 48 50  1  0
 48 51  1  0
 51 52  1  0
 51 53  1  0
  2 54  1  0
 54 55  2  0
 55 56  1  0
 55 57  1  0
 57 58  2  0
 58 59  1  0
 58 60  1  0
 60 61  1  0
 60 62  2  0
 62 63  1  0
 19  5  1  0
 51 29  1  0
 62 54  1  0
 16  7  1  0
 46 37  1  0
M  END
>  <UniqueID>  (48) 
606

>  <SMILES>  (48) 
O=c1c2ccccc2nc(/C=C/c2cccnc2)n1CCCN1CCN(c2ccccc2)CC1

>  <Energy>  (48) 
91.13176627644881

>  <Genealogy>  (48) 
O=c1c2ccccc2nc(/C=C/c2cccnc2)n1CCCN1CCN(c2ccccc2)CC1 (cis-trans isomerization)
O=c1c2ccccc2nc(/C=C/c2cccnc2)n1CCCN1CCN(c2ccccc2)CC1 (3D coordinates assigned)
O=c1c2ccccc2nc(/C=C/c2cccnc2)n1CCCN1CCN(c2ccccc2)CC1 (nonaromatic ring conformer: 91.13176627644881 kcal/mol)

>  <smiles>  (48) 
O=c1c2ccccc2nc(/C=C/c2cccnc2)n1CCCN1CCN(c2ccccc2)CC1

>  <score_type>  (48) 
oracle

>  <origin>  (48) 
autodockgpu

>  <m_score__min__energy>  (48) 
-9.1400000000000006

>  <m_primary>  (48) 
energy

>  <meeko>  (48) 
{"free_energy": -8.59, "intermolecular_energy": -10.97, "internal_energy": -1.9, "cluster_size": 10, "cluster_id": 1, "rank_in_cluster": 7}

>  <energy>  (48) 
-8.5

>  <cluster_rmsd>  (48) 
1.83

>  <rmsd>  (48) 
270.71

>  <cluster>  (48) 
1

$$$$
IETZWVUTNAYKDK-BUHFOSPRNA-N
     RDKit          3D

 63 67  0  0  0  0  0  0  0  0999 V2000
  137.4391   71.7430  221.5472 H   0  0  0  0  0  0  0  0  0  0  0  0
  138.4840   71.9400  221.8290 C   0  0  0  0  0  0  0  0  0  0  0  0
  139.2770   70.8910  222.1020 C   0  0  0  0  0  0  0  0  0  0  0  0
  139.7625   70.3603  221.2697 H   0  0  0  0  0  0  0  0  0  0  0  0
  139.5210   70.4220  223.4970 C   0  0  0  0  0  0  0  0  0  0  0  0
  140.1030   71.2920  224.3660 N   0  0  0  0  0  0  0  0  0  0  0  0
  140.3430   70.9740  225.6560 C   0  0  0  0  0  0  0  0  0  0  0  0
  140.9520   71.9060  226.5070 C   0  0  0  0  0  0  0  0  0  0  0  0
  141.2412   72.8950  226.1220 H   0  0  0  0  0  0  0  0  0  0  0  0
  141.1920   71.5800  227.8440 C   0  0  0  0  0  0  0  0  0  0  0  0
  141.6704   72.3126  228.5106 H   0  0  0  0  0  0  0  0  0  0  0  0
  140.8250   70.3240  228.3360 C   0  0  0  0  0  0  0  0  0  0  0  0
  141.0145   70.0703  229.3894 H   0  0  0  0  0  0  0  0  0  0  0  0
  140.2170   69.3890  227.4910 C   0  0  0  0  0  0  0  0  0  0  0  0
  139.9290   68.4016  227.8811 H   0  0  0  0  0  0  0  0  0  0  0  0
  139.9730   69.7110  226.1400 C   0  0  0  0  0  0  0  0  0  0  0  0
  139.3690   68.8090  225.2490 C   0  0  0  0  0  0  0  0  0  0  0  0
  139.0130   67.6730  225.6750 O   0  0  0  0  0  0  0  0  0  0  0  0
  139.1670   69.1550  223.9300 N   0  0  0  0  0  0  0  0  0  0  0  0
  138.6100   68.1470  222.9950 C   0  0  0  0  0  0  0  0  0  0  0  0
  139.1002   68.2620  222.0170 H   0  0  0  0  0  0  0  0  0  0  0  0
  138.7971   67.1506  223.4218 H   0  0  0  0  0  0  0  0  0  0  0  0
  137.0880   68.3040  222.8090 C   0  0  0  0  0  0  0  0  0  0  0  0
  136.8942   68.6060  221.7692 H   0  0  0  0  0  0  0  0  0  0  0  0
  136.6314   67.3340  223.0553 H   0  0  0  0  0  0  0  0  0  0  0  0
  136.4570   69.3500  223.7450 C   0  0  0  0  0  0  0  0  0  0  0  0
  137.1233   69.5069  224.6060 H   0  0  0  0  0  0  0  0  0  0  0  0
  136.3223   70.2828  223.1778 H   0  0  0  0  0  0  0  0  0  0  0  0
  135.1310   68.9110  224.2370 N   0  0  0  0  0  0  0  0  0  0  0  0
  134.8970   69.2800  225.6610 C   0  0  0  0  0  0  0  0  0  0  0  0
  134.4669   68.4094  226.1778 H   0  0  0  0  0  0  0  0  0  0  0  0
  135.8704   69.5806  226.0760 H   0  0  0  0  0  0  0  0  0  0  0  0
  133.9430   70.4760  225.8500 C   0  0  0  0  0  0  0  0  0  0  0  0
  132.9074   70.1092  225.9052 H   0  0  0  0  0  0  0  0  0  0  0  0
  134.2064   71.0009  226.7801 H   0  0  0  0  0  0  0  0  0  0  0  0
  134.0670   71.4070  224.7250 N   0  0  0  0  0  0  0  0  0  0  0  0
  134.3880   72.7950  224.9330 C   0  0  0  0  0  0  0  0  0  0  0  0
  135.3990   73.4150  224.1740 C   0  0  0  0  0  0  0  0  0  0  0  0
  135.9411   72.8378  223.4105 H   0  0  0  0  0  0  0  0  0  0  0  0
  135.7180   74.7600  224.3850 C   0  0  0  0  0  0  0  0  0  0  0  0
  136.5048   75.2391  223.7838 H   0  0  0  0  0  0  0  0  0  0  0  0
  135.0380   75.4960  225.3590 C   0  0  0  0  0  0  0  0  0  0  0  0
  135.2879   76.5548  225.5219 H   0  0  0  0  0  0  0  0  0  0  0  0
  134.0410   74.8880  226.1260 C   0  0  0  0  0  0  0  0  0  0  0  0
  133.5096   75.4675  226.8953 H   0  0  0  0  0  0  0  0  0  0  0  0
  133.7180   73.5440  225.9170 C   0  0  0  0  0  0  0  0  0  0  0  0
  132.9347   73.0692  226.5261 H   0  0  0  0  0  0  0  0  0  0  0  0
  133.8820   70.8870  223.3660 C   0  0  0  0  0  0  0  0  0  0  0  0
  132.8750   71.1525  223.0118 H   0  0  0  0  0  0  0  0  0  0  0  0
  134.6464   71.3302  222.7108 H   0  0  0  0  0  0  0  0  0  0  0  0
  134.0380   69.3580  223.3430 C   0  0  0  0  0  0  0  0  0  0  0  0
  133.0952   68.8974  223.6730 H   0  0  0  0  0  0  0  0  0  0  0  0
  134.2847   69.0514  222.3158 H   0  0  0  0  0  0  0  0  0  0  0  0
  138.9410   73.3490  221.8870 C   0  0  0  0  0  0  0  0  0  0  0  0
  140.3040   73.7080  221.9100 C   0  0  0  0  0  0  0  0  0  0  0  0
  141.0777   72.9270  221.8721 H   0  0  0  0  0  0  0  0  0  0  0  0
  140.6650   75.0180  221.9790 N   0  0  0  0  0  0  0  0  0  0  0  0
  139.7440   76.0140  222.0330 C   0  0  0  0  0  0  0  0  0  0  0  0
  140.0713   77.0631  222.0799 H   0  0  0  0  0  0  0  0  0  0  0  0
  138.3830   75.7080  222.0290 C   0  0  0  0  0  0  0  0  0  0  0  0
  137.6327   76.5110  222.0774 H   0  0  0  0  0  0  0  0  0  0  0  0
  137.9830   74.3720  221.9630 C   0  0  0  0  0  0  0  0  0  0  0  0
  136.9123   74.1200  221.9706 H   0  0  0  0  0  0  0  0  0  0  0  0
  1  2  1  0
  2  3  2  0
  3  4  1  0
  3  5  1  0
  5  6  2  0
  6  7  1  0
  7  8  2  0
  8  9  1  0
  8 10  1  0
 10 11  1  0
 10 12  2  0
 12 13  1  0
 12 14  1  0
 14 15  1  0
 14 16  2  0
 16 17  1  0
 17 18  2  0
 17 19  1  0
 19 20  1  0
 20 21  1  0
 20 22  1  0
 20 23  1  0
 23 24  1  0
 23 25  1  0
 23 26  1  0
 26 27  1  0
 26 28  1  0
 26 29  1  0
 29 30  1  0
 30 31  1  0
 30 32  1  0
 30 33  1  0
 33 34  1  0
 33 35  1  0
 33 36  1  0
 36 37  1  0
 37 38  2  0
 38 39  1  0
 38 40  1  0
 40 41  1  0
 40 42  2  0
 42 43  1  0
 42 44  1  0
 44 45  1  0
 44 46  2  0
 46 47  1  0
 36 48  1  0
 48 49  1  0
 48 50  1  0
 48 51  1  0
 51 52  1  0
 51 53  1  0
  2 54  1  0
 54 55  2  0
 55 56  1  0
 55 57  1  0
 57 58  2  0
 58 59  1  0
 58 60  1  0
 60 61  1  0
 60 62  2  0
 62 63  1  0
 19  5  1  0
 51 29  1  0
 62 54  1  0
 16  7  1  0
 46 37  1  0
M  END
>  <UniqueID>  (49) 
606

>  <SMILES>  (49) 
O=c1c2ccccc2nc(/C=C/c2cccnc2)n1CCCN1CCN(c2ccccc2)CC1

>  <Energy>  (49) 
91.13176627644881

>  <Genealogy>  (49) 
O=c1c2ccccc2nc(/C=C/c2cccnc2)n1CCCN1CCN(c2ccccc2)CC1 (cis-trans isomerization)
O=c1c2ccccc2nc(/C=C/c2cccnc2)n1CCCN1CCN(c2ccccc2)CC1 (3D coordinates assigned)
O=c1c2ccccc2nc(/C=C/c2cccnc2)n1CCCN1CCN(c2ccccc2)CC1 (nonaromatic ring conformer: 91.13176627644881 kcal/mol)

>  <smiles>  (49) 
O=c1c2ccccc2nc(/C=C/c2cccnc2)n1CCCN1CCN(c2ccccc2)CC1

>  <score_type>  (49) 
oracle

>  <origin>  (49) 
autodockgpu

>  <m_score__min__energy>  (49) 
-9.1400000000000006

>  <m_primary>  (49) 
energy

>  <meeko>  (49) 
{"free_energy": -8.49, "intermolecular_energy": -10.88, "internal_energy": -2.32, "cluster_size": 3, "cluster_id": 3, "rank_in_cluster": 1}

>  <energy>  (49) 
-8.47

>  <cluster_rmsd>  (49) 
1.82

>  <rmsd>  (49) 
270.69

>  <cluster>  (49) 
1

$$$$
IETZWVUTNAYKDK-BUHFOSPRNA-N
     RDKit          3D

 63 67  0  0  0  0  0  0  0  0999 V2000
  143.9575   75.8248  217.4583 H   0  0  0  0  0  0  0  0  0  0  0  0
  143.5230   75.2380  218.2810 C   0  0  0  0  0  0  0  0  0  0  0  0
  142.2150   75.3860  218.5460 C   0  0  0  0  0  0  0  0  0  0  0  0
  141.4795   74.9759  217.8383 H   0  0  0  0  0  0  0  0  0  0  0  0
  141.7260   76.0880  219.7680 C   0  0  0  0  0  0  0  0  0  0  0  0
  142.0020   77.4140  219.8910 N   0  0  0  0  0  0  0  0  0  0  0  0
  141.5820   78.1460  220.9460 C   0  0  0  0  0  0  0  0  0  0  0  0
  141.9010   79.5070  221.0270 C   0  0  0  0  0  0  0  0  0  0  0  0
  142.5003   79.9789  220.2345 H   0  0  0  0  0  0  0  0  0  0  0  0
  141.4590   80.2660  222.1130 C   0  0  0  0  0  0  0  0  0  0  0  0
  141.7112   81.3349  222.1755 H   0  0  0  0  0  0  0  0  0  0  0  0
  140.6960   79.6680  223.1210 C   0  0  0  0  0  0  0  0  0  0  0  0
  140.3475   80.2679  223.9746 H   0  0  0  0  0  0  0  0  0  0  0  0
  140.3750   78.3080  223.0460 C   0  0  0  0  0  0  0  0  0  0  0  0
  139.7755   77.8403  223.8409 H   0  0  0  0  0  0  0  0  0  0  0  0
  140.8190   77.5370  221.9530 C   0  0  0  0  0  0  0  0  0  0  0  0
  140.5280   76.1690  221.8300 C   0  0  0  0  0  0  0  0  0  0  0  0
  139.8260   75.6100  222.7210 O   0  0  0  0  0  0  0  0  0  0  0  0
  140.9990   75.4440  220.7560 N   0  0  0  0  0  0  0  0  0  0  0  0
  140.7500   73.9820  220.7030 C   0  0  0  0  0  0  0  0  0  0  0  0
  141.1772   73.5830  219.7712 H   0  0  0  0  0  0  0  0  0  0  0  0
  141.2218   73.5259  221.5859 H   0  0  0  0  0  0  0  0  0  0  0  0
  139.2460   73.6480  220.7430 C   0  0  0  0  0  0  0  0  0  0  0  0
  138.6800   74.5907  220.7134 H   0  0  0  0  0  0  0  0  0  0  0  0
  139.0362   73.0052  219.8754 H   0  0  0  0  0  0  0  0  0  0  0  0
  138.8200   72.8650  221.9960 C   0  0  0  0  0  0  0  0  0  0  0  0
  139.6597   72.8438  222.7062 H   0  0  0  0  0  0  0  0  0  0  0  0
  137.9462   73.3683  222.4355 H   0  0  0  0  0  0  0  0  0  0  0  0
  138.4350   71.4730  221.6650 N   0  0  0  0  0  0  0  0  0  0  0  0
  139.5800   70.5260  221.7480 C   0  0  0  0  0  0  0  0  0  0  0  0
  139.5564   69.8762  220.8607 H   0  0  0  0  0  0  0  0  0  0  0  0
  140.4939   71.1358  221.8025 H   0  0  0  0  0  0  0  0  0  0  0  0
  139.5650   69.6320  223.0040 C   0  0  0  0  0  0  0  0  0  0  0  0
  138.9884   68.7193  222.7932 H   0  0  0  0  0  0  0  0  0  0  0  0
  140.5998   69.3702  223.2700 H   0  0  0  0  0  0  0  0  0  0  0  0
  138.9490   70.3450  224.1270 N   0  0  0  0  0  0  0  0  0  0  0  0
  139.6470   70.5250  225.3740 C   0  0  0  0  0  0  0  0  0  0  0  0
  140.5720   71.5750  225.5280 C   0  0  0  0  0  0  0  0  0  0  0  0
  140.7558   72.2686  224.6943 H   0  0  0  0  0  0  0  0  0  0  0  0
  141.2580   71.7410  226.7340 C   0  0  0  0  0  0  0  0  0  0  0  0
  141.9749   72.5674  226.8485 H   0  0  0  0  0  0  0  0  0  0  0  0
  141.0350   70.8590  227.7950 C   0  0  0  0  0  0  0  0  0  0  0  0
  141.5736   70.9933  228.7447 H   0  0  0  0  0  0  0  0  0  0  0  0
  140.1280   69.8070  227.6490 C   0  0  0  0  0  0  0  0  0  0  0  0
  139.9559   69.1108  228.4831 H   0  0  0  0  0  0  0  0  0  0  0  0
  139.4380   69.6370  226.4440 C   0  0  0  0  0  0  0  0  0  0  0  0
  138.7281   68.8041  226.3330 H   0  0  0  0  0  0  0  0  0  0  0  0
  137.6040   70.9010  223.9470 C   0  0  0  0  0  0  0  0  0  0  0  0
  136.8713   70.2381  224.4305 H   0  0  0  0  0  0  0  0  0  0  0  0
  137.5708   71.9019  224.4020 H   0  0  0  0  0  0  0  0  0  0  0  0
  137.2640   71.0250  222.4530 C   0  0  0  0  0  0  0  0  0  0  0  0
  136.9354   70.0442  222.0787 H   0  0  0  0  0  0  0  0  0  0  0  0
  136.4663   71.7741  222.3418 H   0  0  0  0  0  0  0  0  0  0  0  0
  144.4130   74.3250  219.0390 C   0  0  0  0  0  0  0  0  0  0  0  0
  145.1550   73.2980  218.4220 C   0  0  0  0  0  0  0  0  0  0  0  0
  145.0961   73.1580  217.3325 H   0  0  0  0  0  0  0  0  0  0  0  0
  145.9440   72.4790  219.1690 N   0  0  0  0  0  0  0  0  0  0  0  0
  146.0430   72.6140  220.5170 C   0  0  0  0  0  0  0  0  0  0  0  0
  146.6979   71.9412  221.0901 H   0  0  0  0  0  0  0  0  0  0  0  0
  145.3150   73.6050  221.1750 C   0  0  0  0  0  0  0  0  0  0  0  0
  145.3870   73.7143  222.2672 H   0  0  0  0  0  0  0  0  0  0  0  0
  144.4940   74.4570  220.4340 C   0  0  0  0  0  0  0  0  0  0  0  0
  143.9082   75.2349  220.9455 H   0  0  0  0  0  0  0  0  0  0  0  0
  1  2  1  0
  2  3  2  0
  3  4  1  0
  3  5  1  0
  5  6  2  0
  6  7  1  0
  7  8  2  0
  8  9  1  0
  8 10  1  0
 10 11  1  0
 10 12  2  0
 12 13  1  0
 12 14  1  0
 14 15  1  0
 14 16  2  0
 16 17  1  0
 17 18  2  0
 17 19  1  0
 19 20  1  0
 20 21  1  0
 20 22  1  0
 20 23  1  0
 23 24  1  0
 23 25  1  0
 23 26  1  0
 26 27  1  0
 26 28  1  0
 26 29  1  0
 29 30  1  0
 30 31  1  0
 30 32  1  0
 30 33  1  0
 33 34  1  0
 33 35  1  0
 33 36  1  0
 36 37  1  0
 37 38  2  0
 38 39  1  0
 38 40  1  0
 40 41  1  0
 40 42  2  0
 42 43  1  0
 42 44  1  0
 44 45  1  0
 44 46  2  0
 46 47  1  0
 36 48  1  0
 48 49  1  0
 48 50  1  0
 48 51  1  0
 51 52  1  0
 51 53  1  0
  2 54  1  0
 54 55  2  0
 55 56  1  0
 55 57  1  0
 57 58  2  0
 58 59  1  0
 58 60  1  0
 60 61  1  0
 60 62  2  0
 62 63  1  0
 19  5  1  0
 51 29  1  0
 62 54  1  0
 16  7  1  0
 46 37  1  0
M  END
>  <UniqueID>  (50) 
606

>  <SMILES>  (50) 
O=c1c2ccccc2nc(/C=C/c2cccnc2)n1CCCN1CCN(c2ccccc2)CC1

>  <Energy>  (50) 
91.13176627644881

>  <Genealogy>  (50) 
O=c1c2ccccc2nc(/C=C/c2cccnc2)n1CCCN1CCN(c2ccccc2)CC1 (cis-trans isomerization)
O=c1c2ccccc2nc(/C=C/c2cccnc2)n1CCCN1CCN(c2ccccc2)CC1 (3D coordinates assigned)
O=c1c2ccccc2nc(/C=C/c2cccnc2)n1CCCN1CCN(c2ccccc2)CC1 (nonaromatic ring conformer: 91.13176627644881 kcal/mol)

>  <smiles>  (50) 
O=c1c2ccccc2nc(/C=C/c2cccnc2)n1CCCN1CCN(c2ccccc2)CC1

>  <score_type>  (50) 
oracle

>  <origin>  (50) 
autodockgpu

>  <m_score__min__energy>  (50) 
-9.1400000000000006

>  <m_primary>  (50) 
energy

>  <meeko>  (50) 
{"free_energy": -8.88, "intermolecular_energy": -11.26, "internal_energy": -1.49, "cluster_size": 10, "cluster_id": 1, "rank_in_cluster": 4}

>  <energy>  (50) 
-8.06

>  <cluster_rmsd>  (50) 
1.47

>  <rmsd>  (50) 
270.83

>  <cluster>  (50) 
1

$$$$
IETZWVUTNAYKDK-BUHFOSPRNA-N
     RDKit          3D

 63 67  0  0  0  0  0  0  0  0999 V2000
  144.0297   75.6458  217.1912 H   0  0  0  0  0  0  0  0  0  0  0  0
  143.5840   75.1660  218.0750 C   0  0  0  0  0  0  0  0  0  0  0  0
  142.2910   75.4080  218.3450 C   0  0  0  0  0  0  0  0  0  0  0  0
  141.5265   75.0670  217.6313 H   0  0  0  0  0  0  0  0  0  0  0  0
  141.8560   76.1230  219.5790 C   0  0  0  0  0  0  0  0  0  0  0  0
  142.0300   77.4710  219.6240 N   0  0  0  0  0  0  0  0  0  0  0  0
  141.6470   78.2150  220.6850 C   0  0  0  0  0  0  0  0  0  0  0  0
  141.8560   79.6000  220.6830 C   0  0  0  0  0  0  0  0  0  0  0  0
  142.3393   80.0817  219.8202 H   0  0  0  0  0  0  0  0  0  0  0  0
  141.4510   80.3700  221.7760 C   0  0  0  0  0  0  0  0  0  0  0  0
  141.6165   81.4575  221.7731 H   0  0  0  0  0  0  0  0  0  0  0  0
  140.8360   79.7610  222.8730 C   0  0  0  0  0  0  0  0  0  0  0  0
  140.5172   80.3700  223.7318 H   0  0  0  0  0  0  0  0  0  0  0  0
  140.6250   78.3780  222.8810 C   0  0  0  0  0  0  0  0  0  0  0  0
  140.1408   77.9014  223.7461 H   0  0  0  0  0  0  0  0  0  0  0  0
  141.0320   77.5940  221.7820 C   0  0  0  0  0  0  0  0  0  0  0  0
  140.8470   76.2030  221.7400 C   0  0  0  0  0  0  0  0  0  0  0  0
  140.2780   75.6320  222.7140 O   0  0  0  0  0  0  0  0  0  0  0  0
  141.2790   75.4700  220.6550 N   0  0  0  0  0  0  0  0  0  0  0  0
  141.1500   73.9920  220.6830 C   0  0  0  0  0  0  0  0  0  0  0  0
  141.4839   73.5887  219.7156 H   0  0  0  0  0  0  0  0  0  0  0  0
  141.7700   73.6140  221.5092 H   0  0  0  0  0  0  0  0  0  0  0  0
  139.6980   73.5400  220.9350 C   0  0  0  0  0  0  0  0  0  0  0  0
  139.0753   74.4354  221.0782 H   0  0  0  0  0  0  0  0  0  0  0  0
  139.3885   72.9494  220.0601 H   0  0  0  0  0  0  0  0  0  0  0  0
  139.5380   72.6350  222.1680 C   0  0  0  0  0  0  0  0  0  0  0  0
  140.5355   72.3446  222.5295 H   0  0  0  0  0  0  0  0  0  0  0  0
  138.9891   73.1968  222.9381 H   0  0  0  0  0  0  0  0  0  0  0  0
  138.7670   71.4110  221.8500 N   0  0  0  0  0  0  0  0  0  0  0  0
  139.5910   70.1740  221.9410 C   0  0  0  0  0  0  0  0  0  0  0  0
  139.3779   69.5508  221.0599 H   0  0  0  0  0  0  0  0  0  0  0  0
  140.6422   70.4946  221.9888 H   0  0  0  0  0  0  0  0  0  0  0  0
  139.3230   69.3340  223.2050 C   0  0  0  0  0  0  0  0  0  0  0  0
  138.5067   68.6248  223.0032 H   0  0  0  0  0  0  0  0  0  0  0  0
  140.2392   68.7872  223.4726 H   0  0  0  0  0  0  0  0  0  0  0  0
  138.9430   70.2040  224.3220 N   0  0  0  0  0  0  0  0  0  0  0  0
  139.6680   70.1860  225.5670 C   0  0  0  0  0  0  0  0  0  0  0  0
  139.6500   69.0410  226.3850 C   0  0  0  0  0  0  0  0  0  0  0  0
  139.0862   68.1512  226.0680 H   0  0  0  0  0  0  0  0  0  0  0  0
  140.3450   69.0280  227.5990 C   0  0  0  0  0  0  0  0  0  0  0  0
  140.3319   68.1273  228.2304 H   0  0  0  0  0  0  0  0  0  0  0  0
  141.0560   70.1590  228.0100 C   0  0  0  0  0  0  0  0  0  0  0  0
  141.6043   70.1468  228.9635 H   0  0  0  0  0  0  0  0  0  0  0  0
  141.0710   71.3050  227.2110 C   0  0  0  0  0  0  0  0  0  0  0  0
  141.6282   72.1954  227.5376 H   0  0  0  0  0  0  0  0  0  0  0  0
  140.3780   71.3210  225.9960 C   0  0  0  0  0  0  0  0  0  0  0  0
  140.3887   72.2271  225.3725 H   0  0  0  0  0  0  0  0  0  0  0  0
  137.8140   71.1230  224.1380 C   0  0  0  0  0  0  0  0  0  0  0  0
  136.9231   70.7035  224.6282 H   0  0  0  0  0  0  0  0  0  0  0  0
  138.0723   72.0949  224.5838 H   0  0  0  0  0  0  0  0  0  0  0  0
  137.5190   71.3270  222.6440 C   0  0  0  0  0  0  0  0  0  0  0  0
  136.9197   70.4798  222.2792 H   0  0  0  0  0  0  0  0  0  0  0  0
  136.9713   72.2737  222.5268 H   0  0  0  0  0  0  0  0  0  0  0  0
  144.4430   74.2870  218.9040 C   0  0  0  0  0  0  0  0  0  0  0  0
  145.2030   73.2320  218.3620 C   0  0  0  0  0  0  0  0  0  0  0  0
  145.1828   73.0421  217.2787 H   0  0  0  0  0  0  0  0  0  0  0  0
  145.9620   72.4470  219.1740 N   0  0  0  0  0  0  0  0  0  0  0  0
  146.0130   72.6430  220.5170 C   0  0  0  0  0  0  0  0  0  0  0  0
  146.6447   71.9960  221.1434 H   0  0  0  0  0  0  0  0  0  0  0  0
  145.2650   73.6640  221.1020 C   0  0  0  0  0  0  0  0  0  0  0  0
  145.2978   73.8227  222.1900 H   0  0  0  0  0  0  0  0  0  0  0  0
  144.4740   74.4830  220.2940 C   0  0  0  0  0  0  0  0  0  0  0  0
  143.8730   75.2847  220.7480 H   0  0  0  0  0  0  0  0  0  0  0  0
  1  2  1  0
  2  3  2  0
  3  4  1  0
  3  5  1  0
  5  6  2  0
  6  7  1  0
  7  8  2  0
  8  9  1  0
  8 10  1  0
 10 11  1  0
 10 12  2  0
 12 13  1  0
 12 14  1  0
 14 15  1  0
 14 16  2  0
 16 17  1  0
 17 18  2  0
 17 19  1  0
 19 20  1  0
 20 21  1  0
 20 22  1  0
 20 23  1  0
 23 24  1  0
 23 25  1  0
 23 26  1  0
 26 27  1  0
 26 28  1  0
 26 29  1  0
 29 30  1  0
 30 31  1  0
 30 32  1  0
 30 33  1  0
 33 34  1  0
 33 35  1  0
 33 36  1  0
 36 37  1  0
 37 38  2  0
 38 39  1  0
 38 40  1  0
 40 41  1  0
 40 42  2  0
 42 43  1  0
 42 44  1  0
 44 45  1  0
 44 46  2  0
 46 47  1  0
 36 48  1  0
 48 49  1  0
 48 50  1  0
 48 51  1  0
 51 52  1  0
 51 53  1  0
  2 54  1  0
 54 55  2  0
 55 56  1  0
 55 57  1  0
 57 58  2  0
 58 59  1  0
 58 60  1  0
 60 61  1  0
 60 62  2  0
 62 63  1  0
 19  5  1  0
 51 29  1  0
 62 54  1  0
 16  7  1  0
 46 37  1  0
M  END
>  <UniqueID>  (51) 
606

>  <SMILES>  (51) 
O=c1c2ccccc2nc(/C=C/c2cccnc2)n1CCCN1CCN(c2ccccc2)CC1

>  <Energy>  (51) 
91.13176627644881

>  <Genealogy>  (51) 
O=c1c2ccccc2nc(/C=C/c2cccnc2)n1CCCN1CCN(c2ccccc2)CC1 (cis-trans isomerization)
O=c1c2ccccc2nc(/C=C/c2cccnc2)n1CCCN1CCN(c2ccccc2)CC1 (3D coordinates assigned)
O=c1c2ccccc2nc(/C=C/c2cccnc2)n1CCCN1CCN(c2ccccc2)CC1 (nonaromatic ring conformer: 91.13176627644881 kcal/mol)

>  <smiles>  (51) 
O=c1c2ccccc2nc(/C=C/c2cccnc2)n1CCCN1CCN(c2ccccc2)CC1

>  <score_type>  (51) 
oracle

>  <origin>  (51) 
autodockgpu

>  <m_score__min__energy>  (51) 
-9.1400000000000006

>  <m_primary>  (51) 
energy

>  <meeko>  (51) 
{"free_energy": -8.86, "intermolecular_energy": -11.24, "internal_energy": -1.43, "cluster_size": 10, "cluster_id": 1, "rank_in_cluster": 5}

>  <energy>  (51) 
-8.64

>  <cluster_rmsd>  (51) 
0.0

>  <rmsd>  (51) 
270.53

>  <cluster>  (51) 
2

$$$$
IETZWVUTNAYKDK-BUHFOSPRNA-N
     RDKit          3D

 63 67  0  0  0  0  0  0  0  0999 V2000
  143.2796   76.4975  218.5938 H   0  0  0  0  0  0  0  0  0  0  0  0
  142.7740   75.8790  219.3500 C   0  0  0  0  0  0  0  0  0  0  0  0
  141.5030   76.1750  219.6670 C   0  0  0  0  0  0  0  0  0  0  0  0
  140.6890   75.6876  219.1104 H   0  0  0  0  0  0  0  0  0  0  0  0
  141.1580   77.1430  220.7490 C   0  0  0  0  0  0  0  0  0  0  0  0
  142.1090   78.0420  221.1210 N   0  0  0  0  0  0  0  0  0  0  0  0
  141.8880   78.9760  222.0720 C   0  0  0  0  0  0  0  0  0  0  0  0
  142.9050   79.8730  222.4230 C   0  0  0  0  0  0  0  0  0  0  0  0
  143.8864   79.8120  221.9300 H   0  0  0  0  0  0  0  0  0  0  0  0
  142.6730   80.8450  223.3990 C   0  0  0  0  0  0  0  0  0  0  0  0
  143.4721   81.5492  223.6737 H   0  0  0  0  0  0  0  0  0  0  0  0
  141.4270   80.9240  224.0270 C   0  0  0  0  0  0  0  0  0  0  0  0
  141.2471   81.6907  224.7950 H   0  0  0  0  0  0  0  0  0  0  0  0
  140.4080   80.0300  223.6810 C   0  0  0  0  0  0  0  0  0  0  0  0
  139.4286   80.0944  224.1776 H   0  0  0  0  0  0  0  0  0  0  0  0
  140.6350   79.0470  222.6970 C   0  0  0  0  0  0  0  0  0  0  0  0
  139.6490   78.1230  222.3150 C   0  0  0  0  0  0  0  0  0  0  0  0
  138.5090   78.1860  222.8570 O   0  0  0  0  0  0  0  0  0  0  0  0
  139.9180   77.1620  221.3630 N   0  0  0  0  0  0  0  0  0  0  0  0
  138.8830   76.1460  221.0480 C   0  0  0  0  0  0  0  0  0  0  0  0
  137.9003   76.6393  221.0156 H   0  0  0  0  0  0  0  0  0  0  0  0
  139.1362   75.6951  220.0771 H   0  0  0  0  0  0  0  0  0  0  0  0
  138.8380   75.0180  222.0970 C   0  0  0  0  0  0  0  0  0  0  0  0
  138.9539   75.4666  223.0947 H   0  0  0  0  0  0  0  0  0  0  0  0
  137.8720   74.5056  221.9771 H   0  0  0  0  0  0  0  0  0  0  0  0
  139.9360   73.9570  221.9110 C   0  0  0  0  0  0  0  0  0  0  0  0
  140.7653   74.3979  221.3384 H   0  0  0  0  0  0  0  0  0  0  0  0
  140.2747   73.6336  222.9063 H   0  0  0  0  0  0  0  0  0  0  0  0
  139.4280   72.7690  221.1850 N   0  0  0  0  0  0  0  0  0  0  0  0
  140.3890   71.6320  221.2050 C   0  0  0  0  0  0  0  0  0  0  0  0
  140.4471   71.2103  220.1907 H   0  0  0  0  0  0  0  0  0  0  0  0
  141.3519   72.0352  221.5518 H   0  0  0  0  0  0  0  0  0  0  0  0
  140.0020   70.5010  222.1790 C   0  0  0  0  0  0  0  0  0  0  0  0
  139.3528   69.7807  221.6597 H   0  0  0  0  0  0  0  0  0  0  0  0
  140.9167   69.9993  222.5276 H   0  0  0  0  0  0  0  0  0  0  0  0
  139.2880   71.0500  223.3350 N   0  0  0  0  0  0  0  0  0  0  0  0
  139.7490   70.8170  224.6800 C   0  0  0  0  0  0  0  0  0  0  0  0
  139.2630   69.7240  225.4210 C   0  0  0  0  0  0  0  0  0  0  0  0
  138.5338   69.0365  224.9675 H   0  0  0  0  0  0  0  0  0  0  0  0
  139.7020   69.5070  226.7310 C   0  0  0  0  0  0  0  0  0  0  0  0
  139.3214   68.6475  227.3024 H   0  0  0  0  0  0  0  0  0  0  0  0
  140.6230   70.3800  227.3150 C   0  0  0  0  0  0  0  0  0  0  0  0
  140.9703   70.2049  228.3439 H   0  0  0  0  0  0  0  0  0  0  0  0
  141.1030   71.4750  226.5930 C   0  0  0  0  0  0  0  0  0  0  0  0
  141.8242   72.1646  227.0560 H   0  0  0  0  0  0  0  0  0  0  0  0
  140.6680   71.6960  225.2820 C   0  0  0  0  0  0  0  0  0  0  0  0
  141.0465   72.5617  224.7187 H   0  0  0  0  0  0  0  0  0  0  0  0
  138.0960   71.8700  223.0940 C   0  0  0  0  0  0  0  0  0  0  0  0
  137.1970   71.2630  223.2763 H   0  0  0  0  0  0  0  0  0  0  0  0
  138.1170   72.7340  223.7745 H   0  0  0  0  0  0  0  0  0  0  0  0
  138.0740   72.3820  221.6450 C   0  0  0  0  0  0  0  0  0  0  0  0
  137.6881   71.5864  220.9907 H   0  0  0  0  0  0  0  0  0  0  0  0
  137.4281   73.2714  221.6031 H   0  0  0  0  0  0  0  0  0  0  0  0
  143.5320   74.7630  219.9650 C   0  0  0  0  0  0  0  0  0  0  0  0
  144.8400   74.9140  220.4650 C   0  0  0  0  0  0  0  0  0  0  0  0
  145.3348   75.8953  220.4181 H   0  0  0  0  0  0  0  0  0  0  0  0
  145.4940   73.8500  221.0060 N   0  0  0  0  0  0  0  0  0  0  0  0
  144.9230   72.6200  221.0790 C   0  0  0  0  0  0  0  0  0  0  0  0
  145.4761   71.7832  221.5305 H   0  0  0  0  0  0  0  0  0  0  0  0
  143.6360   72.4170  220.5820 C   0  0  0  0  0  0  0  0  0  0  0  0
  143.1713   71.4213  220.6338 H   0  0  0  0  0  0  0  0  0  0  0  0
  142.9430   73.4900  220.0180 C   0  0  0  0  0  0  0  0  0  0  0  0
  141.9315   73.3371  219.6137 H   0  0  0  0  0  0  0  0  0  0  0  0
  1  2  1  0
  2  3  2  0
  3  4  1  0
  3  5  1  0
  5  6  2  0
  6  7  1  0
  7  8  2  0
  8  9  1  0
  8 10  1  0
 10 11  1  0
 10 12  2  0
 12 13  1  0
 12 14  1  0
 14 15  1  0
 14 16  2  0
 16 17  1  0
 17 18  2  0
 17 19  1  0
 19 20  1  0
 20 21  1  0
 20 22  1  0
 20 23  1  0
 23 24  1  0
 23 25  1  0
 23 26  1  0
 26 27  1  0
 26 28  1  0
 26 29  1  0
 29 30  1  0
 30 31  1  0
 30 32  1  0
 30 33  1  0
 33 34  1  0
 33 35  1  0
 33 36  1  0
 36 37  1  0
 37 38  2  0
 38 39  1  0
 38 40  1  0
 40 41  1  0
 40 42  2  0
 42 43  1  0
 42 44  1  0
 44 45  1  0
 44 46  2  0
 46 47  1  0
 36 48  1  0
 48 49  1  0
 48 50  1  0
 48 51  1  0
 51 52  1  0
 51 53  1  0
  2 54  1  0
 54 55  2  0
 55 56  1  0
 55 57  1  0
 57 58  2  0
 58 59  1  0
 58 60  1  0
 60 61  1  0
 60 62  2  0
 62 63  1  0
 19  5  1  0
 51 29  1  0
 62 54  1  0
 16  7  1  0
 46 37  1  0
M  END
>  <UniqueID>  (52) 
606

>  <SMILES>  (52) 
O=c1c2ccccc2nc(/C=C/c2cccnc2)n1CCCN1CCN(c2ccccc2)CC1

>  <Energy>  (52) 
91.13176627644881

>  <Genealogy>  (52) 
O=c1c2ccccc2nc(/C=C/c2cccnc2)n1CCCN1CCN(c2ccccc2)CC1 (cis-trans isomerization)
O=c1c2ccccc2nc(/C=C/c2cccnc2)n1CCCN1CCN(c2ccccc2)CC1 (3D coordinates assigned)
O=c1c2ccccc2nc(/C=C/c2cccnc2)n1CCCN1CCN(c2ccccc2)CC1 (nonaromatic ring conformer: 91.13176627644881 kcal/mol)

>  <smiles>  (52) 
O=c1c2ccccc2nc(/C=C/c2cccnc2)n1CCCN1CCN(c2ccccc2)CC1

>  <score_type>  (52) 
oracle

>  <origin>  (52) 
autodockgpu

>  <m_score__min__energy>  (52) 
-9.1400000000000006

>  <m_primary>  (52) 
energy

>  <meeko>  (52) 
{"free_energy": -8.06, "intermolecular_energy": -10.45, "internal_energy": -1.92, "cluster_size": 10, "cluster_id": 1, "rank_in_cluster": 10}

>  <energy>  (52) 
-8.3

>  <cluster_rmsd>  (52) 
1.2

>  <rmsd>  (52) 
270.07

>  <cluster>  (52) 
2

$$$$
IETZWVUTNAYKDK-BUHFOSPRNA-N
     RDKit          3D

 63 67  0  0  0  0  0  0  0  0999 V2000
  137.8499   79.9312  222.9840 H   0  0  0  0  0  0  0  0  0  0  0  0
  138.7080   79.4220  222.5210 C   0  0  0  0  0  0  0  0  0  0  0  0
  138.4650   78.3970  221.6880 C   0  0  0  0  0  0  0  0  0  0  0  0
  137.5085   78.3678  221.1456 H   0  0  0  0  0  0  0  0  0  0  0  0
  139.4490   77.2970  221.4740 C   0  0  0  0  0  0  0  0  0  0  0  0
  140.5780   77.5840  220.7710 N   0  0  0  0  0  0  0  0  0  0  0  0
  141.5420   76.6660  220.5440 C   0  0  0  0  0  0  0  0  0  0  0  0
  142.6820   77.0120  219.8070 C   0  0  0  0  0  0  0  0  0  0  0  0
  142.7887   78.0307  219.4059 H   0  0  0  0  0  0  0  0  0  0  0  0
  143.6830   76.0650  219.5810 C   0  0  0  0  0  0  0  0  0  0  0  0
  144.5766   76.3382  219.0006 H   0  0  0  0  0  0  0  0  0  0  0  0
  143.5510   74.7710  220.0910 C   0  0  0  0  0  0  0  0  0  0  0  0
  144.3421   74.0278  219.9128 H   0  0  0  0  0  0  0  0  0  0  0  0
  142.4150   74.4180  220.8280 C   0  0  0  0  0  0  0  0  0  0  0  0
  142.3138   73.3980  221.2273 H   0  0  0  0  0  0  0  0  0  0  0  0
  141.4000   75.3690  221.0590 C   0  0  0  0  0  0  0  0  0  0  0  0
  140.2390   75.0670  221.7880 C   0  0  0  0  0  0  0  0  0  0  0  0
  140.1050   73.9070  222.2730 O   0  0  0  0  0  0  0  0  0  0  0  0
  139.2590   76.0190  221.9730 N   0  0  0  0  0  0  0  0  0  0  0  0
  138.0050   75.6410  222.6710 C   0  0  0  0  0  0  0  0  0  0  0  0
  138.2587   75.2425  223.6644 H   0  0  0  0  0  0  0  0  0  0  0  0
  137.3773   76.5409  222.7494 H   0  0  0  0  0  0  0  0  0  0  0  0
  137.2080   74.5740  221.8970 C   0  0  0  0  0  0  0  0  0  0  0  0
  136.2413   75.0083  221.6024 H   0  0  0  0  0  0  0  0  0  0  0  0
  137.8186   74.2826  221.0297 H   0  0  0  0  0  0  0  0  0  0  0  0
  136.9390   73.2950  222.7080 C   0  0  0  0  0  0  0  0  0  0  0  0
  137.6661   73.2349  223.5313 H   0  0  0  0  0  0  0  0  0  0  0  0
  135.9104   73.3430  223.0948 H   0  0  0  0  0  0  0  0  0  0  0  0
  137.0620   72.0800  221.8680 N   0  0  0  0  0  0  0  0  0  0  0  0
  138.4740   71.7760  221.5030 C   0  0  0  0  0  0  0  0  0  0  0  0
  138.5082   71.5252  220.4325 H   0  0  0  0  0  0  0  0  0  0  0  0
  139.0656   72.6705  221.7476 H   0  0  0  0  0  0  0  0  0  0  0  0
  139.0880   70.6050  222.2950 C   0  0  0  0  0  0  0  0  0  0  0  0
  138.8811   69.6620  221.7678 H   0  0  0  0  0  0  0  0  0  0  0  0
  140.1740   70.7590  222.3783 H   0  0  0  0  0  0  0  0  0  0  0  0
  138.5100   70.5440  223.6400 N   0  0  0  0  0  0  0  0  0  0  0  0
  139.3430   70.5840  224.8150 C   0  0  0  0  0  0  0  0  0  0  0  0
  140.3600   71.5490  224.9350 C   0  0  0  0  0  0  0  0  0  0  0  0
  140.5143   72.2839  224.1312 H   0  0  0  0  0  0  0  0  0  0  0  0
  141.1760   71.5790  226.0710 C   0  0  0  0  0  0  0  0  0  0  0  0
  141.9656   72.3396  226.1604 H   0  0  0  0  0  0  0  0  0  0  0  0
  140.9890   70.6440  227.0920 C   0  0  0  0  0  0  0  0  0  0  0  0
  141.6297   70.6708  227.9857 H   0  0  0  0  0  0  0  0  0  0  0  0
  139.9890   69.6750  226.9790 C   0  0  0  0  0  0  0  0  0  0  0  0
  139.8452   68.9374  227.7823 H   0  0  0  0  0  0  0  0  0  0  0  0
  139.1710   69.6420  225.8460 C   0  0  0  0  0  0  0  0  0  0  0  0
  138.3877   68.8746  225.7598 H   0  0  0  0  0  0  0  0  0  0  0  0
  137.0520   70.4670  223.7710 C   0  0  0  0  0  0  0  0  0  0  0  0
  136.7631   69.4279  223.9872 H   0  0  0  0  0  0  0  0  0  0  0  0
  136.7347   71.1292  224.5900 H   0  0  0  0  0  0  0  0  0  0  0  0
  136.3660   70.9220  222.4730 C   0  0  0  0  0  0  0  0  0  0  0  0
  136.3697   70.0881  221.7556 H   0  0  0  0  0  0  0  0  0  0  0  0
  135.3370   71.2261  222.7151 H   0  0  0  0  0  0  0  0  0  0  0  0
  140.0710   79.9040  222.8500 C   0  0  0  0  0  0  0  0  0  0  0  0
  140.5540   81.1620  222.4400 C   0  0  0  0  0  0  0  0  0  0  0  0
  139.9056   81.8357  221.8607 H   0  0  0  0  0  0  0  0  0  0  0  0
  141.8200   81.5470  222.7580 N   0  0  0  0  0  0  0  0  0  0  0  0
  142.6550   80.7440  223.4680 C   0  0  0  0  0  0  0  0  0  0  0  0
  143.6697   81.0890  223.7157 H   0  0  0  0  0  0  0  0  0  0  0  0
  142.2280   79.4840  223.8830 C   0  0  0  0  0  0  0  0  0  0  0  0
  142.9025   78.8287  224.4536 H   0  0  0  0  0  0  0  0  0  0  0  0
  140.9350   79.0620  223.5670 C   0  0  0  0  0  0  0  0  0  0  0  0
  140.5921   78.0652  223.8814 H   0  0  0  0  0  0  0  0  0  0  0  0
  1  2  1  0
  2  3  2  0
  3  4  1  0
  3  5  1  0
  5  6  2  0
  6  7  1  0
  7  8  2  0
  8  9  1  0
  8 10  1  0
 10 11  1  0
 10 12  2  0
 12 13  1  0
 12 14  1  0
 14 15  1  0
 14 16  2  0
 16 17  1  0
 17 18  2  0
 17 19  1  0
 19 20  1  0
 20 21  1  0
 20 22  1  0
 20 23  1  0
 23 24  1  0
 23 25  1  0
 23 26  1  0
 26 27  1  0
 26 28  1  0
 26 29  1  0
 29 30  1  0
 30 31  1  0
 30 32  1  0
 30 33  1  0
 33 34  1  0
 33 35  1  0
 33 36  1  0
 36 37  1  0
 37 38  2  0
 38 39  1  0
 38 40  1  0
 40 41  1  0
 40 42  2  0
 42 43  1  0
 42 44  1  0
 44 45  1  0
 44 46  2  0
 46 47  1  0
 36 48  1  0
 48 49  1  0
 48 50  1  0
 48 51  1  0
 51 52  1  0
 51 53  1  0
  2 54  1  0
 54 55  2  0
 55 56  1  0
 55 57  1  0
 57 58  2  0
 58 59  1  0
 58 60  1  0
 60 61  1  0
 60 62  2  0
 62 63  1  0
 19  5  1  0
 51 29  1  0
 62 54  1  0
 16  7  1  0
 46 37  1  0
M  END
>  <UniqueID>  (53) 
606

>  <SMILES>  (53) 
O=c1c2ccccc2nc(/C=C/c2cccnc2)n1CCCN1CCN(c2ccccc2)CC1

>  <Energy>  (53) 
91.13176627644881

>  <Genealogy>  (53) 
O=c1c2ccccc2nc(/C=C/c2cccnc2)n1CCCN1CCN(c2ccccc2)CC1 (cis-trans isomerization)
O=c1c2ccccc2nc(/C=C/c2cccnc2)n1CCCN1CCN(c2ccccc2)CC1 (3D coordinates assigned)
O=c1c2ccccc2nc(/C=C/c2cccnc2)n1CCCN1CCN(c2ccccc2)CC1 (nonaromatic ring conformer: 91.13176627644881 kcal/mol)

>  <smiles>  (53) 
O=c1c2ccccc2nc(/C=C/c2cccnc2)n1CCCN1CCN(c2ccccc2)CC1

>  <score_type>  (53) 
oracle

>  <origin>  (53) 
autodockgpu

>  <m_score__min__energy>  (53) 
-9.1400000000000006

>  <m_primary>  (53) 
energy

>  <meeko>  (53) 
{"free_energy": -8.2, "intermolecular_energy": -10.59, "internal_energy": -1.96, "cluster_size": 1, "cluster_id": 4, "rank_in_cluster": 1}

>  <energy>  (53) 
-8.49

>  <cluster_rmsd>  (53) 
0.0

>  <rmsd>  (53) 
269.76

>  <cluster>  (53) 
3

$$$$
IETZWVUTNAYKDK-BUHFOSPRNA-N
     RDKit          3D

 63 67  0  0  0  0  0  0  0  0999 V2000
  141.5491   72.8164  219.1896 H   0  0  0  0  0  0  0  0  0  0  0  0
  142.0840   72.9460  220.1420 C   0  0  0  0  0  0  0  0  0  0  0  0
  141.3680   72.9500  221.2770 C   0  0  0  0  0  0  0  0  0  0  0  0
  141.4254   72.0773  221.9442 H   0  0  0  0  0  0  0  0  0  0  0  0
  140.4970   74.0970  221.6650 C   0  0  0  0  0  0  0  0  0  0  0  0
  141.1030   75.2710  221.9900 N   0  0  0  0  0  0  0  0  0  0  0  0
  140.4050   76.3760  222.3290 C   0  0  0  0  0  0  0  0  0  0  0  0
  141.0790   77.5570  222.6630 C   0  0  0  0  0  0  0  0  0  0  0  0
  142.1787   77.5825  222.6561 H   0  0  0  0  0  0  0  0  0  0  0  0
  140.3570   78.7030  223.0050 C   0  0  0  0  0  0  0  0  0  0  0  0
  140.8885   79.6294  223.2681 H   0  0  0  0  0  0  0  0  0  0  0  0
  138.9590   78.6730  223.0130 C   0  0  0  0  0  0  0  0  0  0  0  0
  138.3921   79.5768  223.2809 H   0  0  0  0  0  0  0  0  0  0  0  0
  138.2800   77.4960  222.6810 C   0  0  0  0  0  0  0  0  0  0  0  0
  137.1802   77.4757  222.6884 H   0  0  0  0  0  0  0  0  0  0  0  0
  139.0030   76.3360  222.3370 C   0  0  0  0  0  0  0  0  0  0  0  0
  138.3710   75.1280  221.9990 C   0  0  0  0  0  0  0  0  0  0  0  0
  137.1080   75.0810  221.9840 O   0  0  0  0  0  0  0  0  0  0  0  0
  139.1160   74.0100  221.6880 N   0  0  0  0  0  0  0  0  0  0  0  0
  138.4180   72.7270  221.4240 C   0  0  0  0  0  0  0  0  0  0  0  0
  137.4530   72.9415  220.9415 H   0  0  0  0  0  0  0  0  0  0  0  0
  139.0642   72.1186  220.7741 H   0  0  0  0  0  0  0  0  0  0  0  0
  138.1600   71.9280  222.7160 C   0  0  0  0  0  0  0  0  0  0  0  0
  138.9734   71.1981  222.8412 H   0  0  0  0  0  0  0  0  0  0  0  0
  138.1178   72.6550  223.5405 H   0  0  0  0  0  0  0  0  0  0  0  0
  136.8220   71.1690  222.7170 C   0  0  0  0  0  0  0  0  0  0  0  0
  136.2868   71.3900  223.6522 H   0  0  0  0  0  0  0  0  0  0  0  0
  136.2390   71.4977  221.8440 H   0  0  0  0  0  0  0  0  0  0  0  0
  137.0260   69.7050  222.6140 N   0  0  0  0  0  0  0  0  0  0  0  0
  138.4520   69.3390  222.3930 C   0  0  0  0  0  0  0  0  0  0  0  0
  138.4948   68.5757  221.6021 H   0  0  0  0  0  0  0  0  0  0  0  0
  138.9794   70.2641  222.1172 H   0  0  0  0  0  0  0  0  0  0  0  0
  139.1560   68.7800  223.6450 C   0  0  0  0  0  0  0  0  0  0  0  0
  139.0126   67.6902  223.6859 H   0  0  0  0  0  0  0  0  0  0  0  0
  140.2287   69.0168  223.5883 H   0  0  0  0  0  0  0  0  0  0  0  0
  138.5970   69.3870  224.8560 N   0  0  0  0  0  0  0  0  0  0  0  0
  139.4340   70.0740  225.8060 C   0  0  0  0  0  0  0  0  0  0  0  0
  139.4880   69.6500  227.1470 C   0  0  0  0  0  0  0  0  0  0  0  0
  138.8945   68.7821  227.4703 H   0  0  0  0  0  0  0  0  0  0  0  0
  140.2910   70.3250  228.0700 C   0  0  0  0  0  0  0  0  0  0  0  0
  140.3318   69.9840  229.1150 H   0  0  0  0  0  0  0  0  0  0  0  0
  141.0420   71.4320  227.6680 C   0  0  0  0  0  0  0  0  0  0  0  0
  141.6769   71.9592  228.3953 H   0  0  0  0  0  0  0  0  0  0  0  0
  140.9870   71.8700  226.3420 C   0  0  0  0  0  0  0  0  0  0  0  0
  141.5746   72.7451  226.0275 H   0  0  0  0  0  0  0  0  0  0  0  0
  140.1860   71.1970  225.4150 C   0  0  0  0  0  0  0  0  0  0  0  0
  140.1433   71.5476  224.3732 H   0  0  0  0  0  0  0  0  0  0  0  0
  137.1480   69.3030  225.0730 C   0  0  0  0  0  0  0  0  0  0  0  0
  136.9376   68.5079  225.8035 H   0  0  0  0  0  0  0  0  0  0  0  0
  136.7898   70.2721  225.4505 H   0  0  0  0  0  0  0  0  0  0  0  0
  136.4200   68.9850  223.7570 C   0  0  0  0  0  0  0  0  0  0  0  0
  136.4779   67.9027  223.5690 H   0  0  0  0  0  0  0  0  0  0  0  0
  135.3736   69.3101  223.8541 H   0  0  0  0  0  0  0  0  0  0  0  0
  143.5580   73.1070  220.1030 C   0  0  0  0  0  0  0  0  0  0  0  0
  144.4010   72.2320  219.3890 C   0  0  0  0  0  0  0  0  0  0  0  0
  143.9683   71.3956  218.8205 H   0  0  0  0  0  0  0  0  0  0  0  0
  145.7490   72.4190  219.4010 N   0  0  0  0  0  0  0  0  0  0  0  0
  146.3250   73.4360  220.0940 C   0  0  0  0  0  0  0  0  0  0  0  0
  147.4173   73.5643  220.0751 H   0  0  0  0  0  0  0  0  0  0  0  0
  145.5330   74.3170  220.8290 C   0  0  0  0  0  0  0  0  0  0  0  0
  145.9954   75.1382  221.3963 H   0  0  0  0  0  0  0  0  0  0  0  0
  144.1480   74.1470  220.8380 C   0  0  0  0  0  0  0  0  0  0  0  0
  143.5160   74.8309  221.4236 H   0  0  0  0  0  0  0  0  0  0  0  0
  1  2  1  0
  2  3  2  0
  3  4  1  0
  3  5  1  0
  5  6  2  0
  6  7  1  0
  7  8  2  0
  8  9  1  0
  8 10  1  0
 10 11  1  0
 10 12  2  0
 12 13  1  0
 12 14  1  0
 14 15  1  0
 14 16  2  0
 16 17  1  0
 17 18  2  0
 17 19  1  0
 19 20  1  0
 20 21  1  0
 20 22  1  0
 20 23  1  0
 23 24  1  0
 23 25  1  0
 23 26  1  0
 26 27  1  0
 26 28  1  0
 26 29  1  0
 29 30  1  0
 30 31  1  0
 30 32  1  0
 30 33  1  0
 33 34  1  0
 33 35  1  0
 33 36  1  0
 36 37  1  0
 37 38  2  0
 38 39  1  0
 38 40  1  0
 40 41  1  0
 40 42  2  0
 42 43  1  0
 42 44  1  0
 44 45  1  0
 44 46  2  0
 46 47  1  0
 36 48  1  0
 48 49  1  0
 48 50  1  0
 48 51  1  0
 51 52  1  0
 51 53  1  0
  2 54  1  0
 54 55  2  0
 55 56  1  0
 55 57  1  0
 57 58  2  0
 58 59  1  0
 58 60  1  0
 60 61  1  0
 60 62  2  0
 62 63  1  0
 19  5  1  0
 51 29  1  0
 62 54  1  0
 16  7  1  0
 46 37  1  0
M  END
>  <UniqueID>  (54) 
606

>  <SMILES>  (54) 
O=c1c2ccccc2nc(/C=C/c2cccnc2)n1CCCN1CCN(c2ccccc2)CC1

>  <Energy>  (54) 
91.13176627644881

>  <Genealogy>  (54) 
O=c1c2ccccc2nc(/C=C/c2cccnc2)n1CCCN1CCN(c2ccccc2)CC1 (cis-trans isomerization)
O=c1c2ccccc2nc(/C=C/c2cccnc2)n1CCCN1CCN(c2ccccc2)CC1 (3D coordinates assigned)
O=c1c2ccccc2nc(/C=C/c2cccnc2)n1CCCN1CCN(c2ccccc2)CC1 (nonaromatic ring conformer: 91.13176627644881 kcal/mol)

>  <smiles>  (54) 
O=c1c2ccccc2nc(/C=C/c2cccnc2)n1CCCN1CCN(c2ccccc2)CC1

>  <score_type>  (54) 
oracle

>  <origin>  (54) 
autodockgpu

>  <m_score__min__energy>  (54) 
-9.1400000000000006

>  <m_primary>  (54) 
energy

>  <meeko>  (54) 
{"free_energy": -8.67, "intermolecular_energy": -11.06, "internal_energy": -1.72, "cluster_size": 10, "cluster_id": 1, "rank_in_cluster": 6}

>  <energy>  (54) 
-8.41

>  <cluster_rmsd>  (54) 
0.29

>  <rmsd>  (54) 
269.77

>  <cluster>  (54) 
3

$$$$
IETZWVUTNAYKDK-BUHFOSPRNA-N
     RDKit          3D

 63 67  0  0  0  0  0  0  0  0999 V2000
  140.2925   77.8546  219.6891 H   0  0  0  0  0  0  0  0  0  0  0  0
  140.5260   77.3830  220.6550 C   0  0  0  0  0  0  0  0  0  0  0  0
  140.1990   76.0920  220.8280 C   0  0  0  0  0  0  0  0  0  0  0  0
  139.1458   75.8300  221.0075 H   0  0  0  0  0  0  0  0  0  0  0  0
  141.2160   75.0010  220.7850 C   0  0  0  0  0  0  0  0  0  0  0  0
  142.5210   75.3580  220.6410 N   0  0  0  0  0  0  0  0  0  0  0  0
  143.5200   74.4490  220.6160 C   0  0  0  0  0  0  0  0  0  0  0  0
  144.8470   74.8700  220.4580 C   0  0  0  0  0  0  0  0  0  0  0  0
  145.0746   75.9404  220.3465 H   0  0  0  0  0  0  0  0  0  0  0  0
  145.8810   73.9310  220.4420 C   0  0  0  0  0  0  0  0  0  0  0  0
  146.9221   74.2628  220.3158 H   0  0  0  0  0  0  0  0  0  0  0  0
  145.5950   72.5710  220.5860 C   0  0  0  0  0  0  0  0  0  0  0  0
  146.4117   71.8342  220.5752 H   0  0  0  0  0  0  0  0  0  0  0  0
  144.2710   72.1440  220.7440 C   0  0  0  0  0  0  0  0  0  0  0  0
  144.0487   71.0725  220.8557 H   0  0  0  0  0  0  0  0  0  0  0  0
  143.2230   73.0860  220.7600 C   0  0  0  0  0  0  0  0  0  0  0  0
  141.8780   72.7120  220.9120 C   0  0  0  0  0  0  0  0  0  0  0  0
  141.5960   71.4890  221.0600 O   0  0  0  0  0  0  0  0  0  0  0  0
  140.8790   73.6630  220.9000 N   0  0  0  0  0  0  0  0  0  0  0  0
  139.4630   73.2260  220.9730 C   0  0  0  0  0  0  0  0  0  0  0  0
  138.8146   74.0870  220.7532 H   0  0  0  0  0  0  0  0  0  0  0  0
  139.3197   72.4197  220.2386 H   0  0  0  0  0  0  0  0  0  0  0  0
  139.0970   72.6710  222.3630 C   0  0  0  0  0  0  0  0  0  0  0  0
  139.8246   71.8897  222.6279 H   0  0  0  0  0  0  0  0  0  0  0  0
  139.1183   73.5185  223.0640 H   0  0  0  0  0  0  0  0  0  0  0  0
  137.6850   72.0640  222.4330 C   0  0  0  0  0  0  0  0  0  0  0  0
  137.2623   72.2567  223.4301 H   0  0  0  0  0  0  0  0  0  0  0  0
  137.0700   72.5307  221.6495 H   0  0  0  0  0  0  0  0  0  0  0  0
  137.7090   70.6020  222.1950 N   0  0  0  0  0  0  0  0  0  0  0  0
  139.0920   70.0530  222.1370 C   0  0  0  0  0  0  0  0  0  0  0  0
  139.1566   69.3683  221.2785 H   0  0  0  0  0  0  0  0  0  0  0  0
  139.7720   70.9128  222.0454 H   0  0  0  0  0  0  0  0  0  0  0  0
  139.5150   69.2830  223.4040 C   0  0  0  0  0  0  0  0  0  0  0  0
  139.2258   68.2268  223.3006 H   0  0  0  0  0  0  0  0  0  0  0  0
  140.6052   69.3641  223.5256 H   0  0  0  0  0  0  0  0  0  0  0  0
  138.8590   69.8510  224.5850 N   0  0  0  0  0  0  0  0  0  0  0  0
  139.6220   70.3180  225.7140 C   0  0  0  0  0  0  0  0  0  0  0  0
  139.5470   69.6500  226.9500 C   0  0  0  0  0  0  0  0  0  0  0  0
  138.9089   68.7599  227.0526 H   0  0  0  0  0  0  0  0  0  0  0  0
  140.2790   70.1110  228.0490 C   0  0  0  0  0  0  0  0  0  0  0  0
  140.2193   69.5801  229.0106 H   0  0  0  0  0  0  0  0  0  0  0  0
  141.0860   71.2450  227.9270 C   0  0  0  0  0  0  0  0  0  0  0  0
  141.6634   71.6044  228.7915 H   0  0  0  0  0  0  0  0  0  0  0  0
  141.1600   71.9230  226.7070 C   0  0  0  0  0  0  0  0  0  0  0  0
  141.7927   72.8179  226.6128 H   0  0  0  0  0  0  0  0  0  0  0  0
  140.4300   71.4640  225.6060 C   0  0  0  0  0  0  0  0  0  0  0  0
  140.4882   72.0031  224.6489 H   0  0  0  0  0  0  0  0  0  0  0  0
  137.3960   69.9610  224.5860 C   0  0  0  0  0  0  0  0  0  0  0  0
  136.9725   69.1420  225.1859 H   0  0  0  0  0  0  0  0  0  0  0  0
  137.1143   70.9335  225.0160 H   0  0  0  0  0  0  0  0  0  0  0  0
  136.8450   69.8750  223.1540 C   0  0  0  0  0  0  0  0  0  0  0  0
  136.7900   68.8178  222.8551 H   0  0  0  0  0  0  0  0  0  0  0  0
  135.8475   70.3385  223.1397 H   0  0  0  0  0  0  0  0  0  0  0  0
  141.1850   78.2060  221.6970 C   0  0  0  0  0  0  0  0  0  0  0  0
  141.1640   77.8660  223.0640 C   0  0  0  0  0  0  0  0  0  0  0  0
  140.6534   76.9488  223.3928 H   0  0  0  0  0  0  0  0  0  0  0  0
  141.7730   78.6680  223.9790 N   0  0  0  0  0  0  0  0  0  0  0  0
  142.4120   79.8110  223.6170 C   0  0  0  0  0  0  0  0  0  0  0  0
  142.9036   80.4314  224.3808 H   0  0  0  0  0  0  0  0  0  0  0  0
  142.4450   80.1980  222.2780 C   0  0  0  0  0  0  0  0  0  0  0  0
  142.9551   81.1262  221.9809 H   0  0  0  0  0  0  0  0  0  0  0  0
  141.8250   79.3970  221.3180 C   0  0  0  0  0  0  0  0  0  0  0  0
  141.8377   79.6998  220.2606 H   0  0  0  0  0  0  0  0  0  0  0  0
  1  2  1  0
  2  3  2  0
  3  4  1  0
  3  5  1  0
  5  6  2  0
  6  7  1  0
  7  8  2  0
  8  9  1  0
  8 10  1  0
 10 11  1  0
 10 12  2  0
 12 13  1  0
 12 14  1  0
 14 15  1  0
 14 16  2  0
 16 17  1  0
 17 18  2  0
 17 19  1  0
 19 20  1  0
 20 21  1  0
 20 22  1  0
 20 23  1  0
 23 24  1  0
 23 25  1  0
 23 26  1  0
 26 27  1  0
 26 28  1  0
 26 29  1  0
 29 30  1  0
 30 31  1  0
 30 32  1  0
 30 33  1  0
 33 34  1  0
 33 35  1  0
 33 36  1  0
 36 37  1  0
 37 38  2  0
 38 39  1  0
 38 40  1  0
 40 41  1  0
 40 42  2  0
 42 43  1  0
 42 44  1  0
 44 45  1  0
 44 46  2  0
 46 47  1  0
 36 48  1  0
 48 49  1  0
 48 50  1  0
 48 51  1  0
 51 52  1  0
 51 53  1  0
  2 54  1  0
 54 55  2  0
 55 56  1  0
 55 57  1  0
 57 58  2  0
 58 59  1  0
 58 60  1  0
 60 61  1  0
 60 62  2  0
 62 63  1  0
 19  5  1  0
 51 29  1  0
 62 54  1  0
 16  7  1  0
 46 37  1  0
M  END
>  <UniqueID>  (55) 
606

>  <SMILES>  (55) 
O=c1c2ccccc2nc(/C=C/c2cccnc2)n1CCCN1CCN(c2ccccc2)CC1

>  <Energy>  (55) 
91.13176627644881

>  <Genealogy>  (55) 
O=c1c2ccccc2nc(/C=C/c2cccnc2)n1CCCN1CCN(c2ccccc2)CC1 (cis-trans isomerization)
O=c1c2ccccc2nc(/C=C/c2cccnc2)n1CCCN1CCN(c2ccccc2)CC1 (3D coordinates assigned)
O=c1c2ccccc2nc(/C=C/c2cccnc2)n1CCCN1CCN(c2ccccc2)CC1 (nonaromatic ring conformer: 91.13176627644881 kcal/mol)

>  <smiles>  (55) 
O=c1c2ccccc2nc(/C=C/c2cccnc2)n1CCCN1CCN(c2ccccc2)CC1

>  <score_type>  (55) 
oracle

>  <origin>  (55) 
autodockgpu

>  <m_score__min__energy>  (55) 
-9.1400000000000006

>  <m_primary>  (55) 
energy

>  <meeko>  (55) 
{"free_energy": -8.5, "intermolecular_energy": -10.88, "internal_energy": -1.75, "cluster_size": 10, "cluster_id": 1, "rank_in_cluster": 8}

>  <energy>  (55) 
-8.36

>  <cluster_rmsd>  (55) 
0.62

>  <rmsd>  (55) 
269.7

>  <cluster>  (55) 
3

$$$$
IETZWVUTNAYKDK-BUHFOSPRNA-N
     RDKit          3D

 63 67  0  0  0  0  0  0  0  0999 V2000
  143.7482   76.4698  218.5627 H   0  0  0  0  0  0  0  0  0  0  0  0
  143.3320   75.6030  219.0970 C   0  0  0  0  0  0  0  0  0  0  0  0
  142.0260   75.6160  219.4090 C   0  0  0  0  0  0  0  0  0  0  0  0
  141.3370   74.9755  218.8389 H   0  0  0  0  0  0  0  0  0  0  0  0
  141.4780   76.4700  220.5030 C   0  0  0  0  0  0  0  0  0  0  0  0
  142.1810   77.5820  220.8510 N   0  0  0  0  0  0  0  0  0  0  0  0
  141.7580   78.4340  221.8100 C   0  0  0  0  0  0  0  0  0  0  0  0
  142.5240   79.5610  222.1340 C   0  0  0  0  0  0  0  0  0  0  0  0
  143.4742   79.7483  221.6124 H   0  0  0  0  0  0  0  0  0  0  0  0
  142.0820   80.4470  223.1190 C   0  0  0  0  0  0  0  0  0  0  0  0
  142.6853   81.3309  223.3734 H   0  0  0  0  0  0  0  0  0  0  0  0
  140.8740   80.2120  223.7820 C   0  0  0  0  0  0  0  0  0  0  0  0
  140.5275   80.9124  224.5561 H   0  0  0  0  0  0  0  0  0  0  0  0
  140.1050   79.0880  223.4630 C   0  0  0  0  0  0  0  0  0  0  0  0
  139.1553   78.9055  223.9873 H   0  0  0  0  0  0  0  0  0  0  0  0
  140.5450   78.1890  222.4710 C   0  0  0  0  0  0  0  0  0  0  0  0
  139.8140   77.0440  222.1140 C   0  0  0  0  0  0  0  0  0  0  0  0
  138.7100   76.8200  222.6880 O   0  0  0  0  0  0  0  0  0  0  0  0
  140.2910   76.1780  221.1520 N   0  0  0  0  0  0  0  0  0  0  0  0
  139.5380   74.9320  220.8640 C   0  0  0  0  0  0  0  0  0  0  0  0
  138.5186   75.1989  220.5484 H   0  0  0  0  0  0  0  0  0  0  0  0
  140.0730   74.3894  220.0707 H   0  0  0  0  0  0  0  0  0  0  0  0
  139.4510   74.0080  222.0940 C   0  0  0  0  0  0  0  0  0  0  0  0
  139.8771   74.5387  222.9582 H   0  0  0  0  0  0  0  0  0  0  0  0
  138.3887   73.7605  222.2364 H   0  0  0  0  0  0  0  0  0  0  0  0
  140.2040   72.6780  221.9210 C   0  0  0  0  0  0  0  0  0  0  0  0
  140.9405   72.7876  221.1113 H   0  0  0  0  0  0  0  0  0  0  0  0
  140.6993   72.4371  222.8732 H   0  0  0  0  0  0  0  0  0  0  0  0
  139.2820   71.5680  221.5850 N   0  0  0  0  0  0  0  0  0  0  0  0
  139.9060   70.2290  221.7680 C   0  0  0  0  0  0  0  0  0  0  0  0
  139.6605   69.6103  220.8923 H   0  0  0  0  0  0  0  0  0  0  0  0
  140.9878   70.3943  221.8797 H   0  0  0  0  0  0  0  0  0  0  0  0
  139.4350   69.4860  223.0340 C   0  0  0  0  0  0  0  0  0  0  0  0
  138.5373   68.8965  222.7961 H   0  0  0  0  0  0  0  0  0  0  0  0
  140.2406   68.8218  223.3801 H   0  0  0  0  0  0  0  0  0  0  0  0
  139.1170   70.4440  224.0960 N   0  0  0  0  0  0  0  0  0  0  0  0
  139.7500   70.3680  225.3880 C   0  0  0  0  0  0  0  0  0  0  0  0
  140.4300   71.4820  225.9150 C   0  0  0  0  0  0  0  0  0  0  0  0
  140.4708   72.4197  225.3414 H   0  0  0  0  0  0  0  0  0  0  0  0
  141.0540   71.4030  227.1640 C   0  0  0  0  0  0  0  0  0  0  0  0
  141.5792   72.2791  227.5723 H   0  0  0  0  0  0  0  0  0  0  0  0
  141.0110   70.2120  227.8940 C   0  0  0  0  0  0  0  0  0  0  0  0
  141.4998   70.1526  228.8776 H   0  0  0  0  0  0  0  0  0  0  0  0
  140.3480   69.0970  227.3760 C   0  0  0  0  0  0  0  0  0  0  0  0
  140.3184   68.1593  227.9503 H   0  0  0  0  0  0  0  0  0  0  0  0
  139.7220   69.1720  226.1280 C   0  0  0  0  0  0  0  0  0  0  0  0
  139.2044   68.2902  225.7223 H   0  0  0  0  0  0  0  0  0  0  0  0
  138.1510   71.5100  223.8080 C   0  0  0  0  0  0  0  0  0  0  0  0
  137.1779   71.2438  224.2463 H   0  0  0  0  0  0  0  0  0  0  0  0
  138.5208   72.4501  224.2434 H   0  0  0  0  0  0  0  0  0  0  0  0
  137.9870   71.6980  222.2910 C   0  0  0  0  0  0  0  0  0  0  0  0
  137.2935   70.9344  221.9091 H   0  0  0  0  0  0  0  0  0  0  0  0
  137.5947   72.7094  222.1090 H   0  0  0  0  0  0  0  0  0  0  0  0
  144.2430   74.4830  219.4340 C   0  0  0  0  0  0  0  0  0  0  0  0
  144.8460   73.6700  218.4530 C   0  0  0  0  0  0  0  0  0  0  0  0
  144.6556   73.8639  217.3871 H   0  0  0  0  0  0  0  0  0  0  0  0
  145.6630   72.6460  218.8210 N   0  0  0  0  0  0  0  0  0  0  0  0
  145.9200   72.3670  220.1260 C   0  0  0  0  0  0  0  0  0  0  0  0
  146.5920   71.5367  220.3888 H   0  0  0  0  0  0  0  0  0  0  0  0
  145.3320   73.1330  221.1320 C   0  0  0  0  0  0  0  0  0  0  0  0
  145.5322   72.9079  222.1899 H   0  0  0  0  0  0  0  0  0  0  0  0
  144.4870   74.1880  220.7840 C   0  0  0  0  0  0  0  0  0  0  0  0
  144.0104   74.7906  221.5712 H   0  0  0  0  0  0  0  0  0  0  0  0
  1  2  1  0
  2  3  2  0
  3  4  1  0
  3  5  1  0
  5  6  2  0
  6  7  1  0
  7  8  2  0
  8  9  1  0
  8 10  1  0
 10 11  1  0
 10 12  2  0
 12 13  1  0
 12 14  1  0
 14 15  1  0
 14 16  2  0
 16 17  1  0
 17 18  2  0
 17 19  1  0
 19 20  1  0
 20 21  1  0
 20 22  1  0
 20 23  1  0
 23 24  1  0
 23 25  1  0
 23 26  1  0
 26 27  1  0
 26 28  1  0
 26 29  1  0
 29 30  1  0
 30 31  1  0
 30 32  1  0
 30 33  1  0
 33 34  1  0
 33 35  1  0
 33 36  1  0
 36 37  1  0
 37 38  2  0
 38 39  1  0
 38 40  1  0
 40 41  1  0
 40 42  2  0
 42 43  1  0
 42 44  1  0
 44 45  1  0
 44 46  2  0
 46 47  1  0
 36 48  1  0
 48 49  1  0
 48 50  1  0
 48 51  1  0
 51 52  1  0
 51 53  1  0
  2 54  1  0
 54 55  2  0
 55 56  1  0
 55 57  1  0
 57 58  2  0
 58 59  1  0
 58 60  1  0
 60 61  1  0
 60 62  2  0
 62 63  1  0
 19  5  1  0
 51 29  1  0
 62 54  1  0
 16  7  1  0
 46 37  1  0
M  END
>  <UniqueID>  (56) 
606

>  <SMILES>  (56) 
O=c1c2ccccc2nc(/C=C/c2cccnc2)n1CCCN1CCN(c2ccccc2)CC1

>  <Energy>  (56) 
91.13176627644881

>  <Genealogy>  (56) 
O=c1c2ccccc2nc(/C=C/c2cccnc2)n1CCCN1CCN(c2ccccc2)CC1 (cis-trans isomerization)
O=c1c2ccccc2nc(/C=C/c2cccnc2)n1CCCN1CCN(c2ccccc2)CC1 (3D coordinates assigned)
O=c1c2ccccc2nc(/C=C/c2cccnc2)n1CCCN1CCN(c2ccccc2)CC1 (nonaromatic ring conformer: 91.13176627644881 kcal/mol)

>  <smiles>  (56) 
O=c1c2ccccc2nc(/C=C/c2cccnc2)n1CCCN1CCN(c2ccccc2)CC1

>  <score_type>  (56) 
oracle

>  <origin>  (56) 
autodockgpu

>  <m_score__min__energy>  (56) 
-9.1400000000000006

>  <m_primary>  (56) 
energy

>  <meeko>  (56) 
{"free_energy": -9.11, "intermolecular_energy": -11.49, "internal_energy": -1.45, "cluster_size": 10, "cluster_id": 1, "rank_in_cluster": 2}

>  <energy>  (56) 
-8.2

>  <cluster_rmsd>  (56) 
0.0

>  <rmsd>  (56) 
270.56

>  <cluster>  (56) 
4

$$$$
IETZWVUTNAYKDK-BUHFOSPRNA-N
     RDKit          3D

 63 67  0  0  0  0  0  0  0  0999 V2000
  137.7927   71.8108  221.4066 H   0  0  0  0  0  0  0  0  0  0  0  0
  138.8510   71.7120  221.6900 C   0  0  0  0  0  0  0  0  0  0  0  0
  139.3040   70.4980  222.0430 C   0  0  0  0  0  0  0  0  0  0  0  0
  139.5147   69.7597  221.2553 H   0  0  0  0  0  0  0  0  0  0  0  0
  139.5310   70.1170  223.4670 C   0  0  0  0  0  0  0  0  0  0  0  0
  140.0690   71.0530  224.2950 N   0  0  0  0  0  0  0  0  0  0  0  0
  140.2910   70.8170  225.6060 C   0  0  0  0  0  0  0  0  0  0  0  0
  140.8540   71.8140  226.4130 C   0  0  0  0  0  0  0  0  0  0  0  0
  141.1230   72.7874  225.9769 H   0  0  0  0  0  0  0  0  0  0  0  0
  141.0740   71.5730  227.7710 C   0  0  0  0  0  0  0  0  0  0  0  0
  141.5170   72.3567  228.4032 H   0  0  0  0  0  0  0  0  0  0  0  0
  140.7320   70.3370  228.3280 C   0  0  0  0  0  0  0  0  0  0  0  0
  140.9059   70.1499  229.3979 H   0  0  0  0  0  0  0  0  0  0  0  0
  140.1690   69.3380  227.5270 C   0  0  0  0  0  0  0  0  0  0  0  0
  139.9006   68.3667  227.9681 H   0  0  0  0  0  0  0  0  0  0  0  0
  139.9450   69.5740  226.1550 C   0  0  0  0  0  0  0  0  0  0  0  0
  139.3870   68.6050  225.3070 C   0  0  0  0  0  0  0  0  0  0  0  0
  139.0540   67.4850  225.7910 O   0  0  0  0  0  0  0  0  0  0  0  0
  139.2040   68.8680  223.9650 N   0  0  0  0  0  0  0  0  0  0  0  0
  138.6950   67.7910  223.0800 C   0  0  0  0  0  0  0  0  0  0  0  0
  139.4007   67.6533  222.2475 H   0  0  0  0  0  0  0  0  0  0  0  0
  138.6024   66.8747  223.6816 H   0  0  0  0  0  0  0  0  0  0  0  0
  137.3050   68.1210  222.5030 C   0  0  0  0  0  0  0  0  0  0  0  0
  137.4307   68.4532  221.4619 H   0  0  0  0  0  0  0  0  0  0  0  0
  136.6986   67.2065  222.5806 H   0  0  0  0  0  0  0  0  0  0  0  0
  136.5610   69.2220  223.2780 C   0  0  0  0  0  0  0  0  0  0  0  0
  137.2169   69.6031  224.0746 H   0  0  0  0  0  0  0  0  0  0  0  0
  136.2963   70.0215  222.5704 H   0  0  0  0  0  0  0  0  0  0  0  0
  135.3110   68.7110  223.8880 N   0  0  0  0  0  0  0  0  0  0  0  0
  135.2190   69.0120  225.3430 C   0  0  0  0  0  0  0  0  0  0  0  0
  134.8779   68.1046  225.8629 H   0  0  0  0  0  0  0  0  0  0  0  0
  136.2203   69.3340  225.6651 H   0  0  0  0  0  0  0  0  0  0  0  0
  134.2500   70.1600  225.6860 C   0  0  0  0  0  0  0  0  0  0  0  0
  133.2400   69.7504  225.8345 H   0  0  0  0  0  0  0  0  0  0  0  0
  134.5938   70.6563  226.6055 H   0  0  0  0  0  0  0  0  0  0  0  0
  134.2190   71.1410  224.5970 N   0  0  0  0  0  0  0  0  0  0  0  0
  134.5120   72.5310  224.8320 C   0  0  0  0  0  0  0  0  0  0  0  0
  133.8650   73.2310  225.8670 C   0  0  0  0  0  0  0  0  0  0  0  0
  133.1379   72.7102  226.5074 H   0  0  0  0  0  0  0  0  0  0  0  0
  134.1400   74.5840  226.0870 C   0  0  0  0  0  0  0  0  0  0  0  0
  133.6342   75.1222  226.9022 H   0  0  0  0  0  0  0  0  0  0  0  0
  135.0570   75.2530  225.2720 C   0  0  0  0  0  0  0  0  0  0  0  0
  135.2750   76.3167  225.4481 H   0  0  0  0  0  0  0  0  0  0  0  0
  135.6970   74.5720  224.2340 C   0  0  0  0  0  0  0  0  0  0  0  0
  136.4158   75.1010  223.5910 H   0  0  0  0  0  0  0  0  0  0  0  0
  135.4250   73.2180  224.0110 C   0  0  0  0  0  0  0  0  0  0  0  0
  135.9278   72.6874  223.1890 H   0  0  0  0  0  0  0  0  0  0  0  0
  133.9070   70.6700  223.2430 C   0  0  0  0  0  0  0  0  0  0  0  0
  132.8589   70.9090  223.0099 H   0  0  0  0  0  0  0  0  0  0  0  0
  134.5796   71.1700  222.5305 H   0  0  0  0  0  0  0  0  0  0  0  0
  134.1140   69.1510  223.1360 C   0  0  0  0  0  0  0  0  0  0  0  0
  133.2288   68.6403  223.5430 H   0  0  0  0  0  0  0  0  0  0  0  0
  134.2605   68.8970  222.0758 H   0  0  0  0  0  0  0  0  0  0  0  0
  139.7020   72.9270  221.6620 C   0  0  0  0  0  0  0  0  0  0  0  0
  139.2230   74.2010  222.0260 C   0  0  0  0  0  0  0  0  0  0  0  0
  138.1814   74.3207  222.3589 H   0  0  0  0  0  0  0  0  0  0  0  0
  140.0450   75.2840  221.9670 N   0  0  0  0  0  0  0  0  0  0  0  0
  141.3360   75.1820  221.5570 C   0  0  0  0  0  0  0  0  0  0  0  0
  141.9763   76.0760  221.5296 H   0  0  0  0  0  0  0  0  0  0  0  0
  141.8500   73.9450  221.1710 C   0  0  0  0  0  0  0  0  0  0  0  0
  142.8930   73.8586  220.8325 H   0  0  0  0  0  0  0  0  0  0  0  0
  141.0290   72.8170  221.2180 C   0  0  0  0  0  0  0  0  0  0  0  0
  141.4233   71.8386  220.9060 H   0  0  0  0  0  0  0  0  0  0  0  0
  1  2  1  0
  2  3  2  0
  3  4  1  0
  3  5  1  0
  5  6  2  0
  6  7  1  0
  7  8  2  0
  8  9  1  0
  8 10  1  0
 10 11  1  0
 10 12  2  0
 12 13  1  0
 12 14  1  0
 14 15  1  0
 14 16  2  0
 16 17  1  0
 17 18  2  0
 17 19  1  0
 19 20  1  0
 20 21  1  0
 20 22  1  0
 20 23  1  0
 23 24  1  0
 23 25  1  0
 23 26  1  0
 26 27  1  0
 26 28  1  0
 26 29  1  0
 29 30  1  0
 30 31  1  0
 30 32  1  0
 30 33  1  0
 33 34  1  0
 33 35  1  0
 33 36  1  0
 36 37  1  0
 37 38  2  0
 38 39  1  0
 38 40  1  0
 40 41  1  0
 40 42  2  0
 42 43  1  0
 42 44  1  0
 44 45  1  0
 44 46  2  0
 46 47  1  0
 36 48  1  0
 48 49  1  0
 48 50  1  0
 48 51  1  0
 51 52  1  0
 51 53  1  0
  2 54  1  0
 54 55  2  0
 55 56  1  0
 55 57  1  0
 57 58  2  0
 58 59  1  0
 58 60  1  0
 60 61  1  0
 60 62  2  0
 62 63  1  0
 19  5  1  0
 51 29  1  0
 62 54  1  0
 16  7  1  0
 46 37  1  0
M  END
>  <UniqueID>  (57) 
606

>  <SMILES>  (57) 
O=c1c2ccccc2nc(/C=C/c2cccnc2)n1CCCN1CCN(c2ccccc2)CC1

>  <Energy>  (57) 
91.13176627644881

>  <Genealogy>  (57) 
O=c1c2ccccc2nc(/C=C/c2cccnc2)n1CCCN1CCN(c2ccccc2)CC1 (cis-trans isomerization)
O=c1c2ccccc2nc(/C=C/c2cccnc2)n1CCCN1CCN(c2ccccc2)CC1 (3D coordinates assigned)
O=c1c2ccccc2nc(/C=C/c2cccnc2)n1CCCN1CCN(c2ccccc2)CC1 (nonaromatic ring conformer: 91.13176627644881 kcal/mol)

>  <smiles>  (57) 
O=c1c2ccccc2nc(/C=C/c2cccnc2)n1CCCN1CCN(c2ccccc2)CC1

>  <score_type>  (57) 
oracle

>  <origin>  (57) 
autodockgpu

>  <m_score__min__energy>  (57) 
-9.1400000000000006

>  <m_primary>  (57) 
energy

>  <meeko>  (57) 
{"free_energy": -8.36, "intermolecular_energy": -10.74, "internal_energy": -2.09, "cluster_size": 3, "cluster_id": 3, "rank_in_cluster": 3}

>  <energy>  (57) 
-8.11

>  <cluster_rmsd>  (57) 
0.0

>  <rmsd>  (57) 
269.89

>  <cluster>  (57) 
5

$$$$
IETZWVUTNAYKDK-BUHFOSPRNA-N
     RDKit          3D

 63 67  0  0  0  0  0  0  0  0999 V2000
  143.8652   75.9566  217.5727 H   0  0  0  0  0  0  0  0  0  0  0  0
  143.4450   75.3400  218.3810 C   0  0  0  0  0  0  0  0  0  0  0  0
  142.1410   75.4760  218.6710 C   0  0  0  0  0  0  0  0  0  0  0  0
  141.3957   75.0679  217.9724 H   0  0  0  0  0  0  0  0  0  0  0  0
  141.6690   76.1620  219.9090 C   0  0  0  0  0  0  0  0  0  0  0  0
  142.0950   77.4350  220.1280 N   0  0  0  0  0  0  0  0  0  0  0  0
  141.7050   78.1530  221.2040 C   0  0  0  0  0  0  0  0  0  0  0  0
  142.1790   79.4580  221.3860 C   0  0  0  0  0  0  0  0  0  0  0  0
  142.8750   79.8964  220.6557 H   0  0  0  0  0  0  0  0  0  0  0  0
  141.7690   80.2040  222.4940 C   0  0  0  0  0  0  0  0  0  0  0  0
  142.1439   81.2283  222.6360 H   0  0  0  0  0  0  0  0  0  0  0  0
  140.8830   79.6500  223.4220 C   0  0  0  0  0  0  0  0  0  0  0  0
  140.5599   80.2399  224.2924 H   0  0  0  0  0  0  0  0  0  0  0  0
  140.4060   78.3460  223.2460 C   0  0  0  0  0  0  0  0  0  0  0  0
  139.7096   77.9122  223.9787 H   0  0  0  0  0  0  0  0  0  0  0  0
  140.8170   77.5880  222.1310 C   0  0  0  0  0  0  0  0  0  0  0  0
  140.3720   76.2750  221.9080 C   0  0  0  0  0  0  0  0  0  0  0  0
  139.5570   75.7580  222.7250 O   0  0  0  0  0  0  0  0  0  0  0  0
  140.8140   75.5590  220.8160 N   0  0  0  0  0  0  0  0  0  0  0  0
  140.3940   74.1450  220.6600 C   0  0  0  0  0  0  0  0  0  0  0  0
  139.3250   74.0637  220.9061 H   0  0  0  0  0  0  0  0  0  0  0  0
  140.5886   73.8475  219.6190 H   0  0  0  0  0  0  0  0  0  0  0  0
  141.1890   73.1970  221.5800 C   0  0  0  0  0  0  0  0  0  0  0  0
  141.6463   72.4126  220.9591 H   0  0  0  0  0  0  0  0  0  0  0  0
  141.9396   73.8088  222.1019 H   0  0  0  0  0  0  0  0  0  0  0  0
  140.3280   72.5210  222.6610 C   0  0  0  0  0  0  0  0  0  0  0  0
  140.9787   71.9149  223.3085 H   0  0  0  0  0  0  0  0  0  0  0  0
  139.8215   73.3076  223.2396 H   0  0  0  0  0  0  0  0  0  0  0  0
  139.2930   71.6450  222.0640 N   0  0  0  0  0  0  0  0  0  0  0  0
  139.7610   70.2430  221.8870 C   0  0  0  0  0  0  0  0  0  0  0  0
  139.4607   69.9020  220.8852 H   0  0  0  0  0  0  0  0  0  0  0  0
  140.8527   70.2525  222.0216 H   0  0  0  0  0  0  0  0  0  0  0  0
  139.1920   69.2560  222.9260 C   0  0  0  0  0  0  0  0  0  0  0  0
  138.2379   68.8510  222.5576 H   0  0  0  0  0  0  0  0  0  0  0  0
  139.9137   68.4398  223.0776 H   0  0  0  0  0  0  0  0  0  0  0  0
  138.9670   69.9380  224.2040 N   0  0  0  0  0  0  0  0  0  0  0  0
  139.5690   69.4620  225.4230 C   0  0  0  0  0  0  0  0  0  0  0  0
  140.1600   70.3660  226.3260 C   0  0  0  0  0  0  0  0  0  0  0  0
  140.1544   71.4434  226.1044 H   0  0  0  0  0  0  0  0  0  0  0  0
  140.7540   69.9010  227.5030 C   0  0  0  0  0  0  0  0  0  0  0  0
  141.2096   70.6133  228.2066 H   0  0  0  0  0  0  0  0  0  0  0  0
  140.7700   68.5340  227.7870 C   0  0  0  0  0  0  0  0  0  0  0  0
  141.2350   68.1710  228.7155 H   0  0  0  0  0  0  0  0  0  0  0  0
  140.1960   67.6270  226.8930 C   0  0  0  0  0  0  0  0  0  0  0  0
  140.2129   66.5500  227.1161 H   0  0  0  0  0  0  0  0  0  0  0  0
  139.6000   68.0870  225.7150 C   0  0  0  0  0  0  0  0  0  0  0  0
  139.1526   67.3687  225.0122 H   0  0  0  0  0  0  0  0  0  0  0  0
  138.1310   71.1430  224.2140 C   0  0  0  0  0  0  0  0  0  0  0  0
  137.1281   70.8837  224.5842 H   0  0  0  0  0  0  0  0  0  0  0  0
  138.5981   71.8921  224.8702 H   0  0  0  0  0  0  0  0  0  0  0  0
  138.0100   71.7320  222.7990 C   0  0  0  0  0  0  0  0  0  0  0  0
  137.2414   71.1741  222.2440 H   0  0  0  0  0  0  0  0  0  0  0  0
  137.7347   72.7932  222.8889 H   0  0  0  0  0  0  0  0  0  0  0  0
  144.3490   74.4040  219.0910 C   0  0  0  0  0  0  0  0  0  0  0  0
  145.0890   73.4060  218.4260 C   0  0  0  0  0  0  0  0  0  0  0  0
  145.0171   73.3067  217.3328 H   0  0  0  0  0  0  0  0  0  0  0  0
  145.8920   72.5650  219.1320 N   0  0  0  0  0  0  0  0  0  0  0  0
  146.0060   72.6480  220.4830 C   0  0  0  0  0  0  0  0  0  0  0  0
  146.6710   71.9571  221.0219 H   0  0  0  0  0  0  0  0  0  0  0  0
  145.2810   73.6080  221.1870 C   0  0  0  0  0  0  0  0  0  0  0  0
  145.3658   73.6757  222.2816 H   0  0  0  0  0  0  0  0  0  0  0  0
  144.4460   74.4830  220.4890 C   0  0  0  0  0  0  0  0  0  0  0  0
  143.8620   75.2371  221.0369 H   0  0  0  0  0  0  0  0  0  0  0  0
  1  2  1  0
  2  3  2  0
  3  4  1  0
  3  5  1  0
  5  6  2  0
  6  7  1  0
  7  8  2  0
  8  9  1  0
  8 10  1  0
 10 11  1  0
 10 12  2  0
 12 13  1  0
 12 14  1  0
 14 15  1  0
 14 16  2  0
 16 17  1  0
 17 18  2  0
 17 19  1  0
 19 20  1  0
 20 21  1  0
 20 22  1  0
 20 23  1  0
 23 24  1  0
 23 25  1  0
 23 26  1  0
 26 27  1  0
 26 28  1  0
 26 29  1  0
 29 30  1  0
 30 31  1  0
 30 32  1  0
 30 33  1  0
 33 34  1  0
 33 35  1  0
 33 36  1  0
 36 37  1  0
 37 38  2  0
 38 39  1  0
 38 40  1  0
 40 41  1  0
 40 42  2  0
 42 43  1  0
 42 44  1  0
 44 45  1  0
 44 46  2  0
 46 47  1  0
 36 48  1  0
 48 49  1  0
 48 50  1  0
 48 51  1  0
 51 52  1  0
 51 53  1  0
  2 54  1  0
 54 55  2  0
 55 56  1  0
 55 57  1  0
 57 58  2  0
 58 59  1  0
 58 60  1  0
 60 61  1  0
 60 62  2  0
 62 63  1  0
 19  5  1  0
 51 29  1  0
 62 54  1  0
 16  7  1  0
 46 37  1  0
M  END
>  <UniqueID>  (58) 
606

>  <SMILES>  (58) 
O=c1c2ccccc2nc(/C=C/c2cccnc2)n1CCCN1CCN(c2ccccc2)CC1

>  <Energy>  (58) 
91.13176627644881

>  <Genealogy>  (58) 
O=c1c2ccccc2nc(/C=C/c2cccnc2)n1CCCN1CCN(c2ccccc2)CC1 (cis-trans isomerization)
O=c1c2ccccc2nc(/C=C/c2cccnc2)n1CCCN1CCN(c2ccccc2)CC1 (3D coordinates assigned)
O=c1c2ccccc2nc(/C=C/c2cccnc2)n1CCCN1CCN(c2ccccc2)CC1 (nonaromatic ring conformer: 91.13176627644881 kcal/mol)

>  <smiles>  (58) 
O=c1c2ccccc2nc(/C=C/c2cccnc2)n1CCCN1CCN(c2ccccc2)CC1

>  <score_type>  (58) 
oracle

>  <origin>  (58) 
autodockgpu

>  <m_score__min__energy>  (58) 
-9.1400000000000006

>  <m_primary>  (58) 
energy

>  <meeko>  (58) 
{"free_energy": -9.14, "intermolecular_energy": -11.53, "internal_energy": -1.66, "cluster_size": 10, "cluster_id": 1, "rank_in_cluster": 1}

>  <energy>  (58) 
-7.42

>  <cluster_rmsd>  (58) 
0.0

>  <rmsd>  (58) 
270.6

>  <cluster>  (58) 
6

$$$$
IETZWVUTNAYKDK-BUHFOSPRNA-N
     RDKit          3D

 63 67  0  0  0  0  0  0  0  0999 V2000
  137.4153   72.2177  221.8868 H   0  0  0  0  0  0  0  0  0  0  0  0
  138.5070   72.2930  221.9990 C   0  0  0  0  0  0  0  0  0  0  0  0
  139.2100   71.1590  222.1550 C   0  0  0  0  0  0  0  0  0  0  0  0
  139.5960   70.6458  221.2619 H   0  0  0  0  0  0  0  0  0  0  0  0
  139.4850   70.5720  223.4990 C   0  0  0  0  0  0  0  0  0  0  0  0
  139.9860   71.3950  224.4590 N   0  0  0  0  0  0  0  0  0  0  0  0
  140.2450   70.9690  225.7140 C   0  0  0  0  0  0  0  0  0  0  0  0
  140.7670   71.8570  226.6630 C   0  0  0  0  0  0  0  0  0  0  0  0
  140.9724   72.9011  226.3841 H   0  0  0  0  0  0  0  0  0  0  0  0
  141.0270   71.4180  227.9630 C   0  0  0  0  0  0  0  0  0  0  0  0
  141.4401   72.1159  228.7062 H   0  0  0  0  0  0  0  0  0  0  0  0
  140.7630   70.0930  228.3210 C   0  0  0  0  0  0  0  0  0  0  0  0
  140.9661   69.7508  229.3465 H   0  0  0  0  0  0  0  0  0  0  0  0
  140.2410   69.2010  227.3780 C   0  0  0  0  0  0  0  0  0  0  0  0
  140.0355   68.1585  227.6627 H   0  0  0  0  0  0  0  0  0  0  0  0
  139.9780   69.6370  226.0630 C   0  0  0  0  0  0  0  0  0  0  0  0
  139.4580   68.7830  225.0770 C   0  0  0  0  0  0  0  0  0  0  0  0
  139.1970   67.5840  225.3820 O   0  0  0  0  0  0  0  0  0  0  0  0
  139.2360   69.2430  223.7970 N   0  0  0  0  0  0  0  0  0  0  0  0
  138.7700   68.2920  222.7570 C   0  0  0  0  0  0  0  0  0  0  0  0
  139.1108   68.6477  221.7735 H   0  0  0  0  0  0  0  0  0  0  0  0
  139.1891   67.3025  222.9921 H   0  0  0  0  0  0  0  0  0  0  0  0
  137.2350   68.1620  222.7330 C   0  0  0  0  0  0  0  0  0  0  0  0
  136.9059   68.1235  221.6841 H   0  0  0  0  0  0  0  0  0  0  0  0
  136.9807   67.2456  223.2858 H   0  0  0  0  0  0  0  0  0  0  0  0
  136.5060   69.3250  223.4290 C   0  0  0  0  0  0  0  0  0  0  0  0
  137.1620   69.7435  224.2065 H   0  0  0  0  0  0  0  0  0  0  0  0
  136.2639   70.0833  222.6698 H   0  0  0  0  0  0  0  0  0  0  0  0
  135.2410   68.8770  224.0570 N   0  0  0  0  0  0  0  0  0  0  0  0
  135.1570   69.2410  225.4980 C   0  0  0  0  0  0  0  0  0  0  0  0
  134.7882   68.3668  226.0545 H   0  0  0  0  0  0  0  0  0  0  0  0
  136.1673   69.5458  225.8084 H   0  0  0  0  0  0  0  0  0  0  0  0
  134.2230   70.4310  225.7910 C   0  0  0  0  0  0  0  0  0  0  0  0
  133.2010   70.0586  225.9548 H   0  0  0  0  0  0  0  0  0  0  0  0
  134.5814   70.9548  226.6895 H   0  0  0  0  0  0  0  0  0  0  0  0
  134.2220   71.3660  224.6620 N   0  0  0  0  0  0  0  0  0  0  0  0
  134.5570   72.7560  224.8400 C   0  0  0  0  0  0  0  0  0  0  0  0
  133.9830   73.4980  225.8890 C   0  0  0  0  0  0  0  0  0  0  0  0
  133.2826   73.0114  226.5837 H   0  0  0  0  0  0  0  0  0  0  0  0
  134.2980   74.8500  226.0530 C   0  0  0  0  0  0  0  0  0  0  0  0
  133.8489   75.4226  226.8779 H   0  0  0  0  0  0  0  0  0  0  0  0
  135.1830   75.4750  225.1700 C   0  0  0  0  0  0  0  0  0  0  0  0
  135.4331   76.5379  225.3030 H   0  0  0  0  0  0  0  0  0  0  0  0
  135.7500   74.7510  224.1190 C   0  0  0  0  0  0  0  0  0  0  0  0
  136.4434   75.2451  223.4226 H   0  0  0  0  0  0  0  0  0  0  0  0
  135.4370   73.3980  223.9510 C   0  0  0  0  0  0  0  0  0  0  0  0
  135.8819   72.8331  223.1186 H   0  0  0  0  0  0  0  0  0  0  0  0
  133.8980   70.8490  223.3280 C   0  0  0  0  0  0  0  0  0  0  0  0
  132.8582   71.1104  223.0820 H   0  0  0  0  0  0  0  0  0  0  0  0
  134.5870   71.2978  222.5974 H   0  0  0  0  0  0  0  0  0  0  0  0
  134.0580   69.3210  223.2850 C   0  0  0  0  0  0  0  0  0  0  0  0
  133.1574   68.8552  223.7117 H   0  0  0  0  0  0  0  0  0  0  0  0
  134.1966   69.0180  222.2367 H   0  0  0  0  0  0  0  0  0  0  0  0
  139.1240   73.6400  221.9700 C   0  0  0  0  0  0  0  0  0  0  0  0
  140.5190   73.8400  221.9560 C   0  0  0  0  0  0  0  0  0  0  0  0
  141.1970   72.9738  221.9539 H   0  0  0  0  0  0  0  0  0  0  0  0
  141.0300   75.1010  221.9450 N   0  0  0  0  0  0  0  0  0  0  0  0
  140.2300   76.1990  221.9500 C   0  0  0  0  0  0  0  0  0  0  0  0
  140.6760   77.2043  221.9304 H   0  0  0  0  0  0  0  0  0  0  0  0
  138.8440   76.0520  221.9800 C   0  0  0  0  0  0  0  0  0  0  0  0
  138.1917   76.9377  221.9909 H   0  0  0  0  0  0  0  0  0  0  0  0
  138.2920   74.7700  221.9960 C   0  0  0  0  0  0  0  0  0  0  0  0
  137.1997   74.6448  222.0292 H   0  0  0  0  0  0  0  0  0  0  0  0
  1  2  1  0
  2  3  2  0
  3  4  1  0
  3  5  1  0
  5  6  2  0
  6  7  1  0
  7  8  2  0
  8  9  1  0
  8 10  1  0
 10 11  1  0
 10 12  2  0
 12 13  1  0
 12 14  1  0
 14 15  1  0
 14 16  2  0
 16 17  1  0
 17 18  2  0
 17 19  1  0
 19 20  1  0
 20 21  1  0
 20 22  1  0
 20 23  1  0
 23 24  1  0
 23 25  1  0
 23 26  1  0
 26 27  1  0
 26 28  1  0
 26 29  1  0
 29 30  1  0
 30 31  1  0
 30 32  1  0
 30 33  1  0
 33 34  1  0
 33 35  1  0
 33 36  1  0
 36 37  1  0
 37 38  2  0
 38 39  1  0
 38 40  1  0
 40 41  1  0
 40 42  2  0
 42 43  1  0
 42 44  1  0
 44 45  1  0
 44 46  2  0
 46 47  1  0
 36 48  1  0
 48 49  1  0
 48 50  1  0
 48 51  1  0
 51 52  1  0
 51 53  1  0
  2 54  1  0
 54 55  2  0
 55 56  1  0
 55 57  1  0
 57 58  2  0
 58 59  1  0
 58 60  1  0
 60 61  1  0
 60 62  2  0
 62 63  1  0
 19  5  1  0
 51 29  1  0
 62 54  1  0
 16  7  1  0
 46 37  1  0
M  END
>  <UniqueID>  (59) 
606

>  <SMILES>  (59) 
O=c1c2ccccc2nc(/C=C/c2cccnc2)n1CCCN1CCN(c2ccccc2)CC1

>  <Energy>  (59) 
91.13176627644881

>  <Genealogy>  (59) 
O=c1c2ccccc2nc(/C=C/c2cccnc2)n1CCCN1CCN(c2ccccc2)CC1 (cis-trans isomerization)
O=c1c2ccccc2nc(/C=C/c2cccnc2)n1CCCN1CCN(c2ccccc2)CC1 (3D coordinates assigned)
O=c1c2ccccc2nc(/C=C/c2cccnc2)n1CCCN1CCN(c2ccccc2)CC1 (nonaromatic ring conformer: 91.13176627644881 kcal/mol)

>  <smiles>  (59) 
O=c1c2ccccc2nc(/C=C/c2cccnc2)n1CCCN1CCN(c2ccccc2)CC1

>  <score_type>  (59) 
oracle

>  <origin>  (59) 
autodockgpu

>  <m_score__min__energy>  (59) 
-9.1400000000000006

>  <m_primary>  (59) 
energy

>  <meeko>  (59) 
{"free_energy": -8.41, "intermolecular_energy": -10.8, "internal_energy": -2.34, "cluster_size": 3, "cluster_id": 3, "rank_in_cluster": 2}

>  <energy>  (59) 
-6.98

>  <cluster_rmsd>  (59) 
0.0

>  <rmsd>  (59) 
269.44

>  <cluster>  (59) 
7

$$$$
IETZWVUTNAYKDK-BUHFOSPRNA-N
     RDKit          3D

 63 67  0  0  0  0  0  0  0  0999 V2000
  139.5030   70.1787  222.7259 H   0  0  0  0  0  0  0  0  0  0  0  0
  139.6120   71.0980  223.3200 C   0  0  0  0  0  0  0  0  0  0  0  0
  139.4120   72.2770  222.7090 C   0  0  0  0  0  0  0  0  0  0  0  0
  138.3959   72.6978  222.6848 H   0  0  0  0  0  0  0  0  0  0  0  0
  140.5220   73.0350  222.0620 C   0  0  0  0  0  0  0  0  0  0  0  0
  141.6200   72.3350  221.6660 N   0  0  0  0  0  0  0  0  0  0  0  0
  142.6670   72.9230  221.0470 C   0  0  0  0  0  0  0  0  0  0  0  0
  143.7760   72.1570  220.6660 C   0  0  0  0  0  0  0  0  0  0  0  0
  143.7970   71.0776  220.8769 H   0  0  0  0  0  0  0  0  0  0  0  0
  144.8560   72.7630  220.0180 C   0  0  0  0  0  0  0  0  0  0  0  0
  145.7271   72.1605  219.7211 H   0  0  0  0  0  0  0  0  0  0  0  0
  144.8300   74.1340  219.7470 C   0  0  0  0  0  0  0  0  0  0  0  0
  145.6800   74.6085  219.2347 H   0  0  0  0  0  0  0  0  0  0  0  0
  143.7250   74.9040  220.1260 C   0  0  0  0  0  0  0  0  0  0  0  0
  143.7083   75.9830  219.9126 H   0  0  0  0  0  0  0  0  0  0  0  0
  142.6330   74.2990  220.7810 C   0  0  0  0  0  0  0  0  0  0  0  0
  141.5010   75.0260  221.1850 C   0  0  0  0  0  0  0  0  0  0  0  0
  141.4480   76.2640  220.9360 O   0  0  0  0  0  0  0  0  0  0  0  0
  140.4630   74.4000  221.8420 N   0  0  0  0  0  0  0  0  0  0  0  0
  139.3240   75.2140  222.3350 C   0  0  0  0  0  0  0  0  0  0  0  0
  138.9819   74.8004  223.2952 H   0  0  0  0  0  0  0  0  0  0  0  0
  139.6731   76.2509  222.4485 H   0  0  0  0  0  0  0  0  0  0  0  0
  138.1420   75.2170  221.3460 C   0  0  0  0  0  0  0  0  0  0  0  0
  137.9930   74.1905  220.9797 H   0  0  0  0  0  0  0  0  0  0  0  0
  137.2668   75.5989  221.8920 H   0  0  0  0  0  0  0  0  0  0  0  0
  138.3530   76.1390  220.1340 C   0  0  0  0  0  0  0  0  0  0  0  0
  139.3819   76.5275  220.1560 H   0  0  0  0  0  0  0  0  0  0  0  0
  138.1736   75.5528  219.2207 H   0  0  0  0  0  0  0  0  0  0  0  0
  137.4080   77.2800  220.1450 N   0  0  0  0  0  0  0  0  0  0  0  0
  137.0970   77.7520  221.5220 C   0  0  0  0  0  0  0  0  0  0  0  0
  136.0109   77.9098  221.5963 H   0  0  0  0  0  0  0  0  0  0  0  0
  137.4614   76.9777  222.2131 H   0  0  0  0  0  0  0  0  0  0  0  0
  137.8050   79.0650  221.9110 C   0  0  0  0  0  0  0  0  0  0  0  0
  137.1780   79.9181  221.6126 H   0  0  0  0  0  0  0  0  0  0  0  0
  137.9639   79.0783  222.9994 H   0  0  0  0  0  0  0  0  0  0  0  0
  139.1030   79.1590  221.2370 N   0  0  0  0  0  0  0  0  0  0  0  0
  140.3220   79.3440  221.9830 C   0  0  0  0  0  0  0  0  0  0  0  0
  140.6400   78.4860  223.0520 C   0  0  0  0  0  0  0  0  0  0  0  0
  139.9585   77.6633  223.3141 H   0  0  0  0  0  0  0  0  0  0  0  0
  141.8170   78.6730  223.7830 C   0  0  0  0  0  0  0  0  0  0  0  0
  142.0609   77.9951  224.6143 H   0  0  0  0  0  0  0  0  0  0  0  0
  142.6840   79.7200  223.4590 C   0  0  0  0  0  0  0  0  0  0  0  0
  143.6113   79.8639  224.0330 H   0  0  0  0  0  0  0  0  0  0  0  0
  142.3730   80.5840  222.4060 C   0  0  0  0  0  0  0  0  0  0  0  0
  143.0541   81.4101  222.1540 H   0  0  0  0  0  0  0  0  0  0  0  0
  141.1970   80.4000  221.6720 C   0  0  0  0  0  0  0  0  0  0  0  0
  140.9550   81.0854  220.8464 H   0  0  0  0  0  0  0  0  0  0  0  0
  139.1430   79.0360  219.7760 C   0  0  0  0  0  0  0  0  0  0  0  0
  139.2406   80.0374  219.3315 H   0  0  0  0  0  0  0  0  0  0  0  0
  140.0031   78.4100  219.4963 H   0  0  0  0  0  0  0  0  0  0  0  0
  137.8570   78.3740  219.2530 C   0  0  0  0  0  0  0  0  0  0  0  0
  137.0636   79.1334  219.1915 H   0  0  0  0  0  0  0  0  0  0  0  0
  138.0676   77.9465  218.2616 H   0  0  0  0  0  0  0  0  0  0  0  0
  139.9720   70.9690  224.7530 C   0  0  0  0  0  0  0  0  0  0  0  0
  140.8070   71.8910  225.4150 C   0  0  0  0  0  0  0  0  0  0  0  0
  141.2095   72.7566  224.8685 H   0  0  0  0  0  0  0  0  0  0  0  0
  141.1170   71.7140  226.7280 N   0  0  0  0  0  0  0  0  0  0  0  0
  140.6460   70.6570  227.4390 C   0  0  0  0  0  0  0  0  0  0  0  0
  140.9085   70.5487  228.5017 H   0  0  0  0  0  0  0  0  0  0  0  0
  139.8300   69.7090  226.8230 C   0  0  0  0  0  0  0  0  0  0  0  0
  139.4508   68.8481  227.3931 H   0  0  0  0  0  0  0  0  0  0  0  0
  139.4990   69.8630  225.4760 C   0  0  0  0  0  0  0  0  0  0  0  0
  138.8647   69.1143  224.9789 H   0  0  0  0  0  0  0  0  0  0  0  0
  1  2  1  0
  2  3  2  0
  3  4  1  0
  3  5  1  0
  5  6  2  0
  6  7  1  0
  7  8  2  0
  8  9  1  0
  8 10  1  0
 10 11  1  0
 10 12  2  0
 12 13  1  0
 12 14  1  0
 14 15  1  0
 14 16  2  0
 16 17  1  0
 17 18  2  0
 17 19  1  0
 19 20  1  0
 20 21  1  0
 20 22  1  0
 20 23  1  0
 23 24  1  0
 23 25  1  0
 23 26  1  0
 26 27  1  0
 26 28  1  0
 26 29  1  0
 29 30  1  0
 30 31  1  0
 30 32  1  0
 30 33  1  0
 33 34  1  0
 33 35  1  0
 33 36  1  0
 36 37  1  0
 37 38  2  0
 38 39  1  0
 38 40  1  0
 40 41  1  0
 40 42  2  0
 42 43  1  0
 42 44  1  0
 44 45  1  0
 44 46  2  0
 46 47  1  0
 36 48  1  0
 48 49  1  0
 48 50  1  0
 48 51  1  0
 51 52  1  0
 51 53  1  0
  2 54  1  0
 54 55  2  0
 55 56  1  0
 55 57  1  0
 57 58  2  0
 58 59  1  0
 58 60  1  0
 60 61  1  0
 60 62  2  0
 62 63  1  0
 19  5  1  0
 51 29  1  0
 62 54  1  0
 16  7  1  0
 46 37  1  0
M  END
>  <UniqueID>  (60) 
606

>  <SMILES>  (60) 
O=c1c2ccccc2nc(/C=C/c2cccnc2)n1CCCN1CCN(c2ccccc2)CC1

>  <Energy>  (60) 
91.13176627644881

>  <Genealogy>  (60) 
O=c1c2ccccc2nc(/C=C/c2cccnc2)n1CCCN1CCN(c2ccccc2)CC1 (cis-trans isomerization)
O=c1c2ccccc2nc(/C=C/c2cccnc2)n1CCCN1CCN(c2ccccc2)CC1 (3D coordinates assigned)
O=c1c2ccccc2nc(/C=C/c2cccnc2)n1CCCN1CCN(c2ccccc2)CC1 (nonaromatic ring conformer: 91.13176627644881 kcal/mol)

>  <smiles>  (60) 
O=c1c2ccccc2nc(/C=C/c2cccnc2)n1CCCN1CCN(c2ccccc2)CC1

>  <score_type>  (60) 
oracle

>  <origin>  (60) 
autodockgpu

>  <m_score__min__energy>  (60) 
-9.1400000000000006

>  <m_primary>  (60) 
energy

>  <meeko>  (60) 
{"free_energy": -7.42, "intermolecular_energy": -9.81, "internal_energy": -2.12, "cluster_size": 1, "cluster_id": 6, "rank_in_cluster": 1}

>  <energy>  (60) 
-6.57

>  <cluster_rmsd>  (60) 
0.0

>  <rmsd>  (60) 
270.93

>  <cluster>  (60) 
8

$$$$
IETZWVUTNAYKDK-WGYGGNGENA-O
     RDKit          3D

 64 68  0  0  0  0  0  0  0  0999 V2000
  144.2850   75.9069  217.6194 H   0  0  0  0  0  0  0  0  0  0  0  0
  143.5770   75.5750  218.3930 C   0  0  0  0  0  0  0  0  0  0  0  0
  142.3920   76.2000  218.4850 C   0  0  0  0  0  0  0  0  0  0  0  0
  141.7851   76.3243  217.5761 H   0  0  0  0  0  0  0  0  0  0  0  0
  141.8700   76.7320  219.7790 C   0  0  0  0  0  0  0  0  0  0  0  0
  142.1470   78.0290  220.0790 N   0  0  0  0  0  0  0  0  0  0  0  0
  141.7550   78.6090  221.2340 C   0  0  0  0  0  0  0  0  0  0  0  0
  142.0680   79.9500  221.4870 C   0  0  0  0  0  0  0  0  0  0  0  0
  142.6287   80.5338  220.7422 H   0  0  0  0  0  0  0  0  0  0  0  0
  141.6680   80.5470  222.6860 C   0  0  0  0  0  0  0  0  0  0  0  0
  141.9137   81.6008  222.8839 H   0  0  0  0  0  0  0  0  0  0  0  0
  140.9560   79.8060  223.6340 C   0  0  0  0  0  0  0  0  0  0  0  0
  140.6423   80.2775  224.5770 H   0  0  0  0  0  0  0  0  0  0  0  0
  140.6420   78.4660  223.3850 C   0  0  0  0  0  0  0  0  0  0  0  0
  140.0829   77.8853  224.1335 H   0  0  0  0  0  0  0  0  0  0  0  0
  141.0400   77.8580  222.1780 C   0  0  0  0  0  0  0  0  0  0  0  0
  140.7500   76.5170  221.8770 C   0  0  0  0  0  0  0  0  0  0  0  0
  140.1150   75.8230  222.7220 O   0  0  0  0  0  0  0  0  0  0  0  0
  141.1510   75.9610  220.6800 N   0  0  0  0  0  0  0  0  0  0  0  0
  140.8110   74.5390  220.4250 C   0  0  0  0  0  0  0  0  0  0  0  0
  141.5407   74.1202  219.7164 H   0  0  0  0  0  0  0  0  0  0  0  0
  140.8396   74.0036  221.3855 H   0  0  0  0  0  0  0  0  0  0  0  0
  139.3980   74.3850  219.8340 C   0  0  0  0  0  0  0  0  0  0  0  0
  139.1473   75.3000  219.2773 H   0  0  0  0  0  0  0  0  0  0  0  0
  139.4051   73.5010  219.1794 H   0  0  0  0  0  0  0  0  0  0  0  0
  138.3250   74.1560  220.9160 C   0  0  0  0  0  0  0  0  0  0  0  0
  138.0644   75.1265  221.3635 H   0  0  0  0  0  0  0  0  0  0  0  0
  137.4583   73.6855  220.4287 H   0  0  0  0  0  0  0  0  0  0  0  0
  138.7810   73.2440  221.9940 N   0  0  0  0  0  0  0  0  0  0  0  0
  139.2930   73.8100  222.7150 H   0  0  0  0  0  0  0  0  0  0  0  0
  137.5990   72.6300  222.6600 C   0  0  0  0  0  0  0  0  0  0  0  0
  137.1908   73.3542  223.3804 H   0  0  0  0  0  0  0  0  0  0  0  0
  136.8790   72.3757  221.8682 H   0  0  0  0  0  0  0  0  0  0  0  0
  137.9230   71.3230  223.4130 C   0  0  0  0  0  0  0  0  0  0  0  0
  137.3466   71.2940  224.3494 H   0  0  0  0  0  0  0  0  0  0  0  0
  137.6545   70.4708  222.7714 H   0  0  0  0  0  0  0  0  0  0  0  0
  139.3520   71.2430  223.7260 N   0  0  0  0  0  0  0  0  0  0  0  0
  139.8050   70.9670  225.0660 C   0  0  0  0  0  0  0  0  0  0  0  0
  140.6830   71.8510  225.7170 C   0  0  0  0  0  0  0  0  0  0  0  0
  141.0400   72.7510  225.1950 H   0  0  0  0  0  0  0  0  0  0  0  0
  141.1050   71.5920  227.0250 C   0  0  0  0  0  0  0  0  0  0  0  0
  141.7983   72.2837  227.5258 H   0  0  0  0  0  0  0  0  0  0  0  0
  140.6470   70.4560  227.6960 C   0  0  0  0  0  0  0  0  0  0  0  0
  140.9796   70.2541  228.7249 H   0  0  0  0  0  0  0  0  0  0  0  0
  139.7660   69.5750  227.0610 C   0  0  0  0  0  0  0  0  0  0  0  0
  139.4041   68.6819  227.5914 H   0  0  0  0  0  0  0  0  0  0  0  0
  139.3450   69.8290  225.7520 C   0  0  0  0  0  0  0  0  0  0  0  0
  138.6503   69.1349  225.2563 H   0  0  0  0  0  0  0  0  0  0  0  0
  140.3250   71.4230  222.6400 C   0  0  0  0  0  0  0  0  0  0  0  0
  141.1923   71.9825  223.0203 H   0  0  0  0  0  0  0  0  0  0  0  0
  140.6406   70.4334  222.2780 H   0  0  0  0  0  0  0  0  0  0  0  0
  139.6940   72.2000  221.4740 C   0  0  0  0  0  0  0  0  0  0  0  0
  140.4891   72.6747  220.8803 H   0  0  0  0  0  0  0  0  0  0  0  0
  139.1224   71.5028  220.8438 H   0  0  0  0  0  0  0  0  0  0  0  0
  143.9770   74.4600  219.2830 C   0  0  0  0  0  0  0  0  0  0  0  0
  144.7660   74.6560  220.4330 C   0  0  0  0  0  0  0  0  0  0  0  0
  145.0894   75.6705  220.7092 H   0  0  0  0  0  0  0  0  0  0  0  0
  145.1300   73.5950  221.2040 N   0  0  0  0  0  0  0  0  0  0  0  0
  144.7550   72.3250  220.8980 C   0  0  0  0  0  0  0  0  0  0  0  0
  145.0559   71.4906  221.5485 H   0  0  0  0  0  0  0  0  0  0  0  0
  143.9880   72.0800  219.7580 C   0  0  0  0  0  0  0  0  0  0  0  0
  143.6865   71.0536  219.5017 H   0  0  0  0  0  0  0  0  0  0  0  0
  143.6070   73.1500  218.9460 C   0  0  0  0  0  0  0  0  0  0  0  0
  143.0141   72.9647  218.0382 H   0  0  0  0  0  0  0  0  0  0  0  0
  1  2  1  0
  2  3  2  0
  3  4  1  0
  3  5  1  0
  5  6  2  0
  6  7  1  0
  7  8  2  0
  8  9  1  0
  8 10  1  0
 10 11  1  0
 10 12  2  0
 12 13  1  0
 12 14  1  0
 14 15  1  0
 14 16  2  0
 16 17  1  0
 17 18  2  0
 17 19  1  0
 19 20  1  0
 20 21  1  0
 20 22  1  0
 20 23  1  0
 23 24  1  0
 23 25  1  0
 23 26  1  0
 26 27  1  0
 26 28  1  0
 26 29  1  0
 29 30  1  0
 29 31  1  0
 31 32  1  0
 31 33  1  0
 31 34  1  0
 34 35  1  0
 34 36  1  0
 34 37  1  0
 37 38  1  0
 38 39  2  0
 39 40  1  0
 39 41  1  0
 41 42  1  0
 41 43  2  0
 43 44  1  0
 43 45  1  0
 45 46  1  0
 45 47  2  0
 47 48  1  0
 37 49  1  0
 49 50  1  0
 49 51  1  0
 49 52  1  0
 52 53  1  0
 52 54  1  0
  2 55  1  0
 55 56  2  0
 56 57  1  0
 56 58  1  0
 58 59  2  0
 59 60  1  0
 59 61  1  0
 61 62  1  0
 61 63  2  0
 63 64  1  0
 19  5  1  0
 52 29  1  0
 63 55  1  0
 16  7  1  0
 47 38  1  0
M  CHG  1  29   1
M  END
>  <UniqueID>  (61) 
607

>  <SMILES>  (61) 
O=c1c2ccccc2nc(/C=C/c2cccnc2)n1CCC[NH+]1CCN(c2ccccc2)CC1

>  <Energy>  (61) 
93.05114730382124

>  <Genealogy>  (61) 
O=c1c2ccccc2nc(/C=C/c2cccnc2)n1CCC[NH+]1CCN(c2ccccc2)CC1 (protonated)
O=c1c2ccccc2nc(/C=C/c2cccnc2)n1CCC[NH+]1CCN(c2ccccc2)CC1 (cis-trans isomerization)
O=c1c2ccccc2nc(/C=C/c2cccnc2)n1CCC[NH+]1CCN(c2ccccc2)CC1 (3D coordinates assigned)
O=c1c2ccccc2nc(/C=C/c2cccnc2)n1CCC[NH+]1CCN(c2ccccc2)CC1 (nonaromatic ring conformer: 93.05114730382124 kcal/mol)

>  <smiles>  (61) 
O=c1c2ccccc2nc(/C=C/c2cccnc2)n1CCCN1CCN(c2ccccc2)CC1

>  <score_type>  (61) 
oracle

>  <origin>  (61) 
autodockgpu

>  <m_score__min__energy>  (61) 
-9.2599999999999998

>  <m_primary>  (61) 
energy

>  <meeko>  (61) 
{"free_energy": -8.37, "intermolecular_energy": -10.76, "internal_energy": -1.98, "cluster_size": 6, "cluster_id": 1, "rank_in_cluster": 6}

>  <energy>  (61) 
-9.26

>  <cluster_rmsd>  (61) 
0.0

>  <rmsd>  (61) 
269.93

>  <cluster>  (61) 
1

$$$$
IETZWVUTNAYKDK-WGYGGNGENA-O
     RDKit          3D

 64 68  0  0  0  0  0  0  0  0999 V2000
  137.8226   80.1698  222.5703 H   0  0  0  0  0  0  0  0  0  0  0  0
  138.7060   79.6140  222.2230 C   0  0  0  0  0  0  0  0  0  0  0  0
  138.5190   78.5600  221.4120 C   0  0  0  0  0  0  0  0  0  0  0  0
  137.5788   78.4851  220.8459 H   0  0  0  0  0  0  0  0  0  0  0  0
  139.5450   77.4860  221.2530 C   0  0  0  0  0  0  0  0  0  0  0  0
  140.6180   77.7590  220.4630 N   0  0  0  0  0  0  0  0  0  0  0  0
  141.5910   76.8550  220.2200 C   0  0  0  0  0  0  0  0  0  0  0  0
  142.6750   77.1940  219.4000 C   0  0  0  0  0  0  0  0  0  0  0  0
  142.7369   78.1995  218.9582 H   0  0  0  0  0  0  0  0  0  0  0  0
  143.6780   76.2550  219.1430 C   0  0  0  0  0  0  0  0  0  0  0  0
  144.5296   76.5227  218.5002 H   0  0  0  0  0  0  0  0  0  0  0  0
  143.6000   74.9760  219.7020 C   0  0  0  0  0  0  0  0  0  0  0  0
  144.3899   74.2382  219.4975 H   0  0  0  0  0  0  0  0  0  0  0  0
  142.5190   74.6330  220.5210 C   0  0  0  0  0  0  0  0  0  0  0  0
  142.4600   73.6257  220.9590 H   0  0  0  0  0  0  0  0  0  0  0  0
  141.5050   75.5760  220.7860 C   0  0  0  0  0  0  0  0  0  0  0  0
  140.4000   75.2850  221.6020 C   0  0  0  0  0  0  0  0  0  0  0  0
  140.3010   74.1320  222.1120 O   0  0  0  0  0  0  0  0  0  0  0  0
  139.4320   76.2370  221.8440 N   0  0  0  0  0  0  0  0  0  0  0  0
  138.2910   75.8630  222.7150 C   0  0  0  0  0  0  0  0  0  0  0  0
  138.6041   75.0444  223.3797 H   0  0  0  0  0  0  0  0  0  0  0  0
  137.9968   76.7516  223.2928 H   0  0  0  0  0  0  0  0  0  0  0  0
  137.0730   75.4010  221.8960 C   0  0  0  0  0  0  0  0  0  0  0  0
  136.1960   75.3639  222.5590 H   0  0  0  0  0  0  0  0  0  0  0  0
  136.9308   76.1198  221.0756 H   0  0  0  0  0  0  0  0  0  0  0  0
  137.2760   74.0080  221.2670 C   0  0  0  0  0  0  0  0  0  0  0  0
  136.2955   73.6134  220.9621 H   0  0  0  0  0  0  0  0  0  0  0  0
  137.9521   74.1272  220.4075 H   0  0  0  0  0  0  0  0  0  0  0  0
  137.9060   73.0430  222.2020 N   0  0  0  0  0  0  0  0  0  0  0  0
  138.5500   73.5690  222.8410 H   0  0  0  0  0  0  0  0  0  0  0  0
  136.8550   72.4090  223.0450 C   0  0  0  0  0  0  0  0  0  0  0  0
  136.5977   73.1023  223.8593 H   0  0  0  0  0  0  0  0  0  0  0  0
  135.9986   72.1983  222.3875 H   0  0  0  0  0  0  0  0  0  0  0  0
  137.2880   71.0640  223.6680 C   0  0  0  0  0  0  0  0  0  0  0  0
  136.8916   70.9963  224.6919 H   0  0  0  0  0  0  0  0  0  0  0  0
  136.8920   70.2447  223.0499 H   0  0  0  0  0  0  0  0  0  0  0  0
  138.7480   70.9580  223.7100 N   0  0  0  0  0  0  0  0  0  0  0  0
  139.4330   70.6150  224.9310 C   0  0  0  0  0  0  0  0  0  0  0  0
  139.1800   69.3880  225.5690 C   0  0  0  0  0  0  0  0  0  0  0  0
  138.4431   68.6913  225.1428 H   0  0  0  0  0  0  0  0  0  0  0  0
  139.8600   69.0490  226.7420 C   0  0  0  0  0  0  0  0  0  0  0  0
  139.6500   68.0915  227.2411 H   0  0  0  0  0  0  0  0  0  0  0  0
  140.8060   69.9240  227.2820 C   0  0  0  0  0  0  0  0  0  0  0  0
  141.3417   69.6537  228.2039 H   0  0  0  0  0  0  0  0  0  0  0  0
  141.0720   71.1430  226.6510 C   0  0  0  0  0  0  0  0  0  0  0  0
  141.8173   71.8311  227.0765 H   0  0  0  0  0  0  0  0  0  0  0  0
  140.3910   71.4880  225.4790 C   0  0  0  0  0  0  0  0  0  0  0  0
  140.6053   72.4463  224.9833 H   0  0  0  0  0  0  0  0  0  0  0  0
  139.5090   71.1790  222.4730 C   0  0  0  0  0  0  0  0  0  0  0  0
  140.4414   71.7114  222.7121 H   0  0  0  0  0  0  0  0  0  0  0  0
  139.7347   70.2043  222.0159 H   0  0  0  0  0  0  0  0  0  0  0  0
  138.6900   72.0160  221.4780 C   0  0  0  0  0  0  0  0  0  0  0  0
  139.3720   72.5105  220.7706 H   0  0  0  0  0  0  0  0  0  0  0  0
  138.0006   71.3546  220.9327 H   0  0  0  0  0  0  0  0  0  0  0  0
  140.0440   80.0650  222.6730 C   0  0  0  0  0  0  0  0  0  0  0  0
  140.5810   81.3160  222.3140 C   0  0  0  0  0  0  0  0  0  0  0  0
  139.9921   82.0069  221.6928 H   0  0  0  0  0  0  0  0  0  0  0  0
  141.8250   81.6740  222.7320 N   0  0  0  0  0  0  0  0  0  0  0  0
  142.5880   80.8500  223.4970 C   0  0  0  0  0  0  0  0  0  0  0  0
  143.5857   81.1743  223.8279 H   0  0  0  0  0  0  0  0  0  0  0  0
  142.1060   79.5920  223.8630 C   0  0  0  0  0  0  0  0  0  0  0  0
  142.7216   78.9177  224.4764 H   0  0  0  0  0  0  0  0  0  0  0  0
  140.8340   79.1990  223.4420 C   0  0  0  0  0  0  0  0  0  0  0  0
  140.4499   78.2051  223.7150 H   0  0  0  0  0  0  0  0  0  0  0  0
  1  2  1  0
  2  3  2  0
  3  4  1  0
  3  5  1  0
  5  6  2  0
  6  7  1  0
  7  8  2  0
  8  9  1  0
  8 10  1  0
 10 11  1  0
 10 12  2  0
 12 13  1  0
 12 14  1  0
 14 15  1  0
 14 16  2  0
 16 17  1  0
 17 18  2  0
 17 19  1  0
 19 20  1  0
 20 21  1  0
 20 22  1  0
 20 23  1  0
 23 24  1  0
 23 25  1  0
 23 26  1  0
 26 27  1  0
 26 28  1  0
 26 29  1  0
 29 30  1  0
 29 31  1  0
 31 32  1  0
 31 33  1  0
 31 34  1  0
 34 35  1  0
 34 36  1  0
 34 37  1  0
 37 38  1  0
 38 39  2  0
 39 40  1  0
 39 41  1  0
 41 42  1  0
 41 43  2  0
 43 44  1  0
 43 45  1  0
 45 46  1  0
 45 47  2  0
 47 48  1  0
 37 49  1  0
 49 50  1  0
 49 51  1  0
 49 52  1  0
 52 53  1  0
 52 54  1  0
  2 55  1  0
 55 56  2  0
 56 57  1  0
 56 58  1  0
 58 59  2  0
 59 60  1  0
 59 61  1  0
 61 62  1  0
 61 63  2  0
 63 64  1  0
 19  5  1  0
 52 29  1  0
 63 55  1  0
 16  7  1  0
 47 38  1  0
M  CHG  1  29   1
M  END
>  <UniqueID>  (62) 
607

>  <SMILES>  (62) 
O=c1c2ccccc2nc(/C=C/c2cccnc2)n1CCC[NH+]1CCN(c2ccccc2)CC1

>  <Energy>  (62) 
93.05114730382124

>  <Genealogy>  (62) 
O=c1c2ccccc2nc(/C=C/c2cccnc2)n1CCC[NH+]1CCN(c2ccccc2)CC1 (protonated)
O=c1c2ccccc2nc(/C=C/c2cccnc2)n1CCC[NH+]1CCN(c2ccccc2)CC1 (cis-trans isomerization)
O=c1c2ccccc2nc(/C=C/c2cccnc2)n1CCC[NH+]1CCN(c2ccccc2)CC1 (3D coordinates assigned)
O=c1c2ccccc2nc(/C=C/c2cccnc2)n1CCC[NH+]1CCN(c2ccccc2)CC1 (nonaromatic ring conformer: 93.05114730382124 kcal/mol)

>  <smiles>  (62) 
O=c1c2ccccc2nc(/C=C/c2cccnc2)n1CCCN1CCN(c2ccccc2)CC1

>  <score_type>  (62) 
oracle

>  <origin>  (62) 
autodockgpu

>  <m_score__min__energy>  (62) 
-9.2599999999999998

>  <m_primary>  (62) 
energy

>  <meeko>  (62) 
{"free_energy": -8.98, "intermolecular_energy": -11.36, "internal_energy": -2.26, "cluster_size": 13, "cluster_id": 2, "rank_in_cluster": 3}

>  <energy>  (62) 
-9.22

>  <cluster_rmsd>  (62) 
1.53

>  <rmsd>  (62) 
270.38

>  <cluster>  (62) 
1

$$$$
IETZWVUTNAYKDK-WGYGGNGENA-O
     RDKit          3D

 64 68  0  0  0  0  0  0  0  0999 V2000
  138.2647   80.0808  221.9527 H   0  0  0  0  0  0  0  0  0  0  0  0
  139.0930   79.3820  221.7640 C   0  0  0  0  0  0  0  0  0  0  0  0
  138.8440   78.2770  221.0440 C   0  0  0  0  0  0  0  0  0  0  0  0
  137.9572   78.2553  220.3935 H   0  0  0  0  0  0  0  0  0  0  0  0
  139.7300   77.0760  221.0960 C   0  0  0  0  0  0  0  0  0  0  0  0
  140.9520   77.1750  220.5040 N   0  0  0  0  0  0  0  0  0  0  0  0
  141.8240   76.1450  220.4590 C   0  0  0  0  0  0  0  0  0  0  0  0
  143.0680   76.3070  219.8380 C   0  0  0  0  0  0  0  0  0  0  0  0
  143.3376   77.2752  219.3909 H   0  0  0  0  0  0  0  0  0  0  0  0
  143.9680   75.2380  219.7860 C   0  0  0  0  0  0  0  0  0  0  0  0
  144.9458   75.3659  219.2986 H   0  0  0  0  0  0  0  0  0  0  0  0
  143.6260   74.0070  220.3530 C   0  0  0  0  0  0  0  0  0  0  0  0
  144.3352   73.1672  220.3107 H   0  0  0  0  0  0  0  0  0  0  0  0
  142.3840   73.8410  220.9740 C   0  0  0  0  0  0  0  0  0  0  0  0
  142.1175   72.8705  221.4180 H   0  0  0  0  0  0  0  0  0  0  0  0
  141.4730   74.9150  221.0320 C   0  0  0  0  0  0  0  0  0  0  0  0
  140.2140   74.8030  221.6440 C   0  0  0  0  0  0  0  0  0  0  0  0
  139.8770   73.6970  222.1560 O   0  0  0  0  0  0  0  0  0  0  0  0
  139.3530   75.8800  221.6870 N   0  0  0  0  0  0  0  0  0  0  0  0
  138.0390   75.6940  222.3500 C   0  0  0  0  0  0  0  0  0  0  0  0
  138.1651   75.0149  223.2061 H   0  0  0  0  0  0  0  0  0  0  0  0
  137.6785   76.6803  222.6776 H   0  0  0  0  0  0  0  0  0  0  0  0
  136.9940   75.0970  221.3900 C   0  0  0  0  0  0  0  0  0  0  0  0
  136.2888   75.8898  221.0998 H   0  0  0  0  0  0  0  0  0  0  0  0
  137.5329   74.6945  220.5196 H   0  0  0  0  0  0  0  0  0  0  0  0
  136.2000   73.9380  222.0240 C   0  0  0  0  0  0  0  0  0  0  0  0
  135.5181   74.3516  222.7816 H   0  0  0  0  0  0  0  0  0  0  0  0
  135.6517   73.4303  221.2168 H   0  0  0  0  0  0  0  0  0  0  0  0
  137.0760   72.9310  222.6730 N   0  0  0  0  0  0  0  0  0  0  0  0
  137.8990   73.4260  223.0960 H   0  0  0  0  0  0  0  0  0  0  0  0
  136.3340   72.2670  223.7810 C   0  0  0  0  0  0  0  0  0  0  0  0
  136.3604   72.9264  224.6610 H   0  0  0  0  0  0  0  0  0  0  0  0
  135.3098   72.0889  223.4213 H   0  0  0  0  0  0  0  0  0  0  0  0
  136.9170   70.8950  224.1820 C   0  0  0  0  0  0  0  0  0  0  0  0
  136.8637   70.7860  225.2753 H   0  0  0  0  0  0  0  0  0  0  0  0
  136.3308   70.1050  223.6897 H   0  0  0  0  0  0  0  0  0  0  0  0
  138.3140   70.7790  223.7550 N   0  0  0  0  0  0  0  0  0  0  0  0
  139.3430   70.3820  224.6830 C   0  0  0  0  0  0  0  0  0  0  0  0
  139.3450   69.0880  225.2320 C   0  0  0  0  0  0  0  0  0  0  0  0
  138.5476   68.3788  224.9650 H   0  0  0  0  0  0  0  0  0  0  0  0
  140.3560   68.6980  226.1160 C   0  0  0  0  0  0  0  0  0  0  0  0
  140.3465   67.6869  226.5492 H   0  0  0  0  0  0  0  0  0  0  0  0
  141.3780   69.5900  226.4500 C   0  0  0  0  0  0  0  0  0  0  0  0
  142.1732   69.2804  227.1441 H   0  0  0  0  0  0  0  0  0  0  0  0
  141.3900   70.8760  225.9020 C   0  0  0  0  0  0  0  0  0  0  0  0
  142.1955   71.5775  226.1647 H   0  0  0  0  0  0  0  0  0  0  0  0
  140.3790   71.2720  225.0200 C   0  0  0  0  0  0  0  0  0  0  0  0
  140.3942   72.2836  224.5882 H   0  0  0  0  0  0  0  0  0  0  0  0
  138.6490   71.0490  222.3510 C   0  0  0  0  0  0  0  0  0  0  0  0
  139.6185   71.5665  222.3035 H   0  0  0  0  0  0  0  0  0  0  0  0
  138.7013   70.0936  221.8083 H   0  0  0  0  0  0  0  0  0  0  0  0
  137.5720   71.9320  221.6990 C   0  0  0  0  0  0  0  0  0  0  0  0
  138.0042   72.4526  220.8317 H   0  0  0  0  0  0  0  0  0  0  0  0
  136.7338   71.2978  221.3748 H   0  0  0  0  0  0  0  0  0  0  0  0
  140.4280   79.7070  222.3170 C   0  0  0  0  0  0  0  0  0  0  0  0
  141.3050   80.6150  221.6920 C   0  0  0  0  0  0  0  0  0  0  0  0
  140.9966   81.1277  220.7690 H   0  0  0  0  0  0  0  0  0  0  0  0
  142.5320   80.8600  222.2260 N   0  0  0  0  0  0  0  0  0  0  0  0
  142.9550   80.2470  223.3620 C   0  0  0  0  0  0  0  0  0  0  0  0
  143.9490   80.4764  223.7735 H   0  0  0  0  0  0  0  0  0  0  0  0
  142.1280   79.3260  224.0070 C   0  0  0  0  0  0  0  0  0  0  0  0
  142.4673   78.8212  224.9236 H   0  0  0  0  0  0  0  0  0  0  0  0
  140.8660   79.0520  223.4770 C   0  0  0  0  0  0  0  0  0  0  0  0
  140.2120   78.3188  223.9717 H   0  0  0  0  0  0  0  0  0  0  0  0
  1  2  1  0
  2  3  2  0
  3  4  1  0
  3  5  1  0
  5  6  2  0
  6  7  1  0
  7  8  2  0
  8  9  1  0
  8 10  1  0
 10 11  1  0
 10 12  2  0
 12 13  1  0
 12 14  1  0
 14 15  1  0
 14 16  2  0
 16 17  1  0
 17 18  2  0
 17 19  1  0
 19 20  1  0
 20 21  1  0
 20 22  1  0
 20 23  1  0
 23 24  1  0
 23 25  1  0
 23 26  1  0
 26 27  1  0
 26 28  1  0
 26 29  1  0
 29 30  1  0
 29 31  1  0
 31 32  1  0
 31 33  1  0
 31 34  1  0
 34 35  1  0
 34 36  1  0
 34 37  1  0
 37 38  1  0
 38 39  2  0
 39 40  1  0
 39 41  1  0
 41 42  1  0
 41 43  2  0
 43 44  1  0
 43 45  1  0
 45 46  1  0
 45 47  2  0
 47 48  1  0
 37 49  1  0
 49 50  1  0
 49 51  1  0
 49 52  1  0
 52 53  1  0
 52 54  1  0
  2 55  1  0
 55 56  2  0
 56 57  1  0
 56 58  1  0
 58 59  2  0
 59 60  1  0
 59 61  1  0
 61 62  1  0
 61 63  2  0
 63 64  1  0
 19  5  1  0
 52 29  1  0
 63 55  1  0
 16  7  1  0
 47 38  1  0
M  CHG  1  29   1
M  END
>  <UniqueID>  (63) 
607

>  <SMILES>  (63) 
O=c1c2ccccc2nc(/C=C/c2cccnc2)n1CCC[NH+]1CCN(c2ccccc2)CC1

>  <Energy>  (63) 
93.05114730382124

>  <Genealogy>  (63) 
O=c1c2ccccc2nc(/C=C/c2cccnc2)n1CCC[NH+]1CCN(c2ccccc2)CC1 (protonated)
O=c1c2ccccc2nc(/C=C/c2cccnc2)n1CCC[NH+]1CCN(c2ccccc2)CC1 (cis-trans isomerization)
O=c1c2ccccc2nc(/C=C/c2cccnc2)n1CCC[NH+]1CCN(c2ccccc2)CC1 (3D coordinates assigned)
O=c1c2ccccc2nc(/C=C/c2cccnc2)n1CCC[NH+]1CCN(c2ccccc2)CC1 (nonaromatic ring conformer: 93.05114730382124 kcal/mol)

>  <smiles>  (63) 
O=c1c2ccccc2nc(/C=C/c2cccnc2)n1CCCN1CCN(c2ccccc2)CC1

>  <score_type>  (63) 
oracle

>  <origin>  (63) 
autodockgpu

>  <m_score__min__energy>  (63) 
-9.2599999999999998

>  <m_primary>  (63) 
energy

>  <meeko>  (63) 
{"free_energy": -8.42, "intermolecular_energy": -10.8, "internal_energy": -2.44, "cluster_size": 13, "cluster_id": 2, "rank_in_cluster": 12}

>  <energy>  (63) 
-9.21

>  <cluster_rmsd>  (63) 
1.49

>  <rmsd>  (63) 
270.35

>  <cluster>  (63) 
1

$$$$
IETZWVUTNAYKDK-WGYGGNGENA-O
     RDKit          3D

 64 68  0  0  0  0  0  0  0  0999 V2000
  137.7900   80.1483  222.4987 H   0  0  0  0  0  0  0  0  0  0  0  0
  138.6760   79.5830  222.1740 C   0  0  0  0  0  0  0  0  0  0  0  0
  138.4960   78.5120  221.3850 C   0  0  0  0  0  0  0  0  0  0  0  0
  137.5487   78.4110  220.8350 H   0  0  0  0  0  0  0  0  0  0  0  0
  139.5370   77.4530  221.2280 C   0  0  0  0  0  0  0  0  0  0  0  0
  140.6050   77.7400  220.4350 N   0  0  0  0  0  0  0  0  0  0  0  0
  141.5920   76.8500  220.1940 C   0  0  0  0  0  0  0  0  0  0  0  0
  142.6680   77.2020  219.3710 C   0  0  0  0  0  0  0  0  0  0  0  0
  142.7132   78.2064  218.9247 H   0  0  0  0  0  0  0  0  0  0  0  0
  143.6850   76.2780  219.1160 C   0  0  0  0  0  0  0  0  0  0  0  0
  144.5310   76.5562  218.4703 H   0  0  0  0  0  0  0  0  0  0  0  0
  143.6280   75.0000  219.6810 C   0  0  0  0  0  0  0  0  0  0  0  0
  144.4290   74.2738  219.4786 H   0  0  0  0  0  0  0  0  0  0  0  0
  142.5540   74.6440  220.5030 C   0  0  0  0  0  0  0  0  0  0  0  0
  142.5110   73.6376  220.9450 H   0  0  0  0  0  0  0  0  0  0  0  0
  141.5270   75.5720  220.7660 C   0  0  0  0  0  0  0  0  0  0  0  0
  140.4270   75.2670  221.5850 C   0  0  0  0  0  0  0  0  0  0  0  0
  140.3480   74.1150  222.1010 O   0  0  0  0  0  0  0  0  0  0  0  0
  139.4450   76.2050  221.8260 N   0  0  0  0  0  0  0  0  0  0  0  0
  138.3120   75.8180  222.7000 C   0  0  0  0  0  0  0  0  0  0  0  0
  138.6507   75.0372  223.3968 H   0  0  0  0  0  0  0  0  0  0  0  0
  137.9774   76.7147  223.2422 H   0  0  0  0  0  0  0  0  0  0  0  0
  137.1200   75.2780  221.8880 C   0  0  0  0  0  0  0  0  0  0  0  0
  136.2455   75.2057  222.5514 H   0  0  0  0  0  0  0  0  0  0  0  0
  136.9408   75.9743  221.0555 H   0  0  0  0  0  0  0  0  0  0  0  0
  137.3970   73.8880  221.2830 C   0  0  0  0  0  0  0  0  0  0  0  0
  136.4442   73.4568  220.9422 H   0  0  0  0  0  0  0  0  0  0  0  0
  138.1041   74.0237  220.4514 H   0  0  0  0  0  0  0  0  0  0  0  0
  138.0210   72.9530  222.2520 N   0  0  0  0  0  0  0  0  0  0  0  0
  138.6450   73.5030  222.8920 H   0  0  0  0  0  0  0  0  0  0  0  0
  136.9620   72.3240  223.0880 C   0  0  0  0  0  0  0  0  0  0  0  0
  136.6782   73.0323  223.8803 H   0  0  0  0  0  0  0  0  0  0  0  0
  136.1223   72.0857  222.4186 H   0  0  0  0  0  0  0  0  0  0  0  0
  137.4010   71.0010  223.7510 C   0  0  0  0  0  0  0  0  0  0  0  0
  136.9850   70.9521  224.7681 H   0  0  0  0  0  0  0  0  0  0  0  0
  137.0290   70.1624  223.1441 H   0  0  0  0  0  0  0  0  0  0  0  0
  138.8620   70.9150  223.8250 N   0  0  0  0  0  0  0  0  0  0  0  0
  139.5260   70.6110  225.0670 C   0  0  0  0  0  0  0  0  0  0  0  0
  140.4500   71.5150  225.6200 C   0  0  0  0  0  0  0  0  0  0  0  0
  140.6800   72.4534  225.0942 H   0  0  0  0  0  0  0  0  0  0  0  0
  141.0780   71.2260  226.8360 C   0  0  0  0  0  0  0  0  0  0  0  0
  141.8069   71.9328  227.2592 H   0  0  0  0  0  0  0  0  0  0  0  0
  140.7810   70.0410  227.5140 C   0  0  0  0  0  0  0  0  0  0  0  0
  141.2737   69.8175  228.4718 H   0  0  0  0  0  0  0  0  0  0  0  0
  139.8580   69.1390  226.9760 C   0  0  0  0  0  0  0  0  0  0  0  0
  139.6257   68.2058  227.5100 H   0  0  0  0  0  0  0  0  0  0  0  0
  139.2300   69.4230  225.7590 C   0  0  0  0  0  0  0  0  0  0  0  0
  138.5008   68.7135  225.3409 H   0  0  0  0  0  0  0  0  0  0  0  0
  139.6440   71.1190  222.5990 C   0  0  0  0  0  0  0  0  0  0  0  0
  140.5639   71.6699  222.8444 H   0  0  0  0  0  0  0  0  0  0  0  0
  139.8917   70.1374  222.1688 H   0  0  0  0  0  0  0  0  0  0  0  0
  138.8340   71.9220  221.5680 C   0  0  0  0  0  0  0  0  0  0  0  0
  139.5237   72.4104  220.8638 H   0  0  0  0  0  0  0  0  0  0  0  0
  138.1656   71.2387  221.0236 H   0  0  0  0  0  0  0  0  0  0  0  0
  140.0100   80.0410  222.6290 C   0  0  0  0  0  0  0  0  0  0  0  0
  140.5600   81.2760  222.2360 C   0  0  0  0  0  0  0  0  0  0  0  0
  139.9846   81.9492  221.5835 H   0  0  0  0  0  0  0  0  0  0  0  0
  141.8000   81.6400  222.6600 N   0  0  0  0  0  0  0  0  0  0  0  0
  142.5470   80.8380  223.4640 C   0  0  0  0  0  0  0  0  0  0  0  0
  143.5419   81.1671  223.7983 H   0  0  0  0  0  0  0  0  0  0  0  0
  142.0510   79.5970  223.8650 C   0  0  0  0  0  0  0  0  0  0  0  0
  142.6530   78.9404  224.5103 H   0  0  0  0  0  0  0  0  0  0  0  0
  140.7830   79.1970  223.4390 C   0  0  0  0  0  0  0  0  0  0  0  0
  140.3887   78.2153  223.7402 H   0  0  0  0  0  0  0  0  0  0  0  0
  1  2  1  0
  2  3  2  0
  3  4  1  0
  3  5  1  0
  5  6  2  0
  6  7  1  0
  7  8  2  0
  8  9  1  0
  8 10  1  0
 10 11  1  0
 10 12  2  0
 12 13  1  0
 12 14  1  0
 14 15  1  0
 14 16  2  0
 16 17  1  0
 17 18  2  0
 17 19  1  0
 19 20  1  0
 20 21  1  0
 20 22  1  0
 20 23  1  0
 23 24  1  0
 23 25  1  0
 23 26  1  0
 26 27  1  0
 26 28  1  0
 26 29  1  0
 29 30  1  0
 29 31  1  0
 31 32  1  0
 31 33  1  0
 31 34  1  0
 34 35  1  0
 34 36  1  0
 34 37  1  0
 37 38  1  0
 38 39  2  0
 39 40  1  0
 39 41  1  0
 41 42  1  0
 41 43  2  0
 43 44  1  0
 43 45  1  0
 45 46  1  0
 45 47  2  0
 47 48  1  0
 37 49  1  0
 49 50  1  0
 49 51  1  0
 49 52  1  0
 52 53  1  0
 52 54  1  0
  2 55  1  0
 55 56  2  0
 56 57  1  0
 56 58  1  0
 58 59  2  0
 59 60  1  0
 59 61  1  0
 61 62  1  0
 61 63  2  0
 63 64  1  0
 19  5  1  0
 52 29  1  0
 63 55  1  0
 16  7  1  0
 47 38  1  0
M  CHG  1  29   1
M  END
>  <UniqueID>  (64) 
607

>  <SMILES>  (64) 
O=c1c2ccccc2nc(/C=C/c2cccnc2)n1CCC[NH+]1CCN(c2ccccc2)CC1

>  <Energy>  (64) 
93.05114730382124

>  <Genealogy>  (64) 
O=c1c2ccccc2nc(/C=C/c2cccnc2)n1CCC[NH+]1CCN(c2ccccc2)CC1 (protonated)
O=c1c2ccccc2nc(/C=C/c2cccnc2)n1CCC[NH+]1CCN(c2ccccc2)CC1 (cis-trans isomerization)
O=c1c2ccccc2nc(/C=C/c2cccnc2)n1CCC[NH+]1CCN(c2ccccc2)CC1 (3D coordinates assigned)
O=c1c2ccccc2nc(/C=C/c2cccnc2)n1CCC[NH+]1CCN(c2ccccc2)CC1 (nonaromatic ring conformer: 93.05114730382124 kcal/mol)

>  <smiles>  (64) 
O=c1c2ccccc2nc(/C=C/c2cccnc2)n1CCCN1CCN(c2ccccc2)CC1

>  <score_type>  (64) 
oracle

>  <origin>  (64) 
autodockgpu

>  <m_score__min__energy>  (64) 
-9.2599999999999998

>  <m_primary>  (64) 
energy

>  <meeko>  (64) 
{"free_energy": -9.03, "intermolecular_energy": -11.41, "internal_energy": -2.23, "cluster_size": 13, "cluster_id": 2, "rank_in_cluster": 1}

>  <energy>  (64) 
-9.16

>  <cluster_rmsd>  (64) 
0.22

>  <rmsd>  (64) 
269.95

>  <cluster>  (64) 
1

$$$$
IETZWVUTNAYKDK-WGYGGNGENA-O
     RDKit          3D

 64 68  0  0  0  0  0  0  0  0999 V2000
  137.8469   80.1564  222.4887 H   0  0  0  0  0  0  0  0  0  0  0  0
  138.7280   79.5640  222.2010 C   0  0  0  0  0  0  0  0  0  0  0  0
  138.5510   78.5090  221.3910 C   0  0  0  0  0  0  0  0  0  0  0  0
  137.6114   78.4259  220.8252 H   0  0  0  0  0  0  0  0  0  0  0  0
  139.5850   77.4440  221.2310 C   0  0  0  0  0  0  0  0  0  0  0  0
  140.6440   77.7180  220.4200 N   0  0  0  0  0  0  0  0  0  0  0  0
  141.6230   76.8210  220.1750 C   0  0  0  0  0  0  0  0  0  0  0  0
  142.6900   77.1610  219.3340 C   0  0  0  0  0  0  0  0  0  0  0  0
  142.7338   78.1611  218.8781 H   0  0  0  0  0  0  0  0  0  0  0  0
  143.6990   76.2300  219.0740 C   0  0  0  0  0  0  0  0  0  0  0  0
  144.5367   76.4978  218.4133 H   0  0  0  0  0  0  0  0  0  0  0  0
  143.6450   74.9580  219.6530 C   0  0  0  0  0  0  0  0  0  0  0  0
  144.4404   74.2266  219.4474 H   0  0  0  0  0  0  0  0  0  0  0  0
  142.5810   74.6150  220.4930 C   0  0  0  0  0  0  0  0  0  0  0  0
  142.5400   73.6133  220.9456 H   0  0  0  0  0  0  0  0  0  0  0  0
  141.5610   75.5500  220.7610 C   0  0  0  0  0  0  0  0  0  0  0  0
  140.4710   75.2580  221.5980 C   0  0  0  0  0  0  0  0  0  0  0  0
  140.3940   74.1120  222.1260 O   0  0  0  0  0  0  0  0  0  0  0  0
  139.4970   76.2030  221.8420 N   0  0  0  0  0  0  0  0  0  0  0  0
  138.3730   75.8290  222.7360 C   0  0  0  0  0  0  0  0  0  0  0  0
  138.7196   75.0583  223.4402 H   0  0  0  0  0  0  0  0  0  0  0  0
  138.0451   76.7336  223.2691 H   0  0  0  0  0  0  0  0  0  0  0  0
  137.1720   75.2780  221.9460 C   0  0  0  0  0  0  0  0  0  0  0  0
  136.3130   75.1893  222.6274 H   0  0  0  0  0  0  0  0  0  0  0  0
  136.9663   75.9774  221.1223 H   0  0  0  0  0  0  0  0  0  0  0  0
  137.4540   73.8960  221.3250 C   0  0  0  0  0  0  0  0  0  0  0  0
  136.5062   73.4751  220.9582 H   0  0  0  0  0  0  0  0  0  0  0  0
  138.1781   74.0400  220.5095 H   0  0  0  0  0  0  0  0  0  0  0  0
  138.0530   72.9440  222.2930 N   0  0  0  0  0  0  0  0  0  0  0  0
  138.6720   73.4800  222.9500 H   0  0  0  0  0  0  0  0  0  0  0  0
  136.9750   72.3140  223.1040 C   0  0  0  0  0  0  0  0  0  0  0  0
  136.6857   73.0145  223.9013 H   0  0  0  0  0  0  0  0  0  0  0  0
  136.1440   72.0927  222.4181 H   0  0  0  0  0  0  0  0  0  0  0  0
  137.3900   70.9780  223.7560 C   0  0  0  0  0  0  0  0  0  0  0  0
  136.9564   70.9188  224.7652 H   0  0  0  0  0  0  0  0  0  0  0  0
  137.0205   70.1507  223.1322 H   0  0  0  0  0  0  0  0  0  0  0  0
  138.8490   70.8790  223.8530 N   0  0  0  0  0  0  0  0  0  0  0  0
  139.4900   70.5520  225.1020 C   0  0  0  0  0  0  0  0  0  0  0  0
  139.2610   69.3080  225.7150 C   0  0  0  0  0  0  0  0  0  0  0  0
  138.5767   68.5850  225.2471 H   0  0  0  0  0  0  0  0  0  0  0  0
  139.8990   68.9850  226.9170 C   0  0  0  0  0  0  0  0  0  0  0  0
  139.7079   68.0138  227.3968 H   0  0  0  0  0  0  0  0  0  0  0  0
  140.7790   69.8950  227.5090 C   0  0  0  0  0  0  0  0  0  0  0  0
  141.2826   69.6380  228.4526 H   0  0  0  0  0  0  0  0  0  0  0  0
  141.0200   71.1320  226.9030 C   0  0  0  0  0  0  0  0  0  0  0  0
  141.7130   71.8474  227.3700 H   0  0  0  0  0  0  0  0  0  0  0  0
  140.3800   71.4600  225.7030 C   0  0  0  0  0  0  0  0  0  0  0  0
  140.5738   72.4327  225.2273 H   0  0  0  0  0  0  0  0  0  0  0  0
  139.6530   71.0900  222.6430 C   0  0  0  0  0  0  0  0  0  0  0  0
  140.5740   71.6289  222.9103 H   0  0  0  0  0  0  0  0  0  0  0  0
  139.8985   70.1113  222.2050 H   0  0  0  0  0  0  0  0  0  0  0  0
  138.8680   71.9130  221.6090 C   0  0  0  0  0  0  0  0  0  0  0  0
  139.5737   72.4033  220.9224 H   0  0  0  0  0  0  0  0  0  0  0  0
  138.2024   71.2429  221.0451 H   0  0  0  0  0  0  0  0  0  0  0  0
  140.0530   79.9700  222.7270 C   0  0  0  0  0  0  0  0  0  0  0  0
  140.7840   79.1740  223.6310 C   0  0  0  0  0  0  0  0  0  0  0  0
  140.3831   78.2018  223.9537 H   0  0  0  0  0  0  0  0  0  0  0  0
  141.9840   79.6040  224.1060 N   0  0  0  0  0  0  0  0  0  0  0  0
  142.5160   80.7980  223.7360 C   0  0  0  0  0  0  0  0  0  0  0  0
  143.4951   81.1097  224.1286 H   0  0  0  0  0  0  0  0  0  0  0  0
  141.8190   81.6290  222.8570 C   0  0  0  0  0  0  0  0  0  0  0  0
  142.2403   82.6006  222.5596 H   0  0  0  0  0  0  0  0  0  0  0  0
  140.5820   81.2150  222.3590 C   0  0  0  0  0  0  0  0  0  0  0  0
  140.0203   81.8684  221.6752 H   0  0  0  0  0  0  0  0  0  0  0  0
  1  2  1  0
  2  3  2  0
  3  4  1  0
  3  5  1  0
  5  6  2  0
  6  7  1  0
  7  8  2  0
  8  9  1  0
  8 10  1  0
 10 11  1  0
 10 12  2  0
 12 13  1  0
 12 14  1  0
 14 15  1  0
 14 16  2  0
 16 17  1  0
 17 18  2  0
 17 19  1  0
 19 20  1  0
 20 21  1  0
 20 22  1  0
 20 23  1  0
 23 24  1  0
 23 25  1  0
 23 26  1  0
 26 27  1  0
 26 28  1  0
 26 29  1  0
 29 30  1  0
 29 31  1  0
 31 32  1  0
 31 33  1  0
 31 34  1  0
 34 35  1  0
 34 36  1  0
 34 37  1  0
 37 38  1  0
 38 39  2  0
 39 40  1  0
 39 41  1  0
 41 42  1  0
 41 43  2  0
 43 44  1  0
 43 45  1  0
 45 46  1  0
 45 47  2  0
 47 48  1  0
 37 49  1  0
 49 50  1  0
 49 51  1  0
 49 52  1  0
 52 53  1  0
 52 54  1  0
  2 55  1  0
 55 56  2  0
 56 57  1  0
 56 58  1  0
 58 59  2  0
 59 60  1  0
 59 61  1  0
 61 62  1  0
 61 63  2  0
 63 64  1  0
 19  5  1  0
 52 29  1  0
 63 55  1  0
 16  7  1  0
 47 38  1  0
M  CHG  1  29   1
M  END
>  <UniqueID>  (65) 
607

>  <SMILES>  (65) 
O=c1c2ccccc2nc(/C=C/c2cccnc2)n1CCC[NH+]1CCN(c2ccccc2)CC1

>  <Energy>  (65) 
93.05114730382124

>  <Genealogy>  (65) 
O=c1c2ccccc2nc(/C=C/c2cccnc2)n1CCC[NH+]1CCN(c2ccccc2)CC1 (protonated)
O=c1c2ccccc2nc(/C=C/c2cccnc2)n1CCC[NH+]1CCN(c2ccccc2)CC1 (cis-trans isomerization)
O=c1c2ccccc2nc(/C=C/c2cccnc2)n1CCC[NH+]1CCN(c2ccccc2)CC1 (3D coordinates assigned)
O=c1c2ccccc2nc(/C=C/c2cccnc2)n1CCC[NH+]1CCN(c2ccccc2)CC1 (nonaromatic ring conformer: 93.05114730382124 kcal/mol)

>  <smiles>  (65) 
O=c1c2ccccc2nc(/C=C/c2cccnc2)n1CCCN1CCN(c2ccccc2)CC1

>  <score_type>  (65) 
oracle

>  <origin>  (65) 
autodockgpu

>  <m_score__min__energy>  (65) 
-9.2599999999999998

>  <m_primary>  (65) 
energy

>  <meeko>  (65) 
{"free_energy": -8.94, "intermolecular_energy": -11.32, "internal_energy": -2.22, "cluster_size": 13, "cluster_id": 2, "rank_in_cluster": 5}

>  <energy>  (65) 
-8.9

>  <cluster_rmsd>  (65) 
1.79

>  <rmsd>  (65) 
270.03

>  <cluster>  (65) 
1

$$$$
IETZWVUTNAYKDK-WGYGGNGENA-O
     RDKit          3D

 64 68  0  0  0  0  0  0  0  0999 V2000
  141.5039   78.1709  219.6650 H   0  0  0  0  0  0  0  0  0  0  0  0
  141.3020   77.8120  220.6850 C   0  0  0  0  0  0  0  0  0  0  0  0
  140.7310   76.6070  220.8360 C   0  0  0  0  0  0  0  0  0  0  0  0
  139.7089   76.5502  221.2386 H   0  0  0  0  0  0  0  0  0  0  0  0
  141.4360   75.3400  220.4760 C   0  0  0  0  0  0  0  0  0  0  0  0
  142.7620   75.2580  220.7680 N   0  0  0  0  0  0  0  0  0  0  0  0
  143.5090   74.1750  220.4600 C   0  0  0  0  0  0  0  0  0  0  0  0
  144.8700   74.1460  220.7890 C   0  0  0  0  0  0  0  0  0  0  0  0
  145.3297   75.0020  221.3046 H   0  0  0  0  0  0  0  0  0  0  0  0
  145.6440   73.0290  220.4620 C   0  0  0  0  0  0  0  0  0  0  0  0
  146.7130   73.0067  220.7203 H   0  0  0  0  0  0  0  0  0  0  0  0
  145.0610   71.9400  219.8070 C   0  0  0  0  0  0  0  0  0  0  0  0
  145.6718   71.0617  219.5511 H   0  0  0  0  0  0  0  0  0  0  0  0
  143.7030   71.9660  219.4770 C   0  0  0  0  0  0  0  0  0  0  0  0
  143.2478   71.1081  218.9605 H   0  0  0  0  0  0  0  0  0  0  0  0
  142.9150   73.0880  219.8040 C   0  0  0  0  0  0  0  0  0  0  0  0
  141.5470   73.1650  219.4970 C   0  0  0  0  0  0  0  0  0  0  0  0
  140.9980   72.1970  218.8970 O   0  0  0  0  0  0  0  0  0  0  0  0
  140.8090   74.2780  219.8420 N   0  0  0  0  0  0  0  0  0  0  0  0
  139.3680   74.2940  219.4880 C   0  0  0  0  0  0  0  0  0  0  0  0
  139.1703   75.1603  218.8396 H   0  0  0  0  0  0  0  0  0  0  0  0
  139.1324   73.3516  218.9719 H   0  0  0  0  0  0  0  0  0  0  0  0
  138.4730   74.3920  220.7370 C   0  0  0  0  0  0  0  0  0  0  0  0
  139.0754   74.7776  221.5727 H   0  0  0  0  0  0  0  0  0  0  0  0
  137.6366   75.0645  220.4957 H   0  0  0  0  0  0  0  0  0  0  0  0
  137.8750   73.0310  221.1460 C   0  0  0  0  0  0  0  0  0  0  0  0
  136.8136   73.1743  221.3967 H   0  0  0  0  0  0  0  0  0  0  0  0
  138.0038   72.3434  220.2971 H   0  0  0  0  0  0  0  0  0  0  0  0
  138.5620   72.4310  222.3160 N   0  0  0  0  0  0  0  0  0  0  0  0
  138.5870   73.1400  223.0890 H   0  0  0  0  0  0  0  0  0  0  0  0
  137.7820   71.2600  222.8040 C   0  0  0  0  0  0  0  0  0  0  0  0
  136.9503   71.6296  223.4219 H   0  0  0  0  0  0  0  0  0  0  0  0
  137.4334   70.7127  221.9158 H   0  0  0  0  0  0  0  0  0  0  0  0
  138.6130   70.2700  223.6470 C   0  0  0  0  0  0  0  0  0  0  0  0
  137.9963   69.8983  224.4786 H   0  0  0  0  0  0  0  0  0  0  0  0
  138.9289   69.4366  223.0023 H   0  0  0  0  0  0  0  0  0  0  0  0
  139.8070   70.9230  224.1890 N   0  0  0  0  0  0  0  0  0  0  0  0
  140.1200   70.8500  225.5950 C   0  0  0  0  0  0  0  0  0  0  0  0
  140.8470   71.8800  226.2160 C   0  0  0  0  0  0  0  0  0  0  0  0
  141.1935   72.7396  225.6236 H   0  0  0  0  0  0  0  0  0  0  0  0
  141.1320   71.8170  227.5840 C   0  0  0  0  0  0  0  0  0  0  0  0
  141.7079   72.6226  228.0628 H   0  0  0  0  0  0  0  0  0  0  0  0
  140.6860   70.7320  228.3430 C   0  0  0  0  0  0  0  0  0  0  0  0
  140.9101   70.6848  229.4189 H   0  0  0  0  0  0  0  0  0  0  0  0
  139.9550   69.7060  227.7360 C   0  0  0  0  0  0  0  0  0  0  0  0
  139.6039   68.8527  228.3349 H   0  0  0  0  0  0  0  0  0  0  0  0
  139.6700   69.7640  226.3680 C   0  0  0  0  0  0  0  0  0  0  0  0
  139.0915   68.9571  225.8944 H   0  0  0  0  0  0  0  0  0  0  0  0
  140.7020   71.6370  223.2690 C   0  0  0  0  0  0  0  0  0  0  0  0
  141.0817   72.5430  223.7639 H   0  0  0  0  0  0  0  0  0  0  0  0
  141.5368   70.9736  222.9990 H   0  0  0  0  0  0  0  0  0  0  0  0
  139.9520   72.0370  221.9890 C   0  0  0  0  0  0  0  0  0  0  0  0
  140.4684   72.8844  221.5144 H   0  0  0  0  0  0  0  0  0  0  0  0
  139.9308   71.1790  221.3009 H   0  0  0  0  0  0  0  0  0  0  0  0
  141.6740   78.6830  221.8250 C   0  0  0  0  0  0  0  0  0  0  0  0
  141.4830   78.2970  223.1660 C   0  0  0  0  0  0  0  0  0  0  0  0
  141.0623   77.3072  223.3968 H   0  0  0  0  0  0  0  0  0  0  0  0
  141.8170   79.1440  224.1770 N   0  0  0  0  0  0  0  0  0  0  0  0
  142.3350   80.3770  223.9370 C   0  0  0  0  0  0  0  0  0  0  0  0
  142.6047   81.0332  224.7776 H   0  0  0  0  0  0  0  0  0  0  0  0
  142.5250   80.8110  222.6250 C   0  0  0  0  0  0  0  0  0  0  0  0
  142.9382   81.8106  222.4247 H   0  0  0  0  0  0  0  0  0  0  0  0
  142.1850   79.9630  221.5680 C   0  0  0  0  0  0  0  0  0  0  0  0
  142.3188   80.3010  220.5298 H   0  0  0  0  0  0  0  0  0  0  0  0
  1  2  1  0
  2  3  2  0
  3  4  1  0
  3  5  1  0
  5  6  2  0
  6  7  1  0
  7  8  2  0
  8  9  1  0
  8 10  1  0
 10 11  1  0
 10 12  2  0
 12 13  1  0
 12 14  1  0
 14 15  1  0
 14 16  2  0
 16 17  1  0
 17 18  2  0
 17 19  1  0
 19 20  1  0
 20 21  1  0
 20 22  1  0
 20 23  1  0
 23 24  1  0
 23 25  1  0
 23 26  1  0
 26 27  1  0
 26 28  1  0
 26 29  1  0
 29 30  1  0
 29 31  1  0
 31 32  1  0
 31 33  1  0
 31 34  1  0
 34 35  1  0
 34 36  1  0
 34 37  1  0
 37 38  1  0
 38 39  2  0
 39 40  1  0
 39 41  1  0
 41 42  1  0
 41 43  2  0
 43 44  1  0
 43 45  1  0
 45 46  1  0
 45 47  2  0
 47 48  1  0
 37 49  1  0
 49 50  1  0
 49 51  1  0
 49 52  1  0
 52 53  1  0
 52 54  1  0
  2 55  1  0
 55 56  2  0
 56 57  1  0
 56 58  1  0
 58 59  2  0
 59 60  1  0
 59 61  1  0
 61 62  1  0
 61 63  2  0
 63 64  1  0
 19  5  1  0
 52 29  1  0
 63 55  1  0
 16  7  1  0
 47 38  1  0
M  CHG  1  29   1
M  END
>  <UniqueID>  (66) 
607

>  <SMILES>  (66) 
O=c1c2ccccc2nc(/C=C/c2cccnc2)n1CCC[NH+]1CCN(c2ccccc2)CC1

>  <Energy>  (66) 
93.05114730382124

>  <Genealogy>  (66) 
O=c1c2ccccc2nc(/C=C/c2cccnc2)n1CCC[NH+]1CCN(c2ccccc2)CC1 (protonated)
O=c1c2ccccc2nc(/C=C/c2cccnc2)n1CCC[NH+]1CCN(c2ccccc2)CC1 (cis-trans isomerization)
O=c1c2ccccc2nc(/C=C/c2cccnc2)n1CCC[NH+]1CCN(c2ccccc2)CC1 (3D coordinates assigned)
O=c1c2ccccc2nc(/C=C/c2cccnc2)n1CCC[NH+]1CCN(c2ccccc2)CC1 (nonaromatic ring conformer: 93.05114730382124 kcal/mol)

>  <smiles>  (66) 
O=c1c2ccccc2nc(/C=C/c2cccnc2)n1CCCN1CCN(c2ccccc2)CC1

>  <score_type>  (66) 
oracle

>  <origin>  (66) 
autodockgpu

>  <m_score__min__energy>  (66) 
-9.2599999999999998

>  <m_primary>  (66) 
energy

>  <meeko>  (66) 
{"free_energy": -8.9, "intermolecular_energy": -11.29, "internal_energy": -1.32, "cluster_size": 6, "cluster_id": 1, "rank_in_cluster": 5}

>  <energy>  (66) 
-8.37

>  <cluster_rmsd>  (66) 
0.92

>  <rmsd>  (66) 
269.96

>  <cluster>  (66) 
1

$$$$
IETZWVUTNAYKDK-WGYGGNGENA-O
     RDKit          3D

 64 68  0  0  0  0  0  0  0  0999 V2000
  137.8359   79.9914  222.6933 H   0  0  0  0  0  0  0  0  0  0  0  0
  138.7200   79.4720  222.2950 C   0  0  0  0  0  0  0  0  0  0  0  0
  138.5300   78.4030  221.5060 C   0  0  0  0  0  0  0  0  0  0  0  0
  137.5775   78.3052  220.9645 H   0  0  0  0  0  0  0  0  0  0  0  0
  139.5670   77.3420  221.3380 C   0  0  0  0  0  0  0  0  0  0  0  0
  140.6630   77.6510  220.5930 N   0  0  0  0  0  0  0  0  0  0  0  0
  141.6490   76.7620  220.3470 C   0  0  0  0  0  0  0  0  0  0  0  0
  142.7550   77.1380  219.5750 C   0  0  0  0  0  0  0  0  0  0  0  0
  142.8237   78.1599  219.1738 H   0  0  0  0  0  0  0  0  0  0  0  0
  143.7720   76.2150  219.3140 C   0  0  0  0  0  0  0  0  0  0  0  0
  144.6410   76.5112  218.7081 H   0  0  0  0  0  0  0  0  0  0  0  0
  143.6850   74.9150  219.8230 C   0  0  0  0  0  0  0  0  0  0  0  0
  144.4857   74.1897  219.6163 H   0  0  0  0  0  0  0  0  0  0  0  0
  142.5820   74.5360  220.5940 C   0  0  0  0  0  0  0  0  0  0  0  0
  142.5163   73.5125  220.9917 H   0  0  0  0  0  0  0  0  0  0  0  0
  141.5540   75.4620  220.8630 C   0  0  0  0  0  0  0  0  0  0  0  0
  140.4260   75.1340  221.6320 C   0  0  0  0  0  0  0  0  0  0  0  0
  140.3200   73.9620  222.0960 O   0  0  0  0  0  0  0  0  0  0  0  0
  139.4450   76.0710  221.8790 N   0  0  0  0  0  0  0  0  0  0  0  0
  138.2790   75.6580  222.7000 C   0  0  0  0  0  0  0  0  0  0  0  0
  138.5862   74.8404  223.3688 H   0  0  0  0  0  0  0  0  0  0  0  0
  137.9386   76.5321  223.2745 H   0  0  0  0  0  0  0  0  0  0  0  0
  137.1080   75.1740  221.8270 C   0  0  0  0  0  0  0  0  0  0  0  0
  136.1893   75.1860  222.4318 H   0  0  0  0  0  0  0  0  0  0  0  0
  137.0343   75.8513  220.9634 H   0  0  0  0  0  0  0  0  0  0  0  0
  137.3230   73.7470  221.2840 C   0  0  0  0  0  0  0  0  0  0  0  0
  136.3463   73.3272  221.0014 H   0  0  0  0  0  0  0  0  0  0  0  0
  138.0004   73.8188  220.4203 H   0  0  0  0  0  0  0  0  0  0  0  0
  137.9580   72.8450  222.2780 N   0  0  0  0  0  0  0  0  0  0  0  0
  138.6070   73.4110  222.8760 H   0  0  0  0  0  0  0  0  0  0  0  0
  136.9110   72.2720  223.1680 C   0  0  0  0  0  0  0  0  0  0  0  0
  136.6604   73.0191  223.9355 H   0  0  0  0  0  0  0  0  0  0  0  0
  136.0499   72.0201  222.5315 H   0  0  0  0  0  0  0  0  0  0  0  0
  137.3450   70.9710  223.8770 C   0  0  0  0  0  0  0  0  0  0  0  0
  136.9558   70.9737  224.9059 H   0  0  0  0  0  0  0  0  0  0  0  0
  136.9425   70.1133  223.3181 H   0  0  0  0  0  0  0  0  0  0  0  0
  138.8060   70.8630  223.9160 N   0  0  0  0  0  0  0  0  0  0  0  0
  139.4980   70.6010  225.1530 C   0  0  0  0  0  0  0  0  0  0  0  0
  140.4300   71.5260  225.6560 C   0  0  0  0  0  0  0  0  0  0  0  0
  140.6449   72.4472  225.0945 H   0  0  0  0  0  0  0  0  0  0  0  0
  141.0850   71.2800  226.8670 C   0  0  0  0  0  0  0  0  0  0  0  0
  141.8185   72.0039  227.2516 H   0  0  0  0  0  0  0  0  0  0  0  0
  140.8090   70.1160  227.5890 C   0  0  0  0  0  0  0  0  0  0  0  0
  141.3253   69.9247  228.5413 H   0  0  0  0  0  0  0  0  0  0  0  0
  139.8770   69.1940  227.1020 C   0  0  0  0  0  0  0  0  0  0  0  0
  139.6591   68.2787  227.6719 H   0  0  0  0  0  0  0  0  0  0  0  0
  139.2220   69.4360  225.8900 C   0  0  0  0  0  0  0  0  0  0  0  0
  138.4868   68.7107  225.5114 H   0  0  0  0  0  0  0  0  0  0  0  0
  139.5580   70.9990  222.6630 C   0  0  0  0  0  0  0  0  0  0  0  0
  140.4931   71.5438  222.8598 H   0  0  0  0  0  0  0  0  0  0  0  0
  139.7781   69.9953  222.2705 H   0  0  0  0  0  0  0  0  0  0  0  0
  138.7340   71.7700  221.6190 C   0  0  0  0  0  0  0  0  0  0  0  0
  139.4123   72.2140  220.8755 H   0  0  0  0  0  0  0  0  0  0  0  0
  138.0394   71.0757  221.1236 H   0  0  0  0  0  0  0  0  0  0  0  0
  140.0610   79.9870  222.6560 C   0  0  0  0  0  0  0  0  0  0  0  0
  140.5930   81.1680  222.1010 C   0  0  0  0  0  0  0  0  0  0  0  0
  139.9967   81.7548  221.3868 H   0  0  0  0  0  0  0  0  0  0  0  0
  141.8410   81.5850  222.4450 N   0  0  0  0  0  0  0  0  0  0  0  0
  142.6130   80.8900  223.3200 C   0  0  0  0  0  0  0  0  0  0  0  0
  143.6136   81.2617  223.5859 H   0  0  0  0  0  0  0  0  0  0  0  0
  142.1370   79.7040  223.8820 C   0  0  0  0  0  0  0  0  0  0  0  0
  142.7603   79.1331  224.5860 H   0  0  0  0  0  0  0  0  0  0  0  0
  140.8610   79.2500  223.5410 C   0  0  0  0  0  0  0  0  0  0  0  0
  140.4818   78.3101  223.9686 H   0  0  0  0  0  0  0  0  0  0  0  0
  1  2  1  0
  2  3  2  0
  3  4  1  0
  3  5  1  0
  5  6  2  0
  6  7  1  0
  7  8  2  0
  8  9  1  0
  8 10  1  0
 10 11  1  0
 10 12  2  0
 12 13  1  0
 12 14  1  0
 14 15  1  0
 14 16  2  0
 16 17  1  0
 17 18  2  0
 17 19  1  0
 19 20  1  0
 20 21  1  0
 20 22  1  0
 20 23  1  0
 23 24  1  0
 23 25  1  0
 23 26  1  0
 26 27  1  0
 26 28  1  0
 26 29  1  0
 29 30  1  0
 29 31  1  0
 31 32  1  0
 31 33  1  0
 31 34  1  0
 34 35  1  0
 34 36  1  0
 34 37  1  0
 37 38  1  0
 38 39  2  0
 39 40  1  0
 39 41  1  0
 41 42  1  0
 41 43  2  0
 43 44  1  0
 43 45  1  0
 45 46  1  0
 45 47  2  0
 47 48  1  0
 37 49  1  0
 49 50  1  0
 49 51  1  0
 49 52  1  0
 52 53  1  0
 52 54  1  0
  2 55  1  0
 55 56  2  0
 56 57  1  0
 56 58  1  0
 58 59  2  0
 59 60  1  0
 59 61  1  0
 61 62  1  0
 61 63  2  0
 63 64  1  0
 19  5  1  0
 52 29  1  0
 63 55  1  0
 16  7  1  0
 47 38  1  0
M  CHG  1  29   1
M  END
>  <UniqueID>  (67) 
607

>  <SMILES>  (67) 
O=c1c2ccccc2nc(/C=C/c2cccnc2)n1CCC[NH+]1CCN(c2ccccc2)CC1

>  <Energy>  (67) 
93.05114730382124

>  <Genealogy>  (67) 
O=c1c2ccccc2nc(/C=C/c2cccnc2)n1CCC[NH+]1CCN(c2ccccc2)CC1 (protonated)
O=c1c2ccccc2nc(/C=C/c2cccnc2)n1CCC[NH+]1CCN(c2ccccc2)CC1 (cis-trans isomerization)
O=c1c2ccccc2nc(/C=C/c2cccnc2)n1CCC[NH+]1CCN(c2ccccc2)CC1 (3D coordinates assigned)
O=c1c2ccccc2nc(/C=C/c2cccnc2)n1CCC[NH+]1CCN(c2ccccc2)CC1 (nonaromatic ring conformer: 93.05114730382124 kcal/mol)

>  <smiles>  (67) 
O=c1c2ccccc2nc(/C=C/c2cccnc2)n1CCCN1CCN(c2ccccc2)CC1

>  <score_type>  (67) 
oracle

>  <origin>  (67) 
autodockgpu

>  <m_score__min__energy>  (67) 
-9.2599999999999998

>  <m_primary>  (67) 
energy

>  <meeko>  (67) 
{"free_energy": -8.95, "intermolecular_energy": -11.33, "internal_energy": -2.29, "cluster_size": 13, "cluster_id": 2, "rank_in_cluster": 4}

>  <energy>  (67) 
-9.03

>  <cluster_rmsd>  (67) 
0.0

>  <rmsd>  (67) 
270.02

>  <cluster>  (67) 
2

$$$$
IETZWVUTNAYKDK-WGYGGNGENA-O
     RDKit          3D

 64 68  0  0  0  0  0  0  0  0999 V2000
  144.0934   75.9728  217.5067 H   0  0  0  0  0  0  0  0  0  0  0  0
  143.6150   75.3550  218.2810 C   0  0  0  0  0  0  0  0  0  0  0  0
  142.2940   75.4890  218.4780 C   0  0  0  0  0  0  0  0  0  0  0  0
  141.6017   75.1113  217.7111 H   0  0  0  0  0  0  0  0  0  0  0  0
  141.7320   76.1330  219.7020 C   0  0  0  0  0  0  0  0  0  0  0  0
  141.9690   77.4620  219.8740 N   0  0  0  0  0  0  0  0  0  0  0  0
  141.5390   78.1430  220.9580 C   0  0  0  0  0  0  0  0  0  0  0  0
  141.8110   79.5110  221.0790 C   0  0  0  0  0  0  0  0  0  0  0  0
  142.3701   80.0327  220.2883 H   0  0  0  0  0  0  0  0  0  0  0  0
  141.3720   80.2140  222.2050 C   0  0  0  0  0  0  0  0  0  0  0  0
  141.5866   81.2887  222.2998 H   0  0  0  0  0  0  0  0  0  0  0  0
  140.6610   79.5530  223.2100 C   0  0  0  0  0  0  0  0  0  0  0  0
  140.3155   80.1083  224.0944 H   0  0  0  0  0  0  0  0  0  0  0  0
  140.3880   78.1860  223.0930 C   0  0  0  0  0  0  0  0  0  0  0  0
  139.8302   77.6679  223.8870 H   0  0  0  0  0  0  0  0  0  0  0  0
  140.8260   77.4710  221.9600 C   0  0  0  0  0  0  0  0  0  0  0  0
  140.5780   76.1000  221.7920 C   0  0  0  0  0  0  0  0  0  0  0  0
  139.9450   75.4760  222.6920 O   0  0  0  0  0  0  0  0  0  0  0  0
  141.0160   75.4370  220.6640 N   0  0  0  0  0  0  0  0  0  0  0  0
  140.7190   73.9880  220.5490 C   0  0  0  0  0  0  0  0  0  0  0  0
  141.4766   73.5196  219.9035 H   0  0  0  0  0  0  0  0  0  0  0  0
  140.7373   73.5545  221.5598 H   0  0  0  0  0  0  0  0  0  0  0  0
  139.3260   73.7350  219.9460 C   0  0  0  0  0  0  0  0  0  0  0  0
  139.0465   74.6016  219.3288 H   0  0  0  0  0  0  0  0  0  0  0  0
  139.3840   72.8133  219.3485 H   0  0  0  0  0  0  0  0  0  0  0  0
  138.2430   73.5260  221.0230 C   0  0  0  0  0  0  0  0  0  0  0  0
  137.8971   74.5110  221.3696 H   0  0  0  0  0  0  0  0  0  0  0  0
  137.4282   72.9456  220.5655 H   0  0  0  0  0  0  0  0  0  0  0  0
  138.7370   72.7580  222.1930 N   0  0  0  0  0  0  0  0  0  0  0  0
  139.2650   73.4110  222.8220 H   0  0  0  0  0  0  0  0  0  0  0  0
  137.5790   72.2260  222.9630 C   0  0  0  0  0  0  0  0  0  0  0  0
  137.1844   73.0322  223.5988 H   0  0  0  0  0  0  0  0  0  0  0  0
  136.8398   71.8714  222.2296 H   0  0  0  0  0  0  0  0  0  0  0  0
  137.9350   71.0240  223.8640 C   0  0  0  0  0  0  0  0  0  0  0  0
  137.3853   71.1093  224.8130 H   0  0  0  0  0  0  0  0  0  0  0  0
  137.6557   70.0970  223.3419 H   0  0  0  0  0  0  0  0  0  0  0  0
  139.3730   70.9910  224.1430 N   0  0  0  0  0  0  0  0  0  0  0  0
  139.8650   70.8850  225.4940 C   0  0  0  0  0  0  0  0  0  0  0  0
  140.7020   71.8820  226.0250 C   0  0  0  0  0  0  0  0  0  0  0  0
  140.9965   72.7390  225.4014 H   0  0  0  0  0  0  0  0  0  0  0  0
  141.1620   71.7890  227.3430 C   0  0  0  0  0  0  0  0  0  0  0  0
  141.8226   72.5683  227.7507 H   0  0  0  0  0  0  0  0  0  0  0  0
  140.7830   70.7070  228.1420 C   0  0  0  0  0  0  0  0  0  0  0  0
  141.1455   70.6354  229.1781 H   0  0  0  0  0  0  0  0  0  0  0  0
  139.9440   69.7160  227.6260 C   0  0  0  0  0  0  0  0  0  0  0  0
  139.6450   68.8659  228.2568 H   0  0  0  0  0  0  0  0  0  0  0  0
  139.4840   69.8040  226.3080 C   0  0  0  0  0  0  0  0  0  0  0  0
  138.8209   69.0236  225.9065 H   0  0  0  0  0  0  0  0  0  0  0  0
  140.3130   71.0380  223.0160 C   0  0  0  0  0  0  0  0  0  0  0  0
  141.1863   71.6443  223.2983 H   0  0  0  0  0  0  0  0  0  0  0  0
  140.6259   70.0122  222.7714 H   0  0  0  0  0  0  0  0  0  0  0  0
  139.6430   71.6610  221.7800 C   0  0  0  0  0  0  0  0  0  0  0  0
  140.4173   72.0613  221.1090 H   0  0  0  0  0  0  0  0  0  0  0  0
  139.0595   70.8884  221.2579 H   0  0  0  0  0  0  0  0  0  0  0  0
  144.4610   74.4160  219.0550 C   0  0  0  0  0  0  0  0  0  0  0  0
  145.2110   73.3940  218.4420 C   0  0  0  0  0  0  0  0  0  0  0  0
  145.1981   73.2854  217.3475 H   0  0  0  0  0  0  0  0  0  0  0  0
  145.9520   72.5400  219.2000 N   0  0  0  0  0  0  0  0  0  0  0  0
  145.9940   72.6370  220.5550 C   0  0  0  0  0  0  0  0  0  0  0  0
  146.6122   71.9381  221.1376 H   0  0  0  0  0  0  0  0  0  0  0  0
  145.2530   73.6230  221.2070 C   0  0  0  0  0  0  0  0  0  0  0  0
  145.2783   73.7024  222.3038 H   0  0  0  0  0  0  0  0  0  0  0  0
  144.4790   74.5080  220.4540 C   0  0  0  0  0  0  0  0  0  0  0  0
  143.8811   75.2803  220.9601 H   0  0  0  0  0  0  0  0  0  0  0  0
  1  2  1  0
  2  3  2  0
  3  4  1  0
  3  5  1  0
  5  6  2  0
  6  7  1  0
  7  8  2  0
  8  9  1  0
  8 10  1  0
 10 11  1  0
 10 12  2  0
 12 13  1  0
 12 14  1  0
 14 15  1  0
 14 16  2  0
 16 17  1  0
 17 18  2  0
 17 19  1  0
 19 20  1  0
 20 21  1  0
 20 22  1  0
 20 23  1  0
 23 24  1  0
 23 25  1  0
 23 26  1  0
 26 27  1  0
 26 28  1  0
 26 29  1  0
 29 30  1  0
 29 31  1  0
 31 32  1  0
 31 33  1  0
 31 34  1  0
 34 35  1  0
 34 36  1  0
 34 37  1  0
 37 38  1  0
 38 39  2  0
 39 40  1  0
 39 41  1  0
 41 42  1  0
 41 43  2  0
 43 44  1  0
 43 45  1  0
 45 46  1  0
 45 47  2  0
 47 48  1  0
 37 49  1  0
 49 50  1  0
 49 51  1  0
 49 52  1  0
 52 53  1  0
 52 54  1  0
  2 55  1  0
 55 56  2  0
 56 57  1  0
 56 58  1  0
 58 59  2  0
 59 60  1  0
 59 61  1  0
 61 62  1  0
 61 63  2  0
 63 64  1  0
 19  5  1  0
 52 29  1  0
 63 55  1  0
 16  7  1  0
 47 38  1  0
M  CHG  1  29   1
M  END
>  <UniqueID>  (68) 
607

>  <SMILES>  (68) 
O=c1c2ccccc2nc(/C=C/c2cccnc2)n1CCC[NH+]1CCN(c2ccccc2)CC1

>  <Energy>  (68) 
93.05114730382124

>  <Genealogy>  (68) 
O=c1c2ccccc2nc(/C=C/c2cccnc2)n1CCC[NH+]1CCN(c2ccccc2)CC1 (protonated)
O=c1c2ccccc2nc(/C=C/c2cccnc2)n1CCC[NH+]1CCN(c2ccccc2)CC1 (cis-trans isomerization)
O=c1c2ccccc2nc(/C=C/c2cccnc2)n1CCC[NH+]1CCN(c2ccccc2)CC1 (3D coordinates assigned)
O=c1c2ccccc2nc(/C=C/c2cccnc2)n1CCC[NH+]1CCN(c2ccccc2)CC1 (nonaromatic ring conformer: 93.05114730382124 kcal/mol)

>  <smiles>  (68) 
O=c1c2ccccc2nc(/C=C/c2cccnc2)n1CCCN1CCN(c2ccccc2)CC1

>  <score_type>  (68) 
oracle

>  <origin>  (68) 
autodockgpu

>  <m_score__min__energy>  (68) 
-9.2599999999999998

>  <m_primary>  (68) 
energy

>  <meeko>  (68) 
{"free_energy": -9.16, "intermolecular_energy": -11.55, "internal_energy": -1.83, "cluster_size": 6, "cluster_id": 1, "rank_in_cluster": 4}

>  <energy>  (68) 
-9.02

>  <cluster_rmsd>  (68) 
0.12

>  <rmsd>  (68) 
270.08

>  <cluster>  (68) 
2

$$$$
IETZWVUTNAYKDK-WGYGGNGENA-O
     RDKit          3D

 64 68  0  0  0  0  0  0  0  0999 V2000
  137.9963   80.1939  222.5120 H   0  0  0  0  0  0  0  0  0  0  0  0
  138.8140   79.5290  222.1970 C   0  0  0  0  0  0  0  0  0  0  0  0
  138.5060   78.4290  221.4920 C   0  0  0  0  0  0  0  0  0  0  0  0
  137.5657   78.4093  220.9216 H   0  0  0  0  0  0  0  0  0  0  0  0
  139.3970   77.2310  221.4560 C   0  0  0  0  0  0  0  0  0  0  0  0
  140.6000   77.3650  220.8360 N   0  0  0  0  0  0  0  0  0  0  0  0
  141.4740   76.3420  220.7140 C   0  0  0  0  0  0  0  0  0  0  0  0
  142.6990   76.5400  220.0660 C   0  0  0  0  0  0  0  0  0  0  0  0
  142.9532   77.5306  219.6608 H   0  0  0  0  0  0  0  0  0  0  0  0
  143.5990   75.4790  219.9340 C   0  0  0  0  0  0  0  0  0  0  0  0
  144.5622   75.6358  219.4264 H   0  0  0  0  0  0  0  0  0  0  0  0
  143.2770   74.2190  220.4460 C   0  0  0  0  0  0  0  0  0  0  0  0
  143.9866   73.3852  220.3398 H   0  0  0  0  0  0  0  0  0  0  0  0
  142.0540   74.0170  221.0930 C   0  0  0  0  0  0  0  0  0  0  0  0
  141.8032   73.0241  221.4945 H   0  0  0  0  0  0  0  0  0  0  0  0
  141.1420   75.0820  221.2320 C   0  0  0  0  0  0  0  0  0  0  0  0
  139.9020   74.9350  221.8740 C   0  0  0  0  0  0  0  0  0  0  0  0
  139.5820   73.8030  222.3380 O   0  0  0  0  0  0  0  0  0  0  0  0
  139.0400   76.0050  221.9970 N   0  0  0  0  0  0  0  0  0  0  0  0
  137.7450   75.7800  222.6860 C   0  0  0  0  0  0  0  0  0  0  0  0
  137.9084   75.1054  223.5393 H   0  0  0  0  0  0  0  0  0  0  0  0
  137.3620   76.7555  223.0203 H   0  0  0  0  0  0  0  0  0  0  0  0
  136.6990   75.1520  221.7480 C   0  0  0  0  0  0  0  0  0  0  0  0
  135.9721   75.9265  221.4621 H   0  0  0  0  0  0  0  0  0  0  0  0
  137.2331   74.7538  220.8727 H   0  0  0  0  0  0  0  0  0  0  0  0
  135.9410   73.9820  222.4040 C   0  0  0  0  0  0  0  0  0  0  0  0
  135.3444   74.3747  223.2406 H   0  0  0  0  0  0  0  0  0  0  0  0
  135.3070   73.5230  221.6311 H   0  0  0  0  0  0  0  0  0  0  0  0
  136.8480   72.9280  222.9220 N   0  0  0  0  0  0  0  0  0  0  0  0
  137.6740   73.3910  223.3740 H   0  0  0  0  0  0  0  0  0  0  0  0
  136.1460   72.1380  223.9710 C   0  0  0  0  0  0  0  0  0  0  0  0
  136.1850   72.7017  224.9147 H   0  0  0  0  0  0  0  0  0  0  0  0
  135.1159   71.9799  223.6191 H   0  0  0  0  0  0  0  0  0  0  0  0
  136.7600   70.7430  224.2110 C   0  0  0  0  0  0  0  0  0  0  0  0
  136.7371   70.5193  225.2878 H   0  0  0  0  0  0  0  0  0  0  0  0
  136.1732   69.9986  223.6528 H   0  0  0  0  0  0  0  0  0  0  0  0
  138.1470   70.6970  223.7400 N   0  0  0  0  0  0  0  0  0  0  0  0
  139.2060   70.2230  224.5950 C   0  0  0  0  0  0  0  0  0  0  0  0
  140.3100   71.0450  224.8820 C   0  0  0  0  0  0  0  0  0  0  0  0
  140.3742   72.0498  224.4391 H   0  0  0  0  0  0  0  0  0  0  0  0
  141.3270   70.5910  225.7280 C   0  0  0  0  0  0  0  0  0  0  0  0
  142.1923   71.2356  225.9419 H   0  0  0  0  0  0  0  0  0  0  0  0
  141.2450   69.3190  226.3020 C   0  0  0  0  0  0  0  0  0  0  0  0
  142.0446   68.9647  226.9692 H   0  0  0  0  0  0  0  0  0  0  0  0
  140.1480   68.4970  226.0290 C   0  0  0  0  0  0  0  0  0  0  0  0
  140.0849   67.4961  226.4809 H   0  0  0  0  0  0  0  0  0  0  0  0
  139.1300   68.9470  225.1810 C   0  0  0  0  0  0  0  0  0  0  0  0
  138.2659   68.2993  224.9717 H   0  0  0  0  0  0  0  0  0  0  0  0
  138.4400   71.1190  222.3640 C   0  0  0  0  0  0  0  0  0  0  0  0
  139.4000   71.6558  222.3470 H   0  0  0  0  0  0  0  0  0  0  0  0
  138.4920   70.2269  221.7225 H   0  0  0  0  0  0  0  0  0  0  0  0
  137.3330   72.0460  221.8360 C   0  0  0  0  0  0  0  0  0  0  0  0
  137.7340   72.6626  221.0180 H   0  0  0  0  0  0  0  0  0  0  0  0
  136.4961   71.4345  221.4676 H   0  0  0  0  0  0  0  0  0  0  0  0
  140.2010   79.8920  222.5720 C   0  0  0  0  0  0  0  0  0  0  0  0
  140.8990   80.9490  221.9570 C   0  0  0  0  0  0  0  0  0  0  0  0
  140.4061   81.5535  221.1814 H   0  0  0  0  0  0  0  0  0  0  0  0
  142.1810   81.2250  222.3190 N   0  0  0  0  0  0  0  0  0  0  0  0
  142.8290   80.5030  223.2710 C   0  0  0  0  0  0  0  0  0  0  0  0
  143.8617   80.7605  223.5487 H   0  0  0  0  0  0  0  0  0  0  0  0
  142.1840   79.4350  223.8960 C   0  0  0  0  0  0  0  0  0  0  0  0
  142.7051   78.8427  224.6626 H   0  0  0  0  0  0  0  0  0  0  0  0
  140.8700   79.1260  223.5380 C   0  0  0  0  0  0  0  0  0  0  0  0
  140.3573   78.2781  224.0157 H   0  0  0  0  0  0  0  0  0  0  0  0
  1  2  1  0
  2  3  2  0
  3  4  1  0
  3  5  1  0
  5  6  2  0
  6  7  1  0
  7  8  2  0
  8  9  1  0
  8 10  1  0
 10 11  1  0
 10 12  2  0
 12 13  1  0
 12 14  1  0
 14 15  1  0
 14 16  2  0
 16 17  1  0
 17 18  2  0
 17 19  1  0
 19 20  1  0
 20 21  1  0
 20 22  1  0
 20 23  1  0
 23 24  1  0
 23 25  1  0
 23 26  1  0
 26 27  1  0
 26 28  1  0
 26 29  1  0
 29 30  1  0
 29 31  1  0
 31 32  1  0
 31 33  1  0
 31 34  1  0
 34 35  1  0
 34 36  1  0
 34 37  1  0
 37 38  1  0
 38 39  2  0
 39 40  1  0
 39 41  1  0
 41 42  1  0
 41 43  2  0
 43 44  1  0
 43 45  1  0
 45 46  1  0
 45 47  2  0
 47 48  1  0
 37 49  1  0
 49 50  1  0
 49 51  1  0
 49 52  1  0
 52 53  1  0
 52 54  1  0
  2 55  1  0
 55 56  2  0
 56 57  1  0
 56 58  1  0
 58 59  2  0
 59 60  1  0
 59 61  1  0
 61 62  1  0
 61 63  2  0
 63 64  1  0
 19  5  1  0
 52 29  1  0
 63 55  1  0
 16  7  1  0
 47 38  1  0
M  CHG  1  29   1
M  END
>  <UniqueID>  (69) 
607

>  <SMILES>  (69) 
O=c1c2ccccc2nc(/C=C/c2cccnc2)n1CCC[NH+]1CCN(c2ccccc2)CC1

>  <Energy>  (69) 
93.05114730382124

>  <Genealogy>  (69) 
O=c1c2ccccc2nc(/C=C/c2cccnc2)n1CCC[NH+]1CCN(c2ccccc2)CC1 (protonated)
O=c1c2ccccc2nc(/C=C/c2cccnc2)n1CCC[NH+]1CCN(c2ccccc2)CC1 (cis-trans isomerization)
O=c1c2ccccc2nc(/C=C/c2cccnc2)n1CCC[NH+]1CCN(c2ccccc2)CC1 (3D coordinates assigned)
O=c1c2ccccc2nc(/C=C/c2cccnc2)n1CCC[NH+]1CCN(c2ccccc2)CC1 (nonaromatic ring conformer: 93.05114730382124 kcal/mol)

>  <smiles>  (69) 
O=c1c2ccccc2nc(/C=C/c2cccnc2)n1CCCN1CCN(c2ccccc2)CC1

>  <score_type>  (69) 
oracle

>  <origin>  (69) 
autodockgpu

>  <m_score__min__energy>  (69) 
-9.2599999999999998

>  <m_primary>  (69) 
energy

>  <meeko>  (69) 
{"free_energy": -8.48, "intermolecular_energy": -10.87, "internal_energy": -2.41, "cluster_size": 13, "cluster_id": 2, "rank_in_cluster": 10}

>  <energy>  (69) 
-8.98

>  <cluster_rmsd>  (69) 
0.13

>  <rmsd>  (69) 
269.99

>  <cluster>  (69) 
2

$$$$
IETZWVUTNAYKDK-WGYGGNGENA-O
     RDKit          3D

 64 68  0  0  0  0  0  0  0  0999 V2000
  143.7367   76.6968  219.1916 H   0  0  0  0  0  0  0  0  0  0  0  0
  143.0100   75.9820  219.6050 C   0  0  0  0  0  0  0  0  0  0  0  0
  141.7240   76.3560  219.6890 C   0  0  0  0  0  0  0  0  0  0  0  0
  140.9915   75.8972  219.0086 H   0  0  0  0  0  0  0  0  0  0  0  0
  141.2540   77.3740  220.6750 C   0  0  0  0  0  0  0  0  0  0  0  0
  142.1730   78.2620  221.1440 N   0  0  0  0  0  0  0  0  0  0  0  0
  141.8700   79.2050  222.0620 C   0  0  0  0  0  0  0  0  0  0  0  0
  142.8570   80.0930  222.5050 C   0  0  0  0  0  0  0  0  0  0  0  0
  143.8779   80.0263  222.1009 H   0  0  0  0  0  0  0  0  0  0  0  0
  142.5460   81.0650  223.4610 C   0  0  0  0  0  0  0  0  0  0  0  0
  143.3221   81.7627  223.8085 H   0  0  0  0  0  0  0  0  0  0  0  0
  141.2490   81.1500  223.9750 C   0  0  0  0  0  0  0  0  0  0  0  0
  141.0058   81.9148  224.7273 H   0  0  0  0  0  0  0  0  0  0  0  0
  140.2600   80.2650  223.5350 C   0  0  0  0  0  0  0  0  0  0  0  0
  139.2407   80.3344  223.9428 H   0  0  0  0  0  0  0  0  0  0  0  0
  140.5660   79.2840  222.5700 C   0  0  0  0  0  0  0  0  0  0  0  0
  139.6120   78.3710  222.0930 C   0  0  0  0  0  0  0  0  0  0  0  0
  138.4330   78.4220  222.5490 O   0  0  0  0  0  0  0  0  0  0  0  0
  139.9490   77.4310  221.1420 N   0  0  0  0  0  0  0  0  0  0  0  0
  138.8920   76.4980  220.6810 C   0  0  0  0  0  0  0  0  0  0  0  0
  138.0064   77.0806  220.3873 H   0  0  0  0  0  0  0  0  0  0  0  0
  139.2893   75.9255  219.8299 H   0  0  0  0  0  0  0  0  0  0  0  0
  138.4890   75.5000  221.7820 C   0  0  0  0  0  0  0  0  0  0  0  0
  139.1878   75.6044  222.6250 H   0  0  0  0  0  0  0  0  0  0  0  0
  137.4559   75.7322  222.0801 H   0  0  0  0  0  0  0  0  0  0  0  0
  138.5170   74.0380  221.2960 C   0  0  0  0  0  0  0  0  0  0  0  0
  137.5016   73.7512  220.9851 H   0  0  0  0  0  0  0  0  0  0  0  0
  139.2305   73.9796  220.4608 H   0  0  0  0  0  0  0  0  0  0  0  0
  138.9770   73.0930  222.3450 N   0  0  0  0  0  0  0  0  0  0  0  0
  139.2300   73.6430  223.2010 H   0  0  0  0  0  0  0  0  0  0  0  0
  137.8620   72.1770  222.7110 C   0  0  0  0  0  0  0  0  0  0  0  0
  137.1951   72.7030  223.4099 H   0  0  0  0  0  0  0  0  0  0  0  0
  137.3533   71.8988  221.7762 H   0  0  0  0  0  0  0  0  0  0  0  0
  138.3320   70.8660  223.3780 C   0  0  0  0  0  0  0  0  0  0  0  0
  137.6304   70.5986  224.1819 H   0  0  0  0  0  0  0  0  0  0  0  0
  138.3610   70.0731  222.6161 H   0  0  0  0  0  0  0  0  0  0  0  0
  139.6740   71.0230  223.9440 N   0  0  0  0  0  0  0  0  0  0  0  0
  139.9510   70.6600  225.3120 C   0  0  0  0  0  0  0  0  0  0  0  0
  140.6580   71.5370  226.1520 C   0  0  0  0  0  0  0  0  0  0  0  0
  141.0166   72.5003  225.7601 H   0  0  0  0  0  0  0  0  0  0  0  0
  140.9080   71.1910  227.4840 C   0  0  0  0  0  0  0  0  0  0  0  0
  141.4699   71.8780  228.1339 H   0  0  0  0  0  0  0  0  0  0  0  0
  140.4450   69.9740  227.9900 C   0  0  0  0  0  0  0  0  0  0  0  0
  140.6408   69.7046  229.0384 H   0  0  0  0  0  0  0  0  0  0  0  0
  139.7330   69.0980  227.1650 C   0  0  0  0  0  0  0  0  0  0  0  0
  139.3684   68.1403  227.5648 H   0  0  0  0  0  0  0  0  0  0  0  0
  139.4840   69.4390  225.8310 C   0  0  0  0  0  0  0  0  0  0  0  0
  138.9206   68.7492  225.1854 H   0  0  0  0  0  0  0  0  0  0  0  0
  140.7490   71.5350  223.0840 C   0  0  0  0  0  0  0  0  0  0  0  0
  141.4014   72.1949  223.6747 H   0  0  0  0  0  0  0  0  0  0  0  0
  141.3247   70.6842  222.6908 H   0  0  0  0  0  0  0  0  0  0  0  0
  140.1650   72.3270  221.9030 C   0  0  0  0  0  0  0  0  0  0  0  0
  140.9255   73.0232  221.5197 H   0  0  0  0  0  0  0  0  0  0  0  0
  139.8677   71.6256  221.1095 H   0  0  0  0  0  0  0  0  0  0  0  0
  143.4990   74.6530  220.0420 C   0  0  0  0  0  0  0  0  0  0  0  0
  142.6630   73.5200  220.0990 C   0  0  0  0  0  0  0  0  0  0  0  0
  141.6097   73.6000  219.7922 H   0  0  0  0  0  0  0  0  0  0  0  0
  143.1540   72.3280  220.5320 N   0  0  0  0  0  0  0  0  0  0  0  0
  144.4470   72.1850  220.9240 C   0  0  0  0  0  0  0  0  0  0  0  0
  144.8152   71.2037  221.2579 H   0  0  0  0  0  0  0  0  0  0  0  0
  145.3080   73.2830  220.9030 C   0  0  0  0  0  0  0  0  0  0  0  0
  146.3538   73.1754  221.2265 H   0  0  0  0  0  0  0  0  0  0  0  0
  144.8280   74.5200  220.4670 C   0  0  0  0  0  0  0  0  0  0  0  0
  145.4960   75.3939  220.4571 H   0  0  0  0  0  0  0  0  0  0  0  0
  1  2  1  0
  2  3  2  0
  3  4  1  0
  3  5  1  0
  5  6  2  0
  6  7  1  0
  7  8  2  0
  8  9  1  0
  8 10  1  0
 10 11  1  0
 10 12  2  0
 12 13  1  0
 12 14  1  0
 14 15  1  0
 14 16  2  0
 16 17  1  0
 17 18  2  0
 17 19  1  0
 19 20  1  0
 20 21  1  0
 20 22  1  0
 20 23  1  0
 23 24  1  0
 23 25  1  0
 23 26  1  0
 26 27  1  0
 26 28  1  0
 26 29  1  0
 29 30  1  0
 29 31  1  0
 31 32  1  0
 31 33  1  0
 31 34  1  0
 34 35  1  0
 34 36  1  0
 34 37  1  0
 37 38  1  0
 38 39  2  0
 39 40  1  0
 39 41  1  0
 41 42  1  0
 41 43  2  0
 43 44  1  0
 43 45  1  0
 45 46  1  0
 45 47  2  0
 47 48  1  0
 37 49  1  0
 49 50  1  0
 49 51  1  0
 49 52  1  0
 52 53  1  0
 52 54  1  0
  2 55  1  0
 55 56  2  0
 56 57  1  0
 56 58  1  0
 58 59  2  0
 59 60  1  0
 59 61  1  0
 61 62  1  0
 61 63  2  0
 63 64  1  0
 19  5  1  0
 52 29  1  0
 63 55  1  0
 16  7  1  0
 47 38  1  0
M  CHG  1  29   1
M  END
>  <UniqueID>  (70) 
607

>  <SMILES>  (70) 
O=c1c2ccccc2nc(/C=C/c2cccnc2)n1CCC[NH+]1CCN(c2ccccc2)CC1

>  <Energy>  (70) 
93.05114730382124

>  <Genealogy>  (70) 
O=c1c2ccccc2nc(/C=C/c2cccnc2)n1CCC[NH+]1CCN(c2ccccc2)CC1 (protonated)
O=c1c2ccccc2nc(/C=C/c2cccnc2)n1CCC[NH+]1CCN(c2ccccc2)CC1 (cis-trans isomerization)
O=c1c2ccccc2nc(/C=C/c2cccnc2)n1CCC[NH+]1CCN(c2ccccc2)CC1 (3D coordinates assigned)
O=c1c2ccccc2nc(/C=C/c2cccnc2)n1CCC[NH+]1CCN(c2ccccc2)CC1 (nonaromatic ring conformer: 93.05114730382124 kcal/mol)

>  <smiles>  (70) 
O=c1c2ccccc2nc(/C=C/c2cccnc2)n1CCCN1CCN(c2ccccc2)CC1

>  <score_type>  (70) 
oracle

>  <origin>  (70) 
autodockgpu

>  <m_score__min__energy>  (70) 
-9.2599999999999998

>  <m_primary>  (70) 
energy

>  <meeko>  (70) 
{"free_energy": -9.21, "intermolecular_energy": -11.59, "internal_energy": -1.29, "cluster_size": 6, "cluster_id": 1, "rank_in_cluster": 3}

>  <energy>  (70) 
-8.95

>  <cluster_rmsd>  (70) 
0.15

>  <rmsd>  (70) 
270.05

>  <cluster>  (70) 
2

$$$$
IETZWVUTNAYKDK-WGYGGNGENA-O
     RDKit          3D

 64 68  0  0  0  0  0  0  0  0999 V2000
  143.6821   76.7677  219.2745 H   0  0  0  0  0  0  0  0  0  0  0  0
  142.9780   76.0290  219.6850 C   0  0  0  0  0  0  0  0  0  0  0  0
  141.6890   76.3800  219.8140 C   0  0  0  0  0  0  0  0  0  0  0  0
  140.9383   75.8882  219.1780 H   0  0  0  0  0  0  0  0  0  0  0  0
  141.2390   77.4160  220.7920 C   0  0  0  0  0  0  0  0  0  0  0  0
  142.1830   78.2660  221.2790 N   0  0  0  0  0  0  0  0  0  0  0  0
  141.8990   79.2210  222.1910 C   0  0  0  0  0  0  0  0  0  0  0  0
  142.9110   80.0700  222.6550 C   0  0  0  0  0  0  0  0  0  0  0  0
  143.9365   79.9634  222.2717 H   0  0  0  0  0  0  0  0  0  0  0  0
  142.6190   81.0530  223.6050 C   0  0  0  0  0  0  0  0  0  0  0  0
  143.4147   81.7197  223.9687 H   0  0  0  0  0  0  0  0  0  0  0  0
  141.3160   81.1890  224.0930 C   0  0  0  0  0  0  0  0  0  0  0  0
  141.0876   81.9632  224.8403 H   0  0  0  0  0  0  0  0  0  0  0  0
  140.3030   80.3430  223.6330 C   0  0  0  0  0  0  0  0  0  0  0  0
  139.2792   80.4517  224.0204 H   0  0  0  0  0  0  0  0  0  0  0  0
  140.5900   79.3510  222.6740 C   0  0  0  0  0  0  0  0  0  0  0  0
  139.6100   78.4760  222.1770 C   0  0  0  0  0  0  0  0  0  0  0  0
  138.4260   78.5730  222.6100 O   0  0  0  0  0  0  0  0  0  0  0  0
  139.9290   77.5230  221.2330 N   0  0  0  0  0  0  0  0  0  0  0  0
  138.8460   76.6310  220.7500 C   0  0  0  0  0  0  0  0  0  0  0  0
  137.9634   77.2413  220.5081 H   0  0  0  0  0  0  0  0  0  0  0  0
  139.2135   76.0974  219.8611 H   0  0  0  0  0  0  0  0  0  0  0  0
  138.4530   75.5840  221.8080 C   0  0  0  0  0  0  0  0  0  0  0  0
  139.1187   75.6938  222.6768 H   0  0  0  0  0  0  0  0  0  0  0  0
  137.4015   75.7613  222.0781 H   0  0  0  0  0  0  0  0  0  0  0  0
  138.5630   74.1400  221.2810 C   0  0  0  0  0  0  0  0  0  0  0  0
  137.5785   73.8279  220.9024 H   0  0  0  0  0  0  0  0  0  0  0  0
  139.3253   74.1335  220.4880 H   0  0  0  0  0  0  0  0  0  0  0  0
  138.9960   73.1790  222.3260 N   0  0  0  0  0  0  0  0  0  0  0  0
  139.2360   73.7160  223.1940 H   0  0  0  0  0  0  0  0  0  0  0  0
  137.8690   72.2650  222.6580 C   0  0  0  0  0  0  0  0  0  0  0  0
  137.1913   72.7859  223.3504 H   0  0  0  0  0  0  0  0  0  0  0  0
  137.3775   72.0017  221.7098 H   0  0  0  0  0  0  0  0  0  0  0  0
  138.3180   70.9430  223.3170 C   0  0  0  0  0  0  0  0  0  0  0  0
  137.5993   70.6699  224.1037 H   0  0  0  0  0  0  0  0  0  0  0  0
  138.3570   70.1599  222.5455 H   0  0  0  0  0  0  0  0  0  0  0  0
  139.6500   71.0840  223.9110 N   0  0  0  0  0  0  0  0  0  0  0  0
  139.8970   70.7010  225.2790 C   0  0  0  0  0  0  0  0  0  0  0  0
  139.4230   69.4720  225.7700 C   0  0  0  0  0  0  0  0  0  0  0  0
  138.8464   68.8053  225.1119 H   0  0  0  0  0  0  0  0  0  0  0  0
  139.6810   69.0930  227.0910 C   0  0  0  0  0  0  0  0  0  0  0  0
  139.2990   68.1345  227.4721 H   0  0  0  0  0  0  0  0  0  0  0  0
  140.4240   69.9310  227.9280 C   0  0  0  0  0  0  0  0  0  0  0  0
  140.6285   69.6302  228.9661 H   0  0  0  0  0  0  0  0  0  0  0  0
  140.9070   71.1510  227.4460 C   0  0  0  0  0  0  0  0  0  0  0  0
  141.4913   71.8097  228.1053 H   0  0  0  0  0  0  0  0  0  0  0  0
  140.6480   71.5350  226.1260 C   0  0  0  0  0  0  0  0  0  0  0  0
  141.0336   72.4937  225.7490 H   0  0  0  0  0  0  0  0  0  0  0  0
  140.7440   71.6000  223.0790 C   0  0  0  0  0  0  0  0  0  0  0  0
  141.3891   72.2478  223.6908 H   0  0  0  0  0  0  0  0  0  0  0  0
  141.3218   70.7507  222.6856 H   0  0  0  0  0  0  0  0  0  0  0  0
  140.1880   72.4110  221.8980 C   0  0  0  0  0  0  0  0  0  0  0  0
  140.9601   73.1074  221.5389 H   0  0  0  0  0  0  0  0  0  0  0  0
  139.9018   71.7216  221.0901 H   0  0  0  0  0  0  0  0  0  0  0  0
  143.5000   74.6960  220.0680 C   0  0  0  0  0  0  0  0  0  0  0  0
  142.6910   73.5430  220.0850 C   0  0  0  0  0  0  0  0  0  0  0  0
  141.6346   73.6104  219.7857 H   0  0  0  0  0  0  0  0  0  0  0  0
  143.2110   72.3470  220.4700 N   0  0  0  0  0  0  0  0  0  0  0  0
  144.5090   72.2190  220.8510 C   0  0  0  0  0  0  0  0  0  0  0  0
  144.9011   71.2345  221.1460 H   0  0  0  0  0  0  0  0  0  0  0  0
  145.3450   73.3370  220.8680 C   0  0  0  0  0  0  0  0  0  0  0  0
  146.3951   73.2412  221.1814 H   0  0  0  0  0  0  0  0  0  0  0  0
  144.8340   74.5780  220.4830 C   0  0  0  0  0  0  0  0  0  0  0  0
  145.4810   75.4673  220.5054 H   0  0  0  0  0  0  0  0  0  0  0  0
  1  2  1  0
  2  3  2  0
  3  4  1  0
  3  5  1  0
  5  6  2  0
  6  7  1  0
  7  8  2  0
  8  9  1  0
  8 10  1  0
 10 11  1  0
 10 12  2  0
 12 13  1  0
 12 14  1  0
 14 15  1  0
 14 16  2  0
 16 17  1  0
 17 18  2  0
 17 19  1  0
 19 20  1  0
 20 21  1  0
 20 22  1  0
 20 23  1  0
 23 24  1  0
 23 25  1  0
 23 26  1  0
 26 27  1  0
 26 28  1  0
 26 29  1  0
 29 30  1  0
 29 31  1  0
 31 32  1  0
 31 33  1  0
 31 34  1  0
 34 35  1  0
 34 36  1  0
 34 37  1  0
 37 38  1  0
 38 39  2  0
 39 40  1  0
 39 41  1  0
 41 42  1  0
 41 43  2  0
 43 44  1  0
 43 45  1  0
 45 46  1  0
 45 47  2  0
 47 48  1  0
 37 49  1  0
 49 50  1  0
 49 51  1  0
 49 52  1  0
 52 53  1  0
 52 54  1  0
  2 55  1  0
 55 56  2  0
 56 57  1  0
 56 58  1  0
 58 59  2  0
 59 60  1  0
 59 61  1  0
 61 62  1  0
 61 63  2  0
 63 64  1  0
 19  5  1  0
 52 29  1  0
 63 55  1  0
 16  7  1  0
 47 38  1  0
M  CHG  1  29   1
M  END
>  <UniqueID>  (71) 
607

>  <SMILES>  (71) 
O=c1c2ccccc2nc(/C=C/c2cccnc2)n1CCC[NH+]1CCN(c2ccccc2)CC1

>  <Energy>  (71) 
93.05114730382124

>  <Genealogy>  (71) 
O=c1c2ccccc2nc(/C=C/c2cccnc2)n1CCC[NH+]1CCN(c2ccccc2)CC1 (protonated)
O=c1c2ccccc2nc(/C=C/c2cccnc2)n1CCC[NH+]1CCN(c2ccccc2)CC1 (cis-trans isomerization)
O=c1c2ccccc2nc(/C=C/c2cccnc2)n1CCC[NH+]1CCN(c2ccccc2)CC1 (3D coordinates assigned)
O=c1c2ccccc2nc(/C=C/c2cccnc2)n1CCC[NH+]1CCN(c2ccccc2)CC1 (nonaromatic ring conformer: 93.05114730382124 kcal/mol)

>  <smiles>  (71) 
O=c1c2ccccc2nc(/C=C/c2cccnc2)n1CCCN1CCN(c2ccccc2)CC1

>  <score_type>  (71) 
oracle

>  <origin>  (71) 
autodockgpu

>  <m_score__min__energy>  (71) 
-9.2599999999999998

>  <m_primary>  (71) 
energy

>  <meeko>  (71) 
{"free_energy": -9.22, "intermolecular_energy": -11.6, "internal_energy": -1.28, "cluster_size": 6, "cluster_id": 1, "rank_in_cluster": 2}

>  <energy>  (71) 
-8.94

>  <cluster_rmsd>  (71) 
0.48

>  <rmsd>  (71) 
270.06

>  <cluster>  (71) 
2

$$$$
IETZWVUTNAYKDK-WGYGGNGENA-O
     RDKit          3D

 64 68  0  0  0  0  0  0  0  0999 V2000
  138.5835   80.3333  220.9576 H   0  0  0  0  0  0  0  0  0  0  0  0
  139.1840   79.4590  221.2490 C   0  0  0  0  0  0  0  0  0  0  0  0
  138.7540   78.2410  220.8870 C   0  0  0  0  0  0  0  0  0  0  0  0
  137.7451   78.1386  220.4609 H   0  0  0  0  0  0  0  0  0  0  0  0
  139.5990   77.0190  221.0430 C   0  0  0  0  0  0  0  0  0  0  0  0
  140.8340   77.0360  220.4720 N   0  0  0  0  0  0  0  0  0  0  0  0
  141.6720   75.9780  220.5190 C   0  0  0  0  0  0  0  0  0  0  0  0
  142.9320   76.0550  219.9150 C   0  0  0  0  0  0  0  0  0  0  0  0
  143.2425   76.9796  219.4064 H   0  0  0  0  0  0  0  0  0  0  0  0
  143.7960   74.9570  219.9580 C   0  0  0  0  0  0  0  0  0  0  0  0
  144.7865   75.0186  219.4836 H   0  0  0  0  0  0  0  0  0  0  0  0
  143.4030   73.7810  220.6030 C   0  0  0  0  0  0  0  0  0  0  0  0
  144.0846   72.9182  220.6357 H   0  0  0  0  0  0  0  0  0  0  0  0
  142.1440   73.7000  221.2070 C   0  0  0  0  0  0  0  0  0  0  0  0
  141.8363   72.7728  221.7126 H   0  0  0  0  0  0  0  0  0  0  0  0
  141.2690   74.8040  221.1690 C   0  0  0  0  0  0  0  0  0  0  0  0
  139.9950   74.7770  221.7600 C   0  0  0  0  0  0  0  0  0  0  0  0
  139.6120   73.7210  222.3420 O   0  0  0  0  0  0  0  0  0  0  0  0
  139.1700   75.8810  221.7090 N   0  0  0  0  0  0  0  0  0  0  0  0
  137.8380   75.7850  222.3540 C   0  0  0  0  0  0  0  0  0  0  0  0
  137.9481   75.2787  223.3243 H   0  0  0  0  0  0  0  0  0  0  0  0
  137.4462   76.8049  222.4819 H   0  0  0  0  0  0  0  0  0  0  0  0
  136.8390   74.9940  221.4900 C   0  0  0  0  0  0  0  0  0  0  0  0
  136.1399   75.7026  221.0220 H   0  0  0  0  0  0  0  0  0  0  0  0
  137.4172   74.4375  220.7377 H   0  0  0  0  0  0  0  0  0  0  0  0
  136.0290   73.9690  222.3080 C   0  0  0  0  0  0  0  0  0  0  0  0
  135.5250   74.4960  223.1316 H   0  0  0  0  0  0  0  0  0  0  0  0
  135.3084   73.4954  221.6250 H   0  0  0  0  0  0  0  0  0  0  0  0
  136.8750   72.8930  222.8810 N   0  0  0  0  0  0  0  0  0  0  0  0
  137.7000   73.3350  223.3570 H   0  0  0  0  0  0  0  0  0  0  0  0
  136.1030   72.1510  223.9150 C   0  0  0  0  0  0  0  0  0  0  0  0
  136.1257   72.7317  224.8490 H   0  0  0  0  0  0  0  0  0  0  0  0
  135.0822   72.0240  223.5254 H   0  0  0  0  0  0  0  0  0  0  0  0
  136.6550   70.7390  224.2050 C   0  0  0  0  0  0  0  0  0  0  0  0
  136.5813   70.5374  225.2839 H   0  0  0  0  0  0  0  0  0  0  0  0
  136.0635   70.0054  223.6375 H   0  0  0  0  0  0  0  0  0  0  0  0
  138.0570   70.6340  223.7910 N   0  0  0  0  0  0  0  0  0  0  0  0
  139.0640   70.1380  224.6960 C   0  0  0  0  0  0  0  0  0  0  0  0
  140.1240   70.9670  225.1030 C   0  0  0  0  0  0  0  0  0  0  0  0
  140.1958   71.9943  224.7164 H   0  0  0  0  0  0  0  0  0  0  0  0
  141.0880   70.4900  225.9980 C   0  0  0  0  0  0  0  0  0  0  0  0
  141.9198   71.1401  226.3068 H   0  0  0  0  0  0  0  0  0  0  0  0
  140.9960   69.1900  226.5000 C   0  0  0  0  0  0  0  0  0  0  0  0
  141.7545   68.8181  227.2045 H   0  0  0  0  0  0  0  0  0  0  0  0
  139.9410   68.3610  226.1080 C   0  0  0  0  0  0  0  0  0  0  0  0
  139.8696   67.3373  226.5042 H   0  0  0  0  0  0  0  0  0  0  0  0
  138.9760   68.8330  225.2120 C   0  0  0  0  0  0  0  0  0  0  0  0
  138.1441   68.1799  224.9096 H   0  0  0  0  0  0  0  0  0  0  0  0
  138.4200   71.0180  222.4210 C   0  0  0  0  0  0  0  0  0  0  0  0
  139.3988   71.5197  222.4333 H   0  0  0  0  0  0  0  0  0  0  0  0
  138.4651   70.1122  221.7985 H   0  0  0  0  0  0  0  0  0  0  0  0
  137.3700   71.9730  221.8320 C   0  0  0  0  0  0  0  0  0  0  0  0
  137.8254   72.5585  221.0197 H   0  0  0  0  0  0  0  0  0  0  0  0
  136.5266   71.3847  221.4413 H   0  0  0  0  0  0  0  0  0  0  0  0
  140.4280   79.6850  222.0220 C   0  0  0  0  0  0  0  0  0  0  0  0
  141.4820   80.4870  221.5430 C   0  0  0  0  0  0  0  0  0  0  0  0
  141.3888   80.9900  220.5692 H   0  0  0  0  0  0  0  0  0  0  0  0
  142.6150   80.6420  222.2800 N   0  0  0  0  0  0  0  0  0  0  0  0
  142.7740   80.0370  223.4860 C   0  0  0  0  0  0  0  0  0  0  0  0
  143.6982   80.1924  224.0619 H   0  0  0  0  0  0  0  0  0  0  0  0
  141.7640   79.2180  223.9940 C   0  0  0  0  0  0  0  0  0  0  0  0
  141.8891   78.7203  224.9670 H   0  0  0  0  0  0  0  0  0  0  0  0
  140.5940   79.0370  223.2550 C   0  0  0  0  0  0  0  0  0  0  0  0
  139.7982   78.3831  223.6413 H   0  0  0  0  0  0  0  0  0  0  0  0
  1  2  1  0
  2  3  2  0
  3  4  1  0
  3  5  1  0
  5  6  2  0
  6  7  1  0
  7  8  2  0
  8  9  1  0
  8 10  1  0
 10 11  1  0
 10 12  2  0
 12 13  1  0
 12 14  1  0
 14 15  1  0
 14 16  2  0
 16 17  1  0
 17 18  2  0
 17 19  1  0
 19 20  1  0
 20 21  1  0
 20 22  1  0
 20 23  1  0
 23 24  1  0
 23 25  1  0
 23 26  1  0
 26 27  1  0
 26 28  1  0
 26 29  1  0
 29 30  1  0
 29 31  1  0
 31 32  1  0
 31 33  1  0
 31 34  1  0
 34 35  1  0
 34 36  1  0
 34 37  1  0
 37 38  1  0
 38 39  2  0
 39 40  1  0
 39 41  1  0
 41 42  1  0
 41 43  2  0
 43 44  1  0
 43 45  1  0
 45 46  1  0
 45 47  2  0
 47 48  1  0
 37 49  1  0
 49 50  1  0
 49 51  1  0
 49 52  1  0
 52 53  1  0
 52 54  1  0
  2 55  1  0
 55 56  2  0
 56 57  1  0
 56 58  1  0
 58 59  2  0
 59 60  1  0
 59 61  1  0
 61 62  1  0
 61 63  2  0
 63 64  1  0
 19  5  1  0
 52 29  1  0
 63 55  1  0
 16  7  1  0
 47 38  1  0
M  CHG  1  29   1
M  END
>  <UniqueID>  (72) 
607

>  <SMILES>  (72) 
O=c1c2ccccc2nc(/C=C/c2cccnc2)n1CCC[NH+]1CCN(c2ccccc2)CC1

>  <Energy>  (72) 
93.05114730382124

>  <Genealogy>  (72) 
O=c1c2ccccc2nc(/C=C/c2cccnc2)n1CCC[NH+]1CCN(c2ccccc2)CC1 (protonated)
O=c1c2ccccc2nc(/C=C/c2cccnc2)n1CCC[NH+]1CCN(c2ccccc2)CC1 (cis-trans isomerization)
O=c1c2ccccc2nc(/C=C/c2cccnc2)n1CCC[NH+]1CCN(c2ccccc2)CC1 (3D coordinates assigned)
O=c1c2ccccc2nc(/C=C/c2cccnc2)n1CCC[NH+]1CCN(c2ccccc2)CC1 (nonaromatic ring conformer: 93.05114730382124 kcal/mol)

>  <smiles>  (72) 
O=c1c2ccccc2nc(/C=C/c2cccnc2)n1CCCN1CCN(c2ccccc2)CC1

>  <score_type>  (72) 
oracle

>  <origin>  (72) 
autodockgpu

>  <m_score__min__energy>  (72) 
-9.2599999999999998

>  <m_primary>  (72) 
energy

>  <meeko>  (72) 
{"free_energy": -8.33, "intermolecular_energy": -10.71, "internal_energy": -2.42, "cluster_size": 13, "cluster_id": 2, "rank_in_cluster": 13}

>  <energy>  (72) 
-8.89

>  <cluster_rmsd>  (72) 
0.32

>  <rmsd>  (72) 
270.01

>  <cluster>  (72) 
2

$$$$
IETZWVUTNAYKDK-WGYGGNGENA-O
     RDKit          3D

 64 68  0  0  0  0  0  0  0  0999 V2000
  137.9346   79.6770  222.5513 H   0  0  0  0  0  0  0  0  0  0  0  0
  138.8810   79.3060  222.1310 C   0  0  0  0  0  0  0  0  0  0  0  0
  138.8290   78.3830  221.1570 C   0  0  0  0  0  0  0  0  0  0  0  0
  138.1248   78.5285  220.3245 H   0  0  0  0  0  0  0  0  0  0  0  0
  139.6940   77.1660  221.1650 C   0  0  0  0  0  0  0  0  0  0  0  0
  140.9050   77.2560  220.5520 N   0  0  0  0  0  0  0  0  0  0  0  0
  141.7570   76.2110  220.4690 C   0  0  0  0  0  0  0  0  0  0  0  0
  142.9930   76.3640  219.8280 C   0  0  0  0  0  0  0  0  0  0  0  0
  143.2725   77.3370  219.3977 H   0  0  0  0  0  0  0  0  0  0  0  0
  143.8710   75.2810  219.7350 C   0  0  0  0  0  0  0  0  0  0  0  0
  144.8416   75.4020  219.2317 H   0  0  0  0  0  0  0  0  0  0  0  0
  143.5170   74.0440  220.2810 C   0  0  0  0  0  0  0  0  0  0  0  0
  144.2094   73.1925  220.2064 H   0  0  0  0  0  0  0  0  0  0  0  0
  142.2840   73.8870  220.9220 C   0  0  0  0  0  0  0  0  0  0  0  0
  142.0083   72.9119  221.3499 H   0  0  0  0  0  0  0  0  0  0  0  0
  141.3940   74.9750  221.0210 C   0  0  0  0  0  0  0  0  0  0  0  0
  140.1450   74.8730  221.6540 C   0  0  0  0  0  0  0  0  0  0  0  0
  139.7970   73.7620  222.1480 O   0  0  0  0  0  0  0  0  0  0  0  0
  139.3050   75.9640  221.7380 N   0  0  0  0  0  0  0  0  0  0  0  0
  138.0000   75.7870  222.4210 C   0  0  0  0  0  0  0  0  0  0  0  0
  138.1211   75.0596  223.2372 H   0  0  0  0  0  0  0  0  0  0  0  0
  137.6811   76.7661  222.8080 H   0  0  0  0  0  0  0  0  0  0  0  0
  136.9140   75.2770  221.4560 C   0  0  0  0  0  0  0  0  0  0  0  0
  136.2277   76.1059  221.2279 H   0  0  0  0  0  0  0  0  0  0  0  0
  137.4186   74.9079  220.5509 H   0  0  0  0  0  0  0  0  0  0  0  0
  136.0990   74.1090  222.0460 C   0  0  0  0  0  0  0  0  0  0  0  0
  135.4111   74.5085  222.8057 H   0  0  0  0  0  0  0  0  0  0  0  0
  135.5568   73.6305  221.2171 H   0  0  0  0  0  0  0  0  0  0  0  0
  136.9550   73.0740  222.6780 N   0  0  0  0  0  0  0  0  0  0  0  0
  137.7990   73.5430  223.0870 H   0  0  0  0  0  0  0  0  0  0  0  0
  136.2110   72.4300  223.7960 C   0  0  0  0  0  0  0  0  0  0  0  0
  136.2707   73.0863  224.6768 H   0  0  0  0  0  0  0  0  0  0  0  0
  135.1765   72.2834  223.4522 H   0  0  0  0  0  0  0  0  0  0  0  0
  136.7590   71.0410  224.1850 C   0  0  0  0  0  0  0  0  0  0  0  0
  136.7211   70.9318  225.2789 H   0  0  0  0  0  0  0  0  0  0  0  0
  136.1409   70.2701  223.7015 H   0  0  0  0  0  0  0  0  0  0  0  0
  138.1450   70.8830  223.7340 N   0  0  0  0  0  0  0  0  0  0  0  0
  139.1770   70.4520  224.6430 C   0  0  0  0  0  0  0  0  0  0  0  0
  139.1190   69.1770  225.2330 C   0  0  0  0  0  0  0  0  0  0  0  0
  138.2725   68.5100  225.0128 H   0  0  0  0  0  0  0  0  0  0  0  0
  140.1320   68.7530  226.0980 C   0  0  0  0  0  0  0  0  0  0  0  0
  140.0765   67.7576  226.5628 H   0  0  0  0  0  0  0  0  0  0  0  0
  141.2150   69.5920  226.3730 C   0  0  0  0  0  0  0  0  0  0  0  0
  142.0117   69.2558  227.0529 H   0  0  0  0  0  0  0  0  0  0  0  0
  141.2870   70.8580  225.7850 C   0  0  0  0  0  0  0  0  0  0  0  0
  142.1405   71.5172  226.0018 H   0  0  0  0  0  0  0  0  0  0  0  0
  140.2740   71.2870  224.9210 C   0  0  0  0  0  0  0  0  0  0  0  0
  140.3357   72.2823  224.4567 H   0  0  0  0  0  0  0  0  0  0  0  0
  138.4640   71.1460  222.3250 C   0  0  0  0  0  0  0  0  0  0  0  0
  139.4478   71.6340  222.2618 H   0  0  0  0  0  0  0  0  0  0  0  0
  138.4780   70.1907  221.7798 H   0  0  0  0  0  0  0  0  0  0  0  0
  137.4030   72.0630  221.6930 C   0  0  0  0  0  0  0  0  0  0  0  0
  137.8357   72.5725  220.8194 H   0  0  0  0  0  0  0  0  0  0  0  0
  136.5404   71.4556  221.3816 H   0  0  0  0  0  0  0  0  0  0  0  0
  140.1510   79.8490  222.6670 C   0  0  0  0  0  0  0  0  0  0  0  0
  140.5700   81.1720  222.4260 C   0  0  0  0  0  0  0  0  0  0  0  0
  139.9347   81.8494  221.8364 H   0  0  0  0  0  0  0  0  0  0  0  0
  141.7580   81.6150  222.9200 N   0  0  0  0  0  0  0  0  0  0  0  0
  142.5760   80.8120  223.6500 C   0  0  0  0  0  0  0  0  0  0  0  0
  143.5245   81.2054  224.0444 H   0  0  0  0  0  0  0  0  0  0  0  0
  142.2120   79.4880  223.8990 C   0  0  0  0  0  0  0  0  0  0  0  0
  142.8728   78.8306  224.4831 H   0  0  0  0  0  0  0  0  0  0  0  0
  141.0000   79.0060  223.3990 C   0  0  0  0  0  0  0  0  0  0  0  0
  140.7101   77.9605  223.5802 H   0  0  0  0  0  0  0  0  0  0  0  0
  1  2  1  0
  2  3  2  0
  3  4  1  0
  3  5  1  0
  5  6  2  0
  6  7  1  0
  7  8  2  0
  8  9  1  0
  8 10  1  0
 10 11  1  0
 10 12  2  0
 12 13  1  0
 12 14  1  0
 14 15  1  0
 14 16  2  0
 16 17  1  0
 17 18  2  0
 17 19  1  0
 19 20  1  0
 20 21  1  0
 20 22  1  0
 20 23  1  0
 23 24  1  0
 23 25  1  0
 23 26  1  0
 26 27  1  0
 26 28  1  0
 26 29  1  0
 29 30  1  0
 29 31  1  0
 31 32  1  0
 31 33  1  0
 31 34  1  0
 34 35  1  0
 34 36  1  0
 34 37  1  0
 37 38  1  0
 38 39  2  0
 39 40  1  0
 39 41  1  0
 41 42  1  0
 41 43  2  0
 43 44  1  0
 43 45  1  0
 45 46  1  0
 45 47  2  0
 47 48  1  0
 37 49  1  0
 49 50  1  0
 49 51  1  0
 49 52  1  0
 52 53  1  0
 52 54  1  0
  2 55  1  0
 55 56  2  0
 56 57  1  0
 56 58  1  0
 58 59  2  0
 59 60  1  0
 59 61  1  0
 61 62  1  0
 61 63  2  0
 63 64  1  0
 19  5  1  0
 52 29  1  0
 63 55  1  0
 16  7  1  0
 47 38  1  0
M  CHG  1  29   1
M  END
>  <UniqueID>  (73) 
607

>  <SMILES>  (73) 
O=c1c2ccccc2nc(/C=C/c2cccnc2)n1CCC[NH+]1CCN(c2ccccc2)CC1

>  <Energy>  (73) 
93.05114730382124

>  <Genealogy>  (73) 
O=c1c2ccccc2nc(/C=C/c2cccnc2)n1CCC[NH+]1CCN(c2ccccc2)CC1 (protonated)
O=c1c2ccccc2nc(/C=C/c2cccnc2)n1CCC[NH+]1CCN(c2ccccc2)CC1 (cis-trans isomerization)
O=c1c2ccccc2nc(/C=C/c2cccnc2)n1CCC[NH+]1CCN(c2ccccc2)CC1 (3D coordinates assigned)
O=c1c2ccccc2nc(/C=C/c2cccnc2)n1CCC[NH+]1CCN(c2ccccc2)CC1 (nonaromatic ring conformer: 93.05114730382124 kcal/mol)

>  <smiles>  (73) 
O=c1c2ccccc2nc(/C=C/c2cccnc2)n1CCCN1CCN(c2ccccc2)CC1

>  <score_type>  (73) 
oracle

>  <origin>  (73) 
autodockgpu

>  <m_score__min__energy>  (73) 
-9.2599999999999998

>  <m_primary>  (73) 
energy

>  <meeko>  (73) 
{"free_energy": -8.53, "intermolecular_energy": -10.91, "internal_energy": -2.33, "cluster_size": 13, "cluster_id": 2, "rank_in_cluster": 9}

>  <energy>  (73) 
-8.82

>  <cluster_rmsd>  (73) 
0.52

>  <rmsd>  (73) 
270.05

>  <cluster>  (73) 
2

$$$$
IETZWVUTNAYKDK-WGYGGNGENA-O
     RDKit          3D

 64 68  0  0  0  0  0  0  0  0999 V2000
  137.7831   80.1541  222.5277 H   0  0  0  0  0  0  0  0  0  0  0  0
  138.6600   79.5610  222.2290 C   0  0  0  0  0  0  0  0  0  0  0  0
  138.4630   78.4620  221.4840 C   0  0  0  0  0  0  0  0  0  0  0  0
  137.4960   78.3301  220.9765 H   0  0  0  0  0  0  0  0  0  0  0  0
  139.5130   77.4120  221.3210 C   0  0  0  0  0  0  0  0  0  0  0  0
  140.5920   77.7210  220.5520 N   0  0  0  0  0  0  0  0  0  0  0  0
  141.5870   76.8400  220.3080 C   0  0  0  0  0  0  0  0  0  0  0  0
  142.6740   77.2160  219.5100 C   0  0  0  0  0  0  0  0  0  0  0  0
  142.7210   78.2302  219.0868 H   0  0  0  0  0  0  0  0  0  0  0  0
  143.7000   76.3020  219.2510 C   0  0  0  0  0  0  0  0  0  0  0  0
  144.5548   76.5980  218.6252 H   0  0  0  0  0  0  0  0  0  0  0  0
  143.6400   75.0120  219.7870 C   0  0  0  0  0  0  0  0  0  0  0  0
  144.4475   74.2939  219.5811 H   0  0  0  0  0  0  0  0  0  0  0  0
  142.5560   74.6330  220.5840 C   0  0  0  0  0  0  0  0  0  0  0  0
  142.5120   73.6172  221.0037 H   0  0  0  0  0  0  0  0  0  0  0  0
  141.5190   75.5500  220.8510 C   0  0  0  0  0  0  0  0  0  0  0  0
  140.4080   75.2230  221.6450 C   0  0  0  0  0  0  0  0  0  0  0  0
  140.3260   74.0590  222.1350 O   0  0  0  0  0  0  0  0  0  0  0  0
  139.4180   76.1510  221.8900 N   0  0  0  0  0  0  0  0  0  0  0  0
  138.2720   75.7390  222.7380 C   0  0  0  0  0  0  0  0  0  0  0  0
  138.6103   74.9641  223.4417 H   0  0  0  0  0  0  0  0  0  0  0  0
  137.9065   76.6275  223.2738 H   0  0  0  0  0  0  0  0  0  0  0  0
  137.1110   75.1760  221.8970 C   0  0  0  0  0  0  0  0  0  0  0  0
  136.2162   75.1071  222.5331 H   0  0  0  0  0  0  0  0  0  0  0  0
  136.9535   75.8573  221.0479 H   0  0  0  0  0  0  0  0  0  0  0  0
  137.4180   73.7790  221.3240 C   0  0  0  0  0  0  0  0  0  0  0  0
  136.4788   73.3314  220.9669 H   0  0  0  0  0  0  0  0  0  0  0  0
  138.1446   73.9079  220.5082 H   0  0  0  0  0  0  0  0  0  0  0  0
  138.0270   72.8680  222.3250 N   0  0  0  0  0  0  0  0  0  0  0  0
  138.6480   73.4330  222.9550 H   0  0  0  0  0  0  0  0  0  0  0  0
  136.9550   72.2690  223.1680 C   0  0  0  0  0  0  0  0  0  0  0  0
  136.6678   73.0009  223.9373 H   0  0  0  0  0  0  0  0  0  0  0  0
  136.1201   72.0175  222.4975 H   0  0  0  0  0  0  0  0  0  0  0  0
  137.3800   70.9620  223.8720 C   0  0  0  0  0  0  0  0  0  0  0  0
  136.9542   70.9436  224.8861 H   0  0  0  0  0  0  0  0  0  0  0  0
  137.0088   70.1086  223.2855 H   0  0  0  0  0  0  0  0  0  0  0  0
  138.8390   70.8710  223.9620 N   0  0  0  0  0  0  0  0  0  0  0  0
  139.4900   70.5970  225.2190 C   0  0  0  0  0  0  0  0  0  0  0  0
  140.4080   71.5140  225.7590 C   0  0  0  0  0  0  0  0  0  0  0  0
  140.6438   72.4389  225.2123 H   0  0  0  0  0  0  0  0  0  0  0  0
  141.0230   71.2560  226.9880 C   0  0  0  0  0  0  0  0  0  0  0  0
  141.7474   71.9735  227.4009 H   0  0  0  0  0  0  0  0  0  0  0  0
  140.7190   70.0890  227.6920 C   0  0  0  0  0  0  0  0  0  0  0  0
  141.2027   69.8891  228.6595 H   0  0  0  0  0  0  0  0  0  0  0  0
  139.8000   69.1740  227.1680 C   0  0  0  0  0  0  0  0  0  0  0  0
  139.5602   68.2556  227.7239 H   0  0  0  0  0  0  0  0  0  0  0  0
  139.1860   69.4270  225.9370 C   0  0  0  0  0  0  0  0  0  0  0  0
  138.4616   68.7070  225.5286 H   0  0  0  0  0  0  0  0  0  0  0  0
  139.6350   71.0360  222.7390 C   0  0  0  0  0  0  0  0  0  0  0  0
  140.5551   71.5893  222.9781 H   0  0  0  0  0  0  0  0  0  0  0  0
  139.8829   70.0415  222.3395 H   0  0  0  0  0  0  0  0  0  0  0  0
  138.8390   71.8130  221.6780 C   0  0  0  0  0  0  0  0  0  0  0  0
  139.5376   72.2766  220.9659 H   0  0  0  0  0  0  0  0  0  0  0  0
  138.1712   71.1182  221.1476 H   0  0  0  0  0  0  0  0  0  0  0  0
  140.0000   80.0150  222.6690 C   0  0  0  0  0  0  0  0  0  0  0  0
  140.5820   81.2130  222.2100 C   0  0  0  0  0  0  0  0  0  0  0  0
  140.0277   81.8599  221.5142 H   0  0  0  0  0  0  0  0  0  0  0  0
  141.8270   81.5730  222.6240 N   0  0  0  0  0  0  0  0  0  0  0  0
  142.5480   80.8020  223.4800 C   0  0  0  0  0  0  0  0  0  0  0  0
  143.5477   81.1270  223.8039 H   0  0  0  0  0  0  0  0  0  0  0  0
  142.0200   79.5980  223.9480 C   0  0  0  0  0  0  0  0  0  0  0  0
  142.6013   78.9671  224.6365 H   0  0  0  0  0  0  0  0  0  0  0  0
  140.7470   79.2020  223.5340 C   0  0  0  0  0  0  0  0  0  0  0  0
  140.3280   78.2484  223.8876 H   0  0  0  0  0  0  0  0  0  0  0  0
  1  2  1  0
  2  3  2  0
  3  4  1  0
  3  5  1  0
  5  6  2  0
  6  7  1  0
  7  8  2  0
  8  9  1  0
  8 10  1  0
 10 11  1  0
 10 12  2  0
 12 13  1  0
 12 14  1  0
 14 15  1  0
 14 16  2  0
 16 17  1  0
 17 18  2  0
 17 19  1  0
 19 20  1  0
 20 21  1  0
 20 22  1  0
 20 23  1  0
 23 24  1  0
 23 25  1  0
 23 26  1  0
 26 27  1  0
 26 28  1  0
 26 29  1  0
 29 30  1  0
 29 31  1  0
 31 32  1  0
 31 33  1  0
 31 34  1  0
 34 35  1  0
 34 36  1  0
 34 37  1  0
 37 38  1  0
 38 39  2  0
 39 40  1  0
 39 41  1  0
 41 42  1  0
 41 43  2  0
 43 44  1  0
 43 45  1  0
 45 46  1  0
 45 47  2  0
 47 48  1  0
 37 49  1  0
 49 50  1  0
 49 51  1  0
 49 52  1  0
 52 53  1  0
 52 54  1  0
  2 55  1  0
 55 56  2  0
 56 57  1  0
 56 58  1  0
 58 59  2  0
 59 60  1  0
 59 61  1  0
 61 62  1  0
 61 63  2  0
 63 64  1  0
 19  5  1  0
 52 29  1  0
 63 55  1  0
 16  7  1  0
 47 38  1  0
M  CHG  1  29   1
M  END
>  <UniqueID>  (74) 
607

>  <SMILES>  (74) 
O=c1c2ccccc2nc(/C=C/c2cccnc2)n1CCC[NH+]1CCN(c2ccccc2)CC1

>  <Energy>  (74) 
93.05114730382124

>  <Genealogy>  (74) 
O=c1c2ccccc2nc(/C=C/c2cccnc2)n1CCC[NH+]1CCN(c2ccccc2)CC1 (protonated)
O=c1c2ccccc2nc(/C=C/c2cccnc2)n1CCC[NH+]1CCN(c2ccccc2)CC1 (cis-trans isomerization)
O=c1c2ccccc2nc(/C=C/c2cccnc2)n1CCC[NH+]1CCN(c2ccccc2)CC1 (3D coordinates assigned)
O=c1c2ccccc2nc(/C=C/c2cccnc2)n1CCC[NH+]1CCN(c2ccccc2)CC1 (nonaromatic ring conformer: 93.05114730382124 kcal/mol)

>  <smiles>  (74) 
O=c1c2ccccc2nc(/C=C/c2cccnc2)n1CCCN1CCN(c2ccccc2)CC1

>  <score_type>  (74) 
oracle

>  <origin>  (74) 
autodockgpu

>  <m_score__min__energy>  (74) 
-9.2599999999999998

>  <m_primary>  (74) 
energy

>  <meeko>  (74) 
{"free_energy": -9.02, "intermolecular_energy": -11.41, "internal_energy": -2.24, "cluster_size": 13, "cluster_id": 2, "rank_in_cluster": 2}

>  <energy>  (74) 
-8.81

>  <cluster_rmsd>  (74) 
0.56

>  <rmsd>  (74) 
269.97

>  <cluster>  (74) 
2

$$$$
IETZWVUTNAYKDK-WGYGGNGENA-O
     RDKit          3D

 64 68  0  0  0  0  0  0  0  0999 V2000
  138.9305   80.3263  220.7328 H   0  0  0  0  0  0  0  0  0  0  0  0
  139.4250   79.4770  221.2270 C   0  0  0  0  0  0  0  0  0  0  0  0
  138.9720   78.2390  220.9730 C   0  0  0  0  0  0  0  0  0  0  0  0
  137.9156   78.1058  220.6967 H   0  0  0  0  0  0  0  0  0  0  0  0
  139.8540   77.0370  221.0530 C   0  0  0  0  0  0  0  0  0  0  0  0
  141.0520   77.0950  220.4100 N   0  0  0  0  0  0  0  0  0  0  0  0
  141.9160   76.0580  220.3860 C   0  0  0  0  0  0  0  0  0  0  0  0
  143.1360   76.1780  219.7090 C   0  0  0  0  0  0  0  0  0  0  0  0
  143.3932   77.1192  219.2011 H   0  0  0  0  0  0  0  0  0  0  0  0
  144.0270   75.1010  219.6790 C   0  0  0  0  0  0  0  0  0  0  0  0
  144.9852   75.1956  219.1471 H   0  0  0  0  0  0  0  0  0  0  0  0
  143.7020   73.9040  220.3240 C   0  0  0  0  0  0  0  0  0  0  0  0
  144.4049   73.0582  220.2998 H   0  0  0  0  0  0  0  0  0  0  0  0
  142.4840   73.7810  221.0000 C   0  0  0  0  0  0  0  0  0  0  0  0
  142.2297   72.8371  221.5043 H   0  0  0  0  0  0  0  0  0  0  0  0
  141.5820   74.8620  221.0370 C   0  0  0  0  0  0  0  0  0  0  0  0
  140.3470   74.7930  221.7030 C   0  0  0  0  0  0  0  0  0  0  0  0
  140.0250   73.7180  222.2860 O   0  0  0  0  0  0  0  0  0  0  0  0
  139.4950   75.8760  221.7220 N   0  0  0  0  0  0  0  0  0  0  0  0
  138.2060   75.7350  222.4440 C   0  0  0  0  0  0  0  0  0  0  0  0
  138.2483   74.8350  223.0750 H   0  0  0  0  0  0  0  0  0  0  0  0
  138.0552   76.6389  223.0525 H   0  0  0  0  0  0  0  0  0  0  0  0
  137.0170   75.6080  221.4750 C   0  0  0  0  0  0  0  0  0  0  0  0
  136.2965   76.4097  221.6945 H   0  0  0  0  0  0  0  0  0  0  0  0
  137.4118   75.6863  220.4513 H   0  0  0  0  0  0  0  0  0  0  0  0
  136.2970   74.2510  221.5950 C   0  0  0  0  0  0  0  0  0  0  0  0
  135.3489   74.4023  222.1318 H   0  0  0  0  0  0  0  0  0  0  0  0
  136.1323   73.8718  220.5757 H   0  0  0  0  0  0  0  0  0  0  0  0
  137.0990   73.2380  222.3250 N   0  0  0  0  0  0  0  0  0  0  0  0
  137.9040   73.7230  222.7920 H   0  0  0  0  0  0  0  0  0  0  0  0
  136.2660   72.6190  223.3930 C   0  0  0  0  0  0  0  0  0  0  0  0
  136.2494   73.2981  224.2582 H   0  0  0  0  0  0  0  0  0  0  0  0
  135.2645   72.4579  222.9675 H   0  0  0  0  0  0  0  0  0  0  0  0
  136.7840   71.2430  223.8630 C   0  0  0  0  0  0  0  0  0  0  0  0
  136.6534   71.1613  224.9522 H   0  0  0  0  0  0  0  0  0  0  0  0
  136.2122   70.4565  223.3488 H   0  0  0  0  0  0  0  0  0  0  0  0
  138.2030   71.0820  223.5360 N   0  0  0  0  0  0  0  0  0  0  0  0
  139.1560   70.6810  224.5410 C   0  0  0  0  0  0  0  0  0  0  0  0
  139.0100   69.4530  225.2090 C   0  0  0  0  0  0  0  0  0  0  0  0
  138.1554   68.8008  224.9759 H   0  0  0  0  0  0  0  0  0  0  0  0
  139.9470   69.0570  226.1690 C   0  0  0  0  0  0  0  0  0  0  0  0
  139.8225   68.0990  226.6952 H   0  0  0  0  0  0  0  0  0  0  0  0
  141.0410   69.8760  226.4610 C   0  0  0  0  0  0  0  0  0  0  0  0
  141.7778   69.5616  227.2148 H   0  0  0  0  0  0  0  0  0  0  0  0
  141.1990   71.0950  225.7950 C   0  0  0  0  0  0  0  0  0  0  0  0
  142.0608   71.7388  226.0249 H   0  0  0  0  0  0  0  0  0  0  0  0
  140.2630   71.4970  224.8370 C   0  0  0  0  0  0  0  0  0  0  0  0
  140.3929   72.4553  224.3127 H   0  0  0  0  0  0  0  0  0  0  0  0
  138.6400   71.3110  222.1530 C   0  0  0  0  0  0  0  0  0  0  0  0
  139.6236   71.8034  222.1613 H   0  0  0  0  0  0  0  0  0  0  0  0
  138.7045   70.3423  221.6359 H   0  0  0  0  0  0  0  0  0  0  0  0
  137.6340   72.2040  221.4100 C   0  0  0  0  0  0  0  0  0  0  0  0
  138.1377   72.6930  220.5631 H   0  0  0  0  0  0  0  0  0  0  0  0
  136.8034   71.5830  221.0434 H   0  0  0  0  0  0  0  0  0  0  0  0
  140.5580   79.7560  222.1400 C   0  0  0  0  0  0  0  0  0  0  0  0
  141.5410   80.7230  221.8530 C   0  0  0  0  0  0  0  0  0  0  0  0
  141.4709   81.3182  220.9306 H   0  0  0  0  0  0  0  0  0  0  0  0
  142.5770   80.9240  222.7120 N   0  0  0  0  0  0  0  0  0  0  0  0
  142.7040   80.2090  223.8610 C   0  0  0  0  0  0  0  0  0  0  0  0
  143.5474   80.4036  224.5398 H   0  0  0  0  0  0  0  0  0  0  0  0
  141.7640   79.2280  224.1790 C   0  0  0  0  0  0  0  0  0  0  0  0
  141.8650   78.6414  225.1040 H   0  0  0  0  0  0  0  0  0  0  0  0
  140.6940   78.9980  223.3120 C   0  0  0  0  0  0  0  0  0  0  0  0
  139.9546   78.2189  223.5493 H   0  0  0  0  0  0  0  0  0  0  0  0
  1  2  1  0
  2  3  2  0
  3  4  1  0
  3  5  1  0
  5  6  2  0
  6  7  1  0
  7  8  2  0
  8  9  1  0
  8 10  1  0
 10 11  1  0
 10 12  2  0
 12 13  1  0
 12 14  1  0
 14 15  1  0
 14 16  2  0
 16 17  1  0
 17 18  2  0
 17 19  1  0
 19 20  1  0
 20 21  1  0
 20 22  1  0
 20 23  1  0
 23 24  1  0
 23 25  1  0
 23 26  1  0
 26 27  1  0
 26 28  1  0
 26 29  1  0
 29 30  1  0
 29 31  1  0
 31 32  1  0
 31 33  1  0
 31 34  1  0
 34 35  1  0
 34 36  1  0
 34 37  1  0
 37 38  1  0
 38 39  2  0
 39 40  1  0
 39 41  1  0
 41 42  1  0
 41 43  2  0
 43 44  1  0
 43 45  1  0
 45 46  1  0
 45 47  2  0
 47 48  1  0
 37 49  1  0
 49 50  1  0
 49 51  1  0
 49 52  1  0
 52 53  1  0
 52 54  1  0
  2 55  1  0
 55 56  2  0
 56 57  1  0
 56 58  1  0
 58 59  2  0
 59 60  1  0
 59 61  1  0
 61 62  1  0
 61 63  2  0
 63 64  1  0
 19  5  1  0
 52 29  1  0
 63 55  1  0
 16  7  1  0
 47 38  1  0
M  CHG  1  29   1
M  END
>  <UniqueID>  (75) 
607

>  <SMILES>  (75) 
O=c1c2ccccc2nc(/C=C/c2cccnc2)n1CCC[NH+]1CCN(c2ccccc2)CC1

>  <Energy>  (75) 
93.05114730382124

>  <Genealogy>  (75) 
O=c1c2ccccc2nc(/C=C/c2cccnc2)n1CCC[NH+]1CCN(c2ccccc2)CC1 (protonated)
O=c1c2ccccc2nc(/C=C/c2cccnc2)n1CCC[NH+]1CCN(c2ccccc2)CC1 (cis-trans isomerization)
O=c1c2ccccc2nc(/C=C/c2cccnc2)n1CCC[NH+]1CCN(c2ccccc2)CC1 (3D coordinates assigned)
O=c1c2ccccc2nc(/C=C/c2cccnc2)n1CCC[NH+]1CCN(c2ccccc2)CC1 (nonaromatic ring conformer: 93.05114730382124 kcal/mol)

>  <smiles>  (75) 
O=c1c2ccccc2nc(/C=C/c2cccnc2)n1CCCN1CCN(c2ccccc2)CC1

>  <score_type>  (75) 
oracle

>  <origin>  (75) 
autodockgpu

>  <m_score__min__energy>  (75) 
-9.2599999999999998

>  <m_primary>  (75) 
energy

>  <meeko>  (75) 
{"free_energy": -8.44, "intermolecular_energy": -10.83, "internal_energy": -2.29, "cluster_size": 13, "cluster_id": 2, "rank_in_cluster": 11}

>  <energy>  (75) 
-8.53

>  <cluster_rmsd>  (75) 
0.78

>  <rmsd>  (75) 
269.84

>  <cluster>  (75) 
2

$$$$
IETZWVUTNAYKDK-WGYGGNGENA-O
     RDKit          3D

 64 68  0  0  0  0  0  0  0  0999 V2000
  143.8987   75.8517  217.5792 H   0  0  0  0  0  0  0  0  0  0  0  0
  143.4870   75.1870  218.3530 C   0  0  0  0  0  0  0  0  0  0  0  0
  142.1690   75.2340  218.5990 C   0  0  0  0  0  0  0  0  0  0  0  0
  141.4801   74.7373  217.9000 H   0  0  0  0  0  0  0  0  0  0  0  0
  141.6050   75.9380  219.7900 C   0  0  0  0  0  0  0  0  0  0  0  0
  141.9130   77.2540  219.9420 N   0  0  0  0  0  0  0  0  0  0  0  0
  141.4880   77.9840  220.9960 C   0  0  0  0  0  0  0  0  0  0  0  0
  141.8350   79.3360  221.0980 C   0  0  0  0  0  0  0  0  0  0  0  0
  142.4495   79.8063  220.3162 H   0  0  0  0  0  0  0  0  0  0  0  0
  141.4010   80.0890  222.1930 C   0  0  0  0  0  0  0  0  0  0  0  0
  141.6739   81.1517  222.2721 H   0  0  0  0  0  0  0  0  0  0  0  0
  140.6200   79.4920  223.1880 C   0  0  0  0  0  0  0  0  0  0  0  0
  140.2792   80.0859  224.0489 H   0  0  0  0  0  0  0  0  0  0  0  0
  140.2720   78.1420  223.0900 C   0  0  0  0  0  0  0  0  0  0  0  0
  139.6587   77.6752  223.8748 H   0  0  0  0  0  0  0  0  0  0  0  0
  140.7050   77.3770  221.9880 C   0  0  0  0  0  0  0  0  0  0  0  0
  140.3830   76.0180  221.8390 C   0  0  0  0  0  0  0  0  0  0  0  0
  139.6850   75.4530  222.7300 O   0  0  0  0  0  0  0  0  0  0  0  0
  140.8190   75.3060  220.7420 N   0  0  0  0  0  0  0  0  0  0  0  0
  140.4420   73.8740  220.6470 C   0  0  0  0  0  0  0  0  0  0  0  0
  141.1845   73.3510  220.0264 H   0  0  0  0  0  0  0  0  0  0  0  0
  140.4151   73.4597  221.6656 H   0  0  0  0  0  0  0  0  0  0  0  0
  139.0490   73.6890  220.0190 C   0  0  0  0  0  0  0  0  0  0  0  0
  138.7304   74.6462  219.5804 H   0  0  0  0  0  0  0  0  0  0  0  0
  139.1295   72.9000  219.2567 H   0  0  0  0  0  0  0  0  0  0  0  0
  137.9910   73.2400  221.0450 C   0  0  0  0  0  0  0  0  0  0  0  0
  137.4468   74.1275  221.4002 H   0  0  0  0  0  0  0  0  0  0  0  0
  137.3225   72.5264  220.5411 H   0  0  0  0  0  0  0  0  0  0  0  0
  138.5840   72.5470  222.2160 N   0  0  0  0  0  0  0  0  0  0  0  0
  139.1140   73.2510  222.7870 H   0  0  0  0  0  0  0  0  0  0  0  0
  137.4970   72.0000  223.0740 C   0  0  0  0  0  0  0  0  0  0  0  0
  137.1019   72.8162  223.6967 H   0  0  0  0  0  0  0  0  0  0  0  0
  136.7355   71.5804  222.4002 H   0  0  0  0  0  0  0  0  0  0  0  0
  137.9570   70.8570  224.0030 C   0  0  0  0  0  0  0  0  0  0  0  0
  137.4576   70.9612  224.9775 H   0  0  0  0  0  0  0  0  0  0  0  0
  137.6919   69.8961  223.5378 H   0  0  0  0  0  0  0  0  0  0  0  0
  139.4080   70.8990  224.2000 N   0  0  0  0  0  0  0  0  0  0  0  0
  139.9790   70.8770  225.5240 C   0  0  0  0  0  0  0  0  0  0  0  0
  140.8880   71.8720  225.9230 C   0  0  0  0  0  0  0  0  0  0  0  0
  141.1791   72.6633  225.2165 H   0  0  0  0  0  0  0  0  0  0  0  0
  141.4240   71.8600  227.2150 C   0  0  0  0  0  0  0  0  0  0  0  0
  142.1406   72.6371  227.5191 H   0  0  0  0  0  0  0  0  0  0  0  0
  141.0510   70.8630  228.1200 C   0  0  0  0  0  0  0  0  0  0  0  0
  141.4734   70.8562  229.1356 H   0  0  0  0  0  0  0  0  0  0  0  0
  140.1410   69.8740  227.7350 C   0  0  0  0  0  0  0  0  0  0  0  0
  139.8464   69.0901  228.4483 H   0  0  0  0  0  0  0  0  0  0  0  0
  139.6050   69.8810  226.4430 C   0  0  0  0  0  0  0  0  0  0  0  0
  138.8870   69.1030  226.1444 H   0  0  0  0  0  0  0  0  0  0  0  0
  140.2810   70.9380  223.0200 C   0  0  0  0  0  0  0  0  0  0  0  0
  141.1392   71.5945  223.2265 H   0  0  0  0  0  0  0  0  0  0  0  0
  140.6275   69.9173  222.8008 H   0  0  0  0  0  0  0  0  0  0  0  0
  139.5160   71.4750  221.8000 C   0  0  0  0  0  0  0  0  0  0  0  0
  140.2328   71.8790  221.0700 H   0  0  0  0  0  0  0  0  0  0  0  0
  138.9414   70.6545  221.3454 H   0  0  0  0  0  0  0  0  0  0  0  0
  144.4160   74.2830  219.0730 C   0  0  0  0  0  0  0  0  0  0  0  0
  145.1310   73.2590  218.4230 C   0  0  0  0  0  0  0  0  0  0  0  0
  145.0253   73.1215  217.3368 H   0  0  0  0  0  0  0  0  0  0  0  0
  145.9520   72.4390  219.1330 N   0  0  0  0  0  0  0  0  0  0  0  0
  146.1090   72.5710  220.4760 C   0  0  0  0  0  0  0  0  0  0  0  0
  146.7898   71.8987  221.0187 H   0  0  0  0  0  0  0  0  0  0  0  0
  145.4070   73.5590  221.1670 C   0  0  0  0  0  0  0  0  0  0  0  0
  145.5249   73.6659  222.2554 H   0  0  0  0  0  0  0  0  0  0  0  0
  144.5530   74.4110  220.4630 C   0  0  0  0  0  0  0  0  0  0  0  0
  143.9858   75.1852  221.0006 H   0  0  0  0  0  0  0  0  0  0  0  0
  1  2  1  0
  2  3  2  0
  3  4  1  0
  3  5  1  0
  5  6  2  0
  6  7  1  0
  7  8  2  0
  8  9  1  0
  8 10  1  0
 10 11  1  0
 10 12  2  0
 12 13  1  0
 12 14  1  0
 14 15  1  0
 14 16  2  0
 16 17  1  0
 17 18  2  0
 17 19  1  0
 19 20  1  0
 20 21  1  0
 20 22  1  0
 20 23  1  0
 23 24  1  0
 23 25  1  0
 23 26  1  0
 26 27  1  0
 26 28  1  0
 26 29  1  0
 29 30  1  0
 29 31  1  0
 31 32  1  0
 31 33  1  0
 31 34  1  0
 34 35  1  0
 34 36  1  0
 34 37  1  0
 37 38  1  0
 38 39  2  0
 39 40  1  0
 39 41  1  0
 41 42  1  0
 41 43  2  0
 43 44  1  0
 43 45  1  0
 45 46  1  0
 45 47  2  0
 47 48  1  0
 37 49  1  0
 49 50  1  0
 49 51  1  0
 49 52  1  0
 52 53  1  0
 52 54  1  0
  2 55  1  0
 55 56  2  0
 56 57  1  0
 56 58  1  0
 58 59  2  0
 59 60  1  0
 59 61  1  0
 61 62  1  0
 61 63  2  0
 63 64  1  0
 19  5  1  0
 52 29  1  0
 63 55  1  0
 16  7  1  0
 47 38  1  0
M  CHG  1  29   1
M  END
>  <UniqueID>  (76) 
607

>  <SMILES>  (76) 
O=c1c2ccccc2nc(/C=C/c2cccnc2)n1CCC[NH+]1CCN(c2ccccc2)CC1

>  <Energy>  (76) 
93.05114730382124

>  <Genealogy>  (76) 
O=c1c2ccccc2nc(/C=C/c2cccnc2)n1CCC[NH+]1CCN(c2ccccc2)CC1 (protonated)
O=c1c2ccccc2nc(/C=C/c2cccnc2)n1CCC[NH+]1CCN(c2ccccc2)CC1 (cis-trans isomerization)
O=c1c2ccccc2nc(/C=C/c2cccnc2)n1CCC[NH+]1CCN(c2ccccc2)CC1 (3D coordinates assigned)
O=c1c2ccccc2nc(/C=C/c2cccnc2)n1CCC[NH+]1CCN(c2ccccc2)CC1 (nonaromatic ring conformer: 93.05114730382124 kcal/mol)

>  <smiles>  (76) 
O=c1c2ccccc2nc(/C=C/c2cccnc2)n1CCCN1CCN(c2ccccc2)CC1

>  <score_type>  (76) 
oracle

>  <origin>  (76) 
autodockgpu

>  <m_score__min__energy>  (76) 
-9.2599999999999998

>  <m_primary>  (76) 
energy

>  <meeko>  (76) 
{"free_energy": -9.26, "intermolecular_energy": -11.65, "internal_energy": -1.64, "cluster_size": 6, "cluster_id": 1, "rank_in_cluster": 1}

>  <energy>  (76) 
-8.48

>  <cluster_rmsd>  (76) 
0.88

>  <rmsd>  (76) 
269.85

>  <cluster>  (76) 
2

$$$$
IETZWVUTNAYKDK-WGYGGNGENA-O
     RDKit          3D

 64 68  0  0  0  0  0  0  0  0999 V2000
  140.2294   69.6567  223.0904 H   0  0  0  0  0  0  0  0  0  0  0  0
  139.9540   70.6120  223.5610 C   0  0  0  0  0  0  0  0  0  0  0  0
  139.3980   71.5640  222.7950 C   0  0  0  0  0  0  0  0  0  0  0  0
  138.3019   71.6067  222.7125 H   0  0  0  0  0  0  0  0  0  0  0  0
  140.2170   72.5670  222.0510 C   0  0  0  0  0  0  0  0  0  0  0  0
  141.5020   72.2290  221.7560 N   0  0  0  0  0  0  0  0  0  0  0  0
  142.3450   73.0680  221.1150 C   0  0  0  0  0  0  0  0  0  0  0  0
  143.6560   72.6640  220.8370 C   0  0  0  0  0  0  0  0  0  0  0  0
  143.9979   71.6619  221.1352 H   0  0  0  0  0  0  0  0  0  0  0  0
  144.5310   73.5350  220.1800 C   0  0  0  0  0  0  0  0  0  0  0  0
  145.5609   73.2171  219.9605 H   0  0  0  0  0  0  0  0  0  0  0  0
  144.0980   74.8090  219.8020 C   0  0  0  0  0  0  0  0  0  0  0  0
  144.7880   75.4927  219.2858 H   0  0  0  0  0  0  0  0  0  0  0  0
  142.7890   75.2160  220.0790 C   0  0  0  0  0  0  0  0  0  0  0  0
  142.4517   76.2197  219.7811 H   0  0  0  0  0  0  0  0  0  0  0  0
  141.9010   74.3430  220.7390 C   0  0  0  0  0  0  0  0  0  0  0  0
  140.5770   74.6990  221.0400 C   0  0  0  0  0  0  0  0  0  0  0  0
  140.1630   75.8500  220.7160 O   0  0  0  0  0  0  0  0  0  0  0  0
  139.7360   73.8130  221.6800 N   0  0  0  0  0  0  0  0  0  0  0  0
  138.3490   74.2540  221.9680 C   0  0  0  0  0  0  0  0  0  0  0  0
  137.8616   73.5020  222.6059 H   0  0  0  0  0  0  0  0  0  0  0  0
  138.3988   75.2296  222.4738 H   0  0  0  0  0  0  0  0  0  0  0  0
  137.5230   74.4250  220.6790 C   0  0  0  0  0  0  0  0  0  0  0  0
  138.1750   74.2310  219.8145 H   0  0  0  0  0  0  0  0  0  0  0  0
  136.6853   73.7134  220.7234 H   0  0  0  0  0  0  0  0  0  0  0  0
  136.9270   75.8390  220.5400 C   0  0  0  0  0  0  0  0  0  0  0  0
  136.7904   76.0595  219.4710 H   0  0  0  0  0  0  0  0  0  0  0  0
  135.9710   75.8509  221.0839 H   0  0  0  0  0  0  0  0  0  0  0  0
  137.7930   76.8880  221.1340 N   0  0  0  0  0  0  0  0  0  0  0  0
  138.6970   76.4460  221.4330 H   0  0  0  0  0  0  0  0  0  0  0  0
  138.1130   77.9120  220.1020 C   0  0  0  0  0  0  0  0  0  0  0  0
  138.9297   77.5281  219.4731 H   0  0  0  0  0  0  0  0  0  0  0  0
  137.1912   78.0906  219.5289 H   0  0  0  0  0  0  0  0  0  0  0  0
  138.5490   79.2710  220.6920 C   0  0  0  0  0  0  0  0  0  0  0  0
  139.3588   79.6887  220.0757 H   0  0  0  0  0  0  0  0  0  0  0  0
  137.6824   79.9486  220.6954 H   0  0  0  0  0  0  0  0  0  0  0  0
  139.0260   79.1110  222.0680 N   0  0  0  0  0  0  0  0  0  0  0  0
  140.3030   79.6400  222.4780 C   0  0  0  0  0  0  0  0  0  0  0  0
  141.0470   79.0010  223.4860 C   0  0  0  0  0  0  0  0  0  0  0  0
  140.6463   78.1012  223.9758 H   0  0  0  0  0  0  0  0  0  0  0  0
  142.2940   79.5050  223.8680 C   0  0  0  0  0  0  0  0  0  0  0  0
  142.8675   79.0065  224.6634 H   0  0  0  0  0  0  0  0  0  0  0  0
  142.8130   80.6410  223.2410 C   0  0  0  0  0  0  0  0  0  0  0  0
  143.7948   81.0350  223.5423 H   0  0  0  0  0  0  0  0  0  0  0  0
  142.0850   81.2770  222.2310 C   0  0  0  0  0  0  0  0  0  0  0  0
  142.4954   82.1699  221.7366 H   0  0  0  0  0  0  0  0  0  0  0  0
  140.8360   80.7790  221.8490 C   0  0  0  0  0  0  0  0  0  0  0  0
  140.2672   81.2807  221.0523 H   0  0  0  0  0  0  0  0  0  0  0  0
  138.1650   78.4220  223.0380 C   0  0  0  0  0  0  0  0  0  0  0  0
  138.7899   77.8107  223.7057 H   0  0  0  0  0  0  0  0  0  0  0  0
  137.6115   79.1749  223.6183 H   0  0  0  0  0  0  0  0  0  0  0  0
  137.1570   77.5130  222.3170 C   0  0  0  0  0  0  0  0  0  0  0  0
  136.8183   76.7259  223.0067 H   0  0  0  0  0  0  0  0  0  0  0  0
  136.2981   78.1164  221.9882 H   0  0  0  0  0  0  0  0  0  0  0  0
  140.2150   70.7850  225.0100 C   0  0  0  0  0  0  0  0  0  0  0  0
  140.9540   71.8690  225.5220 C   0  0  0  0  0  0  0  0  0  0  0  0
  141.3433   72.6383  224.8389 H   0  0  0  0  0  0  0  0  0  0  0  0
  141.1880   71.9680  226.8580 N   0  0  0  0  0  0  0  0  0  0  0  0
  140.7290   71.0400  227.7370 C   0  0  0  0  0  0  0  0  0  0  0  0
  140.9261   71.1566  228.8129 H   0  0  0  0  0  0  0  0  0  0  0  0
  140.0070   69.9380  227.2750 C   0  0  0  0  0  0  0  0  0  0  0  0
  139.6382   69.1794  227.9811 H   0  0  0  0  0  0  0  0  0  0  0  0
  139.7580   69.8090  225.9070 C   0  0  0  0  0  0  0  0  0  0  0  0
  139.2009   68.9380  225.5315 H   0  0  0  0  0  0  0  0  0  0  0  0
  1  2  1  0
  2  3  2  0
  3  4  1  0
  3  5  1  0
  5  6  2  0
  6  7  1  0
  7  8  2  0
  8  9  1  0
  8 10  1  0
 10 11  1  0
 10 12  2  0
 12 13  1  0
 12 14  1  0
 14 15  1  0
 14 16  2  0
 16 17  1  0
 17 18  2  0
 17 19  1  0
 19 20  1  0
 20 21  1  0
 20 22  1  0
 20 23  1  0
 23 24  1  0
 23 25  1  0
 23 26  1  0
 26 27  1  0
 26 28  1  0
 26 29  1  0
 29 30  1  0
 29 31  1  0
 31 32  1  0
 31 33  1  0
 31 34  1  0
 34 35  1  0
 34 36  1  0
 34 37  1  0
 37 38  1  0
 38 39  2  0
 39 40  1  0
 39 41  1  0
 41 42  1  0
 41 43  2  0
 43 44  1  0
 43 45  1  0
 45 46  1  0
 45 47  2  0
 47 48  1  0
 37 49  1  0
 49 50  1  0
 49 51  1  0
 49 52  1  0
 52 53  1  0
 52 54  1  0
  2 55  1  0
 55 56  2  0
 56 57  1  0
 56 58  1  0
 58 59  2  0
 59 60  1  0
 59 61  1  0
 61 62  1  0
 61 63  2  0
 63 64  1  0
 19  5  1  0
 52 29  1  0
 63 55  1  0
 16  7  1  0
 47 38  1  0
M  CHG  1  29   1
M  END
>  <UniqueID>  (77) 
607

>  <SMILES>  (77) 
O=c1c2ccccc2nc(/C=C/c2cccnc2)n1CCC[NH+]1CCN(c2ccccc2)CC1

>  <Energy>  (77) 
93.05114730382124

>  <Genealogy>  (77) 
O=c1c2ccccc2nc(/C=C/c2cccnc2)n1CCC[NH+]1CCN(c2ccccc2)CC1 (protonated)
O=c1c2ccccc2nc(/C=C/c2cccnc2)n1CCC[NH+]1CCN(c2ccccc2)CC1 (cis-trans isomerization)
O=c1c2ccccc2nc(/C=C/c2cccnc2)n1CCC[NH+]1CCN(c2ccccc2)CC1 (3D coordinates assigned)
O=c1c2ccccc2nc(/C=C/c2cccnc2)n1CCC[NH+]1CCN(c2ccccc2)CC1 (nonaromatic ring conformer: 93.05114730382124 kcal/mol)

>  <smiles>  (77) 
O=c1c2ccccc2nc(/C=C/c2cccnc2)n1CCCN1CCN(c2ccccc2)CC1

>  <score_type>  (77) 
oracle

>  <origin>  (77) 
autodockgpu

>  <m_score__min__energy>  (77) 
-9.2599999999999998

>  <m_primary>  (77) 
energy

>  <meeko>  (77) 
{"free_energy": -7.61, "intermolecular_energy": -10.0, "internal_energy": -2.21, "cluster_size": 1, "cluster_id": 3, "rank_in_cluster": 1}

>  <energy>  (77) 
-8.44

>  <cluster_rmsd>  (77) 
0.82

>  <rmsd>  (77) 
269.8

>  <cluster>  (77) 
2

$$$$
IETZWVUTNAYKDK-WGYGGNGENA-O
     RDKit          3D

 64 68  0  0  0  0  0  0  0  0999 V2000
  137.8529   80.2307  222.6320 H   0  0  0  0  0  0  0  0  0  0  0  0
  138.7430   79.6860  222.2840 C   0  0  0  0  0  0  0  0  0  0  0  0
  138.5720   78.6580  221.4380 C   0  0  0  0  0  0  0  0  0  0  0  0
  137.6755   78.6378  220.8010 H   0  0  0  0  0  0  0  0  0  0  0  0
  139.5570   77.5410  221.3320 C   0  0  0  0  0  0  0  0  0  0  0  0
  140.6590   77.7500  220.5610 N   0  0  0  0  0  0  0  0  0  0  0  0
  141.6010   76.8020  220.3650 C   0  0  0  0  0  0  0  0  0  0  0  0
  142.7150   77.0770  219.5630 C   0  0  0  0  0  0  0  0  0  0  0  0
  142.8267   78.0673  219.0973 H   0  0  0  0  0  0  0  0  0  0  0  0
  143.6860   76.0920  219.3540 C   0  0  0  0  0  0  0  0  0  0  0  0
  144.5610   76.3078  218.7233 H   0  0  0  0  0  0  0  0  0  0  0  0
  143.5450   74.8340  219.9460 C   0  0  0  0  0  0  0  0  0  0  0  0
  144.3099   74.0609  219.7810 H   0  0  0  0  0  0  0  0  0  0  0  0
  142.4330   74.5560  220.7480 C   0  0  0  0  0  0  0  0  0  0  0  0
  142.3243   73.5641  221.2109 H   0  0  0  0  0  0  0  0  0  0  0  0
  141.4520   75.5440  220.9640 C   0  0  0  0  0  0  0  0  0  0  0  0
  140.3170   75.3180  221.7600 C   0  0  0  0  0  0  0  0  0  0  0  0
  140.1620   74.1850  222.2990 O   0  0  0  0  0  0  0  0  0  0  0  0
  139.3830   76.3140  221.9540 N   0  0  0  0  0  0  0  0  0  0  0  0
  138.2080   76.0090  222.8070 C   0  0  0  0  0  0  0  0  0  0  0  0
  138.4565   75.1641  223.4661 H   0  0  0  0  0  0  0  0  0  0  0  0
  137.9673   76.9095  223.3910 H   0  0  0  0  0  0  0  0  0  0  0  0
  136.9710   75.6390  221.9680 C   0  0  0  0  0  0  0  0  0  0  0  0
  136.0878   75.6389  222.6237 H   0  0  0  0  0  0  0  0  0  0  0  0
  136.8790   76.3837  221.1637 H   0  0  0  0  0  0  0  0  0  0  0  0
  137.0960   74.2520  221.3080 C   0  0  0  0  0  0  0  0  0  0  0  0
  136.0898   73.8991  221.0379 H   0  0  0  0  0  0  0  0  0  0  0  0
  137.7402   74.3626  220.4233 H   0  0  0  0  0  0  0  0  0  0  0  0
  137.7280   73.2470  222.1990 N   0  0  0  0  0  0  0  0  0  0  0  0
  138.4310   73.7340  222.8060 H   0  0  0  0  0  0  0  0  0  0  0  0
  136.6940   72.6570  223.0940 C   0  0  0  0  0  0  0  0  0  0  0  0
  136.5161   73.3539  223.9263 H   0  0  0  0  0  0  0  0  0  0  0  0
  135.7936   72.4954  222.4831 H   0  0  0  0  0  0  0  0  0  0  0  0
  137.0930   71.2870  223.6820 C   0  0  0  0  0  0  0  0  0  0  0  0
  136.7511   71.2292  224.7259 H   0  0  0  0  0  0  0  0  0  0  0  0
  136.6230   70.4948  223.0807 H   0  0  0  0  0  0  0  0  0  0  0  0
  138.5470   71.1070  223.6420 N   0  0  0  0  0  0  0  0  0  0  0  0
  139.2800   70.7190  224.8210 C   0  0  0  0  0  0  0  0  0  0  0  0
  138.9820   69.5120  225.4780 C   0  0  0  0  0  0  0  0  0  0  0  0
  138.1741   68.8679  225.1004 H   0  0  0  0  0  0  0  0  0  0  0  0
  139.7080   69.1270  226.6090 C   0  0  0  0  0  0  0  0  0  0  0  0
  139.4644   68.1858  227.1237 H   0  0  0  0  0  0  0  0  0  0  0  0
  140.7430   69.9360  227.0870 C   0  0  0  0  0  0  0  0  0  0  0  0
  141.3141   69.6306  227.9761 H   0  0  0  0  0  0  0  0  0  0  0  0
  141.0520   71.1330  226.4350 C   0  0  0  0  0  0  0  0  0  0  0  0
  141.8673   71.7686  226.8110 H   0  0  0  0  0  0  0  0  0  0  0  0
  140.3260   71.5240  225.3050 C   0  0  0  0  0  0  0  0  0  0  0  0
  140.5746   72.4653  224.7930 H   0  0  0  0  0  0  0  0  0  0  0  0
  139.2480   71.3040  222.3670 C   0  0  0  0  0  0  0  0  0  0  0  0
  140.2173   71.7876  222.5583 H   0  0  0  0  0  0  0  0  0  0  0  0
  139.3992   70.3243  221.8902 H   0  0  0  0  0  0  0  0  0  0  0  0
  138.4180   72.1910  221.4250 C   0  0  0  0  0  0  0  0  0  0  0  0
  139.0838   72.6585  220.6846 H   0  0  0  0  0  0  0  0  0  0  0  0
  137.6675   71.5703  220.9136 H   0  0  0  0  0  0  0  0  0  0  0  0
  140.0720   80.1230  222.7720 C   0  0  0  0  0  0  0  0  0  0  0  0
  140.6140   81.3850  222.4610 C   0  0  0  0  0  0  0  0  0  0  0  0
  140.0360   82.0948  221.8510 H   0  0  0  0  0  0  0  0  0  0  0  0
  141.8510   81.7290  222.9130 N   0  0  0  0  0  0  0  0  0  0  0  0
  142.6000   80.8820  223.6660 C   0  0  0  0  0  0  0  0  0  0  0  0
  143.5913   81.1958  224.0251 H   0  0  0  0  0  0  0  0  0  0  0  0
  142.1120   79.6140  223.9840 C   0  0  0  0  0  0  0  0  0  0  0  0
  142.7167   78.9215  224.5880 H   0  0  0  0  0  0  0  0  0  0  0  0
  140.8490   79.2330  223.5280 C   0  0  0  0  0  0  0  0  0  0  0  0
  140.4614   78.2306  223.7625 H   0  0  0  0  0  0  0  0  0  0  0  0
  1  2  1  0
  2  3  2  0
  3  4  1  0
  3  5  1  0
  5  6  2  0
  6  7  1  0
  7  8  2  0
  8  9  1  0
  8 10  1  0
 10 11  1  0
 10 12  2  0
 12 13  1  0
 12 14  1  0
 14 15  1  0
 14 16  2  0
 16 17  1  0
 17 18  2  0
 17 19  1  0
 19 20  1  0
 20 21  1  0
 20 22  1  0
 20 23  1  0
 23 24  1  0
 23 25  1  0
 23 26  1  0
 26 27  1  0
 26 28  1  0
 26 29  1  0
 29 30  1  0
 29 31  1  0
 31 32  1  0
 31 33  1  0
 31 34  1  0
 34 35  1  0
 34 36  1  0
 34 37  1  0
 37 38  1  0
 38 39  2  0
 39 40  1  0
 39 41  1  0
 41 42  1  0
 41 43  2  0
 43 44  1  0
 43 45  1  0
 45 46  1  0
 45 47  2  0
 47 48  1  0
 37 49  1  0
 49 50  1  0
 49 51  1  0
 49 52  1  0
 52 53  1  0
 52 54  1  0
  2 55  1  0
 55 56  2  0
 56 57  1  0
 56 58  1  0
 58 59  2  0
 59 60  1  0
 59 61  1  0
 61 62  1  0
 61 63  2  0
 63 64  1  0
 19  5  1  0
 52 29  1  0
 63 55  1  0
 16  7  1  0
 47 38  1  0
M  CHG  1  29   1
M  END
>  <UniqueID>  (78) 
607

>  <SMILES>  (78) 
O=c1c2ccccc2nc(/C=C/c2cccnc2)n1CCC[NH+]1CCN(c2ccccc2)CC1

>  <Energy>  (78) 
93.05114730382124

>  <Genealogy>  (78) 
O=c1c2ccccc2nc(/C=C/c2cccnc2)n1CCC[NH+]1CCN(c2ccccc2)CC1 (protonated)
O=c1c2ccccc2nc(/C=C/c2cccnc2)n1CCC[NH+]1CCN(c2ccccc2)CC1 (cis-trans isomerization)
O=c1c2ccccc2nc(/C=C/c2cccnc2)n1CCC[NH+]1CCN(c2ccccc2)CC1 (3D coordinates assigned)
O=c1c2ccccc2nc(/C=C/c2cccnc2)n1CCC[NH+]1CCN(c2ccccc2)CC1 (nonaromatic ring conformer: 93.05114730382124 kcal/mol)

>  <smiles>  (78) 
O=c1c2ccccc2nc(/C=C/c2cccnc2)n1CCCN1CCN(c2ccccc2)CC1

>  <score_type>  (78) 
oracle

>  <origin>  (78) 
autodockgpu

>  <m_score__min__energy>  (78) 
-9.2599999999999998

>  <m_primary>  (78) 
energy

>  <meeko>  (78) 
{"free_energy": -8.89, "intermolecular_energy": -11.28, "internal_energy": -2.35, "cluster_size": 13, "cluster_id": 2, "rank_in_cluster": 6}

>  <energy>  (78) 
-8.42

>  <cluster_rmsd>  (78) 
0.82

>  <rmsd>  (78) 
269.83

>  <cluster>  (78) 
2

$$$$
IETZWVUTNAYKDK-WGYGGNGENA-O
     RDKit          3D

 64 68  0  0  0  0  0  0  0  0999 V2000
  137.9046   80.1630  222.4730 H   0  0  0  0  0  0  0  0  0  0  0  0
  138.7940   79.5900  222.1720 C   0  0  0  0  0  0  0  0  0  0  0  0
  138.6370   78.5760  221.3060 C   0  0  0  0  0  0  0  0  0  0  0  0
  137.7589   78.5741  220.6434 H   0  0  0  0  0  0  0  0  0  0  0  0
  139.6140   77.4510  221.2120 C   0  0  0  0  0  0  0  0  0  0  0  0
  140.7090   77.6370  220.4260 N   0  0  0  0  0  0  0  0  0  0  0  0
  141.6420   76.6790  220.2400 C   0  0  0  0  0  0  0  0  0  0  0  0
  142.7500   76.9290  219.4220 C   0  0  0  0  0  0  0  0  0  0  0  0
  142.8640   77.9089  218.9354 H   0  0  0  0  0  0  0  0  0  0  0  0
  143.7120   75.9340  219.2230 C   0  0  0  0  0  0  0  0  0  0  0  0
  144.5823   76.1313  218.5799 H   0  0  0  0  0  0  0  0  0  0  0  0
  143.5680   74.6890  219.8410 C   0  0  0  0  0  0  0  0  0  0  0  0
  144.3259   73.9075  219.6836 H   0  0  0  0  0  0  0  0  0  0  0  0
  142.4630   74.4340  220.6590 C   0  0  0  0  0  0  0  0  0  0  0  0
  142.3528   73.4522  221.1426 H   0  0  0  0  0  0  0  0  0  0  0  0
  141.4900   75.4330  220.8650 C   0  0  0  0  0  0  0  0  0  0  0  0
  140.3620   75.2320  221.6770 C   0  0  0  0  0  0  0  0  0  0  0  0
  140.2050   74.1100  222.2400 O   0  0  0  0  0  0  0  0  0  0  0  0
  139.4370   76.2370  221.8600 N   0  0  0  0  0  0  0  0  0  0  0  0
  138.2690   75.9580  222.7310 C   0  0  0  0  0  0  0  0  0  0  0  0
  138.5127   75.1148  223.3940 H   0  0  0  0  0  0  0  0  0  0  0  0
  138.0504   76.8668  223.3109 H   0  0  0  0  0  0  0  0  0  0  0  0
  137.0160   75.6010  221.9110 C   0  0  0  0  0  0  0  0  0  0  0  0
  136.1390   75.6382  222.5739 H   0  0  0  0  0  0  0  0  0  0  0  0
  136.9364   76.3296  221.0907 H   0  0  0  0  0  0  0  0  0  0  0  0
  137.0990   74.1970  221.2810 C   0  0  0  0  0  0  0  0  0  0  0  0
  136.0804   73.8590  221.0399 H   0  0  0  0  0  0  0  0  0  0  0  0
  137.7265   74.2739  220.3808 H   0  0  0  0  0  0  0  0  0  0  0  0
  137.7290   73.2000  222.1820 N   0  0  0  0  0  0  0  0  0  0  0  0
  138.4350   73.6920  222.7820 H   0  0  0  0  0  0  0  0  0  0  0  0
  136.6950   72.6230  223.0840 C   0  0  0  0  0  0  0  0  0  0  0  0
  136.5203   73.3292  223.9091 H   0  0  0  0  0  0  0  0  0  0  0  0
  135.7932   72.4576  222.4762 H   0  0  0  0  0  0  0  0  0  0  0  0
  137.0910   71.2580  223.6860 C   0  0  0  0  0  0  0  0  0  0  0  0
  136.7502   71.2121  224.7309 H   0  0  0  0  0  0  0  0  0  0  0  0
  136.6180   70.4607  223.0938 H   0  0  0  0  0  0  0  0  0  0  0  0
  138.5440   71.0740  223.6460 N   0  0  0  0  0  0  0  0  0  0  0  0
  139.2770   70.6950  224.8280 C   0  0  0  0  0  0  0  0  0  0  0  0
  140.3150   71.5110  225.3130 C   0  0  0  0  0  0  0  0  0  0  0  0
  140.5802   72.4354  224.7789 H   0  0  0  0  0  0  0  0  0  0  0  0
  141.0110   71.1520  226.4710 C   0  0  0  0  0  0  0  0  0  0  0  0
  141.8275   71.7899  226.8405 H   0  0  0  0  0  0  0  0  0  0  0  0
  140.6720   69.9850  227.1600 C   0  0  0  0  0  0  0  0  0  0  0  0
  141.2207   69.7054  228.0715 H   0  0  0  0  0  0  0  0  0  0  0  0
  139.6350   69.1720  226.6910 C   0  0  0  0  0  0  0  0  0  0  0  0
  139.3674   68.2541  227.2350 H   0  0  0  0  0  0  0  0  0  0  0  0
  138.9380   69.5250  225.5310 C   0  0  0  0  0  0  0  0  0  0  0  0
  138.1210   68.8847  225.1669 H   0  0  0  0  0  0  0  0  0  0  0  0
  139.2440   71.2540  222.3680 C   0  0  0  0  0  0  0  0  0  0  0  0
  140.2155   71.7360  222.5523 H   0  0  0  0  0  0  0  0  0  0  0  0
  139.3914   70.2687  221.9017 H   0  0  0  0  0  0  0  0  0  0  0  0
  138.4150   72.1340  221.4180 C   0  0  0  0  0  0  0  0  0  0  0  0
  139.0811   72.5920  220.6720 H   0  0  0  0  0  0  0  0  0  0  0  0
  137.6620   71.5103  220.9141 H   0  0  0  0  0  0  0  0  0  0  0  0
  140.1060   79.9750  222.7420 C   0  0  0  0  0  0  0  0  0  0  0  0
  140.8460   79.1190  223.5820 C   0  0  0  0  0  0  0  0  0  0  0  0
  140.4617   78.1158  223.8182 H   0  0  0  0  0  0  0  0  0  0  0  0
  142.0350   79.5300  224.1020 N   0  0  0  0  0  0  0  0  0  0  0  0
  142.5450   80.7620  223.8400 C   0  0  0  0  0  0  0  0  0  0  0  0
  143.5140   81.0586  224.2678 H   0  0  0  0  0  0  0  0  0  0  0  0
  141.8390   81.6510  223.0280 C   0  0  0  0  0  0  0  0  0  0  0  0
  142.2436   82.6519  222.8172 H   0  0  0  0  0  0  0  0  0  0  0  0
  140.6140   81.2570  222.4860 C   0  0  0  0  0  0  0  0  0  0  0  0
  140.0446   81.9555  221.8552 H   0  0  0  0  0  0  0  0  0  0  0  0
  1  2  1  0
  2  3  2  0
  3  4  1  0
  3  5  1  0
  5  6  2  0
  6  7  1  0
  7  8  2  0
  8  9  1  0
  8 10  1  0
 10 11  1  0
 10 12  2  0
 12 13  1  0
 12 14  1  0
 14 15  1  0
 14 16  2  0
 16 17  1  0
 17 18  2  0
 17 19  1  0
 19 20  1  0
 20 21  1  0
 20 22  1  0
 20 23  1  0
 23 24  1  0
 23 25  1  0
 23 26  1  0
 26 27  1  0
 26 28  1  0
 26 29  1  0
 29 30  1  0
 29 31  1  0
 31 32  1  0
 31 33  1  0
 31 34  1  0
 34 35  1  0
 34 36  1  0
 34 37  1  0
 37 38  1  0
 38 39  2  0
 39 40  1  0
 39 41  1  0
 41 42  1  0
 41 43  2  0
 43 44  1  0
 43 45  1  0
 45 46  1  0
 45 47  2  0
 47 48  1  0
 37 49  1  0
 49 50  1  0
 49 51  1  0
 49 52  1  0
 52 53  1  0
 52 54  1  0
  2 55  1  0
 55 56  2  0
 56 57  1  0
 56 58  1  0
 58 59  2  0
 59 60  1  0
 59 61  1  0
 61 62  1  0
 61 63  2  0
 63 64  1  0
 19  5  1  0
 52 29  1  0
 63 55  1  0
 16  7  1  0
 47 38  1  0
M  CHG  1  29   1
M  END
>  <UniqueID>  (79) 
607

>  <SMILES>  (79) 
O=c1c2ccccc2nc(/C=C/c2cccnc2)n1CCC[NH+]1CCN(c2ccccc2)CC1

>  <Energy>  (79) 
93.05114730382124

>  <Genealogy>  (79) 
O=c1c2ccccc2nc(/C=C/c2cccnc2)n1CCC[NH+]1CCN(c2ccccc2)CC1 (protonated)
O=c1c2ccccc2nc(/C=C/c2cccnc2)n1CCC[NH+]1CCN(c2ccccc2)CC1 (cis-trans isomerization)
O=c1c2ccccc2nc(/C=C/c2cccnc2)n1CCC[NH+]1CCN(c2ccccc2)CC1 (3D coordinates assigned)
O=c1c2ccccc2nc(/C=C/c2cccnc2)n1CCC[NH+]1CCN(c2ccccc2)CC1 (nonaromatic ring conformer: 93.05114730382124 kcal/mol)

>  <smiles>  (79) 
O=c1c2ccccc2nc(/C=C/c2cccnc2)n1CCCN1CCN(c2ccccc2)CC1

>  <score_type>  (79) 
oracle

>  <origin>  (79) 
autodockgpu

>  <m_score__min__energy>  (79) 
-9.2599999999999998

>  <m_primary>  (79) 
energy

>  <meeko>  (79) 
{"free_energy": -8.81, "intermolecular_energy": -11.19, "internal_energy": -2.33, "cluster_size": 13, "cluster_id": 2, "rank_in_cluster": 8}

>  <energy>  (79) 
-8.33

>  <cluster_rmsd>  (79) 
0.98

>  <rmsd>  (79) 
269.73

>  <cluster>  (79) 
2

$$$$
IETZWVUTNAYKDK-WGYGGNGENA-O
     RDKit          3D

 64 68  0  0  0  0  0  0  0  0999 V2000
  138.0739   80.4731  221.5377 H   0  0  0  0  0  0  0  0  0  0  0  0
  138.7780   79.6710  221.8040 C   0  0  0  0  0  0  0  0  0  0  0  0
  138.4630   78.4100  221.4720 C   0  0  0  0  0  0  0  0  0  0  0  0
  137.4060   78.1514  221.3113 H   0  0  0  0  0  0  0  0  0  0  0  0
  139.4980   77.3450  221.3130 C   0  0  0  0  0  0  0  0  0  0  0  0
  140.5870   77.6410  220.5530 N   0  0  0  0  0  0  0  0  0  0  0  0
  141.5710   76.7470  220.3130 C   0  0  0  0  0  0  0  0  0  0  0  0
  142.6700   77.1090  219.5250 C   0  0  0  0  0  0  0  0  0  0  0  0
  142.7357   78.1241  219.1063 H   0  0  0  0  0  0  0  0  0  0  0  0
  143.6840   76.1810  219.2700 C   0  0  0  0  0  0  0  0  0  0  0  0
  144.5469   76.4662  218.6503 H   0  0  0  0  0  0  0  0  0  0  0  0
  143.6020   74.8910  219.8020 C   0  0  0  0  0  0  0  0  0  0  0  0
  144.4013   74.1625  219.6011 H   0  0  0  0  0  0  0  0  0  0  0  0
  142.5060   74.5250  220.5890 C   0  0  0  0  0  0  0  0  0  0  0  0
  142.4439   73.5085  221.0047 H   0  0  0  0  0  0  0  0  0  0  0  0
  141.4800   75.4560  220.8510 C   0  0  0  0  0  0  0  0  0  0  0  0
  140.3590   75.1420  221.6360 C   0  0  0  0  0  0  0  0  0  0  0  0
  140.2570   73.9780  222.1210 O   0  0  0  0  0  0  0  0  0  0  0  0
  139.3810   76.0830  221.8770 N   0  0  0  0  0  0  0  0  0  0  0  0
  138.2230   75.6850  222.7150 C   0  0  0  0  0  0  0  0  0  0  0  0
  138.5510   74.9221  223.4364 H   0  0  0  0  0  0  0  0  0  0  0  0
  137.8497   76.5821  223.2306 H   0  0  0  0  0  0  0  0  0  0  0  0
  137.0750   75.1080  221.8670 C   0  0  0  0  0  0  0  0  0  0  0  0
  136.1746   75.0366  222.4949 H   0  0  0  0  0  0  0  0  0  0  0  0
  136.9207   75.7825  221.0119 H   0  0  0  0  0  0  0  0  0  0  0  0
  137.3980   73.7090  221.3060 C   0  0  0  0  0  0  0  0  0  0  0  0
  136.4681   73.2578  220.9296 H   0  0  0  0  0  0  0  0  0  0  0  0
  138.1422   73.8363  220.5060 H   0  0  0  0  0  0  0  0  0  0  0  0
  137.9860   72.8040  222.3240 N   0  0  0  0  0  0  0  0  0  0  0  0
  138.6270   73.3640  222.9380 H   0  0  0  0  0  0  0  0  0  0  0  0
  136.9030   72.2540  223.1850 C   0  0  0  0  0  0  0  0  0  0  0  0
  136.6410   73.0101  223.9398 H   0  0  0  0  0  0  0  0  0  0  0  0
  136.0575   72.0117  222.5244 H   0  0  0  0  0  0  0  0  0  0  0  0
  137.2950   70.9510  223.9150 C   0  0  0  0  0  0  0  0  0  0  0  0
  136.8745   70.9665  224.9313 H   0  0  0  0  0  0  0  0  0  0  0  0
  136.8967   70.0962  223.3487 H   0  0  0  0  0  0  0  0  0  0  0  0
  138.7520   70.8200  224.0000 N   0  0  0  0  0  0  0  0  0  0  0  0
  139.4010   70.5560  225.2590 C   0  0  0  0  0  0  0  0  0  0  0  0
  140.2950   71.4920  225.8090 C   0  0  0  0  0  0  0  0  0  0  0  0
  140.5122   72.4250  225.2683 H   0  0  0  0  0  0  0  0  0  0  0  0
  140.9090   71.2420  227.0400 C   0  0  0  0  0  0  0  0  0  0  0  0
  141.6144   71.9738  227.4605 H   0  0  0  0  0  0  0  0  0  0  0  0
  140.6280   70.0640  227.7370 C   0  0  0  0  0  0  0  0  0  0  0  0
  141.1109   69.8707  228.7062 H   0  0  0  0  0  0  0  0  0  0  0  0
  139.7340   69.1310  227.2040 C   0  0  0  0  0  0  0  0  0  0  0  0
  139.5129   68.2044  227.7541 H   0  0  0  0  0  0  0  0  0  0  0  0
  139.1200   69.3760  225.9700 C   0  0  0  0  0  0  0  0  0  0  0  0
  138.4142   68.6417  225.5546 H   0  0  0  0  0  0  0  0  0  0  0  0
  139.5450   70.9360  222.7690 C   0  0  0  0  0  0  0  0  0  0  0  0
  140.4818   71.4680  222.9909 H   0  0  0  0  0  0  0  0  0  0  0  0
  139.7622   69.9265  222.3899 H   0  0  0  0  0  0  0  0  0  0  0  0
  138.7650   71.7120  221.6960 C   0  0  0  0  0  0  0  0  0  0  0  0
  139.4721   72.1402  220.9703 H   0  0  0  0  0  0  0  0  0  0  0  0
  138.0747   71.0249  221.1848 H   0  0  0  0  0  0  0  0  0  0  0  0
  140.0280   80.0370  222.5120 C   0  0  0  0  0  0  0  0  0  0  0  0
  140.6060   79.2150  223.4990 C   0  0  0  0  0  0  0  0  0  0  0  0
  140.1381   78.2525  223.7534 H   0  0  0  0  0  0  0  0  0  0  0  0
  141.7410   79.6070  224.1390 N   0  0  0  0  0  0  0  0  0  0  0  0
  142.3500   80.7900  223.8580 C   0  0  0  0  0  0  0  0  0  0  0  0
  143.2730   81.0728  224.3853 H   0  0  0  0  0  0  0  0  0  0  0  0
  141.8030   81.6450  222.9000 C   0  0  0  0  0  0  0  0  0  0  0  0
  142.2871   82.6062  222.6727 H   0  0  0  0  0  0  0  0  0  0  0  0
  140.6360   81.2690  222.2330 C   0  0  0  0  0  0  0  0  0  0  0  0
  140.1915   81.9422  221.4852 H   0  0  0  0  0  0  0  0  0  0  0  0
  1  2  1  0
  2  3  2  0
  3  4  1  0
  3  5  1  0
  5  6  2  0
  6  7  1  0
  7  8  2  0
  8  9  1  0
  8 10  1  0
 10 11  1  0
 10 12  2  0
 12 13  1  0
 12 14  1  0
 14 15  1  0
 14 16  2  0
 16 17  1  0
 17 18  2  0
 17 19  1  0
 19 20  1  0
 20 21  1  0
 20 22  1  0
 20 23  1  0
 23 24  1  0
 23 25  1  0
 23 26  1  0
 26 27  1  0
 26 28  1  0
 26 29  1  0
 29 30  1  0
 29 31  1  0
 31 32  1  0
 31 33  1  0
 31 34  1  0
 34 35  1  0
 34 36  1  0
 34 37  1  0
 37 38  1  0
 38 39  2  0
 39 40  1  0
 39 41  1  0
 41 42  1  0
 41 43  2  0
 43 44  1  0
 43 45  1  0
 45 46  1  0
 45 47  2  0
 47 48  1  0
 37 49  1  0
 49 50  1  0
 49 51  1  0
 49 52  1  0
 52 53  1  0
 52 54  1  0
  2 55  1  0
 55 56  2  0
 56 57  1  0
 56 58  1  0
 58 59  2  0
 59 60  1  0
 59 61  1  0
 61 62  1  0
 61 63  2  0
 63 64  1  0
 19  5  1  0
 52 29  1  0
 63 55  1  0
 16  7  1  0
 47 38  1  0
M  CHG  1  29   1
M  END
>  <UniqueID>  (80) 
607

>  <SMILES>  (80) 
O=c1c2ccccc2nc(/C=C/c2cccnc2)n1CCC[NH+]1CCN(c2ccccc2)CC1

>  <Energy>  (80) 
93.05114730382124

>  <Genealogy>  (80) 
O=c1c2ccccc2nc(/C=C/c2cccnc2)n1CCC[NH+]1CCN(c2ccccc2)CC1 (protonated)
O=c1c2ccccc2nc(/C=C/c2cccnc2)n1CCC[NH+]1CCN(c2ccccc2)CC1 (cis-trans isomerization)
O=c1c2ccccc2nc(/C=C/c2cccnc2)n1CCC[NH+]1CCN(c2ccccc2)CC1 (3D coordinates assigned)
O=c1c2ccccc2nc(/C=C/c2cccnc2)n1CCC[NH+]1CCN(c2ccccc2)CC1 (nonaromatic ring conformer: 93.05114730382124 kcal/mol)

>  <smiles>  (80) 
O=c1c2ccccc2nc(/C=C/c2cccnc2)n1CCCN1CCN(c2ccccc2)CC1

>  <score_type>  (80) 
oracle

>  <origin>  (80) 
autodockgpu

>  <m_score__min__energy>  (80) 
-9.2599999999999998

>  <m_primary>  (80) 
energy

>  <meeko>  (80) 
{"free_energy": -8.82, "intermolecular_energy": -11.21, "internal_energy": -2.13, "cluster_size": 13, "cluster_id": 2, "rank_in_cluster": 7}

>  <energy>  (80) 
-7.61

>  <cluster_rmsd>  (80) 
0.0

>  <rmsd>  (80) 
270.05

>  <cluster>  (80) 
3

$$$$
