YQRBYBBKMCEKLP-ODCLCHFBNA-O
     RDKit          3D

 56 59  0  0  0  0  0  0  0  0999 V2000
  140.6750   68.3930  227.2630 C   0  0  0  0  0  0  0  0  0  0  0  0
  139.8210   67.4340  226.7140 C   0  0  0  0  0  0  0  0  0  0  0  0
  139.1790   67.6820  225.5400 N   0  0  0  0  0  0  0  0  0  0  0  0
  139.3470   68.8530  224.8670 C   0  0  0  0  0  0  0  0  0  0  0  0
  140.2100   69.8380  225.3730 C   0  0  0  0  0  0  0  0  0  0  0  0
  140.4060   71.1370  224.6370 C   0  0  0  0  0  0  0  0  0  0  0  0
  139.7210   71.0970  223.2690 C   0  0  0  0  0  0  0  0  0  0  0  0
  139.2220   72.4230  222.9100 N   0  0  0  0  0  0  0  0  0  0  0  0
  140.0370   73.4080  222.2610 C   0  0  0  0  0  0  0  0  0  0  0  0
  139.7340   74.7280  222.3560 N   0  0  0  0  0  0  0  0  0  0  0  0
  140.4980   75.6620  221.7290 C   0  0  0  0  0  0  0  0  0  0  0  0
  140.1820   77.0640  221.8410 N   0  0  0  0  0  0  0  0  0  0  0  0
  141.2800   78.0440  221.9100 C   0  0  0  0  0  0  0  0  0  0  0  0
  140.7650   79.4490  222.2480 C   0  0  0  0  0  0  0  0  0  0  0  0
  139.7560   79.3750  223.3980 C   0  0  0  0  0  0  0  0  0  0  0  0
  138.5510   78.4660  223.0730 C   0  0  0  0  0  0  0  0  0  0  0  0
  138.7890   77.5330  221.8730 C   0  0  0  0  0  0  0  0  0  0  0  0
  141.5770   75.2590  221.0060 N   0  0  0  0  0  0  0  0  0  0  0  0
  141.8920   73.9410  220.9000 C   0  0  0  0  0  0  0  0  0  0  0  0
  143.0380   73.5200  220.1290 N   0  0  0  0  0  0  0  0  0  0  0  0
  142.9210   73.4440  218.6660 C   0  0  0  0  0  0  0  0  0  0  0  0
  144.2500   73.0360  218.0260 C   0  0  0  0  0  0  0  0  0  0  0  0
  145.3500   73.7720  218.6590 N   0  0  0  0  0  0  0  0  0  0  0  0
  145.5430   73.3740  220.0690 C   0  0  0  0  0  0  0  0  0  0  0  0
  144.2360   72.9870  220.8010 C   0  0  0  0  0  0  0  0  0  0  0  0
  141.1160   73.0200  221.5350 N   0  0  0  0  0  0  0  0  0  0  0  0
  140.8640   69.6030  226.5920 C   0  0  0  0  0  0  0  0  0  0  0  0
  141.1930   68.1974  228.2135 H   0  0  0  0  0  0  0  0  0  0  0  0
  139.6669   66.4758  227.2318 H   0  0  0  0  0  0  0  0  0  0  0  0
  138.8059   69.0279  223.9254 H   0  0  0  0  0  0  0  0  0  0  0  0
  139.9759   71.9565  225.2315 H   0  0  0  0  0  0  0  0  0  0  0  0
  141.4838   71.2970  224.4863 H   0  0  0  0  0  0  0  0  0  0  0  0
  140.4452   70.7647  222.5106 H   0  0  0  0  0  0  0  0  0  0  0  0
  138.8735   70.3972  223.3147 H   0  0  0  0  0  0  0  0  0  0  0  0
  138.2290   72.6570  223.1270 H   0  0  0  0  0  0  0  0  0  0  0  0
  141.9914   77.7284  222.6873 H   0  0  0  0  0  0  0  0  0  0  0  0
  141.7663   78.0846  220.9242 H   0  0  0  0  0  0  0  0  0  0  0  0
  141.6114   80.0851  222.5465 H   0  0  0  0  0  0  0  0  0  0  0  0
  140.2718   79.8754  221.3620 H   0  0  0  0  0  0  0  0  0  0  0  0
  140.2656   78.9793  224.2889 H   0  0  0  0  0  0  0  0  0  0  0  0
  139.3704   80.3910  223.5688 H   0  0  0  0  0  0  0  0  0  0  0  0
  138.3336   77.8477  223.9564 H   0  0  0  0  0  0  0  0  0  0  0  0
  137.7119   79.1257  222.8071 H   0  0  0  0  0  0  0  0  0  0  0  0
  138.1185   76.6647  221.9534 H   0  0  0  0  0  0  0  0  0  0  0  0
  138.5850   78.0917  220.9477 H   0  0  0  0  0  0  0  0  0  0  0  0
  142.1537   72.7001  218.4054 H   0  0  0  0  0  0  0  0  0  0  0  0
  142.6417   74.4379  218.2864 H   0  0  0  0  0  0  0  0  0  0  0  0
  144.4058   71.9558  218.1637 H   0  0  0  0  0  0  0  0  0  0  0  0
  144.2246   73.2715  216.9518 H   0  0  0  0  0  0  0  0  0  0  0  0
  145.1560   74.8010  218.6110 H   0  0  0  0  0  0  0  0  0  0  0  0
  146.2340   73.5830  218.1290 H   0  0  0  0  0  0  0  0  0  0  0  0
  146.2219   72.5089  220.0939 H   0  0  0  0  0  0  0  0  0  0  0  0
  145.9521   74.2505  220.5927 H   0  0  0  0  0  0  0  0  0  0  0  0
  144.1625   71.8900  220.8369 H   0  0  0  0  0  0  0  0  0  0  0  0
  144.2756   73.4211  221.8109 H   0  0  0  0  0  0  0  0  0  0  0  0
  141.5252   70.3715  227.0188 H   0  0  0  0  0  0  0  0  0  0  0  0
  1  2  2  0
  2  3  1  0
  3  4  2  0
  4  5  1  0
  5  6  1  0
  6  7  1  0
  7  8  1  0
  8  9  1  0
  9 10  2  0
 10 11  1  0
 11 12  1  0
 12 13  1  0
 13 14  1  0
 14 15  1  0
 15 16  1  0
 16 17  1  0
 11 18  2  0
 18 19  1  0
 19 20  1  0
 20 21  1  0
 21 22  1  0
 22 23  1  0
 23 24  1  0
 24 25  1  0
 19 26  2  0
  5 27  2  0
 27  1  1  0
 26  9  1  0
 17 12  1  0
 25 20  1  0
  1 28  1  0
  2 29  1  0
  4 30  1  0
  6 31  1  0
  6 32  1  0
  7 33  1  0
  7 34  1  0
  8 35  1  0
 13 36  1  0
 13 37  1  0
 14 38  1  0
 14 39  1  0
 15 40  1  0
 15 41  1  0
 16 42  1  0
 16 43  1  0
 17 44  1  0
 17 45  1  0
 21 46  1  0
 21 47  1  0
 22 48  1  0
 22 49  1  0
 23 50  1  0
 23 51  1  0
 24 52  1  0
 24 53  1  0
 25 54  1  0
 25 55  1  0
 27 56  1  0
M  CHG  1  23   1
M  END
>  <UniqueID>  (1) 
581

>  <SMILES>  (1) 
c1cncc(CCNc2nc(N3CCCCC3)nc(N3CC[NH2+]CC3)n2)c1

>  <Energy>  (1) 
54.83794405914214

>  <Genealogy>  (1) 
c1cncc(CCNc2nc(N3CCCCC3)nc(N3CC[NH2+]CC3)n2)c1 (protonated)
c1cncc(CCNc2nc(N3CCCCC3)nc(N3CC[NH2+]CC3)n2)c1 (3D coordinates assigned)
c1cncc(CCNc2nc(N3CCCCC3)nc(N3CC[NH2+]CC3)n2)c1 (nonaromatic ring conformer: 54.83794405914214 kcal/mol)

>  <smiles>  (1) 
c1cncc(CCNc2nc(N3CCCCC3)nc(N3CCNCC3)n2)c1

>  <score_type>  (1) 
oracle

>  <origin>  (1) 
autodockgpu

>  <m_score__min__energy>  (1) 
-7.7999999999999998

>  <m_primary>  (1) 
energy

>  <meeko>  (1) 
{"free_energy": -7.61, "intermolecular_energy": -9.4, "internal_energy": -0.75, "cluster_size": 1, "cluster_id": 2, "rank_in_cluster": 1}

>  <energy>  (1) 
-7.8

>  <cluster_rmsd>  (1) 
0.0

>  <rmsd>  (1) 
271.09

>  <cluster>  (1) 
1

$$$$
YQRBYBBKMCEKLP-ODCLCHFBNA-O
     RDKit          3D

 56 59  0  0  0  0  0  0  0  0999 V2000
  140.4630   72.0660  221.8610 C   0  0  0  0  0  0  0  0  0  0  0  0
  139.5700   73.0400  222.3110 C   0  0  0  0  0  0  0  0  0  0  0  0
  139.8670   74.3610  222.1650 N   0  0  0  0  0  0  0  0  0  0  0  0
  141.0240   74.7720  221.5780 C   0  0  0  0  0  0  0  0  0  0  0  0
  141.9430   73.8270  221.0940 C   0  0  0  0  0  0  0  0  0  0  0  0
  143.2250   74.2680  220.4420 C   0  0  0  0  0  0  0  0  0  0  0  0
  143.0410   74.4350  218.9320 C   0  0  0  0  0  0  0  0  0  0  0  0
  143.5890   75.7160  218.4890 N   0  0  0  0  0  0  0  0  0  0  0  0
  142.9790   76.9720  218.8120 C   0  0  0  0  0  0  0  0  0  0  0  0
  142.4260   77.1780  220.0350 N   0  0  0  0  0  0  0  0  0  0  0  0
  141.8350   78.3650  220.3370 C   0  0  0  0  0  0  0  0  0  0  0  0
  141.2600   78.5870  221.6400 N   0  0  0  0  0  0  0  0  0  0  0  0
  139.8160   78.3680  221.8350 C   0  0  0  0  0  0  0  0  0  0  0  0
  139.3480   78.8630  223.2090 C   0  0  0  0  0  0  0  0  0  0  0  0
  139.9390   80.2460  223.4980 C   0  0  0  0  0  0  0  0  0  0  0  0
  141.4830   80.2500  223.4650 C   0  0  0  0  0  0  0  0  0  0  0  0
  142.0880   79.0140  222.7780 C   0  0  0  0  0  0  0  0  0  0  0  0
  141.8050   79.3490  219.3990 N   0  0  0  0  0  0  0  0  0  0  0  0
  142.3530   79.1560  218.1700 C   0  0  0  0  0  0  0  0  0  0  0  0
  142.3160   80.2050  217.1780 N   0  0  0  0  0  0  0  0  0  0  0  0
  142.9500   81.4960  217.4850 C   0  0  0  0  0  0  0  0  0  0  0  0
  142.8570   82.4540  216.2940 C   0  0  0  0  0  0  0  0  0  0  0  0
  143.1710   81.7340  215.0550 N   0  0  0  0  0  0  0  0  0  0  0  0
  142.1440   80.7230  214.7280 C   0  0  0  0  0  0  0  0  0  0  0  0
  141.4930   80.0580  215.9640 C   0  0  0  0  0  0  0  0  0  0  0  0
  142.9410   77.9630  217.8850 N   0  0  0  0  0  0  0  0  0  0  0  0
  141.6580   72.4620  221.2560 C   0  0  0  0  0  0  0  0  0  0  0  0
  140.2281   70.9982  221.9815 H   0  0  0  0  0  0  0  0  0  0  0  0
  138.6238   72.7397  222.7849 H   0  0  0  0  0  0  0  0  0  0  0  0
  141.2397   75.8464  221.4825 H   0  0  0  0  0  0  0  0  0  0  0  0
  143.5370   75.2297  220.8752 H   0  0  0  0  0  0  0  0  0  0  0  0
  143.9918   73.4995  220.6195 H   0  0  0  0  0  0  0  0  0  0  0  0
  143.5624   73.6184  218.4111 H   0  0  0  0  0  0  0  0  0  0  0  0
  141.9663   74.4076  218.6989 H   0  0  0  0  0  0  0  0  0  0  0  0
  144.4630   75.7130  217.9210 H   0  0  0  0  0  0  0  0  0  0  0  0
  139.2643   78.9110  221.0535 H   0  0  0  0  0  0  0  0  0  0  0  0
  139.6219   77.2869  221.7755 H   0  0  0  0  0  0  0  0  0  0  0  0
  138.2499   78.9272  223.2182 H   0  0  0  0  0  0  0  0  0  0  0  0
  139.6875   78.1572  223.9814 H   0  0  0  0  0  0  0  0  0  0  0  0
  139.5685   80.9528  222.7409 H   0  0  0  0  0  0  0  0  0  0  0  0
  139.6264   80.5370  224.5117 H   0  0  0  0  0  0  0  0  0  0  0  0
  141.8168   81.1472  222.9231 H   0  0  0  0  0  0  0  0  0  0  0  0
  141.8277   80.2393  224.5095 H   0  0  0  0  0  0  0  0  0  0  0  0
  143.0971   79.2610  222.4163 H   0  0  0  0  0  0  0  0  0  0  0  0
  142.1314   78.1925  223.5083 H   0  0  0  0  0  0  0  0  0  0  0  0
  142.4430   81.9483  218.3501 H   0  0  0  0  0  0  0  0  0  0  0  0
  144.0124   81.3187  217.7081 H   0  0  0  0  0  0  0  0  0  0  0  0
  141.8373   82.8619  216.2315 H   0  0  0  0  0  0  0  0  0  0  0  0
  143.5757   83.2756  216.4302 H   0  0  0  0  0  0  0  0  0  0  0  0
  144.1030   81.2660  215.1490 H   0  0  0  0  0  0  0  0  0  0  0  0
  143.2300   82.4230  214.2680 H   0  0  0  0  0  0  0  0  0  0  0  0
  141.3520   81.2127  214.1424 H   0  0  0  0  0  0  0  0  0  0  0  0
  142.6536   79.9234  214.1704 H   0  0  0  0  0  0  0  0  0  0  0  0
  140.5134   80.5256  216.1422 H   0  0  0  0  0  0  0  0  0  0  0  0
  141.3933   78.9829  215.7537 H   0  0  0  0  0  0  0  0  0  0  0  0
  142.3754   71.7048  220.9067 H   0  0  0  0  0  0  0  0  0  0  0  0
  1  2  2  0
  2  3  1  0
  3  4  2  0
  4  5  1  0
  5  6  1  0
  6  7  1  0
  7  8  1  0
  8  9  1  0
  9 10  2  0
 10 11  1  0
 11 12  1  0
 12 13  1  0
 13 14  1  0
 14 15  1  0
 15 16  1  0
 16 17  1  0
 11 18  2  0
 18 19  1  0
 19 20  1  0
 20 21  1  0
 21 22  1  0
 22 23  1  0
 23 24  1  0
 24 25  1  0
 19 26  2  0
  5 27  2  0
 27  1  1  0
 26  9  1  0
 17 12  1  0
 25 20  1  0
  1 28  1  0
  2 29  1  0
  4 30  1  0
  6 31  1  0
  6 32  1  0
  7 33  1  0
  7 34  1  0
  8 35  1  0
 13 36  1  0
 13 37  1  0
 14 38  1  0
 14 39  1  0
 15 40  1  0
 15 41  1  0
 16 42  1  0
 16 43  1  0
 17 44  1  0
 17 45  1  0
 21 46  1  0
 21 47  1  0
 22 48  1  0
 22 49  1  0
 23 50  1  0
 23 51  1  0
 24 52  1  0
 24 53  1  0
 25 54  1  0
 25 55  1  0
 27 56  1  0
M  CHG  1  23   1
M  END
>  <UniqueID>  (2) 
581

>  <SMILES>  (2) 
c1cncc(CCNc2nc(N3CCCCC3)nc(N3CC[NH2+]CC3)n2)c1

>  <Energy>  (2) 
54.83794405914214

>  <Genealogy>  (2) 
c1cncc(CCNc2nc(N3CCCCC3)nc(N3CC[NH2+]CC3)n2)c1 (protonated)
c1cncc(CCNc2nc(N3CCCCC3)nc(N3CC[NH2+]CC3)n2)c1 (3D coordinates assigned)
c1cncc(CCNc2nc(N3CCCCC3)nc(N3CC[NH2+]CC3)n2)c1 (nonaromatic ring conformer: 54.83794405914214 kcal/mol)

>  <smiles>  (2) 
c1cncc(CCNc2nc(N3CCCCC3)nc(N3CCNCC3)n2)c1

>  <score_type>  (2) 
oracle

>  <origin>  (2) 
autodockgpu

>  <m_score__min__energy>  (2) 
-7.7999999999999998

>  <m_primary>  (2) 
energy

>  <meeko>  (2) 
{"free_energy": -7.17, "intermolecular_energy": -8.96, "internal_energy": -1.18, "cluster_size": 5, "cluster_id": 4, "rank_in_cluster": 3}

>  <energy>  (2) 
-7.79

>  <cluster_rmsd>  (2) 
0.13

>  <rmsd>  (2) 
271.1

>  <cluster>  (2) 
1

$$$$
YQRBYBBKMCEKLP-ODCLCHFBNA-O
     RDKit          3D

 56 59  0  0  0  0  0  0  0  0999 V2000
  140.4490   72.0230  221.8820 C   0  0  0  0  0  0  0  0  0  0  0  0
  139.5740   73.0080  222.3460 C   0  0  0  0  0  0  0  0  0  0  0  0
  139.8820   74.3250  222.1890 N   0  0  0  0  0  0  0  0  0  0  0  0
  141.0330   74.7220  221.5800 C   0  0  0  0  0  0  0  0  0  0  0  0
  141.9330   73.7650  221.0820 C   0  0  0  0  0  0  0  0  0  0  0  0
  143.2080   74.1910  220.4050 C   0  0  0  0  0  0  0  0  0  0  0  0
  142.9730   74.4530  218.9160 C   0  0  0  0  0  0  0  0  0  0  0  0
  143.5640   75.7310  218.5230 N   0  0  0  0  0  0  0  0  0  0  0  0
  142.9640   76.9930  218.8440 C   0  0  0  0  0  0  0  0  0  0  0  0
  142.4180   77.2080  220.0680 N   0  0  0  0  0  0  0  0  0  0  0  0
  141.8360   78.4000  220.3680 C   0  0  0  0  0  0  0  0  0  0  0  0
  141.2680   78.6310  221.6720 N   0  0  0  0  0  0  0  0  0  0  0  0
  139.8160   78.4650  221.8630 C   0  0  0  0  0  0  0  0  0  0  0  0
  139.3660   78.9640  223.2420 C   0  0  0  0  0  0  0  0  0  0  0  0
  140.0080   80.3210  223.5450 C   0  0  0  0  0  0  0  0  0  0  0  0
  141.5510   80.2660  223.5140 C   0  0  0  0  0  0  0  0  0  0  0  0
  142.1100   79.0150  222.8150 C   0  0  0  0  0  0  0  0  0  0  0  0
  141.8090   79.3800  219.4260 N   0  0  0  0  0  0  0  0  0  0  0  0
  142.3490   79.1780  218.1950 C   0  0  0  0  0  0  0  0  0  0  0  0
  142.3160   80.2230  217.1990 N   0  0  0  0  0  0  0  0  0  0  0  0
  142.9480   81.5150  217.5030 C   0  0  0  0  0  0  0  0  0  0  0  0
  142.8580   82.4690  216.3080 C   0  0  0  0  0  0  0  0  0  0  0  0
  143.1760   81.7440  215.0730 N   0  0  0  0  0  0  0  0  0  0  0  0
  142.1500   80.7320  214.7470 C   0  0  0  0  0  0  0  0  0  0  0  0
  141.4960   80.0720  215.9840 C   0  0  0  0  0  0  0  0  0  0  0  0
  142.9280   77.9800  217.9120 N   0  0  0  0  0  0  0  0  0  0  0  0
  141.6360   72.4050  221.2540 C   0  0  0  0  0  0  0  0  0  0  0  0
  140.2055   70.9580  222.0100 H   0  0  0  0  0  0  0  0  0  0  0  0
  138.6342   72.7191  222.8392 H   0  0  0  0  0  0  0  0  0  0  0  0
  141.2587   75.7937  221.4777 H   0  0  0  0  0  0  0  0  0  0  0  0
  143.5773   75.1123  220.8791 H   0  0  0  0  0  0  0  0  0  0  0  0
  143.9478   73.3835  220.5078 H   0  0  0  0  0  0  0  0  0  0  0  0
  143.4338   73.6450  218.3289 H   0  0  0  0  0  0  0  0  0  0  0  0
  141.8900   74.4880  218.7269 H   0  0  0  0  0  0  0  0  0  0  0  0
  144.4630   75.7220  217.9950 H   0  0  0  0  0  0  0  0  0  0  0  0
  139.2864   79.0365  221.0865 H   0  0  0  0  0  0  0  0  0  0  0  0
  139.5805   77.3929  221.7919 H   0  0  0  0  0  0  0  0  0  0  0  0
  138.2711   79.0691  223.2515 H   0  0  0  0  0  0  0  0  0  0  0  0
  139.6786   78.2385  224.0074 H   0  0  0  0  0  0  0  0  0  0  0  0
  139.6659   81.0485  222.7942 H   0  0  0  0  0  0  0  0  0  0  0  0
  139.7046   80.6147  224.5607 H   0  0  0  0  0  0  0  0  0  0  0  0
  141.9198   81.1554  222.9820 H   0  0  0  0  0  0  0  0  0  0  0  0
  141.8930   80.2309  224.5589 H   0  0  0  0  0  0  0  0  0  0  0  0
  143.1281   79.2275  222.4568 H   0  0  0  0  0  0  0  0  0  0  0  0
  142.1216   78.1851  223.5369 H   0  0  0  0  0  0  0  0  0  0  0  0
  142.4382   81.9701  218.3649 H   0  0  0  0  0  0  0  0  0  0  0  0
  144.0099   81.3391  217.7298 H   0  0  0  0  0  0  0  0  0  0  0  0
  141.8384   82.8763  216.2410 H   0  0  0  0  0  0  0  0  0  0  0  0
  143.5756   83.2917  216.4431 H   0  0  0  0  0  0  0  0  0  0  0  0
  144.1080   81.2770  215.1710 H   0  0  0  0  0  0  0  0  0  0  0  0
  143.2380   82.4310  214.2840 H   0  0  0  0  0  0  0  0  0  0  0  0
  141.3595   81.2194  214.1575 H   0  0  0  0  0  0  0  0  0  0  0  0
  142.6608   79.9303  214.1935 H   0  0  0  0  0  0  0  0  0  0  0  0
  140.5162   80.5407  216.1582 H   0  0  0  0  0  0  0  0  0  0  0  0
  141.3963   78.9962  215.7775 H   0  0  0  0  0  0  0  0  0  0  0  0
  142.3386   71.6390  220.8939 H   0  0  0  0  0  0  0  0  0  0  0  0
  1  2  2  0
  2  3  1  0
  3  4  2  0
  4  5  1  0
  5  6  1  0
  6  7  1  0
  7  8  1  0
  8  9  1  0
  9 10  2  0
 10 11  1  0
 11 12  1  0
 12 13  1  0
 13 14  1  0
 14 15  1  0
 15 16  1  0
 16 17  1  0
 11 18  2  0
 18 19  1  0
 19 20  1  0
 20 21  1  0
 21 22  1  0
 22 23  1  0
 23 24  1  0
 24 25  1  0
 19 26  2  0
  5 27  2  0
 27  1  1  0
 26  9  1  0
 17 12  1  0
 25 20  1  0
  1 28  1  0
  2 29  1  0
  4 30  1  0
  6 31  1  0
  6 32  1  0
  7 33  1  0
  7 34  1  0
  8 35  1  0
 13 36  1  0
 13 37  1  0
 14 38  1  0
 14 39  1  0
 15 40  1  0
 15 41  1  0
 16 42  1  0
 16 43  1  0
 17 44  1  0
 17 45  1  0
 21 46  1  0
 21 47  1  0
 22 48  1  0
 22 49  1  0
 23 50  1  0
 23 51  1  0
 24 52  1  0
 24 53  1  0
 25 54  1  0
 25 55  1  0
 27 56  1  0
M  CHG  1  23   1
M  END
>  <UniqueID>  (3) 
581

>  <SMILES>  (3) 
c1cncc(CCNc2nc(N3CCCCC3)nc(N3CC[NH2+]CC3)n2)c1

>  <Energy>  (3) 
54.83794405914214

>  <Genealogy>  (3) 
c1cncc(CCNc2nc(N3CCCCC3)nc(N3CC[NH2+]CC3)n2)c1 (protonated)
c1cncc(CCNc2nc(N3CCCCC3)nc(N3CC[NH2+]CC3)n2)c1 (3D coordinates assigned)
c1cncc(CCNc2nc(N3CCCCC3)nc(N3CC[NH2+]CC3)n2)c1 (nonaromatic ring conformer: 54.83794405914214 kcal/mol)

>  <smiles>  (3) 
c1cncc(CCNc2nc(N3CCCCC3)nc(N3CCNCC3)n2)c1

>  <score_type>  (3) 
oracle

>  <origin>  (3) 
autodockgpu

>  <m_score__min__energy>  (3) 
-7.7999999999999998

>  <m_primary>  (3) 
energy

>  <meeko>  (3) 
{"free_energy": -7.19, "intermolecular_energy": -8.98, "internal_energy": -1.16, "cluster_size": 5, "cluster_id": 4, "rank_in_cluster": 2}

>  <energy>  (3) 
-7.4

>  <cluster_rmsd>  (3) 
1.47

>  <rmsd>  (3) 
271.0

>  <cluster>  (3) 
1

$$$$
YQRBYBBKMCEKLP-ODCLCHFBNA-O
     RDKit          3D

 56 59  0  0  0  0  0  0  0  0999 V2000
  145.5010   74.1020  220.8290 C   0  0  0  0  0  0  0  0  0  0  0  0
  146.3610   73.3730  220.0050 C   0  0  0  0  0  0  0  0  0  0  0  0
  145.8800   72.3420  219.2570 N   0  0  0  0  0  0  0  0  0  0  0  0
  144.5650   71.9940  219.2810 C   0  0  0  0  0  0  0  0  0  0  0  0
  143.6610   72.7110  220.0820 C   0  0  0  0  0  0  0  0  0  0  0  0
  142.2040   72.3370  220.1170 C   0  0  0  0  0  0  0  0  0  0  0  0
  141.6640   72.3800  221.5480 C   0  0  0  0  0  0  0  0  0  0  0  0
  140.6440   73.4200  221.6780 N   0  0  0  0  0  0  0  0  0  0  0  0
  140.8790   74.7850  221.3080 C   0  0  0  0  0  0  0  0  0  0  0  0
  140.7070   75.7850  222.2100 N   0  0  0  0  0  0  0  0  0  0  0  0
  140.9150   77.0810  221.8560 C   0  0  0  0  0  0  0  0  0  0  0  0
  140.7440   78.1410  222.8170 N   0  0  0  0  0  0  0  0  0  0  0  0
  139.4420   78.8260  222.9080 C   0  0  0  0  0  0  0  0  0  0  0  0
  139.5130   80.0590  223.8170 C   0  0  0  0  0  0  0  0  0  0  0  0
  140.7670   80.8780  223.4950 C   0  0  0  0  0  0  0  0  0  0  0  0
  142.0670   80.0610  223.6600 C   0  0  0  0  0  0  0  0  0  0  0  0
  141.8370   78.5410  223.7170 C   0  0  0  0  0  0  0  0  0  0  0  0
  141.3030   77.3670  220.5840 N   0  0  0  0  0  0  0  0  0  0  0  0
  141.4770   76.3760  219.6700 C   0  0  0  0  0  0  0  0  0  0  0  0
  141.8870   76.6870  218.3210 N   0  0  0  0  0  0  0  0  0  0  0  0
  141.2580   77.8210  217.6300 C   0  0  0  0  0  0  0  0  0  0  0  0
  141.8630   78.0260  216.2390 C   0  0  0  0  0  0  0  0  0  0  0  0
  143.3220   77.9010  216.3110 N   0  0  0  0  0  0  0  0  0  0  0  0
  143.7440   76.5240  216.6400 C   0  0  0  0  0  0  0  0  0  0  0  0
  142.7720   75.7710  217.5790 C   0  0  0  0  0  0  0  0  0  0  0  0
  141.2640   75.0840  220.0420 N   0  0  0  0  0  0  0  0  0  0  0  0
  144.1460   73.7640  220.8720 C   0  0  0  0  0  0  0  0  0  0  0  0
  145.8862   74.9334  221.4376 H   0  0  0  0  0  0  0  0  0  0  0  0
  147.4291   73.6322  219.9601 H   0  0  0  0  0  0  0  0  0  0  0  0
  144.2092   71.1498  218.6722 H   0  0  0  0  0  0  0  0  0  0  0  0
  141.6354   73.0448  219.4960 H   0  0  0  0  0  0  0  0  0  0  0  0
  142.0944   71.3130  219.7304 H   0  0  0  0  0  0  0  0  0  0  0  0
  141.2207   71.4046  221.7974 H   0  0  0  0  0  0  0  0  0  0  0  0
  142.4928   72.6058  222.2351 H   0  0  0  0  0  0  0  0  0  0  0  0
  139.7060   73.1540  222.0480 H   0  0  0  0  0  0  0  0  0  0  0  0
  139.1346   79.1429  221.9005 H   0  0  0  0  0  0  0  0  0  0  0  0
  138.7138   78.1232  223.3391 H   0  0  0  0  0  0  0  0  0  0  0  0
  138.6205   80.6816  223.6563 H   0  0  0  0  0  0  0  0  0  0  0  0
  139.5563   79.7312  224.8661 H   0  0  0  0  0  0  0  0  0  0  0  0
  140.7011   81.2293  222.4547 H   0  0  0  0  0  0  0  0  0  0  0  0
  140.8083   81.7177  224.2043 H   0  0  0  0  0  0  0  0  0  0  0  0
  142.7264   80.2811  222.8075 H   0  0  0  0  0  0  0  0  0  0  0  0
  142.5130   80.3557  224.6214 H   0  0  0  0  0  0  0  0  0  0  0  0
  142.7602   78.0255  223.4136 H   0  0  0  0  0  0  0  0  0  0  0  0
  141.5633   78.2654  224.7462 H   0  0  0  0  0  0  0  0  0  0  0  0
  140.1804   77.6257  217.5274 H   0  0  0  0  0  0  0  0  0  0  0  0
  141.4324   78.7307  218.2233 H   0  0  0  0  0  0  0  0  0  0  0  0
  141.4644   77.2656  215.5513 H   0  0  0  0  0  0  0  0  0  0  0  0
  141.6012   79.0295  215.8723 H   0  0  0  0  0  0  0  0  0  0  0  0
  143.6940   78.5620  217.0340 H   0  0  0  0  0  0  0  0  0  0  0  0
  143.7320   78.1690  215.3850 H   0  0  0  0  0  0  0  0  0  0  0  0
  143.8278   75.9553  215.7021 H   0  0  0  0  0  0  0  0  0  0  0  0
  144.7015   76.6058  217.1753 H   0  0  0  0  0  0  0  0  0  0  0  0
  142.1519   75.0921  216.9752 H   0  0  0  0  0  0  0  0  0  0  0  0
  143.3755   75.2181  218.3139 H   0  0  0  0  0  0  0  0  0  0  0  0
  143.4598   74.3233  221.5250 H   0  0  0  0  0  0  0  0  0  0  0  0
  1  2  2  0
  2  3  1  0
  3  4  2  0
  4  5  1  0
  5  6  1  0
  6  7  1  0
  7  8  1  0
  8  9  1  0
  9 10  2  0
 10 11  1  0
 11 12  1  0
 12 13  1  0
 13 14  1  0
 14 15  1  0
 15 16  1  0
 16 17  1  0
 11 18  2  0
 18 19  1  0
 19 20  1  0
 20 21  1  0
 21 22  1  0
 22 23  1  0
 23 24  1  0
 24 25  1  0
 19 26  2  0
  5 27  2  0
 27  1  1  0
 26  9  1  0
 17 12  1  0
 25 20  1  0
  1 28  1  0
  2 29  1  0
  4 30  1  0
  6 31  1  0
  6 32  1  0
  7 33  1  0
  7 34  1  0
  8 35  1  0
 13 36  1  0
 13 37  1  0
 14 38  1  0
 14 39  1  0
 15 40  1  0
 15 41  1  0
 16 42  1  0
 16 43  1  0
 17 44  1  0
 17 45  1  0
 21 46  1  0
 21 47  1  0
 22 48  1  0
 22 49  1  0
 23 50  1  0
 23 51  1  0
 24 52  1  0
 24 53  1  0
 25 54  1  0
 25 55  1  0
 27 56  1  0
M  CHG  1  23   1
M  END
>  <UniqueID>  (4) 
581

>  <SMILES>  (4) 
c1cncc(CCNc2nc(N3CCCCC3)nc(N3CC[NH2+]CC3)n2)c1

>  <Energy>  (4) 
54.83794405914214

>  <Genealogy>  (4) 
c1cncc(CCNc2nc(N3CCCCC3)nc(N3CC[NH2+]CC3)n2)c1 (protonated)
c1cncc(CCNc2nc(N3CCCCC3)nc(N3CC[NH2+]CC3)n2)c1 (3D coordinates assigned)
c1cncc(CCNc2nc(N3CCCCC3)nc(N3CC[NH2+]CC3)n2)c1 (nonaromatic ring conformer: 54.83794405914214 kcal/mol)

>  <smiles>  (4) 
c1cncc(CCNc2nc(N3CCCCC3)nc(N3CCNCC3)n2)c1

>  <score_type>  (4) 
oracle

>  <origin>  (4) 
autodockgpu

>  <m_score__min__energy>  (4) 
-7.7999999999999998

>  <m_primary>  (4) 
energy

>  <meeko>  (4) 
{"free_energy": -7.37, "intermolecular_energy": -9.16, "internal_energy": -1.22, "cluster_size": 4, "cluster_id": 3, "rank_in_cluster": 4}

>  <energy>  (4) 
-7.38

>  <cluster_rmsd>  (4) 
1.56

>  <rmsd>  (4) 
271.05

>  <cluster>  (4) 
1

$$$$
YQRBYBBKMCEKLP-ODCLCHFBNA-O
     RDKit          3D

 56 59  0  0  0  0  0  0  0  0999 V2000
  141.0580   71.4540  228.0430 C   0  0  0  0  0  0  0  0  0  0  0  0
  140.6970   70.1360  228.3330 C   0  0  0  0  0  0  0  0  0  0  0  0
  140.3300   69.2910  227.3310 N   0  0  0  0  0  0  0  0  0  0  0  0
  140.3080   69.6920  226.0310 C   0  0  0  0  0  0  0  0  0  0  0  0
  140.6810   71.0020  225.6910 C   0  0  0  0  0  0  0  0  0  0  0  0
  140.6630   71.4570  224.2560 C   0  0  0  0  0  0  0  0  0  0  0  0
  139.3490   71.0670  223.5770 C   0  0  0  0  0  0  0  0  0  0  0  0
  139.0500   71.9830  222.4780 N   0  0  0  0  0  0  0  0  0  0  0  0
  139.9340   73.0440  222.0920 C   0  0  0  0  0  0  0  0  0  0  0  0
  141.1320   72.7710  221.5160 N   0  0  0  0  0  0  0  0  0  0  0  0
  141.9780   73.7760  221.1640 C   0  0  0  0  0  0  0  0  0  0  0  0
  143.2440   73.4850  220.5400 N   0  0  0  0  0  0  0  0  0  0  0  0
  143.5540   72.0960  220.1580 C   0  0  0  0  0  0  0  0  0  0  0  0
  145.0160   71.9420  219.7190 C   0  0  0  0  0  0  0  0  0  0  0  0
  145.9380   72.6690  220.7020 C   0  0  0  0  0  0  0  0  0  0  0  0
  145.6090   74.1730  220.8220 C   0  0  0  0  0  0  0  0  0  0  0  0
  144.2240   74.5470  220.2670 C   0  0  0  0  0  0  0  0  0  0  0  0
  141.6080   75.0640  221.3920 N   0  0  0  0  0  0  0  0  0  0  0  0
  140.4120   75.3530  221.9710 C   0  0  0  0  0  0  0  0  0  0  0  0
  140.0260   76.7240  222.2120 N   0  0  0  0  0  0  0  0  0  0  0  0
  141.0750   77.7260  222.4490 C   0  0  0  0  0  0  0  0  0  0  0  0
  140.4740   79.1230  222.6260 C   0  0  0  0  0  0  0  0  0  0  0  0
  139.4320   79.3440  221.6180 N   0  0  0  0  0  0  0  0  0  0  0  0
  138.2620   78.4680  221.8300 C   0  0  0  0  0  0  0  0  0  0  0  0
  138.6100   77.0780  222.4120 C   0  0  0  0  0  0  0  0  0  0  0  0
  139.5780   74.3350  222.3160 N   0  0  0  0  0  0  0  0  0  0  0  0
  141.0440   71.8890  226.7160 C   0  0  0  0  0  0  0  0  0  0  0  0
  141.3499   72.1414  228.8507 H   0  0  0  0  0  0  0  0  0  0  0  0
  140.7094   69.7802  229.3738 H   0  0  0  0  0  0  0  0  0  0  0  0
  139.9973   68.9882  225.2448 H   0  0  0  0  0  0  0  0  0  0  0  0
  140.7746   72.5508  224.2234 H   0  0  0  0  0  0  0  0  0  0  0  0
  141.4927   70.9705  223.7223 H   0  0  0  0  0  0  0  0  0  0  0  0
  139.4350   70.0438  223.1824 H   0  0  0  0  0  0  0  0  0  0  0  0
  138.5364   71.1208  224.3165 H   0  0  0  0  0  0  0  0  0  0  0  0
  138.1610   71.8540  221.9490 H   0  0  0  0  0  0  0  0  0  0  0  0
  143.3697   71.4392  221.0209 H   0  0  0  0  0  0  0  0  0  0  0  0
  142.9100   71.8214  219.3095 H   0  0  0  0  0  0  0  0  0  0  0  0
  145.2785   70.8741  219.6953 H   0  0  0  0  0  0  0  0  0  0  0  0
  145.1399   72.3793  218.7173 H   0  0  0  0  0  0  0  0  0  0  0  0
  145.8321   72.2048  221.6936 H   0  0  0  0  0  0  0  0  0  0  0  0
  146.9664   72.5819  220.3214 H   0  0  0  0  0  0  0  0  0  0  0  0
  145.6447   74.4529  221.8852 H   0  0  0  0  0  0  0  0  0  0  0  0
  146.3542   74.7150  220.2212 H   0  0  0  0  0  0  0  0  0  0  0  0
  143.8857   75.4797  220.7420 H   0  0  0  0  0  0  0  0  0  0  0  0
  144.3058   74.6776  219.1779 H   0  0  0  0  0  0  0  0  0  0  0  0
  141.6304   77.4560  223.3593 H   0  0  0  0  0  0  0  0  0  0  0  0
  141.7455   77.7424  221.5771 H   0  0  0  0  0  0  0  0  0  0  0  0
  140.0345   79.2074  223.6308 H   0  0  0  0  0  0  0  0  0  0  0  0
  141.2647   79.8779  222.5042 H   0  0  0  0  0  0  0  0  0  0  0  0
  139.8270   79.1730  220.6630 H   0  0  0  0  0  0  0  0  0  0  0  0
  139.1210   80.3440  221.6660 H   0  0  0  0  0  0  0  0  0  0  0  0
  137.5752   78.9717  222.5261 H   0  0  0  0  0  0  0  0  0  0  0  0
  137.8131   78.2940  220.8409 H   0  0  0  0  0  0  0  0  0  0  0  0
  138.3961   77.0832  223.4910 H   0  0  0  0  0  0  0  0  0  0  0  0
  137.9996   76.3308  221.8837 H   0  0  0  0  0  0  0  0  0  0  0  0
  141.3175   72.9267  226.4743 H   0  0  0  0  0  0  0  0  0  0  0  0
  1  2  2  0
  2  3  1  0
  3  4  2  0
  4  5  1  0
  5  6  1  0
  6  7  1  0
  7  8  1  0
  8  9  1  0
  9 10  2  0
 10 11  1  0
 11 12  1  0
 12 13  1  0
 13 14  1  0
 14 15  1  0
 15 16  1  0
 16 17  1  0
 11 18  2  0
 18 19  1  0
 19 20  1  0
 20 21  1  0
 21 22  1  0
 22 23  1  0
 23 24  1  0
 24 25  1  0
 19 26  2  0
  5 27  2  0
 27  1  1  0
 26  9  1  0
 17 12  1  0
 25 20  1  0
  1 28  1  0
  2 29  1  0
  4 30  1  0
  6 31  1  0
  6 32  1  0
  7 33  1  0
  7 34  1  0
  8 35  1  0
 13 36  1  0
 13 37  1  0
 14 38  1  0
 14 39  1  0
 15 40  1  0
 15 41  1  0
 16 42  1  0
 16 43  1  0
 17 44  1  0
 17 45  1  0
 21 46  1  0
 21 47  1  0
 22 48  1  0
 22 49  1  0
 23 50  1  0
 23 51  1  0
 24 52  1  0
 24 53  1  0
 25 54  1  0
 25 55  1  0
 27 56  1  0
M  CHG  1  23   1
M  END
>  <UniqueID>  (5) 
581

>  <SMILES>  (5) 
c1cncc(CCNc2nc(N3CCCCC3)nc(N3CC[NH2+]CC3)n2)c1

>  <Energy>  (5) 
54.83794405914214

>  <Genealogy>  (5) 
c1cncc(CCNc2nc(N3CCCCC3)nc(N3CC[NH2+]CC3)n2)c1 (protonated)
c1cncc(CCNc2nc(N3CCCCC3)nc(N3CC[NH2+]CC3)n2)c1 (3D coordinates assigned)
c1cncc(CCNc2nc(N3CCCCC3)nc(N3CC[NH2+]CC3)n2)c1 (nonaromatic ring conformer: 54.83794405914214 kcal/mol)

>  <smiles>  (5) 
c1cncc(CCNc2nc(N3CCCCC3)nc(N3CCNCC3)n2)c1

>  <score_type>  (5) 
oracle

>  <origin>  (5) 
autodockgpu

>  <m_score__min__energy>  (5) 
-7.7999999999999998

>  <m_primary>  (5) 
energy

>  <meeko>  (5) 
{"free_energy": -7.3, "intermolecular_energy": -9.09, "internal_energy": -0.9, "cluster_size": 9, "cluster_id": 1, "rank_in_cluster": 5}

>  <energy>  (5) 
-7.3

>  <cluster_rmsd>  (5) 
1.63

>  <rmsd>  (5) 
271.45

>  <cluster>  (5) 
1

$$$$
YQRBYBBKMCEKLP-ODCLCHFBNA-O
     RDKit          3D

 56 59  0  0  0  0  0  0  0  0999 V2000
  139.9290   70.2950  227.9570 C   0  0  0  0  0  0  0  0  0  0  0  0
  140.6680   71.4180  228.3330 C   0  0  0  0  0  0  0  0  0  0  0  0
  141.2710   72.1880  227.3860 N   0  0  0  0  0  0  0  0  0  0  0  0
  141.1700   71.8990  226.0600 C   0  0  0  0  0  0  0  0  0  0  0  0
  140.4200   70.7900  225.6360 C   0  0  0  0  0  0  0  0  0  0  0  0
  140.3000   70.4610  224.1720 C   0  0  0  0  0  0  0  0  0  0  0  0
  138.8760   70.7160  223.6710 C   0  0  0  0  0  0  0  0  0  0  0  0
  138.7610   72.0690  223.1290 N   0  0  0  0  0  0  0  0  0  0  0  0
  139.7390   72.6370  222.2490 C   0  0  0  0  0  0  0  0  0  0  0  0
  140.5470   71.8380  221.5060 N   0  0  0  0  0  0  0  0  0  0  0  0
  141.4860   72.3760  220.6820 C   0  0  0  0  0  0  0  0  0  0  0  0
  142.3350   71.5270  219.8840 N   0  0  0  0  0  0  0  0  0  0  0  0
  141.9510   70.1200  219.6760 C   0  0  0  0  0  0  0  0  0  0  0  0
  143.0720   69.3210  218.9990 C   0  0  0  0  0  0  0  0  0  0  0  0
  144.4160   69.6390  219.6600 C   0  0  0  0  0  0  0  0  0  0  0  0
  144.7670   71.1410  219.6000 C   0  0  0  0  0  0  0  0  0  0  0  0
  143.5660   72.0420  219.2650 C   0  0  0  0  0  0  0  0  0  0  0  0
  141.6040   73.7280  220.6050 N   0  0  0  0  0  0  0  0  0  0  0  0
  140.8040   74.5410  221.3450 C   0  0  0  0  0  0  0  0  0  0  0  0
  140.9360   75.9760  221.2600 N   0  0  0  0  0  0  0  0  0  0  0  0
  140.9200   76.7660  222.4990 C   0  0  0  0  0  0  0  0  0  0  0  0
  141.1300   78.2540  222.2090 C   0  0  0  0  0  0  0  0  0  0  0  0
  142.2030   78.4190  221.2220 N   0  0  0  0  0  0  0  0  0  0  0  0
  141.8220   77.8890  219.8970 C   0  0  0  0  0  0  0  0  0  0  0  0
  140.8900   76.6550  219.9530 C   0  0  0  0  0  0  0  0  0  0  0  0
  139.8700   73.9850  222.1640 N   0  0  0  0  0  0  0  0  0  0  0  0
  139.8100   69.9770  226.6020 C   0  0  0  0  0  0  0  0  0  0  0  0
  139.4454   69.6670  228.7198 H   0  0  0  0  0  0  0  0  0  0  0  0
  140.7633   71.6813  229.3967 H   0  0  0  0  0  0  0  0  0  0  0  0
  141.6766   72.5350  225.3192 H   0  0  0  0  0  0  0  0  0  0  0  0
  141.0003   71.0899  223.6027 H   0  0  0  0  0  0  0  0  0  0  0  0
  140.5378   69.3965  224.0298 H   0  0  0  0  0  0  0  0  0  0  0  0
  138.6332   69.9880  222.8829 H   0  0  0  0  0  0  0  0  0  0  0  0
  138.1768   70.6085  224.5133 H   0  0  0  0  0  0  0  0  0  0  0  0
  137.9270   72.6400  223.3890 H   0  0  0  0  0  0  0  0  0  0  0  0
  141.7267   69.6636  220.6514 H   0  0  0  0  0  0  0  0  0  0  0  0
  141.0690   70.0984  219.0190 H   0  0  0  0  0  0  0  0  0  0  0  0
  142.8632   68.2455  219.0976 H   0  0  0  0  0  0  0  0  0  0  0  0
  143.1193   69.5964  217.9351 H   0  0  0  0  0  0  0  0  0  0  0  0
  144.3718   69.3295  220.7146 H   0  0  0  0  0  0  0  0  0  0  0  0
  145.1956   69.0926  219.1089 H   0  0  0  0  0  0  0  0  0  0  0  0
  145.1664   71.4440  220.5791 H   0  0  0  0  0  0  0  0  0  0  0  0
  145.5010   71.2683  218.7907 H   0  0  0  0  0  0  0  0  0  0  0  0
  143.7611   73.0570  219.6415 H   0  0  0  0  0  0  0  0  0  0  0  0
  143.4311   72.0566  218.1734 H   0  0  0  0  0  0  0  0  0  0  0  0
  139.9490   76.6312  222.9980 H   0  0  0  0  0  0  0  0  0  0  0  0
  141.7395   76.4178  223.1449 H   0  0  0  0  0  0  0  0  0  0  0  0
  140.1987   78.6841  221.8119 H   0  0  0  0  0  0  0  0  0  0  0  0
  141.4083   78.7706  223.1394 H   0  0  0  0  0  0  0  0  0  0  0  0
  143.0660   77.9280  221.5580 H   0  0  0  0  0  0  0  0  0  0  0  0
  142.4240   79.4390  221.1290 H   0  0  0  0  0  0  0  0  0  0  0  0
  141.3063   78.6862  219.3416 H   0  0  0  0  0  0  0  0  0  0  0  0
  142.7513   77.5621  219.4075 H   0  0  0  0  0  0  0  0  0  0  0  0
  139.8577   76.9829  219.7612 H   0  0  0  0  0  0  0  0  0  0  0  0
  141.2336   75.9400  219.1910 H   0  0  0  0  0  0  0  0  0  0  0  0
  139.2382   69.0895  226.2930 H   0  0  0  0  0  0  0  0  0  0  0  0
  1  2  2  0
  2  3  1  0
  3  4  2  0
  4  5  1  0
  5  6  1  0
  6  7  1  0
  7  8  1  0
  8  9  1  0
  9 10  2  0
 10 11  1  0
 11 12  1  0
 12 13  1  0
 13 14  1  0
 14 15  1  0
 15 16  1  0
 16 17  1  0
 11 18  2  0
 18 19  1  0
 19 20  1  0
 20 21  1  0
 21 22  1  0
 22 23  1  0
 23 24  1  0
 24 25  1  0
 19 26  2  0
  5 27  2  0
 27  1  1  0
 26  9  1  0
 17 12  1  0
 25 20  1  0
  1 28  1  0
  2 29  1  0
  4 30  1  0
  6 31  1  0
  6 32  1  0
  7 33  1  0
  7 34  1  0
  8 35  1  0
 13 36  1  0
 13 37  1  0
 14 38  1  0
 14 39  1  0
 15 40  1  0
 15 41  1  0
 16 42  1  0
 16 43  1  0
 17 44  1  0
 17 45  1  0
 21 46  1  0
 21 47  1  0
 22 48  1  0
 22 49  1  0
 23 50  1  0
 23 51  1  0
 24 52  1  0
 24 53  1  0
 25 54  1  0
 25 55  1  0
 27 56  1  0
M  CHG  1  23   1
M  END
>  <UniqueID>  (6) 
581

>  <SMILES>  (6) 
c1cncc(CCNc2nc(N3CCCCC3)nc(N3CC[NH2+]CC3)n2)c1

>  <Energy>  (6) 
54.83794405914214

>  <Genealogy>  (6) 
c1cncc(CCNc2nc(N3CCCCC3)nc(N3CC[NH2+]CC3)n2)c1 (protonated)
c1cncc(CCNc2nc(N3CCCCC3)nc(N3CC[NH2+]CC3)n2)c1 (3D coordinates assigned)
c1cncc(CCNc2nc(N3CCCCC3)nc(N3CC[NH2+]CC3)n2)c1 (nonaromatic ring conformer: 54.83794405914214 kcal/mol)

>  <smiles>  (6) 
c1cncc(CCNc2nc(N3CCCCC3)nc(N3CCNCC3)n2)c1

>  <score_type>  (6) 
oracle

>  <origin>  (6) 
autodockgpu

>  <m_score__min__energy>  (6) 
-7.7999999999999998

>  <m_primary>  (6) 
energy

>  <meeko>  (6) 
{"free_energy": -7.38, "intermolecular_energy": -9.17, "internal_energy": -0.96, "cluster_size": 9, "cluster_id": 1, "rank_in_cluster": 4}

>  <energy>  (6) 
-7.28

>  <cluster_rmsd>  (6) 
1.68

>  <rmsd>  (6) 
270.95

>  <cluster>  (6) 
1

$$$$
YQRBYBBKMCEKLP-ODCLCHFBNA-O
     RDKit          3D

 56 59  0  0  0  0  0  0  0  0999 V2000
  138.7440   76.1940  221.2610 C   0  0  0  0  0  0  0  0  0  0  0  0
  139.1150   75.4220  222.3640 C   0  0  0  0  0  0  0  0  0  0  0  0
  140.1170   74.5080  222.2530 N   0  0  0  0  0  0  0  0  0  0  0  0
  140.7870   74.3190  221.0840 C   0  0  0  0  0  0  0  0  0  0  0  0
  140.4600   75.0860  219.9530 C   0  0  0  0  0  0  0  0  0  0  0  0
  141.1940   74.8890  218.6550 C   0  0  0  0  0  0  0  0  0  0  0  0
  142.6800   74.6220  218.9030 C   0  0  0  0  0  0  0  0  0  0  0  0
  143.4510   75.8560  218.7630 N   0  0  0  0  0  0  0  0  0  0  0  0
  142.8960   77.1500  219.0340 C   0  0  0  0  0  0  0  0  0  0  0  0
  142.3810   77.4390  220.2560 N   0  0  0  0  0  0  0  0  0  0  0  0
  141.8410   78.6620  220.5090 C   0  0  0  0  0  0  0  0  0  0  0  0
  141.3050   78.9720  221.8110 N   0  0  0  0  0  0  0  0  0  0  0  0
  139.8610   79.2310  221.9500 C   0  0  0  0  0  0  0  0  0  0  0  0
  139.5130   79.7570  223.3480 C   0  0  0  0  0  0  0  0  0  0  0  0
  140.5090   80.8430  223.7630 C   0  0  0  0  0  0  0  0  0  0  0  0
  141.9680   80.3380  223.7710 C   0  0  0  0  0  0  0  0  0  0  0  0
  142.1680   79.0210  223.0010 C   0  0  0  0  0  0  0  0  0  0  0  0
  141.8270   79.5970  219.5230 N   0  0  0  0  0  0  0  0  0  0  0  0
  142.3380   79.3210  218.2930 C   0  0  0  0  0  0  0  0  0  0  0  0
  142.3180   80.3190  217.2500 N   0  0  0  0  0  0  0  0  0  0  0  0
  142.9450   81.6240  217.5020 C   0  0  0  0  0  0  0  0  0  0  0  0
  142.8720   82.5210  216.2640 C   0  0  0  0  0  0  0  0  0  0  0  0
  143.2070   81.7410  215.0680 N   0  0  0  0  0  0  0  0  0  0  0  0
  142.1880   80.7120  214.7740 C   0  0  0  0  0  0  0  0  0  0  0  0
  141.5160   80.1100  216.0310 C   0  0  0  0  0  0  0  0  0  0  0  0
  142.8740   78.0930  218.0580 N   0  0  0  0  0  0  0  0  0  0  0  0
  139.4160   76.0190  220.0480 C   0  0  0  0  0  0  0  0  0  0  0  0
  137.9322   76.9314  221.3459 H   0  0  0  0  0  0  0  0  0  0  0  0
  138.5960   75.5531  223.3249 H   0  0  0  0  0  0  0  0  0  0  0  0
  141.5856   73.5649  221.0242 H   0  0  0  0  0  0  0  0  0  0  0  0
  140.7582   74.0315  218.1214 H   0  0  0  0  0  0  0  0  0  0  0  0
  141.0971   75.8052  218.0540 H   0  0  0  0  0  0  0  0  0  0  0  0
  142.8119   74.2260  219.9207 H   0  0  0  0  0  0  0  0  0  0  0  0
  143.0391   73.8916  218.1630 H   0  0  0  0  0  0  0  0  0  0  0  0
  144.4470   75.7900  218.4630 H   0  0  0  0  0  0  0  0  0  0  0  0
  139.5590   79.9788  221.2020 H   0  0  0  0  0  0  0  0  0  0  0  0
  139.3253   78.2826  221.7964 H   0  0  0  0  0  0  0  0  0  0  0  0
  138.4976   80.1798  223.3356 H   0  0  0  0  0  0  0  0  0  0  0  0
  139.5634   78.9272  224.0683 H   0  0  0  0  0  0  0  0  0  0  0  0
  140.4304   81.6821  223.0560 H   0  0  0  0  0  0  0  0  0  0  0  0
  140.2575   81.1519  224.7883 H   0  0  0  0  0  0  0  0  0  0  0  0
  142.6053   81.1088  223.3131 H   0  0  0  0  0  0  0  0  0  0  0  0
  142.2360   80.1425  224.8198 H   0  0  0  0  0  0  0  0  0  0  0  0
  143.2193   78.9437  222.6868 H   0  0  0  0  0  0  0  0  0  0  0  0
  141.9019   78.1834  223.6626 H   0  0  0  0  0  0  0  0  0  0  0  0
  142.4229   82.1182  218.3346 H   0  0  0  0  0  0  0  0  0  0  0  0
  144.0037   81.4596  217.7513 H   0  0  0  0  0  0  0  0  0  0  0  0
  141.8534   82.9242  216.1642 H   0  0  0  0  0  0  0  0  0  0  0  0
  143.5881   83.3490  216.3713 H   0  0  0  0  0  0  0  0  0  0  0  0
  144.1390   81.2790  215.2010 H   0  0  0  0  0  0  0  0  0  0  0  0
  143.2800   82.3900  214.2490 H   0  0  0  0  0  0  0  0  0  0  0  0
  141.4060   81.1689  214.1497 H   0  0  0  0  0  0  0  0  0  0  0  0
  142.7086   79.8863  214.2669 H   0  0  0  0  0  0  0  0  0  0  0  0
  140.5335   80.5852  216.1685 H   0  0  0  0  0  0  0  0  0  0  0  0
  141.4200   79.0255  215.8738 H   0  0  0  0  0  0  0  0  0  0  0  0
  139.1266   76.6124  219.1681 H   0  0  0  0  0  0  0  0  0  0  0  0
  1  2  2  0
  2  3  1  0
  3  4  2  0
  4  5  1  0
  5  6  1  0
  6  7  1  0
  7  8  1  0
  8  9  1  0
  9 10  2  0
 10 11  1  0
 11 12  1  0
 12 13  1  0
 13 14  1  0
 14 15  1  0
 15 16  1  0
 16 17  1  0
 11 18  2  0
 18 19  1  0
 19 20  1  0
 20 21  1  0
 21 22  1  0
 22 23  1  0
 23 24  1  0
 24 25  1  0
 19 26  2  0
  5 27  2  0
 27  1  1  0
 26  9  1  0
 17 12  1  0
 25 20  1  0
  1 28  1  0
  2 29  1  0
  4 30  1  0
  6 31  1  0
  6 32  1  0
  7 33  1  0
  7 34  1  0
  8 35  1  0
 13 36  1  0
 13 37  1  0
 14 38  1  0
 14 39  1  0
 15 40  1  0
 15 41  1  0
 16 42  1  0
 16 43  1  0
 17 44  1  0
 17 45  1  0
 21 46  1  0
 21 47  1  0
 22 48  1  0
 22 49  1  0
 23 50  1  0
 23 51  1  0
 24 52  1  0
 24 53  1  0
 25 54  1  0
 25 55  1  0
 27 56  1  0
M  CHG  1  23   1
M  END
>  <UniqueID>  (7) 
581

>  <SMILES>  (7) 
c1cncc(CCNc2nc(N3CCCCC3)nc(N3CC[NH2+]CC3)n2)c1

>  <Energy>  (7) 
54.83794405914214

>  <Genealogy>  (7) 
c1cncc(CCNc2nc(N3CCCCC3)nc(N3CC[NH2+]CC3)n2)c1 (protonated)
c1cncc(CCNc2nc(N3CCCCC3)nc(N3CC[NH2+]CC3)n2)c1 (3D coordinates assigned)
c1cncc(CCNc2nc(N3CCCCC3)nc(N3CC[NH2+]CC3)n2)c1 (nonaromatic ring conformer: 54.83794405914214 kcal/mol)

>  <smiles>  (7) 
c1cncc(CCNc2nc(N3CCCCC3)nc(N3CCNCC3)n2)c1

>  <score_type>  (7) 
oracle

>  <origin>  (7) 
autodockgpu

>  <m_score__min__energy>  (7) 
-7.7999999999999998

>  <m_primary>  (7) 
energy

>  <meeko>  (7) 
{"free_energy": -6.49, "intermolecular_energy": -8.28, "internal_energy": -1.62, "cluster_size": 5, "cluster_id": 4, "rank_in_cluster": 5}

>  <energy>  (7) 
-7.25

>  <cluster_rmsd>  (7) 
1.98

>  <rmsd>  (7) 
271.34

>  <cluster>  (7) 
1

$$$$
YQRBYBBKMCEKLP-ODCLCHFBNA-O
     RDKit          3D

 56 59  0  0  0  0  0  0  0  0999 V2000
  139.9930   70.5450  227.9370 C   0  0  0  0  0  0  0  0  0  0  0  0
  140.7650   71.7060  228.0050 C   0  0  0  0  0  0  0  0  0  0  0  0
  141.2790   72.2540  226.8700 N   0  0  0  0  0  0  0  0  0  0  0  0
  141.0560   71.7020  225.6460 C   0  0  0  0  0  0  0  0  0  0  0  0
  140.2700   70.5440  225.5280 C   0  0  0  0  0  0  0  0  0  0  0  0
  140.0140   69.9250  224.1800 C   0  0  0  0  0  0  0  0  0  0  0  0
  138.7510   70.5080  223.5420 C   0  0  0  0  0  0  0  0  0  0  0  0
  138.8990   71.9480  223.3420 N   0  0  0  0  0  0  0  0  0  0  0  0
  139.9130   72.5130  222.5000 C   0  0  0  0  0  0  0  0  0  0  0  0
  140.8080   71.7140  221.8650 N   0  0  0  0  0  0  0  0  0  0  0  0
  141.7790   72.2500  221.0780 C   0  0  0  0  0  0  0  0  0  0  0  0
  142.7220   71.4010  220.3950 N   0  0  0  0  0  0  0  0  0  0  0  0
  144.1400   71.7940  220.3460 C   0  0  0  0  0  0  0  0  0  0  0  0
  144.9450   70.8970  219.3980 C   0  0  0  0  0  0  0  0  0  0  0  0
  144.1800   70.6990  218.0860 C   0  0  0  0  0  0  0  0  0  0  0  0
  142.7860   70.0730  218.3020 C   0  0  0  0  0  0  0  0  0  0  0  0
  142.2960   70.1440  219.7590 C   0  0  0  0  0  0  0  0  0  0  0  0
  141.8420   73.6000  220.9300 N   0  0  0  0  0  0  0  0  0  0  0  0
  140.9540   74.4130  221.5610 C   0  0  0  0  0  0  0  0  0  0  0  0
  141.0280   75.8460  221.4010 N   0  0  0  0  0  0  0  0  0  0  0  0
  140.9740   76.6990  222.5970 C   0  0  0  0  0  0  0  0  0  0  0  0
  141.1240   78.1770  222.2280 C   0  0  0  0  0  0  0  0  0  0  0  0
  142.1930   78.3330  221.2370 N   0  0  0  0  0  0  0  0  0  0  0  0
  141.8400   77.7190  219.9400 C   0  0  0  0  0  0  0  0  0  0  0  0
  140.9590   76.4520  220.0590 C   0  0  0  0  0  0  0  0  0  0  0  0
  139.9890   73.8590  222.3450 N   0  0  0  0  0  0  0  0  0  0  0  0
  139.7500   69.9580  226.6920 C   0  0  0  0  0  0  0  0  0  0  0  0
  139.5805   70.0970  228.8530 H   0  0  0  0  0  0  0  0  0  0  0  0
  140.9586   72.1795  228.9788 H   0  0  0  0  0  0  0  0  0  0  0  0
  141.4921   72.1636  224.7478 H   0  0  0  0  0  0  0  0  0  0  0  0
  140.8738   70.1238  223.5233 H   0  0  0  0  0  0  0  0  0  0  0  0
  139.8733   68.8420  224.3117 H   0  0  0  0  0  0  0  0  0  0  0  0
  138.5791   70.0229  222.5698 H   0  0  0  0  0  0  0  0  0  0  0  0
  137.8971   70.3268  224.2114 H   0  0  0  0  0  0  0  0  0  0  0  0
  138.2330   72.5890  223.8250 H   0  0  0  0  0  0  0  0  0  0  0  0
  144.2095   72.8348  219.9968 H   0  0  0  0  0  0  0  0  0  0  0  0
  144.5601   71.6884  221.3571 H   0  0  0  0  0  0  0  0  0  0  0  0
  145.9153   71.3698  219.1858 H   0  0  0  0  0  0  0  0  0  0  0  0
  145.1024   69.9182  219.8747 H   0  0  0  0  0  0  0  0  0  0  0  0
  144.0554   71.6776  217.5994 H   0  0  0  0  0  0  0  0  0  0  0  0
  144.7633   70.0071  217.4607 H   0  0  0  0  0  0  0  0  0  0  0  0
  142.0636   70.6057  217.6661 H   0  0  0  0  0  0  0  0  0  0  0  0
  142.8678   69.0074  218.0415 H   0  0  0  0  0  0  0  0  0  0  0  0
  141.1975   70.0874  219.7728 H   0  0  0  0  0  0  0  0  0  0  0  0
  142.7308   69.3021  220.3177 H   0  0  0  0  0  0  0  0  0  0  0  0
  140.0072   76.5509  223.1004 H   0  0  0  0  0  0  0  0  0  0  0  0
  141.8038   76.4195  223.2628 H   0  0  0  0  0  0  0  0  0  0  0  0
  140.1776   78.5464  221.8062 H   0  0  0  0  0  0  0  0  0  0  0  0
  141.3765   78.7538  223.1300 H   0  0  0  0  0  0  0  0  0  0  0  0
  143.0740   77.8980  221.6000 H   0  0  0  0  0  0  0  0  0  0  0  0
  142.3730   79.3550  221.0900 H   0  0  0  0  0  0  0  0  0  0  0  0
  141.2945   78.4641  219.3423 H   0  0  0  0  0  0  0  0  0  0  0  0
  142.7840   77.4057  219.4702 H   0  0  0  0  0  0  0  0  0  0  0  0
  139.9148   76.7262  219.8481 H   0  0  0  0  0  0  0  0  0  0  0  0
  141.3342   75.7124  219.3364 H   0  0  0  0  0  0  0  0  0  0  0  0
  139.1516   69.0374  226.6248 H   0  0  0  0  0  0  0  0  0  0  0  0
  1  2  2  0
  2  3  1  0
  3  4  2  0
  4  5  1  0
  5  6  1  0
  6  7  1  0
  7  8  1  0
  8  9  1  0
  9 10  2  0
 10 11  1  0
 11 12  1  0
 12 13  1  0
 13 14  1  0
 14 15  1  0
 15 16  1  0
 16 17  1  0
 11 18  2  0
 18 19  1  0
 19 20  1  0
 20 21  1  0
 21 22  1  0
 22 23  1  0
 23 24  1  0
 24 25  1  0
 19 26  2  0
  5 27  2  0
 27  1  1  0
 26  9  1  0
 17 12  1  0
 25 20  1  0
  1 28  1  0
  2 29  1  0
  4 30  1  0
  6 31  1  0
  6 32  1  0
  7 33  1  0
  7 34  1  0
  8 35  1  0
 13 36  1  0
 13 37  1  0
 14 38  1  0
 14 39  1  0
 15 40  1  0
 15 41  1  0
 16 42  1  0
 16 43  1  0
 17 44  1  0
 17 45  1  0
 21 46  1  0
 21 47  1  0
 22 48  1  0
 22 49  1  0
 23 50  1  0
 23 51  1  0
 24 52  1  0
 24 53  1  0
 25 54  1  0
 25 55  1  0
 27 56  1  0
M  CHG  1  23   1
M  END
>  <UniqueID>  (8) 
581

>  <SMILES>  (8) 
c1cncc(CCNc2nc(N3CCCCC3)nc(N3CC[NH2+]CC3)n2)c1

>  <Energy>  (8) 
54.83794405914214

>  <Genealogy>  (8) 
c1cncc(CCNc2nc(N3CCCCC3)nc(N3CC[NH2+]CC3)n2)c1 (protonated)
c1cncc(CCNc2nc(N3CCCCC3)nc(N3CC[NH2+]CC3)n2)c1 (3D coordinates assigned)
c1cncc(CCNc2nc(N3CCCCC3)nc(N3CC[NH2+]CC3)n2)c1 (nonaromatic ring conformer: 54.83794405914214 kcal/mol)

>  <smiles>  (8) 
c1cncc(CCNc2nc(N3CCCCC3)nc(N3CCNCC3)n2)c1

>  <score_type>  (8) 
oracle

>  <origin>  (8) 
autodockgpu

>  <m_score__min__energy>  (8) 
-7.7999999999999998

>  <m_primary>  (8) 
energy

>  <meeko>  (8) 
{"free_energy": -7.2, "intermolecular_energy": -8.99, "internal_energy": -1.03, "cluster_size": 9, "cluster_id": 1, "rank_in_cluster": 8}

>  <energy>  (8) 
-7.2

>  <cluster_rmsd>  (8) 
1.51

>  <rmsd>  (8) 
271.09

>  <cluster>  (8) 
1

$$$$
YQRBYBBKMCEKLP-ODCLCHFBNA-O
     RDKit          3D

 56 59  0  0  0  0  0  0  0  0999 V2000
  142.5560   79.3730  223.1970 C   0  0  0  0  0  0  0  0  0  0  0  0
  142.5660   80.3130  222.1650 C   0  0  0  0  0  0  0  0  0  0  0  0
  141.4000   80.6910  221.5730 N   0  0  0  0  0  0  0  0  0  0  0  0
  140.2010   80.1790  221.9630 C   0  0  0  0  0  0  0  0  0  0  0  0
  140.1420   79.2440  223.0090 C   0  0  0  0  0  0  0  0  0  0  0  0
  138.8230   78.6700  223.4520 C   0  0  0  0  0  0  0  0  0  0  0  0
  138.4190   77.4880  222.5680 C   0  0  0  0  0  0  0  0  0  0  0  0
  139.4510   76.4530  222.5950 N   0  0  0  0  0  0  0  0  0  0  0  0
  140.4560   76.3360  221.5790 C   0  0  0  0  0  0  0  0  0  0  0  0
  141.3540   75.3180  221.6100 N   0  0  0  0  0  0  0  0  0  0  0  0
  142.3160   75.2140  220.6540 C   0  0  0  0  0  0  0  0  0  0  0  0
  143.2610   74.1260  220.6810 N   0  0  0  0  0  0  0  0  0  0  0  0
  144.6980   74.4190  220.5390 C   0  0  0  0  0  0  0  0  0  0  0  0
  145.5230   73.1370  220.3670 C   0  0  0  0  0  0  0  0  0  0  0  0
  144.8470   72.2100  219.3530 C   0  0  0  0  0  0  0  0  0  0  0  0
  143.4100   71.8260  219.7660 C   0  0  0  0  0  0  0  0  0  0  0  0
  142.8190   72.7340  220.8590 C   0  0  0  0  0  0  0  0  0  0  0  0
  142.3680   76.1420  219.6620 N   0  0  0  0  0  0  0  0  0  0  0  0
  141.4770   77.1680  219.6200 C   0  0  0  0  0  0  0  0  0  0  0  0
  141.5400   78.1500  218.5640 N   0  0  0  0  0  0  0  0  0  0  0  0
  142.1990   79.4380  218.8290 C   0  0  0  0  0  0  0  0  0  0  0  0
  142.2140   80.3190  217.5770 C   0  0  0  0  0  0  0  0  0  0  0  0
  142.5770   79.5100  216.4080 N   0  0  0  0  0  0  0  0  0  0  0  0
  141.5370   78.5130  216.0800 C   0  0  0  0  0  0  0  0  0  0  0  0
  140.7880   77.9510  217.3120 C   0  0  0  0  0  0  0  0  0  0  0  0
  140.5210   77.2560  220.5840 N   0  0  0  0  0  0  0  0  0  0  0  0
  141.3390   78.8310  223.6160 C   0  0  0  0  0  0  0  0  0  0  0  0
  143.4967   79.0625  223.6751 H   0  0  0  0  0  0  0  0  0  0  0  0
  143.5184   80.7493  221.8294 H   0  0  0  0  0  0  0  0  0  0  0  0
  139.2771   80.4979  221.4583 H   0  0  0  0  0  0  0  0  0  0  0  0
  138.9106   78.3276  224.4937 H   0  0  0  0  0  0  0  0  0  0  0  0
  138.0532   79.4513  223.3686 H   0  0  0  0  0  0  0  0  0  0  0  0
  137.4730   77.0658  222.9380 H   0  0  0  0  0  0  0  0  0  0  0  0
  138.2970   77.8422  221.5338 H   0  0  0  0  0  0  0  0  0  0  0  0
  139.4600   75.7790  223.3910 H   0  0  0  0  0  0  0  0  0  0  0  0
  144.8460   75.0594  219.6570 H   0  0  0  0  0  0  0  0  0  0  0  0
  145.0373   74.9255  221.4546 H   0  0  0  0  0  0  0  0  0  0  0  0
  146.5296   73.3973  220.0078 H   0  0  0  0  0  0  0  0  0  0  0  0
  145.5939   72.6211  221.3359 H   0  0  0  0  0  0  0  0  0  0  0  0
  144.8093   72.7205  218.3794 H   0  0  0  0  0  0  0  0  0  0  0  0
  145.4381   71.2837  219.3026 H   0  0  0  0  0  0  0  0  0  0  0  0
  142.7648   71.8868  218.8772 H   0  0  0  0  0  0  0  0  0  0  0  0
  143.4551   70.8086  220.1818 H   0  0  0  0  0  0  0  0  0  0  0  0
  141.7210   72.6951  220.8047 H   0  0  0  0  0  0  0  0  0  0  0  0
  143.1682   72.3770  221.8391 H   0  0  0  0  0  0  0  0  0  0  0  0
  141.6557   79.9612  219.6296 H   0  0  0  0  0  0  0  0  0  0  0  0
  143.2387   79.2423  219.1302 H   0  0  0  0  0  0  0  0  0  0  0  0
  141.2156   80.7548  217.4244 H   0  0  0  0  0  0  0  0  0  0  0  0
  142.9523   81.1241  217.7066 H   0  0  0  0  0  0  0  0  0  0  0  0
  143.4850   79.0200  216.5900 H   0  0  0  0  0  0  0  0  0  0  0  0
  142.7100   80.1450  215.5850 H   0  0  0  0  0  0  0  0  0  0  0  0
  140.8005   78.9883  215.4154 H   0  0  0  0  0  0  0  0  0  0  0  0
  142.0509   77.6632  215.6070 H   0  0  0  0  0  0  0  0  0  0  0  0
  139.8169   78.4605  217.3981 H   0  0  0  0  0  0  0  0  0  0  0  0
  140.6625   76.8683  217.1639 H   0  0  0  0  0  0  0  0  0  0  0  0
  141.3181   78.0813  224.4207 H   0  0  0  0  0  0  0  0  0  0  0  0
  1  2  2  0
  2  3  1  0
  3  4  2  0
  4  5  1  0
  5  6  1  0
  6  7  1  0
  7  8  1  0
  8  9  1  0
  9 10  2  0
 10 11  1  0
 11 12  1  0
 12 13  1  0
 13 14  1  0
 14 15  1  0
 15 16  1  0
 16 17  1  0
 11 18  2  0
 18 19  1  0
 19 20  1  0
 20 21  1  0
 21 22  1  0
 22 23  1  0
 23 24  1  0
 24 25  1  0
 19 26  2  0
  5 27  2  0
 27  1  1  0
 26  9  1  0
 17 12  1  0
 25 20  1  0
  1 28  1  0
  2 29  1  0
  4 30  1  0
  6 31  1  0
  6 32  1  0
  7 33  1  0
  7 34  1  0
  8 35  1  0
 13 36  1  0
 13 37  1  0
 14 38  1  0
 14 39  1  0
 15 40  1  0
 15 41  1  0
 16 42  1  0
 16 43  1  0
 17 44  1  0
 17 45  1  0
 21 46  1  0
 21 47  1  0
 22 48  1  0
 22 49  1  0
 23 50  1  0
 23 51  1  0
 24 52  1  0
 24 53  1  0
 25 54  1  0
 25 55  1  0
 27 56  1  0
M  CHG  1  23   1
M  END
>  <UniqueID>  (9) 
581

>  <SMILES>  (9) 
c1cncc(CCNc2nc(N3CCCCC3)nc(N3CC[NH2+]CC3)n2)c1

>  <Energy>  (9) 
54.83794405914214

>  <Genealogy>  (9) 
c1cncc(CCNc2nc(N3CCCCC3)nc(N3CC[NH2+]CC3)n2)c1 (protonated)
c1cncc(CCNc2nc(N3CCCCC3)nc(N3CC[NH2+]CC3)n2)c1 (3D coordinates assigned)
c1cncc(CCNc2nc(N3CCCCC3)nc(N3CC[NH2+]CC3)n2)c1 (nonaromatic ring conformer: 54.83794405914214 kcal/mol)

>  <smiles>  (9) 
c1cncc(CCNc2nc(N3CCCCC3)nc(N3CCNCC3)n2)c1

>  <score_type>  (9) 
oracle

>  <origin>  (9) 
autodockgpu

>  <m_score__min__energy>  (9) 
-7.7999999999999998

>  <m_primary>  (9) 
energy

>  <meeko>  (9) 
{"free_energy": -6.87, "intermolecular_energy": -8.66, "internal_energy": -1.54, "cluster_size": 1, "cluster_id": 5, "rank_in_cluster": 1}

>  <energy>  (9) 
-7.16

>  <cluster_rmsd>  (9) 
1.92

>  <rmsd>  (9) 
271.36

>  <cluster>  (9) 
1

$$$$
YQRBYBBKMCEKLP-ODCLCHFBNA-O
     RDKit          3D

 56 59  0  0  0  0  0  0  0  0999 V2000
  141.0170   68.2480  226.9930 C   0  0  0  0  0  0  0  0  0  0  0  0
  140.1740   67.2340  226.5330 C   0  0  0  0  0  0  0  0  0  0  0  0
  139.2630   67.4940  225.5550 N   0  0  0  0  0  0  0  0  0  0  0  0
  139.1480   68.7300  224.9960 C   0  0  0  0  0  0  0  0  0  0  0  0
  139.9870   69.7740  225.4160 C   0  0  0  0  0  0  0  0  0  0  0  0
  139.8710   71.1450  224.8060 C   0  0  0  0  0  0  0  0  0  0  0  0
  138.7330   71.1910  223.7830 C   0  0  0  0  0  0  0  0  0  0  0  0
  139.2650   71.3760  222.4340 N   0  0  0  0  0  0  0  0  0  0  0  0
  140.0330   72.5270  222.0560 C   0  0  0  0  0  0  0  0  0  0  0  0
  141.2420   72.3850  221.4570 N   0  0  0  0  0  0  0  0  0  0  0  0
  141.9770   73.4750  221.1110 C   0  0  0  0  0  0  0  0  0  0  0  0
  143.2560   73.3230  220.4630 N   0  0  0  0  0  0  0  0  0  0  0  0
  143.6650   71.9910  219.9850 C   0  0  0  0  0  0  0  0  0  0  0  0
  145.1290   71.9780  219.5300 C   0  0  0  0  0  0  0  0  0  0  0  0
  146.0040   72.7030  220.5570 C   0  0  0  0  0  0  0  0  0  0  0  0
  145.5660   74.1660  220.7820 C   0  0  0  0  0  0  0  0  0  0  0  0
  144.1510   74.4730  220.2600 C   0  0  0  0  0  0  0  0  0  0  0  0
  141.4840   74.7160  221.3690 N   0  0  0  0  0  0  0  0  0  0  0  0
  140.2750   74.8740  221.9710 C   0  0  0  0  0  0  0  0  0  0  0  0
  139.7590   76.1940  222.2430 N   0  0  0  0  0  0  0  0  0  0  0  0
  140.7000   77.3190  222.3420 C   0  0  0  0  0  0  0  0  0  0  0  0
  139.9600   78.6390  222.5770 C   0  0  0  0  0  0  0  0  0  0  0  0
  138.7870   78.7110  221.7010 N   0  0  0  0  0  0  0  0  0  0  0  0
  137.7640   77.7070  222.0620 C   0  0  0  0  0  0  0  0  0  0  0  0
  138.3440   76.3830  222.6110 C   0  0  0  0  0  0  0  0  0  0  0  0
  139.5530   73.7710  222.3100 N   0  0  0  0  0  0  0  0  0  0  0  0
  140.9180   69.5250  226.4360 C   0  0  0  0  0  0  0  0  0  0  0  0
  141.7514   68.0430  227.7858 H   0  0  0  0  0  0  0  0  0  0  0  0
  140.2461   66.2235  226.9616 H   0  0  0  0  0  0  0  0  0  0  0  0
  138.3961   68.9109  224.2137 H   0  0  0  0  0  0  0  0  0  0  0  0
  139.6705   71.8778  225.6015 H   0  0  0  0  0  0  0  0  0  0  0  0
  140.8148   71.3838  224.2940 H   0  0  0  0  0  0  0  0  0  0  0  0
  138.1708   70.2464  223.8241 H   0  0  0  0  0  0  0  0  0  0  0  0
  138.0718   72.0364  224.0239 H   0  0  0  0  0  0  0  0  0  0  0  0
  139.0860   70.6360  221.7220 H   0  0  0  0  0  0  0  0  0  0  0  0
  143.5388   71.2648  220.8015 H   0  0  0  0  0  0  0  0  0  0  0  0
  143.0350   71.7272  219.1227 H   0  0  0  0  0  0  0  0  0  0  0  0
  145.4703   70.9370  219.4310 H   0  0  0  0  0  0  0  0  0  0  0  0
  145.2100   72.4914  218.5605 H   0  0  0  0  0  0  0  0  0  0  0  0
  145.9422   72.1654  221.5147 H   0  0  0  0  0  0  0  0  0  0  0  0
  147.0323   72.7191  220.1667 H   0  0  0  0  0  0  0  0  0  0  0  0
  145.5911   74.3743  221.8618 H   0  0  0  0  0  0  0  0  0  0  0  0
  146.2632   74.8019  220.2168 H   0  0  0  0  0  0  0  0  0  0  0  0
  143.7485   75.3425  220.8003 H   0  0  0  0  0  0  0  0  0  0  0  0
  144.2121   74.6851  219.1824 H   0  0  0  0  0  0  0  0  0  0  0  0
  141.3881   77.1388  223.1811 H   0  0  0  0  0  0  0  0  0  0  0  0
  141.2551   77.3939  221.3953 H   0  0  0  0  0  0  0  0  0  0  0  0
  139.6363   78.6947  223.6268 H   0  0  0  0  0  0  0  0  0  0  0  0
  140.6339   79.4791  222.3529 H   0  0  0  0  0  0  0  0  0  0  0  0
  139.0830   78.5640  220.7060 H   0  0  0  0  0  0  0  0  0  0  0  0
  138.3650   79.6670  221.7760 H   0  0  0  0  0  0  0  0  0  0  0  0
  137.1092   78.1424  222.8312 H   0  0  0  0  0  0  0  0  0  0  0  0
  137.2248   77.4571  221.1364 H   0  0  0  0  0  0  0  0  0  0  0  0
  138.2621   76.3894  223.7079 H   0  0  0  0  0  0  0  0  0  0  0  0
  137.7691   75.5561  222.1687 H   0  0  0  0  0  0  0  0  0  0  0  0
  141.5693   70.3348  226.7966 H   0  0  0  0  0  0  0  0  0  0  0  0
  1  2  2  0
  2  3  1  0
  3  4  2  0
  4  5  1  0
  5  6  1  0
  6  7  1  0
  7  8  1  0
  8  9  1  0
  9 10  2  0
 10 11  1  0
 11 12  1  0
 12 13  1  0
 13 14  1  0
 14 15  1  0
 15 16  1  0
 16 17  1  0
 11 18  2  0
 18 19  1  0
 19 20  1  0
 20 21  1  0
 21 22  1  0
 22 23  1  0
 23 24  1  0
 24 25  1  0
 19 26  2  0
  5 27  2  0
 27  1  1  0
 26  9  1  0
 17 12  1  0
 25 20  1  0
  1 28  1  0
  2 29  1  0
  4 30  1  0
  6 31  1  0
  6 32  1  0
  7 33  1  0
  7 34  1  0
  8 35  1  0
 13 36  1  0
 13 37  1  0
 14 38  1  0
 14 39  1  0
 15 40  1  0
 15 41  1  0
 16 42  1  0
 16 43  1  0
 17 44  1  0
 17 45  1  0
 21 46  1  0
 21 47  1  0
 22 48  1  0
 22 49  1  0
 23 50  1  0
 23 51  1  0
 24 52  1  0
 24 53  1  0
 25 54  1  0
 25 55  1  0
 27 56  1  0
M  CHG  1  23   1
M  END
>  <UniqueID>  (10) 
581

>  <SMILES>  (10) 
c1cncc(CCNc2nc(N3CCCCC3)nc(N3CC[NH2+]CC3)n2)c1

>  <Energy>  (10) 
54.83794405914214

>  <Genealogy>  (10) 
c1cncc(CCNc2nc(N3CCCCC3)nc(N3CC[NH2+]CC3)n2)c1 (protonated)
c1cncc(CCNc2nc(N3CCCCC3)nc(N3CC[NH2+]CC3)n2)c1 (3D coordinates assigned)
c1cncc(CCNc2nc(N3CCCCC3)nc(N3CC[NH2+]CC3)n2)c1 (nonaromatic ring conformer: 54.83794405914214 kcal/mol)

>  <smiles>  (10) 
c1cncc(CCNc2nc(N3CCCCC3)nc(N3CCNCC3)n2)c1

>  <score_type>  (10) 
oracle

>  <origin>  (10) 
autodockgpu

>  <m_score__min__energy>  (10) 
-7.7999999999999998

>  <m_primary>  (10) 
energy

>  <meeko>  (10) 
{"free_energy": -7.28, "intermolecular_energy": -9.07, "internal_energy": -0.85, "cluster_size": 9, "cluster_id": 1, "rank_in_cluster": 6}

>  <energy>  (10) 
-7.61

>  <cluster_rmsd>  (10) 
0.0

>  <rmsd>  (10) 
271.02

>  <cluster>  (10) 
2

$$$$
YQRBYBBKMCEKLP-ODCLCHFBNA-O
     RDKit          3D

 56 59  0  0  0  0  0  0  0  0999 V2000
  141.3770   72.4130  221.4050 C   0  0  0  0  0  0  0  0  0  0  0  0
  140.3290   73.1110  222.0090 C   0  0  0  0  0  0  0  0  0  0  0  0
  140.3060   74.4720  221.9780 N   0  0  0  0  0  0  0  0  0  0  0  0
  141.2850   75.1890  221.3620 C   0  0  0  0  0  0  0  0  0  0  0  0
  142.3490   74.5280  220.7270 C   0  0  0  0  0  0  0  0  0  0  0  0
  143.4370   75.3100  220.0410 C   0  0  0  0  0  0  0  0  0  0  0  0
  143.2250   75.3270  218.5260 C   0  0  0  0  0  0  0  0  0  0  0  0
  142.1120   76.2090  218.1760 N   0  0  0  0  0  0  0  0  0  0  0  0
  142.0880   77.6000  218.5240 C   0  0  0  0  0  0  0  0  0  0  0  0
  141.8320   77.9890  219.7990 N   0  0  0  0  0  0  0  0  0  0  0  0
  141.7940   79.3080  220.1270 C   0  0  0  0  0  0  0  0  0  0  0  0
  141.5340   79.7200  221.4830 N   0  0  0  0  0  0  0  0  0  0  0  0
  141.8090   81.1130  221.8760 C   0  0  0  0  0  0  0  0  0  0  0  0
  141.6860   81.3080  223.3920 C   0  0  0  0  0  0  0  0  0  0  0  0
  142.4010   80.1710  224.1280 C   0  0  0  0  0  0  0  0  0  0  0  0
  141.8400   78.7800  223.7570 C   0  0  0  0  0  0  0  0  0  0  0  0
  140.9880   78.7810  222.4760 C   0  0  0  0  0  0  0  0  0  0  0  0
  142.0190   80.2380  219.1610 N   0  0  0  0  0  0  0  0  0  0  0  0
  142.2750   79.8630  217.8790 C   0  0  0  0  0  0  0  0  0  0  0  0
  142.5120   80.8560  216.8580 N   0  0  0  0  0  0  0  0  0  0  0  0
  143.3690   82.0080  217.1730 C   0  0  0  0  0  0  0  0  0  0  0  0
  143.5460   82.9150  215.9520 C   0  0  0  0  0  0  0  0  0  0  0  0
  143.7890   82.0960  214.7590 N   0  0  0  0  0  0  0  0  0  0  0  0
  142.6050   81.2940  214.3880 C   0  0  0  0  0  0  0  0  0  0  0  0
  141.7570   80.8230  215.5930 C   0  0  0  0  0  0  0  0  0  0  0  0
  142.3090   78.5380  217.5690 N   0  0  0  0  0  0  0  0  0  0  0  0
  142.3950   73.1270  220.7670 C   0  0  0  0  0  0  0  0  0  0  0  0
  141.4009   71.3136  221.4311 H   0  0  0  0  0  0  0  0  0  0  0  0
  139.5201   72.5599  222.5110 H   0  0  0  0  0  0  0  0  0  0  0  0
  141.2429   76.2882  221.3615 H   0  0  0  0  0  0  0  0  0  0  0  0
  143.4296   76.3436  220.4173 H   0  0  0  0  0  0  0  0  0  0  0  0
  144.4033   74.8300  220.2552 H   0  0  0  0  0  0  0  0  0  0  0  0
  144.1413   75.6880  218.0360 H   0  0  0  0  0  0  0  0  0  0  0  0
  142.9915   74.3068  218.1873 H   0  0  0  0  0  0  0  0  0  0  0  0
  141.3090   75.8100  217.6440 H   0  0  0  0  0  0  0  0  0  0  0  0
  142.8304   81.3766  221.5641 H   0  0  0  0  0  0  0  0  0  0  0  0
  141.0680   81.7611  221.3851 H   0  0  0  0  0  0  0  0  0  0  0  0
  142.1431   82.2680  223.6737 H   0  0  0  0  0  0  0  0  0  0  0  0
  140.6219   81.3044  223.6705 H   0  0  0  0  0  0  0  0  0  0  0  0
  143.4697   80.2006  223.8693 H   0  0  0  0  0  0  0  0  0  0  0  0
  142.2412   80.3187  225.2063 H   0  0  0  0  0  0  0  0  0  0  0  0
  142.6855   78.0915  223.6117 H   0  0  0  0  0  0  0  0  0  0  0  0
  141.1824   78.4671  224.5814 H   0  0  0  0  0  0  0  0  0  0  0  0
  140.9805   77.7679  222.0476 H   0  0  0  0  0  0  0  0  0  0  0  0
  139.9663   79.0967  222.7337 H   0  0  0  0  0  0  0  0  0  0  0  0
  142.9075   82.5870  217.9865 H   0  0  0  0  0  0  0  0  0  0  0  0
  144.3581   81.6344  217.4765 H   0  0  0  0  0  0  0  0  0  0  0  0
  142.6345   83.5131  215.8055 H   0  0  0  0  0  0  0  0  0  0  0  0
  144.4040   83.5836  216.1160 H   0  0  0  0  0  0  0  0  0  0  0  0
  144.6020   81.4580  214.9330 H   0  0  0  0  0  0  0  0  0  0  0  0
  144.0360   82.7270  213.9600 H   0  0  0  0  0  0  0  0  0  0  0  0
  141.9656   81.9047  213.7336 H   0  0  0  0  0  0  0  0  0  0  0  0
  142.9798   80.3872  213.8908 H   0  0  0  0  0  0  0  0  0  0  0  0
  140.8808   81.4813  215.6872 H   0  0  0  0  0  0  0  0  0  0  0  0
  141.4596   79.7804  215.4069 H   0  0  0  0  0  0  0  0  0  0  0  0
  143.2320   72.5903  220.2964 H   0  0  0  0  0  0  0  0  0  0  0  0
  1  2  2  0
  2  3  1  0
  3  4  2  0
  4  5  1  0
  5  6  1  0
  6  7  1  0
  7  8  1  0
  8  9  1  0
  9 10  2  0
 10 11  1  0
 11 12  1  0
 12 13  1  0
 13 14  1  0
 14 15  1  0
 15 16  1  0
 16 17  1  0
 11 18  2  0
 18 19  1  0
 19 20  1  0
 20 21  1  0
 21 22  1  0
 22 23  1  0
 23 24  1  0
 24 25  1  0
 19 26  2  0
  5 27  2  0
 27  1  1  0
 26  9  1  0
 17 12  1  0
 25 20  1  0
  1 28  1  0
  2 29  1  0
  4 30  1  0
  6 31  1  0
  6 32  1  0
  7 33  1  0
  7 34  1  0
  8 35  1  0
 13 36  1  0
 13 37  1  0
 14 38  1  0
 14 39  1  0
 15 40  1  0
 15 41  1  0
 16 42  1  0
 16 43  1  0
 17 44  1  0
 17 45  1  0
 21 46  1  0
 21 47  1  0
 22 48  1  0
 22 49  1  0
 23 50  1  0
 23 51  1  0
 24 52  1  0
 24 53  1  0
 25 54  1  0
 25 55  1  0
 27 56  1  0
M  CHG  1  23   1
M  END
>  <UniqueID>  (11) 
581

>  <SMILES>  (11) 
c1cncc(CCNc2nc(N3CCCCC3)nc(N3CC[NH2+]CC3)n2)c1

>  <Energy>  (11) 
54.83794405914214

>  <Genealogy>  (11) 
c1cncc(CCNc2nc(N3CCCCC3)nc(N3CC[NH2+]CC3)n2)c1 (protonated)
c1cncc(CCNc2nc(N3CCCCC3)nc(N3CC[NH2+]CC3)n2)c1 (3D coordinates assigned)
c1cncc(CCNc2nc(N3CCCCC3)nc(N3CC[NH2+]CC3)n2)c1 (nonaromatic ring conformer: 54.83794405914214 kcal/mol)

>  <smiles>  (11) 
c1cncc(CCNc2nc(N3CCCCC3)nc(N3CCNCC3)n2)c1

>  <score_type>  (11) 
oracle

>  <origin>  (11) 
autodockgpu

>  <m_score__min__energy>  (11) 
-7.7999999999999998

>  <m_primary>  (11) 
energy

>  <meeko>  (11) 
{"free_energy": -7.02, "intermolecular_energy": -8.81, "internal_energy": -1.19, "cluster_size": 5, "cluster_id": 4, "rank_in_cluster": 4}

>  <energy>  (11) 
-7.42

>  <cluster_rmsd>  (11) 
0.0

>  <rmsd>  (11) 
270.61

>  <cluster>  (11) 
3

$$$$
YQRBYBBKMCEKLP-ODCLCHFBNA-O
     RDKit          3D

 56 59  0  0  0  0  0  0  0  0999 V2000
  145.4550   74.1240  220.7960 C   0  0  0  0  0  0  0  0  0  0  0  0
  146.3290   73.3700  220.0110 C   0  0  0  0  0  0  0  0  0  0  0  0
  145.8660   72.3030  219.3030 N   0  0  0  0  0  0  0  0  0  0  0  0
  144.5540   71.9430  219.3310 C   0  0  0  0  0  0  0  0  0  0  0  0
  143.6360   72.6840  220.0930 C   0  0  0  0  0  0  0  0  0  0  0  0
  142.1820   72.2970  220.1310 C   0  0  0  0  0  0  0  0  0  0  0  0
  141.6340   72.3740  221.5580 C   0  0  0  0  0  0  0  0  0  0  0  0
  140.6120   73.4140  221.6570 N   0  0  0  0  0  0  0  0  0  0  0  0
  140.8570   74.7790  221.2910 C   0  0  0  0  0  0  0  0  0  0  0  0
  140.6890   75.7780  222.1940 N   0  0  0  0  0  0  0  0  0  0  0  0
  140.9070   77.0730  221.8430 C   0  0  0  0  0  0  0  0  0  0  0  0
  140.7410   78.1330  222.8060 N   0  0  0  0  0  0  0  0  0  0  0  0
  139.4260   78.7830  222.9400 C   0  0  0  0  0  0  0  0  0  0  0  0
  139.4950   80.0210  223.8420 C   0  0  0  0  0  0  0  0  0  0  0  0
  140.7140   80.8710  223.4740 C   0  0  0  0  0  0  0  0  0  0  0  0
  142.0410   80.0910  223.5960 C   0  0  0  0  0  0  0  0  0  0  0  0
  141.8540   78.5650  223.6650 C   0  0  0  0  0  0  0  0  0  0  0  0
  141.3000   77.3590  220.5730 N   0  0  0  0  0  0  0  0  0  0  0  0
  141.4690   76.3690  219.6570 C   0  0  0  0  0  0  0  0  0  0  0  0
  141.8850   76.6790  218.3090 N   0  0  0  0  0  0  0  0  0  0  0  0
  141.2600   77.8160  217.6170 C   0  0  0  0  0  0  0  0  0  0  0  0
  141.8700   78.0200  216.2280 C   0  0  0  0  0  0  0  0  0  0  0  0
  143.3290   77.8920  216.3050 N   0  0  0  0  0  0  0  0  0  0  0  0
  143.7470   76.5130  216.6350 C   0  0  0  0  0  0  0  0  0  0  0  0
  142.7700   75.7620  217.5690 C   0  0  0  0  0  0  0  0  0  0  0  0
  141.2470   75.0780  220.0260 N   0  0  0  0  0  0  0  0  0  0  0  0
  144.1040   73.7750  220.8420 C   0  0  0  0  0  0  0  0  0  0  0  0
  145.8268   74.9840  221.3723 H   0  0  0  0  0  0  0  0  0  0  0  0
  147.3947   73.6386  219.9642 H   0  0  0  0  0  0  0  0  0  0  0  0
  144.2118   71.0701  218.7558 H   0  0  0  0  0  0  0  0  0  0  0  0
  141.6100   72.9820  219.4880 H   0  0  0  0  0  0  0  0  0  0  0  0
  142.0841   71.2618  219.7721 H   0  0  0  0  0  0  0  0  0  0  0  0
  141.1913   71.4041  221.8288 H   0  0  0  0  0  0  0  0  0  0  0  0
  142.4587   72.6184  222.2437 H   0  0  0  0  0  0  0  0  0  0  0  0
  139.6640   73.1490  222.0010 H   0  0  0  0  0  0  0  0  0  0  0  0
  139.0755   79.0875  221.9428 H   0  0  0  0  0  0  0  0  0  0  0  0
  138.7324   78.0627  223.3985 H   0  0  0  0  0  0  0  0  0  0  0  0
  138.5811   80.6189  223.7102 H   0  0  0  0  0  0  0  0  0  0  0  0
  139.5830   79.6991  224.8902 H   0  0  0  0  0  0  0  0  0  0  0  0
  140.6024   81.2159  222.4354 H   0  0  0  0  0  0  0  0  0  0  0  0
  140.7573   81.7140  224.1793 H   0  0  0  0  0  0  0  0  0  0  0  0
  142.6643   80.3258  222.7206 H   0  0  0  0  0  0  0  0  0  0  0  0
  142.5123   80.4015  224.5402 H   0  0  0  0  0  0  0  0  0  0  0  0
  142.7792   78.0733  223.3300 H   0  0  0  0  0  0  0  0  0  0  0  0
  141.6248   78.2857  224.7040 H   0  0  0  0  0  0  0  0  0  0  0  0
  140.1822   77.6234  217.5111 H   0  0  0  0  0  0  0  0  0  0  0  0
  141.4343   78.7249  218.2116 H   0  0  0  0  0  0  0  0  0  0  0  0
  141.4722   77.2605  215.5389 H   0  0  0  0  0  0  0  0  0  0  0  0
  141.6114   79.0240  215.8605 H   0  0  0  0  0  0  0  0  0  0  0  0
  143.7010   78.5510  217.0300 H   0  0  0  0  0  0  0  0  0  0  0  0
  143.7430   78.1590  215.3800 H   0  0  0  0  0  0  0  0  0  0  0  0
  143.8334   75.9448  215.6971 H   0  0  0  0  0  0  0  0  0  0  0  0
  144.7025   76.5923  217.1742 H   0  0  0  0  0  0  0  0  0  0  0  0
  142.1502   75.0857  216.9620 H   0  0  0  0  0  0  0  0  0  0  0  0
  143.3694   75.2066  218.3054 H   0  0  0  0  0  0  0  0  0  0  0  0
  143.4067   74.3546  221.4648 H   0  0  0  0  0  0  0  0  0  0  0  0
  1  2  2  0
  2  3  1  0
  3  4  2  0
  4  5  1  0
  5  6  1  0
  6  7  1  0
  7  8  1  0
  8  9  1  0
  9 10  2  0
 10 11  1  0
 11 12  1  0
 12 13  1  0
 13 14  1  0
 14 15  1  0
 15 16  1  0
 16 17  1  0
 11 18  2  0
 18 19  1  0
 19 20  1  0
 20 21  1  0
 21 22  1  0
 22 23  1  0
 23 24  1  0
 24 25  1  0
 19 26  2  0
  5 27  2  0
 27  1  1  0
 26  9  1  0
 17 12  1  0
 25 20  1  0
  1 28  1  0
  2 29  1  0
  4 30  1  0
  6 31  1  0
  6 32  1  0
  7 33  1  0
  7 34  1  0
  8 35  1  0
 13 36  1  0
 13 37  1  0
 14 38  1  0
 14 39  1  0
 15 40  1  0
 15 41  1  0
 16 42  1  0
 16 43  1  0
 17 44  1  0
 17 45  1  0
 21 46  1  0
 21 47  1  0
 22 48  1  0
 22 49  1  0
 23 50  1  0
 23 51  1  0
 24 52  1  0
 24 53  1  0
 25 54  1  0
 25 55  1  0
 27 56  1  0
M  CHG  1  23   1
M  END
>  <UniqueID>  (12) 
581

>  <SMILES>  (12) 
c1cncc(CCNc2nc(N3CCCCC3)nc(N3CC[NH2+]CC3)n2)c1

>  <Energy>  (12) 
54.83794405914214

>  <Genealogy>  (12) 
c1cncc(CCNc2nc(N3CCCCC3)nc(N3CC[NH2+]CC3)n2)c1 (protonated)
c1cncc(CCNc2nc(N3CCCCC3)nc(N3CC[NH2+]CC3)n2)c1 (3D coordinates assigned)
c1cncc(CCNc2nc(N3CCCCC3)nc(N3CC[NH2+]CC3)n2)c1 (nonaromatic ring conformer: 54.83794405914214 kcal/mol)

>  <smiles>  (12) 
c1cncc(CCNc2nc(N3CCCCC3)nc(N3CCNCC3)n2)c1

>  <score_type>  (12) 
oracle

>  <origin>  (12) 
autodockgpu

>  <m_score__min__energy>  (12) 
-7.7999999999999998

>  <m_primary>  (12) 
energy

>  <meeko>  (12) 
{"free_energy": -7.38, "intermolecular_energy": -9.17, "internal_energy": -1.24, "cluster_size": 4, "cluster_id": 3, "rank_in_cluster": 3}

>  <energy>  (12) 
-7.42

>  <cluster_rmsd>  (12) 
0.06

>  <rmsd>  (12) 
270.63

>  <cluster>  (12) 
3

$$$$
YQRBYBBKMCEKLP-ODCLCHFBNA-O
     RDKit          3D

 56 59  0  0  0  0  0  0  0  0999 V2000
  141.3930   72.2530  227.2710 C   0  0  0  0  0  0  0  0  0  0  0  0
  141.0940   71.4530  228.3760 C   0  0  0  0  0  0  0  0  0  0  0  0
  140.4210   70.2810  228.2100 N   0  0  0  0  0  0  0  0  0  0  0  0
  140.0270   69.8510  226.9800 C   0  0  0  0  0  0  0  0  0  0  0  0
  140.3230   70.6150  225.8390 C   0  0  0  0  0  0  0  0  0  0  0  0
  139.8950   70.1500  224.4730 C   0  0  0  0  0  0  0  0  0  0  0  0
  138.9050   71.1350  223.8480 C   0  0  0  0  0  0  0  0  0  0  0  0
  139.2690   71.4120  222.4590 N   0  0  0  0  0  0  0  0  0  0  0  0
  140.0450   72.5540  222.0740 C   0  0  0  0  0  0  0  0  0  0  0  0
  141.2560   72.4000  221.4820 N   0  0  0  0  0  0  0  0  0  0  0  0
  142.0000   73.4830  221.1310 C   0  0  0  0  0  0  0  0  0  0  0  0
  143.2800   73.3180  220.4910 N   0  0  0  0  0  0  0  0  0  0  0  0
  143.6850   71.9790  220.0280 C   0  0  0  0  0  0  0  0  0  0  0  0
  145.1510   71.9530  219.5810 C   0  0  0  0  0  0  0  0  0  0  0  0
  146.0250   72.6850  220.6030 C   0  0  0  0  0  0  0  0  0  0  0  0
  145.5930   74.1530  220.8100 C   0  0  0  0  0  0  0  0  0  0  0  0
  144.1820   74.4600  220.2790 C   0  0  0  0  0  0  0  0  0  0  0  0
  141.5130   74.7290  221.3760 N   0  0  0  0  0  0  0  0  0  0  0  0
  140.3020   74.8990  221.9700 C   0  0  0  0  0  0  0  0  0  0  0  0
  139.7920   76.2250  222.2290 N   0  0  0  0  0  0  0  0  0  0  0  0
  140.7420   77.3400  222.3540 C   0  0  0  0  0  0  0  0  0  0  0  0
  140.0110   78.6670  222.5690 C   0  0  0  0  0  0  0  0  0  0  0  0
  138.8620   78.7520  221.6610 N   0  0  0  0  0  0  0  0  0  0  0  0
  137.8190   77.7590  221.9930 C   0  0  0  0  0  0  0  0  0  0  0  0
  138.3700   76.4280  222.5580 C   0  0  0  0  0  0  0  0  0  0  0  0
  139.5720   73.8040  222.3150 N   0  0  0  0  0  0  0  0  0  0  0  0
  141.0000   71.8340  225.9980 C   0  0  0  0  0  0  0  0  0  0  0  0
  141.9322   73.2028  227.4019 H   0  0  0  0  0  0  0  0  0  0  0  0
  141.4029   71.7705  229.3829 H   0  0  0  0  0  0  0  0  0  0  0  0
  139.4762   68.9042  226.8794 H   0  0  0  0  0  0  0  0  0  0  0  0
  140.7807   70.0697  223.8257 H   0  0  0  0  0  0  0  0  0  0  0  0
  139.4027   69.1714  224.5724 H   0  0  0  0  0  0  0  0  0  0  0  0
  137.8945   70.7014  223.8782 H   0  0  0  0  0  0  0  0  0  0  0  0
  138.9301   72.0757  224.4177 H   0  0  0  0  0  0  0  0  0  0  0  0
  138.9570   70.7450  221.7200 H   0  0  0  0  0  0  0  0  0  0  0  0
  143.5504   71.2615  220.8508 H   0  0  0  0  0  0  0  0  0  0  0  0
  143.0585   71.7107  219.1646 H   0  0  0  0  0  0  0  0  0  0  0  0
  145.4871   70.9091  219.4960 H   0  0  0  0  0  0  0  0  0  0  0  0
  145.2394   72.4548  218.6061 H   0  0  0  0  0  0  0  0  0  0  0  0
  145.9568   72.1584  221.5664 H   0  0  0  0  0  0  0  0  0  0  0  0
  147.0549   72.6919  220.2167 H   0  0  0  0  0  0  0  0  0  0  0  0
  145.6148   74.3734  221.8875 H   0  0  0  0  0  0  0  0  0  0  0  0
  146.2955   74.7795  220.2408 H   0  0  0  0  0  0  0  0  0  0  0  0
  143.7817   75.3377  220.8075 H   0  0  0  0  0  0  0  0  0  0  0  0
  144.2490   74.6584  219.1991 H   0  0  0  0  0  0  0  0  0  0  0  0
  141.4050   77.1523  223.2115 H   0  0  0  0  0  0  0  0  0  0  0  0
  141.3233   77.4090  221.4227 H   0  0  0  0  0  0  0  0  0  0  0  0
  139.6597   78.7264  223.6097 H   0  0  0  0  0  0  0  0  0  0  0  0
  140.6999   79.4996  222.3633 H   0  0  0  0  0  0  0  0  0  0  0  0
  139.1840   78.6020  220.6750 H   0  0  0  0  0  0  0  0  0  0  0  0
  138.4480   79.7120  221.7250 H   0  0  0  0  0  0  0  0  0  0  0  0
  137.1476   78.2012  222.7438 H   0  0  0  0  0  0  0  0  0  0  0  0
  137.3032   77.5147  221.0527 H   0  0  0  0  0  0  0  0  0  0  0  0
  138.2579   76.4352  223.6523 H   0  0  0  0  0  0  0  0  0  0  0  0
  137.7989   75.6069  222.1002 H   0  0  0  0  0  0  0  0  0  0  0  0
  141.2210   72.4592  225.1203 H   0  0  0  0  0  0  0  0  0  0  0  0
  1  2  2  0
  2  3  1  0
  3  4  2  0
  4  5  1  0
  5  6  1  0
  6  7  1  0
  7  8  1  0
  8  9  1  0
  9 10  2  0
 10 11  1  0
 11 12  1  0
 12 13  1  0
 13 14  1  0
 14 15  1  0
 15 16  1  0
 16 17  1  0
 11 18  2  0
 18 19  1  0
 19 20  1  0
 20 21  1  0
 21 22  1  0
 22 23  1  0
 23 24  1  0
 24 25  1  0
 19 26  2  0
  5 27  2  0
 27  1  1  0
 26  9  1  0
 17 12  1  0
 25 20  1  0
  1 28  1  0
  2 29  1  0
  4 30  1  0
  6 31  1  0
  6 32  1  0
  7 33  1  0
  7 34  1  0
  8 35  1  0
 13 36  1  0
 13 37  1  0
 14 38  1  0
 14 39  1  0
 15 40  1  0
 15 41  1  0
 16 42  1  0
 16 43  1  0
 17 44  1  0
 17 45  1  0
 21 46  1  0
 21 47  1  0
 22 48  1  0
 22 49  1  0
 23 50  1  0
 23 51  1  0
 24 52  1  0
 24 53  1  0
 25 54  1  0
 25 55  1  0
 27 56  1  0
M  CHG  1  23   1
M  END
>  <UniqueID>  (13) 
581

>  <SMILES>  (13) 
c1cncc(CCNc2nc(N3CCCCC3)nc(N3CC[NH2+]CC3)n2)c1

>  <Energy>  (13) 
54.83794405914214

>  <Genealogy>  (13) 
c1cncc(CCNc2nc(N3CCCCC3)nc(N3CC[NH2+]CC3)n2)c1 (protonated)
c1cncc(CCNc2nc(N3CCCCC3)nc(N3CC[NH2+]CC3)n2)c1 (3D coordinates assigned)
c1cncc(CCNc2nc(N3CCCCC3)nc(N3CC[NH2+]CC3)n2)c1 (nonaromatic ring conformer: 54.83794405914214 kcal/mol)

>  <smiles>  (13) 
c1cncc(CCNc2nc(N3CCCCC3)nc(N3CCNCC3)n2)c1

>  <score_type>  (13) 
oracle

>  <origin>  (13) 
autodockgpu

>  <m_score__min__energy>  (13) 
-7.7999999999999998

>  <m_primary>  (13) 
energy

>  <meeko>  (13) 
{"free_energy": -7.25, "intermolecular_energy": -9.04, "internal_energy": -0.92, "cluster_size": 9, "cluster_id": 1, "rank_in_cluster": 7}

>  <energy>  (13) 
-7.38

>  <cluster_rmsd>  (13) 
0.12

>  <rmsd>  (13) 
270.54

>  <cluster>  (13) 
3

$$$$
YQRBYBBKMCEKLP-ODCLCHFBNA-O
     RDKit          3D

 56 59  0  0  0  0  0  0  0  0999 V2000
  141.4500   72.1850  227.4060 C   0  0  0  0  0  0  0  0  0  0  0  0
  140.8740   71.3900  228.3990 C   0  0  0  0  0  0  0  0  0  0  0  0
  140.1050   70.3200  228.0570 N   0  0  0  0  0  0  0  0  0  0  0  0
  139.8790   69.9880  226.7570 C   0  0  0  0  0  0  0  0  0  0  0  0
  140.4540   70.7490  225.7260 C   0  0  0  0  0  0  0  0  0  0  0  0
  140.2130   70.3920  224.2840 C   0  0  0  0  0  0  0  0  0  0  0  0
  138.9770   71.1150  223.7420 C   0  0  0  0  0  0  0  0  0  0  0  0
  139.1950   71.5310  222.3580 N   0  0  0  0  0  0  0  0  0  0  0  0
  140.0040   72.6630  222.0080 C   0  0  0  0  0  0  0  0  0  0  0  0
  141.2100   72.4920  221.4100 N   0  0  0  0  0  0  0  0  0  0  0  0
  141.9840   73.5640  221.0910 C   0  0  0  0  0  0  0  0  0  0  0  0
  143.2600   73.3810  220.4450 N   0  0  0  0  0  0  0  0  0  0  0  0
  143.6150   72.0520  219.9180 C   0  0  0  0  0  0  0  0  0  0  0  0
  145.0800   71.9930  219.4710 C   0  0  0  0  0  0  0  0  0  0  0  0
  145.9780   72.6400  220.5290 C   0  0  0  0  0  0  0  0  0  0  0  0
  145.6010   74.1110  220.8080 C   0  0  0  0  0  0  0  0  0  0  0  0
  144.2050   74.4980  220.2910 C   0  0  0  0  0  0  0  0  0  0  0  0
  141.5340   74.8150  221.3750 N   0  0  0  0  0  0  0  0  0  0  0  0
  140.3280   75.0010  221.9750 C   0  0  0  0  0  0  0  0  0  0  0  0
  139.8560   76.3320  222.2750 N   0  0  0  0  0  0  0  0  0  0  0  0
  140.8360   77.4210  222.4050 C   0  0  0  0  0  0  0  0  0  0  0  0
  140.1420   78.7600  222.6660 C   0  0  0  0  0  0  0  0  0  0  0  0
  138.9770   78.8930  221.7850 N   0  0  0  0  0  0  0  0  0  0  0  0
  137.9170   77.9180  222.1170 C   0  0  0  0  0  0  0  0  0  0  0  0
  138.4470   76.5620  222.6390 C   0  0  0  0  0  0  0  0  0  0  0  0
  139.5670   73.9170  222.2870 N   0  0  0  0  0  0  0  0  0  0  0  0
  141.2330   71.8660  226.0630 C   0  0  0  0  0  0  0  0  0  0  0  0
  142.0681   73.0533  227.6781 H   0  0  0  0  0  0  0  0  0  0  0  0
  141.0419   71.6288  229.4596 H   0  0  0  0  0  0  0  0  0  0  0  0
  139.2452   69.1226  226.5132 H   0  0  0  0  0  0  0  0  0  0  0  0
  141.0909   70.6839  223.6890 H   0  0  0  0  0  0  0  0  0  0  0  0
  140.0450   69.3072  224.2136 H   0  0  0  0  0  0  0  0  0  0  0  0
  138.1125   70.4361  223.7843 H   0  0  0  0  0  0  0  0  0  0  0  0
  138.7879   72.0073  224.3568 H   0  0  0  0  0  0  0  0  0  0  0  0
  138.7500   70.9770  221.5950 H   0  0  0  0  0  0  0  0  0  0  0  0
  143.4518   71.3010  220.7050 H   0  0  0  0  0  0  0  0  0  0  0  0
  142.9806   71.8493  219.0425 H   0  0  0  0  0  0  0  0  0  0  0  0
  145.3769   70.9427  219.3344 H   0  0  0  0  0  0  0  0  0  0  0  0
  145.1898   72.5387  218.5222 H   0  0  0  0  0  0  0  0  0  0  0  0
  145.8872   72.0693  221.4650 H   0  0  0  0  0  0  0  0  0  0  0  0
  147.0086   72.6271  220.1446 H   0  0  0  0  0  0  0  0  0  0  0  0
  145.6273   74.2765  221.8952 H   0  0  0  0  0  0  0  0  0  0  0  0
  146.3286   74.7376  220.2715 H   0  0  0  0  0  0  0  0  0  0  0  0
  143.8365   75.3629  220.8620 H   0  0  0  0  0  0  0  0  0  0  0  0
  144.2827   74.7479  219.2226 H   0  0  0  0  0  0  0  0  0  0  0  0
  141.5120   77.1975  223.2435 H   0  0  0  0  0  0  0  0  0  0  0  0
  141.3994   77.4977  221.4633 H   0  0  0  0  0  0  0  0  0  0  0  0
  139.8140   78.8035  223.7150 H   0  0  0  0  0  0  0  0  0  0  0  0
  140.8463   79.5806  222.4649 H   0  0  0  0  0  0  0  0  0  0  0  0
  139.2740   78.7590  220.7890 H   0  0  0  0  0  0  0  0  0  0  0  0
  138.5880   79.8620  221.8800 H   0  0  0  0  0  0  0  0  0  0  0  0
  137.2729   78.3586  222.8922 H   0  0  0  0  0  0  0  0  0  0  0  0
  137.3752   77.7083  221.1830 H   0  0  0  0  0  0  0  0  0  0  0  0
  138.3583   76.5464  223.7353 H   0  0  0  0  0  0  0  0  0  0  0  0
  137.8464   75.7660  222.1747 H   0  0  0  0  0  0  0  0  0  0  0  0
  141.6725   72.4900  225.2709 H   0  0  0  0  0  0  0  0  0  0  0  0
  1  2  2  0
  2  3  1  0
  3  4  2  0
  4  5  1  0
  5  6  1  0
  6  7  1  0
  7  8  1  0
  8  9  1  0
  9 10  2  0
 10 11  1  0
 11 12  1  0
 12 13  1  0
 13 14  1  0
 14 15  1  0
 15 16  1  0
 16 17  1  0
 11 18  2  0
 18 19  1  0
 19 20  1  0
 20 21  1  0
 21 22  1  0
 22 23  1  0
 23 24  1  0
 24 25  1  0
 19 26  2  0
  5 27  2  0
 27  1  1  0
 26  9  1  0
 17 12  1  0
 25 20  1  0
  1 28  1  0
  2 29  1  0
  4 30  1  0
  6 31  1  0
  6 32  1  0
  7 33  1  0
  7 34  1  0
  8 35  1  0
 13 36  1  0
 13 37  1  0
 14 38  1  0
 14 39  1  0
 15 40  1  0
 15 41  1  0
 16 42  1  0
 16 43  1  0
 17 44  1  0
 17 45  1  0
 21 46  1  0
 21 47  1  0
 22 48  1  0
 22 49  1  0
 23 50  1  0
 23 51  1  0
 24 52  1  0
 24 53  1  0
 25 54  1  0
 25 55  1  0
 27 56  1  0
M  CHG  1  23   1
M  END
>  <UniqueID>  (14) 
581

>  <SMILES>  (14) 
c1cncc(CCNc2nc(N3CCCCC3)nc(N3CC[NH2+]CC3)n2)c1

>  <Energy>  (14) 
54.83794405914214

>  <Genealogy>  (14) 
c1cncc(CCNc2nc(N3CCCCC3)nc(N3CC[NH2+]CC3)n2)c1 (protonated)
c1cncc(CCNc2nc(N3CCCCC3)nc(N3CC[NH2+]CC3)n2)c1 (3D coordinates assigned)
c1cncc(CCNc2nc(N3CCCCC3)nc(N3CC[NH2+]CC3)n2)c1 (nonaromatic ring conformer: 54.83794405914214 kcal/mol)

>  <smiles>  (14) 
c1cncc(CCNc2nc(N3CCCCC3)nc(N3CCNCC3)n2)c1

>  <score_type>  (14) 
oracle

>  <origin>  (14) 
autodockgpu

>  <m_score__min__energy>  (14) 
-7.7999999999999998

>  <m_primary>  (14) 
energy

>  <meeko>  (14) 
{"free_energy": -7.16, "intermolecular_energy": -8.95, "internal_energy": -0.93, "cluster_size": 9, "cluster_id": 1, "rank_in_cluster": 9}

>  <energy>  (14) 
-7.37

>  <cluster_rmsd>  (14) 
0.1

>  <rmsd>  (14) 
270.56

>  <cluster>  (14) 
3

$$$$
YQRBYBBKMCEKLP-ODCLCHFBNA-O
     RDKit          3D

 56 59  0  0  0  0  0  0  0  0999 V2000
  140.9770   68.3610  226.8980 C   0  0  0  0  0  0  0  0  0  0  0  0
  140.0710   67.3860  226.4760 C   0  0  0  0  0  0  0  0  0  0  0  0
  139.2010   67.6540  225.4630 N   0  0  0  0  0  0  0  0  0  0  0  0
  139.1880   68.8600  224.8320 C   0  0  0  0  0  0  0  0  0  0  0  0
  140.0940   69.8630  225.2120 C   0  0  0  0  0  0  0  0  0  0  0  0
  140.0910   71.2000  224.5220 C   0  0  0  0  0  0  0  0  0  0  0  0
  139.2120   71.1660  223.2690 C   0  0  0  0  0  0  0  0  0  0  0  0
  139.0760   72.5070  222.7030 N   0  0  0  0  0  0  0  0  0  0  0  0
  140.1760   73.2140  222.1150 C   0  0  0  0  0  0  0  0  0  0  0  0
  141.2690   72.5440  221.6670 N   0  0  0  0  0  0  0  0  0  0  0  0
  142.3180   73.2160  221.1230 C   0  0  0  0  0  0  0  0  0  0  0  0
  143.4720   72.5030  220.6350 N   0  0  0  0  0  0  0  0  0  0  0  0
  144.7930   73.1540  220.6840 C   0  0  0  0  0  0  0  0  0  0  0  0
  145.8520   72.3440  219.9270 C   0  0  0  0  0  0  0  0  0  0  0  0
  145.2960   71.8850  218.5760 C   0  0  0  0  0  0  0  0  0  0  0  0
  144.0210   71.0270  218.7200 C   0  0  0  0  0  0  0  0  0  0  0  0
  143.3570   71.1360  220.1040 C   0  0  0  0  0  0  0  0  0  0  0  0
  142.2620   74.5710  221.0280 N   0  0  0  0  0  0  0  0  0  0  0  0
  141.1750   75.2560  221.4760 C   0  0  0  0  0  0  0  0  0  0  0  0
  141.1220   76.6950  221.3740 N   0  0  0  0  0  0  0  0  0  0  0  0
  141.0630   77.4930  222.6070 C   0  0  0  0  0  0  0  0  0  0  0  0
  141.0700   78.9920  222.2960 C   0  0  0  0  0  0  0  0  0  0  0  0
  142.0680   79.2770  221.2600 N   0  0  0  0  0  0  0  0  0  0  0  0
  141.6980   78.6850  219.9570 C   0  0  0  0  0  0  0  0  0  0  0  0
  140.9320   77.3460  220.0650 C   0  0  0  0  0  0  0  0  0  0  0  0
  140.1340   74.5670  222.0170 N   0  0  0  0  0  0  0  0  0  0  0  0
  140.9840   69.6070  226.2670 C   0  0  0  0  0  0  0  0  0  0  0  0
  141.6781   68.1500  227.7190 H   0  0  0  0  0  0  0  0  0  0  0  0
  140.0599   66.3996  226.9626 H   0  0  0  0  0  0  0  0  0  0  0  0
  138.4667   69.0490  224.0233 H   0  0  0  0  0  0  0  0  0  0  0  0
  139.7023   71.9616  225.2140 H   0  0  0  0  0  0  0  0  0  0  0  0
  141.1211   71.4432  224.2223 H   0  0  0  0  0  0  0  0  0  0  0  0
  139.6721   70.5026  222.5219 H   0  0  0  0  0  0  0  0  0  0  0  0
  138.2144   70.7929  223.5440 H   0  0  0  0  0  0  0  0  0  0  0  0
  138.1390   72.9620  222.7210 H   0  0  0  0  0  0  0  0  0  0  0  0
  144.7155   74.1526  220.2293 H   0  0  0  0  0  0  0  0  0  0  0  0
  145.1024   73.2237  221.7373 H   0  0  0  0  0  0  0  0  0  0  0  0
  146.7401   72.9715  219.7609 H   0  0  0  0  0  0  0  0  0  0  0  0
  146.1244   71.4608  220.5234 H   0  0  0  0  0  0  0  0  0  0  0  0
  145.0567   72.7735  217.9732 H   0  0  0  0  0  0  0  0  0  0  0  0
  146.0640   71.2626  218.0935 H   0  0  0  0  0  0  0  0  0  0  0  0
  143.2955   71.3522  217.9598 H   0  0  0  0  0  0  0  0  0  0  0  0
  144.3226   69.9773  218.5891 H   0  0  0  0  0  0  0  0  0  0  0  0
  142.2927   70.8727  220.0146 H   0  0  0  0  0  0  0  0  0  0  0  0
  143.8666   70.4470  220.7936 H   0  0  0  0  0  0  0  0  0  0  0  0
  140.1407   77.2438  223.1521 H   0  0  0  0  0  0  0  0  0  0  0  0
  141.9484   77.2591  223.2164 H   0  0  0  0  0  0  0  0  0  0  0  0
  140.0750   79.2960  221.9388 H   0  0  0  0  0  0  0  0  0  0  0  0
  141.3219   79.5523  223.2085 H   0  0  0  0  0  0  0  0  0  0  0  0
  143.0000   78.9030  221.5590 H   0  0  0  0  0  0  0  0  0  0  0  0
  142.1550   80.3150  221.1480 H   0  0  0  0  0  0  0  0  0  0  0  0
  141.0624   79.4039  219.4193 H   0  0  0  0  0  0  0  0  0  0  0  0
  142.6384   78.4700  219.4285 H   0  0  0  0  0  0  0  0  0  0  0  0
  139.8591   77.5398  219.9190 H   0  0  0  0  0  0  0  0  0  0  0  0
  141.3276   76.6696  219.2930 H   0  0  0  0  0  0  0  0  0  0  0  0
  141.6862   70.3870  226.5964 H   0  0  0  0  0  0  0  0  0  0  0  0
  1  2  2  0
  2  3  1  0
  3  4  2  0
  4  5  1  0
  5  6  1  0
  6  7  1  0
  7  8  1  0
  8  9  1  0
  9 10  2  0
 10 11  1  0
 11 12  1  0
 12 13  1  0
 13 14  1  0
 14 15  1  0
 15 16  1  0
 16 17  1  0
 11 18  2  0
 18 19  1  0
 19 20  1  0
 20 21  1  0
 21 22  1  0
 22 23  1  0
 23 24  1  0
 24 25  1  0
 19 26  2  0
  5 27  2  0
 27  1  1  0
 26  9  1  0
 17 12  1  0
 25 20  1  0
  1 28  1  0
  2 29  1  0
  4 30  1  0
  6 31  1  0
  6 32  1  0
  7 33  1  0
  7 34  1  0
  8 35  1  0
 13 36  1  0
 13 37  1  0
 14 38  1  0
 14 39  1  0
 15 40  1  0
 15 41  1  0
 16 42  1  0
 16 43  1  0
 17 44  1  0
 17 45  1  0
 21 46  1  0
 21 47  1  0
 22 48  1  0
 22 49  1  0
 23 50  1  0
 23 51  1  0
 24 52  1  0
 24 53  1  0
 25 54  1  0
 25 55  1  0
 27 56  1  0
M  CHG  1  23   1
M  END
>  <UniqueID>  (15) 
581

>  <SMILES>  (15) 
c1cncc(CCNc2nc(N3CCCCC3)nc(N3CC[NH2+]CC3)n2)c1

>  <Energy>  (15) 
54.83794405914214

>  <Genealogy>  (15) 
c1cncc(CCNc2nc(N3CCCCC3)nc(N3CC[NH2+]CC3)n2)c1 (protonated)
c1cncc(CCNc2nc(N3CCCCC3)nc(N3CC[NH2+]CC3)n2)c1 (3D coordinates assigned)
c1cncc(CCNc2nc(N3CCCCC3)nc(N3CC[NH2+]CC3)n2)c1 (nonaromatic ring conformer: 54.83794405914214 kcal/mol)

>  <smiles>  (15) 
c1cncc(CCNc2nc(N3CCCCC3)nc(N3CCNCC3)n2)c1

>  <score_type>  (15) 
oracle

>  <origin>  (15) 
autodockgpu

>  <m_score__min__energy>  (15) 
-7.7999999999999998

>  <m_primary>  (15) 
energy

>  <meeko>  (15) 
{"free_energy": -7.79, "intermolecular_energy": -9.58, "internal_energy": -0.83, "cluster_size": 9, "cluster_id": 1, "rank_in_cluster": 2}

>  <energy>  (15) 
-7.19

>  <cluster_rmsd>  (15) 
0.0

>  <rmsd>  (15) 
270.31

>  <cluster>  (15) 
4

$$$$
YQRBYBBKMCEKLP-ODCLCHFBNA-O
     RDKit          3D

 56 59  0  0  0  0  0  0  0  0999 V2000
  140.4620   72.0400  221.8800 C   0  0  0  0  0  0  0  0  0  0  0  0
  139.5900   73.0270  222.3450 C   0  0  0  0  0  0  0  0  0  0  0  0
  139.9010   74.3430  222.1870 N   0  0  0  0  0  0  0  0  0  0  0  0
  141.0500   74.7370  221.5740 C   0  0  0  0  0  0  0  0  0  0  0  0
  141.9470   73.7790  221.0750 C   0  0  0  0  0  0  0  0  0  0  0  0
  143.2200   74.2020  220.3930 C   0  0  0  0  0  0  0  0  0  0  0  0
  142.9800   74.4720  218.9060 C   0  0  0  0  0  0  0  0  0  0  0  0
  143.5770   75.7480  218.5160 N   0  0  0  0  0  0  0  0  0  0  0  0
  142.9790   77.0120  218.8320 C   0  0  0  0  0  0  0  0  0  0  0  0
  142.4290   77.2300  220.0540 N   0  0  0  0  0  0  0  0  0  0  0  0
  141.8480   78.4240  220.3490 C   0  0  0  0  0  0  0  0  0  0  0  0
  141.2760   78.6590  221.6510 N   0  0  0  0  0  0  0  0  0  0  0  0
  139.8240   78.4990  221.8370 C   0  0  0  0  0  0  0  0  0  0  0  0
  139.3700   79.0010  223.2130 C   0  0  0  0  0  0  0  0  0  0  0  0
  140.0160   80.3560  223.5170 C   0  0  0  0  0  0  0  0  0  0  0  0
  141.5590   80.2970  223.4910 C   0  0  0  0  0  0  0  0  0  0  0  0
  142.1160   79.0420  222.7970 C   0  0  0  0  0  0  0  0  0  0  0  0
  141.8270   79.4020  219.4050 N   0  0  0  0  0  0  0  0  0  0  0  0
  142.3710   79.1970  218.1770 C   0  0  0  0  0  0  0  0  0  0  0  0
  142.3430   80.2400  217.1790 N   0  0  0  0  0  0  0  0  0  0  0  0
  142.9810   81.5300  217.4800 C   0  0  0  0  0  0  0  0  0  0  0  0
  142.8970   82.4810  216.2840 C   0  0  0  0  0  0  0  0  0  0  0  0
  143.2120   81.7530  215.0500 N   0  0  0  0  0  0  0  0  0  0  0  0
  142.1820   80.7440  214.7250 C   0  0  0  0  0  0  0  0  0  0  0  0
  141.5240   80.0900  215.9630 C   0  0  0  0  0  0  0  0  0  0  0  0
  142.9480   77.9970  217.8990 N   0  0  0  0  0  0  0  0  0  0  0  0
  141.6480   72.4190  221.2480 C   0  0  0  0  0  0  0  0  0  0  0  0
  140.2171   70.9756  222.0103 H   0  0  0  0  0  0  0  0  0  0  0  0
  138.6502   72.7405  222.8398 H   0  0  0  0  0  0  0  0  0  0  0  0
  141.2767   75.8083  221.4691 H   0  0  0  0  0  0  0  0  0  0  0  0
  143.5959   75.1195  220.8694 H   0  0  0  0  0  0  0  0  0  0  0  0
  143.9559   73.3900  220.4881 H   0  0  0  0  0  0  0  0  0  0  0  0
  143.4333   73.6638  218.3133 H   0  0  0  0  0  0  0  0  0  0  0  0
  141.8964   74.5144  218.7218 H   0  0  0  0  0  0  0  0  0  0  0  0
  144.4790   75.7360  217.9930 H   0  0  0  0  0  0  0  0  0  0  0  0
  139.2995   79.0715  221.0578 H   0  0  0  0  0  0  0  0  0  0  0  0
  139.5852   77.4275  221.7669 H   0  0  0  0  0  0  0  0  0  0  0  0
  138.2754   79.1103  223.2177 H   0  0  0  0  0  0  0  0  0  0  0  0
  139.6764   78.2752  223.9807 H   0  0  0  0  0  0  0  0  0  0  0  0
  139.6785   81.0840  222.7646 H   0  0  0  0  0  0  0  0  0  0  0  0
  139.7107   80.6506  224.5319 H   0  0  0  0  0  0  0  0  0  0  0  0
  141.9319   81.1838  222.9575 H   0  0  0  0  0  0  0  0  0  0  0  0
  141.8981   80.2644  224.5369 H   0  0  0  0  0  0  0  0  0  0  0  0
  143.1363   79.2496  222.4422 H   0  0  0  0  0  0  0  0  0  0  0  0
  142.1219   78.2136  223.5207 H   0  0  0  0  0  0  0  0  0  0  0  0
  142.4726   81.9897  218.3404 H   0  0  0  0  0  0  0  0  0  0  0  0
  144.0419   81.3493  217.7077 H   0  0  0  0  0  0  0  0  0  0  0  0
  141.8795   82.8934  216.2156 H   0  0  0  0  0  0  0  0  0  0  0  0
  143.6193   83.2997  216.4183 H   0  0  0  0  0  0  0  0  0  0  0  0
  144.1420   81.2810  215.1500 H   0  0  0  0  0  0  0  0  0  0  0  0
  143.2780   82.4370  214.2590 H   0  0  0  0  0  0  0  0  0  0  0  0
  141.3942   81.2331  214.1333 H   0  0  0  0  0  0  0  0  0  0  0  0
  142.6901   79.9389  214.1740 H   0  0  0  0  0  0  0  0  0  0  0  0
  140.5461   80.5635  216.1350 H   0  0  0  0  0  0  0  0  0  0  0  0
  141.4203   79.0141  215.7589 H   0  0  0  0  0  0  0  0  0  0  0  0
  142.3478   71.6515  220.8858 H   0  0  0  0  0  0  0  0  0  0  0  0
  1  2  2  0
  2  3  1  0
  3  4  2  0
  4  5  1  0
  5  6  1  0
  6  7  1  0
  7  8  1  0
  8  9  1  0
  9 10  2  0
 10 11  1  0
 11 12  1  0
 12 13  1  0
 13 14  1  0
 14 15  1  0
 15 16  1  0
 16 17  1  0
 11 18  2  0
 18 19  1  0
 19 20  1  0
 20 21  1  0
 21 22  1  0
 22 23  1  0
 23 24  1  0
 24 25  1  0
 19 26  2  0
  5 27  2  0
 27  1  1  0
 26  9  1  0
 17 12  1  0
 25 20  1  0
  1 28  1  0
  2 29  1  0
  4 30  1  0
  6 31  1  0
  6 32  1  0
  7 33  1  0
  7 34  1  0
  8 35  1  0
 13 36  1  0
 13 37  1  0
 14 38  1  0
 14 39  1  0
 15 40  1  0
 15 41  1  0
 16 42  1  0
 16 43  1  0
 17 44  1  0
 17 45  1  0
 21 46  1  0
 21 47  1  0
 22 48  1  0
 22 49  1  0
 23 50  1  0
 23 51  1  0
 24 52  1  0
 24 53  1  0
 25 54  1  0
 25 55  1  0
 27 56  1  0
M  CHG  1  23   1
M  END
>  <UniqueID>  (16) 
581

>  <SMILES>  (16) 
c1cncc(CCNc2nc(N3CCCCC3)nc(N3CC[NH2+]CC3)n2)c1

>  <Energy>  (16) 
54.83794405914214

>  <Genealogy>  (16) 
c1cncc(CCNc2nc(N3CCCCC3)nc(N3CC[NH2+]CC3)n2)c1 (protonated)
c1cncc(CCNc2nc(N3CCCCC3)nc(N3CC[NH2+]CC3)n2)c1 (3D coordinates assigned)
c1cncc(CCNc2nc(N3CCCCC3)nc(N3CC[NH2+]CC3)n2)c1 (nonaromatic ring conformer: 54.83794405914214 kcal/mol)

>  <smiles>  (16) 
c1cncc(CCNc2nc(N3CCCCC3)nc(N3CCNCC3)n2)c1

>  <score_type>  (16) 
oracle

>  <origin>  (16) 
autodockgpu

>  <m_score__min__energy>  (16) 
-7.7999999999999998

>  <m_primary>  (16) 
energy

>  <meeko>  (16) 
{"free_energy": -7.19, "intermolecular_energy": -8.98, "internal_energy": -1.16, "cluster_size": 5, "cluster_id": 4, "rank_in_cluster": 1}

>  <energy>  (16) 
-7.19

>  <cluster_rmsd>  (16) 
0.03

>  <rmsd>  (16) 
270.31

>  <cluster>  (16) 
4

$$$$
YQRBYBBKMCEKLP-ODCLCHFBNA-O
     RDKit          3D

 56 59  0  0  0  0  0  0  0  0999 V2000
  145.4850   74.1780  220.8000 C   0  0  0  0  0  0  0  0  0  0  0  0
  146.3270   73.3850  220.0170 C   0  0  0  0  0  0  0  0  0  0  0  0
  145.8200   72.3370  219.3120 N   0  0  0  0  0  0  0  0  0  0  0  0
  144.4930   72.0320  219.3400 C   0  0  0  0  0  0  0  0  0  0  0  0
  143.6070   72.8130  220.1000 C   0  0  0  0  0  0  0  0  0  0  0  0
  142.1380   72.4870  220.1380 C   0  0  0  0  0  0  0  0  0  0  0  0
  141.6220   72.4680  221.5790 C   0  0  0  0  0  0  0  0  0  0  0  0
  140.6430   73.5340  221.7850 N   0  0  0  0  0  0  0  0  0  0  0  0
  140.8880   74.8940  221.4010 C   0  0  0  0  0  0  0  0  0  0  0  0
  140.7310   75.9030  222.2950 N   0  0  0  0  0  0  0  0  0  0  0  0
  140.9480   77.1950  221.9270 C   0  0  0  0  0  0  0  0  0  0  0  0
  140.7940   78.2650  222.8800 N   0  0  0  0  0  0  0  0  0  0  0  0
  139.5270   79.0160  222.9190 C   0  0  0  0  0  0  0  0  0  0  0  0
  139.6250   80.2460  223.8290 C   0  0  0  0  0  0  0  0  0  0  0  0
  140.9310   80.9980  223.5570 C   0  0  0  0  0  0  0  0  0  0  0  0
  142.1800   80.1160  223.7730 C   0  0  0  0  0  0  0  0  0  0  0  0
  141.8700   78.6100  223.8220 C   0  0  0  0  0  0  0  0  0  0  0  0
  141.3290   77.4650  220.6500 N   0  0  0  0  0  0  0  0  0  0  0  0
  141.4880   76.4640  219.7440 C   0  0  0  0  0  0  0  0  0  0  0  0
  141.8910   76.7590  218.3890 N   0  0  0  0  0  0  0  0  0  0  0  0
  141.2650   77.8920  217.6920 C   0  0  0  0  0  0  0  0  0  0  0  0
  141.8610   78.0790  216.2940 C   0  0  0  0  0  0  0  0  0  0  0  0
  143.3200   77.9440  216.3580 N   0  0  0  0  0  0  0  0  0  0  0  0
  143.7350   76.5670  216.6970 C   0  0  0  0  0  0  0  0  0  0  0  0
  142.7630   75.8300  217.6490 C   0  0  0  0  0  0  0  0  0  0  0  0
  141.2660   75.1780  220.1290 N   0  0  0  0  0  0  0  0  0  0  0  0
  144.1200   73.8850  220.8460 C   0  0  0  0  0  0  0  0  0  0  0  0
  145.8921   75.0235  221.3738 H   0  0  0  0  0  0  0  0  0  0  0  0
  147.4031   73.6082  219.9700 H   0  0  0  0  0  0  0  0  0  0  0  0
  144.1146   71.1729  218.7666 H   0  0  0  0  0  0  0  0  0  0  0  0
  141.5851   73.2474  219.5670 H   0  0  0  0  0  0  0  0  0  0  0  0
  141.9866   71.4910  219.6963 H   0  0  0  0  0  0  0  0  0  0  0  0
  141.1475   71.4964  221.7811 H   0  0  0  0  0  0  0  0  0  0  0  0
  142.4691   72.6251  222.2629 H   0  0  0  0  0  0  0  0  0  0  0  0
  139.7280   73.2930  222.2220 H   0  0  0  0  0  0  0  0  0  0  0  0
  139.2763   79.3455  221.8999 H   0  0  0  0  0  0  0  0  0  0  0  0
  138.7473   78.3527  223.3216 H   0  0  0  0  0  0  0  0  0  0  0  0
  138.7730   80.9133  223.6321 H   0  0  0  0  0  0  0  0  0  0  0  0
  139.6092   79.9195  224.8793 H   0  0  0  0  0  0  0  0  0  0  0  0
  140.9243   81.3502  222.5149 H   0  0  0  0  0  0  0  0  0  0  0  0
  140.9875   81.8355  224.2679 H   0  0  0  0  0  0  0  0  0  0  0  0
  142.8824   80.2997  222.9466 H   0  0  0  0  0  0  0  0  0  0  0  0
  142.6030   80.3900  224.7507 H   0  0  0  0  0  0  0  0  0  0  0  0
  142.7765   78.0468  223.5554 H   0  0  0  0  0  0  0  0  0  0  0  0
  141.5426   78.3513  224.8398 H   0  0  0  0  0  0  0  0  0  0  0  0
  140.1851   77.7042  217.5996 H   0  0  0  0  0  0  0  0  0  0  0  0
  141.4509   78.8059  218.2753 H   0  0  0  0  0  0  0  0  0  0  0  0
  141.4522   77.3147  215.6167 H   0  0  0  0  0  0  0  0  0  0  0  0
  141.6033   79.0803  215.9185 H   0  0  0  0  0  0  0  0  0  0  0  0
  143.7030   78.6080  217.0720 H   0  0  0  0  0  0  0  0  0  0  0  0
  143.7260   78.2000  215.4260 H   0  0  0  0  0  0  0  0  0  0  0  0
  143.8092   75.9891  215.7640 H   0  0  0  0  0  0  0  0  0  0  0  0
  144.6966   76.6467  217.2253 H   0  0  0  0  0  0  0  0  0  0  0  0
  142.1332   75.1513  217.0551 H   0  0  0  0  0  0  0  0  0  0  0  0
  143.3669   75.2783  218.3845 H   0  0  0  0  0  0  0  0  0  0  0  0
  143.4472   74.4947  221.4670 H   0  0  0  0  0  0  0  0  0  0  0  0
  1  2  2  0
  2  3  1  0
  3  4  2  0
  4  5  1  0
  5  6  1  0
  6  7  1  0
  7  8  1  0
  8  9  1  0
  9 10  2  0
 10 11  1  0
 11 12  1  0
 12 13  1  0
 13 14  1  0
 14 15  1  0
 15 16  1  0
 16 17  1  0
 11 18  2  0
 18 19  1  0
 19 20  1  0
 20 21  1  0
 21 22  1  0
 22 23  1  0
 23 24  1  0
 24 25  1  0
 19 26  2  0
  5 27  2  0
 27  1  1  0
 26  9  1  0
 17 12  1  0
 25 20  1  0
  1 28  1  0
  2 29  1  0
  4 30  1  0
  6 31  1  0
  6 32  1  0
  7 33  1  0
  7 34  1  0
  8 35  1  0
 13 36  1  0
 13 37  1  0
 14 38  1  0
 14 39  1  0
 15 40  1  0
 15 41  1  0
 16 42  1  0
 16 43  1  0
 17 44  1  0
 17 45  1  0
 21 46  1  0
 21 47  1  0
 22 48  1  0
 22 49  1  0
 23 50  1  0
 23 51  1  0
 24 52  1  0
 24 53  1  0
 25 54  1  0
 25 55  1  0
 27 56  1  0
M  CHG  1  23   1
M  END
>  <UniqueID>  (17) 
581

>  <SMILES>  (17) 
c1cncc(CCNc2nc(N3CCCCC3)nc(N3CC[NH2+]CC3)n2)c1

>  <Energy>  (17) 
54.83794405914214

>  <Genealogy>  (17) 
c1cncc(CCNc2nc(N3CCCCC3)nc(N3CC[NH2+]CC3)n2)c1 (protonated)
c1cncc(CCNc2nc(N3CCCCC3)nc(N3CC[NH2+]CC3)n2)c1 (3D coordinates assigned)
c1cncc(CCNc2nc(N3CCCCC3)nc(N3CC[NH2+]CC3)n2)c1 (nonaromatic ring conformer: 54.83794405914214 kcal/mol)

>  <smiles>  (17) 
c1cncc(CCNc2nc(N3CCCCC3)nc(N3CCNCC3)n2)c1

>  <score_type>  (17) 
oracle

>  <origin>  (17) 
autodockgpu

>  <m_score__min__energy>  (17) 
-7.7999999999999998

>  <m_primary>  (17) 
energy

>  <meeko>  (17) 
{"free_energy": -7.42, "intermolecular_energy": -9.21, "internal_energy": -1.19, "cluster_size": 4, "cluster_id": 3, "rank_in_cluster": 2}

>  <energy>  (17) 
-7.17

>  <cluster_rmsd>  (17) 
0.07

>  <rmsd>  (17) 
270.29

>  <cluster>  (17) 
4

$$$$
YQRBYBBKMCEKLP-ODCLCHFBNA-O
     RDKit          3D

 56 59  0  0  0  0  0  0  0  0999 V2000
  145.4740   74.1870  220.8210 C   0  0  0  0  0  0  0  0  0  0  0  0
  146.3270   73.4030  220.0410 C   0  0  0  0  0  0  0  0  0  0  0  0
  145.8310   72.3580  219.3240 N   0  0  0  0  0  0  0  0  0  0  0  0
  144.5060   72.0470  219.3370 C   0  0  0  0  0  0  0  0  0  0  0  0
  143.6090   72.8200  220.0930 C   0  0  0  0  0  0  0  0  0  0  0  0
  142.1410   72.4880  220.1140 C   0  0  0  0  0  0  0  0  0  0  0  0
  141.6110   72.4500  221.5490 C   0  0  0  0  0  0  0  0  0  0  0  0
  140.6290   73.5130  221.7600 N   0  0  0  0  0  0  0  0  0  0  0  0
  140.8670   74.8740  221.3760 C   0  0  0  0  0  0  0  0  0  0  0  0
  140.6960   75.8830  222.2680 N   0  0  0  0  0  0  0  0  0  0  0  0
  140.9070   77.1760  221.9010 C   0  0  0  0  0  0  0  0  0  0  0  0
  140.7360   78.2450  222.8520 N   0  0  0  0  0  0  0  0  0  0  0  0
  139.4470   78.9550  222.9110 C   0  0  0  0  0  0  0  0  0  0  0  0
  139.5230   80.1930  223.8140 C   0  0  0  0  0  0  0  0  0  0  0  0
  140.7980   80.9850  223.5120 C   0  0  0  0  0  0  0  0  0  0  0  0
  142.0790   80.1460  223.7090 C   0  0  0  0  0  0  0  0  0  0  0  0
  141.8190   78.6300  223.7710 C   0  0  0  0  0  0  0  0  0  0  0  0
  141.2970   77.4480  220.6270 N   0  0  0  0  0  0  0  0  0  0  0  0
  141.4700   76.4480  219.7230 C   0  0  0  0  0  0  0  0  0  0  0  0
  141.8830   76.7440  218.3720 N   0  0  0  0  0  0  0  0  0  0  0  0
  141.2700   77.8840  217.6750 C   0  0  0  0  0  0  0  0  0  0  0  0
  141.8750   78.0710  216.2820 C   0  0  0  0  0  0  0  0  0  0  0  0
  143.3330   77.9250  216.3530 N   0  0  0  0  0  0  0  0  0  0  0  0
  143.7350   76.5430  216.6890 C   0  0  0  0  0  0  0  0  0  0  0  0
  142.7520   75.8110  217.6330 C   0  0  0  0  0  0  0  0  0  0  0  0
  141.2550   75.1600  220.1080 N   0  0  0  0  0  0  0  0  0  0  0  0
  144.1090   73.8890  220.8510 C   0  0  0  0  0  0  0  0  0  0  0  0
  145.8722   75.0297  221.4052 H   0  0  0  0  0  0  0  0  0  0  0  0
  147.4026   73.6308  220.0061 H   0  0  0  0  0  0  0  0  0  0  0  0
  144.1371   71.1896  218.7550 H   0  0  0  0  0  0  0  0  0  0  0  0
  141.5905   73.2529  219.5467 H   0  0  0  0  0  0  0  0  0  0  0  0
  141.9981   71.4964  219.6598 H   0  0  0  0  0  0  0  0  0  0  0  0
  141.1351   71.4756  221.7336 H   0  0  0  0  0  0  0  0  0  0  0  0
  142.4514   72.5988  222.2430 H   0  0  0  0  0  0  0  0  0  0  0  0
  139.7160   73.2670  222.1990 H   0  0  0  0  0  0  0  0  0  0  0  0
  139.1671   79.2711  221.8952 H   0  0  0  0  0  0  0  0  0  0  0  0
  138.6963   78.2694  223.3309 H   0  0  0  0  0  0  0  0  0  0  0  0
  138.6460   80.8313  223.6313 H   0  0  0  0  0  0  0  0  0  0  0  0
  139.5385   79.8718  224.8659 H   0  0  0  0  0  0  0  0  0  0  0  0
  140.7597   81.3296  222.4681 H   0  0  0  0  0  0  0  0  0  0  0  0
  140.8408   81.8287  224.2165 H   0  0  0  0  0  0  0  0  0  0  0  0
  142.7597   80.3481  222.8689 H   0  0  0  0  0  0  0  0  0  0  0  0
  142.5110   80.4392  224.6772 H   0  0  0  0  0  0  0  0  0  0  0  0
  142.7379   78.0952  223.4889 H   0  0  0  0  0  0  0  0  0  0  0  0
  141.5204   78.3662  224.7963 H   0  0  0  0  0  0  0  0  0  0  0  0
  140.1892   77.7049  217.5757 H   0  0  0  0  0  0  0  0  0  0  0  0
  141.4599   78.7945  218.2624 H   0  0  0  0  0  0  0  0  0  0  0  0
  141.4642   77.3120  215.6000 H   0  0  0  0  0  0  0  0  0  0  0  0
  141.6270   79.0756  215.9088 H   0  0  0  0  0  0  0  0  0  0  0  0
  143.7170   78.5840  217.0710 H   0  0  0  0  0  0  0  0  0  0  0  0
  143.7450   78.1810  215.4240 H   0  0  0  0  0  0  0  0  0  0  0  0
  143.8092   75.9679  215.7542 H   0  0  0  0  0  0  0  0  0  0  0  0
  144.6945   76.6126  217.2224 H   0  0  0  0  0  0  0  0  0  0  0  0
  142.1201   75.1395  217.0332 H   0  0  0  0  0  0  0  0  0  0  0  0
  143.3477   75.2524  218.3699 H   0  0  0  0  0  0  0  0  0  0  0  0
  143.4273   74.4923  221.4685 H   0  0  0  0  0  0  0  0  0  0  0  0
  1  2  2  0
  2  3  1  0
  3  4  2  0
  4  5  1  0
  5  6  1  0
  6  7  1  0
  7  8  1  0
  8  9  1  0
  9 10  2  0
 10 11  1  0
 11 12  1  0
 12 13  1  0
 13 14  1  0
 14 15  1  0
 15 16  1  0
 16 17  1  0
 11 18  2  0
 18 19  1  0
 19 20  1  0
 20 21  1  0
 21 22  1  0
 22 23  1  0
 23 24  1  0
 24 25  1  0
 19 26  2  0
  5 27  2  0
 27  1  1  0
 26  9  1  0
 17 12  1  0
 25 20  1  0
  1 28  1  0
  2 29  1  0
  4 30  1  0
  6 31  1  0
  6 32  1  0
  7 33  1  0
  7 34  1  0
  8 35  1  0
 13 36  1  0
 13 37  1  0
 14 38  1  0
 14 39  1  0
 15 40  1  0
 15 41  1  0
 16 42  1  0
 16 43  1  0
 17 44  1  0
 17 45  1  0
 21 46  1  0
 21 47  1  0
 22 48  1  0
 22 49  1  0
 23 50  1  0
 23 51  1  0
 24 52  1  0
 24 53  1  0
 25 54  1  0
 25 55  1  0
 27 56  1  0
M  CHG  1  23   1
M  END
>  <UniqueID>  (18) 
581

>  <SMILES>  (18) 
c1cncc(CCNc2nc(N3CCCCC3)nc(N3CC[NH2+]CC3)n2)c1

>  <Energy>  (18) 
54.83794405914214

>  <Genealogy>  (18) 
c1cncc(CCNc2nc(N3CCCCC3)nc(N3CC[NH2+]CC3)n2)c1 (protonated)
c1cncc(CCNc2nc(N3CCCCC3)nc(N3CC[NH2+]CC3)n2)c1 (3D coordinates assigned)
c1cncc(CCNc2nc(N3CCCCC3)nc(N3CC[NH2+]CC3)n2)c1 (nonaromatic ring conformer: 54.83794405914214 kcal/mol)

>  <smiles>  (18) 
c1cncc(CCNc2nc(N3CCCCC3)nc(N3CCNCC3)n2)c1

>  <score_type>  (18) 
oracle

>  <origin>  (18) 
autodockgpu

>  <m_score__min__energy>  (18) 
-7.7999999999999998

>  <m_primary>  (18) 
energy

>  <meeko>  (18) 
{"free_energy": -7.42, "intermolecular_energy": -9.21, "internal_energy": -1.17, "cluster_size": 4, "cluster_id": 3, "rank_in_cluster": 1}

>  <energy>  (18) 
-7.02

>  <cluster_rmsd>  (18) 
1.11

>  <rmsd>  (18) 
270.4

>  <cluster>  (18) 
4

$$$$
YQRBYBBKMCEKLP-ODCLCHFBNA-O
     RDKit          3D

 56 59  0  0  0  0  0  0  0  0999 V2000
  140.7230   68.5380  227.1470 C   0  0  0  0  0  0  0  0  0  0  0  0
  139.9030   67.5170  226.6630 C   0  0  0  0  0  0  0  0  0  0  0  0
  139.2150   67.6840  225.5000 N   0  0  0  0  0  0  0  0  0  0  0  0
  139.3050   68.8330  224.7760 C   0  0  0  0  0  0  0  0  0  0  0  0
  140.1320   69.8800  225.2160 C   0  0  0  0  0  0  0  0  0  0  0  0
  140.2410   71.1550  224.4240 C   0  0  0  0  0  0  0  0  0  0  0  0
  139.2350   71.1690  223.2700 C   0  0  0  0  0  0  0  0  0  0  0  0
  139.1050   72.5180  222.7220 N   0  0  0  0  0  0  0  0  0  0  0  0
  140.1980   73.2130  222.1080 C   0  0  0  0  0  0  0  0  0  0  0  0
  141.2740   72.5320  221.6390 N   0  0  0  0  0  0  0  0  0  0  0  0
  142.3180   73.1920  221.0700 C   0  0  0  0  0  0  0  0  0  0  0  0
  143.4550   72.4660  220.5600 N   0  0  0  0  0  0  0  0  0  0  0  0
  144.7770   73.1150  220.5540 C   0  0  0  0  0  0  0  0  0  0  0  0
  145.8110   72.2880  219.7790 C   0  0  0  0  0  0  0  0  0  0  0  0
  145.2110   71.8040  218.4560 C   0  0  0  0  0  0  0  0  0  0  0  0
  143.9390   70.9510  218.6580 C   0  0  0  0  0  0  0  0  0  0  0  0
  143.3210   71.0890  220.0600 C   0  0  0  0  0  0  0  0  0  0  0  0
  142.2720   74.5470  220.9720 N   0  0  0  0  0  0  0  0  0  0  0  0
  141.2020   75.2430  221.4400 C   0  0  0  0  0  0  0  0  0  0  0  0
  141.1600   76.6820  221.3340 N   0  0  0  0  0  0  0  0  0  0  0  0
  141.0630   77.4830  222.5630 C   0  0  0  0  0  0  0  0  0  0  0  0
  141.0890   78.9810  222.2500 C   0  0  0  0  0  0  0  0  0  0  0  0
  142.1230   79.2590  221.2480 N   0  0  0  0  0  0  0  0  0  0  0  0
  141.7930   78.6670  219.9340 C   0  0  0  0  0  0  0  0  0  0  0  0
  141.0170   77.3320  220.0190 C   0  0  0  0  0  0  0  0  0  0  0  0
  140.1660   74.5660  222.0060 N   0  0  0  0  0  0  0  0  0  0  0  0
  140.8320   69.7270  226.4220 C   0  0  0  0  0  0  0  0  0  0  0  0
  141.2769   68.4077  228.0884 H   0  0  0  0  0  0  0  0  0  0  0  0
  139.8125   66.5746  227.2230 H   0  0  0  0  0  0  0  0  0  0  0  0
  138.7294   68.9420  223.8450 H   0  0  0  0  0  0  0  0  0  0  0  0
  140.0401   72.0093  225.0872 H   0  0  0  0  0  0  0  0  0  0  0  0
  141.2562   71.2234  224.0061 H   0  0  0  0  0  0  0  0  0  0  0  0
  139.5821   70.4884  222.4786 H   0  0  0  0  0  0  0  0  0  0  0  0
  138.2550   70.8419  223.6477 H   0  0  0  0  0  0  0  0  0  0  0  0
  138.1760   72.9890  222.7740 H   0  0  0  0  0  0  0  0  0  0  0  0
  144.6862   74.1047  220.0826 H   0  0  0  0  0  0  0  0  0  0  0  0
  145.1200   73.2046  221.5953 H   0  0  0  0  0  0  0  0  0  0  0  0
  146.6940   72.9105  219.5722 H   0  0  0  0  0  0  0  0  0  0  0  0
  146.1018   71.4162  220.3834 H   0  0  0  0  0  0  0  0  0  0  0  0
  144.9536   72.6811  217.8440 H   0  0  0  0  0  0  0  0  0  0  0  0
  145.9620   71.1707  217.9612 H   0  0  0  0  0  0  0  0  0  0  0  0
  143.1897   71.2628  217.9155 H   0  0  0  0  0  0  0  0  0  0  0  0
  144.2342   69.8982  218.5379 H   0  0  0  0  0  0  0  0  0  0  0  0
  142.2540   70.8261  220.0106 H   0  0  0  0  0  0  0  0  0  0  0  0
  143.8522   70.4129  220.7461 H   0  0  0  0  0  0  0  0  0  0  0  0
  140.1211   77.2399  223.0765 H   0  0  0  0  0  0  0  0  0  0  0  0
  141.9256   77.2455  223.2029 H   0  0  0  0  0  0  0  0  0  0  0  0
  140.1084   79.2898  221.8588 H   0  0  0  0  0  0  0  0  0  0  0  0
  141.3131   79.5413  223.1697 H   0  0  0  0  0  0  0  0  0  0  0  0
  143.0420   78.8810  221.5790 H   0  0  0  0  0  0  0  0  0  0  0  0
  142.2190   80.2970  221.1380 H   0  0  0  0  0  0  0  0  0  0  0  0
  141.1790   79.3883  219.3747 H   0  0  0  0  0  0  0  0  0  0  0  0
  142.7491   78.4466  219.4367 H   0  0  0  0  0  0  0  0  0  0  0  0
  139.9505   77.5311  219.8374 H   0  0  0  0  0  0  0  0  0  0  0  0
  141.4347   76.6524  219.2616 H   0  0  0  0  0  0  0  0  0  0  0  0
  141.4668   70.5434  226.7968 H   0  0  0  0  0  0  0  0  0  0  0  0
  1  2  2  0
  2  3  1  0
  3  4  2  0
  4  5  1  0
  5  6  1  0
  6  7  1  0
  7  8  1  0
  8  9  1  0
  9 10  2  0
 10 11  1  0
 11 12  1  0
 12 13  1  0
 13 14  1  0
 14 15  1  0
 15 16  1  0
 16 17  1  0
 11 18  2  0
 18 19  1  0
 19 20  1  0
 20 21  1  0
 21 22  1  0
 22 23  1  0
 23 24  1  0
 24 25  1  0
 19 26  2  0
  5 27  2  0
 27  1  1  0
 26  9  1  0
 17 12  1  0
 25 20  1  0
  1 28  1  0
  2 29  1  0
  4 30  1  0
  6 31  1  0
  6 32  1  0
  7 33  1  0
  7 34  1  0
  8 35  1  0
 13 36  1  0
 13 37  1  0
 14 38  1  0
 14 39  1  0
 15 40  1  0
 15 41  1  0
 16 42  1  0
 16 43  1  0
 17 44  1  0
 17 45  1  0
 21 46  1  0
 21 47  1  0
 22 48  1  0
 22 49  1  0
 23 50  1  0
 23 51  1  0
 24 52  1  0
 24 53  1  0
 25 54  1  0
 25 55  1  0
 27 56  1  0
M  CHG  1  23   1
M  END
>  <UniqueID>  (19) 
581

>  <SMILES>  (19) 
c1cncc(CCNc2nc(N3CCCCC3)nc(N3CC[NH2+]CC3)n2)c1

>  <Energy>  (19) 
54.83794405914214

>  <Genealogy>  (19) 
c1cncc(CCNc2nc(N3CCCCC3)nc(N3CC[NH2+]CC3)n2)c1 (protonated)
c1cncc(CCNc2nc(N3CCCCC3)nc(N3CC[NH2+]CC3)n2)c1 (3D coordinates assigned)
c1cncc(CCNc2nc(N3CCCCC3)nc(N3CC[NH2+]CC3)n2)c1 (nonaromatic ring conformer: 54.83794405914214 kcal/mol)

>  <smiles>  (19) 
c1cncc(CCNc2nc(N3CCCCC3)nc(N3CCNCC3)n2)c1

>  <score_type>  (19) 
oracle

>  <origin>  (19) 
autodockgpu

>  <m_score__min__energy>  (19) 
-7.7999999999999998

>  <m_primary>  (19) 
energy

>  <meeko>  (19) 
{"free_energy": -7.8, "intermolecular_energy": -9.58, "internal_energy": -0.83, "cluster_size": 9, "cluster_id": 1, "rank_in_cluster": 1}

>  <energy>  (19) 
-6.49

>  <cluster_rmsd>  (19) 
0.98

>  <rmsd>  (19) 
270.27

>  <cluster>  (19) 
4

$$$$
YQRBYBBKMCEKLP-ODCLCHFBNA-O
     RDKit          3D

 56 59  0  0  0  0  0  0  0  0999 V2000
  141.1040   72.2580  227.4090 C   0  0  0  0  0  0  0  0  0  0  0  0
  140.4240   71.4800  228.3490 C   0  0  0  0  0  0  0  0  0  0  0  0
  139.7300   70.3790  227.9520 N   0  0  0  0  0  0  0  0  0  0  0  0
  139.6790   69.9990  226.6460 C   0  0  0  0  0  0  0  0  0  0  0  0
  140.3620   70.7410  225.6690 C   0  0  0  0  0  0  0  0  0  0  0  0
  140.3150   70.3300  224.2220 C   0  0  0  0  0  0  0  0  0  0  0  0
  138.9470   70.6430  223.6110 C   0  0  0  0  0  0  0  0  0  0  0  0
  138.8940   72.0340  223.1620 N   0  0  0  0  0  0  0  0  0  0  0  0
  139.8380   72.5840  222.2340 C   0  0  0  0  0  0  0  0  0  0  0  0
  140.6250   71.7710  221.4840 N   0  0  0  0  0  0  0  0  0  0  0  0
  141.5310   72.2940  220.6140 C   0  0  0  0  0  0  0  0  0  0  0  0
  142.3580   71.4290  219.8100 N   0  0  0  0  0  0  0  0  0  0  0  0
  141.9850   70.0120  219.6620 C   0  0  0  0  0  0  0  0  0  0  0  0
  143.0870   69.2060  218.9640 C   0  0  0  0  0  0  0  0  0  0  0  0
  144.4530   69.5600  219.5590 C   0  0  0  0  0  0  0  0  0  0  0  0
  144.7810   71.0640  219.4370 C   0  0  0  0  0  0  0  0  0  0  0  0
  143.5550   71.9390  219.1240 C   0  0  0  0  0  0  0  0  0  0  0  0
  141.6390   73.6440  220.5000 N   0  0  0  0  0  0  0  0  0  0  0  0
  140.8580   74.4710  221.2460 C   0  0  0  0  0  0  0  0  0  0  0  0
  140.9790   75.9040  221.1210 N   0  0  0  0  0  0  0  0  0  0  0  0
  140.7790   76.7410  222.3120 C   0  0  0  0  0  0  0  0  0  0  0  0
  141.0040   78.2210  221.9920 C   0  0  0  0  0  0  0  0  0  0  0  0
  142.2000   78.3700  221.1560 N   0  0  0  0  0  0  0  0  0  0  0  0
  142.0140   77.7810  219.8140 C   0  0  0  0  0  0  0  0  0  0  0  0
  141.1030   76.5310  219.7930 C   0  0  0  0  0  0  0  0  0  0  0  0
  139.9570   73.9310  222.1110 N   0  0  0  0  0  0  0  0  0  0  0  0
  141.0660   71.8890  226.0620 C   0  0  0  0  0  0  0  0  0  0  0  0
  141.6630   73.1509  227.7257 H   0  0  0  0  0  0  0  0  0  0  0  0
  140.4496   71.7582  229.4129 H   0  0  0  0  0  0  0  0  0  0  0  0
  139.1016   69.1089  226.3554 H   0  0  0  0  0  0  0  0  0  0  0  0
  141.0914   70.8767  223.6667 H   0  0  0  0  0  0  0  0  0  0  0  0
  140.4894   69.2458  224.1581 H   0  0  0  0  0  0  0  0  0  0  0  0
  138.7733   69.9782  222.7520 H   0  0  0  0  0  0  0  0  0  0  0  0
  138.1712   70.4853  224.3747 H   0  0  0  0  0  0  0  0  0  0  0  0
  138.1330   72.6460  223.5270 H   0  0  0  0  0  0  0  0  0  0  0  0
  141.8076   69.5839  220.6596 H   0  0  0  0  0  0  0  0  0  0  0  0
  141.0769   69.9590  219.0434 H   0  0  0  0  0  0  0  0  0  0  0  0
  142.8964   68.1317  219.1037 H   0  0  0  0  0  0  0  0  0  0  0  0
  143.0870   69.4490  217.8912 H   0  0  0  0  0  0  0  0  0  0  0  0
  144.4560   69.2838  220.6238 H   0  0  0  0  0  0  0  0  0  0  0  0
  145.2167   69.0051  218.9944 H   0  0  0  0  0  0  0  0  0  0  0  0
  145.2163   71.4032  220.3885 H   0  0  0  0  0  0  0  0  0  0  0  0
  145.4793   71.1742  218.5942 H   0  0  0  0  0  0  0  0  0  0  0  0
  143.7516   72.9679  219.4596 H   0  0  0  0  0  0  0  0  0  0  0  0
  143.3748   71.9169  218.0391 H   0  0  0  0  0  0  0  0  0  0  0  0
  139.7504   76.6052  222.6775 H   0  0  0  0  0  0  0  0  0  0  0  0
  141.5063   76.4357  223.0787 H   0  0  0  0  0  0  0  0  0  0  0  0
  140.1299   78.6156  221.4533 H   0  0  0  0  0  0  0  0  0  0  0  0
  141.1431   78.7793  222.9296 H   0  0  0  0  0  0  0  0  0  0  0  0
  143.0150   77.9120  221.6280 H   0  0  0  0  0  0  0  0  0  0  0  0
  142.4160   79.3900  221.0520 H   0  0  0  0  0  0  0  0  0  0  0  0
  141.5674   78.5448  219.1605 H   0  0  0  0  0  0  0  0  0  0  0  0
  143.0069   77.4553  219.4704 H   0  0  0  0  0  0  0  0  0  0  0  0
  140.1019   76.8292  219.4482 H   0  0  0  0  0  0  0  0  0  0  0  0
  141.5597   75.7944  219.1156 H   0  0  0  0  0  0  0  0  0  0  0  0
  141.5880   72.4986  225.3097 H   0  0  0  0  0  0  0  0  0  0  0  0
  1  2  2  0
  2  3  1  0
  3  4  2  0
  4  5  1  0
  5  6  1  0
  6  7  1  0
  7  8  1  0
  8  9  1  0
  9 10  2  0
 10 11  1  0
 11 12  1  0
 12 13  1  0
 13 14  1  0
 14 15  1  0
 15 16  1  0
 16 17  1  0
 11 18  2  0
 18 19  1  0
 19 20  1  0
 20 21  1  0
 21 22  1  0
 22 23  1  0
 23 24  1  0
 24 25  1  0
 19 26  2  0
  5 27  2  0
 27  1  1  0
 26  9  1  0
 17 12  1  0
 25 20  1  0
  1 28  1  0
  2 29  1  0
  4 30  1  0
  6 31  1  0
  6 32  1  0
  7 33  1  0
  7 34  1  0
  8 35  1  0
 13 36  1  0
 13 37  1  0
 14 38  1  0
 14 39  1  0
 15 40  1  0
 15 41  1  0
 16 42  1  0
 16 43  1  0
 17 44  1  0
 17 45  1  0
 21 46  1  0
 21 47  1  0
 22 48  1  0
 22 49  1  0
 23 50  1  0
 23 51  1  0
 24 52  1  0
 24 53  1  0
 25 54  1  0
 25 55  1  0
 27 56  1  0
M  CHG  1  23   1
M  END
>  <UniqueID>  (20) 
581

>  <SMILES>  (20) 
c1cncc(CCNc2nc(N3CCCCC3)nc(N3CC[NH2+]CC3)n2)c1

>  <Energy>  (20) 
54.83794405914214

>  <Genealogy>  (20) 
c1cncc(CCNc2nc(N3CCCCC3)nc(N3CC[NH2+]CC3)n2)c1 (protonated)
c1cncc(CCNc2nc(N3CCCCC3)nc(N3CC[NH2+]CC3)n2)c1 (3D coordinates assigned)
c1cncc(CCNc2nc(N3CCCCC3)nc(N3CC[NH2+]CC3)n2)c1 (nonaromatic ring conformer: 54.83794405914214 kcal/mol)

>  <smiles>  (20) 
c1cncc(CCNc2nc(N3CCCCC3)nc(N3CCNCC3)n2)c1

>  <score_type>  (20) 
oracle

>  <origin>  (20) 
autodockgpu

>  <m_score__min__energy>  (20) 
-7.7999999999999998

>  <m_primary>  (20) 
energy

>  <meeko>  (20) 
{"free_energy": -7.4, "intermolecular_energy": -9.19, "internal_energy": -0.98, "cluster_size": 9, "cluster_id": 1, "rank_in_cluster": 3}

>  <energy>  (20) 
-6.87

>  <cluster_rmsd>  (20) 
0.0

>  <rmsd>  (20) 
270.76

>  <cluster>  (20) 
5

$$$$
YQRBYBBKMCEKLP-ODCLCHFBNA-O
     RDKit          3D

 56 59  0  0  0  0  0  0  0  0999 V2000
  140.6750   68.3930  227.2630 C   0  0  0  0  0  0  0  0  0  0  0  0
  139.8210   67.4340  226.7140 C   0  0  0  0  0  0  0  0  0  0  0  0
  139.1790   67.6820  225.5400 N   0  0  0  0  0  0  0  0  0  0  0  0
  139.3470   68.8530  224.8670 C   0  0  0  0  0  0  0  0  0  0  0  0
  140.2100   69.8380  225.3730 C   0  0  0  0  0  0  0  0  0  0  0  0
  140.4060   71.1370  224.6370 C   0  0  0  0  0  0  0  0  0  0  0  0
  139.7210   71.0970  223.2690 C   0  0  0  0  0  0  0  0  0  0  0  0
  139.2220   72.4230  222.9100 N   0  0  0  0  0  0  0  0  0  0  0  0
  140.0370   73.4080  222.2610 C   0  0  0  0  0  0  0  0  0  0  0  0
  139.7340   74.7280  222.3560 N   0  0  0  0  0  0  0  0  0  0  0  0
  140.4980   75.6620  221.7290 C   0  0  0  0  0  0  0  0  0  0  0  0
  140.1820   77.0640  221.8410 N   0  0  0  0  0  0  0  0  0  0  0  0
  141.2800   78.0440  221.9100 C   0  0  0  0  0  0  0  0  0  0  0  0
  140.7650   79.4490  222.2480 C   0  0  0  0  0  0  0  0  0  0  0  0
  139.7560   79.3750  223.3980 C   0  0  0  0  0  0  0  0  0  0  0  0
  138.5510   78.4660  223.0730 C   0  0  0  0  0  0  0  0  0  0  0  0
  138.7890   77.5330  221.8730 C   0  0  0  0  0  0  0  0  0  0  0  0
  141.5770   75.2590  221.0060 N   0  0  0  0  0  0  0  0  0  0  0  0
  141.8920   73.9410  220.9000 C   0  0  0  0  0  0  0  0  0  0  0  0
  143.0380   73.5200  220.1290 N   0  0  0  0  0  0  0  0  0  0  0  0
  142.9210   73.4440  218.6660 C   0  0  0  0  0  0  0  0  0  0  0  0
  144.2500   73.0360  218.0260 C   0  0  0  0  0  0  0  0  0  0  0  0
  145.3500   73.7720  218.6590 N   0  0  0  0  0  0  0  0  0  0  0  0
  145.5430   73.3740  220.0690 C   0  0  0  0  0  0  0  0  0  0  0  0
  144.2360   72.9870  220.8010 C   0  0  0  0  0  0  0  0  0  0  0  0
  141.1160   73.0200  221.5350 N   0  0  0  0  0  0  0  0  0  0  0  0
  140.8640   69.6030  226.5920 C   0  0  0  0  0  0  0  0  0  0  0  0
  141.1930   68.1974  228.2135 H   0  0  0  0  0  0  0  0  0  0  0  0
  139.6669   66.4758  227.2318 H   0  0  0  0  0  0  0  0  0  0  0  0
  138.8059   69.0279  223.9254 H   0  0  0  0  0  0  0  0  0  0  0  0
  139.9759   71.9565  225.2315 H   0  0  0  0  0  0  0  0  0  0  0  0
  141.4838   71.2970  224.4863 H   0  0  0  0  0  0  0  0  0  0  0  0
  140.4452   70.7647  222.5106 H   0  0  0  0  0  0  0  0  0  0  0  0
  138.8735   70.3972  223.3147 H   0  0  0  0  0  0  0  0  0  0  0  0
  138.2290   72.6570  223.1270 H   0  0  0  0  0  0  0  0  0  0  0  0
  141.9914   77.7284  222.6873 H   0  0  0  0  0  0  0  0  0  0  0  0
  141.7663   78.0846  220.9242 H   0  0  0  0  0  0  0  0  0  0  0  0
  141.6114   80.0851  222.5465 H   0  0  0  0  0  0  0  0  0  0  0  0
  140.2718   79.8754  221.3620 H   0  0  0  0  0  0  0  0  0  0  0  0
  140.2656   78.9793  224.2889 H   0  0  0  0  0  0  0  0  0  0  0  0
  139.3704   80.3910  223.5688 H   0  0  0  0  0  0  0  0  0  0  0  0
  138.3336   77.8477  223.9564 H   0  0  0  0  0  0  0  0  0  0  0  0
  137.7119   79.1257  222.8071 H   0  0  0  0  0  0  0  0  0  0  0  0
  138.1185   76.6647  221.9534 H   0  0  0  0  0  0  0  0  0  0  0  0
  138.5850   78.0917  220.9477 H   0  0  0  0  0  0  0  0  0  0  0  0
  142.1537   72.7001  218.4054 H   0  0  0  0  0  0  0  0  0  0  0  0
  142.6417   74.4379  218.2864 H   0  0  0  0  0  0  0  0  0  0  0  0
  144.4058   71.9558  218.1637 H   0  0  0  0  0  0  0  0  0  0  0  0
  144.2246   73.2715  216.9518 H   0  0  0  0  0  0  0  0  0  0  0  0
  145.1560   74.8010  218.6110 H   0  0  0  0  0  0  0  0  0  0  0  0
  146.2340   73.5830  218.1290 H   0  0  0  0  0  0  0  0  0  0  0  0
  146.2219   72.5089  220.0939 H   0  0  0  0  0  0  0  0  0  0  0  0
  145.9521   74.2505  220.5927 H   0  0  0  0  0  0  0  0  0  0  0  0
  144.1625   71.8900  220.8369 H   0  0  0  0  0  0  0  0  0  0  0  0
  144.2756   73.4211  221.8109 H   0  0  0  0  0  0  0  0  0  0  0  0
  141.5252   70.3715  227.0188 H   0  0  0  0  0  0  0  0  0  0  0  0
  1  2  2  0
  2  3  1  0
  3  4  2  0
  4  5  1  0
  5  6  1  0
  6  7  1  0
  7  8  1  0
  8  9  1  0
  9 10  2  0
 10 11  1  0
 11 12  1  0
 12 13  1  0
 13 14  1  0
 14 15  1  0
 15 16  1  0
 16 17  1  0
 11 18  2  0
 18 19  1  0
 19 20  1  0
 20 21  1  0
 21 22  1  0
 22 23  1  0
 23 24  1  0
 24 25  1  0
 19 26  2  0
  5 27  2  0
 27  1  1  0
 26  9  1  0
 17 12  1  0
 25 20  1  0
  1 28  1  0
  2 29  1  0
  4 30  1  0
  6 31  1  0
  6 32  1  0
  7 33  1  0
  7 34  1  0
  8 35  1  0
 13 36  1  0
 13 37  1  0
 14 38  1  0
 14 39  1  0
 15 40  1  0
 15 41  1  0
 16 42  1  0
 16 43  1  0
 17 44  1  0
 17 45  1  0
 21 46  1  0
 21 47  1  0
 22 48  1  0
 22 49  1  0
 23 50  1  0
 23 51  1  0
 24 52  1  0
 24 53  1  0
 25 54  1  0
 25 55  1  0
 27 56  1  0
M  CHG  1  23   1
M  END
>  <UniqueID>  (21) 
582

>  <SMILES>  (21) 
c1cncc(CCNc2nc(N3CCCCC3)nc(N3CC[NH2+]CC3)n2)c1

>  <Energy>  (21) 
58.387372391957335

>  <Genealogy>  (21) 
c1cncc(CCNc2nc(N3CCCCC3)nc(N3CC[NH2+]CC3)n2)c1 (protonated)
c1cncc(CCNc2nc(N3CCCCC3)nc(N3CC[NH2+]CC3)n2)c1 (3D coordinates assigned)
c1cncc(CCNc2nc(N3CCCCC3)nc(N3CC[NH2+]CC3)n2)c1 (nonaromatic ring conformer: 58.387372391957335 kcal/mol)

>  <smiles>  (21) 
c1cncc(CCNc2nc(N3CCCCC3)nc(N3CCNCC3)n2)c1

>  <score_type>  (21) 
oracle

>  <origin>  (21) 
autodockgpu

>  <m_score__min__energy>  (21) 
-7.7999999999999998

>  <m_primary>  (21) 
energy

>  <meeko>  (21) 
{"free_energy": -7.61, "intermolecular_energy": -9.4, "internal_energy": -0.75, "cluster_size": 1, "cluster_id": 2, "rank_in_cluster": 1}

>  <energy>  (21) 
-7.8

>  <cluster_rmsd>  (21) 
0.0

>  <rmsd>  (21) 
271.09

>  <cluster>  (21) 
1

$$$$
YQRBYBBKMCEKLP-ODCLCHFBNA-O
     RDKit          3D

 56 59  0  0  0  0  0  0  0  0999 V2000
  140.4630   72.0660  221.8610 C   0  0  0  0  0  0  0  0  0  0  0  0
  139.5700   73.0400  222.3110 C   0  0  0  0  0  0  0  0  0  0  0  0
  139.8670   74.3610  222.1650 N   0  0  0  0  0  0  0  0  0  0  0  0
  141.0240   74.7720  221.5780 C   0  0  0  0  0  0  0  0  0  0  0  0
  141.9430   73.8270  221.0940 C   0  0  0  0  0  0  0  0  0  0  0  0
  143.2250   74.2680  220.4420 C   0  0  0  0  0  0  0  0  0  0  0  0
  143.0410   74.4350  218.9320 C   0  0  0  0  0  0  0  0  0  0  0  0
  143.5890   75.7160  218.4890 N   0  0  0  0  0  0  0  0  0  0  0  0
  142.9790   76.9720  218.8120 C   0  0  0  0  0  0  0  0  0  0  0  0
  142.4260   77.1780  220.0350 N   0  0  0  0  0  0  0  0  0  0  0  0
  141.8350   78.3650  220.3370 C   0  0  0  0  0  0  0  0  0  0  0  0
  141.2600   78.5870  221.6400 N   0  0  0  0  0  0  0  0  0  0  0  0
  139.8160   78.3680  221.8350 C   0  0  0  0  0  0  0  0  0  0  0  0
  139.3480   78.8630  223.2090 C   0  0  0  0  0  0  0  0  0  0  0  0
  139.9390   80.2460  223.4980 C   0  0  0  0  0  0  0  0  0  0  0  0
  141.4830   80.2500  223.4650 C   0  0  0  0  0  0  0  0  0  0  0  0
  142.0880   79.0140  222.7780 C   0  0  0  0  0  0  0  0  0  0  0  0
  141.8050   79.3490  219.3990 N   0  0  0  0  0  0  0  0  0  0  0  0
  142.3530   79.1560  218.1700 C   0  0  0  0  0  0  0  0  0  0  0  0
  142.3160   80.2050  217.1780 N   0  0  0  0  0  0  0  0  0  0  0  0
  142.9500   81.4960  217.4850 C   0  0  0  0  0  0  0  0  0  0  0  0
  142.8570   82.4540  216.2940 C   0  0  0  0  0  0  0  0  0  0  0  0
  143.1710   81.7340  215.0550 N   0  0  0  0  0  0  0  0  0  0  0  0
  142.1440   80.7230  214.7280 C   0  0  0  0  0  0  0  0  0  0  0  0
  141.4930   80.0580  215.9640 C   0  0  0  0  0  0  0  0  0  0  0  0
  142.9410   77.9630  217.8850 N   0  0  0  0  0  0  0  0  0  0  0  0
  141.6580   72.4620  221.2560 C   0  0  0  0  0  0  0  0  0  0  0  0
  140.2281   70.9982  221.9815 H   0  0  0  0  0  0  0  0  0  0  0  0
  138.6238   72.7397  222.7849 H   0  0  0  0  0  0  0  0  0  0  0  0
  141.2397   75.8464  221.4825 H   0  0  0  0  0  0  0  0  0  0  0  0
  143.5370   75.2297  220.8752 H   0  0  0  0  0  0  0  0  0  0  0  0
  143.9918   73.4995  220.6195 H   0  0  0  0  0  0  0  0  0  0  0  0
  143.5624   73.6184  218.4111 H   0  0  0  0  0  0  0  0  0  0  0  0
  141.9663   74.4076  218.6989 H   0  0  0  0  0  0  0  0  0  0  0  0
  144.4630   75.7130  217.9210 H   0  0  0  0  0  0  0  0  0  0  0  0
  139.2643   78.9110  221.0535 H   0  0  0  0  0  0  0  0  0  0  0  0
  139.6219   77.2869  221.7755 H   0  0  0  0  0  0  0  0  0  0  0  0
  138.2499   78.9272  223.2182 H   0  0  0  0  0  0  0  0  0  0  0  0
  139.6875   78.1572  223.9814 H   0  0  0  0  0  0  0  0  0  0  0  0
  139.5685   80.9528  222.7409 H   0  0  0  0  0  0  0  0  0  0  0  0
  139.6264   80.5370  224.5117 H   0  0  0  0  0  0  0  0  0  0  0  0
  141.8168   81.1472  222.9231 H   0  0  0  0  0  0  0  0  0  0  0  0
  141.8277   80.2393  224.5095 H   0  0  0  0  0  0  0  0  0  0  0  0
  143.0971   79.2610  222.4163 H   0  0  0  0  0  0  0  0  0  0  0  0
  142.1314   78.1925  223.5083 H   0  0  0  0  0  0  0  0  0  0  0  0
  142.4430   81.9483  218.3501 H   0  0  0  0  0  0  0  0  0  0  0  0
  144.0124   81.3187  217.7081 H   0  0  0  0  0  0  0  0  0  0  0  0
  141.8373   82.8619  216.2315 H   0  0  0  0  0  0  0  0  0  0  0  0
  143.5757   83.2756  216.4302 H   0  0  0  0  0  0  0  0  0  0  0  0
  144.1030   81.2660  215.1490 H   0  0  0  0  0  0  0  0  0  0  0  0
  143.2300   82.4230  214.2680 H   0  0  0  0  0  0  0  0  0  0  0  0
  141.3520   81.2127  214.1424 H   0  0  0  0  0  0  0  0  0  0  0  0
  142.6536   79.9234  214.1704 H   0  0  0  0  0  0  0  0  0  0  0  0
  140.5134   80.5256  216.1422 H   0  0  0  0  0  0  0  0  0  0  0  0
  141.3933   78.9829  215.7537 H   0  0  0  0  0  0  0  0  0  0  0  0
  142.3754   71.7048  220.9067 H   0  0  0  0  0  0  0  0  0  0  0  0
  1  2  2  0
  2  3  1  0
  3  4  2  0
  4  5  1  0
  5  6  1  0
  6  7  1  0
  7  8  1  0
  8  9  1  0
  9 10  2  0
 10 11  1  0
 11 12  1  0
 12 13  1  0
 13 14  1  0
 14 15  1  0
 15 16  1  0
 16 17  1  0
 11 18  2  0
 18 19  1  0
 19 20  1  0
 20 21  1  0
 21 22  1  0
 22 23  1  0
 23 24  1  0
 24 25  1  0
 19 26  2  0
  5 27  2  0
 27  1  1  0
 26  9  1  0
 17 12  1  0
 25 20  1  0
  1 28  1  0
  2 29  1  0
  4 30  1  0
  6 31  1  0
  6 32  1  0
  7 33  1  0
  7 34  1  0
  8 35  1  0
 13 36  1  0
 13 37  1  0
 14 38  1  0
 14 39  1  0
 15 40  1  0
 15 41  1  0
 16 42  1  0
 16 43  1  0
 17 44  1  0
 17 45  1  0
 21 46  1  0
 21 47  1  0
 22 48  1  0
 22 49  1  0
 23 50  1  0
 23 51  1  0
 24 52  1  0
 24 53  1  0
 25 54  1  0
 25 55  1  0
 27 56  1  0
M  CHG  1  23   1
M  END
>  <UniqueID>  (22) 
582

>  <SMILES>  (22) 
c1cncc(CCNc2nc(N3CCCCC3)nc(N3CC[NH2+]CC3)n2)c1

>  <Energy>  (22) 
58.387372391957335

>  <Genealogy>  (22) 
c1cncc(CCNc2nc(N3CCCCC3)nc(N3CC[NH2+]CC3)n2)c1 (protonated)
c1cncc(CCNc2nc(N3CCCCC3)nc(N3CC[NH2+]CC3)n2)c1 (3D coordinates assigned)
c1cncc(CCNc2nc(N3CCCCC3)nc(N3CC[NH2+]CC3)n2)c1 (nonaromatic ring conformer: 58.387372391957335 kcal/mol)

>  <smiles>  (22) 
c1cncc(CCNc2nc(N3CCCCC3)nc(N3CCNCC3)n2)c1

>  <score_type>  (22) 
oracle

>  <origin>  (22) 
autodockgpu

>  <m_score__min__energy>  (22) 
-7.7999999999999998

>  <m_primary>  (22) 
energy

>  <meeko>  (22) 
{"free_energy": -7.17, "intermolecular_energy": -8.96, "internal_energy": -1.18, "cluster_size": 5, "cluster_id": 4, "rank_in_cluster": 3}

>  <energy>  (22) 
-7.79

>  <cluster_rmsd>  (22) 
0.13

>  <rmsd>  (22) 
271.1

>  <cluster>  (22) 
1

$$$$
YQRBYBBKMCEKLP-ODCLCHFBNA-O
     RDKit          3D

 56 59  0  0  0  0  0  0  0  0999 V2000
  140.4490   72.0230  221.8820 C   0  0  0  0  0  0  0  0  0  0  0  0
  139.5740   73.0080  222.3460 C   0  0  0  0  0  0  0  0  0  0  0  0
  139.8820   74.3250  222.1890 N   0  0  0  0  0  0  0  0  0  0  0  0
  141.0330   74.7220  221.5800 C   0  0  0  0  0  0  0  0  0  0  0  0
  141.9330   73.7650  221.0820 C   0  0  0  0  0  0  0  0  0  0  0  0
  143.2080   74.1910  220.4050 C   0  0  0  0  0  0  0  0  0  0  0  0
  142.9730   74.4530  218.9160 C   0  0  0  0  0  0  0  0  0  0  0  0
  143.5640   75.7310  218.5230 N   0  0  0  0  0  0  0  0  0  0  0  0
  142.9640   76.9930  218.8440 C   0  0  0  0  0  0  0  0  0  0  0  0
  142.4180   77.2080  220.0680 N   0  0  0  0  0  0  0  0  0  0  0  0
  141.8360   78.4000  220.3680 C   0  0  0  0  0  0  0  0  0  0  0  0
  141.2680   78.6310  221.6720 N   0  0  0  0  0  0  0  0  0  0  0  0
  139.8160   78.4650  221.8630 C   0  0  0  0  0  0  0  0  0  0  0  0
  139.3660   78.9640  223.2420 C   0  0  0  0  0  0  0  0  0  0  0  0
  140.0080   80.3210  223.5450 C   0  0  0  0  0  0  0  0  0  0  0  0
  141.5510   80.2660  223.5140 C   0  0  0  0  0  0  0  0  0  0  0  0
  142.1100   79.0150  222.8150 C   0  0  0  0  0  0  0  0  0  0  0  0
  141.8090   79.3800  219.4260 N   0  0  0  0  0  0  0  0  0  0  0  0
  142.3490   79.1780  218.1950 C   0  0  0  0  0  0  0  0  0  0  0  0
  142.3160   80.2230  217.1990 N   0  0  0  0  0  0  0  0  0  0  0  0
  142.9480   81.5150  217.5030 C   0  0  0  0  0  0  0  0  0  0  0  0
  142.8580   82.4690  216.3080 C   0  0  0  0  0  0  0  0  0  0  0  0
  143.1760   81.7440  215.0730 N   0  0  0  0  0  0  0  0  0  0  0  0
  142.1500   80.7320  214.7470 C   0  0  0  0  0  0  0  0  0  0  0  0
  141.4960   80.0720  215.9840 C   0  0  0  0  0  0  0  0  0  0  0  0
  142.9280   77.9800  217.9120 N   0  0  0  0  0  0  0  0  0  0  0  0
  141.6360   72.4050  221.2540 C   0  0  0  0  0  0  0  0  0  0  0  0
  140.2055   70.9580  222.0100 H   0  0  0  0  0  0  0  0  0  0  0  0
  138.6342   72.7191  222.8392 H   0  0  0  0  0  0  0  0  0  0  0  0
  141.2587   75.7937  221.4777 H   0  0  0  0  0  0  0  0  0  0  0  0
  143.5773   75.1123  220.8791 H   0  0  0  0  0  0  0  0  0  0  0  0
  143.9478   73.3835  220.5078 H   0  0  0  0  0  0  0  0  0  0  0  0
  143.4338   73.6450  218.3289 H   0  0  0  0  0  0  0  0  0  0  0  0
  141.8900   74.4880  218.7269 H   0  0  0  0  0  0  0  0  0  0  0  0
  144.4630   75.7220  217.9950 H   0  0  0  0  0  0  0  0  0  0  0  0
  139.2864   79.0365  221.0865 H   0  0  0  0  0  0  0  0  0  0  0  0
  139.5805   77.3929  221.7919 H   0  0  0  0  0  0  0  0  0  0  0  0
  138.2711   79.0691  223.2515 H   0  0  0  0  0  0  0  0  0  0  0  0
  139.6786   78.2385  224.0074 H   0  0  0  0  0  0  0  0  0  0  0  0
  139.6659   81.0485  222.7942 H   0  0  0  0  0  0  0  0  0  0  0  0
  139.7046   80.6147  224.5607 H   0  0  0  0  0  0  0  0  0  0  0  0
  141.9198   81.1554  222.9820 H   0  0  0  0  0  0  0  0  0  0  0  0
  141.8930   80.2309  224.5589 H   0  0  0  0  0  0  0  0  0  0  0  0
  143.1281   79.2275  222.4568 H   0  0  0  0  0  0  0  0  0  0  0  0
  142.1216   78.1851  223.5369 H   0  0  0  0  0  0  0  0  0  0  0  0
  142.4382   81.9701  218.3649 H   0  0  0  0  0  0  0  0  0  0  0  0
  144.0099   81.3391  217.7298 H   0  0  0  0  0  0  0  0  0  0  0  0
  141.8384   82.8763  216.2410 H   0  0  0  0  0  0  0  0  0  0  0  0
  143.5756   83.2917  216.4431 H   0  0  0  0  0  0  0  0  0  0  0  0
  144.1080   81.2770  215.1710 H   0  0  0  0  0  0  0  0  0  0  0  0
  143.2380   82.4310  214.2840 H   0  0  0  0  0  0  0  0  0  0  0  0
  141.3595   81.2194  214.1575 H   0  0  0  0  0  0  0  0  0  0  0  0
  142.6608   79.9303  214.1935 H   0  0  0  0  0  0  0  0  0  0  0  0
  140.5162   80.5407  216.1582 H   0  0  0  0  0  0  0  0  0  0  0  0
  141.3963   78.9962  215.7775 H   0  0  0  0  0  0  0  0  0  0  0  0
  142.3386   71.6390  220.8939 H   0  0  0  0  0  0  0  0  0  0  0  0
  1  2  2  0
  2  3  1  0
  3  4  2  0
  4  5  1  0
  5  6  1  0
  6  7  1  0
  7  8  1  0
  8  9  1  0
  9 10  2  0
 10 11  1  0
 11 12  1  0
 12 13  1  0
 13 14  1  0
 14 15  1  0
 15 16  1  0
 16 17  1  0
 11 18  2  0
 18 19  1  0
 19 20  1  0
 20 21  1  0
 21 22  1  0
 22 23  1  0
 23 24  1  0
 24 25  1  0
 19 26  2  0
  5 27  2  0
 27  1  1  0
 26  9  1  0
 17 12  1  0
 25 20  1  0
  1 28  1  0
  2 29  1  0
  4 30  1  0
  6 31  1  0
  6 32  1  0
  7 33  1  0
  7 34  1  0
  8 35  1  0
 13 36  1  0
 13 37  1  0
 14 38  1  0
 14 39  1  0
 15 40  1  0
 15 41  1  0
 16 42  1  0
 16 43  1  0
 17 44  1  0
 17 45  1  0
 21 46  1  0
 21 47  1  0
 22 48  1  0
 22 49  1  0
 23 50  1  0
 23 51  1  0
 24 52  1  0
 24 53  1  0
 25 54  1  0
 25 55  1  0
 27 56  1  0
M  CHG  1  23   1
M  END
>  <UniqueID>  (23) 
582

>  <SMILES>  (23) 
c1cncc(CCNc2nc(N3CCCCC3)nc(N3CC[NH2+]CC3)n2)c1

>  <Energy>  (23) 
58.387372391957335

>  <Genealogy>  (23) 
c1cncc(CCNc2nc(N3CCCCC3)nc(N3CC[NH2+]CC3)n2)c1 (protonated)
c1cncc(CCNc2nc(N3CCCCC3)nc(N3CC[NH2+]CC3)n2)c1 (3D coordinates assigned)
c1cncc(CCNc2nc(N3CCCCC3)nc(N3CC[NH2+]CC3)n2)c1 (nonaromatic ring conformer: 58.387372391957335 kcal/mol)

>  <smiles>  (23) 
c1cncc(CCNc2nc(N3CCCCC3)nc(N3CCNCC3)n2)c1

>  <score_type>  (23) 
oracle

>  <origin>  (23) 
autodockgpu

>  <m_score__min__energy>  (23) 
-7.7999999999999998

>  <m_primary>  (23) 
energy

>  <meeko>  (23) 
{"free_energy": -7.19, "intermolecular_energy": -8.98, "internal_energy": -1.16, "cluster_size": 5, "cluster_id": 4, "rank_in_cluster": 2}

>  <energy>  (23) 
-7.4

>  <cluster_rmsd>  (23) 
1.47

>  <rmsd>  (23) 
271.0

>  <cluster>  (23) 
1

$$$$
YQRBYBBKMCEKLP-ODCLCHFBNA-O
     RDKit          3D

 56 59  0  0  0  0  0  0  0  0999 V2000
  145.5010   74.1020  220.8290 C   0  0  0  0  0  0  0  0  0  0  0  0
  146.3610   73.3730  220.0050 C   0  0  0  0  0  0  0  0  0  0  0  0
  145.8800   72.3420  219.2570 N   0  0  0  0  0  0  0  0  0  0  0  0
  144.5650   71.9940  219.2810 C   0  0  0  0  0  0  0  0  0  0  0  0
  143.6610   72.7110  220.0820 C   0  0  0  0  0  0  0  0  0  0  0  0
  142.2040   72.3370  220.1170 C   0  0  0  0  0  0  0  0  0  0  0  0
  141.6640   72.3800  221.5480 C   0  0  0  0  0  0  0  0  0  0  0  0
  140.6440   73.4200  221.6780 N   0  0  0  0  0  0  0  0  0  0  0  0
  140.8790   74.7850  221.3080 C   0  0  0  0  0  0  0  0  0  0  0  0
  140.7070   75.7850  222.2100 N   0  0  0  0  0  0  0  0  0  0  0  0
  140.9150   77.0810  221.8560 C   0  0  0  0  0  0  0  0  0  0  0  0
  140.7440   78.1410  222.8170 N   0  0  0  0  0  0  0  0  0  0  0  0
  139.4420   78.8260  222.9080 C   0  0  0  0  0  0  0  0  0  0  0  0
  139.5130   80.0590  223.8170 C   0  0  0  0  0  0  0  0  0  0  0  0
  140.7670   80.8780  223.4950 C   0  0  0  0  0  0  0  0  0  0  0  0
  142.0670   80.0610  223.6600 C   0  0  0  0  0  0  0  0  0  0  0  0
  141.8370   78.5410  223.7170 C   0  0  0  0  0  0  0  0  0  0  0  0
  141.3030   77.3670  220.5840 N   0  0  0  0  0  0  0  0  0  0  0  0
  141.4770   76.3760  219.6700 C   0  0  0  0  0  0  0  0  0  0  0  0
  141.8870   76.6870  218.3210 N   0  0  0  0  0  0  0  0  0  0  0  0
  141.2580   77.8210  217.6300 C   0  0  0  0  0  0  0  0  0  0  0  0
  141.8630   78.0260  216.2390 C   0  0  0  0  0  0  0  0  0  0  0  0
  143.3220   77.9010  216.3110 N   0  0  0  0  0  0  0  0  0  0  0  0
  143.7440   76.5240  216.6400 C   0  0  0  0  0  0  0  0  0  0  0  0
  142.7720   75.7710  217.5790 C   0  0  0  0  0  0  0  0  0  0  0  0
  141.2640   75.0840  220.0420 N   0  0  0  0  0  0  0  0  0  0  0  0
  144.1460   73.7640  220.8720 C   0  0  0  0  0  0  0  0  0  0  0  0
  145.8862   74.9334  221.4376 H   0  0  0  0  0  0  0  0  0  0  0  0
  147.4291   73.6322  219.9601 H   0  0  0  0  0  0  0  0  0  0  0  0
  144.2092   71.1498  218.6722 H   0  0  0  0  0  0  0  0  0  0  0  0
  141.6354   73.0448  219.4960 H   0  0  0  0  0  0  0  0  0  0  0  0
  142.0944   71.3130  219.7304 H   0  0  0  0  0  0  0  0  0  0  0  0
  141.2207   71.4046  221.7974 H   0  0  0  0  0  0  0  0  0  0  0  0
  142.4928   72.6058  222.2351 H   0  0  0  0  0  0  0  0  0  0  0  0
  139.7060   73.1540  222.0480 H   0  0  0  0  0  0  0  0  0  0  0  0
  139.1346   79.1429  221.9005 H   0  0  0  0  0  0  0  0  0  0  0  0
  138.7138   78.1232  223.3391 H   0  0  0  0  0  0  0  0  0  0  0  0
  138.6205   80.6816  223.6563 H   0  0  0  0  0  0  0  0  0  0  0  0
  139.5563   79.7312  224.8661 H   0  0  0  0  0  0  0  0  0  0  0  0
  140.7011   81.2293  222.4547 H   0  0  0  0  0  0  0  0  0  0  0  0
  140.8083   81.7177  224.2043 H   0  0  0  0  0  0  0  0  0  0  0  0
  142.7264   80.2811  222.8075 H   0  0  0  0  0  0  0  0  0  0  0  0
  142.5130   80.3557  224.6214 H   0  0  0  0  0  0  0  0  0  0  0  0
  142.7602   78.0255  223.4136 H   0  0  0  0  0  0  0  0  0  0  0  0
  141.5633   78.2654  224.7462 H   0  0  0  0  0  0  0  0  0  0  0  0
  140.1804   77.6257  217.5274 H   0  0  0  0  0  0  0  0  0  0  0  0
  141.4324   78.7307  218.2233 H   0  0  0  0  0  0  0  0  0  0  0  0
  141.4644   77.2656  215.5513 H   0  0  0  0  0  0  0  0  0  0  0  0
  141.6012   79.0295  215.8723 H   0  0  0  0  0  0  0  0  0  0  0  0
  143.6940   78.5620  217.0340 H   0  0  0  0  0  0  0  0  0  0  0  0
  143.7320   78.1690  215.3850 H   0  0  0  0  0  0  0  0  0  0  0  0
  143.8278   75.9553  215.7021 H   0  0  0  0  0  0  0  0  0  0  0  0
  144.7015   76.6058  217.1753 H   0  0  0  0  0  0  0  0  0  0  0  0
  142.1519   75.0921  216.9752 H   0  0  0  0  0  0  0  0  0  0  0  0
  143.3755   75.2181  218.3139 H   0  0  0  0  0  0  0  0  0  0  0  0
  143.4598   74.3233  221.5250 H   0  0  0  0  0  0  0  0  0  0  0  0
  1  2  2  0
  2  3  1  0
  3  4  2  0
  4  5  1  0
  5  6  1  0
  6  7  1  0
  7  8  1  0
  8  9  1  0
  9 10  2  0
 10 11  1  0
 11 12  1  0
 12 13  1  0
 13 14  1  0
 14 15  1  0
 15 16  1  0
 16 17  1  0
 11 18  2  0
 18 19  1  0
 19 20  1  0
 20 21  1  0
 21 22  1  0
 22 23  1  0
 23 24  1  0
 24 25  1  0
 19 26  2  0
  5 27  2  0
 27  1  1  0
 26  9  1  0
 17 12  1  0
 25 20  1  0
  1 28  1  0
  2 29  1  0
  4 30  1  0
  6 31  1  0
  6 32  1  0
  7 33  1  0
  7 34  1  0
  8 35  1  0
 13 36  1  0
 13 37  1  0
 14 38  1  0
 14 39  1  0
 15 40  1  0
 15 41  1  0
 16 42  1  0
 16 43  1  0
 17 44  1  0
 17 45  1  0
 21 46  1  0
 21 47  1  0
 22 48  1  0
 22 49  1  0
 23 50  1  0
 23 51  1  0
 24 52  1  0
 24 53  1  0
 25 54  1  0
 25 55  1  0
 27 56  1  0
M  CHG  1  23   1
M  END
>  <UniqueID>  (24) 
582

>  <SMILES>  (24) 
c1cncc(CCNc2nc(N3CCCCC3)nc(N3CC[NH2+]CC3)n2)c1

>  <Energy>  (24) 
58.387372391957335

>  <Genealogy>  (24) 
c1cncc(CCNc2nc(N3CCCCC3)nc(N3CC[NH2+]CC3)n2)c1 (protonated)
c1cncc(CCNc2nc(N3CCCCC3)nc(N3CC[NH2+]CC3)n2)c1 (3D coordinates assigned)
c1cncc(CCNc2nc(N3CCCCC3)nc(N3CC[NH2+]CC3)n2)c1 (nonaromatic ring conformer: 58.387372391957335 kcal/mol)

>  <smiles>  (24) 
c1cncc(CCNc2nc(N3CCCCC3)nc(N3CCNCC3)n2)c1

>  <score_type>  (24) 
oracle

>  <origin>  (24) 
autodockgpu

>  <m_score__min__energy>  (24) 
-7.7999999999999998

>  <m_primary>  (24) 
energy

>  <meeko>  (24) 
{"free_energy": -7.37, "intermolecular_energy": -9.16, "internal_energy": -1.22, "cluster_size": 4, "cluster_id": 3, "rank_in_cluster": 4}

>  <energy>  (24) 
-7.38

>  <cluster_rmsd>  (24) 
1.56

>  <rmsd>  (24) 
271.05

>  <cluster>  (24) 
1

$$$$
YQRBYBBKMCEKLP-ODCLCHFBNA-O
     RDKit          3D

 56 59  0  0  0  0  0  0  0  0999 V2000
  141.0580   71.4540  228.0430 C   0  0  0  0  0  0  0  0  0  0  0  0
  140.6970   70.1360  228.3330 C   0  0  0  0  0  0  0  0  0  0  0  0
  140.3300   69.2910  227.3310 N   0  0  0  0  0  0  0  0  0  0  0  0
  140.3080   69.6920  226.0310 C   0  0  0  0  0  0  0  0  0  0  0  0
  140.6810   71.0020  225.6910 C   0  0  0  0  0  0  0  0  0  0  0  0
  140.6630   71.4570  224.2560 C   0  0  0  0  0  0  0  0  0  0  0  0
  139.3490   71.0670  223.5770 C   0  0  0  0  0  0  0  0  0  0  0  0
  139.0500   71.9830  222.4780 N   0  0  0  0  0  0  0  0  0  0  0  0
  139.9340   73.0440  222.0920 C   0  0  0  0  0  0  0  0  0  0  0  0
  141.1320   72.7710  221.5160 N   0  0  0  0  0  0  0  0  0  0  0  0
  141.9780   73.7760  221.1640 C   0  0  0  0  0  0  0  0  0  0  0  0
  143.2440   73.4850  220.5400 N   0  0  0  0  0  0  0  0  0  0  0  0
  143.5540   72.0960  220.1580 C   0  0  0  0  0  0  0  0  0  0  0  0
  145.0160   71.9420  219.7190 C   0  0  0  0  0  0  0  0  0  0  0  0
  145.9380   72.6690  220.7020 C   0  0  0  0  0  0  0  0  0  0  0  0
  145.6090   74.1730  220.8220 C   0  0  0  0  0  0  0  0  0  0  0  0
  144.2240   74.5470  220.2670 C   0  0  0  0  0  0  0  0  0  0  0  0
  141.6080   75.0640  221.3920 N   0  0  0  0  0  0  0  0  0  0  0  0
  140.4120   75.3530  221.9710 C   0  0  0  0  0  0  0  0  0  0  0  0
  140.0260   76.7240  222.2120 N   0  0  0  0  0  0  0  0  0  0  0  0
  141.0750   77.7260  222.4490 C   0  0  0  0  0  0  0  0  0  0  0  0
  140.4740   79.1230  222.6260 C   0  0  0  0  0  0  0  0  0  0  0  0
  139.4320   79.3440  221.6180 N   0  0  0  0  0  0  0  0  0  0  0  0
  138.2620   78.4680  221.8300 C   0  0  0  0  0  0  0  0  0  0  0  0
  138.6100   77.0780  222.4120 C   0  0  0  0  0  0  0  0  0  0  0  0
  139.5780   74.3350  222.3160 N   0  0  0  0  0  0  0  0  0  0  0  0
  141.0440   71.8890  226.7160 C   0  0  0  0  0  0  0  0  0  0  0  0
  141.3499   72.1414  228.8507 H   0  0  0  0  0  0  0  0  0  0  0  0
  140.7094   69.7802  229.3738 H   0  0  0  0  0  0  0  0  0  0  0  0
  139.9973   68.9882  225.2448 H   0  0  0  0  0  0  0  0  0  0  0  0
  140.7746   72.5508  224.2234 H   0  0  0  0  0  0  0  0  0  0  0  0
  141.4927   70.9705  223.7223 H   0  0  0  0  0  0  0  0  0  0  0  0
  139.4350   70.0438  223.1824 H   0  0  0  0  0  0  0  0  0  0  0  0
  138.5364   71.1208  224.3165 H   0  0  0  0  0  0  0  0  0  0  0  0
  138.1610   71.8540  221.9490 H   0  0  0  0  0  0  0  0  0  0  0  0
  143.3697   71.4392  221.0209 H   0  0  0  0  0  0  0  0  0  0  0  0
  142.9100   71.8214  219.3095 H   0  0  0  0  0  0  0  0  0  0  0  0
  145.2785   70.8741  219.6953 H   0  0  0  0  0  0  0  0  0  0  0  0
  145.1399   72.3793  218.7173 H   0  0  0  0  0  0  0  0  0  0  0  0
  145.8321   72.2048  221.6936 H   0  0  0  0  0  0  0  0  0  0  0  0
  146.9664   72.5819  220.3214 H   0  0  0  0  0  0  0  0  0  0  0  0
  145.6447   74.4529  221.8852 H   0  0  0  0  0  0  0  0  0  0  0  0
  146.3542   74.7150  220.2212 H   0  0  0  0  0  0  0  0  0  0  0  0
  143.8857   75.4797  220.7420 H   0  0  0  0  0  0  0  0  0  0  0  0
  144.3058   74.6776  219.1779 H   0  0  0  0  0  0  0  0  0  0  0  0
  141.6304   77.4560  223.3593 H   0  0  0  0  0  0  0  0  0  0  0  0
  141.7455   77.7424  221.5771 H   0  0  0  0  0  0  0  0  0  0  0  0
  140.0345   79.2074  223.6308 H   0  0  0  0  0  0  0  0  0  0  0  0
  141.2647   79.8779  222.5042 H   0  0  0  0  0  0  0  0  0  0  0  0
  139.8270   79.1730  220.6630 H   0  0  0  0  0  0  0  0  0  0  0  0
  139.1210   80.3440  221.6660 H   0  0  0  0  0  0  0  0  0  0  0  0
  137.5752   78.9717  222.5261 H   0  0  0  0  0  0  0  0  0  0  0  0
  137.8131   78.2940  220.8409 H   0  0  0  0  0  0  0  0  0  0  0  0
  138.3961   77.0832  223.4910 H   0  0  0  0  0  0  0  0  0  0  0  0
  137.9996   76.3308  221.8837 H   0  0  0  0  0  0  0  0  0  0  0  0
  141.3175   72.9267  226.4743 H   0  0  0  0  0  0  0  0  0  0  0  0
  1  2  2  0
  2  3  1  0
  3  4  2  0
  4  5  1  0
  5  6  1  0
  6  7  1  0
  7  8  1  0
  8  9  1  0
  9 10  2  0
 10 11  1  0
 11 12  1  0
 12 13  1  0
 13 14  1  0
 14 15  1  0
 15 16  1  0
 16 17  1  0
 11 18  2  0
 18 19  1  0
 19 20  1  0
 20 21  1  0
 21 22  1  0
 22 23  1  0
 23 24  1  0
 24 25  1  0
 19 26  2  0
  5 27  2  0
 27  1  1  0
 26  9  1  0
 17 12  1  0
 25 20  1  0
  1 28  1  0
  2 29  1  0
  4 30  1  0
  6 31  1  0
  6 32  1  0
  7 33  1  0
  7 34  1  0
  8 35  1  0
 13 36  1  0
 13 37  1  0
 14 38  1  0
 14 39  1  0
 15 40  1  0
 15 41  1  0
 16 42  1  0
 16 43  1  0
 17 44  1  0
 17 45  1  0
 21 46  1  0
 21 47  1  0
 22 48  1  0
 22 49  1  0
 23 50  1  0
 23 51  1  0
 24 52  1  0
 24 53  1  0
 25 54  1  0
 25 55  1  0
 27 56  1  0
M  CHG  1  23   1
M  END
>  <UniqueID>  (25) 
582

>  <SMILES>  (25) 
c1cncc(CCNc2nc(N3CCCCC3)nc(N3CC[NH2+]CC3)n2)c1

>  <Energy>  (25) 
58.387372391957335

>  <Genealogy>  (25) 
c1cncc(CCNc2nc(N3CCCCC3)nc(N3CC[NH2+]CC3)n2)c1 (protonated)
c1cncc(CCNc2nc(N3CCCCC3)nc(N3CC[NH2+]CC3)n2)c1 (3D coordinates assigned)
c1cncc(CCNc2nc(N3CCCCC3)nc(N3CC[NH2+]CC3)n2)c1 (nonaromatic ring conformer: 58.387372391957335 kcal/mol)

>  <smiles>  (25) 
c1cncc(CCNc2nc(N3CCCCC3)nc(N3CCNCC3)n2)c1

>  <score_type>  (25) 
oracle

>  <origin>  (25) 
autodockgpu

>  <m_score__min__energy>  (25) 
-7.7999999999999998

>  <m_primary>  (25) 
energy

>  <meeko>  (25) 
{"free_energy": -7.3, "intermolecular_energy": -9.09, "internal_energy": -0.9, "cluster_size": 9, "cluster_id": 1, "rank_in_cluster": 5}

>  <energy>  (25) 
-7.3

>  <cluster_rmsd>  (25) 
1.63

>  <rmsd>  (25) 
271.45

>  <cluster>  (25) 
1

$$$$
YQRBYBBKMCEKLP-ODCLCHFBNA-O
     RDKit          3D

 56 59  0  0  0  0  0  0  0  0999 V2000
  139.9290   70.2950  227.9570 C   0  0  0  0  0  0  0  0  0  0  0  0
  140.6680   71.4180  228.3330 C   0  0  0  0  0  0  0  0  0  0  0  0
  141.2710   72.1880  227.3860 N   0  0  0  0  0  0  0  0  0  0  0  0
  141.1700   71.8990  226.0600 C   0  0  0  0  0  0  0  0  0  0  0  0
  140.4200   70.7900  225.6360 C   0  0  0  0  0  0  0  0  0  0  0  0
  140.3000   70.4610  224.1720 C   0  0  0  0  0  0  0  0  0  0  0  0
  138.8760   70.7160  223.6710 C   0  0  0  0  0  0  0  0  0  0  0  0
  138.7610   72.0690  223.1290 N   0  0  0  0  0  0  0  0  0  0  0  0
  139.7390   72.6370  222.2490 C   0  0  0  0  0  0  0  0  0  0  0  0
  140.5470   71.8380  221.5060 N   0  0  0  0  0  0  0  0  0  0  0  0
  141.4860   72.3760  220.6820 C   0  0  0  0  0  0  0  0  0  0  0  0
  142.3350   71.5270  219.8840 N   0  0  0  0  0  0  0  0  0  0  0  0
  141.9510   70.1200  219.6760 C   0  0  0  0  0  0  0  0  0  0  0  0
  143.0720   69.3210  218.9990 C   0  0  0  0  0  0  0  0  0  0  0  0
  144.4160   69.6390  219.6600 C   0  0  0  0  0  0  0  0  0  0  0  0
  144.7670   71.1410  219.6000 C   0  0  0  0  0  0  0  0  0  0  0  0
  143.5660   72.0420  219.2650 C   0  0  0  0  0  0  0  0  0  0  0  0
  141.6040   73.7280  220.6050 N   0  0  0  0  0  0  0  0  0  0  0  0
  140.8040   74.5410  221.3450 C   0  0  0  0  0  0  0  0  0  0  0  0
  140.9360   75.9760  221.2600 N   0  0  0  0  0  0  0  0  0  0  0  0
  140.9200   76.7660  222.4990 C   0  0  0  0  0  0  0  0  0  0  0  0
  141.1300   78.2540  222.2090 C   0  0  0  0  0  0  0  0  0  0  0  0
  142.2030   78.4190  221.2220 N   0  0  0  0  0  0  0  0  0  0  0  0
  141.8220   77.8890  219.8970 C   0  0  0  0  0  0  0  0  0  0  0  0
  140.8900   76.6550  219.9530 C   0  0  0  0  0  0  0  0  0  0  0  0
  139.8700   73.9850  222.1640 N   0  0  0  0  0  0  0  0  0  0  0  0
  139.8100   69.9770  226.6020 C   0  0  0  0  0  0  0  0  0  0  0  0
  139.4454   69.6670  228.7198 H   0  0  0  0  0  0  0  0  0  0  0  0
  140.7633   71.6813  229.3967 H   0  0  0  0  0  0  0  0  0  0  0  0
  141.6766   72.5350  225.3192 H   0  0  0  0  0  0  0  0  0  0  0  0
  141.0003   71.0899  223.6027 H   0  0  0  0  0  0  0  0  0  0  0  0
  140.5378   69.3965  224.0298 H   0  0  0  0  0  0  0  0  0  0  0  0
  138.6332   69.9880  222.8829 H   0  0  0  0  0  0  0  0  0  0  0  0
  138.1768   70.6085  224.5133 H   0  0  0  0  0  0  0  0  0  0  0  0
  137.9270   72.6400  223.3890 H   0  0  0  0  0  0  0  0  0  0  0  0
  141.7267   69.6636  220.6514 H   0  0  0  0  0  0  0  0  0  0  0  0
  141.0690   70.0984  219.0190 H   0  0  0  0  0  0  0  0  0  0  0  0
  142.8632   68.2455  219.0976 H   0  0  0  0  0  0  0  0  0  0  0  0
  143.1193   69.5964  217.9351 H   0  0  0  0  0  0  0  0  0  0  0  0
  144.3718   69.3295  220.7146 H   0  0  0  0  0  0  0  0  0  0  0  0
  145.1956   69.0926  219.1089 H   0  0  0  0  0  0  0  0  0  0  0  0
  145.1664   71.4440  220.5791 H   0  0  0  0  0  0  0  0  0  0  0  0
  145.5010   71.2683  218.7907 H   0  0  0  0  0  0  0  0  0  0  0  0
  143.7611   73.0570  219.6415 H   0  0  0  0  0  0  0  0  0  0  0  0
  143.4311   72.0566  218.1734 H   0  0  0  0  0  0  0  0  0  0  0  0
  139.9490   76.6312  222.9980 H   0  0  0  0  0  0  0  0  0  0  0  0
  141.7395   76.4178  223.1449 H   0  0  0  0  0  0  0  0  0  0  0  0
  140.1987   78.6841  221.8119 H   0  0  0  0  0  0  0  0  0  0  0  0
  141.4083   78.7706  223.1394 H   0  0  0  0  0  0  0  0  0  0  0  0
  143.0660   77.9280  221.5580 H   0  0  0  0  0  0  0  0  0  0  0  0
  142.4240   79.4390  221.1290 H   0  0  0  0  0  0  0  0  0  0  0  0
  141.3063   78.6862  219.3416 H   0  0  0  0  0  0  0  0  0  0  0  0
  142.7513   77.5621  219.4075 H   0  0  0  0  0  0  0  0  0  0  0  0
  139.8577   76.9829  219.7612 H   0  0  0  0  0  0  0  0  0  0  0  0
  141.2336   75.9400  219.1910 H   0  0  0  0  0  0  0  0  0  0  0  0
  139.2382   69.0895  226.2930 H   0  0  0  0  0  0  0  0  0  0  0  0
  1  2  2  0
  2  3  1  0
  3  4  2  0
  4  5  1  0
  5  6  1  0
  6  7  1  0
  7  8  1  0
  8  9  1  0
  9 10  2  0
 10 11  1  0
 11 12  1  0
 12 13  1  0
 13 14  1  0
 14 15  1  0
 15 16  1  0
 16 17  1  0
 11 18  2  0
 18 19  1  0
 19 20  1  0
 20 21  1  0
 21 22  1  0
 22 23  1  0
 23 24  1  0
 24 25  1  0
 19 26  2  0
  5 27  2  0
 27  1  1  0
 26  9  1  0
 17 12  1  0
 25 20  1  0
  1 28  1  0
  2 29  1  0
  4 30  1  0
  6 31  1  0
  6 32  1  0
  7 33  1  0
  7 34  1  0
  8 35  1  0
 13 36  1  0
 13 37  1  0
 14 38  1  0
 14 39  1  0
 15 40  1  0
 15 41  1  0
 16 42  1  0
 16 43  1  0
 17 44  1  0
 17 45  1  0
 21 46  1  0
 21 47  1  0
 22 48  1  0
 22 49  1  0
 23 50  1  0
 23 51  1  0
 24 52  1  0
 24 53  1  0
 25 54  1  0
 25 55  1  0
 27 56  1  0
M  CHG  1  23   1
M  END
>  <UniqueID>  (26) 
582

>  <SMILES>  (26) 
c1cncc(CCNc2nc(N3CCCCC3)nc(N3CC[NH2+]CC3)n2)c1

>  <Energy>  (26) 
58.387372391957335

>  <Genealogy>  (26) 
c1cncc(CCNc2nc(N3CCCCC3)nc(N3CC[NH2+]CC3)n2)c1 (protonated)
c1cncc(CCNc2nc(N3CCCCC3)nc(N3CC[NH2+]CC3)n2)c1 (3D coordinates assigned)
c1cncc(CCNc2nc(N3CCCCC3)nc(N3CC[NH2+]CC3)n2)c1 (nonaromatic ring conformer: 58.387372391957335 kcal/mol)

>  <smiles>  (26) 
c1cncc(CCNc2nc(N3CCCCC3)nc(N3CCNCC3)n2)c1

>  <score_type>  (26) 
oracle

>  <origin>  (26) 
autodockgpu

>  <m_score__min__energy>  (26) 
-7.7999999999999998

>  <m_primary>  (26) 
energy

>  <meeko>  (26) 
{"free_energy": -7.38, "intermolecular_energy": -9.17, "internal_energy": -0.96, "cluster_size": 9, "cluster_id": 1, "rank_in_cluster": 4}

>  <energy>  (26) 
-7.28

>  <cluster_rmsd>  (26) 
1.68

>  <rmsd>  (26) 
270.95

>  <cluster>  (26) 
1

$$$$
YQRBYBBKMCEKLP-ODCLCHFBNA-O
     RDKit          3D

 56 59  0  0  0  0  0  0  0  0999 V2000
  138.7440   76.1940  221.2610 C   0  0  0  0  0  0  0  0  0  0  0  0
  139.1150   75.4220  222.3640 C   0  0  0  0  0  0  0  0  0  0  0  0
  140.1170   74.5080  222.2530 N   0  0  0  0  0  0  0  0  0  0  0  0
  140.7870   74.3190  221.0840 C   0  0  0  0  0  0  0  0  0  0  0  0
  140.4600   75.0860  219.9530 C   0  0  0  0  0  0  0  0  0  0  0  0
  141.1940   74.8890  218.6550 C   0  0  0  0  0  0  0  0  0  0  0  0
  142.6800   74.6220  218.9030 C   0  0  0  0  0  0  0  0  0  0  0  0
  143.4510   75.8560  218.7630 N   0  0  0  0  0  0  0  0  0  0  0  0
  142.8960   77.1500  219.0340 C   0  0  0  0  0  0  0  0  0  0  0  0
  142.3810   77.4390  220.2560 N   0  0  0  0  0  0  0  0  0  0  0  0
  141.8410   78.6620  220.5090 C   0  0  0  0  0  0  0  0  0  0  0  0
  141.3050   78.9720  221.8110 N   0  0  0  0  0  0  0  0  0  0  0  0
  139.8610   79.2310  221.9500 C   0  0  0  0  0  0  0  0  0  0  0  0
  139.5130   79.7570  223.3480 C   0  0  0  0  0  0  0  0  0  0  0  0
  140.5090   80.8430  223.7630 C   0  0  0  0  0  0  0  0  0  0  0  0
  141.9680   80.3380  223.7710 C   0  0  0  0  0  0  0  0  0  0  0  0
  142.1680   79.0210  223.0010 C   0  0  0  0  0  0  0  0  0  0  0  0
  141.8270   79.5970  219.5230 N   0  0  0  0  0  0  0  0  0  0  0  0
  142.3380   79.3210  218.2930 C   0  0  0  0  0  0  0  0  0  0  0  0
  142.3180   80.3190  217.2500 N   0  0  0  0  0  0  0  0  0  0  0  0
  142.9450   81.6240  217.5020 C   0  0  0  0  0  0  0  0  0  0  0  0
  142.8720   82.5210  216.2640 C   0  0  0  0  0  0  0  0  0  0  0  0
  143.2070   81.7410  215.0680 N   0  0  0  0  0  0  0  0  0  0  0  0
  142.1880   80.7120  214.7740 C   0  0  0  0  0  0  0  0  0  0  0  0
  141.5160   80.1100  216.0310 C   0  0  0  0  0  0  0  0  0  0  0  0
  142.8740   78.0930  218.0580 N   0  0  0  0  0  0  0  0  0  0  0  0
  139.4160   76.0190  220.0480 C   0  0  0  0  0  0  0  0  0  0  0  0
  137.9322   76.9314  221.3459 H   0  0  0  0  0  0  0  0  0  0  0  0
  138.5960   75.5531  223.3249 H   0  0  0  0  0  0  0  0  0  0  0  0
  141.5856   73.5649  221.0242 H   0  0  0  0  0  0  0  0  0  0  0  0
  140.7582   74.0315  218.1214 H   0  0  0  0  0  0  0  0  0  0  0  0
  141.0971   75.8052  218.0540 H   0  0  0  0  0  0  0  0  0  0  0  0
  142.8119   74.2260  219.9207 H   0  0  0  0  0  0  0  0  0  0  0  0
  143.0391   73.8916  218.1630 H   0  0  0  0  0  0  0  0  0  0  0  0
  144.4470   75.7900  218.4630 H   0  0  0  0  0  0  0  0  0  0  0  0
  139.5590   79.9788  221.2020 H   0  0  0  0  0  0  0  0  0  0  0  0
  139.3253   78.2826  221.7964 H   0  0  0  0  0  0  0  0  0  0  0  0
  138.4976   80.1798  223.3356 H   0  0  0  0  0  0  0  0  0  0  0  0
  139.5634   78.9272  224.0683 H   0  0  0  0  0  0  0  0  0  0  0  0
  140.4304   81.6821  223.0560 H   0  0  0  0  0  0  0  0  0  0  0  0
  140.2575   81.1519  224.7883 H   0  0  0  0  0  0  0  0  0  0  0  0
  142.6053   81.1088  223.3131 H   0  0  0  0  0  0  0  0  0  0  0  0
  142.2360   80.1425  224.8198 H   0  0  0  0  0  0  0  0  0  0  0  0
  143.2193   78.9437  222.6868 H   0  0  0  0  0  0  0  0  0  0  0  0
  141.9019   78.1834  223.6626 H   0  0  0  0  0  0  0  0  0  0  0  0
  142.4229   82.1182  218.3346 H   0  0  0  0  0  0  0  0  0  0  0  0
  144.0037   81.4596  217.7513 H   0  0  0  0  0  0  0  0  0  0  0  0
  141.8534   82.9242  216.1642 H   0  0  0  0  0  0  0  0  0  0  0  0
  143.5881   83.3490  216.3713 H   0  0  0  0  0  0  0  0  0  0  0  0
  144.1390   81.2790  215.2010 H   0  0  0  0  0  0  0  0  0  0  0  0
  143.2800   82.3900  214.2490 H   0  0  0  0  0  0  0  0  0  0  0  0
  141.4060   81.1689  214.1497 H   0  0  0  0  0  0  0  0  0  0  0  0
  142.7086   79.8863  214.2669 H   0  0  0  0  0  0  0  0  0  0  0  0
  140.5335   80.5852  216.1685 H   0  0  0  0  0  0  0  0  0  0  0  0
  141.4200   79.0255  215.8738 H   0  0  0  0  0  0  0  0  0  0  0  0
  139.1266   76.6124  219.1681 H   0  0  0  0  0  0  0  0  0  0  0  0
  1  2  2  0
  2  3  1  0
  3  4  2  0
  4  5  1  0
  5  6  1  0
  6  7  1  0
  7  8  1  0
  8  9  1  0
  9 10  2  0
 10 11  1  0
 11 12  1  0
 12 13  1  0
 13 14  1  0
 14 15  1  0
 15 16  1  0
 16 17  1  0
 11 18  2  0
 18 19  1  0
 19 20  1  0
 20 21  1  0
 21 22  1  0
 22 23  1  0
 23 24  1  0
 24 25  1  0
 19 26  2  0
  5 27  2  0
 27  1  1  0
 26  9  1  0
 17 12  1  0
 25 20  1  0
  1 28  1  0
  2 29  1  0
  4 30  1  0
  6 31  1  0
  6 32  1  0
  7 33  1  0
  7 34  1  0
  8 35  1  0
 13 36  1  0
 13 37  1  0
 14 38  1  0
 14 39  1  0
 15 40  1  0
 15 41  1  0
 16 42  1  0
 16 43  1  0
 17 44  1  0
 17 45  1  0
 21 46  1  0
 21 47  1  0
 22 48  1  0
 22 49  1  0
 23 50  1  0
 23 51  1  0
 24 52  1  0
 24 53  1  0
 25 54  1  0
 25 55  1  0
 27 56  1  0
M  CHG  1  23   1
M  END
>  <UniqueID>  (27) 
582

>  <SMILES>  (27) 
c1cncc(CCNc2nc(N3CCCCC3)nc(N3CC[NH2+]CC3)n2)c1

>  <Energy>  (27) 
58.387372391957335

>  <Genealogy>  (27) 
c1cncc(CCNc2nc(N3CCCCC3)nc(N3CC[NH2+]CC3)n2)c1 (protonated)
c1cncc(CCNc2nc(N3CCCCC3)nc(N3CC[NH2+]CC3)n2)c1 (3D coordinates assigned)
c1cncc(CCNc2nc(N3CCCCC3)nc(N3CC[NH2+]CC3)n2)c1 (nonaromatic ring conformer: 58.387372391957335 kcal/mol)

>  <smiles>  (27) 
c1cncc(CCNc2nc(N3CCCCC3)nc(N3CCNCC3)n2)c1

>  <score_type>  (27) 
oracle

>  <origin>  (27) 
autodockgpu

>  <m_score__min__energy>  (27) 
-7.7999999999999998

>  <m_primary>  (27) 
energy

>  <meeko>  (27) 
{"free_energy": -6.49, "intermolecular_energy": -8.28, "internal_energy": -1.62, "cluster_size": 5, "cluster_id": 4, "rank_in_cluster": 5}

>  <energy>  (27) 
-7.25

>  <cluster_rmsd>  (27) 
1.98

>  <rmsd>  (27) 
271.34

>  <cluster>  (27) 
1

$$$$
YQRBYBBKMCEKLP-ODCLCHFBNA-O
     RDKit          3D

 56 59  0  0  0  0  0  0  0  0999 V2000
  139.9930   70.5450  227.9370 C   0  0  0  0  0  0  0  0  0  0  0  0
  140.7650   71.7060  228.0050 C   0  0  0  0  0  0  0  0  0  0  0  0
  141.2790   72.2540  226.8700 N   0  0  0  0  0  0  0  0  0  0  0  0
  141.0560   71.7020  225.6460 C   0  0  0  0  0  0  0  0  0  0  0  0
  140.2700   70.5440  225.5280 C   0  0  0  0  0  0  0  0  0  0  0  0
  140.0140   69.9250  224.1800 C   0  0  0  0  0  0  0  0  0  0  0  0
  138.7510   70.5080  223.5420 C   0  0  0  0  0  0  0  0  0  0  0  0
  138.8990   71.9480  223.3420 N   0  0  0  0  0  0  0  0  0  0  0  0
  139.9130   72.5130  222.5000 C   0  0  0  0  0  0  0  0  0  0  0  0
  140.8080   71.7140  221.8650 N   0  0  0  0  0  0  0  0  0  0  0  0
  141.7790   72.2500  221.0780 C   0  0  0  0  0  0  0  0  0  0  0  0
  142.7220   71.4010  220.3950 N   0  0  0  0  0  0  0  0  0  0  0  0
  144.1400   71.7940  220.3460 C   0  0  0  0  0  0  0  0  0  0  0  0
  144.9450   70.8970  219.3980 C   0  0  0  0  0  0  0  0  0  0  0  0
  144.1800   70.6990  218.0860 C   0  0  0  0  0  0  0  0  0  0  0  0
  142.7860   70.0730  218.3020 C   0  0  0  0  0  0  0  0  0  0  0  0
  142.2960   70.1440  219.7590 C   0  0  0  0  0  0  0  0  0  0  0  0
  141.8420   73.6000  220.9300 N   0  0  0  0  0  0  0  0  0  0  0  0
  140.9540   74.4130  221.5610 C   0  0  0  0  0  0  0  0  0  0  0  0
  141.0280   75.8460  221.4010 N   0  0  0  0  0  0  0  0  0  0  0  0
  140.9740   76.6990  222.5970 C   0  0  0  0  0  0  0  0  0  0  0  0
  141.1240   78.1770  222.2280 C   0  0  0  0  0  0  0  0  0  0  0  0
  142.1930   78.3330  221.2370 N   0  0  0  0  0  0  0  0  0  0  0  0
  141.8400   77.7190  219.9400 C   0  0  0  0  0  0  0  0  0  0  0  0
  140.9590   76.4520  220.0590 C   0  0  0  0  0  0  0  0  0  0  0  0
  139.9890   73.8590  222.3450 N   0  0  0  0  0  0  0  0  0  0  0  0
  139.7500   69.9580  226.6920 C   0  0  0  0  0  0  0  0  0  0  0  0
  139.5805   70.0970  228.8530 H   0  0  0  0  0  0  0  0  0  0  0  0
  140.9586   72.1795  228.9788 H   0  0  0  0  0  0  0  0  0  0  0  0
  141.4921   72.1636  224.7478 H   0  0  0  0  0  0  0  0  0  0  0  0
  140.8738   70.1238  223.5233 H   0  0  0  0  0  0  0  0  0  0  0  0
  139.8733   68.8420  224.3117 H   0  0  0  0  0  0  0  0  0  0  0  0
  138.5791   70.0229  222.5698 H   0  0  0  0  0  0  0  0  0  0  0  0
  137.8971   70.3268  224.2114 H   0  0  0  0  0  0  0  0  0  0  0  0
  138.2330   72.5890  223.8250 H   0  0  0  0  0  0  0  0  0  0  0  0
  144.2095   72.8348  219.9968 H   0  0  0  0  0  0  0  0  0  0  0  0
  144.5601   71.6884  221.3571 H   0  0  0  0  0  0  0  0  0  0  0  0
  145.9153   71.3698  219.1858 H   0  0  0  0  0  0  0  0  0  0  0  0
  145.1024   69.9182  219.8747 H   0  0  0  0  0  0  0  0  0  0  0  0
  144.0554   71.6776  217.5994 H   0  0  0  0  0  0  0  0  0  0  0  0
  144.7633   70.0071  217.4607 H   0  0  0  0  0  0  0  0  0  0  0  0
  142.0636   70.6057  217.6661 H   0  0  0  0  0  0  0  0  0  0  0  0
  142.8678   69.0074  218.0415 H   0  0  0  0  0  0  0  0  0  0  0  0
  141.1975   70.0874  219.7728 H   0  0  0  0  0  0  0  0  0  0  0  0
  142.7308   69.3021  220.3177 H   0  0  0  0  0  0  0  0  0  0  0  0
  140.0072   76.5509  223.1004 H   0  0  0  0  0  0  0  0  0  0  0  0
  141.8038   76.4195  223.2628 H   0  0  0  0  0  0  0  0  0  0  0  0
  140.1776   78.5464  221.8062 H   0  0  0  0  0  0  0  0  0  0  0  0
  141.3765   78.7538  223.1300 H   0  0  0  0  0  0  0  0  0  0  0  0
  143.0740   77.8980  221.6000 H   0  0  0  0  0  0  0  0  0  0  0  0
  142.3730   79.3550  221.0900 H   0  0  0  0  0  0  0  0  0  0  0  0
  141.2945   78.4641  219.3423 H   0  0  0  0  0  0  0  0  0  0  0  0
  142.7840   77.4057  219.4702 H   0  0  0  0  0  0  0  0  0  0  0  0
  139.9148   76.7262  219.8481 H   0  0  0  0  0  0  0  0  0  0  0  0
  141.3342   75.7124  219.3364 H   0  0  0  0  0  0  0  0  0  0  0  0
  139.1516   69.0374  226.6248 H   0  0  0  0  0  0  0  0  0  0  0  0
  1  2  2  0
  2  3  1  0
  3  4  2  0
  4  5  1  0
  5  6  1  0
  6  7  1  0
  7  8  1  0
  8  9  1  0
  9 10  2  0
 10 11  1  0
 11 12  1  0
 12 13  1  0
 13 14  1  0
 14 15  1  0
 15 16  1  0
 16 17  1  0
 11 18  2  0
 18 19  1  0
 19 20  1  0
 20 21  1  0
 21 22  1  0
 22 23  1  0
 23 24  1  0
 24 25  1  0
 19 26  2  0
  5 27  2  0
 27  1  1  0
 26  9  1  0
 17 12  1  0
 25 20  1  0
  1 28  1  0
  2 29  1  0
  4 30  1  0
  6 31  1  0
  6 32  1  0
  7 33  1  0
  7 34  1  0
  8 35  1  0
 13 36  1  0
 13 37  1  0
 14 38  1  0
 14 39  1  0
 15 40  1  0
 15 41  1  0
 16 42  1  0
 16 43  1  0
 17 44  1  0
 17 45  1  0
 21 46  1  0
 21 47  1  0
 22 48  1  0
 22 49  1  0
 23 50  1  0
 23 51  1  0
 24 52  1  0
 24 53  1  0
 25 54  1  0
 25 55  1  0
 27 56  1  0
M  CHG  1  23   1
M  END
>  <UniqueID>  (28) 
582

>  <SMILES>  (28) 
c1cncc(CCNc2nc(N3CCCCC3)nc(N3CC[NH2+]CC3)n2)c1

>  <Energy>  (28) 
58.387372391957335

>  <Genealogy>  (28) 
c1cncc(CCNc2nc(N3CCCCC3)nc(N3CC[NH2+]CC3)n2)c1 (protonated)
c1cncc(CCNc2nc(N3CCCCC3)nc(N3CC[NH2+]CC3)n2)c1 (3D coordinates assigned)
c1cncc(CCNc2nc(N3CCCCC3)nc(N3CC[NH2+]CC3)n2)c1 (nonaromatic ring conformer: 58.387372391957335 kcal/mol)

>  <smiles>  (28) 
c1cncc(CCNc2nc(N3CCCCC3)nc(N3CCNCC3)n2)c1

>  <score_type>  (28) 
oracle

>  <origin>  (28) 
autodockgpu

>  <m_score__min__energy>  (28) 
-7.7999999999999998

>  <m_primary>  (28) 
energy

>  <meeko>  (28) 
{"free_energy": -7.2, "intermolecular_energy": -8.99, "internal_energy": -1.03, "cluster_size": 9, "cluster_id": 1, "rank_in_cluster": 8}

>  <energy>  (28) 
-7.2

>  <cluster_rmsd>  (28) 
1.51

>  <rmsd>  (28) 
271.09

>  <cluster>  (28) 
1

$$$$
YQRBYBBKMCEKLP-ODCLCHFBNA-O
     RDKit          3D

 56 59  0  0  0  0  0  0  0  0999 V2000
  142.5560   79.3730  223.1970 C   0  0  0  0  0  0  0  0  0  0  0  0
  142.5660   80.3130  222.1650 C   0  0  0  0  0  0  0  0  0  0  0  0
  141.4000   80.6910  221.5730 N   0  0  0  0  0  0  0  0  0  0  0  0
  140.2010   80.1790  221.9630 C   0  0  0  0  0  0  0  0  0  0  0  0
  140.1420   79.2440  223.0090 C   0  0  0  0  0  0  0  0  0  0  0  0
  138.8230   78.6700  223.4520 C   0  0  0  0  0  0  0  0  0  0  0  0
  138.4190   77.4880  222.5680 C   0  0  0  0  0  0  0  0  0  0  0  0
  139.4510   76.4530  222.5950 N   0  0  0  0  0  0  0  0  0  0  0  0
  140.4560   76.3360  221.5790 C   0  0  0  0  0  0  0  0  0  0  0  0
  141.3540   75.3180  221.6100 N   0  0  0  0  0  0  0  0  0  0  0  0
  142.3160   75.2140  220.6540 C   0  0  0  0  0  0  0  0  0  0  0  0
  143.2610   74.1260  220.6810 N   0  0  0  0  0  0  0  0  0  0  0  0
  144.6980   74.4190  220.5390 C   0  0  0  0  0  0  0  0  0  0  0  0
  145.5230   73.1370  220.3670 C   0  0  0  0  0  0  0  0  0  0  0  0
  144.8470   72.2100  219.3530 C   0  0  0  0  0  0  0  0  0  0  0  0
  143.4100   71.8260  219.7660 C   0  0  0  0  0  0  0  0  0  0  0  0
  142.8190   72.7340  220.8590 C   0  0  0  0  0  0  0  0  0  0  0  0
  142.3680   76.1420  219.6620 N   0  0  0  0  0  0  0  0  0  0  0  0
  141.4770   77.1680  219.6200 C   0  0  0  0  0  0  0  0  0  0  0  0
  141.5400   78.1500  218.5640 N   0  0  0  0  0  0  0  0  0  0  0  0
  142.1990   79.4380  218.8290 C   0  0  0  0  0  0  0  0  0  0  0  0
  142.2140   80.3190  217.5770 C   0  0  0  0  0  0  0  0  0  0  0  0
  142.5770   79.5100  216.4080 N   0  0  0  0  0  0  0  0  0  0  0  0
  141.5370   78.5130  216.0800 C   0  0  0  0  0  0  0  0  0  0  0  0
  140.7880   77.9510  217.3120 C   0  0  0  0  0  0  0  0  0  0  0  0
  140.5210   77.2560  220.5840 N   0  0  0  0  0  0  0  0  0  0  0  0
  141.3390   78.8310  223.6160 C   0  0  0  0  0  0  0  0  0  0  0  0
  143.4967   79.0625  223.6751 H   0  0  0  0  0  0  0  0  0  0  0  0
  143.5184   80.7493  221.8294 H   0  0  0  0  0  0  0  0  0  0  0  0
  139.2771   80.4979  221.4583 H   0  0  0  0  0  0  0  0  0  0  0  0
  138.9106   78.3276  224.4937 H   0  0  0  0  0  0  0  0  0  0  0  0
  138.0532   79.4513  223.3686 H   0  0  0  0  0  0  0  0  0  0  0  0
  137.4730   77.0658  222.9380 H   0  0  0  0  0  0  0  0  0  0  0  0
  138.2970   77.8422  221.5338 H   0  0  0  0  0  0  0  0  0  0  0  0
  139.4600   75.7790  223.3910 H   0  0  0  0  0  0  0  0  0  0  0  0
  144.8460   75.0594  219.6570 H   0  0  0  0  0  0  0  0  0  0  0  0
  145.0373   74.9255  221.4546 H   0  0  0  0  0  0  0  0  0  0  0  0
  146.5296   73.3973  220.0078 H   0  0  0  0  0  0  0  0  0  0  0  0
  145.5939   72.6211  221.3359 H   0  0  0  0  0  0  0  0  0  0  0  0
  144.8093   72.7205  218.3794 H   0  0  0  0  0  0  0  0  0  0  0  0
  145.4381   71.2837  219.3026 H   0  0  0  0  0  0  0  0  0  0  0  0
  142.7648   71.8868  218.8772 H   0  0  0  0  0  0  0  0  0  0  0  0
  143.4551   70.8086  220.1818 H   0  0  0  0  0  0  0  0  0  0  0  0
  141.7210   72.6951  220.8047 H   0  0  0  0  0  0  0  0  0  0  0  0
  143.1682   72.3770  221.8391 H   0  0  0  0  0  0  0  0  0  0  0  0
  141.6557   79.9612  219.6296 H   0  0  0  0  0  0  0  0  0  0  0  0
  143.2387   79.2423  219.1302 H   0  0  0  0  0  0  0  0  0  0  0  0
  141.2156   80.7548  217.4244 H   0  0  0  0  0  0  0  0  0  0  0  0
  142.9523   81.1241  217.7066 H   0  0  0  0  0  0  0  0  0  0  0  0
  143.4850   79.0200  216.5900 H   0  0  0  0  0  0  0  0  0  0  0  0
  142.7100   80.1450  215.5850 H   0  0  0  0  0  0  0  0  0  0  0  0
  140.8005   78.9883  215.4154 H   0  0  0  0  0  0  0  0  0  0  0  0
  142.0509   77.6632  215.6070 H   0  0  0  0  0  0  0  0  0  0  0  0
  139.8169   78.4605  217.3981 H   0  0  0  0  0  0  0  0  0  0  0  0
  140.6625   76.8683  217.1639 H   0  0  0  0  0  0  0  0  0  0  0  0
  141.3181   78.0813  224.4207 H   0  0  0  0  0  0  0  0  0  0  0  0
  1  2  2  0
  2  3  1  0
  3  4  2  0
  4  5  1  0
  5  6  1  0
  6  7  1  0
  7  8  1  0
  8  9  1  0
  9 10  2  0
 10 11  1  0
 11 12  1  0
 12 13  1  0
 13 14  1  0
 14 15  1  0
 15 16  1  0
 16 17  1  0
 11 18  2  0
 18 19  1  0
 19 20  1  0
 20 21  1  0
 21 22  1  0
 22 23  1  0
 23 24  1  0
 24 25  1  0
 19 26  2  0
  5 27  2  0
 27  1  1  0
 26  9  1  0
 17 12  1  0
 25 20  1  0
  1 28  1  0
  2 29  1  0
  4 30  1  0
  6 31  1  0
  6 32  1  0
  7 33  1  0
  7 34  1  0
  8 35  1  0
 13 36  1  0
 13 37  1  0
 14 38  1  0
 14 39  1  0
 15 40  1  0
 15 41  1  0
 16 42  1  0
 16 43  1  0
 17 44  1  0
 17 45  1  0
 21 46  1  0
 21 47  1  0
 22 48  1  0
 22 49  1  0
 23 50  1  0
 23 51  1  0
 24 52  1  0
 24 53  1  0
 25 54  1  0
 25 55  1  0
 27 56  1  0
M  CHG  1  23   1
M  END
>  <UniqueID>  (29) 
582

>  <SMILES>  (29) 
c1cncc(CCNc2nc(N3CCCCC3)nc(N3CC[NH2+]CC3)n2)c1

>  <Energy>  (29) 
58.387372391957335

>  <Genealogy>  (29) 
c1cncc(CCNc2nc(N3CCCCC3)nc(N3CC[NH2+]CC3)n2)c1 (protonated)
c1cncc(CCNc2nc(N3CCCCC3)nc(N3CC[NH2+]CC3)n2)c1 (3D coordinates assigned)
c1cncc(CCNc2nc(N3CCCCC3)nc(N3CC[NH2+]CC3)n2)c1 (nonaromatic ring conformer: 58.387372391957335 kcal/mol)

>  <smiles>  (29) 
c1cncc(CCNc2nc(N3CCCCC3)nc(N3CCNCC3)n2)c1

>  <score_type>  (29) 
oracle

>  <origin>  (29) 
autodockgpu

>  <m_score__min__energy>  (29) 
-7.7999999999999998

>  <m_primary>  (29) 
energy

>  <meeko>  (29) 
{"free_energy": -6.87, "intermolecular_energy": -8.66, "internal_energy": -1.54, "cluster_size": 1, "cluster_id": 5, "rank_in_cluster": 1}

>  <energy>  (29) 
-7.16

>  <cluster_rmsd>  (29) 
1.92

>  <rmsd>  (29) 
271.36

>  <cluster>  (29) 
1

$$$$
YQRBYBBKMCEKLP-ODCLCHFBNA-O
     RDKit          3D

 56 59  0  0  0  0  0  0  0  0999 V2000
  141.0170   68.2480  226.9930 C   0  0  0  0  0  0  0  0  0  0  0  0
  140.1740   67.2340  226.5330 C   0  0  0  0  0  0  0  0  0  0  0  0
  139.2630   67.4940  225.5550 N   0  0  0  0  0  0  0  0  0  0  0  0
  139.1480   68.7300  224.9960 C   0  0  0  0  0  0  0  0  0  0  0  0
  139.9870   69.7740  225.4160 C   0  0  0  0  0  0  0  0  0  0  0  0
  139.8710   71.1450  224.8060 C   0  0  0  0  0  0  0  0  0  0  0  0
  138.7330   71.1910  223.7830 C   0  0  0  0  0  0  0  0  0  0  0  0
  139.2650   71.3760  222.4340 N   0  0  0  0  0  0  0  0  0  0  0  0
  140.0330   72.5270  222.0560 C   0  0  0  0  0  0  0  0  0  0  0  0
  141.2420   72.3850  221.4570 N   0  0  0  0  0  0  0  0  0  0  0  0
  141.9770   73.4750  221.1110 C   0  0  0  0  0  0  0  0  0  0  0  0
  143.2560   73.3230  220.4630 N   0  0  0  0  0  0  0  0  0  0  0  0
  143.6650   71.9910  219.9850 C   0  0  0  0  0  0  0  0  0  0  0  0
  145.1290   71.9780  219.5300 C   0  0  0  0  0  0  0  0  0  0  0  0
  146.0040   72.7030  220.5570 C   0  0  0  0  0  0  0  0  0  0  0  0
  145.5660   74.1660  220.7820 C   0  0  0  0  0  0  0  0  0  0  0  0
  144.1510   74.4730  220.2600 C   0  0  0  0  0  0  0  0  0  0  0  0
  141.4840   74.7160  221.3690 N   0  0  0  0  0  0  0  0  0  0  0  0
  140.2750   74.8740  221.9710 C   0  0  0  0  0  0  0  0  0  0  0  0
  139.7590   76.1940  222.2430 N   0  0  0  0  0  0  0  0  0  0  0  0
  140.7000   77.3190  222.3420 C   0  0  0  0  0  0  0  0  0  0  0  0
  139.9600   78.6390  222.5770 C   0  0  0  0  0  0  0  0  0  0  0  0
  138.7870   78.7110  221.7010 N   0  0  0  0  0  0  0  0  0  0  0  0
  137.7640   77.7070  222.0620 C   0  0  0  0  0  0  0  0  0  0  0  0
  138.3440   76.3830  222.6110 C   0  0  0  0  0  0  0  0  0  0  0  0
  139.5530   73.7710  222.3100 N   0  0  0  0  0  0  0  0  0  0  0  0
  140.9180   69.5250  226.4360 C   0  0  0  0  0  0  0  0  0  0  0  0
  141.7514   68.0430  227.7858 H   0  0  0  0  0  0  0  0  0  0  0  0
  140.2461   66.2235  226.9616 H   0  0  0  0  0  0  0  0  0  0  0  0
  138.3961   68.9109  224.2137 H   0  0  0  0  0  0  0  0  0  0  0  0
  139.6705   71.8778  225.6015 H   0  0  0  0  0  0  0  0  0  0  0  0
  140.8148   71.3838  224.2940 H   0  0  0  0  0  0  0  0  0  0  0  0
  138.1708   70.2464  223.8241 H   0  0  0  0  0  0  0  0  0  0  0  0
  138.0718   72.0364  224.0239 H   0  0  0  0  0  0  0  0  0  0  0  0
  139.0860   70.6360  221.7220 H   0  0  0  0  0  0  0  0  0  0  0  0
  143.5388   71.2648  220.8015 H   0  0  0  0  0  0  0  0  0  0  0  0
  143.0350   71.7272  219.1227 H   0  0  0  0  0  0  0  0  0  0  0  0
  145.4703   70.9370  219.4310 H   0  0  0  0  0  0  0  0  0  0  0  0
  145.2100   72.4914  218.5605 H   0  0  0  0  0  0  0  0  0  0  0  0
  145.9422   72.1654  221.5147 H   0  0  0  0  0  0  0  0  0  0  0  0
  147.0323   72.7191  220.1667 H   0  0  0  0  0  0  0  0  0  0  0  0
  145.5911   74.3743  221.8618 H   0  0  0  0  0  0  0  0  0  0  0  0
  146.2632   74.8019  220.2168 H   0  0  0  0  0  0  0  0  0  0  0  0
  143.7485   75.3425  220.8003 H   0  0  0  0  0  0  0  0  0  0  0  0
  144.2121   74.6851  219.1824 H   0  0  0  0  0  0  0  0  0  0  0  0
  141.3881   77.1388  223.1811 H   0  0  0  0  0  0  0  0  0  0  0  0
  141.2551   77.3939  221.3953 H   0  0  0  0  0  0  0  0  0  0  0  0
  139.6363   78.6947  223.6268 H   0  0  0  0  0  0  0  0  0  0  0  0
  140.6339   79.4791  222.3529 H   0  0  0  0  0  0  0  0  0  0  0  0
  139.0830   78.5640  220.7060 H   0  0  0  0  0  0  0  0  0  0  0  0
  138.3650   79.6670  221.7760 H   0  0  0  0  0  0  0  0  0  0  0  0
  137.1092   78.1424  222.8312 H   0  0  0  0  0  0  0  0  0  0  0  0
  137.2248   77.4571  221.1364 H   0  0  0  0  0  0  0  0  0  0  0  0
  138.2621   76.3894  223.7079 H   0  0  0  0  0  0  0  0  0  0  0  0
  137.7691   75.5561  222.1687 H   0  0  0  0  0  0  0  0  0  0  0  0
  141.5693   70.3348  226.7966 H   0  0  0  0  0  0  0  0  0  0  0  0
  1  2  2  0
  2  3  1  0
  3  4  2  0
  4  5  1  0
  5  6  1  0
  6  7  1  0
  7  8  1  0
  8  9  1  0
  9 10  2  0
 10 11  1  0
 11 12  1  0
 12 13  1  0
 13 14  1  0
 14 15  1  0
 15 16  1  0
 16 17  1  0
 11 18  2  0
 18 19  1  0
 19 20  1  0
 20 21  1  0
 21 22  1  0
 22 23  1  0
 23 24  1  0
 24 25  1  0
 19 26  2  0
  5 27  2  0
 27  1  1  0
 26  9  1  0
 17 12  1  0
 25 20  1  0
  1 28  1  0
  2 29  1  0
  4 30  1  0
  6 31  1  0
  6 32  1  0
  7 33  1  0
  7 34  1  0
  8 35  1  0
 13 36  1  0
 13 37  1  0
 14 38  1  0
 14 39  1  0
 15 40  1  0
 15 41  1  0
 16 42  1  0
 16 43  1  0
 17 44  1  0
 17 45  1  0
 21 46  1  0
 21 47  1  0
 22 48  1  0
 22 49  1  0
 23 50  1  0
 23 51  1  0
 24 52  1  0
 24 53  1  0
 25 54  1  0
 25 55  1  0
 27 56  1  0
M  CHG  1  23   1
M  END
>  <UniqueID>  (30) 
582

>  <SMILES>  (30) 
c1cncc(CCNc2nc(N3CCCCC3)nc(N3CC[NH2+]CC3)n2)c1

>  <Energy>  (30) 
58.387372391957335

>  <Genealogy>  (30) 
c1cncc(CCNc2nc(N3CCCCC3)nc(N3CC[NH2+]CC3)n2)c1 (protonated)
c1cncc(CCNc2nc(N3CCCCC3)nc(N3CC[NH2+]CC3)n2)c1 (3D coordinates assigned)
c1cncc(CCNc2nc(N3CCCCC3)nc(N3CC[NH2+]CC3)n2)c1 (nonaromatic ring conformer: 58.387372391957335 kcal/mol)

>  <smiles>  (30) 
c1cncc(CCNc2nc(N3CCCCC3)nc(N3CCNCC3)n2)c1

>  <score_type>  (30) 
oracle

>  <origin>  (30) 
autodockgpu

>  <m_score__min__energy>  (30) 
-7.7999999999999998

>  <m_primary>  (30) 
energy

>  <meeko>  (30) 
{"free_energy": -7.28, "intermolecular_energy": -9.07, "internal_energy": -0.85, "cluster_size": 9, "cluster_id": 1, "rank_in_cluster": 6}

>  <energy>  (30) 
-7.61

>  <cluster_rmsd>  (30) 
0.0

>  <rmsd>  (30) 
271.02

>  <cluster>  (30) 
2

$$$$
YQRBYBBKMCEKLP-ODCLCHFBNA-O
     RDKit          3D

 56 59  0  0  0  0  0  0  0  0999 V2000
  141.3770   72.4130  221.4050 C   0  0  0  0  0  0  0  0  0  0  0  0
  140.3290   73.1110  222.0090 C   0  0  0  0  0  0  0  0  0  0  0  0
  140.3060   74.4720  221.9780 N   0  0  0  0  0  0  0  0  0  0  0  0
  141.2850   75.1890  221.3620 C   0  0  0  0  0  0  0  0  0  0  0  0
  142.3490   74.5280  220.7270 C   0  0  0  0  0  0  0  0  0  0  0  0
  143.4370   75.3100  220.0410 C   0  0  0  0  0  0  0  0  0  0  0  0
  143.2250   75.3270  218.5260 C   0  0  0  0  0  0  0  0  0  0  0  0
  142.1120   76.2090  218.1760 N   0  0  0  0  0  0  0  0  0  0  0  0
  142.0880   77.6000  218.5240 C   0  0  0  0  0  0  0  0  0  0  0  0
  141.8320   77.9890  219.7990 N   0  0  0  0  0  0  0  0  0  0  0  0
  141.7940   79.3080  220.1270 C   0  0  0  0  0  0  0  0  0  0  0  0
  141.5340   79.7200  221.4830 N   0  0  0  0  0  0  0  0  0  0  0  0
  141.8090   81.1130  221.8760 C   0  0  0  0  0  0  0  0  0  0  0  0
  141.6860   81.3080  223.3920 C   0  0  0  0  0  0  0  0  0  0  0  0
  142.4010   80.1710  224.1280 C   0  0  0  0  0  0  0  0  0  0  0  0
  141.8400   78.7800  223.7570 C   0  0  0  0  0  0  0  0  0  0  0  0
  140.9880   78.7810  222.4760 C   0  0  0  0  0  0  0  0  0  0  0  0
  142.0190   80.2380  219.1610 N   0  0  0  0  0  0  0  0  0  0  0  0
  142.2750   79.8630  217.8790 C   0  0  0  0  0  0  0  0  0  0  0  0
  142.5120   80.8560  216.8580 N   0  0  0  0  0  0  0  0  0  0  0  0
  143.3690   82.0080  217.1730 C   0  0  0  0  0  0  0  0  0  0  0  0
  143.5460   82.9150  215.9520 C   0  0  0  0  0  0  0  0  0  0  0  0
  143.7890   82.0960  214.7590 N   0  0  0  0  0  0  0  0  0  0  0  0
  142.6050   81.2940  214.3880 C   0  0  0  0  0  0  0  0  0  0  0  0
  141.7570   80.8230  215.5930 C   0  0  0  0  0  0  0  0  0  0  0  0
  142.3090   78.5380  217.5690 N   0  0  0  0  0  0  0  0  0  0  0  0
  142.3950   73.1270  220.7670 C   0  0  0  0  0  0  0  0  0  0  0  0
  141.4009   71.3136  221.4311 H   0  0  0  0  0  0  0  0  0  0  0  0
  139.5201   72.5599  222.5110 H   0  0  0  0  0  0  0  0  0  0  0  0
  141.2429   76.2882  221.3615 H   0  0  0  0  0  0  0  0  0  0  0  0
  143.4296   76.3436  220.4173 H   0  0  0  0  0  0  0  0  0  0  0  0
  144.4033   74.8300  220.2552 H   0  0  0  0  0  0  0  0  0  0  0  0
  144.1413   75.6880  218.0360 H   0  0  0  0  0  0  0  0  0  0  0  0
  142.9915   74.3068  218.1873 H   0  0  0  0  0  0  0  0  0  0  0  0
  141.3090   75.8100  217.6440 H   0  0  0  0  0  0  0  0  0  0  0  0
  142.8304   81.3766  221.5641 H   0  0  0  0  0  0  0  0  0  0  0  0
  141.0680   81.7611  221.3851 H   0  0  0  0  0  0  0  0  0  0  0  0
  142.1431   82.2680  223.6737 H   0  0  0  0  0  0  0  0  0  0  0  0
  140.6219   81.3044  223.6705 H   0  0  0  0  0  0  0  0  0  0  0  0
  143.4697   80.2006  223.8693 H   0  0  0  0  0  0  0  0  0  0  0  0
  142.2412   80.3187  225.2063 H   0  0  0  0  0  0  0  0  0  0  0  0
  142.6855   78.0915  223.6117 H   0  0  0  0  0  0  0  0  0  0  0  0
  141.1824   78.4671  224.5814 H   0  0  0  0  0  0  0  0  0  0  0  0
  140.9805   77.7679  222.0476 H   0  0  0  0  0  0  0  0  0  0  0  0
  139.9663   79.0967  222.7337 H   0  0  0  0  0  0  0  0  0  0  0  0
  142.9075   82.5870  217.9865 H   0  0  0  0  0  0  0  0  0  0  0  0
  144.3581   81.6344  217.4765 H   0  0  0  0  0  0  0  0  0  0  0  0
  142.6345   83.5131  215.8055 H   0  0  0  0  0  0  0  0  0  0  0  0
  144.4040   83.5836  216.1160 H   0  0  0  0  0  0  0  0  0  0  0  0
  144.6020   81.4580  214.9330 H   0  0  0  0  0  0  0  0  0  0  0  0
  144.0360   82.7270  213.9600 H   0  0  0  0  0  0  0  0  0  0  0  0
  141.9656   81.9047  213.7336 H   0  0  0  0  0  0  0  0  0  0  0  0
  142.9798   80.3872  213.8908 H   0  0  0  0  0  0  0  0  0  0  0  0
  140.8808   81.4813  215.6872 H   0  0  0  0  0  0  0  0  0  0  0  0
  141.4596   79.7804  215.4069 H   0  0  0  0  0  0  0  0  0  0  0  0
  143.2320   72.5903  220.2964 H   0  0  0  0  0  0  0  0  0  0  0  0
  1  2  2  0
  2  3  1  0
  3  4  2  0
  4  5  1  0
  5  6  1  0
  6  7  1  0
  7  8  1  0
  8  9  1  0
  9 10  2  0
 10 11  1  0
 11 12  1  0
 12 13  1  0
 13 14  1  0
 14 15  1  0
 15 16  1  0
 16 17  1  0
 11 18  2  0
 18 19  1  0
 19 20  1  0
 20 21  1  0
 21 22  1  0
 22 23  1  0
 23 24  1  0
 24 25  1  0
 19 26  2  0
  5 27  2  0
 27  1  1  0
 26  9  1  0
 17 12  1  0
 25 20  1  0
  1 28  1  0
  2 29  1  0
  4 30  1  0
  6 31  1  0
  6 32  1  0
  7 33  1  0
  7 34  1  0
  8 35  1  0
 13 36  1  0
 13 37  1  0
 14 38  1  0
 14 39  1  0
 15 40  1  0
 15 41  1  0
 16 42  1  0
 16 43  1  0
 17 44  1  0
 17 45  1  0
 21 46  1  0
 21 47  1  0
 22 48  1  0
 22 49  1  0
 23 50  1  0
 23 51  1  0
 24 52  1  0
 24 53  1  0
 25 54  1  0
 25 55  1  0
 27 56  1  0
M  CHG  1  23   1
M  END
>  <UniqueID>  (31) 
582

>  <SMILES>  (31) 
c1cncc(CCNc2nc(N3CCCCC3)nc(N3CC[NH2+]CC3)n2)c1

>  <Energy>  (31) 
58.387372391957335

>  <Genealogy>  (31) 
c1cncc(CCNc2nc(N3CCCCC3)nc(N3CC[NH2+]CC3)n2)c1 (protonated)
c1cncc(CCNc2nc(N3CCCCC3)nc(N3CC[NH2+]CC3)n2)c1 (3D coordinates assigned)
c1cncc(CCNc2nc(N3CCCCC3)nc(N3CC[NH2+]CC3)n2)c1 (nonaromatic ring conformer: 58.387372391957335 kcal/mol)

>  <smiles>  (31) 
c1cncc(CCNc2nc(N3CCCCC3)nc(N3CCNCC3)n2)c1

>  <score_type>  (31) 
oracle

>  <origin>  (31) 
autodockgpu

>  <m_score__min__energy>  (31) 
-7.7999999999999998

>  <m_primary>  (31) 
energy

>  <meeko>  (31) 
{"free_energy": -7.02, "intermolecular_energy": -8.81, "internal_energy": -1.19, "cluster_size": 5, "cluster_id": 4, "rank_in_cluster": 4}

>  <energy>  (31) 
-7.42

>  <cluster_rmsd>  (31) 
0.0

>  <rmsd>  (31) 
270.61

>  <cluster>  (31) 
3

$$$$
YQRBYBBKMCEKLP-ODCLCHFBNA-O
     RDKit          3D

 56 59  0  0  0  0  0  0  0  0999 V2000
  145.4550   74.1240  220.7960 C   0  0  0  0  0  0  0  0  0  0  0  0
  146.3290   73.3700  220.0110 C   0  0  0  0  0  0  0  0  0  0  0  0
  145.8660   72.3030  219.3030 N   0  0  0  0  0  0  0  0  0  0  0  0
  144.5540   71.9430  219.3310 C   0  0  0  0  0  0  0  0  0  0  0  0
  143.6360   72.6840  220.0930 C   0  0  0  0  0  0  0  0  0  0  0  0
  142.1820   72.2970  220.1310 C   0  0  0  0  0  0  0  0  0  0  0  0
  141.6340   72.3740  221.5580 C   0  0  0  0  0  0  0  0  0  0  0  0
  140.6120   73.4140  221.6570 N   0  0  0  0  0  0  0  0  0  0  0  0
  140.8570   74.7790  221.2910 C   0  0  0  0  0  0  0  0  0  0  0  0
  140.6890   75.7780  222.1940 N   0  0  0  0  0  0  0  0  0  0  0  0
  140.9070   77.0730  221.8430 C   0  0  0  0  0  0  0  0  0  0  0  0
  140.7410   78.1330  222.8060 N   0  0  0  0  0  0  0  0  0  0  0  0
  139.4260   78.7830  222.9400 C   0  0  0  0  0  0  0  0  0  0  0  0
  139.4950   80.0210  223.8420 C   0  0  0  0  0  0  0  0  0  0  0  0
  140.7140   80.8710  223.4740 C   0  0  0  0  0  0  0  0  0  0  0  0
  142.0410   80.0910  223.5960 C   0  0  0  0  0  0  0  0  0  0  0  0
  141.8540   78.5650  223.6650 C   0  0  0  0  0  0  0  0  0  0  0  0
  141.3000   77.3590  220.5730 N   0  0  0  0  0  0  0  0  0  0  0  0
  141.4690   76.3690  219.6570 C   0  0  0  0  0  0  0  0  0  0  0  0
  141.8850   76.6790  218.3090 N   0  0  0  0  0  0  0  0  0  0  0  0
  141.2600   77.8160  217.6170 C   0  0  0  0  0  0  0  0  0  0  0  0
  141.8700   78.0200  216.2280 C   0  0  0  0  0  0  0  0  0  0  0  0
  143.3290   77.8920  216.3050 N   0  0  0  0  0  0  0  0  0  0  0  0
  143.7470   76.5130  216.6350 C   0  0  0  0  0  0  0  0  0  0  0  0
  142.7700   75.7620  217.5690 C   0  0  0  0  0  0  0  0  0  0  0  0
  141.2470   75.0780  220.0260 N   0  0  0  0  0  0  0  0  0  0  0  0
  144.1040   73.7750  220.8420 C   0  0  0  0  0  0  0  0  0  0  0  0
  145.8268   74.9840  221.3723 H   0  0  0  0  0  0  0  0  0  0  0  0
  147.3947   73.6386  219.9642 H   0  0  0  0  0  0  0  0  0  0  0  0
  144.2118   71.0701  218.7558 H   0  0  0  0  0  0  0  0  0  0  0  0
  141.6100   72.9820  219.4880 H   0  0  0  0  0  0  0  0  0  0  0  0
  142.0841   71.2618  219.7721 H   0  0  0  0  0  0  0  0  0  0  0  0
  141.1913   71.4041  221.8288 H   0  0  0  0  0  0  0  0  0  0  0  0
  142.4587   72.6184  222.2437 H   0  0  0  0  0  0  0  0  0  0  0  0
  139.6640   73.1490  222.0010 H   0  0  0  0  0  0  0  0  0  0  0  0
  139.0755   79.0875  221.9428 H   0  0  0  0  0  0  0  0  0  0  0  0
  138.7324   78.0627  223.3985 H   0  0  0  0  0  0  0  0  0  0  0  0
  138.5811   80.6189  223.7102 H   0  0  0  0  0  0  0  0  0  0  0  0
  139.5830   79.6991  224.8902 H   0  0  0  0  0  0  0  0  0  0  0  0
  140.6024   81.2159  222.4354 H   0  0  0  0  0  0  0  0  0  0  0  0
  140.7573   81.7140  224.1793 H   0  0  0  0  0  0  0  0  0  0  0  0
  142.6643   80.3258  222.7206 H   0  0  0  0  0  0  0  0  0  0  0  0
  142.5123   80.4015  224.5402 H   0  0  0  0  0  0  0  0  0  0  0  0
  142.7792   78.0733  223.3300 H   0  0  0  0  0  0  0  0  0  0  0  0
  141.6248   78.2857  224.7040 H   0  0  0  0  0  0  0  0  0  0  0  0
  140.1822   77.6234  217.5111 H   0  0  0  0  0  0  0  0  0  0  0  0
  141.4343   78.7249  218.2116 H   0  0  0  0  0  0  0  0  0  0  0  0
  141.4722   77.2605  215.5389 H   0  0  0  0  0  0  0  0  0  0  0  0
  141.6114   79.0240  215.8605 H   0  0  0  0  0  0  0  0  0  0  0  0
  143.7010   78.5510  217.0300 H   0  0  0  0  0  0  0  0  0  0  0  0
  143.7430   78.1590  215.3800 H   0  0  0  0  0  0  0  0  0  0  0  0
  143.8334   75.9448  215.6971 H   0  0  0  0  0  0  0  0  0  0  0  0
  144.7025   76.5923  217.1742 H   0  0  0  0  0  0  0  0  0  0  0  0
  142.1502   75.0857  216.9620 H   0  0  0  0  0  0  0  0  0  0  0  0
  143.3694   75.2066  218.3054 H   0  0  0  0  0  0  0  0  0  0  0  0
  143.4067   74.3546  221.4648 H   0  0  0  0  0  0  0  0  0  0  0  0
  1  2  2  0
  2  3  1  0
  3  4  2  0
  4  5  1  0
  5  6  1  0
  6  7  1  0
  7  8  1  0
  8  9  1  0
  9 10  2  0
 10 11  1  0
 11 12  1  0
 12 13  1  0
 13 14  1  0
 14 15  1  0
 15 16  1  0
 16 17  1  0
 11 18  2  0
 18 19  1  0
 19 20  1  0
 20 21  1  0
 21 22  1  0
 22 23  1  0
 23 24  1  0
 24 25  1  0
 19 26  2  0
  5 27  2  0
 27  1  1  0
 26  9  1  0
 17 12  1  0
 25 20  1  0
  1 28  1  0
  2 29  1  0
  4 30  1  0
  6 31  1  0
  6 32  1  0
  7 33  1  0
  7 34  1  0
  8 35  1  0
 13 36  1  0
 13 37  1  0
 14 38  1  0
 14 39  1  0
 15 40  1  0
 15 41  1  0
 16 42  1  0
 16 43  1  0
 17 44  1  0
 17 45  1  0
 21 46  1  0
 21 47  1  0
 22 48  1  0
 22 49  1  0
 23 50  1  0
 23 51  1  0
 24 52  1  0
 24 53  1  0
 25 54  1  0
 25 55  1  0
 27 56  1  0
M  CHG  1  23   1
M  END
>  <UniqueID>  (32) 
582

>  <SMILES>  (32) 
c1cncc(CCNc2nc(N3CCCCC3)nc(N3CC[NH2+]CC3)n2)c1

>  <Energy>  (32) 
58.387372391957335

>  <Genealogy>  (32) 
c1cncc(CCNc2nc(N3CCCCC3)nc(N3CC[NH2+]CC3)n2)c1 (protonated)
c1cncc(CCNc2nc(N3CCCCC3)nc(N3CC[NH2+]CC3)n2)c1 (3D coordinates assigned)
c1cncc(CCNc2nc(N3CCCCC3)nc(N3CC[NH2+]CC3)n2)c1 (nonaromatic ring conformer: 58.387372391957335 kcal/mol)

>  <smiles>  (32) 
c1cncc(CCNc2nc(N3CCCCC3)nc(N3CCNCC3)n2)c1

>  <score_type>  (32) 
oracle

>  <origin>  (32) 
autodockgpu

>  <m_score__min__energy>  (32) 
-7.7999999999999998

>  <m_primary>  (32) 
energy

>  <meeko>  (32) 
{"free_energy": -7.38, "intermolecular_energy": -9.17, "internal_energy": -1.24, "cluster_size": 4, "cluster_id": 3, "rank_in_cluster": 3}

>  <energy>  (32) 
-7.42

>  <cluster_rmsd>  (32) 
0.06

>  <rmsd>  (32) 
270.63

>  <cluster>  (32) 
3

$$$$
YQRBYBBKMCEKLP-ODCLCHFBNA-O
     RDKit          3D

 56 59  0  0  0  0  0  0  0  0999 V2000
  141.3930   72.2530  227.2710 C   0  0  0  0  0  0  0  0  0  0  0  0
  141.0940   71.4530  228.3760 C   0  0  0  0  0  0  0  0  0  0  0  0
  140.4210   70.2810  228.2100 N   0  0  0  0  0  0  0  0  0  0  0  0
  140.0270   69.8510  226.9800 C   0  0  0  0  0  0  0  0  0  0  0  0
  140.3230   70.6150  225.8390 C   0  0  0  0  0  0  0  0  0  0  0  0
  139.8950   70.1500  224.4730 C   0  0  0  0  0  0  0  0  0  0  0  0
  138.9050   71.1350  223.8480 C   0  0  0  0  0  0  0  0  0  0  0  0
  139.2690   71.4120  222.4590 N   0  0  0  0  0  0  0  0  0  0  0  0
  140.0450   72.5540  222.0740 C   0  0  0  0  0  0  0  0  0  0  0  0
  141.2560   72.4000  221.4820 N   0  0  0  0  0  0  0  0  0  0  0  0
  142.0000   73.4830  221.1310 C   0  0  0  0  0  0  0  0  0  0  0  0
  143.2800   73.3180  220.4910 N   0  0  0  0  0  0  0  0  0  0  0  0
  143.6850   71.9790  220.0280 C   0  0  0  0  0  0  0  0  0  0  0  0
  145.1510   71.9530  219.5810 C   0  0  0  0  0  0  0  0  0  0  0  0
  146.0250   72.6850  220.6030 C   0  0  0  0  0  0  0  0  0  0  0  0
  145.5930   74.1530  220.8100 C   0  0  0  0  0  0  0  0  0  0  0  0
  144.1820   74.4600  220.2790 C   0  0  0  0  0  0  0  0  0  0  0  0
  141.5130   74.7290  221.3760 N   0  0  0  0  0  0  0  0  0  0  0  0
  140.3020   74.8990  221.9700 C   0  0  0  0  0  0  0  0  0  0  0  0
  139.7920   76.2250  222.2290 N   0  0  0  0  0  0  0  0  0  0  0  0
  140.7420   77.3400  222.3540 C   0  0  0  0  0  0  0  0  0  0  0  0
  140.0110   78.6670  222.5690 C   0  0  0  0  0  0  0  0  0  0  0  0
  138.8620   78.7520  221.6610 N   0  0  0  0  0  0  0  0  0  0  0  0
  137.8190   77.7590  221.9930 C   0  0  0  0  0  0  0  0  0  0  0  0
  138.3700   76.4280  222.5580 C   0  0  0  0  0  0  0  0  0  0  0  0
  139.5720   73.8040  222.3150 N   0  0  0  0  0  0  0  0  0  0  0  0
  141.0000   71.8340  225.9980 C   0  0  0  0  0  0  0  0  0  0  0  0
  141.9322   73.2028  227.4019 H   0  0  0  0  0  0  0  0  0  0  0  0
  141.4029   71.7705  229.3829 H   0  0  0  0  0  0  0  0  0  0  0  0
  139.4762   68.9042  226.8794 H   0  0  0  0  0  0  0  0  0  0  0  0
  140.7807   70.0697  223.8257 H   0  0  0  0  0  0  0  0  0  0  0  0
  139.4027   69.1714  224.5724 H   0  0  0  0  0  0  0  0  0  0  0  0
  137.8945   70.7014  223.8782 H   0  0  0  0  0  0  0  0  0  0  0  0
  138.9301   72.0757  224.4177 H   0  0  0  0  0  0  0  0  0  0  0  0
  138.9570   70.7450  221.7200 H   0  0  0  0  0  0  0  0  0  0  0  0
  143.5504   71.2615  220.8508 H   0  0  0  0  0  0  0  0  0  0  0  0
  143.0585   71.7107  219.1646 H   0  0  0  0  0  0  0  0  0  0  0  0
  145.4871   70.9091  219.4960 H   0  0  0  0  0  0  0  0  0  0  0  0
  145.2394   72.4548  218.6061 H   0  0  0  0  0  0  0  0  0  0  0  0
  145.9568   72.1584  221.5664 H   0  0  0  0  0  0  0  0  0  0  0  0
  147.0549   72.6919  220.2167 H   0  0  0  0  0  0  0  0  0  0  0  0
  145.6148   74.3734  221.8875 H   0  0  0  0  0  0  0  0  0  0  0  0
  146.2955   74.7795  220.2408 H   0  0  0  0  0  0  0  0  0  0  0  0
  143.7817   75.3377  220.8075 H   0  0  0  0  0  0  0  0  0  0  0  0
  144.2490   74.6584  219.1991 H   0  0  0  0  0  0  0  0  0  0  0  0
  141.4050   77.1523  223.2115 H   0  0  0  0  0  0  0  0  0  0  0  0
  141.3233   77.4090  221.4227 H   0  0  0  0  0  0  0  0  0  0  0  0
  139.6597   78.7264  223.6097 H   0  0  0  0  0  0  0  0  0  0  0  0
  140.6999   79.4996  222.3633 H   0  0  0  0  0  0  0  0  0  0  0  0
  139.1840   78.6020  220.6750 H   0  0  0  0  0  0  0  0  0  0  0  0
  138.4480   79.7120  221.7250 H   0  0  0  0  0  0  0  0  0  0  0  0
  137.1476   78.2012  222.7438 H   0  0  0  0  0  0  0  0  0  0  0  0
  137.3032   77.5147  221.0527 H   0  0  0  0  0  0  0  0  0  0  0  0
  138.2579   76.4352  223.6523 H   0  0  0  0  0  0  0  0  0  0  0  0
  137.7989   75.6069  222.1002 H   0  0  0  0  0  0  0  0  0  0  0  0
  141.2210   72.4592  225.1203 H   0  0  0  0  0  0  0  0  0  0  0  0
  1  2  2  0
  2  3  1  0
  3  4  2  0
  4  5  1  0
  5  6  1  0
  6  7  1  0
  7  8  1  0
  8  9  1  0
  9 10  2  0
 10 11  1  0
 11 12  1  0
 12 13  1  0
 13 14  1  0
 14 15  1  0
 15 16  1  0
 16 17  1  0
 11 18  2  0
 18 19  1  0
 19 20  1  0
 20 21  1  0
 21 22  1  0
 22 23  1  0
 23 24  1  0
 24 25  1  0
 19 26  2  0
  5 27  2  0
 27  1  1  0
 26  9  1  0
 17 12  1  0
 25 20  1  0
  1 28  1  0
  2 29  1  0
  4 30  1  0
  6 31  1  0
  6 32  1  0
  7 33  1  0
  7 34  1  0
  8 35  1  0
 13 36  1  0
 13 37  1  0
 14 38  1  0
 14 39  1  0
 15 40  1  0
 15 41  1  0
 16 42  1  0
 16 43  1  0
 17 44  1  0
 17 45  1  0
 21 46  1  0
 21 47  1  0
 22 48  1  0
 22 49  1  0
 23 50  1  0
 23 51  1  0
 24 52  1  0
 24 53  1  0
 25 54  1  0
 25 55  1  0
 27 56  1  0
M  CHG  1  23   1
M  END
>  <UniqueID>  (33) 
582

>  <SMILES>  (33) 
c1cncc(CCNc2nc(N3CCCCC3)nc(N3CC[NH2+]CC3)n2)c1

>  <Energy>  (33) 
58.387372391957335

>  <Genealogy>  (33) 
c1cncc(CCNc2nc(N3CCCCC3)nc(N3CC[NH2+]CC3)n2)c1 (protonated)
c1cncc(CCNc2nc(N3CCCCC3)nc(N3CC[NH2+]CC3)n2)c1 (3D coordinates assigned)
c1cncc(CCNc2nc(N3CCCCC3)nc(N3CC[NH2+]CC3)n2)c1 (nonaromatic ring conformer: 58.387372391957335 kcal/mol)

>  <smiles>  (33) 
c1cncc(CCNc2nc(N3CCCCC3)nc(N3CCNCC3)n2)c1

>  <score_type>  (33) 
oracle

>  <origin>  (33) 
autodockgpu

>  <m_score__min__energy>  (33) 
-7.7999999999999998

>  <m_primary>  (33) 
energy

>  <meeko>  (33) 
{"free_energy": -7.25, "intermolecular_energy": -9.04, "internal_energy": -0.92, "cluster_size": 9, "cluster_id": 1, "rank_in_cluster": 7}

>  <energy>  (33) 
-7.38

>  <cluster_rmsd>  (33) 
0.12

>  <rmsd>  (33) 
270.54

>  <cluster>  (33) 
3

$$$$
YQRBYBBKMCEKLP-ODCLCHFBNA-O
     RDKit          3D

 56 59  0  0  0  0  0  0  0  0999 V2000
  141.4500   72.1850  227.4060 C   0  0  0  0  0  0  0  0  0  0  0  0
  140.8740   71.3900  228.3990 C   0  0  0  0  0  0  0  0  0  0  0  0
  140.1050   70.3200  228.0570 N   0  0  0  0  0  0  0  0  0  0  0  0
  139.8790   69.9880  226.7570 C   0  0  0  0  0  0  0  0  0  0  0  0
  140.4540   70.7490  225.7260 C   0  0  0  0  0  0  0  0  0  0  0  0
  140.2130   70.3920  224.2840 C   0  0  0  0  0  0  0  0  0  0  0  0
  138.9770   71.1150  223.7420 C   0  0  0  0  0  0  0  0  0  0  0  0
  139.1950   71.5310  222.3580 N   0  0  0  0  0  0  0  0  0  0  0  0
  140.0040   72.6630  222.0080 C   0  0  0  0  0  0  0  0  0  0  0  0
  141.2100   72.4920  221.4100 N   0  0  0  0  0  0  0  0  0  0  0  0
  141.9840   73.5640  221.0910 C   0  0  0  0  0  0  0  0  0  0  0  0
  143.2600   73.3810  220.4450 N   0  0  0  0  0  0  0  0  0  0  0  0
  143.6150   72.0520  219.9180 C   0  0  0  0  0  0  0  0  0  0  0  0
  145.0800   71.9930  219.4710 C   0  0  0  0  0  0  0  0  0  0  0  0
  145.9780   72.6400  220.5290 C   0  0  0  0  0  0  0  0  0  0  0  0
  145.6010   74.1110  220.8080 C   0  0  0  0  0  0  0  0  0  0  0  0
  144.2050   74.4980  220.2910 C   0  0  0  0  0  0  0  0  0  0  0  0
  141.5340   74.8150  221.3750 N   0  0  0  0  0  0  0  0  0  0  0  0
  140.3280   75.0010  221.9750 C   0  0  0  0  0  0  0  0  0  0  0  0
  139.8560   76.3320  222.2750 N   0  0  0  0  0  0  0  0  0  0  0  0
  140.8360   77.4210  222.4050 C   0  0  0  0  0  0  0  0  0  0  0  0
  140.1420   78.7600  222.6660 C   0  0  0  0  0  0  0  0  0  0  0  0
  138.9770   78.8930  221.7850 N   0  0  0  0  0  0  0  0  0  0  0  0
  137.9170   77.9180  222.1170 C   0  0  0  0  0  0  0  0  0  0  0  0
  138.4470   76.5620  222.6390 C   0  0  0  0  0  0  0  0  0  0  0  0
  139.5670   73.9170  222.2870 N   0  0  0  0  0  0  0  0  0  0  0  0
  141.2330   71.8660  226.0630 C   0  0  0  0  0  0  0  0  0  0  0  0
  142.0681   73.0533  227.6781 H   0  0  0  0  0  0  0  0  0  0  0  0
  141.0419   71.6288  229.4596 H   0  0  0  0  0  0  0  0  0  0  0  0
  139.2452   69.1226  226.5132 H   0  0  0  0  0  0  0  0  0  0  0  0
  141.0909   70.6839  223.6890 H   0  0  0  0  0  0  0  0  0  0  0  0
  140.0450   69.3072  224.2136 H   0  0  0  0  0  0  0  0  0  0  0  0
  138.1125   70.4361  223.7843 H   0  0  0  0  0  0  0  0  0  0  0  0
  138.7879   72.0073  224.3568 H   0  0  0  0  0  0  0  0  0  0  0  0
  138.7500   70.9770  221.5950 H   0  0  0  0  0  0  0  0  0  0  0  0
  143.4518   71.3010  220.7050 H   0  0  0  0  0  0  0  0  0  0  0  0
  142.9806   71.8493  219.0425 H   0  0  0  0  0  0  0  0  0  0  0  0
  145.3769   70.9427  219.3344 H   0  0  0  0  0  0  0  0  0  0  0  0
  145.1898   72.5387  218.5222 H   0  0  0  0  0  0  0  0  0  0  0  0
  145.8872   72.0693  221.4650 H   0  0  0  0  0  0  0  0  0  0  0  0
  147.0086   72.6271  220.1446 H   0  0  0  0  0  0  0  0  0  0  0  0
  145.6273   74.2765  221.8952 H   0  0  0  0  0  0  0  0  0  0  0  0
  146.3286   74.7376  220.2715 H   0  0  0  0  0  0  0  0  0  0  0  0
  143.8365   75.3629  220.8620 H   0  0  0  0  0  0  0  0  0  0  0  0
  144.2827   74.7479  219.2226 H   0  0  0  0  0  0  0  0  0  0  0  0
  141.5120   77.1975  223.2435 H   0  0  0  0  0  0  0  0  0  0  0  0
  141.3994   77.4977  221.4633 H   0  0  0  0  0  0  0  0  0  0  0  0
  139.8140   78.8035  223.7150 H   0  0  0  0  0  0  0  0  0  0  0  0
  140.8463   79.5806  222.4649 H   0  0  0  0  0  0  0  0  0  0  0  0
  139.2740   78.7590  220.7890 H   0  0  0  0  0  0  0  0  0  0  0  0
  138.5880   79.8620  221.8800 H   0  0  0  0  0  0  0  0  0  0  0  0
  137.2729   78.3586  222.8922 H   0  0  0  0  0  0  0  0  0  0  0  0
  137.3752   77.7083  221.1830 H   0  0  0  0  0  0  0  0  0  0  0  0
  138.3583   76.5464  223.7353 H   0  0  0  0  0  0  0  0  0  0  0  0
  137.8464   75.7660  222.1747 H   0  0  0  0  0  0  0  0  0  0  0  0
  141.6725   72.4900  225.2709 H   0  0  0  0  0  0  0  0  0  0  0  0
  1  2  2  0
  2  3  1  0
  3  4  2  0
  4  5  1  0
  5  6  1  0
  6  7  1  0
  7  8  1  0
  8  9  1  0
  9 10  2  0
 10 11  1  0
 11 12  1  0
 12 13  1  0
 13 14  1  0
 14 15  1  0
 15 16  1  0
 16 17  1  0
 11 18  2  0
 18 19  1  0
 19 20  1  0
 20 21  1  0
 21 22  1  0
 22 23  1  0
 23 24  1  0
 24 25  1  0
 19 26  2  0
  5 27  2  0
 27  1  1  0
 26  9  1  0
 17 12  1  0
 25 20  1  0
  1 28  1  0
  2 29  1  0
  4 30  1  0
  6 31  1  0
  6 32  1  0
  7 33  1  0
  7 34  1  0
  8 35  1  0
 13 36  1  0
 13 37  1  0
 14 38  1  0
 14 39  1  0
 15 40  1  0
 15 41  1  0
 16 42  1  0
 16 43  1  0
 17 44  1  0
 17 45  1  0
 21 46  1  0
 21 47  1  0
 22 48  1  0
 22 49  1  0
 23 50  1  0
 23 51  1  0
 24 52  1  0
 24 53  1  0
 25 54  1  0
 25 55  1  0
 27 56  1  0
M  CHG  1  23   1
M  END
>  <UniqueID>  (34) 
582

>  <SMILES>  (34) 
c1cncc(CCNc2nc(N3CCCCC3)nc(N3CC[NH2+]CC3)n2)c1

>  <Energy>  (34) 
58.387372391957335

>  <Genealogy>  (34) 
c1cncc(CCNc2nc(N3CCCCC3)nc(N3CC[NH2+]CC3)n2)c1 (protonated)
c1cncc(CCNc2nc(N3CCCCC3)nc(N3CC[NH2+]CC3)n2)c1 (3D coordinates assigned)
c1cncc(CCNc2nc(N3CCCCC3)nc(N3CC[NH2+]CC3)n2)c1 (nonaromatic ring conformer: 58.387372391957335 kcal/mol)

>  <smiles>  (34) 
c1cncc(CCNc2nc(N3CCCCC3)nc(N3CCNCC3)n2)c1

>  <score_type>  (34) 
oracle

>  <origin>  (34) 
autodockgpu

>  <m_score__min__energy>  (34) 
-7.7999999999999998

>  <m_primary>  (34) 
energy

>  <meeko>  (34) 
{"free_energy": -7.16, "intermolecular_energy": -8.95, "internal_energy": -0.93, "cluster_size": 9, "cluster_id": 1, "rank_in_cluster": 9}

>  <energy>  (34) 
-7.37

>  <cluster_rmsd>  (34) 
0.1

>  <rmsd>  (34) 
270.56

>  <cluster>  (34) 
3

$$$$
YQRBYBBKMCEKLP-ODCLCHFBNA-O
     RDKit          3D

 56 59  0  0  0  0  0  0  0  0999 V2000
  140.9770   68.3610  226.8980 C   0  0  0  0  0  0  0  0  0  0  0  0
  140.0710   67.3860  226.4760 C   0  0  0  0  0  0  0  0  0  0  0  0
  139.2010   67.6540  225.4630 N   0  0  0  0  0  0  0  0  0  0  0  0
  139.1880   68.8600  224.8320 C   0  0  0  0  0  0  0  0  0  0  0  0
  140.0940   69.8630  225.2120 C   0  0  0  0  0  0  0  0  0  0  0  0
  140.0910   71.2000  224.5220 C   0  0  0  0  0  0  0  0  0  0  0  0
  139.2120   71.1660  223.2690 C   0  0  0  0  0  0  0  0  0  0  0  0
  139.0760   72.5070  222.7030 N   0  0  0  0  0  0  0  0  0  0  0  0
  140.1760   73.2140  222.1150 C   0  0  0  0  0  0  0  0  0  0  0  0
  141.2690   72.5440  221.6670 N   0  0  0  0  0  0  0  0  0  0  0  0
  142.3180   73.2160  221.1230 C   0  0  0  0  0  0  0  0  0  0  0  0
  143.4720   72.5030  220.6350 N   0  0  0  0  0  0  0  0  0  0  0  0
  144.7930   73.1540  220.6840 C   0  0  0  0  0  0  0  0  0  0  0  0
  145.8520   72.3440  219.9270 C   0  0  0  0  0  0  0  0  0  0  0  0
  145.2960   71.8850  218.5760 C   0  0  0  0  0  0  0  0  0  0  0  0
  144.0210   71.0270  218.7200 C   0  0  0  0  0  0  0  0  0  0  0  0
  143.3570   71.1360  220.1040 C   0  0  0  0  0  0  0  0  0  0  0  0
  142.2620   74.5710  221.0280 N   0  0  0  0  0  0  0  0  0  0  0  0
  141.1750   75.2560  221.4760 C   0  0  0  0  0  0  0  0  0  0  0  0
  141.1220   76.6950  221.3740 N   0  0  0  0  0  0  0  0  0  0  0  0
  141.0630   77.4930  222.6070 C   0  0  0  0  0  0  0  0  0  0  0  0
  141.0700   78.9920  222.2960 C   0  0  0  0  0  0  0  0  0  0  0  0
  142.0680   79.2770  221.2600 N   0  0  0  0  0  0  0  0  0  0  0  0
  141.6980   78.6850  219.9570 C   0  0  0  0  0  0  0  0  0  0  0  0
  140.9320   77.3460  220.0650 C   0  0  0  0  0  0  0  0  0  0  0  0
  140.1340   74.5670  222.0170 N   0  0  0  0  0  0  0  0  0  0  0  0
  140.9840   69.6070  226.2670 C   0  0  0  0  0  0  0  0  0  0  0  0
  141.6781   68.1500  227.7190 H   0  0  0  0  0  0  0  0  0  0  0  0
  140.0599   66.3996  226.9626 H   0  0  0  0  0  0  0  0  0  0  0  0
  138.4667   69.0490  224.0233 H   0  0  0  0  0  0  0  0  0  0  0  0
  139.7023   71.9616  225.2140 H   0  0  0  0  0  0  0  0  0  0  0  0
  141.1211   71.4432  224.2223 H   0  0  0  0  0  0  0  0  0  0  0  0
  139.6721   70.5026  222.5219 H   0  0  0  0  0  0  0  0  0  0  0  0
  138.2144   70.7929  223.5440 H   0  0  0  0  0  0  0  0  0  0  0  0
  138.1390   72.9620  222.7210 H   0  0  0  0  0  0  0  0  0  0  0  0
  144.7155   74.1526  220.2293 H   0  0  0  0  0  0  0  0  0  0  0  0
  145.1024   73.2237  221.7373 H   0  0  0  0  0  0  0  0  0  0  0  0
  146.7401   72.9715  219.7609 H   0  0  0  0  0  0  0  0  0  0  0  0
  146.1244   71.4608  220.5234 H   0  0  0  0  0  0  0  0  0  0  0  0
  145.0567   72.7735  217.9732 H   0  0  0  0  0  0  0  0  0  0  0  0
  146.0640   71.2626  218.0935 H   0  0  0  0  0  0  0  0  0  0  0  0
  143.2955   71.3522  217.9598 H   0  0  0  0  0  0  0  0  0  0  0  0
  144.3226   69.9773  218.5891 H   0  0  0  0  0  0  0  0  0  0  0  0
  142.2927   70.8727  220.0146 H   0  0  0  0  0  0  0  0  0  0  0  0
  143.8666   70.4470  220.7936 H   0  0  0  0  0  0  0  0  0  0  0  0
  140.1407   77.2438  223.1521 H   0  0  0  0  0  0  0  0  0  0  0  0
  141.9484   77.2591  223.2164 H   0  0  0  0  0  0  0  0  0  0  0  0
  140.0750   79.2960  221.9388 H   0  0  0  0  0  0  0  0  0  0  0  0
  141.3219   79.5523  223.2085 H   0  0  0  0  0  0  0  0  0  0  0  0
  143.0000   78.9030  221.5590 H   0  0  0  0  0  0  0  0  0  0  0  0
  142.1550   80.3150  221.1480 H   0  0  0  0  0  0  0  0  0  0  0  0
  141.0624   79.4039  219.4193 H   0  0  0  0  0  0  0  0  0  0  0  0
  142.6384   78.4700  219.4285 H   0  0  0  0  0  0  0  0  0  0  0  0
  139.8591   77.5398  219.9190 H   0  0  0  0  0  0  0  0  0  0  0  0
  141.3276   76.6696  219.2930 H   0  0  0  0  0  0  0  0  0  0  0  0
  141.6862   70.3870  226.5964 H   0  0  0  0  0  0  0  0  0  0  0  0
  1  2  2  0
  2  3  1  0
  3  4  2  0
  4  5  1  0
  5  6  1  0
  6  7  1  0
  7  8  1  0
  8  9  1  0
  9 10  2  0
 10 11  1  0
 11 12  1  0
 12 13  1  0
 13 14  1  0
 14 15  1  0
 15 16  1  0
 16 17  1  0
 11 18  2  0
 18 19  1  0
 19 20  1  0
 20 21  1  0
 21 22  1  0
 22 23  1  0
 23 24  1  0
 24 25  1  0
 19 26  2  0
  5 27  2  0
 27  1  1  0
 26  9  1  0
 17 12  1  0
 25 20  1  0
  1 28  1  0
  2 29  1  0
  4 30  1  0
  6 31  1  0
  6 32  1  0
  7 33  1  0
  7 34  1  0
  8 35  1  0
 13 36  1  0
 13 37  1  0
 14 38  1  0
 14 39  1  0
 15 40  1  0
 15 41  1  0
 16 42  1  0
 16 43  1  0
 17 44  1  0
 17 45  1  0
 21 46  1  0
 21 47  1  0
 22 48  1  0
 22 49  1  0
 23 50  1  0
 23 51  1  0
 24 52  1  0
 24 53  1  0
 25 54  1  0
 25 55  1  0
 27 56  1  0
M  CHG  1  23   1
M  END
>  <UniqueID>  (35) 
582

>  <SMILES>  (35) 
c1cncc(CCNc2nc(N3CCCCC3)nc(N3CC[NH2+]CC3)n2)c1

>  <Energy>  (35) 
58.387372391957335

>  <Genealogy>  (35) 
c1cncc(CCNc2nc(N3CCCCC3)nc(N3CC[NH2+]CC3)n2)c1 (protonated)
c1cncc(CCNc2nc(N3CCCCC3)nc(N3CC[NH2+]CC3)n2)c1 (3D coordinates assigned)
c1cncc(CCNc2nc(N3CCCCC3)nc(N3CC[NH2+]CC3)n2)c1 (nonaromatic ring conformer: 58.387372391957335 kcal/mol)

>  <smiles>  (35) 
c1cncc(CCNc2nc(N3CCCCC3)nc(N3CCNCC3)n2)c1

>  <score_type>  (35) 
oracle

>  <origin>  (35) 
autodockgpu

>  <m_score__min__energy>  (35) 
-7.7999999999999998

>  <m_primary>  (35) 
energy

>  <meeko>  (35) 
{"free_energy": -7.79, "intermolecular_energy": -9.58, "internal_energy": -0.83, "cluster_size": 9, "cluster_id": 1, "rank_in_cluster": 2}

>  <energy>  (35) 
-7.19

>  <cluster_rmsd>  (35) 
0.0

>  <rmsd>  (35) 
270.31

>  <cluster>  (35) 
4

$$$$
YQRBYBBKMCEKLP-ODCLCHFBNA-O
     RDKit          3D

 56 59  0  0  0  0  0  0  0  0999 V2000
  140.4620   72.0400  221.8800 C   0  0  0  0  0  0  0  0  0  0  0  0
  139.5900   73.0270  222.3450 C   0  0  0  0  0  0  0  0  0  0  0  0
  139.9010   74.3430  222.1870 N   0  0  0  0  0  0  0  0  0  0  0  0
  141.0500   74.7370  221.5740 C   0  0  0  0  0  0  0  0  0  0  0  0
  141.9470   73.7790  221.0750 C   0  0  0  0  0  0  0  0  0  0  0  0
  143.2200   74.2020  220.3930 C   0  0  0  0  0  0  0  0  0  0  0  0
  142.9800   74.4720  218.9060 C   0  0  0  0  0  0  0  0  0  0  0  0
  143.5770   75.7480  218.5160 N   0  0  0  0  0  0  0  0  0  0  0  0
  142.9790   77.0120  218.8320 C   0  0  0  0  0  0  0  0  0  0  0  0
  142.4290   77.2300  220.0540 N   0  0  0  0  0  0  0  0  0  0  0  0
  141.8480   78.4240  220.3490 C   0  0  0  0  0  0  0  0  0  0  0  0
  141.2760   78.6590  221.6510 N   0  0  0  0  0  0  0  0  0  0  0  0
  139.8240   78.4990  221.8370 C   0  0  0  0  0  0  0  0  0  0  0  0
  139.3700   79.0010  223.2130 C   0  0  0  0  0  0  0  0  0  0  0  0
  140.0160   80.3560  223.5170 C   0  0  0  0  0  0  0  0  0  0  0  0
  141.5590   80.2970  223.4910 C   0  0  0  0  0  0  0  0  0  0  0  0
  142.1160   79.0420  222.7970 C   0  0  0  0  0  0  0  0  0  0  0  0
  141.8270   79.4020  219.4050 N   0  0  0  0  0  0  0  0  0  0  0  0
  142.3710   79.1970  218.1770 C   0  0  0  0  0  0  0  0  0  0  0  0
  142.3430   80.2400  217.1790 N   0  0  0  0  0  0  0  0  0  0  0  0
  142.9810   81.5300  217.4800 C   0  0  0  0  0  0  0  0  0  0  0  0
  142.8970   82.4810  216.2840 C   0  0  0  0  0  0  0  0  0  0  0  0
  143.2120   81.7530  215.0500 N   0  0  0  0  0  0  0  0  0  0  0  0
  142.1820   80.7440  214.7250 C   0  0  0  0  0  0  0  0  0  0  0  0
  141.5240   80.0900  215.9630 C   0  0  0  0  0  0  0  0  0  0  0  0
  142.9480   77.9970  217.8990 N   0  0  0  0  0  0  0  0  0  0  0  0
  141.6480   72.4190  221.2480 C   0  0  0  0  0  0  0  0  0  0  0  0
  140.2171   70.9756  222.0103 H   0  0  0  0  0  0  0  0  0  0  0  0
  138.6502   72.7405  222.8398 H   0  0  0  0  0  0  0  0  0  0  0  0
  141.2767   75.8083  221.4691 H   0  0  0  0  0  0  0  0  0  0  0  0
  143.5959   75.1195  220.8694 H   0  0  0  0  0  0  0  0  0  0  0  0
  143.9559   73.3900  220.4881 H   0  0  0  0  0  0  0  0  0  0  0  0
  143.4333   73.6638  218.3133 H   0  0  0  0  0  0  0  0  0  0  0  0
  141.8964   74.5144  218.7218 H   0  0  0  0  0  0  0  0  0  0  0  0
  144.4790   75.7360  217.9930 H   0  0  0  0  0  0  0  0  0  0  0  0
  139.2995   79.0715  221.0578 H   0  0  0  0  0  0  0  0  0  0  0  0
  139.5852   77.4275  221.7669 H   0  0  0  0  0  0  0  0  0  0  0  0
  138.2754   79.1103  223.2177 H   0  0  0  0  0  0  0  0  0  0  0  0
  139.6764   78.2752  223.9807 H   0  0  0  0  0  0  0  0  0  0  0  0
  139.6785   81.0840  222.7646 H   0  0  0  0  0  0  0  0  0  0  0  0
  139.7107   80.6506  224.5319 H   0  0  0  0  0  0  0  0  0  0  0  0
  141.9319   81.1838  222.9575 H   0  0  0  0  0  0  0  0  0  0  0  0
  141.8981   80.2644  224.5369 H   0  0  0  0  0  0  0  0  0  0  0  0
  143.1363   79.2496  222.4422 H   0  0  0  0  0  0  0  0  0  0  0  0
  142.1219   78.2136  223.5207 H   0  0  0  0  0  0  0  0  0  0  0  0
  142.4726   81.9897  218.3404 H   0  0  0  0  0  0  0  0  0  0  0  0
  144.0419   81.3493  217.7077 H   0  0  0  0  0  0  0  0  0  0  0  0
  141.8795   82.8934  216.2156 H   0  0  0  0  0  0  0  0  0  0  0  0
  143.6193   83.2997  216.4183 H   0  0  0  0  0  0  0  0  0  0  0  0
  144.1420   81.2810  215.1500 H   0  0  0  0  0  0  0  0  0  0  0  0
  143.2780   82.4370  214.2590 H   0  0  0  0  0  0  0  0  0  0  0  0
  141.3942   81.2331  214.1333 H   0  0  0  0  0  0  0  0  0  0  0  0
  142.6901   79.9389  214.1740 H   0  0  0  0  0  0  0  0  0  0  0  0
  140.5461   80.5635  216.1350 H   0  0  0  0  0  0  0  0  0  0  0  0
  141.4203   79.0141  215.7589 H   0  0  0  0  0  0  0  0  0  0  0  0
  142.3478   71.6515  220.8858 H   0  0  0  0  0  0  0  0  0  0  0  0
  1  2  2  0
  2  3  1  0
  3  4  2  0
  4  5  1  0
  5  6  1  0
  6  7  1  0
  7  8  1  0
  8  9  1  0
  9 10  2  0
 10 11  1  0
 11 12  1  0
 12 13  1  0
 13 14  1  0
 14 15  1  0
 15 16  1  0
 16 17  1  0
 11 18  2  0
 18 19  1  0
 19 20  1  0
 20 21  1  0
 21 22  1  0
 22 23  1  0
 23 24  1  0
 24 25  1  0
 19 26  2  0
  5 27  2  0
 27  1  1  0
 26  9  1  0
 17 12  1  0
 25 20  1  0
  1 28  1  0
  2 29  1  0
  4 30  1  0
  6 31  1  0
  6 32  1  0
  7 33  1  0
  7 34  1  0
  8 35  1  0
 13 36  1  0
 13 37  1  0
 14 38  1  0
 14 39  1  0
 15 40  1  0
 15 41  1  0
 16 42  1  0
 16 43  1  0
 17 44  1  0
 17 45  1  0
 21 46  1  0
 21 47  1  0
 22 48  1  0
 22 49  1  0
 23 50  1  0
 23 51  1  0
 24 52  1  0
 24 53  1  0
 25 54  1  0
 25 55  1  0
 27 56  1  0
M  CHG  1  23   1
M  END
>  <UniqueID>  (36) 
582

>  <SMILES>  (36) 
c1cncc(CCNc2nc(N3CCCCC3)nc(N3CC[NH2+]CC3)n2)c1

>  <Energy>  (36) 
58.387372391957335

>  <Genealogy>  (36) 
c1cncc(CCNc2nc(N3CCCCC3)nc(N3CC[NH2+]CC3)n2)c1 (protonated)
c1cncc(CCNc2nc(N3CCCCC3)nc(N3CC[NH2+]CC3)n2)c1 (3D coordinates assigned)
c1cncc(CCNc2nc(N3CCCCC3)nc(N3CC[NH2+]CC3)n2)c1 (nonaromatic ring conformer: 58.387372391957335 kcal/mol)

>  <smiles>  (36) 
c1cncc(CCNc2nc(N3CCCCC3)nc(N3CCNCC3)n2)c1

>  <score_type>  (36) 
oracle

>  <origin>  (36) 
autodockgpu

>  <m_score__min__energy>  (36) 
-7.7999999999999998

>  <m_primary>  (36) 
energy

>  <meeko>  (36) 
{"free_energy": -7.19, "intermolecular_energy": -8.98, "internal_energy": -1.16, "cluster_size": 5, "cluster_id": 4, "rank_in_cluster": 1}

>  <energy>  (36) 
-7.19

>  <cluster_rmsd>  (36) 
0.03

>  <rmsd>  (36) 
270.31

>  <cluster>  (36) 
4

$$$$
YQRBYBBKMCEKLP-ODCLCHFBNA-O
     RDKit          3D

 56 59  0  0  0  0  0  0  0  0999 V2000
  145.4850   74.1780  220.8000 C   0  0  0  0  0  0  0  0  0  0  0  0
  146.3270   73.3850  220.0170 C   0  0  0  0  0  0  0  0  0  0  0  0
  145.8200   72.3370  219.3120 N   0  0  0  0  0  0  0  0  0  0  0  0
  144.4930   72.0320  219.3400 C   0  0  0  0  0  0  0  0  0  0  0  0
  143.6070   72.8130  220.1000 C   0  0  0  0  0  0  0  0  0  0  0  0
  142.1380   72.4870  220.1380 C   0  0  0  0  0  0  0  0  0  0  0  0
  141.6220   72.4680  221.5790 C   0  0  0  0  0  0  0  0  0  0  0  0
  140.6430   73.5340  221.7850 N   0  0  0  0  0  0  0  0  0  0  0  0
  140.8880   74.8940  221.4010 C   0  0  0  0  0  0  0  0  0  0  0  0
  140.7310   75.9030  222.2950 N   0  0  0  0  0  0  0  0  0  0  0  0
  140.9480   77.1950  221.9270 C   0  0  0  0  0  0  0  0  0  0  0  0
  140.7940   78.2650  222.8800 N   0  0  0  0  0  0  0  0  0  0  0  0
  139.5270   79.0160  222.9190 C   0  0  0  0  0  0  0  0  0  0  0  0
  139.6250   80.2460  223.8290 C   0  0  0  0  0  0  0  0  0  0  0  0
  140.9310   80.9980  223.5570 C   0  0  0  0  0  0  0  0  0  0  0  0
  142.1800   80.1160  223.7730 C   0  0  0  0  0  0  0  0  0  0  0  0
  141.8700   78.6100  223.8220 C   0  0  0  0  0  0  0  0  0  0  0  0
  141.3290   77.4650  220.6500 N   0  0  0  0  0  0  0  0  0  0  0  0
  141.4880   76.4640  219.7440 C   0  0  0  0  0  0  0  0  0  0  0  0
  141.8910   76.7590  218.3890 N   0  0  0  0  0  0  0  0  0  0  0  0
  141.2650   77.8920  217.6920 C   0  0  0  0  0  0  0  0  0  0  0  0
  141.8610   78.0790  216.2940 C   0  0  0  0  0  0  0  0  0  0  0  0
  143.3200   77.9440  216.3580 N   0  0  0  0  0  0  0  0  0  0  0  0
  143.7350   76.5670  216.6970 C   0  0  0  0  0  0  0  0  0  0  0  0
  142.7630   75.8300  217.6490 C   0  0  0  0  0  0  0  0  0  0  0  0
  141.2660   75.1780  220.1290 N   0  0  0  0  0  0  0  0  0  0  0  0
  144.1200   73.8850  220.8460 C   0  0  0  0  0  0  0  0  0  0  0  0
  145.8921   75.0235  221.3738 H   0  0  0  0  0  0  0  0  0  0  0  0
  147.4031   73.6082  219.9700 H   0  0  0  0  0  0  0  0  0  0  0  0
  144.1146   71.1729  218.7666 H   0  0  0  0  0  0  0  0  0  0  0  0
  141.5851   73.2474  219.5670 H   0  0  0  0  0  0  0  0  0  0  0  0
  141.9866   71.4910  219.6963 H   0  0  0  0  0  0  0  0  0  0  0  0
  141.1475   71.4964  221.7811 H   0  0  0  0  0  0  0  0  0  0  0  0
  142.4691   72.6251  222.2629 H   0  0  0  0  0  0  0  0  0  0  0  0
  139.7280   73.2930  222.2220 H   0  0  0  0  0  0  0  0  0  0  0  0
  139.2763   79.3455  221.8999 H   0  0  0  0  0  0  0  0  0  0  0  0
  138.7473   78.3527  223.3216 H   0  0  0  0  0  0  0  0  0  0  0  0
  138.7730   80.9133  223.6321 H   0  0  0  0  0  0  0  0  0  0  0  0
  139.6092   79.9195  224.8793 H   0  0  0  0  0  0  0  0  0  0  0  0
  140.9243   81.3502  222.5149 H   0  0  0  0  0  0  0  0  0  0  0  0
  140.9875   81.8355  224.2679 H   0  0  0  0  0  0  0  0  0  0  0  0
  142.8824   80.2997  222.9466 H   0  0  0  0  0  0  0  0  0  0  0  0
  142.6030   80.3900  224.7507 H   0  0  0  0  0  0  0  0  0  0  0  0
  142.7765   78.0468  223.5554 H   0  0  0  0  0  0  0  0  0  0  0  0
  141.5426   78.3513  224.8398 H   0  0  0  0  0  0  0  0  0  0  0  0
  140.1851   77.7042  217.5996 H   0  0  0  0  0  0  0  0  0  0  0  0
  141.4509   78.8059  218.2753 H   0  0  0  0  0  0  0  0  0  0  0  0
  141.4522   77.3147  215.6167 H   0  0  0  0  0  0  0  0  0  0  0  0
  141.6033   79.0803  215.9185 H   0  0  0  0  0  0  0  0  0  0  0  0
  143.7030   78.6080  217.0720 H   0  0  0  0  0  0  0  0  0  0  0  0
  143.7260   78.2000  215.4260 H   0  0  0  0  0  0  0  0  0  0  0  0
  143.8092   75.9891  215.7640 H   0  0  0  0  0  0  0  0  0  0  0  0
  144.6966   76.6467  217.2253 H   0  0  0  0  0  0  0  0  0  0  0  0
  142.1332   75.1513  217.0551 H   0  0  0  0  0  0  0  0  0  0  0  0
  143.3669   75.2783  218.3845 H   0  0  0  0  0  0  0  0  0  0  0  0
  143.4472   74.4947  221.4670 H   0  0  0  0  0  0  0  0  0  0  0  0
  1  2  2  0
  2  3  1  0
  3  4  2  0
  4  5  1  0
  5  6  1  0
  6  7  1  0
  7  8  1  0
  8  9  1  0
  9 10  2  0
 10 11  1  0
 11 12  1  0
 12 13  1  0
 13 14  1  0
 14 15  1  0
 15 16  1  0
 16 17  1  0
 11 18  2  0
 18 19  1  0
 19 20  1  0
 20 21  1  0
 21 22  1  0
 22 23  1  0
 23 24  1  0
 24 25  1  0
 19 26  2  0
  5 27  2  0
 27  1  1  0
 26  9  1  0
 17 12  1  0
 25 20  1  0
  1 28  1  0
  2 29  1  0
  4 30  1  0
  6 31  1  0
  6 32  1  0
  7 33  1  0
  7 34  1  0
  8 35  1  0
 13 36  1  0
 13 37  1  0
 14 38  1  0
 14 39  1  0
 15 40  1  0
 15 41  1  0
 16 42  1  0
 16 43  1  0
 17 44  1  0
 17 45  1  0
 21 46  1  0
 21 47  1  0
 22 48  1  0
 22 49  1  0
 23 50  1  0
 23 51  1  0
 24 52  1  0
 24 53  1  0
 25 54  1  0
 25 55  1  0
 27 56  1  0
M  CHG  1  23   1
M  END
>  <UniqueID>  (37) 
582

>  <SMILES>  (37) 
c1cncc(CCNc2nc(N3CCCCC3)nc(N3CC[NH2+]CC3)n2)c1

>  <Energy>  (37) 
58.387372391957335

>  <Genealogy>  (37) 
c1cncc(CCNc2nc(N3CCCCC3)nc(N3CC[NH2+]CC3)n2)c1 (protonated)
c1cncc(CCNc2nc(N3CCCCC3)nc(N3CC[NH2+]CC3)n2)c1 (3D coordinates assigned)
c1cncc(CCNc2nc(N3CCCCC3)nc(N3CC[NH2+]CC3)n2)c1 (nonaromatic ring conformer: 58.387372391957335 kcal/mol)

>  <smiles>  (37) 
c1cncc(CCNc2nc(N3CCCCC3)nc(N3CCNCC3)n2)c1

>  <score_type>  (37) 
oracle

>  <origin>  (37) 
autodockgpu

>  <m_score__min__energy>  (37) 
-7.7999999999999998

>  <m_primary>  (37) 
energy

>  <meeko>  (37) 
{"free_energy": -7.42, "intermolecular_energy": -9.21, "internal_energy": -1.19, "cluster_size": 4, "cluster_id": 3, "rank_in_cluster": 2}

>  <energy>  (37) 
-7.17

>  <cluster_rmsd>  (37) 
0.07

>  <rmsd>  (37) 
270.29

>  <cluster>  (37) 
4

$$$$
YQRBYBBKMCEKLP-ODCLCHFBNA-O
     RDKit          3D

 56 59  0  0  0  0  0  0  0  0999 V2000
  145.4740   74.1870  220.8210 C   0  0  0  0  0  0  0  0  0  0  0  0
  146.3270   73.4030  220.0410 C   0  0  0  0  0  0  0  0  0  0  0  0
  145.8310   72.3580  219.3240 N   0  0  0  0  0  0  0  0  0  0  0  0
  144.5060   72.0470  219.3370 C   0  0  0  0  0  0  0  0  0  0  0  0
  143.6090   72.8200  220.0930 C   0  0  0  0  0  0  0  0  0  0  0  0
  142.1410   72.4880  220.1140 C   0  0  0  0  0  0  0  0  0  0  0  0
  141.6110   72.4500  221.5490 C   0  0  0  0  0  0  0  0  0  0  0  0
  140.6290   73.5130  221.7600 N   0  0  0  0  0  0  0  0  0  0  0  0
  140.8670   74.8740  221.3760 C   0  0  0  0  0  0  0  0  0  0  0  0
  140.6960   75.8830  222.2680 N   0  0  0  0  0  0  0  0  0  0  0  0
  140.9070   77.1760  221.9010 C   0  0  0  0  0  0  0  0  0  0  0  0
  140.7360   78.2450  222.8520 N   0  0  0  0  0  0  0  0  0  0  0  0
  139.4470   78.9550  222.9110 C   0  0  0  0  0  0  0  0  0  0  0  0
  139.5230   80.1930  223.8140 C   0  0  0  0  0  0  0  0  0  0  0  0
  140.7980   80.9850  223.5120 C   0  0  0  0  0  0  0  0  0  0  0  0
  142.0790   80.1460  223.7090 C   0  0  0  0  0  0  0  0  0  0  0  0
  141.8190   78.6300  223.7710 C   0  0  0  0  0  0  0  0  0  0  0  0
  141.2970   77.4480  220.6270 N   0  0  0  0  0  0  0  0  0  0  0  0
  141.4700   76.4480  219.7230 C   0  0  0  0  0  0  0  0  0  0  0  0
  141.8830   76.7440  218.3720 N   0  0  0  0  0  0  0  0  0  0  0  0
  141.2700   77.8840  217.6750 C   0  0  0  0  0  0  0  0  0  0  0  0
  141.8750   78.0710  216.2820 C   0  0  0  0  0  0  0  0  0  0  0  0
  143.3330   77.9250  216.3530 N   0  0  0  0  0  0  0  0  0  0  0  0
  143.7350   76.5430  216.6890 C   0  0  0  0  0  0  0  0  0  0  0  0
  142.7520   75.8110  217.6330 C   0  0  0  0  0  0  0  0  0  0  0  0
  141.2550   75.1600  220.1080 N   0  0  0  0  0  0  0  0  0  0  0  0
  144.1090   73.8890  220.8510 C   0  0  0  0  0  0  0  0  0  0  0  0
  145.8722   75.0297  221.4052 H   0  0  0  0  0  0  0  0  0  0  0  0
  147.4026   73.6308  220.0061 H   0  0  0  0  0  0  0  0  0  0  0  0
  144.1371   71.1896  218.7550 H   0  0  0  0  0  0  0  0  0  0  0  0
  141.5905   73.2529  219.5467 H   0  0  0  0  0  0  0  0  0  0  0  0
  141.9981   71.4964  219.6598 H   0  0  0  0  0  0  0  0  0  0  0  0
  141.1351   71.4756  221.7336 H   0  0  0  0  0  0  0  0  0  0  0  0
  142.4514   72.5988  222.2430 H   0  0  0  0  0  0  0  0  0  0  0  0
  139.7160   73.2670  222.1990 H   0  0  0  0  0  0  0  0  0  0  0  0
  139.1671   79.2711  221.8952 H   0  0  0  0  0  0  0  0  0  0  0  0
  138.6963   78.2694  223.3309 H   0  0  0  0  0  0  0  0  0  0  0  0
  138.6460   80.8313  223.6313 H   0  0  0  0  0  0  0  0  0  0  0  0
  139.5385   79.8718  224.8659 H   0  0  0  0  0  0  0  0  0  0  0  0
  140.7597   81.3296  222.4681 H   0  0  0  0  0  0  0  0  0  0  0  0
  140.8408   81.8287  224.2165 H   0  0  0  0  0  0  0  0  0  0  0  0
  142.7597   80.3481  222.8689 H   0  0  0  0  0  0  0  0  0  0  0  0
  142.5110   80.4392  224.6772 H   0  0  0  0  0  0  0  0  0  0  0  0
  142.7379   78.0952  223.4889 H   0  0  0  0  0  0  0  0  0  0  0  0
  141.5204   78.3662  224.7963 H   0  0  0  0  0  0  0  0  0  0  0  0
  140.1892   77.7049  217.5757 H   0  0  0  0  0  0  0  0  0  0  0  0
  141.4599   78.7945  218.2624 H   0  0  0  0  0  0  0  0  0  0  0  0
  141.4642   77.3120  215.6000 H   0  0  0  0  0  0  0  0  0  0  0  0
  141.6270   79.0756  215.9088 H   0  0  0  0  0  0  0  0  0  0  0  0
  143.7170   78.5840  217.0710 H   0  0  0  0  0  0  0  0  0  0  0  0
  143.7450   78.1810  215.4240 H   0  0  0  0  0  0  0  0  0  0  0  0
  143.8092   75.9679  215.7542 H   0  0  0  0  0  0  0  0  0  0  0  0
  144.6945   76.6126  217.2224 H   0  0  0  0  0  0  0  0  0  0  0  0
  142.1201   75.1395  217.0332 H   0  0  0  0  0  0  0  0  0  0  0  0
  143.3477   75.2524  218.3699 H   0  0  0  0  0  0  0  0  0  0  0  0
  143.4273   74.4923  221.4685 H   0  0  0  0  0  0  0  0  0  0  0  0
  1  2  2  0
  2  3  1  0
  3  4  2  0
  4  5  1  0
  5  6  1  0
  6  7  1  0
  7  8  1  0
  8  9  1  0
  9 10  2  0
 10 11  1  0
 11 12  1  0
 12 13  1  0
 13 14  1  0
 14 15  1  0
 15 16  1  0
 16 17  1  0
 11 18  2  0
 18 19  1  0
 19 20  1  0
 20 21  1  0
 21 22  1  0
 22 23  1  0
 23 24  1  0
 24 25  1  0
 19 26  2  0
  5 27  2  0
 27  1  1  0
 26  9  1  0
 17 12  1  0
 25 20  1  0
  1 28  1  0
  2 29  1  0
  4 30  1  0
  6 31  1  0
  6 32  1  0
  7 33  1  0
  7 34  1  0
  8 35  1  0
 13 36  1  0
 13 37  1  0
 14 38  1  0
 14 39  1  0
 15 40  1  0
 15 41  1  0
 16 42  1  0
 16 43  1  0
 17 44  1  0
 17 45  1  0
 21 46  1  0
 21 47  1  0
 22 48  1  0
 22 49  1  0
 23 50  1  0
 23 51  1  0
 24 52  1  0
 24 53  1  0
 25 54  1  0
 25 55  1  0
 27 56  1  0
M  CHG  1  23   1
M  END
>  <UniqueID>  (38) 
582

>  <SMILES>  (38) 
c1cncc(CCNc2nc(N3CCCCC3)nc(N3CC[NH2+]CC3)n2)c1

>  <Energy>  (38) 
58.387372391957335

>  <Genealogy>  (38) 
c1cncc(CCNc2nc(N3CCCCC3)nc(N3CC[NH2+]CC3)n2)c1 (protonated)
c1cncc(CCNc2nc(N3CCCCC3)nc(N3CC[NH2+]CC3)n2)c1 (3D coordinates assigned)
c1cncc(CCNc2nc(N3CCCCC3)nc(N3CC[NH2+]CC3)n2)c1 (nonaromatic ring conformer: 58.387372391957335 kcal/mol)

>  <smiles>  (38) 
c1cncc(CCNc2nc(N3CCCCC3)nc(N3CCNCC3)n2)c1

>  <score_type>  (38) 
oracle

>  <origin>  (38) 
autodockgpu

>  <m_score__min__energy>  (38) 
-7.7999999999999998

>  <m_primary>  (38) 
energy

>  <meeko>  (38) 
{"free_energy": -7.42, "intermolecular_energy": -9.21, "internal_energy": -1.17, "cluster_size": 4, "cluster_id": 3, "rank_in_cluster": 1}

>  <energy>  (38) 
-7.02

>  <cluster_rmsd>  (38) 
1.11

>  <rmsd>  (38) 
270.4

>  <cluster>  (38) 
4

$$$$
YQRBYBBKMCEKLP-ODCLCHFBNA-O
     RDKit          3D

 56 59  0  0  0  0  0  0  0  0999 V2000
  140.7230   68.5380  227.1470 C   0  0  0  0  0  0  0  0  0  0  0  0
  139.9030   67.5170  226.6630 C   0  0  0  0  0  0  0  0  0  0  0  0
  139.2150   67.6840  225.5000 N   0  0  0  0  0  0  0  0  0  0  0  0
  139.3050   68.8330  224.7760 C   0  0  0  0  0  0  0  0  0  0  0  0
  140.1320   69.8800  225.2160 C   0  0  0  0  0  0  0  0  0  0  0  0
  140.2410   71.1550  224.4240 C   0  0  0  0  0  0  0  0  0  0  0  0
  139.2350   71.1690  223.2700 C   0  0  0  0  0  0  0  0  0  0  0  0
  139.1050   72.5180  222.7220 N   0  0  0  0  0  0  0  0  0  0  0  0
  140.1980   73.2130  222.1080 C   0  0  0  0  0  0  0  0  0  0  0  0
  141.2740   72.5320  221.6390 N   0  0  0  0  0  0  0  0  0  0  0  0
  142.3180   73.1920  221.0700 C   0  0  0  0  0  0  0  0  0  0  0  0
  143.4550   72.4660  220.5600 N   0  0  0  0  0  0  0  0  0  0  0  0
  144.7770   73.1150  220.5540 C   0  0  0  0  0  0  0  0  0  0  0  0
  145.8110   72.2880  219.7790 C   0  0  0  0  0  0  0  0  0  0  0  0
  145.2110   71.8040  218.4560 C   0  0  0  0  0  0  0  0  0  0  0  0
  143.9390   70.9510  218.6580 C   0  0  0  0  0  0  0  0  0  0  0  0
  143.3210   71.0890  220.0600 C   0  0  0  0  0  0  0  0  0  0  0  0
  142.2720   74.5470  220.9720 N   0  0  0  0  0  0  0  0  0  0  0  0
  141.2020   75.2430  221.4400 C   0  0  0  0  0  0  0  0  0  0  0  0
  141.1600   76.6820  221.3340 N   0  0  0  0  0  0  0  0  0  0  0  0
  141.0630   77.4830  222.5630 C   0  0  0  0  0  0  0  0  0  0  0  0
  141.0890   78.9810  222.2500 C   0  0  0  0  0  0  0  0  0  0  0  0
  142.1230   79.2590  221.2480 N   0  0  0  0  0  0  0  0  0  0  0  0
  141.7930   78.6670  219.9340 C   0  0  0  0  0  0  0  0  0  0  0  0
  141.0170   77.3320  220.0190 C   0  0  0  0  0  0  0  0  0  0  0  0
  140.1660   74.5660  222.0060 N   0  0  0  0  0  0  0  0  0  0  0  0
  140.8320   69.7270  226.4220 C   0  0  0  0  0  0  0  0  0  0  0  0
  141.2769   68.4077  228.0884 H   0  0  0  0  0  0  0  0  0  0  0  0
  139.8125   66.5746  227.2230 H   0  0  0  0  0  0  0  0  0  0  0  0
  138.7294   68.9420  223.8450 H   0  0  0  0  0  0  0  0  0  0  0  0
  140.0401   72.0093  225.0872 H   0  0  0  0  0  0  0  0  0  0  0  0
  141.2562   71.2234  224.0061 H   0  0  0  0  0  0  0  0  0  0  0  0
  139.5821   70.4884  222.4786 H   0  0  0  0  0  0  0  0  0  0  0  0
  138.2550   70.8419  223.6477 H   0  0  0  0  0  0  0  0  0  0  0  0
  138.1760   72.9890  222.7740 H   0  0  0  0  0  0  0  0  0  0  0  0
  144.6862   74.1047  220.0826 H   0  0  0  0  0  0  0  0  0  0  0  0
  145.1200   73.2046  221.5953 H   0  0  0  0  0  0  0  0  0  0  0  0
  146.6940   72.9105  219.5722 H   0  0  0  0  0  0  0  0  0  0  0  0
  146.1018   71.4162  220.3834 H   0  0  0  0  0  0  0  0  0  0  0  0
  144.9536   72.6811  217.8440 H   0  0  0  0  0  0  0  0  0  0  0  0
  145.9620   71.1707  217.9612 H   0  0  0  0  0  0  0  0  0  0  0  0
  143.1897   71.2628  217.9155 H   0  0  0  0  0  0  0  0  0  0  0  0
  144.2342   69.8982  218.5379 H   0  0  0  0  0  0  0  0  0  0  0  0
  142.2540   70.8261  220.0106 H   0  0  0  0  0  0  0  0  0  0  0  0
  143.8522   70.4129  220.7461 H   0  0  0  0  0  0  0  0  0  0  0  0
  140.1211   77.2399  223.0765 H   0  0  0  0  0  0  0  0  0  0  0  0
  141.9256   77.2455  223.2029 H   0  0  0  0  0  0  0  0  0  0  0  0
  140.1084   79.2898  221.8588 H   0  0  0  0  0  0  0  0  0  0  0  0
  141.3131   79.5413  223.1697 H   0  0  0  0  0  0  0  0  0  0  0  0
  143.0420   78.8810  221.5790 H   0  0  0  0  0  0  0  0  0  0  0  0
  142.2190   80.2970  221.1380 H   0  0  0  0  0  0  0  0  0  0  0  0
  141.1790   79.3883  219.3747 H   0  0  0  0  0  0  0  0  0  0  0  0
  142.7491   78.4466  219.4367 H   0  0  0  0  0  0  0  0  0  0  0  0
  139.9505   77.5311  219.8374 H   0  0  0  0  0  0  0  0  0  0  0  0
  141.4347   76.6524  219.2616 H   0  0  0  0  0  0  0  0  0  0  0  0
  141.4668   70.5434  226.7968 H   0  0  0  0  0  0  0  0  0  0  0  0
  1  2  2  0
  2  3  1  0
  3  4  2  0
  4  5  1  0
  5  6  1  0
  6  7  1  0
  7  8  1  0
  8  9  1  0
  9 10  2  0
 10 11  1  0
 11 12  1  0
 12 13  1  0
 13 14  1  0
 14 15  1  0
 15 16  1  0
 16 17  1  0
 11 18  2  0
 18 19  1  0
 19 20  1  0
 20 21  1  0
 21 22  1  0
 22 23  1  0
 23 24  1  0
 24 25  1  0
 19 26  2  0
  5 27  2  0
 27  1  1  0
 26  9  1  0
 17 12  1  0
 25 20  1  0
  1 28  1  0
  2 29  1  0
  4 30  1  0
  6 31  1  0
  6 32  1  0
  7 33  1  0
  7 34  1  0
  8 35  1  0
 13 36  1  0
 13 37  1  0
 14 38  1  0
 14 39  1  0
 15 40  1  0
 15 41  1  0
 16 42  1  0
 16 43  1  0
 17 44  1  0
 17 45  1  0
 21 46  1  0
 21 47  1  0
 22 48  1  0
 22 49  1  0
 23 50  1  0
 23 51  1  0
 24 52  1  0
 24 53  1  0
 25 54  1  0
 25 55  1  0
 27 56  1  0
M  CHG  1  23   1
M  END
>  <UniqueID>  (39) 
582

>  <SMILES>  (39) 
c1cncc(CCNc2nc(N3CCCCC3)nc(N3CC[NH2+]CC3)n2)c1

>  <Energy>  (39) 
58.387372391957335

>  <Genealogy>  (39) 
c1cncc(CCNc2nc(N3CCCCC3)nc(N3CC[NH2+]CC3)n2)c1 (protonated)
c1cncc(CCNc2nc(N3CCCCC3)nc(N3CC[NH2+]CC3)n2)c1 (3D coordinates assigned)
c1cncc(CCNc2nc(N3CCCCC3)nc(N3CC[NH2+]CC3)n2)c1 (nonaromatic ring conformer: 58.387372391957335 kcal/mol)

>  <smiles>  (39) 
c1cncc(CCNc2nc(N3CCCCC3)nc(N3CCNCC3)n2)c1

>  <score_type>  (39) 
oracle

>  <origin>  (39) 
autodockgpu

>  <m_score__min__energy>  (39) 
-7.7999999999999998

>  <m_primary>  (39) 
energy

>  <meeko>  (39) 
{"free_energy": -7.8, "intermolecular_energy": -9.58, "internal_energy": -0.83, "cluster_size": 9, "cluster_id": 1, "rank_in_cluster": 1}

>  <energy>  (39) 
-6.49

>  <cluster_rmsd>  (39) 
0.98

>  <rmsd>  (39) 
270.27

>  <cluster>  (39) 
4

$$$$
YQRBYBBKMCEKLP-ODCLCHFBNA-O
     RDKit          3D

 56 59  0  0  0  0  0  0  0  0999 V2000
  141.1040   72.2580  227.4090 C   0  0  0  0  0  0  0  0  0  0  0  0
  140.4240   71.4800  228.3490 C   0  0  0  0  0  0  0  0  0  0  0  0
  139.7300   70.3790  227.9520 N   0  0  0  0  0  0  0  0  0  0  0  0
  139.6790   69.9990  226.6460 C   0  0  0  0  0  0  0  0  0  0  0  0
  140.3620   70.7410  225.6690 C   0  0  0  0  0  0  0  0  0  0  0  0
  140.3150   70.3300  224.2220 C   0  0  0  0  0  0  0  0  0  0  0  0
  138.9470   70.6430  223.6110 C   0  0  0  0  0  0  0  0  0  0  0  0
  138.8940   72.0340  223.1620 N   0  0  0  0  0  0  0  0  0  0  0  0
  139.8380   72.5840  222.2340 C   0  0  0  0  0  0  0  0  0  0  0  0
  140.6250   71.7710  221.4840 N   0  0  0  0  0  0  0  0  0  0  0  0
  141.5310   72.2940  220.6140 C   0  0  0  0  0  0  0  0  0  0  0  0
  142.3580   71.4290  219.8100 N   0  0  0  0  0  0  0  0  0  0  0  0
  141.9850   70.0120  219.6620 C   0  0  0  0  0  0  0  0  0  0  0  0
  143.0870   69.2060  218.9640 C   0  0  0  0  0  0  0  0  0  0  0  0
  144.4530   69.5600  219.5590 C   0  0  0  0  0  0  0  0  0  0  0  0
  144.7810   71.0640  219.4370 C   0  0  0  0  0  0  0  0  0  0  0  0
  143.5550   71.9390  219.1240 C   0  0  0  0  0  0  0  0  0  0  0  0
  141.6390   73.6440  220.5000 N   0  0  0  0  0  0  0  0  0  0  0  0
  140.8580   74.4710  221.2460 C   0  0  0  0  0  0  0  0  0  0  0  0
  140.9790   75.9040  221.1210 N   0  0  0  0  0  0  0  0  0  0  0  0
  140.7790   76.7410  222.3120 C   0  0  0  0  0  0  0  0  0  0  0  0
  141.0040   78.2210  221.9920 C   0  0  0  0  0  0  0  0  0  0  0  0
  142.2000   78.3700  221.1560 N   0  0  0  0  0  0  0  0  0  0  0  0
  142.0140   77.7810  219.8140 C   0  0  0  0  0  0  0  0  0  0  0  0
  141.1030   76.5310  219.7930 C   0  0  0  0  0  0  0  0  0  0  0  0
  139.9570   73.9310  222.1110 N   0  0  0  0  0  0  0  0  0  0  0  0
  141.0660   71.8890  226.0620 C   0  0  0  0  0  0  0  0  0  0  0  0
  141.6630   73.1509  227.7257 H   0  0  0  0  0  0  0  0  0  0  0  0
  140.4496   71.7582  229.4129 H   0  0  0  0  0  0  0  0  0  0  0  0
  139.1016   69.1089  226.3554 H   0  0  0  0  0  0  0  0  0  0  0  0
  141.0914   70.8767  223.6667 H   0  0  0  0  0  0  0  0  0  0  0  0
  140.4894   69.2458  224.1581 H   0  0  0  0  0  0  0  0  0  0  0  0
  138.7733   69.9782  222.7520 H   0  0  0  0  0  0  0  0  0  0  0  0
  138.1712   70.4853  224.3747 H   0  0  0  0  0  0  0  0  0  0  0  0
  138.1330   72.6460  223.5270 H   0  0  0  0  0  0  0  0  0  0  0  0
  141.8076   69.5839  220.6596 H   0  0  0  0  0  0  0  0  0  0  0  0
  141.0769   69.9590  219.0434 H   0  0  0  0  0  0  0  0  0  0  0  0
  142.8964   68.1317  219.1037 H   0  0  0  0  0  0  0  0  0  0  0  0
  143.0870   69.4490  217.8912 H   0  0  0  0  0  0  0  0  0  0  0  0
  144.4560   69.2838  220.6238 H   0  0  0  0  0  0  0  0  0  0  0  0
  145.2167   69.0051  218.9944 H   0  0  0  0  0  0  0  0  0  0  0  0
  145.2163   71.4032  220.3885 H   0  0  0  0  0  0  0  0  0  0  0  0
  145.4793   71.1742  218.5942 H   0  0  0  0  0  0  0  0  0  0  0  0
  143.7516   72.9679  219.4596 H   0  0  0  0  0  0  0  0  0  0  0  0
  143.3748   71.9169  218.0391 H   0  0  0  0  0  0  0  0  0  0  0  0
  139.7504   76.6052  222.6775 H   0  0  0  0  0  0  0  0  0  0  0  0
  141.5063   76.4357  223.0787 H   0  0  0  0  0  0  0  0  0  0  0  0
  140.1299   78.6156  221.4533 H   0  0  0  0  0  0  0  0  0  0  0  0
  141.1431   78.7793  222.9296 H   0  0  0  0  0  0  0  0  0  0  0  0
  143.0150   77.9120  221.6280 H   0  0  0  0  0  0  0  0  0  0  0  0
  142.4160   79.3900  221.0520 H   0  0  0  0  0  0  0  0  0  0  0  0
  141.5674   78.5448  219.1605 H   0  0  0  0  0  0  0  0  0  0  0  0
  143.0069   77.4553  219.4704 H   0  0  0  0  0  0  0  0  0  0  0  0
  140.1019   76.8292  219.4482 H   0  0  0  0  0  0  0  0  0  0  0  0
  141.5597   75.7944  219.1156 H   0  0  0  0  0  0  0  0  0  0  0  0
  141.5880   72.4986  225.3097 H   0  0  0  0  0  0  0  0  0  0  0  0
  1  2  2  0
  2  3  1  0
  3  4  2  0
  4  5  1  0
  5  6  1  0
  6  7  1  0
  7  8  1  0
  8  9  1  0
  9 10  2  0
 10 11  1  0
 11 12  1  0
 12 13  1  0
 13 14  1  0
 14 15  1  0
 15 16  1  0
 16 17  1  0
 11 18  2  0
 18 19  1  0
 19 20  1  0
 20 21  1  0
 21 22  1  0
 22 23  1  0
 23 24  1  0
 24 25  1  0
 19 26  2  0
  5 27  2  0
 27  1  1  0
 26  9  1  0
 17 12  1  0
 25 20  1  0
  1 28  1  0
  2 29  1  0
  4 30  1  0
  6 31  1  0
  6 32  1  0
  7 33  1  0
  7 34  1  0
  8 35  1  0
 13 36  1  0
 13 37  1  0
 14 38  1  0
 14 39  1  0
 15 40  1  0
 15 41  1  0
 16 42  1  0
 16 43  1  0
 17 44  1  0
 17 45  1  0
 21 46  1  0
 21 47  1  0
 22 48  1  0
 22 49  1  0
 23 50  1  0
 23 51  1  0
 24 52  1  0
 24 53  1  0
 25 54  1  0
 25 55  1  0
 27 56  1  0
M  CHG  1  23   1
M  END
>  <UniqueID>  (40) 
582

>  <SMILES>  (40) 
c1cncc(CCNc2nc(N3CCCCC3)nc(N3CC[NH2+]CC3)n2)c1

>  <Energy>  (40) 
58.387372391957335

>  <Genealogy>  (40) 
c1cncc(CCNc2nc(N3CCCCC3)nc(N3CC[NH2+]CC3)n2)c1 (protonated)
c1cncc(CCNc2nc(N3CCCCC3)nc(N3CC[NH2+]CC3)n2)c1 (3D coordinates assigned)
c1cncc(CCNc2nc(N3CCCCC3)nc(N3CC[NH2+]CC3)n2)c1 (nonaromatic ring conformer: 58.387372391957335 kcal/mol)

>  <smiles>  (40) 
c1cncc(CCNc2nc(N3CCCCC3)nc(N3CCNCC3)n2)c1

>  <score_type>  (40) 
oracle

>  <origin>  (40) 
autodockgpu

>  <m_score__min__energy>  (40) 
-7.7999999999999998

>  <m_primary>  (40) 
energy

>  <meeko>  (40) 
{"free_energy": -7.4, "intermolecular_energy": -9.19, "internal_energy": -0.98, "cluster_size": 9, "cluster_id": 1, "rank_in_cluster": 3}

>  <energy>  (40) 
-6.87

>  <cluster_rmsd>  (40) 
0.0

>  <rmsd>  (40) 
270.76

>  <cluster>  (40) 
5

$$$$
YQRBYBBKMCEKLP-ODCLCHFBNA-O
     RDKit          3D

 56 59  0  0  0  0  0  0  0  0999 V2000
  140.6750   68.3930  227.2630 C   0  0  0  0  0  0  0  0  0  0  0  0
  139.8210   67.4340  226.7140 C   0  0  0  0  0  0  0  0  0  0  0  0
  139.1790   67.6820  225.5400 N   0  0  0  0  0  0  0  0  0  0  0  0
  139.3470   68.8530  224.8670 C   0  0  0  0  0  0  0  0  0  0  0  0
  140.2100   69.8380  225.3730 C   0  0  0  0  0  0  0  0  0  0  0  0
  140.4060   71.1370  224.6370 C   0  0  0  0  0  0  0  0  0  0  0  0
  139.7210   71.0970  223.2690 C   0  0  0  0  0  0  0  0  0  0  0  0
  139.2220   72.4230  222.9100 N   0  0  0  0  0  0  0  0  0  0  0  0
  140.0370   73.4080  222.2610 C   0  0  0  0  0  0  0  0  0  0  0  0
  139.7340   74.7280  222.3560 N   0  0  0  0  0  0  0  0  0  0  0  0
  140.4980   75.6620  221.7290 C   0  0  0  0  0  0  0  0  0  0  0  0
  140.1820   77.0640  221.8410 N   0  0  0  0  0  0  0  0  0  0  0  0
  141.2800   78.0440  221.9100 C   0  0  0  0  0  0  0  0  0  0  0  0
  140.7650   79.4490  222.2480 C   0  0  0  0  0  0  0  0  0  0  0  0
  139.7560   79.3750  223.3980 C   0  0  0  0  0  0  0  0  0  0  0  0
  138.5510   78.4660  223.0730 C   0  0  0  0  0  0  0  0  0  0  0  0
  138.7890   77.5330  221.8730 C   0  0  0  0  0  0  0  0  0  0  0  0
  141.5770   75.2590  221.0060 N   0  0  0  0  0  0  0  0  0  0  0  0
  141.8920   73.9410  220.9000 C   0  0  0  0  0  0  0  0  0  0  0  0
  143.0380   73.5200  220.1290 N   0  0  0  0  0  0  0  0  0  0  0  0
  142.9210   73.4440  218.6660 C   0  0  0  0  0  0  0  0  0  0  0  0
  144.2500   73.0360  218.0260 C   0  0  0  0  0  0  0  0  0  0  0  0
  145.3500   73.7720  218.6590 N   0  0  0  0  0  0  0  0  0  0  0  0
  145.5430   73.3740  220.0690 C   0  0  0  0  0  0  0  0  0  0  0  0
  144.2360   72.9870  220.8010 C   0  0  0  0  0  0  0  0  0  0  0  0
  141.1160   73.0200  221.5350 N   0  0  0  0  0  0  0  0  0  0  0  0
  140.8640   69.6030  226.5920 C   0  0  0  0  0  0  0  0  0  0  0  0
  141.1930   68.1974  228.2135 H   0  0  0  0  0  0  0  0  0  0  0  0
  139.6669   66.4758  227.2318 H   0  0  0  0  0  0  0  0  0  0  0  0
  138.8059   69.0279  223.9254 H   0  0  0  0  0  0  0  0  0  0  0  0
  139.9759   71.9565  225.2315 H   0  0  0  0  0  0  0  0  0  0  0  0
  141.4838   71.2970  224.4863 H   0  0  0  0  0  0  0  0  0  0  0  0
  140.4452   70.7647  222.5106 H   0  0  0  0  0  0  0  0  0  0  0  0
  138.8735   70.3972  223.3147 H   0  0  0  0  0  0  0  0  0  0  0  0
  138.2290   72.6570  223.1270 H   0  0  0  0  0  0  0  0  0  0  0  0
  141.9914   77.7284  222.6873 H   0  0  0  0  0  0  0  0  0  0  0  0
  141.7663   78.0846  220.9242 H   0  0  0  0  0  0  0  0  0  0  0  0
  141.6114   80.0851  222.5465 H   0  0  0  0  0  0  0  0  0  0  0  0
  140.2718   79.8754  221.3620 H   0  0  0  0  0  0  0  0  0  0  0  0
  140.2656   78.9793  224.2889 H   0  0  0  0  0  0  0  0  0  0  0  0
  139.3704   80.3910  223.5688 H   0  0  0  0  0  0  0  0  0  0  0  0
  138.3336   77.8477  223.9564 H   0  0  0  0  0  0  0  0  0  0  0  0
  137.7119   79.1257  222.8071 H   0  0  0  0  0  0  0  0  0  0  0  0
  138.1185   76.6647  221.9534 H   0  0  0  0  0  0  0  0  0  0  0  0
  138.5850   78.0917  220.9477 H   0  0  0  0  0  0  0  0  0  0  0  0
  142.1537   72.7001  218.4054 H   0  0  0  0  0  0  0  0  0  0  0  0
  142.6417   74.4379  218.2864 H   0  0  0  0  0  0  0  0  0  0  0  0
  144.4058   71.9558  218.1637 H   0  0  0  0  0  0  0  0  0  0  0  0
  144.2246   73.2715  216.9518 H   0  0  0  0  0  0  0  0  0  0  0  0
  145.1560   74.8010  218.6110 H   0  0  0  0  0  0  0  0  0  0  0  0
  146.2340   73.5830  218.1290 H   0  0  0  0  0  0  0  0  0  0  0  0
  146.2219   72.5089  220.0939 H   0  0  0  0  0  0  0  0  0  0  0  0
  145.9521   74.2505  220.5927 H   0  0  0  0  0  0  0  0  0  0  0  0
  144.1625   71.8900  220.8369 H   0  0  0  0  0  0  0  0  0  0  0  0
  144.2756   73.4211  221.8109 H   0  0  0  0  0  0  0  0  0  0  0  0
  141.5252   70.3715  227.0188 H   0  0  0  0  0  0  0  0  0  0  0  0
  1  2  2  0
  2  3  1  0
  3  4  2  0
  4  5  1  0
  5  6  1  0
  6  7  1  0
  7  8  1  0
  8  9  1  0
  9 10  2  0
 10 11  1  0
 11 12  1  0
 12 13  1  0
 13 14  1  0
 14 15  1  0
 15 16  1  0
 16 17  1  0
 11 18  2  0
 18 19  1  0
 19 20  1  0
 20 21  1  0
 21 22  1  0
 22 23  1  0
 23 24  1  0
 24 25  1  0
 19 26  2  0
  5 27  2  0
 27  1  1  0
 26  9  1  0
 17 12  1  0
 25 20  1  0
  1 28  1  0
  2 29  1  0
  4 30  1  0
  6 31  1  0
  6 32  1  0
  7 33  1  0
  7 34  1  0
  8 35  1  0
 13 36  1  0
 13 37  1  0
 14 38  1  0
 14 39  1  0
 15 40  1  0
 15 41  1  0
 16 42  1  0
 16 43  1  0
 17 44  1  0
 17 45  1  0
 21 46  1  0
 21 47  1  0
 22 48  1  0
 22 49  1  0
 23 50  1  0
 23 51  1  0
 24 52  1  0
 24 53  1  0
 25 54  1  0
 25 55  1  0
 27 56  1  0
M  CHG  1  23   1
M  END
>  <UniqueID>  (41) 
583

>  <SMILES>  (41) 
c1cncc(CCNc2nc(N3CCCCC3)nc(N3CC[NH2+]CC3)n2)c1

>  <Energy>  (41) 
59.02563653953893

>  <Genealogy>  (41) 
c1cncc(CCNc2nc(N3CCCCC3)nc(N3CC[NH2+]CC3)n2)c1 (protonated)
c1cncc(CCNc2nc(N3CCCCC3)nc(N3CC[NH2+]CC3)n2)c1 (3D coordinates assigned)
c1cncc(CCNc2nc(N3CCCCC3)nc(N3CC[NH2+]CC3)n2)c1 (nonaromatic ring conformer: 59.02563653953893 kcal/mol)

>  <smiles>  (41) 
c1cncc(CCNc2nc(N3CCCCC3)nc(N3CCNCC3)n2)c1

>  <score_type>  (41) 
oracle

>  <origin>  (41) 
autodockgpu

>  <m_score__min__energy>  (41) 
-7.7999999999999998

>  <m_primary>  (41) 
energy

>  <meeko>  (41) 
{"free_energy": -7.61, "intermolecular_energy": -9.4, "internal_energy": -0.75, "cluster_size": 1, "cluster_id": 2, "rank_in_cluster": 1}

>  <energy>  (41) 
-7.8

>  <cluster_rmsd>  (41) 
0.0

>  <rmsd>  (41) 
271.09

>  <cluster>  (41) 
1

$$$$
YQRBYBBKMCEKLP-ODCLCHFBNA-O
     RDKit          3D

 56 59  0  0  0  0  0  0  0  0999 V2000
  140.4630   72.0660  221.8610 C   0  0  0  0  0  0  0  0  0  0  0  0
  139.5700   73.0400  222.3110 C   0  0  0  0  0  0  0  0  0  0  0  0
  139.8670   74.3610  222.1650 N   0  0  0  0  0  0  0  0  0  0  0  0
  141.0240   74.7720  221.5780 C   0  0  0  0  0  0  0  0  0  0  0  0
  141.9430   73.8270  221.0940 C   0  0  0  0  0  0  0  0  0  0  0  0
  143.2250   74.2680  220.4420 C   0  0  0  0  0  0  0  0  0  0  0  0
  143.0410   74.4350  218.9320 C   0  0  0  0  0  0  0  0  0  0  0  0
  143.5890   75.7160  218.4890 N   0  0  0  0  0  0  0  0  0  0  0  0
  142.9790   76.9720  218.8120 C   0  0  0  0  0  0  0  0  0  0  0  0
  142.4260   77.1780  220.0350 N   0  0  0  0  0  0  0  0  0  0  0  0
  141.8350   78.3650  220.3370 C   0  0  0  0  0  0  0  0  0  0  0  0
  141.2600   78.5870  221.6400 N   0  0  0  0  0  0  0  0  0  0  0  0
  139.8160   78.3680  221.8350 C   0  0  0  0  0  0  0  0  0  0  0  0
  139.3480   78.8630  223.2090 C   0  0  0  0  0  0  0  0  0  0  0  0
  139.9390   80.2460  223.4980 C   0  0  0  0  0  0  0  0  0  0  0  0
  141.4830   80.2500  223.4650 C   0  0  0  0  0  0  0  0  0  0  0  0
  142.0880   79.0140  222.7780 C   0  0  0  0  0  0  0  0  0  0  0  0
  141.8050   79.3490  219.3990 N   0  0  0  0  0  0  0  0  0  0  0  0
  142.3530   79.1560  218.1700 C   0  0  0  0  0  0  0  0  0  0  0  0
  142.3160   80.2050  217.1780 N   0  0  0  0  0  0  0  0  0  0  0  0
  142.9500   81.4960  217.4850 C   0  0  0  0  0  0  0  0  0  0  0  0
  142.8570   82.4540  216.2940 C   0  0  0  0  0  0  0  0  0  0  0  0
  143.1710   81.7340  215.0550 N   0  0  0  0  0  0  0  0  0  0  0  0
  142.1440   80.7230  214.7280 C   0  0  0  0  0  0  0  0  0  0  0  0
  141.4930   80.0580  215.9640 C   0  0  0  0  0  0  0  0  0  0  0  0
  142.9410   77.9630  217.8850 N   0  0  0  0  0  0  0  0  0  0  0  0
  141.6580   72.4620  221.2560 C   0  0  0  0  0  0  0  0  0  0  0  0
  140.2281   70.9982  221.9815 H   0  0  0  0  0  0  0  0  0  0  0  0
  138.6238   72.7397  222.7849 H   0  0  0  0  0  0  0  0  0  0  0  0
  141.2397   75.8464  221.4825 H   0  0  0  0  0  0  0  0  0  0  0  0
  143.5370   75.2297  220.8752 H   0  0  0  0  0  0  0  0  0  0  0  0
  143.9918   73.4995  220.6195 H   0  0  0  0  0  0  0  0  0  0  0  0
  143.5624   73.6184  218.4111 H   0  0  0  0  0  0  0  0  0  0  0  0
  141.9663   74.4076  218.6989 H   0  0  0  0  0  0  0  0  0  0  0  0
  144.4630   75.7130  217.9210 H   0  0  0  0  0  0  0  0  0  0  0  0
  139.2643   78.9110  221.0535 H   0  0  0  0  0  0  0  0  0  0  0  0
  139.6219   77.2869  221.7755 H   0  0  0  0  0  0  0  0  0  0  0  0
  138.2499   78.9272  223.2182 H   0  0  0  0  0  0  0  0  0  0  0  0
  139.6875   78.1572  223.9814 H   0  0  0  0  0  0  0  0  0  0  0  0
  139.5685   80.9528  222.7409 H   0  0  0  0  0  0  0  0  0  0  0  0
  139.6264   80.5370  224.5117 H   0  0  0  0  0  0  0  0  0  0  0  0
  141.8168   81.1472  222.9231 H   0  0  0  0  0  0  0  0  0  0  0  0
  141.8277   80.2393  224.5095 H   0  0  0  0  0  0  0  0  0  0  0  0
  143.0971   79.2610  222.4163 H   0  0  0  0  0  0  0  0  0  0  0  0
  142.1314   78.1925  223.5083 H   0  0  0  0  0  0  0  0  0  0  0  0
  142.4430   81.9483  218.3501 H   0  0  0  0  0  0  0  0  0  0  0  0
  144.0124   81.3187  217.7081 H   0  0  0  0  0  0  0  0  0  0  0  0
  141.8373   82.8619  216.2315 H   0  0  0  0  0  0  0  0  0  0  0  0
  143.5757   83.2756  216.4302 H   0  0  0  0  0  0  0  0  0  0  0  0
  144.1030   81.2660  215.1490 H   0  0  0  0  0  0  0  0  0  0  0  0
  143.2300   82.4230  214.2680 H   0  0  0  0  0  0  0  0  0  0  0  0
  141.3520   81.2127  214.1424 H   0  0  0  0  0  0  0  0  0  0  0  0
  142.6536   79.9234  214.1704 H   0  0  0  0  0  0  0  0  0  0  0  0
  140.5134   80.5256  216.1422 H   0  0  0  0  0  0  0  0  0  0  0  0
  141.3933   78.9829  215.7537 H   0  0  0  0  0  0  0  0  0  0  0  0
  142.3754   71.7048  220.9067 H   0  0  0  0  0  0  0  0  0  0  0  0
  1  2  2  0
  2  3  1  0
  3  4  2  0
  4  5  1  0
  5  6  1  0
  6  7  1  0
  7  8  1  0
  8  9  1  0
  9 10  2  0
 10 11  1  0
 11 12  1  0
 12 13  1  0
 13 14  1  0
 14 15  1  0
 15 16  1  0
 16 17  1  0
 11 18  2  0
 18 19  1  0
 19 20  1  0
 20 21  1  0
 21 22  1  0
 22 23  1  0
 23 24  1  0
 24 25  1  0
 19 26  2  0
  5 27  2  0
 27  1  1  0
 26  9  1  0
 17 12  1  0
 25 20  1  0
  1 28  1  0
  2 29  1  0
  4 30  1  0
  6 31  1  0
  6 32  1  0
  7 33  1  0
  7 34  1  0
  8 35  1  0
 13 36  1  0
 13 37  1  0
 14 38  1  0
 14 39  1  0
 15 40  1  0
 15 41  1  0
 16 42  1  0
 16 43  1  0
 17 44  1  0
 17 45  1  0
 21 46  1  0
 21 47  1  0
 22 48  1  0
 22 49  1  0
 23 50  1  0
 23 51  1  0
 24 52  1  0
 24 53  1  0
 25 54  1  0
 25 55  1  0
 27 56  1  0
M  CHG  1  23   1
M  END
>  <UniqueID>  (42) 
583

>  <SMILES>  (42) 
c1cncc(CCNc2nc(N3CCCCC3)nc(N3CC[NH2+]CC3)n2)c1

>  <Energy>  (42) 
59.02563653953893

>  <Genealogy>  (42) 
c1cncc(CCNc2nc(N3CCCCC3)nc(N3CC[NH2+]CC3)n2)c1 (protonated)
c1cncc(CCNc2nc(N3CCCCC3)nc(N3CC[NH2+]CC3)n2)c1 (3D coordinates assigned)
c1cncc(CCNc2nc(N3CCCCC3)nc(N3CC[NH2+]CC3)n2)c1 (nonaromatic ring conformer: 59.02563653953893 kcal/mol)

>  <smiles>  (42) 
c1cncc(CCNc2nc(N3CCCCC3)nc(N3CCNCC3)n2)c1

>  <score_type>  (42) 
oracle

>  <origin>  (42) 
autodockgpu

>  <m_score__min__energy>  (42) 
-7.7999999999999998

>  <m_primary>  (42) 
energy

>  <meeko>  (42) 
{"free_energy": -7.17, "intermolecular_energy": -8.96, "internal_energy": -1.18, "cluster_size": 5, "cluster_id": 4, "rank_in_cluster": 3}

>  <energy>  (42) 
-7.79

>  <cluster_rmsd>  (42) 
0.13

>  <rmsd>  (42) 
271.1

>  <cluster>  (42) 
1

$$$$
YQRBYBBKMCEKLP-ODCLCHFBNA-O
     RDKit          3D

 56 59  0  0  0  0  0  0  0  0999 V2000
  140.4490   72.0230  221.8820 C   0  0  0  0  0  0  0  0  0  0  0  0
  139.5740   73.0080  222.3460 C   0  0  0  0  0  0  0  0  0  0  0  0
  139.8820   74.3250  222.1890 N   0  0  0  0  0  0  0  0  0  0  0  0
  141.0330   74.7220  221.5800 C   0  0  0  0  0  0  0  0  0  0  0  0
  141.9330   73.7650  221.0820 C   0  0  0  0  0  0  0  0  0  0  0  0
  143.2080   74.1910  220.4050 C   0  0  0  0  0  0  0  0  0  0  0  0
  142.9730   74.4530  218.9160 C   0  0  0  0  0  0  0  0  0  0  0  0
  143.5640   75.7310  218.5230 N   0  0  0  0  0  0  0  0  0  0  0  0
  142.9640   76.9930  218.8440 C   0  0  0  0  0  0  0  0  0  0  0  0
  142.4180   77.2080  220.0680 N   0  0  0  0  0  0  0  0  0  0  0  0
  141.8360   78.4000  220.3680 C   0  0  0  0  0  0  0  0  0  0  0  0
  141.2680   78.6310  221.6720 N   0  0  0  0  0  0  0  0  0  0  0  0
  139.8160   78.4650  221.8630 C   0  0  0  0  0  0  0  0  0  0  0  0
  139.3660   78.9640  223.2420 C   0  0  0  0  0  0  0  0  0  0  0  0
  140.0080   80.3210  223.5450 C   0  0  0  0  0  0  0  0  0  0  0  0
  141.5510   80.2660  223.5140 C   0  0  0  0  0  0  0  0  0  0  0  0
  142.1100   79.0150  222.8150 C   0  0  0  0  0  0  0  0  0  0  0  0
  141.8090   79.3800  219.4260 N   0  0  0  0  0  0  0  0  0  0  0  0
  142.3490   79.1780  218.1950 C   0  0  0  0  0  0  0  0  0  0  0  0
  142.3160   80.2230  217.1990 N   0  0  0  0  0  0  0  0  0  0  0  0
  142.9480   81.5150  217.5030 C   0  0  0  0  0  0  0  0  0  0  0  0
  142.8580   82.4690  216.3080 C   0  0  0  0  0  0  0  0  0  0  0  0
  143.1760   81.7440  215.0730 N   0  0  0  0  0  0  0  0  0  0  0  0
  142.1500   80.7320  214.7470 C   0  0  0  0  0  0  0  0  0  0  0  0
  141.4960   80.0720  215.9840 C   0  0  0  0  0  0  0  0  0  0  0  0
  142.9280   77.9800  217.9120 N   0  0  0  0  0  0  0  0  0  0  0  0
  141.6360   72.4050  221.2540 C   0  0  0  0  0  0  0  0  0  0  0  0
  140.2055   70.9580  222.0100 H   0  0  0  0  0  0  0  0  0  0  0  0
  138.6342   72.7191  222.8392 H   0  0  0  0  0  0  0  0  0  0  0  0
  141.2587   75.7937  221.4777 H   0  0  0  0  0  0  0  0  0  0  0  0
  143.5773   75.1123  220.8791 H   0  0  0  0  0  0  0  0  0  0  0  0
  143.9478   73.3835  220.5078 H   0  0  0  0  0  0  0  0  0  0  0  0
  143.4338   73.6450  218.3289 H   0  0  0  0  0  0  0  0  0  0  0  0
  141.8900   74.4880  218.7269 H   0  0  0  0  0  0  0  0  0  0  0  0
  144.4630   75.7220  217.9950 H   0  0  0  0  0  0  0  0  0  0  0  0
  139.2864   79.0365  221.0865 H   0  0  0  0  0  0  0  0  0  0  0  0
  139.5805   77.3929  221.7919 H   0  0  0  0  0  0  0  0  0  0  0  0
  138.2711   79.0691  223.2515 H   0  0  0  0  0  0  0  0  0  0  0  0
  139.6786   78.2385  224.0074 H   0  0  0  0  0  0  0  0  0  0  0  0
  139.6659   81.0485  222.7942 H   0  0  0  0  0  0  0  0  0  0  0  0
  139.7046   80.6147  224.5607 H   0  0  0  0  0  0  0  0  0  0  0  0
  141.9198   81.1554  222.9820 H   0  0  0  0  0  0  0  0  0  0  0  0
  141.8930   80.2309  224.5589 H   0  0  0  0  0  0  0  0  0  0  0  0
  143.1281   79.2275  222.4568 H   0  0  0  0  0  0  0  0  0  0  0  0
  142.1216   78.1851  223.5369 H   0  0  0  0  0  0  0  0  0  0  0  0
  142.4382   81.9701  218.3649 H   0  0  0  0  0  0  0  0  0  0  0  0
  144.0099   81.3391  217.7298 H   0  0  0  0  0  0  0  0  0  0  0  0
  141.8384   82.8763  216.2410 H   0  0  0  0  0  0  0  0  0  0  0  0
  143.5756   83.2917  216.4431 H   0  0  0  0  0  0  0  0  0  0  0  0
  144.1080   81.2770  215.1710 H   0  0  0  0  0  0  0  0  0  0  0  0
  143.2380   82.4310  214.2840 H   0  0  0  0  0  0  0  0  0  0  0  0
  141.3595   81.2194  214.1575 H   0  0  0  0  0  0  0  0  0  0  0  0
  142.6608   79.9303  214.1935 H   0  0  0  0  0  0  0  0  0  0  0  0
  140.5162   80.5407  216.1582 H   0  0  0  0  0  0  0  0  0  0  0  0
  141.3963   78.9962  215.7775 H   0  0  0  0  0  0  0  0  0  0  0  0
  142.3386   71.6390  220.8939 H   0  0  0  0  0  0  0  0  0  0  0  0
  1  2  2  0
  2  3  1  0
  3  4  2  0
  4  5  1  0
  5  6  1  0
  6  7  1  0
  7  8  1  0
  8  9  1  0
  9 10  2  0
 10 11  1  0
 11 12  1  0
 12 13  1  0
 13 14  1  0
 14 15  1  0
 15 16  1  0
 16 17  1  0
 11 18  2  0
 18 19  1  0
 19 20  1  0
 20 21  1  0
 21 22  1  0
 22 23  1  0
 23 24  1  0
 24 25  1  0
 19 26  2  0
  5 27  2  0
 27  1  1  0
 26  9  1  0
 17 12  1  0
 25 20  1  0
  1 28  1  0
  2 29  1  0
  4 30  1  0
  6 31  1  0
  6 32  1  0
  7 33  1  0
  7 34  1  0
  8 35  1  0
 13 36  1  0
 13 37  1  0
 14 38  1  0
 14 39  1  0
 15 40  1  0
 15 41  1  0
 16 42  1  0
 16 43  1  0
 17 44  1  0
 17 45  1  0
 21 46  1  0
 21 47  1  0
 22 48  1  0
 22 49  1  0
 23 50  1  0
 23 51  1  0
 24 52  1  0
 24 53  1  0
 25 54  1  0
 25 55  1  0
 27 56  1  0
M  CHG  1  23   1
M  END
>  <UniqueID>  (43) 
583

>  <SMILES>  (43) 
c1cncc(CCNc2nc(N3CCCCC3)nc(N3CC[NH2+]CC3)n2)c1

>  <Energy>  (43) 
59.02563653953893

>  <Genealogy>  (43) 
c1cncc(CCNc2nc(N3CCCCC3)nc(N3CC[NH2+]CC3)n2)c1 (protonated)
c1cncc(CCNc2nc(N3CCCCC3)nc(N3CC[NH2+]CC3)n2)c1 (3D coordinates assigned)
c1cncc(CCNc2nc(N3CCCCC3)nc(N3CC[NH2+]CC3)n2)c1 (nonaromatic ring conformer: 59.02563653953893 kcal/mol)

>  <smiles>  (43) 
c1cncc(CCNc2nc(N3CCCCC3)nc(N3CCNCC3)n2)c1

>  <score_type>  (43) 
oracle

>  <origin>  (43) 
autodockgpu

>  <m_score__min__energy>  (43) 
-7.7999999999999998

>  <m_primary>  (43) 
energy

>  <meeko>  (43) 
{"free_energy": -7.19, "intermolecular_energy": -8.98, "internal_energy": -1.16, "cluster_size": 5, "cluster_id": 4, "rank_in_cluster": 2}

>  <energy>  (43) 
-7.4

>  <cluster_rmsd>  (43) 
1.47

>  <rmsd>  (43) 
271.0

>  <cluster>  (43) 
1

$$$$
YQRBYBBKMCEKLP-ODCLCHFBNA-O
     RDKit          3D

 56 59  0  0  0  0  0  0  0  0999 V2000
  145.5010   74.1020  220.8290 C   0  0  0  0  0  0  0  0  0  0  0  0
  146.3610   73.3730  220.0050 C   0  0  0  0  0  0  0  0  0  0  0  0
  145.8800   72.3420  219.2570 N   0  0  0  0  0  0  0  0  0  0  0  0
  144.5650   71.9940  219.2810 C   0  0  0  0  0  0  0  0  0  0  0  0
  143.6610   72.7110  220.0820 C   0  0  0  0  0  0  0  0  0  0  0  0
  142.2040   72.3370  220.1170 C   0  0  0  0  0  0  0  0  0  0  0  0
  141.6640   72.3800  221.5480 C   0  0  0  0  0  0  0  0  0  0  0  0
  140.6440   73.4200  221.6780 N   0  0  0  0  0  0  0  0  0  0  0  0
  140.8790   74.7850  221.3080 C   0  0  0  0  0  0  0  0  0  0  0  0
  140.7070   75.7850  222.2100 N   0  0  0  0  0  0  0  0  0  0  0  0
  140.9150   77.0810  221.8560 C   0  0  0  0  0  0  0  0  0  0  0  0
  140.7440   78.1410  222.8170 N   0  0  0  0  0  0  0  0  0  0  0  0
  139.4420   78.8260  222.9080 C   0  0  0  0  0  0  0  0  0  0  0  0
  139.5130   80.0590  223.8170 C   0  0  0  0  0  0  0  0  0  0  0  0
  140.7670   80.8780  223.4950 C   0  0  0  0  0  0  0  0  0  0  0  0
  142.0670   80.0610  223.6600 C   0  0  0  0  0  0  0  0  0  0  0  0
  141.8370   78.5410  223.7170 C   0  0  0  0  0  0  0  0  0  0  0  0
  141.3030   77.3670  220.5840 N   0  0  0  0  0  0  0  0  0  0  0  0
  141.4770   76.3760  219.6700 C   0  0  0  0  0  0  0  0  0  0  0  0
  141.8870   76.6870  218.3210 N   0  0  0  0  0  0  0  0  0  0  0  0
  141.2580   77.8210  217.6300 C   0  0  0  0  0  0  0  0  0  0  0  0
  141.8630   78.0260  216.2390 C   0  0  0  0  0  0  0  0  0  0  0  0
  143.3220   77.9010  216.3110 N   0  0  0  0  0  0  0  0  0  0  0  0
  143.7440   76.5240  216.6400 C   0  0  0  0  0  0  0  0  0  0  0  0
  142.7720   75.7710  217.5790 C   0  0  0  0  0  0  0  0  0  0  0  0
  141.2640   75.0840  220.0420 N   0  0  0  0  0  0  0  0  0  0  0  0
  144.1460   73.7640  220.8720 C   0  0  0  0  0  0  0  0  0  0  0  0
  145.8862   74.9334  221.4376 H   0  0  0  0  0  0  0  0  0  0  0  0
  147.4291   73.6322  219.9601 H   0  0  0  0  0  0  0  0  0  0  0  0
  144.2092   71.1498  218.6722 H   0  0  0  0  0  0  0  0  0  0  0  0
  141.6354   73.0448  219.4960 H   0  0  0  0  0  0  0  0  0  0  0  0
  142.0944   71.3130  219.7304 H   0  0  0  0  0  0  0  0  0  0  0  0
  141.2207   71.4046  221.7974 H   0  0  0  0  0  0  0  0  0  0  0  0
  142.4928   72.6058  222.2351 H   0  0  0  0  0  0  0  0  0  0  0  0
  139.7060   73.1540  222.0480 H   0  0  0  0  0  0  0  0  0  0  0  0
  139.1346   79.1429  221.9005 H   0  0  0  0  0  0  0  0  0  0  0  0
  138.7138   78.1232  223.3391 H   0  0  0  0  0  0  0  0  0  0  0  0
  138.6205   80.6816  223.6563 H   0  0  0  0  0  0  0  0  0  0  0  0
  139.5563   79.7312  224.8661 H   0  0  0  0  0  0  0  0  0  0  0  0
  140.7011   81.2293  222.4547 H   0  0  0  0  0  0  0  0  0  0  0  0
  140.8083   81.7177  224.2043 H   0  0  0  0  0  0  0  0  0  0  0  0
  142.7264   80.2811  222.8075 H   0  0  0  0  0  0  0  0  0  0  0  0
  142.5130   80.3557  224.6214 H   0  0  0  0  0  0  0  0  0  0  0  0
  142.7602   78.0255  223.4136 H   0  0  0  0  0  0  0  0  0  0  0  0
  141.5633   78.2654  224.7462 H   0  0  0  0  0  0  0  0  0  0  0  0
  140.1804   77.6257  217.5274 H   0  0  0  0  0  0  0  0  0  0  0  0
  141.4324   78.7307  218.2233 H   0  0  0  0  0  0  0  0  0  0  0  0
  141.4644   77.2656  215.5513 H   0  0  0  0  0  0  0  0  0  0  0  0
  141.6012   79.0295  215.8723 H   0  0  0  0  0  0  0  0  0  0  0  0
  143.6940   78.5620  217.0340 H   0  0  0  0  0  0  0  0  0  0  0  0
  143.7320   78.1690  215.3850 H   0  0  0  0  0  0  0  0  0  0  0  0
  143.8278   75.9553  215.7021 H   0  0  0  0  0  0  0  0  0  0  0  0
  144.7015   76.6058  217.1753 H   0  0  0  0  0  0  0  0  0  0  0  0
  142.1519   75.0921  216.9752 H   0  0  0  0  0  0  0  0  0  0  0  0
  143.3755   75.2181  218.3139 H   0  0  0  0  0  0  0  0  0  0  0  0
  143.4598   74.3233  221.5250 H   0  0  0  0  0  0  0  0  0  0  0  0
  1  2  2  0
  2  3  1  0
  3  4  2  0
  4  5  1  0
  5  6  1  0
  6  7  1  0
  7  8  1  0
  8  9  1  0
  9 10  2  0
 10 11  1  0
 11 12  1  0
 12 13  1  0
 13 14  1  0
 14 15  1  0
 15 16  1  0
 16 17  1  0
 11 18  2  0
 18 19  1  0
 19 20  1  0
 20 21  1  0
 21 22  1  0
 22 23  1  0
 23 24  1  0
 24 25  1  0
 19 26  2  0
  5 27  2  0
 27  1  1  0
 26  9  1  0
 17 12  1  0
 25 20  1  0
  1 28  1  0
  2 29  1  0
  4 30  1  0
  6 31  1  0
  6 32  1  0
  7 33  1  0
  7 34  1  0
  8 35  1  0
 13 36  1  0
 13 37  1  0
 14 38  1  0
 14 39  1  0
 15 40  1  0
 15 41  1  0
 16 42  1  0
 16 43  1  0
 17 44  1  0
 17 45  1  0
 21 46  1  0
 21 47  1  0
 22 48  1  0
 22 49  1  0
 23 50  1  0
 23 51  1  0
 24 52  1  0
 24 53  1  0
 25 54  1  0
 25 55  1  0
 27 56  1  0
M  CHG  1  23   1
M  END
>  <UniqueID>  (44) 
583

>  <SMILES>  (44) 
c1cncc(CCNc2nc(N3CCCCC3)nc(N3CC[NH2+]CC3)n2)c1

>  <Energy>  (44) 
59.02563653953893

>  <Genealogy>  (44) 
c1cncc(CCNc2nc(N3CCCCC3)nc(N3CC[NH2+]CC3)n2)c1 (protonated)
c1cncc(CCNc2nc(N3CCCCC3)nc(N3CC[NH2+]CC3)n2)c1 (3D coordinates assigned)
c1cncc(CCNc2nc(N3CCCCC3)nc(N3CC[NH2+]CC3)n2)c1 (nonaromatic ring conformer: 59.02563653953893 kcal/mol)

>  <smiles>  (44) 
c1cncc(CCNc2nc(N3CCCCC3)nc(N3CCNCC3)n2)c1

>  <score_type>  (44) 
oracle

>  <origin>  (44) 
autodockgpu

>  <m_score__min__energy>  (44) 
-7.7999999999999998

>  <m_primary>  (44) 
energy

>  <meeko>  (44) 
{"free_energy": -7.37, "intermolecular_energy": -9.16, "internal_energy": -1.22, "cluster_size": 4, "cluster_id": 3, "rank_in_cluster": 4}

>  <energy>  (44) 
-7.38

>  <cluster_rmsd>  (44) 
1.56

>  <rmsd>  (44) 
271.05

>  <cluster>  (44) 
1

$$$$
YQRBYBBKMCEKLP-ODCLCHFBNA-O
     RDKit          3D

 56 59  0  0  0  0  0  0  0  0999 V2000
  141.0580   71.4540  228.0430 C   0  0  0  0  0  0  0  0  0  0  0  0
  140.6970   70.1360  228.3330 C   0  0  0  0  0  0  0  0  0  0  0  0
  140.3300   69.2910  227.3310 N   0  0  0  0  0  0  0  0  0  0  0  0
  140.3080   69.6920  226.0310 C   0  0  0  0  0  0  0  0  0  0  0  0
  140.6810   71.0020  225.6910 C   0  0  0  0  0  0  0  0  0  0  0  0
  140.6630   71.4570  224.2560 C   0  0  0  0  0  0  0  0  0  0  0  0
  139.3490   71.0670  223.5770 C   0  0  0  0  0  0  0  0  0  0  0  0
  139.0500   71.9830  222.4780 N   0  0  0  0  0  0  0  0  0  0  0  0
  139.9340   73.0440  222.0920 C   0  0  0  0  0  0  0  0  0  0  0  0
  141.1320   72.7710  221.5160 N   0  0  0  0  0  0  0  0  0  0  0  0
  141.9780   73.7760  221.1640 C   0  0  0  0  0  0  0  0  0  0  0  0
  143.2440   73.4850  220.5400 N   0  0  0  0  0  0  0  0  0  0  0  0
  143.5540   72.0960  220.1580 C   0  0  0  0  0  0  0  0  0  0  0  0
  145.0160   71.9420  219.7190 C   0  0  0  0  0  0  0  0  0  0  0  0
  145.9380   72.6690  220.7020 C   0  0  0  0  0  0  0  0  0  0  0  0
  145.6090   74.1730  220.8220 C   0  0  0  0  0  0  0  0  0  0  0  0
  144.2240   74.5470  220.2670 C   0  0  0  0  0  0  0  0  0  0  0  0
  141.6080   75.0640  221.3920 N   0  0  0  0  0  0  0  0  0  0  0  0
  140.4120   75.3530  221.9710 C   0  0  0  0  0  0  0  0  0  0  0  0
  140.0260   76.7240  222.2120 N   0  0  0  0  0  0  0  0  0  0  0  0
  141.0750   77.7260  222.4490 C   0  0  0  0  0  0  0  0  0  0  0  0
  140.4740   79.1230  222.6260 C   0  0  0  0  0  0  0  0  0  0  0  0
  139.4320   79.3440  221.6180 N   0  0  0  0  0  0  0  0  0  0  0  0
  138.2620   78.4680  221.8300 C   0  0  0  0  0  0  0  0  0  0  0  0
  138.6100   77.0780  222.4120 C   0  0  0  0  0  0  0  0  0  0  0  0
  139.5780   74.3350  222.3160 N   0  0  0  0  0  0  0  0  0  0  0  0
  141.0440   71.8890  226.7160 C   0  0  0  0  0  0  0  0  0  0  0  0
  141.3499   72.1414  228.8507 H   0  0  0  0  0  0  0  0  0  0  0  0
  140.7094   69.7802  229.3738 H   0  0  0  0  0  0  0  0  0  0  0  0
  139.9973   68.9882  225.2448 H   0  0  0  0  0  0  0  0  0  0  0  0
  140.7746   72.5508  224.2234 H   0  0  0  0  0  0  0  0  0  0  0  0
  141.4927   70.9705  223.7223 H   0  0  0  0  0  0  0  0  0  0  0  0
  139.4350   70.0438  223.1824 H   0  0  0  0  0  0  0  0  0  0  0  0
  138.5364   71.1208  224.3165 H   0  0  0  0  0  0  0  0  0  0  0  0
  138.1610   71.8540  221.9490 H   0  0  0  0  0  0  0  0  0  0  0  0
  143.3697   71.4392  221.0209 H   0  0  0  0  0  0  0  0  0  0  0  0
  142.9100   71.8214  219.3095 H   0  0  0  0  0  0  0  0  0  0  0  0
  145.2785   70.8741  219.6953 H   0  0  0  0  0  0  0  0  0  0  0  0
  145.1399   72.3793  218.7173 H   0  0  0  0  0  0  0  0  0  0  0  0
  145.8321   72.2048  221.6936 H   0  0  0  0  0  0  0  0  0  0  0  0
  146.9664   72.5819  220.3214 H   0  0  0  0  0  0  0  0  0  0  0  0
  145.6447   74.4529  221.8852 H   0  0  0  0  0  0  0  0  0  0  0  0
  146.3542   74.7150  220.2212 H   0  0  0  0  0  0  0  0  0  0  0  0
  143.8857   75.4797  220.7420 H   0  0  0  0  0  0  0  0  0  0  0  0
  144.3058   74.6776  219.1779 H   0  0  0  0  0  0  0  0  0  0  0  0
  141.6304   77.4560  223.3593 H   0  0  0  0  0  0  0  0  0  0  0  0
  141.7455   77.7424  221.5771 H   0  0  0  0  0  0  0  0  0  0  0  0
  140.0345   79.2074  223.6308 H   0  0  0  0  0  0  0  0  0  0  0  0
  141.2647   79.8779  222.5042 H   0  0  0  0  0  0  0  0  0  0  0  0
  139.8270   79.1730  220.6630 H   0  0  0  0  0  0  0  0  0  0  0  0
  139.1210   80.3440  221.6660 H   0  0  0  0  0  0  0  0  0  0  0  0
  137.5752   78.9717  222.5261 H   0  0  0  0  0  0  0  0  0  0  0  0
  137.8131   78.2940  220.8409 H   0  0  0  0  0  0  0  0  0  0  0  0
  138.3961   77.0832  223.4910 H   0  0  0  0  0  0  0  0  0  0  0  0
  137.9996   76.3308  221.8837 H   0  0  0  0  0  0  0  0  0  0  0  0
  141.3175   72.9267  226.4743 H   0  0  0  0  0  0  0  0  0  0  0  0
  1  2  2  0
  2  3  1  0
  3  4  2  0
  4  5  1  0
  5  6  1  0
  6  7  1  0
  7  8  1  0
  8  9  1  0
  9 10  2  0
 10 11  1  0
 11 12  1  0
 12 13  1  0
 13 14  1  0
 14 15  1  0
 15 16  1  0
 16 17  1  0
 11 18  2  0
 18 19  1  0
 19 20  1  0
 20 21  1  0
 21 22  1  0
 22 23  1  0
 23 24  1  0
 24 25  1  0
 19 26  2  0
  5 27  2  0
 27  1  1  0
 26  9  1  0
 17 12  1  0
 25 20  1  0
  1 28  1  0
  2 29  1  0
  4 30  1  0
  6 31  1  0
  6 32  1  0
  7 33  1  0
  7 34  1  0
  8 35  1  0
 13 36  1  0
 13 37  1  0
 14 38  1  0
 14 39  1  0
 15 40  1  0
 15 41  1  0
 16 42  1  0
 16 43  1  0
 17 44  1  0
 17 45  1  0
 21 46  1  0
 21 47  1  0
 22 48  1  0
 22 49  1  0
 23 50  1  0
 23 51  1  0
 24 52  1  0
 24 53  1  0
 25 54  1  0
 25 55  1  0
 27 56  1  0
M  CHG  1  23   1
M  END
>  <UniqueID>  (45) 
583

>  <SMILES>  (45) 
c1cncc(CCNc2nc(N3CCCCC3)nc(N3CC[NH2+]CC3)n2)c1

>  <Energy>  (45) 
59.02563653953893

>  <Genealogy>  (45) 
c1cncc(CCNc2nc(N3CCCCC3)nc(N3CC[NH2+]CC3)n2)c1 (protonated)
c1cncc(CCNc2nc(N3CCCCC3)nc(N3CC[NH2+]CC3)n2)c1 (3D coordinates assigned)
c1cncc(CCNc2nc(N3CCCCC3)nc(N3CC[NH2+]CC3)n2)c1 (nonaromatic ring conformer: 59.02563653953893 kcal/mol)

>  <smiles>  (45) 
c1cncc(CCNc2nc(N3CCCCC3)nc(N3CCNCC3)n2)c1

>  <score_type>  (45) 
oracle

>  <origin>  (45) 
autodockgpu

>  <m_score__min__energy>  (45) 
-7.7999999999999998

>  <m_primary>  (45) 
energy

>  <meeko>  (45) 
{"free_energy": -7.3, "intermolecular_energy": -9.09, "internal_energy": -0.9, "cluster_size": 9, "cluster_id": 1, "rank_in_cluster": 5}

>  <energy>  (45) 
-7.3

>  <cluster_rmsd>  (45) 
1.63

>  <rmsd>  (45) 
271.45

>  <cluster>  (45) 
1

$$$$
YQRBYBBKMCEKLP-ODCLCHFBNA-O
     RDKit          3D

 56 59  0  0  0  0  0  0  0  0999 V2000
  139.9290   70.2950  227.9570 C   0  0  0  0  0  0  0  0  0  0  0  0
  140.6680   71.4180  228.3330 C   0  0  0  0  0  0  0  0  0  0  0  0
  141.2710   72.1880  227.3860 N   0  0  0  0  0  0  0  0  0  0  0  0
  141.1700   71.8990  226.0600 C   0  0  0  0  0  0  0  0  0  0  0  0
  140.4200   70.7900  225.6360 C   0  0  0  0  0  0  0  0  0  0  0  0
  140.3000   70.4610  224.1720 C   0  0  0  0  0  0  0  0  0  0  0  0
  138.8760   70.7160  223.6710 C   0  0  0  0  0  0  0  0  0  0  0  0
  138.7610   72.0690  223.1290 N   0  0  0  0  0  0  0  0  0  0  0  0
  139.7390   72.6370  222.2490 C   0  0  0  0  0  0  0  0  0  0  0  0
  140.5470   71.8380  221.5060 N   0  0  0  0  0  0  0  0  0  0  0  0
  141.4860   72.3760  220.6820 C   0  0  0  0  0  0  0  0  0  0  0  0
  142.3350   71.5270  219.8840 N   0  0  0  0  0  0  0  0  0  0  0  0
  141.9510   70.1200  219.6760 C   0  0  0  0  0  0  0  0  0  0  0  0
  143.0720   69.3210  218.9990 C   0  0  0  0  0  0  0  0  0  0  0  0
  144.4160   69.6390  219.6600 C   0  0  0  0  0  0  0  0  0  0  0  0
  144.7670   71.1410  219.6000 C   0  0  0  0  0  0  0  0  0  0  0  0
  143.5660   72.0420  219.2650 C   0  0  0  0  0  0  0  0  0  0  0  0
  141.6040   73.7280  220.6050 N   0  0  0  0  0  0  0  0  0  0  0  0
  140.8040   74.5410  221.3450 C   0  0  0  0  0  0  0  0  0  0  0  0
  140.9360   75.9760  221.2600 N   0  0  0  0  0  0  0  0  0  0  0  0
  140.9200   76.7660  222.4990 C   0  0  0  0  0  0  0  0  0  0  0  0
  141.1300   78.2540  222.2090 C   0  0  0  0  0  0  0  0  0  0  0  0
  142.2030   78.4190  221.2220 N   0  0  0  0  0  0  0  0  0  0  0  0
  141.8220   77.8890  219.8970 C   0  0  0  0  0  0  0  0  0  0  0  0
  140.8900   76.6550  219.9530 C   0  0  0  0  0  0  0  0  0  0  0  0
  139.8700   73.9850  222.1640 N   0  0  0  0  0  0  0  0  0  0  0  0
  139.8100   69.9770  226.6020 C   0  0  0  0  0  0  0  0  0  0  0  0
  139.4454   69.6670  228.7198 H   0  0  0  0  0  0  0  0  0  0  0  0
  140.7633   71.6813  229.3967 H   0  0  0  0  0  0  0  0  0  0  0  0
  141.6766   72.5350  225.3192 H   0  0  0  0  0  0  0  0  0  0  0  0
  141.0003   71.0899  223.6027 H   0  0  0  0  0  0  0  0  0  0  0  0
  140.5378   69.3965  224.0298 H   0  0  0  0  0  0  0  0  0  0  0  0
  138.6332   69.9880  222.8829 H   0  0  0  0  0  0  0  0  0  0  0  0
  138.1768   70.6085  224.5133 H   0  0  0  0  0  0  0  0  0  0  0  0
  137.9270   72.6400  223.3890 H   0  0  0  0  0  0  0  0  0  0  0  0
  141.7267   69.6636  220.6514 H   0  0  0  0  0  0  0  0  0  0  0  0
  141.0690   70.0984  219.0190 H   0  0  0  0  0  0  0  0  0  0  0  0
  142.8632   68.2455  219.0976 H   0  0  0  0  0  0  0  0  0  0  0  0
  143.1193   69.5964  217.9351 H   0  0  0  0  0  0  0  0  0  0  0  0
  144.3718   69.3295  220.7146 H   0  0  0  0  0  0  0  0  0  0  0  0
  145.1956   69.0926  219.1089 H   0  0  0  0  0  0  0  0  0  0  0  0
  145.1664   71.4440  220.5791 H   0  0  0  0  0  0  0  0  0  0  0  0
  145.5010   71.2683  218.7907 H   0  0  0  0  0  0  0  0  0  0  0  0
  143.7611   73.0570  219.6415 H   0  0  0  0  0  0  0  0  0  0  0  0
  143.4311   72.0566  218.1734 H   0  0  0  0  0  0  0  0  0  0  0  0
  139.9490   76.6312  222.9980 H   0  0  0  0  0  0  0  0  0  0  0  0
  141.7395   76.4178  223.1449 H   0  0  0  0  0  0  0  0  0  0  0  0
  140.1987   78.6841  221.8119 H   0  0  0  0  0  0  0  0  0  0  0  0
  141.4083   78.7706  223.1394 H   0  0  0  0  0  0  0  0  0  0  0  0
  143.0660   77.9280  221.5580 H   0  0  0  0  0  0  0  0  0  0  0  0
  142.4240   79.4390  221.1290 H   0  0  0  0  0  0  0  0  0  0  0  0
  141.3063   78.6862  219.3416 H   0  0  0  0  0  0  0  0  0  0  0  0
  142.7513   77.5621  219.4075 H   0  0  0  0  0  0  0  0  0  0  0  0
  139.8577   76.9829  219.7612 H   0  0  0  0  0  0  0  0  0  0  0  0
  141.2336   75.9400  219.1910 H   0  0  0  0  0  0  0  0  0  0  0  0
  139.2382   69.0895  226.2930 H   0  0  0  0  0  0  0  0  0  0  0  0
  1  2  2  0
  2  3  1  0
  3  4  2  0
  4  5  1  0
  5  6  1  0
  6  7  1  0
  7  8  1  0
  8  9  1  0
  9 10  2  0
 10 11  1  0
 11 12  1  0
 12 13  1  0
 13 14  1  0
 14 15  1  0
 15 16  1  0
 16 17  1  0
 11 18  2  0
 18 19  1  0
 19 20  1  0
 20 21  1  0
 21 22  1  0
 22 23  1  0
 23 24  1  0
 24 25  1  0
 19 26  2  0
  5 27  2  0
 27  1  1  0
 26  9  1  0
 17 12  1  0
 25 20  1  0
  1 28  1  0
  2 29  1  0
  4 30  1  0
  6 31  1  0
  6 32  1  0
  7 33  1  0
  7 34  1  0
  8 35  1  0
 13 36  1  0
 13 37  1  0
 14 38  1  0
 14 39  1  0
 15 40  1  0
 15 41  1  0
 16 42  1  0
 16 43  1  0
 17 44  1  0
 17 45  1  0
 21 46  1  0
 21 47  1  0
 22 48  1  0
 22 49  1  0
 23 50  1  0
 23 51  1  0
 24 52  1  0
 24 53  1  0
 25 54  1  0
 25 55  1  0
 27 56  1  0
M  CHG  1  23   1
M  END
>  <UniqueID>  (46) 
583

>  <SMILES>  (46) 
c1cncc(CCNc2nc(N3CCCCC3)nc(N3CC[NH2+]CC3)n2)c1

>  <Energy>  (46) 
59.02563653953893

>  <Genealogy>  (46) 
c1cncc(CCNc2nc(N3CCCCC3)nc(N3CC[NH2+]CC3)n2)c1 (protonated)
c1cncc(CCNc2nc(N3CCCCC3)nc(N3CC[NH2+]CC3)n2)c1 (3D coordinates assigned)
c1cncc(CCNc2nc(N3CCCCC3)nc(N3CC[NH2+]CC3)n2)c1 (nonaromatic ring conformer: 59.02563653953893 kcal/mol)

>  <smiles>  (46) 
c1cncc(CCNc2nc(N3CCCCC3)nc(N3CCNCC3)n2)c1

>  <score_type>  (46) 
oracle

>  <origin>  (46) 
autodockgpu

>  <m_score__min__energy>  (46) 
-7.7999999999999998

>  <m_primary>  (46) 
energy

>  <meeko>  (46) 
{"free_energy": -7.38, "intermolecular_energy": -9.17, "internal_energy": -0.96, "cluster_size": 9, "cluster_id": 1, "rank_in_cluster": 4}

>  <energy>  (46) 
-7.28

>  <cluster_rmsd>  (46) 
1.68

>  <rmsd>  (46) 
270.95

>  <cluster>  (46) 
1

$$$$
YQRBYBBKMCEKLP-ODCLCHFBNA-O
     RDKit          3D

 56 59  0  0  0  0  0  0  0  0999 V2000
  138.7440   76.1940  221.2610 C   0  0  0  0  0  0  0  0  0  0  0  0
  139.1150   75.4220  222.3640 C   0  0  0  0  0  0  0  0  0  0  0  0
  140.1170   74.5080  222.2530 N   0  0  0  0  0  0  0  0  0  0  0  0
  140.7870   74.3190  221.0840 C   0  0  0  0  0  0  0  0  0  0  0  0
  140.4600   75.0860  219.9530 C   0  0  0  0  0  0  0  0  0  0  0  0
  141.1940   74.8890  218.6550 C   0  0  0  0  0  0  0  0  0  0  0  0
  142.6800   74.6220  218.9030 C   0  0  0  0  0  0  0  0  0  0  0  0
  143.4510   75.8560  218.7630 N   0  0  0  0  0  0  0  0  0  0  0  0
  142.8960   77.1500  219.0340 C   0  0  0  0  0  0  0  0  0  0  0  0
  142.3810   77.4390  220.2560 N   0  0  0  0  0  0  0  0  0  0  0  0
  141.8410   78.6620  220.5090 C   0  0  0  0  0  0  0  0  0  0  0  0
  141.3050   78.9720  221.8110 N   0  0  0  0  0  0  0  0  0  0  0  0
  139.8610   79.2310  221.9500 C   0  0  0  0  0  0  0  0  0  0  0  0
  139.5130   79.7570  223.3480 C   0  0  0  0  0  0  0  0  0  0  0  0
  140.5090   80.8430  223.7630 C   0  0  0  0  0  0  0  0  0  0  0  0
  141.9680   80.3380  223.7710 C   0  0  0  0  0  0  0  0  0  0  0  0
  142.1680   79.0210  223.0010 C   0  0  0  0  0  0  0  0  0  0  0  0
  141.8270   79.5970  219.5230 N   0  0  0  0  0  0  0  0  0  0  0  0
  142.3380   79.3210  218.2930 C   0  0  0  0  0  0  0  0  0  0  0  0
  142.3180   80.3190  217.2500 N   0  0  0  0  0  0  0  0  0  0  0  0
  142.9450   81.6240  217.5020 C   0  0  0  0  0  0  0  0  0  0  0  0
  142.8720   82.5210  216.2640 C   0  0  0  0  0  0  0  0  0  0  0  0
  143.2070   81.7410  215.0680 N   0  0  0  0  0  0  0  0  0  0  0  0
  142.1880   80.7120  214.7740 C   0  0  0  0  0  0  0  0  0  0  0  0
  141.5160   80.1100  216.0310 C   0  0  0  0  0  0  0  0  0  0  0  0
  142.8740   78.0930  218.0580 N   0  0  0  0  0  0  0  0  0  0  0  0
  139.4160   76.0190  220.0480 C   0  0  0  0  0  0  0  0  0  0  0  0
  137.9322   76.9314  221.3459 H   0  0  0  0  0  0  0  0  0  0  0  0
  138.5960   75.5531  223.3249 H   0  0  0  0  0  0  0  0  0  0  0  0
  141.5856   73.5649  221.0242 H   0  0  0  0  0  0  0  0  0  0  0  0
  140.7582   74.0315  218.1214 H   0  0  0  0  0  0  0  0  0  0  0  0
  141.0971   75.8052  218.0540 H   0  0  0  0  0  0  0  0  0  0  0  0
  142.8119   74.2260  219.9207 H   0  0  0  0  0  0  0  0  0  0  0  0
  143.0391   73.8916  218.1630 H   0  0  0  0  0  0  0  0  0  0  0  0
  144.4470   75.7900  218.4630 H   0  0  0  0  0  0  0  0  0  0  0  0
  139.5590   79.9788  221.2020 H   0  0  0  0  0  0  0  0  0  0  0  0
  139.3253   78.2826  221.7964 H   0  0  0  0  0  0  0  0  0  0  0  0
  138.4976   80.1798  223.3356 H   0  0  0  0  0  0  0  0  0  0  0  0
  139.5634   78.9272  224.0683 H   0  0  0  0  0  0  0  0  0  0  0  0
  140.4304   81.6821  223.0560 H   0  0  0  0  0  0  0  0  0  0  0  0
  140.2575   81.1519  224.7883 H   0  0  0  0  0  0  0  0  0  0  0  0
  142.6053   81.1088  223.3131 H   0  0  0  0  0  0  0  0  0  0  0  0
  142.2360   80.1425  224.8198 H   0  0  0  0  0  0  0  0  0  0  0  0
  143.2193   78.9437  222.6868 H   0  0  0  0  0  0  0  0  0  0  0  0
  141.9019   78.1834  223.6626 H   0  0  0  0  0  0  0  0  0  0  0  0
  142.4229   82.1182  218.3346 H   0  0  0  0  0  0  0  0  0  0  0  0
  144.0037   81.4596  217.7513 H   0  0  0  0  0  0  0  0  0  0  0  0
  141.8534   82.9242  216.1642 H   0  0  0  0  0  0  0  0  0  0  0  0
  143.5881   83.3490  216.3713 H   0  0  0  0  0  0  0  0  0  0  0  0
  144.1390   81.2790  215.2010 H   0  0  0  0  0  0  0  0  0  0  0  0
  143.2800   82.3900  214.2490 H   0  0  0  0  0  0  0  0  0  0  0  0
  141.4060   81.1689  214.1497 H   0  0  0  0  0  0  0  0  0  0  0  0
  142.7086   79.8863  214.2669 H   0  0  0  0  0  0  0  0  0  0  0  0
  140.5335   80.5852  216.1685 H   0  0  0  0  0  0  0  0  0  0  0  0
  141.4200   79.0255  215.8738 H   0  0  0  0  0  0  0  0  0  0  0  0
  139.1266   76.6124  219.1681 H   0  0  0  0  0  0  0  0  0  0  0  0
  1  2  2  0
  2  3  1  0
  3  4  2  0
  4  5  1  0
  5  6  1  0
  6  7  1  0
  7  8  1  0
  8  9  1  0
  9 10  2  0
 10 11  1  0
 11 12  1  0
 12 13  1  0
 13 14  1  0
 14 15  1  0
 15 16  1  0
 16 17  1  0
 11 18  2  0
 18 19  1  0
 19 20  1  0
 20 21  1  0
 21 22  1  0
 22 23  1  0
 23 24  1  0
 24 25  1  0
 19 26  2  0
  5 27  2  0
 27  1  1  0
 26  9  1  0
 17 12  1  0
 25 20  1  0
  1 28  1  0
  2 29  1  0
  4 30  1  0
  6 31  1  0
  6 32  1  0
  7 33  1  0
  7 34  1  0
  8 35  1  0
 13 36  1  0
 13 37  1  0
 14 38  1  0
 14 39  1  0
 15 40  1  0
 15 41  1  0
 16 42  1  0
 16 43  1  0
 17 44  1  0
 17 45  1  0
 21 46  1  0
 21 47  1  0
 22 48  1  0
 22 49  1  0
 23 50  1  0
 23 51  1  0
 24 52  1  0
 24 53  1  0
 25 54  1  0
 25 55  1  0
 27 56  1  0
M  CHG  1  23   1
M  END
>  <UniqueID>  (47) 
583

>  <SMILES>  (47) 
c1cncc(CCNc2nc(N3CCCCC3)nc(N3CC[NH2+]CC3)n2)c1

>  <Energy>  (47) 
59.02563653953893

>  <Genealogy>  (47) 
c1cncc(CCNc2nc(N3CCCCC3)nc(N3CC[NH2+]CC3)n2)c1 (protonated)
c1cncc(CCNc2nc(N3CCCCC3)nc(N3CC[NH2+]CC3)n2)c1 (3D coordinates assigned)
c1cncc(CCNc2nc(N3CCCCC3)nc(N3CC[NH2+]CC3)n2)c1 (nonaromatic ring conformer: 59.02563653953893 kcal/mol)

>  <smiles>  (47) 
c1cncc(CCNc2nc(N3CCCCC3)nc(N3CCNCC3)n2)c1

>  <score_type>  (47) 
oracle

>  <origin>  (47) 
autodockgpu

>  <m_score__min__energy>  (47) 
-7.7999999999999998

>  <m_primary>  (47) 
energy

>  <meeko>  (47) 
{"free_energy": -6.49, "intermolecular_energy": -8.28, "internal_energy": -1.62, "cluster_size": 5, "cluster_id": 4, "rank_in_cluster": 5}

>  <energy>  (47) 
-7.25

>  <cluster_rmsd>  (47) 
1.98

>  <rmsd>  (47) 
271.34

>  <cluster>  (47) 
1

$$$$
YQRBYBBKMCEKLP-ODCLCHFBNA-O
     RDKit          3D

 56 59  0  0  0  0  0  0  0  0999 V2000
  139.9930   70.5450  227.9370 C   0  0  0  0  0  0  0  0  0  0  0  0
  140.7650   71.7060  228.0050 C   0  0  0  0  0  0  0  0  0  0  0  0
  141.2790   72.2540  226.8700 N   0  0  0  0  0  0  0  0  0  0  0  0
  141.0560   71.7020  225.6460 C   0  0  0  0  0  0  0  0  0  0  0  0
  140.2700   70.5440  225.5280 C   0  0  0  0  0  0  0  0  0  0  0  0
  140.0140   69.9250  224.1800 C   0  0  0  0  0  0  0  0  0  0  0  0
  138.7510   70.5080  223.5420 C   0  0  0  0  0  0  0  0  0  0  0  0
  138.8990   71.9480  223.3420 N   0  0  0  0  0  0  0  0  0  0  0  0
  139.9130   72.5130  222.5000 C   0  0  0  0  0  0  0  0  0  0  0  0
  140.8080   71.7140  221.8650 N   0  0  0  0  0  0  0  0  0  0  0  0
  141.7790   72.2500  221.0780 C   0  0  0  0  0  0  0  0  0  0  0  0
  142.7220   71.4010  220.3950 N   0  0  0  0  0  0  0  0  0  0  0  0
  144.1400   71.7940  220.3460 C   0  0  0  0  0  0  0  0  0  0  0  0
  144.9450   70.8970  219.3980 C   0  0  0  0  0  0  0  0  0  0  0  0
  144.1800   70.6990  218.0860 C   0  0  0  0  0  0  0  0  0  0  0  0
  142.7860   70.0730  218.3020 C   0  0  0  0  0  0  0  0  0  0  0  0
  142.2960   70.1440  219.7590 C   0  0  0  0  0  0  0  0  0  0  0  0
  141.8420   73.6000  220.9300 N   0  0  0  0  0  0  0  0  0  0  0  0
  140.9540   74.4130  221.5610 C   0  0  0  0  0  0  0  0  0  0  0  0
  141.0280   75.8460  221.4010 N   0  0  0  0  0  0  0  0  0  0  0  0
  140.9740   76.6990  222.5970 C   0  0  0  0  0  0  0  0  0  0  0  0
  141.1240   78.1770  222.2280 C   0  0  0  0  0  0  0  0  0  0  0  0
  142.1930   78.3330  221.2370 N   0  0  0  0  0  0  0  0  0  0  0  0
  141.8400   77.7190  219.9400 C   0  0  0  0  0  0  0  0  0  0  0  0
  140.9590   76.4520  220.0590 C   0  0  0  0  0  0  0  0  0  0  0  0
  139.9890   73.8590  222.3450 N   0  0  0  0  0  0  0  0  0  0  0  0
  139.7500   69.9580  226.6920 C   0  0  0  0  0  0  0  0  0  0  0  0
  139.5805   70.0970  228.8530 H   0  0  0  0  0  0  0  0  0  0  0  0
  140.9586   72.1795  228.9788 H   0  0  0  0  0  0  0  0  0  0  0  0
  141.4921   72.1636  224.7478 H   0  0  0  0  0  0  0  0  0  0  0  0
  140.8738   70.1238  223.5233 H   0  0  0  0  0  0  0  0  0  0  0  0
  139.8733   68.8420  224.3117 H   0  0  0  0  0  0  0  0  0  0  0  0
  138.5791   70.0229  222.5698 H   0  0  0  0  0  0  0  0  0  0  0  0
  137.8971   70.3268  224.2114 H   0  0  0  0  0  0  0  0  0  0  0  0
  138.2330   72.5890  223.8250 H   0  0  0  0  0  0  0  0  0  0  0  0
  144.2095   72.8348  219.9968 H   0  0  0  0  0  0  0  0  0  0  0  0
  144.5601   71.6884  221.3571 H   0  0  0  0  0  0  0  0  0  0  0  0
  145.9153   71.3698  219.1858 H   0  0  0  0  0  0  0  0  0  0  0  0
  145.1024   69.9182  219.8747 H   0  0  0  0  0  0  0  0  0  0  0  0
  144.0554   71.6776  217.5994 H   0  0  0  0  0  0  0  0  0  0  0  0
  144.7633   70.0071  217.4607 H   0  0  0  0  0  0  0  0  0  0  0  0
  142.0636   70.6057  217.6661 H   0  0  0  0  0  0  0  0  0  0  0  0
  142.8678   69.0074  218.0415 H   0  0  0  0  0  0  0  0  0  0  0  0
  141.1975   70.0874  219.7728 H   0  0  0  0  0  0  0  0  0  0  0  0
  142.7308   69.3021  220.3177 H   0  0  0  0  0  0  0  0  0  0  0  0
  140.0072   76.5509  223.1004 H   0  0  0  0  0  0  0  0  0  0  0  0
  141.8038   76.4195  223.2628 H   0  0  0  0  0  0  0  0  0  0  0  0
  140.1776   78.5464  221.8062 H   0  0  0  0  0  0  0  0  0  0  0  0
  141.3765   78.7538  223.1300 H   0  0  0  0  0  0  0  0  0  0  0  0
  143.0740   77.8980  221.6000 H   0  0  0  0  0  0  0  0  0  0  0  0
  142.3730   79.3550  221.0900 H   0  0  0  0  0  0  0  0  0  0  0  0
  141.2945   78.4641  219.3423 H   0  0  0  0  0  0  0  0  0  0  0  0
  142.7840   77.4057  219.4702 H   0  0  0  0  0  0  0  0  0  0  0  0
  139.9148   76.7262  219.8481 H   0  0  0  0  0  0  0  0  0  0  0  0
  141.3342   75.7124  219.3364 H   0  0  0  0  0  0  0  0  0  0  0  0
  139.1516   69.0374  226.6248 H   0  0  0  0  0  0  0  0  0  0  0  0
  1  2  2  0
  2  3  1  0
  3  4  2  0
  4  5  1  0
  5  6  1  0
  6  7  1  0
  7  8  1  0
  8  9  1  0
  9 10  2  0
 10 11  1  0
 11 12  1  0
 12 13  1  0
 13 14  1  0
 14 15  1  0
 15 16  1  0
 16 17  1  0
 11 18  2  0
 18 19  1  0
 19 20  1  0
 20 21  1  0
 21 22  1  0
 22 23  1  0
 23 24  1  0
 24 25  1  0
 19 26  2  0
  5 27  2  0
 27  1  1  0
 26  9  1  0
 17 12  1  0
 25 20  1  0
  1 28  1  0
  2 29  1  0
  4 30  1  0
  6 31  1  0
  6 32  1  0
  7 33  1  0
  7 34  1  0
  8 35  1  0
 13 36  1  0
 13 37  1  0
 14 38  1  0
 14 39  1  0
 15 40  1  0
 15 41  1  0
 16 42  1  0
 16 43  1  0
 17 44  1  0
 17 45  1  0
 21 46  1  0
 21 47  1  0
 22 48  1  0
 22 49  1  0
 23 50  1  0
 23 51  1  0
 24 52  1  0
 24 53  1  0
 25 54  1  0
 25 55  1  0
 27 56  1  0
M  CHG  1  23   1
M  END
>  <UniqueID>  (48) 
583

>  <SMILES>  (48) 
c1cncc(CCNc2nc(N3CCCCC3)nc(N3CC[NH2+]CC3)n2)c1

>  <Energy>  (48) 
59.02563653953893

>  <Genealogy>  (48) 
c1cncc(CCNc2nc(N3CCCCC3)nc(N3CC[NH2+]CC3)n2)c1 (protonated)
c1cncc(CCNc2nc(N3CCCCC3)nc(N3CC[NH2+]CC3)n2)c1 (3D coordinates assigned)
c1cncc(CCNc2nc(N3CCCCC3)nc(N3CC[NH2+]CC3)n2)c1 (nonaromatic ring conformer: 59.02563653953893 kcal/mol)

>  <smiles>  (48) 
c1cncc(CCNc2nc(N3CCCCC3)nc(N3CCNCC3)n2)c1

>  <score_type>  (48) 
oracle

>  <origin>  (48) 
autodockgpu

>  <m_score__min__energy>  (48) 
-7.7999999999999998

>  <m_primary>  (48) 
energy

>  <meeko>  (48) 
{"free_energy": -7.2, "intermolecular_energy": -8.99, "internal_energy": -1.03, "cluster_size": 9, "cluster_id": 1, "rank_in_cluster": 8}

>  <energy>  (48) 
-7.2

>  <cluster_rmsd>  (48) 
1.51

>  <rmsd>  (48) 
271.09

>  <cluster>  (48) 
1

$$$$
YQRBYBBKMCEKLP-ODCLCHFBNA-O
     RDKit          3D

 56 59  0  0  0  0  0  0  0  0999 V2000
  142.5560   79.3730  223.1970 C   0  0  0  0  0  0  0  0  0  0  0  0
  142.5660   80.3130  222.1650 C   0  0  0  0  0  0  0  0  0  0  0  0
  141.4000   80.6910  221.5730 N   0  0  0  0  0  0  0  0  0  0  0  0
  140.2010   80.1790  221.9630 C   0  0  0  0  0  0  0  0  0  0  0  0
  140.1420   79.2440  223.0090 C   0  0  0  0  0  0  0  0  0  0  0  0
  138.8230   78.6700  223.4520 C   0  0  0  0  0  0  0  0  0  0  0  0
  138.4190   77.4880  222.5680 C   0  0  0  0  0  0  0  0  0  0  0  0
  139.4510   76.4530  222.5950 N   0  0  0  0  0  0  0  0  0  0  0  0
  140.4560   76.3360  221.5790 C   0  0  0  0  0  0  0  0  0  0  0  0
  141.3540   75.3180  221.6100 N   0  0  0  0  0  0  0  0  0  0  0  0
  142.3160   75.2140  220.6540 C   0  0  0  0  0  0  0  0  0  0  0  0
  143.2610   74.1260  220.6810 N   0  0  0  0  0  0  0  0  0  0  0  0
  144.6980   74.4190  220.5390 C   0  0  0  0  0  0  0  0  0  0  0  0
  145.5230   73.1370  220.3670 C   0  0  0  0  0  0  0  0  0  0  0  0
  144.8470   72.2100  219.3530 C   0  0  0  0  0  0  0  0  0  0  0  0
  143.4100   71.8260  219.7660 C   0  0  0  0  0  0  0  0  0  0  0  0
  142.8190   72.7340  220.8590 C   0  0  0  0  0  0  0  0  0  0  0  0
  142.3680   76.1420  219.6620 N   0  0  0  0  0  0  0  0  0  0  0  0
  141.4770   77.1680  219.6200 C   0  0  0  0  0  0  0  0  0  0  0  0
  141.5400   78.1500  218.5640 N   0  0  0  0  0  0  0  0  0  0  0  0
  142.1990   79.4380  218.8290 C   0  0  0  0  0  0  0  0  0  0  0  0
  142.2140   80.3190  217.5770 C   0  0  0  0  0  0  0  0  0  0  0  0
  142.5770   79.5100  216.4080 N   0  0  0  0  0  0  0  0  0  0  0  0
  141.5370   78.5130  216.0800 C   0  0  0  0  0  0  0  0  0  0  0  0
  140.7880   77.9510  217.3120 C   0  0  0  0  0  0  0  0  0  0  0  0
  140.5210   77.2560  220.5840 N   0  0  0  0  0  0  0  0  0  0  0  0
  141.3390   78.8310  223.6160 C   0  0  0  0  0  0  0  0  0  0  0  0
  143.4967   79.0625  223.6751 H   0  0  0  0  0  0  0  0  0  0  0  0
  143.5184   80.7493  221.8294 H   0  0  0  0  0  0  0  0  0  0  0  0
  139.2771   80.4979  221.4583 H   0  0  0  0  0  0  0  0  0  0  0  0
  138.9106   78.3276  224.4937 H   0  0  0  0  0  0  0  0  0  0  0  0
  138.0532   79.4513  223.3686 H   0  0  0  0  0  0  0  0  0  0  0  0
  137.4730   77.0658  222.9380 H   0  0  0  0  0  0  0  0  0  0  0  0
  138.2970   77.8422  221.5338 H   0  0  0  0  0  0  0  0  0  0  0  0
  139.4600   75.7790  223.3910 H   0  0  0  0  0  0  0  0  0  0  0  0
  144.8460   75.0594  219.6570 H   0  0  0  0  0  0  0  0  0  0  0  0
  145.0373   74.9255  221.4546 H   0  0  0  0  0  0  0  0  0  0  0  0
  146.5296   73.3973  220.0078 H   0  0  0  0  0  0  0  0  0  0  0  0
  145.5939   72.6211  221.3359 H   0  0  0  0  0  0  0  0  0  0  0  0
  144.8093   72.7205  218.3794 H   0  0  0  0  0  0  0  0  0  0  0  0
  145.4381   71.2837  219.3026 H   0  0  0  0  0  0  0  0  0  0  0  0
  142.7648   71.8868  218.8772 H   0  0  0  0  0  0  0  0  0  0  0  0
  143.4551   70.8086  220.1818 H   0  0  0  0  0  0  0  0  0  0  0  0
  141.7210   72.6951  220.8047 H   0  0  0  0  0  0  0  0  0  0  0  0
  143.1682   72.3770  221.8391 H   0  0  0  0  0  0  0  0  0  0  0  0
  141.6557   79.9612  219.6296 H   0  0  0  0  0  0  0  0  0  0  0  0
  143.2387   79.2423  219.1302 H   0  0  0  0  0  0  0  0  0  0  0  0
  141.2156   80.7548  217.4244 H   0  0  0  0  0  0  0  0  0  0  0  0
  142.9523   81.1241  217.7066 H   0  0  0  0  0  0  0  0  0  0  0  0
  143.4850   79.0200  216.5900 H   0  0  0  0  0  0  0  0  0  0  0  0
  142.7100   80.1450  215.5850 H   0  0  0  0  0  0  0  0  0  0  0  0
  140.8005   78.9883  215.4154 H   0  0  0  0  0  0  0  0  0  0  0  0
  142.0509   77.6632  215.6070 H   0  0  0  0  0  0  0  0  0  0  0  0
  139.8169   78.4605  217.3981 H   0  0  0  0  0  0  0  0  0  0  0  0
  140.6625   76.8683  217.1639 H   0  0  0  0  0  0  0  0  0  0  0  0
  141.3181   78.0813  224.4207 H   0  0  0  0  0  0  0  0  0  0  0  0
  1  2  2  0
  2  3  1  0
  3  4  2  0
  4  5  1  0
  5  6  1  0
  6  7  1  0
  7  8  1  0
  8  9  1  0
  9 10  2  0
 10 11  1  0
 11 12  1  0
 12 13  1  0
 13 14  1  0
 14 15  1  0
 15 16  1  0
 16 17  1  0
 11 18  2  0
 18 19  1  0
 19 20  1  0
 20 21  1  0
 21 22  1  0
 22 23  1  0
 23 24  1  0
 24 25  1  0
 19 26  2  0
  5 27  2  0
 27  1  1  0
 26  9  1  0
 17 12  1  0
 25 20  1  0
  1 28  1  0
  2 29  1  0
  4 30  1  0
  6 31  1  0
  6 32  1  0
  7 33  1  0
  7 34  1  0
  8 35  1  0
 13 36  1  0
 13 37  1  0
 14 38  1  0
 14 39  1  0
 15 40  1  0
 15 41  1  0
 16 42  1  0
 16 43  1  0
 17 44  1  0
 17 45  1  0
 21 46  1  0
 21 47  1  0
 22 48  1  0
 22 49  1  0
 23 50  1  0
 23 51  1  0
 24 52  1  0
 24 53  1  0
 25 54  1  0
 25 55  1  0
 27 56  1  0
M  CHG  1  23   1
M  END
>  <UniqueID>  (49) 
583

>  <SMILES>  (49) 
c1cncc(CCNc2nc(N3CCCCC3)nc(N3CC[NH2+]CC3)n2)c1

>  <Energy>  (49) 
59.02563653953893

>  <Genealogy>  (49) 
c1cncc(CCNc2nc(N3CCCCC3)nc(N3CC[NH2+]CC3)n2)c1 (protonated)
c1cncc(CCNc2nc(N3CCCCC3)nc(N3CC[NH2+]CC3)n2)c1 (3D coordinates assigned)
c1cncc(CCNc2nc(N3CCCCC3)nc(N3CC[NH2+]CC3)n2)c1 (nonaromatic ring conformer: 59.02563653953893 kcal/mol)

>  <smiles>  (49) 
c1cncc(CCNc2nc(N3CCCCC3)nc(N3CCNCC3)n2)c1

>  <score_type>  (49) 
oracle

>  <origin>  (49) 
autodockgpu

>  <m_score__min__energy>  (49) 
-7.7999999999999998

>  <m_primary>  (49) 
energy

>  <meeko>  (49) 
{"free_energy": -6.87, "intermolecular_energy": -8.66, "internal_energy": -1.54, "cluster_size": 1, "cluster_id": 5, "rank_in_cluster": 1}

>  <energy>  (49) 
-7.16

>  <cluster_rmsd>  (49) 
1.92

>  <rmsd>  (49) 
271.36

>  <cluster>  (49) 
1

$$$$
YQRBYBBKMCEKLP-ODCLCHFBNA-O
     RDKit          3D

 56 59  0  0  0  0  0  0  0  0999 V2000
  141.0170   68.2480  226.9930 C   0  0  0  0  0  0  0  0  0  0  0  0
  140.1740   67.2340  226.5330 C   0  0  0  0  0  0  0  0  0  0  0  0
  139.2630   67.4940  225.5550 N   0  0  0  0  0  0  0  0  0  0  0  0
  139.1480   68.7300  224.9960 C   0  0  0  0  0  0  0  0  0  0  0  0
  139.9870   69.7740  225.4160 C   0  0  0  0  0  0  0  0  0  0  0  0
  139.8710   71.1450  224.8060 C   0  0  0  0  0  0  0  0  0  0  0  0
  138.7330   71.1910  223.7830 C   0  0  0  0  0  0  0  0  0  0  0  0
  139.2650   71.3760  222.4340 N   0  0  0  0  0  0  0  0  0  0  0  0
  140.0330   72.5270  222.0560 C   0  0  0  0  0  0  0  0  0  0  0  0
  141.2420   72.3850  221.4570 N   0  0  0  0  0  0  0  0  0  0  0  0
  141.9770   73.4750  221.1110 C   0  0  0  0  0  0  0  0  0  0  0  0
  143.2560   73.3230  220.4630 N   0  0  0  0  0  0  0  0  0  0  0  0
  143.6650   71.9910  219.9850 C   0  0  0  0  0  0  0  0  0  0  0  0
  145.1290   71.9780  219.5300 C   0  0  0  0  0  0  0  0  0  0  0  0
  146.0040   72.7030  220.5570 C   0  0  0  0  0  0  0  0  0  0  0  0
  145.5660   74.1660  220.7820 C   0  0  0  0  0  0  0  0  0  0  0  0
  144.1510   74.4730  220.2600 C   0  0  0  0  0  0  0  0  0  0  0  0
  141.4840   74.7160  221.3690 N   0  0  0  0  0  0  0  0  0  0  0  0
  140.2750   74.8740  221.9710 C   0  0  0  0  0  0  0  0  0  0  0  0
  139.7590   76.1940  222.2430 N   0  0  0  0  0  0  0  0  0  0  0  0
  140.7000   77.3190  222.3420 C   0  0  0  0  0  0  0  0  0  0  0  0
  139.9600   78.6390  222.5770 C   0  0  0  0  0  0  0  0  0  0  0  0
  138.7870   78.7110  221.7010 N   0  0  0  0  0  0  0  0  0  0  0  0
  137.7640   77.7070  222.0620 C   0  0  0  0  0  0  0  0  0  0  0  0
  138.3440   76.3830  222.6110 C   0  0  0  0  0  0  0  0  0  0  0  0
  139.5530   73.7710  222.3100 N   0  0  0  0  0  0  0  0  0  0  0  0
  140.9180   69.5250  226.4360 C   0  0  0  0  0  0  0  0  0  0  0  0
  141.7514   68.0430  227.7858 H   0  0  0  0  0  0  0  0  0  0  0  0
  140.2461   66.2235  226.9616 H   0  0  0  0  0  0  0  0  0  0  0  0
  138.3961   68.9109  224.2137 H   0  0  0  0  0  0  0  0  0  0  0  0
  139.6705   71.8778  225.6015 H   0  0  0  0  0  0  0  0  0  0  0  0
  140.8148   71.3838  224.2940 H   0  0  0  0  0  0  0  0  0  0  0  0
  138.1708   70.2464  223.8241 H   0  0  0  0  0  0  0  0  0  0  0  0
  138.0718   72.0364  224.0239 H   0  0  0  0  0  0  0  0  0  0  0  0
  139.0860   70.6360  221.7220 H   0  0  0  0  0  0  0  0  0  0  0  0
  143.5388   71.2648  220.8015 H   0  0  0  0  0  0  0  0  0  0  0  0
  143.0350   71.7272  219.1227 H   0  0  0  0  0  0  0  0  0  0  0  0
  145.4703   70.9370  219.4310 H   0  0  0  0  0  0  0  0  0  0  0  0
  145.2100   72.4914  218.5605 H   0  0  0  0  0  0  0  0  0  0  0  0
  145.9422   72.1654  221.5147 H   0  0  0  0  0  0  0  0  0  0  0  0
  147.0323   72.7191  220.1667 H   0  0  0  0  0  0  0  0  0  0  0  0
  145.5911   74.3743  221.8618 H   0  0  0  0  0  0  0  0  0  0  0  0
  146.2632   74.8019  220.2168 H   0  0  0  0  0  0  0  0  0  0  0  0
  143.7485   75.3425  220.8003 H   0  0  0  0  0  0  0  0  0  0  0  0
  144.2121   74.6851  219.1824 H   0  0  0  0  0  0  0  0  0  0  0  0
  141.3881   77.1388  223.1811 H   0  0  0  0  0  0  0  0  0  0  0  0
  141.2551   77.3939  221.3953 H   0  0  0  0  0  0  0  0  0  0  0  0
  139.6363   78.6947  223.6268 H   0  0  0  0  0  0  0  0  0  0  0  0
  140.6339   79.4791  222.3529 H   0  0  0  0  0  0  0  0  0  0  0  0
  139.0830   78.5640  220.7060 H   0  0  0  0  0  0  0  0  0  0  0  0
  138.3650   79.6670  221.7760 H   0  0  0  0  0  0  0  0  0  0  0  0
  137.1092   78.1424  222.8312 H   0  0  0  0  0  0  0  0  0  0  0  0
  137.2248   77.4571  221.1364 H   0  0  0  0  0  0  0  0  0  0  0  0
  138.2621   76.3894  223.7079 H   0  0  0  0  0  0  0  0  0  0  0  0
  137.7691   75.5561  222.1687 H   0  0  0  0  0  0  0  0  0  0  0  0
  141.5693   70.3348  226.7966 H   0  0  0  0  0  0  0  0  0  0  0  0
  1  2  2  0
  2  3  1  0
  3  4  2  0
  4  5  1  0
  5  6  1  0
  6  7  1  0
  7  8  1  0
  8  9  1  0
  9 10  2  0
 10 11  1  0
 11 12  1  0
 12 13  1  0
 13 14  1  0
 14 15  1  0
 15 16  1  0
 16 17  1  0
 11 18  2  0
 18 19  1  0
 19 20  1  0
 20 21  1  0
 21 22  1  0
 22 23  1  0
 23 24  1  0
 24 25  1  0
 19 26  2  0
  5 27  2  0
 27  1  1  0
 26  9  1  0
 17 12  1  0
 25 20  1  0
  1 28  1  0
  2 29  1  0
  4 30  1  0
  6 31  1  0
  6 32  1  0
  7 33  1  0
  7 34  1  0
  8 35  1  0
 13 36  1  0
 13 37  1  0
 14 38  1  0
 14 39  1  0
 15 40  1  0
 15 41  1  0
 16 42  1  0
 16 43  1  0
 17 44  1  0
 17 45  1  0
 21 46  1  0
 21 47  1  0
 22 48  1  0
 22 49  1  0
 23 50  1  0
 23 51  1  0
 24 52  1  0
 24 53  1  0
 25 54  1  0
 25 55  1  0
 27 56  1  0
M  CHG  1  23   1
M  END
>  <UniqueID>  (50) 
583

>  <SMILES>  (50) 
c1cncc(CCNc2nc(N3CCCCC3)nc(N3CC[NH2+]CC3)n2)c1

>  <Energy>  (50) 
59.02563653953893

>  <Genealogy>  (50) 
c1cncc(CCNc2nc(N3CCCCC3)nc(N3CC[NH2+]CC3)n2)c1 (protonated)
c1cncc(CCNc2nc(N3CCCCC3)nc(N3CC[NH2+]CC3)n2)c1 (3D coordinates assigned)
c1cncc(CCNc2nc(N3CCCCC3)nc(N3CC[NH2+]CC3)n2)c1 (nonaromatic ring conformer: 59.02563653953893 kcal/mol)

>  <smiles>  (50) 
c1cncc(CCNc2nc(N3CCCCC3)nc(N3CCNCC3)n2)c1

>  <score_type>  (50) 
oracle

>  <origin>  (50) 
autodockgpu

>  <m_score__min__energy>  (50) 
-7.7999999999999998

>  <m_primary>  (50) 
energy

>  <meeko>  (50) 
{"free_energy": -7.28, "intermolecular_energy": -9.07, "internal_energy": -0.85, "cluster_size": 9, "cluster_id": 1, "rank_in_cluster": 6}

>  <energy>  (50) 
-7.61

>  <cluster_rmsd>  (50) 
0.0

>  <rmsd>  (50) 
271.02

>  <cluster>  (50) 
2

$$$$
YQRBYBBKMCEKLP-ODCLCHFBNA-O
     RDKit          3D

 56 59  0  0  0  0  0  0  0  0999 V2000
  141.3770   72.4130  221.4050 C   0  0  0  0  0  0  0  0  0  0  0  0
  140.3290   73.1110  222.0090 C   0  0  0  0  0  0  0  0  0  0  0  0
  140.3060   74.4720  221.9780 N   0  0  0  0  0  0  0  0  0  0  0  0
  141.2850   75.1890  221.3620 C   0  0  0  0  0  0  0  0  0  0  0  0
  142.3490   74.5280  220.7270 C   0  0  0  0  0  0  0  0  0  0  0  0
  143.4370   75.3100  220.0410 C   0  0  0  0  0  0  0  0  0  0  0  0
  143.2250   75.3270  218.5260 C   0  0  0  0  0  0  0  0  0  0  0  0
  142.1120   76.2090  218.1760 N   0  0  0  0  0  0  0  0  0  0  0  0
  142.0880   77.6000  218.5240 C   0  0  0  0  0  0  0  0  0  0  0  0
  141.8320   77.9890  219.7990 N   0  0  0  0  0  0  0  0  0  0  0  0
  141.7940   79.3080  220.1270 C   0  0  0  0  0  0  0  0  0  0  0  0
  141.5340   79.7200  221.4830 N   0  0  0  0  0  0  0  0  0  0  0  0
  141.8090   81.1130  221.8760 C   0  0  0  0  0  0  0  0  0  0  0  0
  141.6860   81.3080  223.3920 C   0  0  0  0  0  0  0  0  0  0  0  0
  142.4010   80.1710  224.1280 C   0  0  0  0  0  0  0  0  0  0  0  0
  141.8400   78.7800  223.7570 C   0  0  0  0  0  0  0  0  0  0  0  0
  140.9880   78.7810  222.4760 C   0  0  0  0  0  0  0  0  0  0  0  0
  142.0190   80.2380  219.1610 N   0  0  0  0  0  0  0  0  0  0  0  0
  142.2750   79.8630  217.8790 C   0  0  0  0  0  0  0  0  0  0  0  0
  142.5120   80.8560  216.8580 N   0  0  0  0  0  0  0  0  0  0  0  0
  143.3690   82.0080  217.1730 C   0  0  0  0  0  0  0  0  0  0  0  0
  143.5460   82.9150  215.9520 C   0  0  0  0  0  0  0  0  0  0  0  0
  143.7890   82.0960  214.7590 N   0  0  0  0  0  0  0  0  0  0  0  0
  142.6050   81.2940  214.3880 C   0  0  0  0  0  0  0  0  0  0  0  0
  141.7570   80.8230  215.5930 C   0  0  0  0  0  0  0  0  0  0  0  0
  142.3090   78.5380  217.5690 N   0  0  0  0  0  0  0  0  0  0  0  0
  142.3950   73.1270  220.7670 C   0  0  0  0  0  0  0  0  0  0  0  0
  141.4009   71.3136  221.4311 H   0  0  0  0  0  0  0  0  0  0  0  0
  139.5201   72.5599  222.5110 H   0  0  0  0  0  0  0  0  0  0  0  0
  141.2429   76.2882  221.3615 H   0  0  0  0  0  0  0  0  0  0  0  0
  143.4296   76.3436  220.4173 H   0  0  0  0  0  0  0  0  0  0  0  0
  144.4033   74.8300  220.2552 H   0  0  0  0  0  0  0  0  0  0  0  0
  144.1413   75.6880  218.0360 H   0  0  0  0  0  0  0  0  0  0  0  0
  142.9915   74.3068  218.1873 H   0  0  0  0  0  0  0  0  0  0  0  0
  141.3090   75.8100  217.6440 H   0  0  0  0  0  0  0  0  0  0  0  0
  142.8304   81.3766  221.5641 H   0  0  0  0  0  0  0  0  0  0  0  0
  141.0680   81.7611  221.3851 H   0  0  0  0  0  0  0  0  0  0  0  0
  142.1431   82.2680  223.6737 H   0  0  0  0  0  0  0  0  0  0  0  0
  140.6219   81.3044  223.6705 H   0  0  0  0  0  0  0  0  0  0  0  0
  143.4697   80.2006  223.8693 H   0  0  0  0  0  0  0  0  0  0  0  0
  142.2412   80.3187  225.2063 H   0  0  0  0  0  0  0  0  0  0  0  0
  142.6855   78.0915  223.6117 H   0  0  0  0  0  0  0  0  0  0  0  0
  141.1824   78.4671  224.5814 H   0  0  0  0  0  0  0  0  0  0  0  0
  140.9805   77.7679  222.0476 H   0  0  0  0  0  0  0  0  0  0  0  0
  139.9663   79.0967  222.7337 H   0  0  0  0  0  0  0  0  0  0  0  0
  142.9075   82.5870  217.9865 H   0  0  0  0  0  0  0  0  0  0  0  0
  144.3581   81.6344  217.4765 H   0  0  0  0  0  0  0  0  0  0  0  0
  142.6345   83.5131  215.8055 H   0  0  0  0  0  0  0  0  0  0  0  0
  144.4040   83.5836  216.1160 H   0  0  0  0  0  0  0  0  0  0  0  0
  144.6020   81.4580  214.9330 H   0  0  0  0  0  0  0  0  0  0  0  0
  144.0360   82.7270  213.9600 H   0  0  0  0  0  0  0  0  0  0  0  0
  141.9656   81.9047  213.7336 H   0  0  0  0  0  0  0  0  0  0  0  0
  142.9798   80.3872  213.8908 H   0  0  0  0  0  0  0  0  0  0  0  0
  140.8808   81.4813  215.6872 H   0  0  0  0  0  0  0  0  0  0  0  0
  141.4596   79.7804  215.4069 H   0  0  0  0  0  0  0  0  0  0  0  0
  143.2320   72.5903  220.2964 H   0  0  0  0  0  0  0  0  0  0  0  0
  1  2  2  0
  2  3  1  0
  3  4  2  0
  4  5  1  0
  5  6  1  0
  6  7  1  0
  7  8  1  0
  8  9  1  0
  9 10  2  0
 10 11  1  0
 11 12  1  0
 12 13  1  0
 13 14  1  0
 14 15  1  0
 15 16  1  0
 16 17  1  0
 11 18  2  0
 18 19  1  0
 19 20  1  0
 20 21  1  0
 21 22  1  0
 22 23  1  0
 23 24  1  0
 24 25  1  0
 19 26  2  0
  5 27  2  0
 27  1  1  0
 26  9  1  0
 17 12  1  0
 25 20  1  0
  1 28  1  0
  2 29  1  0
  4 30  1  0
  6 31  1  0
  6 32  1  0
  7 33  1  0
  7 34  1  0
  8 35  1  0
 13 36  1  0
 13 37  1  0
 14 38  1  0
 14 39  1  0
 15 40  1  0
 15 41  1  0
 16 42  1  0
 16 43  1  0
 17 44  1  0
 17 45  1  0
 21 46  1  0
 21 47  1  0
 22 48  1  0
 22 49  1  0
 23 50  1  0
 23 51  1  0
 24 52  1  0
 24 53  1  0
 25 54  1  0
 25 55  1  0
 27 56  1  0
M  CHG  1  23   1
M  END
>  <UniqueID>  (51) 
583

>  <SMILES>  (51) 
c1cncc(CCNc2nc(N3CCCCC3)nc(N3CC[NH2+]CC3)n2)c1

>  <Energy>  (51) 
59.02563653953893

>  <Genealogy>  (51) 
c1cncc(CCNc2nc(N3CCCCC3)nc(N3CC[NH2+]CC3)n2)c1 (protonated)
c1cncc(CCNc2nc(N3CCCCC3)nc(N3CC[NH2+]CC3)n2)c1 (3D coordinates assigned)
c1cncc(CCNc2nc(N3CCCCC3)nc(N3CC[NH2+]CC3)n2)c1 (nonaromatic ring conformer: 59.02563653953893 kcal/mol)

>  <smiles>  (51) 
c1cncc(CCNc2nc(N3CCCCC3)nc(N3CCNCC3)n2)c1

>  <score_type>  (51) 
oracle

>  <origin>  (51) 
autodockgpu

>  <m_score__min__energy>  (51) 
-7.7999999999999998

>  <m_primary>  (51) 
energy

>  <meeko>  (51) 
{"free_energy": -7.02, "intermolecular_energy": -8.81, "internal_energy": -1.19, "cluster_size": 5, "cluster_id": 4, "rank_in_cluster": 4}

>  <energy>  (51) 
-7.42

>  <cluster_rmsd>  (51) 
0.0

>  <rmsd>  (51) 
270.61

>  <cluster>  (51) 
3

$$$$
YQRBYBBKMCEKLP-ODCLCHFBNA-O
     RDKit          3D

 56 59  0  0  0  0  0  0  0  0999 V2000
  145.4550   74.1240  220.7960 C   0  0  0  0  0  0  0  0  0  0  0  0
  146.3290   73.3700  220.0110 C   0  0  0  0  0  0  0  0  0  0  0  0
  145.8660   72.3030  219.3030 N   0  0  0  0  0  0  0  0  0  0  0  0
  144.5540   71.9430  219.3310 C   0  0  0  0  0  0  0  0  0  0  0  0
  143.6360   72.6840  220.0930 C   0  0  0  0  0  0  0  0  0  0  0  0
  142.1820   72.2970  220.1310 C   0  0  0  0  0  0  0  0  0  0  0  0
  141.6340   72.3740  221.5580 C   0  0  0  0  0  0  0  0  0  0  0  0
  140.6120   73.4140  221.6570 N   0  0  0  0  0  0  0  0  0  0  0  0
  140.8570   74.7790  221.2910 C   0  0  0  0  0  0  0  0  0  0  0  0
  140.6890   75.7780  222.1940 N   0  0  0  0  0  0  0  0  0  0  0  0
  140.9070   77.0730  221.8430 C   0  0  0  0  0  0  0  0  0  0  0  0
  140.7410   78.1330  222.8060 N   0  0  0  0  0  0  0  0  0  0  0  0
  139.4260   78.7830  222.9400 C   0  0  0  0  0  0  0  0  0  0  0  0
  139.4950   80.0210  223.8420 C   0  0  0  0  0  0  0  0  0  0  0  0
  140.7140   80.8710  223.4740 C   0  0  0  0  0  0  0  0  0  0  0  0
  142.0410   80.0910  223.5960 C   0  0  0  0  0  0  0  0  0  0  0  0
  141.8540   78.5650  223.6650 C   0  0  0  0  0  0  0  0  0  0  0  0
  141.3000   77.3590  220.5730 N   0  0  0  0  0  0  0  0  0  0  0  0
  141.4690   76.3690  219.6570 C   0  0  0  0  0  0  0  0  0  0  0  0
  141.8850   76.6790  218.3090 N   0  0  0  0  0  0  0  0  0  0  0  0
  141.2600   77.8160  217.6170 C   0  0  0  0  0  0  0  0  0  0  0  0
  141.8700   78.0200  216.2280 C   0  0  0  0  0  0  0  0  0  0  0  0
  143.3290   77.8920  216.3050 N   0  0  0  0  0  0  0  0  0  0  0  0
  143.7470   76.5130  216.6350 C   0  0  0  0  0  0  0  0  0  0  0  0
  142.7700   75.7620  217.5690 C   0  0  0  0  0  0  0  0  0  0  0  0
  141.2470   75.0780  220.0260 N   0  0  0  0  0  0  0  0  0  0  0  0
  144.1040   73.7750  220.8420 C   0  0  0  0  0  0  0  0  0  0  0  0
  145.8268   74.9840  221.3723 H   0  0  0  0  0  0  0  0  0  0  0  0
  147.3947   73.6386  219.9642 H   0  0  0  0  0  0  0  0  0  0  0  0
  144.2118   71.0701  218.7558 H   0  0  0  0  0  0  0  0  0  0  0  0
  141.6100   72.9820  219.4880 H   0  0  0  0  0  0  0  0  0  0  0  0
  142.0841   71.2618  219.7721 H   0  0  0  0  0  0  0  0  0  0  0  0
  141.1913   71.4041  221.8288 H   0  0  0  0  0  0  0  0  0  0  0  0
  142.4587   72.6184  222.2437 H   0  0  0  0  0  0  0  0  0  0  0  0
  139.6640   73.1490  222.0010 H   0  0  0  0  0  0  0  0  0  0  0  0
  139.0755   79.0875  221.9428 H   0  0  0  0  0  0  0  0  0  0  0  0
  138.7324   78.0627  223.3985 H   0  0  0  0  0  0  0  0  0  0  0  0
  138.5811   80.6189  223.7102 H   0  0  0  0  0  0  0  0  0  0  0  0
  139.5830   79.6991  224.8902 H   0  0  0  0  0  0  0  0  0  0  0  0
  140.6024   81.2159  222.4354 H   0  0  0  0  0  0  0  0  0  0  0  0
  140.7573   81.7140  224.1793 H   0  0  0  0  0  0  0  0  0  0  0  0
  142.6643   80.3258  222.7206 H   0  0  0  0  0  0  0  0  0  0  0  0
  142.5123   80.4015  224.5402 H   0  0  0  0  0  0  0  0  0  0  0  0
  142.7792   78.0733  223.3300 H   0  0  0  0  0  0  0  0  0  0  0  0
  141.6248   78.2857  224.7040 H   0  0  0  0  0  0  0  0  0  0  0  0
  140.1822   77.6234  217.5111 H   0  0  0  0  0  0  0  0  0  0  0  0
  141.4343   78.7249  218.2116 H   0  0  0  0  0  0  0  0  0  0  0  0
  141.4722   77.2605  215.5389 H   0  0  0  0  0  0  0  0  0  0  0  0
  141.6114   79.0240  215.8605 H   0  0  0  0  0  0  0  0  0  0  0  0
  143.7010   78.5510  217.0300 H   0  0  0  0  0  0  0  0  0  0  0  0
  143.7430   78.1590  215.3800 H   0  0  0  0  0  0  0  0  0  0  0  0
  143.8334   75.9448  215.6971 H   0  0  0  0  0  0  0  0  0  0  0  0
  144.7025   76.5923  217.1742 H   0  0  0  0  0  0  0  0  0  0  0  0
  142.1502   75.0857  216.9620 H   0  0  0  0  0  0  0  0  0  0  0  0
  143.3694   75.2066  218.3054 H   0  0  0  0  0  0  0  0  0  0  0  0
  143.4067   74.3546  221.4648 H   0  0  0  0  0  0  0  0  0  0  0  0
  1  2  2  0
  2  3  1  0
  3  4  2  0
  4  5  1  0
  5  6  1  0
  6  7  1  0
  7  8  1  0
  8  9  1  0
  9 10  2  0
 10 11  1  0
 11 12  1  0
 12 13  1  0
 13 14  1  0
 14 15  1  0
 15 16  1  0
 16 17  1  0
 11 18  2  0
 18 19  1  0
 19 20  1  0
 20 21  1  0
 21 22  1  0
 22 23  1  0
 23 24  1  0
 24 25  1  0
 19 26  2  0
  5 27  2  0
 27  1  1  0
 26  9  1  0
 17 12  1  0
 25 20  1  0
  1 28  1  0
  2 29  1  0
  4 30  1  0
  6 31  1  0
  6 32  1  0
  7 33  1  0
  7 34  1  0
  8 35  1  0
 13 36  1  0
 13 37  1  0
 14 38  1  0
 14 39  1  0
 15 40  1  0
 15 41  1  0
 16 42  1  0
 16 43  1  0
 17 44  1  0
 17 45  1  0
 21 46  1  0
 21 47  1  0
 22 48  1  0
 22 49  1  0
 23 50  1  0
 23 51  1  0
 24 52  1  0
 24 53  1  0
 25 54  1  0
 25 55  1  0
 27 56  1  0
M  CHG  1  23   1
M  END
>  <UniqueID>  (52) 
583

>  <SMILES>  (52) 
c1cncc(CCNc2nc(N3CCCCC3)nc(N3CC[NH2+]CC3)n2)c1

>  <Energy>  (52) 
59.02563653953893

>  <Genealogy>  (52) 
c1cncc(CCNc2nc(N3CCCCC3)nc(N3CC[NH2+]CC3)n2)c1 (protonated)
c1cncc(CCNc2nc(N3CCCCC3)nc(N3CC[NH2+]CC3)n2)c1 (3D coordinates assigned)
c1cncc(CCNc2nc(N3CCCCC3)nc(N3CC[NH2+]CC3)n2)c1 (nonaromatic ring conformer: 59.02563653953893 kcal/mol)

>  <smiles>  (52) 
c1cncc(CCNc2nc(N3CCCCC3)nc(N3CCNCC3)n2)c1

>  <score_type>  (52) 
oracle

>  <origin>  (52) 
autodockgpu

>  <m_score__min__energy>  (52) 
-7.7999999999999998

>  <m_primary>  (52) 
energy

>  <meeko>  (52) 
{"free_energy": -7.38, "intermolecular_energy": -9.17, "internal_energy": -1.24, "cluster_size": 4, "cluster_id": 3, "rank_in_cluster": 3}

>  <energy>  (52) 
-7.42

>  <cluster_rmsd>  (52) 
0.06

>  <rmsd>  (52) 
270.63

>  <cluster>  (52) 
3

$$$$
YQRBYBBKMCEKLP-ODCLCHFBNA-O
     RDKit          3D

 56 59  0  0  0  0  0  0  0  0999 V2000
  141.3930   72.2530  227.2710 C   0  0  0  0  0  0  0  0  0  0  0  0
  141.0940   71.4530  228.3760 C   0  0  0  0  0  0  0  0  0  0  0  0
  140.4210   70.2810  228.2100 N   0  0  0  0  0  0  0  0  0  0  0  0
  140.0270   69.8510  226.9800 C   0  0  0  0  0  0  0  0  0  0  0  0
  140.3230   70.6150  225.8390 C   0  0  0  0  0  0  0  0  0  0  0  0
  139.8950   70.1500  224.4730 C   0  0  0  0  0  0  0  0  0  0  0  0
  138.9050   71.1350  223.8480 C   0  0  0  0  0  0  0  0  0  0  0  0
  139.2690   71.4120  222.4590 N   0  0  0  0  0  0  0  0  0  0  0  0
  140.0450   72.5540  222.0740 C   0  0  0  0  0  0  0  0  0  0  0  0
  141.2560   72.4000  221.4820 N   0  0  0  0  0  0  0  0  0  0  0  0
  142.0000   73.4830  221.1310 C   0  0  0  0  0  0  0  0  0  0  0  0
  143.2800   73.3180  220.4910 N   0  0  0  0  0  0  0  0  0  0  0  0
  143.6850   71.9790  220.0280 C   0  0  0  0  0  0  0  0  0  0  0  0
  145.1510   71.9530  219.5810 C   0  0  0  0  0  0  0  0  0  0  0  0
  146.0250   72.6850  220.6030 C   0  0  0  0  0  0  0  0  0  0  0  0
  145.5930   74.1530  220.8100 C   0  0  0  0  0  0  0  0  0  0  0  0
  144.1820   74.4600  220.2790 C   0  0  0  0  0  0  0  0  0  0  0  0
  141.5130   74.7290  221.3760 N   0  0  0  0  0  0  0  0  0  0  0  0
  140.3020   74.8990  221.9700 C   0  0  0  0  0  0  0  0  0  0  0  0
  139.7920   76.2250  222.2290 N   0  0  0  0  0  0  0  0  0  0  0  0
  140.7420   77.3400  222.3540 C   0  0  0  0  0  0  0  0  0  0  0  0
  140.0110   78.6670  222.5690 C   0  0  0  0  0  0  0  0  0  0  0  0
  138.8620   78.7520  221.6610 N   0  0  0  0  0  0  0  0  0  0  0  0
  137.8190   77.7590  221.9930 C   0  0  0  0  0  0  0  0  0  0  0  0
  138.3700   76.4280  222.5580 C   0  0  0  0  0  0  0  0  0  0  0  0
  139.5720   73.8040  222.3150 N   0  0  0  0  0  0  0  0  0  0  0  0
  141.0000   71.8340  225.9980 C   0  0  0  0  0  0  0  0  0  0  0  0
  141.9322   73.2028  227.4019 H   0  0  0  0  0  0  0  0  0  0  0  0
  141.4029   71.7705  229.3829 H   0  0  0  0  0  0  0  0  0  0  0  0
  139.4762   68.9042  226.8794 H   0  0  0  0  0  0  0  0  0  0  0  0
  140.7807   70.0697  223.8257 H   0  0  0  0  0  0  0  0  0  0  0  0
  139.4027   69.1714  224.5724 H   0  0  0  0  0  0  0  0  0  0  0  0
  137.8945   70.7014  223.8782 H   0  0  0  0  0  0  0  0  0  0  0  0
  138.9301   72.0757  224.4177 H   0  0  0  0  0  0  0  0  0  0  0  0
  138.9570   70.7450  221.7200 H   0  0  0  0  0  0  0  0  0  0  0  0
  143.5504   71.2615  220.8508 H   0  0  0  0  0  0  0  0  0  0  0  0
  143.0585   71.7107  219.1646 H   0  0  0  0  0  0  0  0  0  0  0  0
  145.4871   70.9091  219.4960 H   0  0  0  0  0  0  0  0  0  0  0  0
  145.2394   72.4548  218.6061 H   0  0  0  0  0  0  0  0  0  0  0  0
  145.9568   72.1584  221.5664 H   0  0  0  0  0  0  0  0  0  0  0  0
  147.0549   72.6919  220.2167 H   0  0  0  0  0  0  0  0  0  0  0  0
  145.6148   74.3734  221.8875 H   0  0  0  0  0  0  0  0  0  0  0  0
  146.2955   74.7795  220.2408 H   0  0  0  0  0  0  0  0  0  0  0  0
  143.7817   75.3377  220.8075 H   0  0  0  0  0  0  0  0  0  0  0  0
  144.2490   74.6584  219.1991 H   0  0  0  0  0  0  0  0  0  0  0  0
  141.4050   77.1523  223.2115 H   0  0  0  0  0  0  0  0  0  0  0  0
  141.3233   77.4090  221.4227 H   0  0  0  0  0  0  0  0  0  0  0  0
  139.6597   78.7264  223.6097 H   0  0  0  0  0  0  0  0  0  0  0  0
  140.6999   79.4996  222.3633 H   0  0  0  0  0  0  0  0  0  0  0  0
  139.1840   78.6020  220.6750 H   0  0  0  0  0  0  0  0  0  0  0  0
  138.4480   79.7120  221.7250 H   0  0  0  0  0  0  0  0  0  0  0  0
  137.1476   78.2012  222.7438 H   0  0  0  0  0  0  0  0  0  0  0  0
  137.3032   77.5147  221.0527 H   0  0  0  0  0  0  0  0  0  0  0  0
  138.2579   76.4352  223.6523 H   0  0  0  0  0  0  0  0  0  0  0  0
  137.7989   75.6069  222.1002 H   0  0  0  0  0  0  0  0  0  0  0  0
  141.2210   72.4592  225.1203 H   0  0  0  0  0  0  0  0  0  0  0  0
  1  2  2  0
  2  3  1  0
  3  4  2  0
  4  5  1  0
  5  6  1  0
  6  7  1  0
  7  8  1  0
  8  9  1  0
  9 10  2  0
 10 11  1  0
 11 12  1  0
 12 13  1  0
 13 14  1  0
 14 15  1  0
 15 16  1  0
 16 17  1  0
 11 18  2  0
 18 19  1  0
 19 20  1  0
 20 21  1  0
 21 22  1  0
 22 23  1  0
 23 24  1  0
 24 25  1  0
 19 26  2  0
  5 27  2  0
 27  1  1  0
 26  9  1  0
 17 12  1  0
 25 20  1  0
  1 28  1  0
  2 29  1  0
  4 30  1  0
  6 31  1  0
  6 32  1  0
  7 33  1  0
  7 34  1  0
  8 35  1  0
 13 36  1  0
 13 37  1  0
 14 38  1  0
 14 39  1  0
 15 40  1  0
 15 41  1  0
 16 42  1  0
 16 43  1  0
 17 44  1  0
 17 45  1  0
 21 46  1  0
 21 47  1  0
 22 48  1  0
 22 49  1  0
 23 50  1  0
 23 51  1  0
 24 52  1  0
 24 53  1  0
 25 54  1  0
 25 55  1  0
 27 56  1  0
M  CHG  1  23   1
M  END
>  <UniqueID>  (53) 
583

>  <SMILES>  (53) 
c1cncc(CCNc2nc(N3CCCCC3)nc(N3CC[NH2+]CC3)n2)c1

>  <Energy>  (53) 
59.02563653953893

>  <Genealogy>  (53) 
c1cncc(CCNc2nc(N3CCCCC3)nc(N3CC[NH2+]CC3)n2)c1 (protonated)
c1cncc(CCNc2nc(N3CCCCC3)nc(N3CC[NH2+]CC3)n2)c1 (3D coordinates assigned)
c1cncc(CCNc2nc(N3CCCCC3)nc(N3CC[NH2+]CC3)n2)c1 (nonaromatic ring conformer: 59.02563653953893 kcal/mol)

>  <smiles>  (53) 
c1cncc(CCNc2nc(N3CCCCC3)nc(N3CCNCC3)n2)c1

>  <score_type>  (53) 
oracle

>  <origin>  (53) 
autodockgpu

>  <m_score__min__energy>  (53) 
-7.7999999999999998

>  <m_primary>  (53) 
energy

>  <meeko>  (53) 
{"free_energy": -7.25, "intermolecular_energy": -9.04, "internal_energy": -0.92, "cluster_size": 9, "cluster_id": 1, "rank_in_cluster": 7}

>  <energy>  (53) 
-7.38

>  <cluster_rmsd>  (53) 
0.12

>  <rmsd>  (53) 
270.54

>  <cluster>  (53) 
3

$$$$
YQRBYBBKMCEKLP-ODCLCHFBNA-O
     RDKit          3D

 56 59  0  0  0  0  0  0  0  0999 V2000
  141.4500   72.1850  227.4060 C   0  0  0  0  0  0  0  0  0  0  0  0
  140.8740   71.3900  228.3990 C   0  0  0  0  0  0  0  0  0  0  0  0
  140.1050   70.3200  228.0570 N   0  0  0  0  0  0  0  0  0  0  0  0
  139.8790   69.9880  226.7570 C   0  0  0  0  0  0  0  0  0  0  0  0
  140.4540   70.7490  225.7260 C   0  0  0  0  0  0  0  0  0  0  0  0
  140.2130   70.3920  224.2840 C   0  0  0  0  0  0  0  0  0  0  0  0
  138.9770   71.1150  223.7420 C   0  0  0  0  0  0  0  0  0  0  0  0
  139.1950   71.5310  222.3580 N   0  0  0  0  0  0  0  0  0  0  0  0
  140.0040   72.6630  222.0080 C   0  0  0  0  0  0  0  0  0  0  0  0
  141.2100   72.4920  221.4100 N   0  0  0  0  0  0  0  0  0  0  0  0
  141.9840   73.5640  221.0910 C   0  0  0  0  0  0  0  0  0  0  0  0
  143.2600   73.3810  220.4450 N   0  0  0  0  0  0  0  0  0  0  0  0
  143.6150   72.0520  219.9180 C   0  0  0  0  0  0  0  0  0  0  0  0
  145.0800   71.9930  219.4710 C   0  0  0  0  0  0  0  0  0  0  0  0
  145.9780   72.6400  220.5290 C   0  0  0  0  0  0  0  0  0  0  0  0
  145.6010   74.1110  220.8080 C   0  0  0  0  0  0  0  0  0  0  0  0
  144.2050   74.4980  220.2910 C   0  0  0  0  0  0  0  0  0  0  0  0
  141.5340   74.8150  221.3750 N   0  0  0  0  0  0  0  0  0  0  0  0
  140.3280   75.0010  221.9750 C   0  0  0  0  0  0  0  0  0  0  0  0
  139.8560   76.3320  222.2750 N   0  0  0  0  0  0  0  0  0  0  0  0
  140.8360   77.4210  222.4050 C   0  0  0  0  0  0  0  0  0  0  0  0
  140.1420   78.7600  222.6660 C   0  0  0  0  0  0  0  0  0  0  0  0
  138.9770   78.8930  221.7850 N   0  0  0  0  0  0  0  0  0  0  0  0
  137.9170   77.9180  222.1170 C   0  0  0  0  0  0  0  0  0  0  0  0
  138.4470   76.5620  222.6390 C   0  0  0  0  0  0  0  0  0  0  0  0
  139.5670   73.9170  222.2870 N   0  0  0  0  0  0  0  0  0  0  0  0
  141.2330   71.8660  226.0630 C   0  0  0  0  0  0  0  0  0  0  0  0
  142.0681   73.0533  227.6781 H   0  0  0  0  0  0  0  0  0  0  0  0
  141.0419   71.6288  229.4596 H   0  0  0  0  0  0  0  0  0  0  0  0
  139.2452   69.1226  226.5132 H   0  0  0  0  0  0  0  0  0  0  0  0
  141.0909   70.6839  223.6890 H   0  0  0  0  0  0  0  0  0  0  0  0
  140.0450   69.3072  224.2136 H   0  0  0  0  0  0  0  0  0  0  0  0
  138.1125   70.4361  223.7843 H   0  0  0  0  0  0  0  0  0  0  0  0
  138.7879   72.0073  224.3568 H   0  0  0  0  0  0  0  0  0  0  0  0
  138.7500   70.9770  221.5950 H   0  0  0  0  0  0  0  0  0  0  0  0
  143.4518   71.3010  220.7050 H   0  0  0  0  0  0  0  0  0  0  0  0
  142.9806   71.8493  219.0425 H   0  0  0  0  0  0  0  0  0  0  0  0
  145.3769   70.9427  219.3344 H   0  0  0  0  0  0  0  0  0  0  0  0
  145.1898   72.5387  218.5222 H   0  0  0  0  0  0  0  0  0  0  0  0
  145.8872   72.0693  221.4650 H   0  0  0  0  0  0  0  0  0  0  0  0
  147.0086   72.6271  220.1446 H   0  0  0  0  0  0  0  0  0  0  0  0
  145.6273   74.2765  221.8952 H   0  0  0  0  0  0  0  0  0  0  0  0
  146.3286   74.7376  220.2715 H   0  0  0  0  0  0  0  0  0  0  0  0
  143.8365   75.3629  220.8620 H   0  0  0  0  0  0  0  0  0  0  0  0
  144.2827   74.7479  219.2226 H   0  0  0  0  0  0  0  0  0  0  0  0
  141.5120   77.1975  223.2435 H   0  0  0  0  0  0  0  0  0  0  0  0
  141.3994   77.4977  221.4633 H   0  0  0  0  0  0  0  0  0  0  0  0
  139.8140   78.8035  223.7150 H   0  0  0  0  0  0  0  0  0  0  0  0
  140.8463   79.5806  222.4649 H   0  0  0  0  0  0  0  0  0  0  0  0
  139.2740   78.7590  220.7890 H   0  0  0  0  0  0  0  0  0  0  0  0
  138.5880   79.8620  221.8800 H   0  0  0  0  0  0  0  0  0  0  0  0
  137.2729   78.3586  222.8922 H   0  0  0  0  0  0  0  0  0  0  0  0
  137.3752   77.7083  221.1830 H   0  0  0  0  0  0  0  0  0  0  0  0
  138.3583   76.5464  223.7353 H   0  0  0  0  0  0  0  0  0  0  0  0
  137.8464   75.7660  222.1747 H   0  0  0  0  0  0  0  0  0  0  0  0
  141.6725   72.4900  225.2709 H   0  0  0  0  0  0  0  0  0  0  0  0
  1  2  2  0
  2  3  1  0
  3  4  2  0
  4  5  1  0
  5  6  1  0
  6  7  1  0
  7  8  1  0
  8  9  1  0
  9 10  2  0
 10 11  1  0
 11 12  1  0
 12 13  1  0
 13 14  1  0
 14 15  1  0
 15 16  1  0
 16 17  1  0
 11 18  2  0
 18 19  1  0
 19 20  1  0
 20 21  1  0
 21 22  1  0
 22 23  1  0
 23 24  1  0
 24 25  1  0
 19 26  2  0
  5 27  2  0
 27  1  1  0
 26  9  1  0
 17 12  1  0
 25 20  1  0
  1 28  1  0
  2 29  1  0
  4 30  1  0
  6 31  1  0
  6 32  1  0
  7 33  1  0
  7 34  1  0
  8 35  1  0
 13 36  1  0
 13 37  1  0
 14 38  1  0
 14 39  1  0
 15 40  1  0
 15 41  1  0
 16 42  1  0
 16 43  1  0
 17 44  1  0
 17 45  1  0
 21 46  1  0
 21 47  1  0
 22 48  1  0
 22 49  1  0
 23 50  1  0
 23 51  1  0
 24 52  1  0
 24 53  1  0
 25 54  1  0
 25 55  1  0
 27 56  1  0
M  CHG  1  23   1
M  END
>  <UniqueID>  (54) 
583

>  <SMILES>  (54) 
c1cncc(CCNc2nc(N3CCCCC3)nc(N3CC[NH2+]CC3)n2)c1

>  <Energy>  (54) 
59.02563653953893

>  <Genealogy>  (54) 
c1cncc(CCNc2nc(N3CCCCC3)nc(N3CC[NH2+]CC3)n2)c1 (protonated)
c1cncc(CCNc2nc(N3CCCCC3)nc(N3CC[NH2+]CC3)n2)c1 (3D coordinates assigned)
c1cncc(CCNc2nc(N3CCCCC3)nc(N3CC[NH2+]CC3)n2)c1 (nonaromatic ring conformer: 59.02563653953893 kcal/mol)

>  <smiles>  (54) 
c1cncc(CCNc2nc(N3CCCCC3)nc(N3CCNCC3)n2)c1

>  <score_type>  (54) 
oracle

>  <origin>  (54) 
autodockgpu

>  <m_score__min__energy>  (54) 
-7.7999999999999998

>  <m_primary>  (54) 
energy

>  <meeko>  (54) 
{"free_energy": -7.16, "intermolecular_energy": -8.95, "internal_energy": -0.93, "cluster_size": 9, "cluster_id": 1, "rank_in_cluster": 9}

>  <energy>  (54) 
-7.37

>  <cluster_rmsd>  (54) 
0.1

>  <rmsd>  (54) 
270.56

>  <cluster>  (54) 
3

$$$$
YQRBYBBKMCEKLP-ODCLCHFBNA-O
     RDKit          3D

 56 59  0  0  0  0  0  0  0  0999 V2000
  140.9770   68.3610  226.8980 C   0  0  0  0  0  0  0  0  0  0  0  0
  140.0710   67.3860  226.4760 C   0  0  0  0  0  0  0  0  0  0  0  0
  139.2010   67.6540  225.4630 N   0  0  0  0  0  0  0  0  0  0  0  0
  139.1880   68.8600  224.8320 C   0  0  0  0  0  0  0  0  0  0  0  0
  140.0940   69.8630  225.2120 C   0  0  0  0  0  0  0  0  0  0  0  0
  140.0910   71.2000  224.5220 C   0  0  0  0  0  0  0  0  0  0  0  0
  139.2120   71.1660  223.2690 C   0  0  0  0  0  0  0  0  0  0  0  0
  139.0760   72.5070  222.7030 N   0  0  0  0  0  0  0  0  0  0  0  0
  140.1760   73.2140  222.1150 C   0  0  0  0  0  0  0  0  0  0  0  0
  141.2690   72.5440  221.6670 N   0  0  0  0  0  0  0  0  0  0  0  0
  142.3180   73.2160  221.1230 C   0  0  0  0  0  0  0  0  0  0  0  0
  143.4720   72.5030  220.6350 N   0  0  0  0  0  0  0  0  0  0  0  0
  144.7930   73.1540  220.6840 C   0  0  0  0  0  0  0  0  0  0  0  0
  145.8520   72.3440  219.9270 C   0  0  0  0  0  0  0  0  0  0  0  0
  145.2960   71.8850  218.5760 C   0  0  0  0  0  0  0  0  0  0  0  0
  144.0210   71.0270  218.7200 C   0  0  0  0  0  0  0  0  0  0  0  0
  143.3570   71.1360  220.1040 C   0  0  0  0  0  0  0  0  0  0  0  0
  142.2620   74.5710  221.0280 N   0  0  0  0  0  0  0  0  0  0  0  0
  141.1750   75.2560  221.4760 C   0  0  0  0  0  0  0  0  0  0  0  0
  141.1220   76.6950  221.3740 N   0  0  0  0  0  0  0  0  0  0  0  0
  141.0630   77.4930  222.6070 C   0  0  0  0  0  0  0  0  0  0  0  0
  141.0700   78.9920  222.2960 C   0  0  0  0  0  0  0  0  0  0  0  0
  142.0680   79.2770  221.2600 N   0  0  0  0  0  0  0  0  0  0  0  0
  141.6980   78.6850  219.9570 C   0  0  0  0  0  0  0  0  0  0  0  0
  140.9320   77.3460  220.0650 C   0  0  0  0  0  0  0  0  0  0  0  0
  140.1340   74.5670  222.0170 N   0  0  0  0  0  0  0  0  0  0  0  0
  140.9840   69.6070  226.2670 C   0  0  0  0  0  0  0  0  0  0  0  0
  141.6781   68.1500  227.7190 H   0  0  0  0  0  0  0  0  0  0  0  0
  140.0599   66.3996  226.9626 H   0  0  0  0  0  0  0  0  0  0  0  0
  138.4667   69.0490  224.0233 H   0  0  0  0  0  0  0  0  0  0  0  0
  139.7023   71.9616  225.2140 H   0  0  0  0  0  0  0  0  0  0  0  0
  141.1211   71.4432  224.2223 H   0  0  0  0  0  0  0  0  0  0  0  0
  139.6721   70.5026  222.5219 H   0  0  0  0  0  0  0  0  0  0  0  0
  138.2144   70.7929  223.5440 H   0  0  0  0  0  0  0  0  0  0  0  0
  138.1390   72.9620  222.7210 H   0  0  0  0  0  0  0  0  0  0  0  0
  144.7155   74.1526  220.2293 H   0  0  0  0  0  0  0  0  0  0  0  0
  145.1024   73.2237  221.7373 H   0  0  0  0  0  0  0  0  0  0  0  0
  146.7401   72.9715  219.7609 H   0  0  0  0  0  0  0  0  0  0  0  0
  146.1244   71.4608  220.5234 H   0  0  0  0  0  0  0  0  0  0  0  0
  145.0567   72.7735  217.9732 H   0  0  0  0  0  0  0  0  0  0  0  0
  146.0640   71.2626  218.0935 H   0  0  0  0  0  0  0  0  0  0  0  0
  143.2955   71.3522  217.9598 H   0  0  0  0  0  0  0  0  0  0  0  0
  144.3226   69.9773  218.5891 H   0  0  0  0  0  0  0  0  0  0  0  0
  142.2927   70.8727  220.0146 H   0  0  0  0  0  0  0  0  0  0  0  0
  143.8666   70.4470  220.7936 H   0  0  0  0  0  0  0  0  0  0  0  0
  140.1407   77.2438  223.1521 H   0  0  0  0  0  0  0  0  0  0  0  0
  141.9484   77.2591  223.2164 H   0  0  0  0  0  0  0  0  0  0  0  0
  140.0750   79.2960  221.9388 H   0  0  0  0  0  0  0  0  0  0  0  0
  141.3219   79.5523  223.2085 H   0  0  0  0  0  0  0  0  0  0  0  0
  143.0000   78.9030  221.5590 H   0  0  0  0  0  0  0  0  0  0  0  0
  142.1550   80.3150  221.1480 H   0  0  0  0  0  0  0  0  0  0  0  0
  141.0624   79.4039  219.4193 H   0  0  0  0  0  0  0  0  0  0  0  0
  142.6384   78.4700  219.4285 H   0  0  0  0  0  0  0  0  0  0  0  0
  139.8591   77.5398  219.9190 H   0  0  0  0  0  0  0  0  0  0  0  0
  141.3276   76.6696  219.2930 H   0  0  0  0  0  0  0  0  0  0  0  0
  141.6862   70.3870  226.5964 H   0  0  0  0  0  0  0  0  0  0  0  0
  1  2  2  0
  2  3  1  0
  3  4  2  0
  4  5  1  0
  5  6  1  0
  6  7  1  0
  7  8  1  0
  8  9  1  0
  9 10  2  0
 10 11  1  0
 11 12  1  0
 12 13  1  0
 13 14  1  0
 14 15  1  0
 15 16  1  0
 16 17  1  0
 11 18  2  0
 18 19  1  0
 19 20  1  0
 20 21  1  0
 21 22  1  0
 22 23  1  0
 23 24  1  0
 24 25  1  0
 19 26  2  0
  5 27  2  0
 27  1  1  0
 26  9  1  0
 17 12  1  0
 25 20  1  0
  1 28  1  0
  2 29  1  0
  4 30  1  0
  6 31  1  0
  6 32  1  0
  7 33  1  0
  7 34  1  0
  8 35  1  0
 13 36  1  0
 13 37  1  0
 14 38  1  0
 14 39  1  0
 15 40  1  0
 15 41  1  0
 16 42  1  0
 16 43  1  0
 17 44  1  0
 17 45  1  0
 21 46  1  0
 21 47  1  0
 22 48  1  0
 22 49  1  0
 23 50  1  0
 23 51  1  0
 24 52  1  0
 24 53  1  0
 25 54  1  0
 25 55  1  0
 27 56  1  0
M  CHG  1  23   1
M  END
>  <UniqueID>  (55) 
583

>  <SMILES>  (55) 
c1cncc(CCNc2nc(N3CCCCC3)nc(N3CC[NH2+]CC3)n2)c1

>  <Energy>  (55) 
59.02563653953893

>  <Genealogy>  (55) 
c1cncc(CCNc2nc(N3CCCCC3)nc(N3CC[NH2+]CC3)n2)c1 (protonated)
c1cncc(CCNc2nc(N3CCCCC3)nc(N3CC[NH2+]CC3)n2)c1 (3D coordinates assigned)
c1cncc(CCNc2nc(N3CCCCC3)nc(N3CC[NH2+]CC3)n2)c1 (nonaromatic ring conformer: 59.02563653953893 kcal/mol)

>  <smiles>  (55) 
c1cncc(CCNc2nc(N3CCCCC3)nc(N3CCNCC3)n2)c1

>  <score_type>  (55) 
oracle

>  <origin>  (55) 
autodockgpu

>  <m_score__min__energy>  (55) 
-7.7999999999999998

>  <m_primary>  (55) 
energy

>  <meeko>  (55) 
{"free_energy": -7.79, "intermolecular_energy": -9.58, "internal_energy": -0.83, "cluster_size": 9, "cluster_id": 1, "rank_in_cluster": 2}

>  <energy>  (55) 
-7.19

>  <cluster_rmsd>  (55) 
0.0

>  <rmsd>  (55) 
270.31

>  <cluster>  (55) 
4

$$$$
YQRBYBBKMCEKLP-ODCLCHFBNA-O
     RDKit          3D

 56 59  0  0  0  0  0  0  0  0999 V2000
  140.4620   72.0400  221.8800 C   0  0  0  0  0  0  0  0  0  0  0  0
  139.5900   73.0270  222.3450 C   0  0  0  0  0  0  0  0  0  0  0  0
  139.9010   74.3430  222.1870 N   0  0  0  0  0  0  0  0  0  0  0  0
  141.0500   74.7370  221.5740 C   0  0  0  0  0  0  0  0  0  0  0  0
  141.9470   73.7790  221.0750 C   0  0  0  0  0  0  0  0  0  0  0  0
  143.2200   74.2020  220.3930 C   0  0  0  0  0  0  0  0  0  0  0  0
  142.9800   74.4720  218.9060 C   0  0  0  0  0  0  0  0  0  0  0  0
  143.5770   75.7480  218.5160 N   0  0  0  0  0  0  0  0  0  0  0  0
  142.9790   77.0120  218.8320 C   0  0  0  0  0  0  0  0  0  0  0  0
  142.4290   77.2300  220.0540 N   0  0  0  0  0  0  0  0  0  0  0  0
  141.8480   78.4240  220.3490 C   0  0  0  0  0  0  0  0  0  0  0  0
  141.2760   78.6590  221.6510 N   0  0  0  0  0  0  0  0  0  0  0  0
  139.8240   78.4990  221.8370 C   0  0  0  0  0  0  0  0  0  0  0  0
  139.3700   79.0010  223.2130 C   0  0  0  0  0  0  0  0  0  0  0  0
  140.0160   80.3560  223.5170 C   0  0  0  0  0  0  0  0  0  0  0  0
  141.5590   80.2970  223.4910 C   0  0  0  0  0  0  0  0  0  0  0  0
  142.1160   79.0420  222.7970 C   0  0  0  0  0  0  0  0  0  0  0  0
  141.8270   79.4020  219.4050 N   0  0  0  0  0  0  0  0  0  0  0  0
  142.3710   79.1970  218.1770 C   0  0  0  0  0  0  0  0  0  0  0  0
  142.3430   80.2400  217.1790 N   0  0  0  0  0  0  0  0  0  0  0  0
  142.9810   81.5300  217.4800 C   0  0  0  0  0  0  0  0  0  0  0  0
  142.8970   82.4810  216.2840 C   0  0  0  0  0  0  0  0  0  0  0  0
  143.2120   81.7530  215.0500 N   0  0  0  0  0  0  0  0  0  0  0  0
  142.1820   80.7440  214.7250 C   0  0  0  0  0  0  0  0  0  0  0  0
  141.5240   80.0900  215.9630 C   0  0  0  0  0  0  0  0  0  0  0  0
  142.9480   77.9970  217.8990 N   0  0  0  0  0  0  0  0  0  0  0  0
  141.6480   72.4190  221.2480 C   0  0  0  0  0  0  0  0  0  0  0  0
  140.2171   70.9756  222.0103 H   0  0  0  0  0  0  0  0  0  0  0  0
  138.6502   72.7405  222.8398 H   0  0  0  0  0  0  0  0  0  0  0  0
  141.2767   75.8083  221.4691 H   0  0  0  0  0  0  0  0  0  0  0  0
  143.5959   75.1195  220.8694 H   0  0  0  0  0  0  0  0  0  0  0  0
  143.9559   73.3900  220.4881 H   0  0  0  0  0  0  0  0  0  0  0  0
  143.4333   73.6638  218.3133 H   0  0  0  0  0  0  0  0  0  0  0  0
  141.8964   74.5144  218.7218 H   0  0  0  0  0  0  0  0  0  0  0  0
  144.4790   75.7360  217.9930 H   0  0  0  0  0  0  0  0  0  0  0  0
  139.2995   79.0715  221.0578 H   0  0  0  0  0  0  0  0  0  0  0  0
  139.5852   77.4275  221.7669 H   0  0  0  0  0  0  0  0  0  0  0  0
  138.2754   79.1103  223.2177 H   0  0  0  0  0  0  0  0  0  0  0  0
  139.6764   78.2752  223.9807 H   0  0  0  0  0  0  0  0  0  0  0  0
  139.6785   81.0840  222.7646 H   0  0  0  0  0  0  0  0  0  0  0  0
  139.7107   80.6506  224.5319 H   0  0  0  0  0  0  0  0  0  0  0  0
  141.9319   81.1838  222.9575 H   0  0  0  0  0  0  0  0  0  0  0  0
  141.8981   80.2644  224.5369 H   0  0  0  0  0  0  0  0  0  0  0  0
  143.1363   79.2496  222.4422 H   0  0  0  0  0  0  0  0  0  0  0  0
  142.1219   78.2136  223.5207 H   0  0  0  0  0  0  0  0  0  0  0  0
  142.4726   81.9897  218.3404 H   0  0  0  0  0  0  0  0  0  0  0  0
  144.0419   81.3493  217.7077 H   0  0  0  0  0  0  0  0  0  0  0  0
  141.8795   82.8934  216.2156 H   0  0  0  0  0  0  0  0  0  0  0  0
  143.6193   83.2997  216.4183 H   0  0  0  0  0  0  0  0  0  0  0  0
  144.1420   81.2810  215.1500 H   0  0  0  0  0  0  0  0  0  0  0  0
  143.2780   82.4370  214.2590 H   0  0  0  0  0  0  0  0  0  0  0  0
  141.3942   81.2331  214.1333 H   0  0  0  0  0  0  0  0  0  0  0  0
  142.6901   79.9389  214.1740 H   0  0  0  0  0  0  0  0  0  0  0  0
  140.5461   80.5635  216.1350 H   0  0  0  0  0  0  0  0  0  0  0  0
  141.4203   79.0141  215.7589 H   0  0  0  0  0  0  0  0  0  0  0  0
  142.3478   71.6515  220.8858 H   0  0  0  0  0  0  0  0  0  0  0  0
  1  2  2  0
  2  3  1  0
  3  4  2  0
  4  5  1  0
  5  6  1  0
  6  7  1  0
  7  8  1  0
  8  9  1  0
  9 10  2  0
 10 11  1  0
 11 12  1  0
 12 13  1  0
 13 14  1  0
 14 15  1  0
 15 16  1  0
 16 17  1  0
 11 18  2  0
 18 19  1  0
 19 20  1  0
 20 21  1  0
 21 22  1  0
 22 23  1  0
 23 24  1  0
 24 25  1  0
 19 26  2  0
  5 27  2  0
 27  1  1  0
 26  9  1  0
 17 12  1  0
 25 20  1  0
  1 28  1  0
  2 29  1  0
  4 30  1  0
  6 31  1  0
  6 32  1  0
  7 33  1  0
  7 34  1  0
  8 35  1  0
 13 36  1  0
 13 37  1  0
 14 38  1  0
 14 39  1  0
 15 40  1  0
 15 41  1  0
 16 42  1  0
 16 43  1  0
 17 44  1  0
 17 45  1  0
 21 46  1  0
 21 47  1  0
 22 48  1  0
 22 49  1  0
 23 50  1  0
 23 51  1  0
 24 52  1  0
 24 53  1  0
 25 54  1  0
 25 55  1  0
 27 56  1  0
M  CHG  1  23   1
M  END
>  <UniqueID>  (56) 
583

>  <SMILES>  (56) 
c1cncc(CCNc2nc(N3CCCCC3)nc(N3CC[NH2+]CC3)n2)c1

>  <Energy>  (56) 
59.02563653953893

>  <Genealogy>  (56) 
c1cncc(CCNc2nc(N3CCCCC3)nc(N3CC[NH2+]CC3)n2)c1 (protonated)
c1cncc(CCNc2nc(N3CCCCC3)nc(N3CC[NH2+]CC3)n2)c1 (3D coordinates assigned)
c1cncc(CCNc2nc(N3CCCCC3)nc(N3CC[NH2+]CC3)n2)c1 (nonaromatic ring conformer: 59.02563653953893 kcal/mol)

>  <smiles>  (56) 
c1cncc(CCNc2nc(N3CCCCC3)nc(N3CCNCC3)n2)c1

>  <score_type>  (56) 
oracle

>  <origin>  (56) 
autodockgpu

>  <m_score__min__energy>  (56) 
-7.7999999999999998

>  <m_primary>  (56) 
energy

>  <meeko>  (56) 
{"free_energy": -7.19, "intermolecular_energy": -8.98, "internal_energy": -1.16, "cluster_size": 5, "cluster_id": 4, "rank_in_cluster": 1}

>  <energy>  (56) 
-7.19

>  <cluster_rmsd>  (56) 
0.03

>  <rmsd>  (56) 
270.31

>  <cluster>  (56) 
4

$$$$
YQRBYBBKMCEKLP-ODCLCHFBNA-O
     RDKit          3D

 56 59  0  0  0  0  0  0  0  0999 V2000
  145.4850   74.1780  220.8000 C   0  0  0  0  0  0  0  0  0  0  0  0
  146.3270   73.3850  220.0170 C   0  0  0  0  0  0  0  0  0  0  0  0
  145.8200   72.3370  219.3120 N   0  0  0  0  0  0  0  0  0  0  0  0
  144.4930   72.0320  219.3400 C   0  0  0  0  0  0  0  0  0  0  0  0
  143.6070   72.8130  220.1000 C   0  0  0  0  0  0  0  0  0  0  0  0
  142.1380   72.4870  220.1380 C   0  0  0  0  0  0  0  0  0  0  0  0
  141.6220   72.4680  221.5790 C   0  0  0  0  0  0  0  0  0  0  0  0
  140.6430   73.5340  221.7850 N   0  0  0  0  0  0  0  0  0  0  0  0
  140.8880   74.8940  221.4010 C   0  0  0  0  0  0  0  0  0  0  0  0
  140.7310   75.9030  222.2950 N   0  0  0  0  0  0  0  0  0  0  0  0
  140.9480   77.1950  221.9270 C   0  0  0  0  0  0  0  0  0  0  0  0
  140.7940   78.2650  222.8800 N   0  0  0  0  0  0  0  0  0  0  0  0
  139.5270   79.0160  222.9190 C   0  0  0  0  0  0  0  0  0  0  0  0
  139.6250   80.2460  223.8290 C   0  0  0  0  0  0  0  0  0  0  0  0
  140.9310   80.9980  223.5570 C   0  0  0  0  0  0  0  0  0  0  0  0
  142.1800   80.1160  223.7730 C   0  0  0  0  0  0  0  0  0  0  0  0
  141.8700   78.6100  223.8220 C   0  0  0  0  0  0  0  0  0  0  0  0
  141.3290   77.4650  220.6500 N   0  0  0  0  0  0  0  0  0  0  0  0
  141.4880   76.4640  219.7440 C   0  0  0  0  0  0  0  0  0  0  0  0
  141.8910   76.7590  218.3890 N   0  0  0  0  0  0  0  0  0  0  0  0
  141.2650   77.8920  217.6920 C   0  0  0  0  0  0  0  0  0  0  0  0
  141.8610   78.0790  216.2940 C   0  0  0  0  0  0  0  0  0  0  0  0
  143.3200   77.9440  216.3580 N   0  0  0  0  0  0  0  0  0  0  0  0
  143.7350   76.5670  216.6970 C   0  0  0  0  0  0  0  0  0  0  0  0
  142.7630   75.8300  217.6490 C   0  0  0  0  0  0  0  0  0  0  0  0
  141.2660   75.1780  220.1290 N   0  0  0  0  0  0  0  0  0  0  0  0
  144.1200   73.8850  220.8460 C   0  0  0  0  0  0  0  0  0  0  0  0
  145.8921   75.0235  221.3738 H   0  0  0  0  0  0  0  0  0  0  0  0
  147.4031   73.6082  219.9700 H   0  0  0  0  0  0  0  0  0  0  0  0
  144.1146   71.1729  218.7666 H   0  0  0  0  0  0  0  0  0  0  0  0
  141.5851   73.2474  219.5670 H   0  0  0  0  0  0  0  0  0  0  0  0
  141.9866   71.4910  219.6963 H   0  0  0  0  0  0  0  0  0  0  0  0
  141.1475   71.4964  221.7811 H   0  0  0  0  0  0  0  0  0  0  0  0
  142.4691   72.6251  222.2629 H   0  0  0  0  0  0  0  0  0  0  0  0
  139.7280   73.2930  222.2220 H   0  0  0  0  0  0  0  0  0  0  0  0
  139.2763   79.3455  221.8999 H   0  0  0  0  0  0  0  0  0  0  0  0
  138.7473   78.3527  223.3216 H   0  0  0  0  0  0  0  0  0  0  0  0
  138.7730   80.9133  223.6321 H   0  0  0  0  0  0  0  0  0  0  0  0
  139.6092   79.9195  224.8793 H   0  0  0  0  0  0  0  0  0  0  0  0
  140.9243   81.3502  222.5149 H   0  0  0  0  0  0  0  0  0  0  0  0
  140.9875   81.8355  224.2679 H   0  0  0  0  0  0  0  0  0  0  0  0
  142.8824   80.2997  222.9466 H   0  0  0  0  0  0  0  0  0  0  0  0
  142.6030   80.3900  224.7507 H   0  0  0  0  0  0  0  0  0  0  0  0
  142.7765   78.0468  223.5554 H   0  0  0  0  0  0  0  0  0  0  0  0
  141.5426   78.3513  224.8398 H   0  0  0  0  0  0  0  0  0  0  0  0
  140.1851   77.7042  217.5996 H   0  0  0  0  0  0  0  0  0  0  0  0
  141.4509   78.8059  218.2753 H   0  0  0  0  0  0  0  0  0  0  0  0
  141.4522   77.3147  215.6167 H   0  0  0  0  0  0  0  0  0  0  0  0
  141.6033   79.0803  215.9185 H   0  0  0  0  0  0  0  0  0  0  0  0
  143.7030   78.6080  217.0720 H   0  0  0  0  0  0  0  0  0  0  0  0
  143.7260   78.2000  215.4260 H   0  0  0  0  0  0  0  0  0  0  0  0
  143.8092   75.9891  215.7640 H   0  0  0  0  0  0  0  0  0  0  0  0
  144.6966   76.6467  217.2253 H   0  0  0  0  0  0  0  0  0  0  0  0
  142.1332   75.1513  217.0551 H   0  0  0  0  0  0  0  0  0  0  0  0
  143.3669   75.2783  218.3845 H   0  0  0  0  0  0  0  0  0  0  0  0
  143.4472   74.4947  221.4670 H   0  0  0  0  0  0  0  0  0  0  0  0
  1  2  2  0
  2  3  1  0
  3  4  2  0
  4  5  1  0
  5  6  1  0
  6  7  1  0
  7  8  1  0
  8  9  1  0
  9 10  2  0
 10 11  1  0
 11 12  1  0
 12 13  1  0
 13 14  1  0
 14 15  1  0
 15 16  1  0
 16 17  1  0
 11 18  2  0
 18 19  1  0
 19 20  1  0
 20 21  1  0
 21 22  1  0
 22 23  1  0
 23 24  1  0
 24 25  1  0
 19 26  2  0
  5 27  2  0
 27  1  1  0
 26  9  1  0
 17 12  1  0
 25 20  1  0
  1 28  1  0
  2 29  1  0
  4 30  1  0
  6 31  1  0
  6 32  1  0
  7 33  1  0
  7 34  1  0
  8 35  1  0
 13 36  1  0
 13 37  1  0
 14 38  1  0
 14 39  1  0
 15 40  1  0
 15 41  1  0
 16 42  1  0
 16 43  1  0
 17 44  1  0
 17 45  1  0
 21 46  1  0
 21 47  1  0
 22 48  1  0
 22 49  1  0
 23 50  1  0
 23 51  1  0
 24 52  1  0
 24 53  1  0
 25 54  1  0
 25 55  1  0
 27 56  1  0
M  CHG  1  23   1
M  END
>  <UniqueID>  (57) 
583

>  <SMILES>  (57) 
c1cncc(CCNc2nc(N3CCCCC3)nc(N3CC[NH2+]CC3)n2)c1

>  <Energy>  (57) 
59.02563653953893

>  <Genealogy>  (57) 
c1cncc(CCNc2nc(N3CCCCC3)nc(N3CC[NH2+]CC3)n2)c1 (protonated)
c1cncc(CCNc2nc(N3CCCCC3)nc(N3CC[NH2+]CC3)n2)c1 (3D coordinates assigned)
c1cncc(CCNc2nc(N3CCCCC3)nc(N3CC[NH2+]CC3)n2)c1 (nonaromatic ring conformer: 59.02563653953893 kcal/mol)

>  <smiles>  (57) 
c1cncc(CCNc2nc(N3CCCCC3)nc(N3CCNCC3)n2)c1

>  <score_type>  (57) 
oracle

>  <origin>  (57) 
autodockgpu

>  <m_score__min__energy>  (57) 
-7.7999999999999998

>  <m_primary>  (57) 
energy

>  <meeko>  (57) 
{"free_energy": -7.42, "intermolecular_energy": -9.21, "internal_energy": -1.19, "cluster_size": 4, "cluster_id": 3, "rank_in_cluster": 2}

>  <energy>  (57) 
-7.17

>  <cluster_rmsd>  (57) 
0.07

>  <rmsd>  (57) 
270.29

>  <cluster>  (57) 
4

$$$$
YQRBYBBKMCEKLP-ODCLCHFBNA-O
     RDKit          3D

 56 59  0  0  0  0  0  0  0  0999 V2000
  145.4740   74.1870  220.8210 C   0  0  0  0  0  0  0  0  0  0  0  0
  146.3270   73.4030  220.0410 C   0  0  0  0  0  0  0  0  0  0  0  0
  145.8310   72.3580  219.3240 N   0  0  0  0  0  0  0  0  0  0  0  0
  144.5060   72.0470  219.3370 C   0  0  0  0  0  0  0  0  0  0  0  0
  143.6090   72.8200  220.0930 C   0  0  0  0  0  0  0  0  0  0  0  0
  142.1410   72.4880  220.1140 C   0  0  0  0  0  0  0  0  0  0  0  0
  141.6110   72.4500  221.5490 C   0  0  0  0  0  0  0  0  0  0  0  0
  140.6290   73.5130  221.7600 N   0  0  0  0  0  0  0  0  0  0  0  0
  140.8670   74.8740  221.3760 C   0  0  0  0  0  0  0  0  0  0  0  0
  140.6960   75.8830  222.2680 N   0  0  0  0  0  0  0  0  0  0  0  0
  140.9070   77.1760  221.9010 C   0  0  0  0  0  0  0  0  0  0  0  0
  140.7360   78.2450  222.8520 N   0  0  0  0  0  0  0  0  0  0  0  0
  139.4470   78.9550  222.9110 C   0  0  0  0  0  0  0  0  0  0  0  0
  139.5230   80.1930  223.8140 C   0  0  0  0  0  0  0  0  0  0  0  0
  140.7980   80.9850  223.5120 C   0  0  0  0  0  0  0  0  0  0  0  0
  142.0790   80.1460  223.7090 C   0  0  0  0  0  0  0  0  0  0  0  0
  141.8190   78.6300  223.7710 C   0  0  0  0  0  0  0  0  0  0  0  0
  141.2970   77.4480  220.6270 N   0  0  0  0  0  0  0  0  0  0  0  0
  141.4700   76.4480  219.7230 C   0  0  0  0  0  0  0  0  0  0  0  0
  141.8830   76.7440  218.3720 N   0  0  0  0  0  0  0  0  0  0  0  0
  141.2700   77.8840  217.6750 C   0  0  0  0  0  0  0  0  0  0  0  0
  141.8750   78.0710  216.2820 C   0  0  0  0  0  0  0  0  0  0  0  0
  143.3330   77.9250  216.3530 N   0  0  0  0  0  0  0  0  0  0  0  0
  143.7350   76.5430  216.6890 C   0  0  0  0  0  0  0  0  0  0  0  0
  142.7520   75.8110  217.6330 C   0  0  0  0  0  0  0  0  0  0  0  0
  141.2550   75.1600  220.1080 N   0  0  0  0  0  0  0  0  0  0  0  0
  144.1090   73.8890  220.8510 C   0  0  0  0  0  0  0  0  0  0  0  0
  145.8722   75.0297  221.4052 H   0  0  0  0  0  0  0  0  0  0  0  0
  147.4026   73.6308  220.0061 H   0  0  0  0  0  0  0  0  0  0  0  0
  144.1371   71.1896  218.7550 H   0  0  0  0  0  0  0  0  0  0  0  0
  141.5905   73.2529  219.5467 H   0  0  0  0  0  0  0  0  0  0  0  0
  141.9981   71.4964  219.6598 H   0  0  0  0  0  0  0  0  0  0  0  0
  141.1351   71.4756  221.7336 H   0  0  0  0  0  0  0  0  0  0  0  0
  142.4514   72.5988  222.2430 H   0  0  0  0  0  0  0  0  0  0  0  0
  139.7160   73.2670  222.1990 H   0  0  0  0  0  0  0  0  0  0  0  0
  139.1671   79.2711  221.8952 H   0  0  0  0  0  0  0  0  0  0  0  0
  138.6963   78.2694  223.3309 H   0  0  0  0  0  0  0  0  0  0  0  0
  138.6460   80.8313  223.6313 H   0  0  0  0  0  0  0  0  0  0  0  0
  139.5385   79.8718  224.8659 H   0  0  0  0  0  0  0  0  0  0  0  0
  140.7597   81.3296  222.4681 H   0  0  0  0  0  0  0  0  0  0  0  0
  140.8408   81.8287  224.2165 H   0  0  0  0  0  0  0  0  0  0  0  0
  142.7597   80.3481  222.8689 H   0  0  0  0  0  0  0  0  0  0  0  0
  142.5110   80.4392  224.6772 H   0  0  0  0  0  0  0  0  0  0  0  0
  142.7379   78.0952  223.4889 H   0  0  0  0  0  0  0  0  0  0  0  0
  141.5204   78.3662  224.7963 H   0  0  0  0  0  0  0  0  0  0  0  0
  140.1892   77.7049  217.5757 H   0  0  0  0  0  0  0  0  0  0  0  0
  141.4599   78.7945  218.2624 H   0  0  0  0  0  0  0  0  0  0  0  0
  141.4642   77.3120  215.6000 H   0  0  0  0  0  0  0  0  0  0  0  0
  141.6270   79.0756  215.9088 H   0  0  0  0  0  0  0  0  0  0  0  0
  143.7170   78.5840  217.0710 H   0  0  0  0  0  0  0  0  0  0  0  0
  143.7450   78.1810  215.4240 H   0  0  0  0  0  0  0  0  0  0  0  0
  143.8092   75.9679  215.7542 H   0  0  0  0  0  0  0  0  0  0  0  0
  144.6945   76.6126  217.2224 H   0  0  0  0  0  0  0  0  0  0  0  0
  142.1201   75.1395  217.0332 H   0  0  0  0  0  0  0  0  0  0  0  0
  143.3477   75.2524  218.3699 H   0  0  0  0  0  0  0  0  0  0  0  0
  143.4273   74.4923  221.4685 H   0  0  0  0  0  0  0  0  0  0  0  0
  1  2  2  0
  2  3  1  0
  3  4  2  0
  4  5  1  0
  5  6  1  0
  6  7  1  0
  7  8  1  0
  8  9  1  0
  9 10  2  0
 10 11  1  0
 11 12  1  0
 12 13  1  0
 13 14  1  0
 14 15  1  0
 15 16  1  0
 16 17  1  0
 11 18  2  0
 18 19  1  0
 19 20  1  0
 20 21  1  0
 21 22  1  0
 22 23  1  0
 23 24  1  0
 24 25  1  0
 19 26  2  0
  5 27  2  0
 27  1  1  0
 26  9  1  0
 17 12  1  0
 25 20  1  0
  1 28  1  0
  2 29  1  0
  4 30  1  0
  6 31  1  0
  6 32  1  0
  7 33  1  0
  7 34  1  0
  8 35  1  0
 13 36  1  0
 13 37  1  0
 14 38  1  0
 14 39  1  0
 15 40  1  0
 15 41  1  0
 16 42  1  0
 16 43  1  0
 17 44  1  0
 17 45  1  0
 21 46  1  0
 21 47  1  0
 22 48  1  0
 22 49  1  0
 23 50  1  0
 23 51  1  0
 24 52  1  0
 24 53  1  0
 25 54  1  0
 25 55  1  0
 27 56  1  0
M  CHG  1  23   1
M  END
>  <UniqueID>  (58) 
583

>  <SMILES>  (58) 
c1cncc(CCNc2nc(N3CCCCC3)nc(N3CC[NH2+]CC3)n2)c1

>  <Energy>  (58) 
59.02563653953893

>  <Genealogy>  (58) 
c1cncc(CCNc2nc(N3CCCCC3)nc(N3CC[NH2+]CC3)n2)c1 (protonated)
c1cncc(CCNc2nc(N3CCCCC3)nc(N3CC[NH2+]CC3)n2)c1 (3D coordinates assigned)
c1cncc(CCNc2nc(N3CCCCC3)nc(N3CC[NH2+]CC3)n2)c1 (nonaromatic ring conformer: 59.02563653953893 kcal/mol)

>  <smiles>  (58) 
c1cncc(CCNc2nc(N3CCCCC3)nc(N3CCNCC3)n2)c1

>  <score_type>  (58) 
oracle

>  <origin>  (58) 
autodockgpu

>  <m_score__min__energy>  (58) 
-7.7999999999999998

>  <m_primary>  (58) 
energy

>  <meeko>  (58) 
{"free_energy": -7.42, "intermolecular_energy": -9.21, "internal_energy": -1.17, "cluster_size": 4, "cluster_id": 3, "rank_in_cluster": 1}

>  <energy>  (58) 
-7.02

>  <cluster_rmsd>  (58) 
1.11

>  <rmsd>  (58) 
270.4

>  <cluster>  (58) 
4

$$$$
YQRBYBBKMCEKLP-ODCLCHFBNA-O
     RDKit          3D

 56 59  0  0  0  0  0  0  0  0999 V2000
  140.7230   68.5380  227.1470 C   0  0  0  0  0  0  0  0  0  0  0  0
  139.9030   67.5170  226.6630 C   0  0  0  0  0  0  0  0  0  0  0  0
  139.2150   67.6840  225.5000 N   0  0  0  0  0  0  0  0  0  0  0  0
  139.3050   68.8330  224.7760 C   0  0  0  0  0  0  0  0  0  0  0  0
  140.1320   69.8800  225.2160 C   0  0  0  0  0  0  0  0  0  0  0  0
  140.2410   71.1550  224.4240 C   0  0  0  0  0  0  0  0  0  0  0  0
  139.2350   71.1690  223.2700 C   0  0  0  0  0  0  0  0  0  0  0  0
  139.1050   72.5180  222.7220 N   0  0  0  0  0  0  0  0  0  0  0  0
  140.1980   73.2130  222.1080 C   0  0  0  0  0  0  0  0  0  0  0  0
  141.2740   72.5320  221.6390 N   0  0  0  0  0  0  0  0  0  0  0  0
  142.3180   73.1920  221.0700 C   0  0  0  0  0  0  0  0  0  0  0  0
  143.4550   72.4660  220.5600 N   0  0  0  0  0  0  0  0  0  0  0  0
  144.7770   73.1150  220.5540 C   0  0  0  0  0  0  0  0  0  0  0  0
  145.8110   72.2880  219.7790 C   0  0  0  0  0  0  0  0  0  0  0  0
  145.2110   71.8040  218.4560 C   0  0  0  0  0  0  0  0  0  0  0  0
  143.9390   70.9510  218.6580 C   0  0  0  0  0  0  0  0  0  0  0  0
  143.3210   71.0890  220.0600 C   0  0  0  0  0  0  0  0  0  0  0  0
  142.2720   74.5470  220.9720 N   0  0  0  0  0  0  0  0  0  0  0  0
  141.2020   75.2430  221.4400 C   0  0  0  0  0  0  0  0  0  0  0  0
  141.1600   76.6820  221.3340 N   0  0  0  0  0  0  0  0  0  0  0  0
  141.0630   77.4830  222.5630 C   0  0  0  0  0  0  0  0  0  0  0  0
  141.0890   78.9810  222.2500 C   0  0  0  0  0  0  0  0  0  0  0  0
  142.1230   79.2590  221.2480 N   0  0  0  0  0  0  0  0  0  0  0  0
  141.7930   78.6670  219.9340 C   0  0  0  0  0  0  0  0  0  0  0  0
  141.0170   77.3320  220.0190 C   0  0  0  0  0  0  0  0  0  0  0  0
  140.1660   74.5660  222.0060 N   0  0  0  0  0  0  0  0  0  0  0  0
  140.8320   69.7270  226.4220 C   0  0  0  0  0  0  0  0  0  0  0  0
  141.2769   68.4077  228.0884 H   0  0  0  0  0  0  0  0  0  0  0  0
  139.8125   66.5746  227.2230 H   0  0  0  0  0  0  0  0  0  0  0  0
  138.7294   68.9420  223.8450 H   0  0  0  0  0  0  0  0  0  0  0  0
  140.0401   72.0093  225.0872 H   0  0  0  0  0  0  0  0  0  0  0  0
  141.2562   71.2234  224.0061 H   0  0  0  0  0  0  0  0  0  0  0  0
  139.5821   70.4884  222.4786 H   0  0  0  0  0  0  0  0  0  0  0  0
  138.2550   70.8419  223.6477 H   0  0  0  0  0  0  0  0  0  0  0  0
  138.1760   72.9890  222.7740 H   0  0  0  0  0  0  0  0  0  0  0  0
  144.6862   74.1047  220.0826 H   0  0  0  0  0  0  0  0  0  0  0  0
  145.1200   73.2046  221.5953 H   0  0  0  0  0  0  0  0  0  0  0  0
  146.6940   72.9105  219.5722 H   0  0  0  0  0  0  0  0  0  0  0  0
  146.1018   71.4162  220.3834 H   0  0  0  0  0  0  0  0  0  0  0  0
  144.9536   72.6811  217.8440 H   0  0  0  0  0  0  0  0  0  0  0  0
  145.9620   71.1707  217.9612 H   0  0  0  0  0  0  0  0  0  0  0  0
  143.1897   71.2628  217.9155 H   0  0  0  0  0  0  0  0  0  0  0  0
  144.2342   69.8982  218.5379 H   0  0  0  0  0  0  0  0  0  0  0  0
  142.2540   70.8261  220.0106 H   0  0  0  0  0  0  0  0  0  0  0  0
  143.8522   70.4129  220.7461 H   0  0  0  0  0  0  0  0  0  0  0  0
  140.1211   77.2399  223.0765 H   0  0  0  0  0  0  0  0  0  0  0  0
  141.9256   77.2455  223.2029 H   0  0  0  0  0  0  0  0  0  0  0  0
  140.1084   79.2898  221.8588 H   0  0  0  0  0  0  0  0  0  0  0  0
  141.3131   79.5413  223.1697 H   0  0  0  0  0  0  0  0  0  0  0  0
  143.0420   78.8810  221.5790 H   0  0  0  0  0  0  0  0  0  0  0  0
  142.2190   80.2970  221.1380 H   0  0  0  0  0  0  0  0  0  0  0  0
  141.1790   79.3883  219.3747 H   0  0  0  0  0  0  0  0  0  0  0  0
  142.7491   78.4466  219.4367 H   0  0  0  0  0  0  0  0  0  0  0  0
  139.9505   77.5311  219.8374 H   0  0  0  0  0  0  0  0  0  0  0  0
  141.4347   76.6524  219.2616 H   0  0  0  0  0  0  0  0  0  0  0  0
  141.4668   70.5434  226.7968 H   0  0  0  0  0  0  0  0  0  0  0  0
  1  2  2  0
  2  3  1  0
  3  4  2  0
  4  5  1  0
  5  6  1  0
  6  7  1  0
  7  8  1  0
  8  9  1  0
  9 10  2  0
 10 11  1  0
 11 12  1  0
 12 13  1  0
 13 14  1  0
 14 15  1  0
 15 16  1  0
 16 17  1  0
 11 18  2  0
 18 19  1  0
 19 20  1  0
 20 21  1  0
 21 22  1  0
 22 23  1  0
 23 24  1  0
 24 25  1  0
 19 26  2  0
  5 27  2  0
 27  1  1  0
 26  9  1  0
 17 12  1  0
 25 20  1  0
  1 28  1  0
  2 29  1  0
  4 30  1  0
  6 31  1  0
  6 32  1  0
  7 33  1  0
  7 34  1  0
  8 35  1  0
 13 36  1  0
 13 37  1  0
 14 38  1  0
 14 39  1  0
 15 40  1  0
 15 41  1  0
 16 42  1  0
 16 43  1  0
 17 44  1  0
 17 45  1  0
 21 46  1  0
 21 47  1  0
 22 48  1  0
 22 49  1  0
 23 50  1  0
 23 51  1  0
 24 52  1  0
 24 53  1  0
 25 54  1  0
 25 55  1  0
 27 56  1  0
M  CHG  1  23   1
M  END
>  <UniqueID>  (59) 
583

>  <SMILES>  (59) 
c1cncc(CCNc2nc(N3CCCCC3)nc(N3CC[NH2+]CC3)n2)c1

>  <Energy>  (59) 
59.02563653953893

>  <Genealogy>  (59) 
c1cncc(CCNc2nc(N3CCCCC3)nc(N3CC[NH2+]CC3)n2)c1 (protonated)
c1cncc(CCNc2nc(N3CCCCC3)nc(N3CC[NH2+]CC3)n2)c1 (3D coordinates assigned)
c1cncc(CCNc2nc(N3CCCCC3)nc(N3CC[NH2+]CC3)n2)c1 (nonaromatic ring conformer: 59.02563653953893 kcal/mol)

>  <smiles>  (59) 
c1cncc(CCNc2nc(N3CCCCC3)nc(N3CCNCC3)n2)c1

>  <score_type>  (59) 
oracle

>  <origin>  (59) 
autodockgpu

>  <m_score__min__energy>  (59) 
-7.7999999999999998

>  <m_primary>  (59) 
energy

>  <meeko>  (59) 
{"free_energy": -7.8, "intermolecular_energy": -9.58, "internal_energy": -0.83, "cluster_size": 9, "cluster_id": 1, "rank_in_cluster": 1}

>  <energy>  (59) 
-6.49

>  <cluster_rmsd>  (59) 
0.98

>  <rmsd>  (59) 
270.27

>  <cluster>  (59) 
4

$$$$
YQRBYBBKMCEKLP-ODCLCHFBNA-O
     RDKit          3D

 56 59  0  0  0  0  0  0  0  0999 V2000
  141.1040   72.2580  227.4090 C   0  0  0  0  0  0  0  0  0  0  0  0
  140.4240   71.4800  228.3490 C   0  0  0  0  0  0  0  0  0  0  0  0
  139.7300   70.3790  227.9520 N   0  0  0  0  0  0  0  0  0  0  0  0
  139.6790   69.9990  226.6460 C   0  0  0  0  0  0  0  0  0  0  0  0
  140.3620   70.7410  225.6690 C   0  0  0  0  0  0  0  0  0  0  0  0
  140.3150   70.3300  224.2220 C   0  0  0  0  0  0  0  0  0  0  0  0
  138.9470   70.6430  223.6110 C   0  0  0  0  0  0  0  0  0  0  0  0
  138.8940   72.0340  223.1620 N   0  0  0  0  0  0  0  0  0  0  0  0
  139.8380   72.5840  222.2340 C   0  0  0  0  0  0  0  0  0  0  0  0
  140.6250   71.7710  221.4840 N   0  0  0  0  0  0  0  0  0  0  0  0
  141.5310   72.2940  220.6140 C   0  0  0  0  0  0  0  0  0  0  0  0
  142.3580   71.4290  219.8100 N   0  0  0  0  0  0  0  0  0  0  0  0
  141.9850   70.0120  219.6620 C   0  0  0  0  0  0  0  0  0  0  0  0
  143.0870   69.2060  218.9640 C   0  0  0  0  0  0  0  0  0  0  0  0
  144.4530   69.5600  219.5590 C   0  0  0  0  0  0  0  0  0  0  0  0
  144.7810   71.0640  219.4370 C   0  0  0  0  0  0  0  0  0  0  0  0
  143.5550   71.9390  219.1240 C   0  0  0  0  0  0  0  0  0  0  0  0
  141.6390   73.6440  220.5000 N   0  0  0  0  0  0  0  0  0  0  0  0
  140.8580   74.4710  221.2460 C   0  0  0  0  0  0  0  0  0  0  0  0
  140.9790   75.9040  221.1210 N   0  0  0  0  0  0  0  0  0  0  0  0
  140.7790   76.7410  222.3120 C   0  0  0  0  0  0  0  0  0  0  0  0
  141.0040   78.2210  221.9920 C   0  0  0  0  0  0  0  0  0  0  0  0
  142.2000   78.3700  221.1560 N   0  0  0  0  0  0  0  0  0  0  0  0
  142.0140   77.7810  219.8140 C   0  0  0  0  0  0  0  0  0  0  0  0
  141.1030   76.5310  219.7930 C   0  0  0  0  0  0  0  0  0  0  0  0
  139.9570   73.9310  222.1110 N   0  0  0  0  0  0  0  0  0  0  0  0
  141.0660   71.8890  226.0620 C   0  0  0  0  0  0  0  0  0  0  0  0
  141.6630   73.1509  227.7257 H   0  0  0  0  0  0  0  0  0  0  0  0
  140.4496   71.7582  229.4129 H   0  0  0  0  0  0  0  0  0  0  0  0
  139.1016   69.1089  226.3554 H   0  0  0  0  0  0  0  0  0  0  0  0
  141.0914   70.8767  223.6667 H   0  0  0  0  0  0  0  0  0  0  0  0
  140.4894   69.2458  224.1581 H   0  0  0  0  0  0  0  0  0  0  0  0
  138.7733   69.9782  222.7520 H   0  0  0  0  0  0  0  0  0  0  0  0
  138.1712   70.4853  224.3747 H   0  0  0  0  0  0  0  0  0  0  0  0
  138.1330   72.6460  223.5270 H   0  0  0  0  0  0  0  0  0  0  0  0
  141.8076   69.5839  220.6596 H   0  0  0  0  0  0  0  0  0  0  0  0
  141.0769   69.9590  219.0434 H   0  0  0  0  0  0  0  0  0  0  0  0
  142.8964   68.1317  219.1037 H   0  0  0  0  0  0  0  0  0  0  0  0
  143.0870   69.4490  217.8912 H   0  0  0  0  0  0  0  0  0  0  0  0
  144.4560   69.2838  220.6238 H   0  0  0  0  0  0  0  0  0  0  0  0
  145.2167   69.0051  218.9944 H   0  0  0  0  0  0  0  0  0  0  0  0
  145.2163   71.4032  220.3885 H   0  0  0  0  0  0  0  0  0  0  0  0
  145.4793   71.1742  218.5942 H   0  0  0  0  0  0  0  0  0  0  0  0
  143.7516   72.9679  219.4596 H   0  0  0  0  0  0  0  0  0  0  0  0
  143.3748   71.9169  218.0391 H   0  0  0  0  0  0  0  0  0  0  0  0
  139.7504   76.6052  222.6775 H   0  0  0  0  0  0  0  0  0  0  0  0
  141.5063   76.4357  223.0787 H   0  0  0  0  0  0  0  0  0  0  0  0
  140.1299   78.6156  221.4533 H   0  0  0  0  0  0  0  0  0  0  0  0
  141.1431   78.7793  222.9296 H   0  0  0  0  0  0  0  0  0  0  0  0
  143.0150   77.9120  221.6280 H   0  0  0  0  0  0  0  0  0  0  0  0
  142.4160   79.3900  221.0520 H   0  0  0  0  0  0  0  0  0  0  0  0
  141.5674   78.5448  219.1605 H   0  0  0  0  0  0  0  0  0  0  0  0
  143.0069   77.4553  219.4704 H   0  0  0  0  0  0  0  0  0  0  0  0
  140.1019   76.8292  219.4482 H   0  0  0  0  0  0  0  0  0  0  0  0
  141.5597   75.7944  219.1156 H   0  0  0  0  0  0  0  0  0  0  0  0
  141.5880   72.4986  225.3097 H   0  0  0  0  0  0  0  0  0  0  0  0
  1  2  2  0
  2  3  1  0
  3  4  2  0
  4  5  1  0
  5  6  1  0
  6  7  1  0
  7  8  1  0
  8  9  1  0
  9 10  2  0
 10 11  1  0
 11 12  1  0
 12 13  1  0
 13 14  1  0
 14 15  1  0
 15 16  1  0
 16 17  1  0
 11 18  2  0
 18 19  1  0
 19 20  1  0
 20 21  1  0
 21 22  1  0
 22 23  1  0
 23 24  1  0
 24 25  1  0
 19 26  2  0
  5 27  2  0
 27  1  1  0
 26  9  1  0
 17 12  1  0
 25 20  1  0
  1 28  1  0
  2 29  1  0
  4 30  1  0
  6 31  1  0
  6 32  1  0
  7 33  1  0
  7 34  1  0
  8 35  1  0
 13 36  1  0
 13 37  1  0
 14 38  1  0
 14 39  1  0
 15 40  1  0
 15 41  1  0
 16 42  1  0
 16 43  1  0
 17 44  1  0
 17 45  1  0
 21 46  1  0
 21 47  1  0
 22 48  1  0
 22 49  1  0
 23 50  1  0
 23 51  1  0
 24 52  1  0
 24 53  1  0
 25 54  1  0
 25 55  1  0
 27 56  1  0
M  CHG  1  23   1
M  END
>  <UniqueID>  (60) 
583

>  <SMILES>  (60) 
c1cncc(CCNc2nc(N3CCCCC3)nc(N3CC[NH2+]CC3)n2)c1

>  <Energy>  (60) 
59.02563653953893

>  <Genealogy>  (60) 
c1cncc(CCNc2nc(N3CCCCC3)nc(N3CC[NH2+]CC3)n2)c1 (protonated)
c1cncc(CCNc2nc(N3CCCCC3)nc(N3CC[NH2+]CC3)n2)c1 (3D coordinates assigned)
c1cncc(CCNc2nc(N3CCCCC3)nc(N3CC[NH2+]CC3)n2)c1 (nonaromatic ring conformer: 59.02563653953893 kcal/mol)

>  <smiles>  (60) 
c1cncc(CCNc2nc(N3CCCCC3)nc(N3CCNCC3)n2)c1

>  <score_type>  (60) 
oracle

>  <origin>  (60) 
autodockgpu

>  <m_score__min__energy>  (60) 
-7.7999999999999998

>  <m_primary>  (60) 
energy

>  <meeko>  (60) 
{"free_energy": -7.4, "intermolecular_energy": -9.19, "internal_energy": -0.98, "cluster_size": 9, "cluster_id": 1, "rank_in_cluster": 3}

>  <energy>  (60) 
-6.87

>  <cluster_rmsd>  (60) 
0.0

>  <rmsd>  (60) 
270.76

>  <cluster>  (60) 
5

$$$$
YQRBYBBKMCEKLP-VSQHSNIGNA-O
     RDKit          3D

 56 59  0  0  0  0  0  0  0  0999 V2000
  140.2882   81.4737  221.5255 H   0  0  0  0  0  0  0  0  0  0  0  0
  140.4910   81.1730  220.4870 C   0  0  0  0  0  0  0  0  0  0  0  0
  139.5780   80.4330  219.8040 N   0  0  0  0  0  0  0  0  0  0  0  0
  139.7930   80.0400  218.5200 C   0  0  0  0  0  0  0  0  0  0  0  0
  139.0314   79.4457  217.9939 H   0  0  0  0  0  0  0  0  0  0  0  0
  140.9830   80.3900  217.8640 C   0  0  0  0  0  0  0  0  0  0  0  0
  141.2150   79.9920  216.4310 C   0  0  0  0  0  0  0  0  0  0  0  0
  140.2461   79.9433  215.9125 H   0  0  0  0  0  0  0  0  0  0  0  0
  141.8711   80.7430  215.9668 H   0  0  0  0  0  0  0  0  0  0  0  0
  141.9040   78.6230  216.3300 C   0  0  0  0  0  0  0  0  0  0  0  0
  141.1472   77.8334  216.4472 H   0  0  0  0  0  0  0  0  0  0  0  0
  142.3934   78.5569  215.3471 H   0  0  0  0  0  0  0  0  0  0  0  0
  142.9310   78.4550  217.3650 N   0  0  0  0  0  0  0  0  0  0  0  0
  143.8040   79.0240  217.2710 H   0  0  0  0  0  0  0  0  0  0  0  0
  142.8210   77.6320  218.3700 C   0  0  0  0  0  0  0  0  0  0  0  0
  143.6110   76.5310  218.4290 N   0  0  0  0  0  0  0  0  0  0  0  0
  143.5300   75.6710  219.4780 C   0  0  0  0  0  0  0  0  0  0  0  0
  144.4000   74.5220  219.5240 N   0  0  0  0  0  0  0  0  0  0  0  0
  145.4550   74.4560  220.5440 C   0  0  0  0  0  0  0  0  0  0  0  0
  146.3809   74.8884  220.1368 H   0  0  0  0  0  0  0  0  0  0  0  0
  145.1320   75.0226  221.4298 H   0  0  0  0  0  0  0  0  0  0  0  0
  145.7120   73.0040  220.9490 C   0  0  0  0  0  0  0  0  0  0  0  0
  146.5896   72.9614  221.6109 H   0  0  0  0  0  0  0  0  0  0  0  0
  144.8265   72.6158  221.4736 H   0  0  0  0  0  0  0  0  0  0  0  0
  145.9620   72.1820  219.7590 N   0  0  0  0  0  0  0  0  0  0  0  0
  146.1300   71.2000  220.0810 H   0  0  0  0  0  0  0  0  0  0  0  0
  144.7790   72.1720  218.8930 C   0  0  0  0  0  0  0  0  0  0  0  0
  144.9679   71.5172  218.0296 H   0  0  0  0  0  0  0  0  0  0  0  0
  143.9190   71.8004  219.4695 H   0  0  0  0  0  0  0  0  0  0  0  0
  144.4680   73.5850  218.3950 C   0  0  0  0  0  0  0  0  0  0  0  0
  145.2598   73.9080  217.7031 H   0  0  0  0  0  0  0  0  0  0  0  0
  143.4963   73.5760  217.8795 H   0  0  0  0  0  0  0  0  0  0  0  0
  142.6320   75.9150  220.4770 N   0  0  0  0  0  0  0  0  0  0  0  0
  142.5710   75.2720  221.2940 H   0  0  0  0  0  0  0  0  0  0  0  0
  141.8200   77.0090  220.4160 C   0  0  0  0  0  0  0  0  0  0  0  0
  140.8810   77.2930  221.4680 N   0  0  0  0  0  0  0  0  0  0  0  0
  139.4820   76.8720  221.3070 C   0  0  0  0  0  0  0  0  0  0  0  0
  139.1050   77.2466  220.3439 H   0  0  0  0  0  0  0  0  0  0  0  0
  139.4472   75.7731  221.3419 H   0  0  0  0  0  0  0  0  0  0  0  0
  138.5940   77.4170  222.4360 C   0  0  0  0  0  0  0  0  0  0  0  0
  137.5385   77.3418  222.1355 H   0  0  0  0  0  0  0  0  0  0  0  0
  138.7704   76.8254  223.3464 H   0  0  0  0  0  0  0  0  0  0  0  0
  138.9350   78.8850  222.7220 C   0  0  0  0  0  0  0  0  0  0  0  0
  138.7108   79.4794  221.8240 H   0  0  0  0  0  0  0  0  0  0  0  0
  138.3301   79.2039  223.5836 H   0  0  0  0  0  0  0  0  0  0  0  0
  140.4220   79.0930  223.0940 C   0  0  0  0  0  0  0  0  0  0  0  0
  140.7952   79.9778  222.5574 H   0  0  0  0  0  0  0  0  0  0  0  0
  140.4692   79.2184  224.1858 H   0  0  0  0  0  0  0  0  0  0  0  0
  141.3140   77.8940  222.7360 C   0  0  0  0  0  0  0  0  0  0  0  0
  142.3557   78.2337  222.6388 H   0  0  0  0  0  0  0  0  0  0  0  0
  141.2345   77.1402  223.5331 H   0  0  0  0  0  0  0  0  0  0  0  0
  141.9300   77.8650  219.3680 N   0  0  0  0  0  0  0  0  0  0  0  0
  141.9300   81.1620  218.5540 C   0  0  0  0  0  0  0  0  0  0  0  0
  142.8647   81.4599  218.0564 H   0  0  0  0  0  0  0  0  0  0  0  0
  141.6860   81.5520  219.8720 C   0  0  0  0  0  0  0  0  0  0  0  0
  142.4274   82.1516  220.4204 H   0  0  0  0  0  0  0  0  0  0  0  0
  1  2  1  0
  2  3  2  0
  3  4  1  0
  4  5  1  0
  4  6  2  0
  6  7  1  0
  7  8  1  0
  7  9  1  0
  7 10  1  0
 10 11  1  0
 10 12  1  0
 10 13  1  0
 13 14  1  0
 13 15  2  0
 15 16  1  0
 16 17  2  0
 17 18  1  0
 18 19  1  0
 19 20  1  0
 19 21  1  0
 19 22  1  0
 22 23  1  0
 22 24  1  0
 22 25  1  0
 25 26  1  0
 25 27  1  0
 27 28  1  0
 27 29  1  0
 27 30  1  0
 30 31  1  0
 30 32  1  0
 17 33  1  0
 33 34  1  0
 33 35  1  0
 35 36  1  0
 36 37  1  0
 37 38  1  0
 37 39  1  0
 37 40  1  0
 40 41  1  0
 40 42  1  0
 40 43  1  0
 43 44  1  0
 43 45  1  0
 43 46  1  0
 46 47  1  0
 46 48  1  0
 46 49  1  0
 49 50  1  0
 49 51  1  0
 35 52  2  0
  6 53  1  0
 53 54  1  0
 53 55  2  0
 55 56  1  0
 55  2  1  0
 52 15  1  0
 30 18  1  0
 49 36  1  0
M  CHG  1  13   1
M  END
>  <UniqueID>  (61) 
584

>  <SMILES>  (61) 
c1cncc(CC/[NH+]=c2\nc(N3CCCCC3)[nH]c(N3CCNCC3)n2)c1

>  <Energy>  (61) 
59.183879608312594

>  <Genealogy>  (61) 
c1cncc(CC[NH2+]c2nc(N3CCCCC3)nc(N3CCNCC3)n2)c1 (protonated)
c1cncc(CC[NH+]=c2nc(N3CCCCC3)[nH]c(N3CCNCC3)n2)c1 (tautomer)
c1cncc(CC/[NH+]=c2\nc(N3CCCCC3)[nH]c(N3CCNCC3)n2)c1 (cis-trans isomerization)
c1cncc(CC/[NH+]=c2\nc(N3CCCCC3)[nH]c(N3CCNCC3)n2)c1 (3D coordinates assigned)
c1cncc(CC/[NH+]=c2\nc(N3CCCCC3)[nH]c(N3CCNCC3)n2)c1 (nonaromatic ring conformer: 59.183879608312594 kcal/mol)

>  <smiles>  (61) 
c1cncc(CCNc2nc(N3CCCCC3)nc(N3CCNCC3)n2)c1

>  <score_type>  (61) 
oracle

>  <origin>  (61) 
autodockgpu

>  <m_score__min__energy>  (61) 
-8.5600000000000005

>  <m_primary>  (61) 
energy

>  <meeko>  (61) 
{"free_energy": -6.34, "intermolecular_energy": -8.13, "internal_energy": -1.4, "cluster_size": 1, "cluster_id": 3, "rank_in_cluster": 1}

>  <energy>  (61) 
-8.56

>  <cluster_rmsd>  (61) 
0.0

>  <rmsd>  (61) 
271.62

>  <cluster>  (61) 
1

$$$$
YQRBYBBKMCEKLP-VSQHSNIGNA-O
     RDKit          3D

 56 59  0  0  0  0  0  0  0  0999 V2000
  139.9637   70.1605  229.0560 H   0  0  0  0  0  0  0  0  0  0  0  0
  140.1040   70.4230  227.9970 C   0  0  0  0  0  0  0  0  0  0  0  0
  140.8340   71.5190  227.6600 N   0  0  0  0  0  0  0  0  0  0  0  0
  141.0280   71.8790  226.3640 C   0  0  0  0  0  0  0  0  0  0  0  0
  141.6283   72.7694  226.1256 H   0  0  0  0  0  0  0  0  0  0  0  0
  140.4640   71.1170  225.3290 C   0  0  0  0  0  0  0  0  0  0  0  0
  140.7040   71.4850  223.8880 C   0  0  0  0  0  0  0  0  0  0  0  0
  141.2173   72.4571  223.8482 H   0  0  0  0  0  0  0  0  0  0  0  0
  141.3198   70.6975  223.4289 H   0  0  0  0  0  0  0  0  0  0  0  0
  139.3870   71.5840  223.1050 C   0  0  0  0  0  0  0  0  0  0  0  0
  139.4118   70.8644  222.2734 H   0  0  0  0  0  0  0  0  0  0  0  0
  138.5602   71.3606  223.7953 H   0  0  0  0  0  0  0  0  0  0  0  0
  139.1780   72.9310  222.5620 N   0  0  0  0  0  0  0  0  0  0  0  0
  138.1950   73.2880  222.5310 H   0  0  0  0  0  0  0  0  0  0  0  0
  140.1380   73.6880  222.1080 C   0  0  0  0  0  0  0  0  0  0  0  0
  141.2410   73.1210  221.5590 N   0  0  0  0  0  0  0  0  0  0  0  0
  142.2440   73.8890  221.0590 C   0  0  0  0  0  0  0  0  0  0  0  0
  143.3930   73.2560  220.4620 N   0  0  0  0  0  0  0  0  0  0  0  0
  144.6820   73.9610  220.4550 C   0  0  0  0  0  0  0  0  0  0  0  0
  144.7719   74.5436  219.5263 H   0  0  0  0  0  0  0  0  0  0  0  0
  144.7281   74.6310  221.3262 H   0  0  0  0  0  0  0  0  0  0  0  0
  145.8350   72.9600  220.5360 C   0  0  0  0  0  0  0  0  0  0  0  0
  146.7880   73.4918  220.3984 H   0  0  0  0  0  0  0  0  0  0  0  0
  145.8163   72.4706  221.5209 H   0  0  0  0  0  0  0  0  0  0  0  0
  145.6950   71.9390  219.4920 N   0  0  0  0  0  0  0  0  0  0  0  0
  146.5000   71.2760  219.5850 H   0  0  0  0  0  0  0  0  0  0  0  0
  144.4600   71.1720  219.6970 C   0  0  0  0  0  0  0  0  0  0  0  0
  144.3925   70.3831  218.9334 H   0  0  0  0  0  0  0  0  0  0  0  0
  144.4806   70.7251  220.7019 H   0  0  0  0  0  0  0  0  0  0  0  0
  143.2380   72.0870  219.5860 C   0  0  0  0  0  0  0  0  0  0  0  0
  143.1321   72.4257  218.5448 H   0  0  0  0  0  0  0  0  0  0  0  0
  142.3430   71.5264  219.8937 H   0  0  0  0  0  0  0  0  0  0  0  0
  142.1420   75.2490  221.1230 N   0  0  0  0  0  0  0  0  0  0  0  0
  142.8970   75.8480  220.7290 H   0  0  0  0  0  0  0  0  0  0  0  0
  141.0460   75.8270  221.6900 C   0  0  0  0  0  0  0  0  0  0  0  0
  140.9110   77.2580  221.7490 N   0  0  0  0  0  0  0  0  0  0  0  0
  141.5980   78.0800  220.7420 C   0  0  0  0  0  0  0  0  0  0  0  0
  142.6600   77.7948  220.7125 H   0  0  0  0  0  0  0  0  0  0  0  0
  141.1169   77.9047  219.7685 H   0  0  0  0  0  0  0  0  0  0  0  0
  141.4930   79.5780  221.0670 C   0  0  0  0  0  0  0  0  0  0  0  0
  142.2453   80.1294  220.4839 H   0  0  0  0  0  0  0  0  0  0  0  0
  140.4834   79.9301  220.8086 H   0  0  0  0  0  0  0  0  0  0  0  0
  141.7370   79.8170  222.5620 C   0  0  0  0  0  0  0  0  0  0  0  0
  142.7643   79.5072  222.8043 H   0  0  0  0  0  0  0  0  0  0  0  0
  141.5768   80.8878  222.7564 H   0  0  0  0  0  0  0  0  0  0  0  0
  140.7580   79.0290  223.4630 C   0  0  0  0  0  0  0  0  0  0  0  0
  141.3277   78.5856  224.2930 H   0  0  0  0  0  0  0  0  0  0  0  0
  139.9963   79.7401  223.8154 H   0  0  0  0  0  0  0  0  0  0  0  0
  140.0200   77.9030  222.7220 C   0  0  0  0  0  0  0  0  0  0  0  0
  139.6770   77.1540  223.4509 H   0  0  0  0  0  0  0  0  0  0  0  0
  139.1602   78.3327  222.1871 H   0  0  0  0  0  0  0  0  0  0  0  0
  140.0460   75.0420  222.1670 N   0  0  0  0  0  0  0  0  0  0  0  0
  139.7180   69.9780  225.6610 C   0  0  0  0  0  0  0  0  0  0  0  0
  139.2787   69.3577  224.8658 H   0  0  0  0  0  0  0  0  0  0  0  0
  139.5320   69.6300  227.0000 C   0  0  0  0  0  0  0  0  0  0  0  0
  138.9415   68.7411  227.2668 H   0  0  0  0  0  0  0  0  0  0  0  0
  1  2  1  0
  2  3  2  0
  3  4  1  0
  4  5  1  0
  4  6  2  0
  6  7  1  0
  7  8  1  0
  7  9  1  0
  7 10  1  0
 10 11  1  0
 10 12  1  0
 10 13  1  0
 13 14  1  0
 13 15  2  0
 15 16  1  0
 16 17  2  0
 17 18  1  0
 18 19  1  0
 19 20  1  0
 19 21  1  0
 19 22  1  0
 22 23  1  0
 22 24  1  0
 22 25  1  0
 25 26  1  0
 25 27  1  0
 27 28  1  0
 27 29  1  0
 27 30  1  0
 30 31  1  0
 30 32  1  0
 17 33  1  0
 33 34  1  0
 33 35  1  0
 35 36  1  0
 36 37  1  0
 37 38  1  0
 37 39  1  0
 37 40  1  0
 40 41  1  0
 40 42  1  0
 40 43  1  0
 43 44  1  0
 43 45  1  0
 43 46  1  0
 46 47  1  0
 46 48  1  0
 46 49  1  0
 49 50  1  0
 49 51  1  0
 35 52  2  0
  6 53  1  0
 53 54  1  0
 53 55  2  0
 55 56  1  0
 55  2  1  0
 52 15  1  0
 30 18  1  0
 49 36  1  0
M  CHG  1  13   1
M  END
>  <UniqueID>  (62) 
584

>  <SMILES>  (62) 
c1cncc(CC/[NH+]=c2\nc(N3CCCCC3)[nH]c(N3CCNCC3)n2)c1

>  <Energy>  (62) 
59.183879608312594

>  <Genealogy>  (62) 
c1cncc(CC[NH2+]c2nc(N3CCCCC3)nc(N3CCNCC3)n2)c1 (protonated)
c1cncc(CC[NH+]=c2nc(N3CCCCC3)[nH]c(N3CCNCC3)n2)c1 (tautomer)
c1cncc(CC/[NH+]=c2\nc(N3CCCCC3)[nH]c(N3CCNCC3)n2)c1 (cis-trans isomerization)
c1cncc(CC/[NH+]=c2\nc(N3CCCCC3)[nH]c(N3CCNCC3)n2)c1 (3D coordinates assigned)
c1cncc(CC/[NH+]=c2\nc(N3CCCCC3)[nH]c(N3CCNCC3)n2)c1 (nonaromatic ring conformer: 59.183879608312594 kcal/mol)

>  <smiles>  (62) 
c1cncc(CCNc2nc(N3CCCCC3)nc(N3CCNCC3)n2)c1

>  <score_type>  (62) 
oracle

>  <origin>  (62) 
autodockgpu

>  <m_score__min__energy>  (62) 
-8.5600000000000005

>  <m_primary>  (62) 
energy

>  <meeko>  (62) 
{"free_energy": -8.22, "intermolecular_energy": -10.01, "internal_energy": -0.5, "cluster_size": 18, "cluster_id": 1, "rank_in_cluster": 10}

>  <energy>  (62) 
-8.55

>  <cluster_rmsd>  (62) 
0.05

>  <rmsd>  (62) 
271.61

>  <cluster>  (62) 
1

$$$$
YQRBYBBKMCEKLP-VSQHSNIGNA-O
     RDKit          3D

 56 59  0  0  0  0  0  0  0  0999 V2000
  140.7703   69.8346  229.2082 H   0  0  0  0  0  0  0  0  0  0  0  0
  140.7290   70.1810  228.1650 C   0  0  0  0  0  0  0  0  0  0  0  0
  141.1230   71.4440  227.8530 N   0  0  0  0  0  0  0  0  0  0  0  0
  141.0830   71.9110  226.5770 C   0  0  0  0  0  0  0  0  0  0  0  0
  141.4127   72.9373  226.3579 H   0  0  0  0  0  0  0  0  0  0  0  0
  140.6220   71.0870  225.5380 C   0  0  0  0  0  0  0  0  0  0  0  0
  140.6100   71.5810  224.1160 C   0  0  0  0  0  0  0  0  0  0  0  0
  140.8948   72.6434  224.1045 H   0  0  0  0  0  0  0  0  0  0  0  0
  141.3233   70.9775  223.5355 H   0  0  0  0  0  0  0  0  0  0  0  0
  139.2210   71.4300  223.4780 C   0  0  0  0  0  0  0  0  0  0  0  0
  139.1123   70.4029  223.0995 H   0  0  0  0  0  0  0  0  0  0  0  0
  138.4651   71.6490  224.2465 H   0  0  0  0  0  0  0  0  0  0  0  0
  139.0290   72.3690  222.3670 N   0  0  0  0  0  0  0  0  0  0  0  0
  138.1550   72.2700  221.8010 H   0  0  0  0  0  0  0  0  0  0  0  0
  139.8880   73.2960  222.0430 C   0  0  0  0  0  0  0  0  0  0  0  0
  139.5990   74.5980  222.2890 N   0  0  0  0  0  0  0  0  0  0  0  0
  140.4870   75.5790  221.9810 C   0  0  0  0  0  0  0  0  0  0  0  0
  140.1600   76.9520  222.2770 N   0  0  0  0  0  0  0  0  0  0  0  0
  138.7870   77.4290  222.0630 C   0  0  0  0  0  0  0  0  0  0  0  0
  138.6992   77.8379  221.0456 H   0  0  0  0  0  0  0  0  0  0  0  0
  138.0911   76.5868  222.1916 H   0  0  0  0  0  0  0  0  0  0  0  0
  138.4410   78.5200  223.0770 C   0  0  0  0  0  0  0  0  0  0  0  0
  137.4634   78.9555  222.8226 H   0  0  0  0  0  0  0  0  0  0  0  0
  138.4045   78.0762  224.0828 H   0  0  0  0  0  0  0  0  0  0  0  0
  139.4610   79.5740  223.0560 N   0  0  0  0  0  0  0  0  0  0  0  0
  139.1870   80.2960  223.7640 H   0  0  0  0  0  0  0  0  0  0  0  0
  140.7620   79.0270  223.4590 C   0  0  0  0  0  0  0  0  0  0  0  0
  141.5049   79.8379  223.4806 H   0  0  0  0  0  0  0  0  0  0  0  0
  140.6649   78.5758  224.4575 H   0  0  0  0  0  0  0  0  0  0  0  0
  141.2190   77.9510  222.4710 C   0  0  0  0  0  0  0  0  0  0  0  0
  141.4544   78.4220  221.5052 H   0  0  0  0  0  0  0  0  0  0  0  0
  142.1117   77.4512  222.8750 H   0  0  0  0  0  0  0  0  0  0  0  0
  141.6780   75.2470  221.4040 N   0  0  0  0  0  0  0  0  0  0  0  0
  142.3740   75.9890  221.1770 H   0  0  0  0  0  0  0  0  0  0  0  0
  141.9690   73.9430  221.1340 C   0  0  0  0  0  0  0  0  0  0  0  0
  143.2270   73.5710  220.5440 N   0  0  0  0  0  0  0  0  0  0  0  0
  143.4540   72.1670  220.1760 C   0  0  0  0  0  0  0  0  0  0  0  0
  143.2342   71.5301  221.0455 H   0  0  0  0  0  0  0  0  0  0  0  0
  142.7928   71.9216  219.3319 H   0  0  0  0  0  0  0  0  0  0  0  0
  144.9060   71.9250  219.7350 C   0  0  0  0  0  0  0  0  0  0  0  0
  145.1162   70.8455  219.7552 H   0  0  0  0  0  0  0  0  0  0  0  0
  145.0403   72.3161  218.7157 H   0  0  0  0  0  0  0  0  0  0  0  0
  145.8760   72.6470  220.6780 C   0  0  0  0  0  0  0  0  0  0  0  0
  145.7711   72.2182  221.6855 H   0  0  0  0  0  0  0  0  0  0  0  0
  146.8914   72.5076  220.2785 H   0  0  0  0  0  0  0  0  0  0  0  0
  145.6130   74.1680  220.7590 C   0  0  0  0  0  0  0  0  0  0  0  0
  145.6711   74.4763  221.8133 H   0  0  0  0  0  0  0  0  0  0  0  0
  146.3748   74.6628  220.1387 H   0  0  0  0  0  0  0  0  0  0  0  0
  144.2400   74.5800  220.2060 C   0  0  0  0  0  0  0  0  0  0  0  0
  143.9486   75.5465  220.6430 H   0  0  0  0  0  0  0  0  0  0  0  0
  144.3074   74.6646  219.1113 H   0  0  0  0  0  0  0  0  0  0  0  0
  141.0760   72.9760  221.4670 N   0  0  0  0  0  0  0  0  0  0  0  0
  140.2230   69.7780  225.8440 C   0  0  0  0  0  0  0  0  0  0  0  0
  139.8713   69.1094  225.0445 H   0  0  0  0  0  0  0  0  0  0  0  0
  140.2720   69.3230  227.1630 C   0  0  0  0  0  0  0  0  0  0  0  0
  139.9539   68.2994  227.4101 H   0  0  0  0  0  0  0  0  0  0  0  0
  1  2  1  0
  2  3  2  0
  3  4  1  0
  4  5  1  0
  4  6  2  0
  6  7  1  0
  7  8  1  0
  7  9  1  0
  7 10  1  0
 10 11  1  0
 10 12  1  0
 10 13  1  0
 13 14  1  0
 13 15  2  0
 15 16  1  0
 16 17  2  0
 17 18  1  0
 18 19  1  0
 19 20  1  0
 19 21  1  0
 19 22  1  0
 22 23  1  0
 22 24  1  0
 22 25  1  0
 25 26  1  0
 25 27  1  0
 27 28  1  0
 27 29  1  0
 27 30  1  0
 30 31  1  0
 30 32  1  0
 17 33  1  0
 33 34  1  0
 33 35  1  0
 35 36  1  0
 36 37  1  0
 37 38  1  0
 37 39  1  0
 37 40  1  0
 40 41  1  0
 40 42  1  0
 40 43  1  0
 43 44  1  0
 43 45  1  0
 43 46  1  0
 46 47  1  0
 46 48  1  0
 46 49  1  0
 49 50  1  0
 49 51  1  0
 35 52  2  0
  6 53  1  0
 53 54  1  0
 53 55  2  0
 55 56  1  0
 55  2  1  0
 52 15  1  0
 30 18  1  0
 49 36  1  0
M  CHG  1  13   1
M  END
>  <UniqueID>  (63) 
584

>  <SMILES>  (63) 
c1cncc(CC/[NH+]=c2\nc(N3CCCCC3)[nH]c(N3CCNCC3)n2)c1

>  <Energy>  (63) 
59.183879608312594

>  <Genealogy>  (63) 
c1cncc(CC[NH2+]c2nc(N3CCCCC3)nc(N3CCNCC3)n2)c1 (protonated)
c1cncc(CC[NH+]=c2nc(N3CCCCC3)[nH]c(N3CCNCC3)n2)c1 (tautomer)
c1cncc(CC/[NH+]=c2\nc(N3CCCCC3)[nH]c(N3CCNCC3)n2)c1 (cis-trans isomerization)
c1cncc(CC/[NH+]=c2\nc(N3CCCCC3)[nH]c(N3CCNCC3)n2)c1 (3D coordinates assigned)
c1cncc(CC/[NH+]=c2\nc(N3CCCCC3)[nH]c(N3CCNCC3)n2)c1 (nonaromatic ring conformer: 59.183879608312594 kcal/mol)

>  <smiles>  (63) 
c1cncc(CCNc2nc(N3CCCCC3)nc(N3CCNCC3)n2)c1

>  <score_type>  (63) 
oracle

>  <origin>  (63) 
autodockgpu

>  <m_score__min__energy>  (63) 
-8.5600000000000005

>  <m_primary>  (63) 
energy

>  <meeko>  (63) 
{"free_energy": -8.07, "intermolecular_energy": -9.86, "internal_energy": -0.56, "cluster_size": 18, "cluster_id": 1, "rank_in_cluster": 14}

>  <energy>  (63) 
-8.39

>  <cluster_rmsd>  (63) 
1.2

>  <rmsd>  (63) 
271.39

>  <cluster>  (63) 
1

$$$$
YQRBYBBKMCEKLP-VSQHSNIGNA-O
     RDKit          3D

 56 59  0  0  0  0  0  0  0  0999 V2000
  140.0847   70.2282  229.2826 H   0  0  0  0  0  0  0  0  0  0  0  0
  140.2240   70.4760  228.2200 C   0  0  0  0  0  0  0  0  0  0  0  0
  139.6770   69.6830  227.2600 N   0  0  0  0  0  0  0  0  0  0  0  0
  139.8280   69.9550  225.9370 C   0  0  0  0  0  0  0  0  0  0  0  0
  139.3676   69.2963  225.1859 H   0  0  0  0  0  0  0  0  0  0  0  0
  140.5690   71.0730  225.5260 C   0  0  0  0  0  0  0  0  0  0  0  0
  140.7110   71.4040  224.0640 C   0  0  0  0  0  0  0  0  0  0  0  0
  141.2220   72.3731  223.9652 H   0  0  0  0  0  0  0  0  0  0  0  0
  141.2927   70.6030  223.5844 H   0  0  0  0  0  0  0  0  0  0  0  0
  139.3440   71.4880  223.3690 C   0  0  0  0  0  0  0  0  0  0  0  0
  138.9518   70.4698  223.2296 H   0  0  0  0  0  0  0  0  0  0  0  0
  138.6729   72.0855  224.0035 H   0  0  0  0  0  0  0  0  0  0  0  0
  139.4400   72.1440  222.0600 N   0  0  0  0  0  0  0  0  0  0  0  0
  138.8290   71.7780  221.2940 H   0  0  0  0  0  0  0  0  0  0  0  0
  140.2490   73.1330  221.8010 C   0  0  0  0  0  0  0  0  0  0  0  0
  141.4220   72.8960  221.1620 N   0  0  0  0  0  0  0  0  0  0  0  0
  142.2700   73.9130  220.8610 C   0  0  0  0  0  0  0  0  0  0  0  0
  143.4980   73.6320  220.1610 N   0  0  0  0  0  0  0  0  0  0  0  0
  143.4600   73.3570  218.7190 C   0  0  0  0  0  0  0  0  0  0  0  0
  143.3557   72.2737  218.5589 H   0  0  0  0  0  0  0  0  0  0  0  0
  142.6043   73.8878  218.2762 H   0  0  0  0  0  0  0  0  0  0  0  0
  144.7470   73.8440  218.0510 C   0  0  0  0  0  0  0  0  0  0  0  0
  144.7587   73.5145  217.0016 H   0  0  0  0  0  0  0  0  0  0  0  0
  144.7834   74.9423  218.1005 H   0  0  0  0  0  0  0  0  0  0  0  0
  145.9170   73.2950  218.7440 N   0  0  0  0  0  0  0  0  0  0  0  0
  146.7720   73.6540  218.2570 H   0  0  0  0  0  0  0  0  0  0  0  0
  145.9570   73.7760  220.1290 C   0  0  0  0  0  0  0  0  0  0  0  0
  146.8628   73.3908  220.6201 H   0  0  0  0  0  0  0  0  0  0  0  0
  145.9676   74.8759  220.1238 H   0  0  0  0  0  0  0  0  0  0  0  0
  144.7240   73.2960  220.8980 C   0  0  0  0  0  0  0  0  0  0  0  0
  144.7806   72.2053  221.0293 H   0  0  0  0  0  0  0  0  0  0  0  0
  144.6988   73.7939  221.8785 H   0  0  0  0  0  0  0  0  0  0  0  0
  141.9410   75.1880  221.2210 N   0  0  0  0  0  0  0  0  0  0  0  0
  142.5760   75.9790  220.9820 H   0  0  0  0  0  0  0  0  0  0  0  0
  140.7740   75.4340  221.8810 C   0  0  0  0  0  0  0  0  0  0  0  0
  140.4000   76.7730  222.2500 N   0  0  0  0  0  0  0  0  0  0  0  0
  139.0040   77.1990  222.0700 C   0  0  0  0  0  0  0  0  0  0  0  0
  138.6964   76.9860  221.0356 H   0  0  0  0  0  0  0  0  0  0  0  0
  138.3804   76.6455  222.7875 H   0  0  0  0  0  0  0  0  0  0  0  0
  138.8310   78.7000  222.3420 C   0  0  0  0  0  0  0  0  0  0  0  0
  137.8719   79.0366  221.9214 H   0  0  0  0  0  0  0  0  0  0  0  0
  138.8471   78.8705  223.4286 H   0  0  0  0  0  0  0  0  0  0  0  0
  139.9730   79.4940  221.6960 C   0  0  0  0  0  0  0  0  0  0  0  0
  139.9225   79.3582  220.6056 H   0  0  0  0  0  0  0  0  0  0  0  0
  139.8464   80.5485  221.9823 H   0  0  0  0  0  0  0  0  0  0  0  0
  141.3690   79.0430  222.1860 C   0  0  0  0  0  0  0  0  0  0  0  0
  142.0387   78.9743  221.3161 H   0  0  0  0  0  0  0  0  0  0  0  0
  141.7136   79.7889  222.9174 H   0  0  0  0  0  0  0  0  0  0  0  0
  141.3540   77.6820  222.8980 C   0  0  0  0  0  0  0  0  0  0  0  0
  142.3606   77.2403  222.8559 H   0  0  0  0  0  0  0  0  0  0  0  0
  141.0488   77.8312  223.9442 H   0  0  0  0  0  0  0  0  0  0  0  0
  139.9310   74.4060  222.1550 N   0  0  0  0  0  0  0  0  0  0  0  0
  141.1310   71.9050  226.5050 C   0  0  0  0  0  0  0  0  0  0  0  0
  141.7050   72.7948  226.2071 H   0  0  0  0  0  0  0  0  0  0  0  0
  140.9620   71.6040  227.8580 C   0  0  0  0  0  0  0  0  0  0  0  0
  141.4059   72.2491  228.6305 H   0  0  0  0  0  0  0  0  0  0  0  0
  1  2  1  0
  2  3  2  0
  3  4  1  0
  4  5  1  0
  4  6  2  0
  6  7  1  0
  7  8  1  0
  7  9  1  0
  7 10  1  0
 10 11  1  0
 10 12  1  0
 10 13  1  0
 13 14  1  0
 13 15  2  0
 15 16  1  0
 16 17  2  0
 17 18  1  0
 18 19  1  0
 19 20  1  0
 19 21  1  0
 19 22  1  0
 22 23  1  0
 22 24  1  0
 22 25  1  0
 25 26  1  0
 25 27  1  0
 27 28  1  0
 27 29  1  0
 27 30  1  0
 30 31  1  0
 30 32  1  0
 17 33  1  0
 33 34  1  0
 33 35  1  0
 35 36  1  0
 36 37  1  0
 37 38  1  0
 37 39  1  0
 37 40  1  0
 40 41  1  0
 40 42  1  0
 40 43  1  0
 43 44  1  0
 43 45  1  0
 43 46  1  0
 46 47  1  0
 46 48  1  0
 46 49  1  0
 49 50  1  0
 49 51  1  0
 35 52  2  0
  6 53  1  0
 53 54  1  0
 53 55  2  0
 55 56  1  0
 55  2  1  0
 52 15  1  0
 30 18  1  0
 49 36  1  0
M  CHG  1  13   1
M  END
>  <UniqueID>  (64) 
584

>  <SMILES>  (64) 
c1cncc(CC/[NH+]=c2\nc(N3CCCCC3)[nH]c(N3CCNCC3)n2)c1

>  <Energy>  (64) 
59.183879608312594

>  <Genealogy>  (64) 
c1cncc(CC[NH2+]c2nc(N3CCCCC3)nc(N3CCNCC3)n2)c1 (protonated)
c1cncc(CC[NH+]=c2nc(N3CCCCC3)[nH]c(N3CCNCC3)n2)c1 (tautomer)
c1cncc(CC/[NH+]=c2\nc(N3CCCCC3)[nH]c(N3CCNCC3)n2)c1 (cis-trans isomerization)
c1cncc(CC/[NH+]=c2\nc(N3CCCCC3)[nH]c(N3CCNCC3)n2)c1 (3D coordinates assigned)
c1cncc(CC/[NH+]=c2\nc(N3CCCCC3)[nH]c(N3CCNCC3)n2)c1 (nonaromatic ring conformer: 59.183879608312594 kcal/mol)

>  <smiles>  (64) 
c1cncc(CCNc2nc(N3CCCCC3)nc(N3CCNCC3)n2)c1

>  <score_type>  (64) 
oracle

>  <origin>  (64) 
autodockgpu

>  <m_score__min__energy>  (64) 
-8.5600000000000005

>  <m_primary>  (64) 
energy

>  <meeko>  (64) 
{"free_energy": -8.28, "intermolecular_energy": -10.07, "internal_energy": -0.58, "cluster_size": 18, "cluster_id": 1, "rank_in_cluster": 8}

>  <energy>  (64) 
-8.39

>  <cluster_rmsd>  (64) 
1.17

>  <rmsd>  (64) 
271.4

>  <cluster>  (64) 
1

$$$$
YQRBYBBKMCEKLP-VSQHSNIGNA-O
     RDKit          3D

 56 59  0  0  0  0  0  0  0  0999 V2000
  139.7211   70.0384  228.9385 H   0  0  0  0  0  0  0  0  0  0  0  0
  139.9340   70.3590  227.9080 C   0  0  0  0  0  0  0  0  0  0  0  0
  139.4110   69.6690  226.8600 N   0  0  0  0  0  0  0  0  0  0  0  0
  139.6520   70.0320  225.5720 C   0  0  0  0  0  0  0  0  0  0  0  0
  139.2085   69.4548  224.7473 H   0  0  0  0  0  0  0  0  0  0  0  0
  140.4650   71.1410  225.2920 C   0  0  0  0  0  0  0  0  0  0  0  0
  140.7090   71.5730  223.8700 C   0  0  0  0  0  0  0  0  0  0  0  0
  141.1264   72.5907  223.8723 H   0  0  0  0  0  0  0  0  0  0  0  0
  141.4112   70.8625  223.4094 H   0  0  0  0  0  0  0  0  0  0  0  0
  139.4110   71.5680  223.0490 C   0  0  0  0  0  0  0  0  0  0  0  0
  139.4651   70.7634  222.3009 H   0  0  0  0  0  0  0  0  0  0  0  0
  138.5690   71.4082  223.7385 H   0  0  0  0  0  0  0  0  0  0  0  0
  139.2020   72.8460  222.3590 N   0  0  0  0  0  0  0  0  0  0  0  0
  138.2140   73.1350  222.1730 H   0  0  0  0  0  0  0  0  0  0  0  0
  140.1700   73.6200  221.9540 C   0  0  0  0  0  0  0  0  0  0  0  0
  141.3000   73.0730  221.4400 N   0  0  0  0  0  0  0  0  0  0  0  0
  142.3120   73.8600  220.9910 C   0  0  0  0  0  0  0  0  0  0  0  0
  143.4910   73.2490  220.4290 N   0  0  0  0  0  0  0  0  0  0  0  0
  144.7680   73.9760  220.4660 C   0  0  0  0  0  0  0  0  0  0  0  0
  144.8777   74.5641  219.5429 H   0  0  0  0  0  0  0  0  0  0  0  0
  144.7750   74.6430  221.3406 H   0  0  0  0  0  0  0  0  0  0  0  0
  145.9340   72.9940  220.5800 C   0  0  0  0  0  0  0  0  0  0  0  0
  146.8819   73.5420  220.4739 H   0  0  0  0  0  0  0  0  0  0  0  0
  145.8924   72.5009  221.5624 H   0  0  0  0  0  0  0  0  0  0  0  0
  145.8440   71.9740  219.5290 N   0  0  0  0  0  0  0  0  0  0  0  0
  146.6580   71.3250  219.6460 H   0  0  0  0  0  0  0  0  0  0  0  0
  144.6180   71.1860  219.6920 C   0  0  0  0  0  0  0  0  0  0  0  0
  144.5883   70.3990  218.9241 H   0  0  0  0  0  0  0  0  0  0  0  0
  144.6143   70.7356  220.6956 H   0  0  0  0  0  0  0  0  0  0  0  0
  143.3840   72.0810  219.5450 C   0  0  0  0  0  0  0  0  0  0  0  0
  143.3054   72.4217  218.5020 H   0  0  0  0  0  0  0  0  0  0  0  0
  142.4894   71.5041  219.8224 H   0  0  0  0  0  0  0  0  0  0  0  0
  142.1930   75.2170  221.0730 N   0  0  0  0  0  0  0  0  0  0  0  0
  142.9570   75.8310  220.7180 H   0  0  0  0  0  0  0  0  0  0  0  0
  141.0700   75.7750  221.6060 C   0  0  0  0  0  0  0  0  0  0  0  0
  140.9180   77.2040  221.6820 N   0  0  0  0  0  0  0  0  0  0  0  0
  141.5750   78.0450  220.6720 C   0  0  0  0  0  0  0  0  0  0  0  0
  142.6400   77.7745  220.6203 H   0  0  0  0  0  0  0  0  0  0  0  0
  141.0785   77.8731  219.7056 H   0  0  0  0  0  0  0  0  0  0  0  0
  141.4560   79.5370  221.0140 C   0  0  0  0  0  0  0  0  0  0  0  0
  142.1901   80.1043  220.4230 H   0  0  0  0  0  0  0  0  0  0  0  0
  140.4371   79.8777  220.7777 H   0  0  0  0  0  0  0  0  0  0  0  0
  141.7240   79.7650  222.5070 C   0  0  0  0  0  0  0  0  0  0  0  0
  142.7601   79.4683  222.7272 H   0  0  0  0  0  0  0  0  0  0  0  0
  141.5513   80.8313  222.7149 H   0  0  0  0  0  0  0  0  0  0  0  0
  140.7740   78.9540  223.4180 C   0  0  0  0  0  0  0  0  0  0  0  0
  141.3661   78.5091  224.2314 H   0  0  0  0  0  0  0  0  0  0  0  0
  140.0101   79.6508  223.7934 H   0  0  0  0  0  0  0  0  0  0  0  0
  140.0360   77.8260  222.6790 C   0  0  0  0  0  0  0  0  0  0  0  0
  139.7170   77.0646  223.4059 H   0  0  0  0  0  0  0  0  0  0  0  0
  139.1599   78.2492  222.1658 H   0  0  0  0  0  0  0  0  0  0  0  0
  140.0610   74.9720  222.0320 N   0  0  0  0  0  0  0  0  0  0  0  0
  141.0040   71.8680  226.3640 C   0  0  0  0  0  0  0  0  0  0  0  0
  141.6339   72.7486  226.1698 H   0  0  0  0  0  0  0  0  0  0  0  0
  140.7410   71.4740  227.6770 C   0  0  0  0  0  0  0  0  0  0  0  0
  141.1656   72.0368  228.5214 H   0  0  0  0  0  0  0  0  0  0  0  0
  1  2  1  0
  2  3  2  0
  3  4  1  0
  4  5  1  0
  4  6  2  0
  6  7  1  0
  7  8  1  0
  7  9  1  0
  7 10  1  0
 10 11  1  0
 10 12  1  0
 10 13  1  0
 13 14  1  0
 13 15  2  0
 15 16  1  0
 16 17  2  0
 17 18  1  0
 18 19  1  0
 19 20  1  0
 19 21  1  0
 19 22  1  0
 22 23  1  0
 22 24  1  0
 22 25  1  0
 25 26  1  0
 25 27  1  0
 27 28  1  0
 27 29  1  0
 27 30  1  0
 30 31  1  0
 30 32  1  0
 17 33  1  0
 33 34  1  0
 33 35  1  0
 35 36  1  0
 36 37  1  0
 37 38  1  0
 37 39  1  0
 37 40  1  0
 40 41  1  0
 40 42  1  0
 40 43  1  0
 43 44  1  0
 43 45  1  0
 43 46  1  0
 46 47  1  0
 46 48  1  0
 46 49  1  0
 49 50  1  0
 49 51  1  0
 35 52  2  0
  6 53  1  0
 53 54  1  0
 53 55  2  0
 55 56  1  0
 55  2  1  0
 52 15  1  0
 30 18  1  0
 49 36  1  0
M  CHG  1  13   1
M  END
>  <UniqueID>  (65) 
584

>  <SMILES>  (65) 
c1cncc(CC/[NH+]=c2\nc(N3CCCCC3)[nH]c(N3CCNCC3)n2)c1

>  <Energy>  (65) 
59.183879608312594

>  <Genealogy>  (65) 
c1cncc(CC[NH2+]c2nc(N3CCCCC3)nc(N3CCNCC3)n2)c1 (protonated)
c1cncc(CC[NH+]=c2nc(N3CCCCC3)[nH]c(N3CCNCC3)n2)c1 (tautomer)
c1cncc(CC/[NH+]=c2\nc(N3CCCCC3)[nH]c(N3CCNCC3)n2)c1 (cis-trans isomerization)
c1cncc(CC/[NH+]=c2\nc(N3CCCCC3)[nH]c(N3CCNCC3)n2)c1 (3D coordinates assigned)
c1cncc(CC/[NH+]=c2\nc(N3CCCCC3)[nH]c(N3CCNCC3)n2)c1 (nonaromatic ring conformer: 59.183879608312594 kcal/mol)

>  <smiles>  (65) 
c1cncc(CCNc2nc(N3CCCCC3)nc(N3CCNCC3)n2)c1

>  <score_type>  (65) 
oracle

>  <origin>  (65) 
autodockgpu

>  <m_score__min__energy>  (65) 
-8.5600000000000005

>  <m_primary>  (65) 
energy

>  <meeko>  (65) 
{"free_energy": -8.3, "intermolecular_energy": -10.09, "internal_energy": -0.52, "cluster_size": 18, "cluster_id": 1, "rank_in_cluster": 7}

>  <energy>  (65) 
-8.33

>  <cluster_rmsd>  (65) 
1.68

>  <rmsd>  (65) 
271.7

>  <cluster>  (65) 
1

$$$$
YQRBYBBKMCEKLP-VSQHSNIGNA-O
     RDKit          3D

 56 59  0  0  0  0  0  0  0  0999 V2000
  139.8947   70.3821  229.0493 H   0  0  0  0  0  0  0  0  0  0  0  0
  140.0700   70.5540  227.9770 C   0  0  0  0  0  0  0  0  0  0  0  0
  139.5310   69.7110  227.0570 N   0  0  0  0  0  0  0  0  0  0  0  0
  139.7280   69.8870  225.7230 C   0  0  0  0  0  0  0  0  0  0  0  0
  139.2747   69.1880  225.0048 H   0  0  0  0  0  0  0  0  0  0  0  0
  140.5080   70.9580  225.2600 C   0  0  0  0  0  0  0  0  0  0  0  0
  140.7010   71.1830  223.7840 C   0  0  0  0  0  0  0  0  0  0  0  0
  141.2486   72.1253  223.6348 H   0  0  0  0  0  0  0  0  0  0  0  0
  141.2667   70.3321  223.3766 H   0  0  0  0  0  0  0  0  0  0  0  0
  139.3570   71.2650  223.0460 C   0  0  0  0  0  0  0  0  0  0  0  0
  139.4279   70.6890  222.1115 H   0  0  0  0  0  0  0  0  0  0  0  0
  138.5786   70.8534  223.7053 H   0  0  0  0  0  0  0  0  0  0  0  0
  138.9970   72.6510  222.7240 N   0  0  0  0  0  0  0  0  0  0  0  0
  137.9950   72.9250  222.8400 H   0  0  0  0  0  0  0  0  0  0  0  0
  139.8480   73.5400  222.2910 C   0  0  0  0  0  0  0  0  0  0  0  0
  139.5990   74.8600  222.4820 N   0  0  0  0  0  0  0  0  0  0  0  0
  140.4800   75.8020  222.0600 C   0  0  0  0  0  0  0  0  0  0  0  0
  140.1990   77.1960  222.2980 N   0  0  0  0  0  0  0  0  0  0  0  0
  141.2520   78.0620  222.8450 C   0  0  0  0  0  0  0  0  0  0  0  0
  141.1832   78.0677  223.9428 H   0  0  0  0  0  0  0  0  0  0  0  0
  142.2326   77.6750  222.5308 H   0  0  0  0  0  0  0  0  0  0  0  0
  141.0900   79.4900  222.3220 C   0  0  0  0  0  0  0  0  0  0  0  0
  141.8013   80.1495  222.8408 H   0  0  0  0  0  0  0  0  0  0  0  0
  141.2880   79.4999  221.2400 H   0  0  0  0  0  0  0  0  0  0  0  0
  139.7240   79.9670  222.5620 N   0  0  0  0  0  0  0  0  0  0  0  0
  139.6580   80.9430  222.1880 H   0  0  0  0  0  0  0  0  0  0  0  0
  138.7620   79.1400  221.8250 C   0  0  0  0  0  0  0  0  0  0  0  0
  137.7483   79.5376  221.9810 H   0  0  0  0  0  0  0  0  0  0  0  0
  139.0177   79.1639  220.7554 H   0  0  0  0  0  0  0  0  0  0  0  0
  138.8160   77.6920  222.3150 C   0  0  0  0  0  0  0  0  0  0  0  0
  138.4259   77.6424  223.3423 H   0  0  0  0  0  0  0  0  0  0  0  0
  138.2048   77.0667  221.6476 H   0  0  0  0  0  0  0  0  0  0  0  0
  141.6240   75.4140  221.4230 N   0  0  0  0  0  0  0  0  0  0  0  0
  142.3150   76.1270  221.1080 H   0  0  0  0  0  0  0  0  0  0  0  0
  141.8730   74.0910  221.2090 C   0  0  0  0  0  0  0  0  0  0  0  0
  143.0810   73.6610  220.5580 N   0  0  0  0  0  0  0  0  0  0  0  0
  143.2370   72.2410  220.2100 C   0  0  0  0  0  0  0  0  0  0  0  0
  143.0455   71.6311  221.1052 H   0  0  0  0  0  0  0  0  0  0  0  0
  142.5200   72.0021  219.4108 H   0  0  0  0  0  0  0  0  0  0  0  0
  144.6510   71.9370  219.6930 C   0  0  0  0  0  0  0  0  0  0  0  0
  144.8232   70.8510  219.7245 H   0  0  0  0  0  0  0  0  0  0  0  0
  144.7405   72.3029  218.6595 H   0  0  0  0  0  0  0  0  0  0  0  0
  145.6990   72.6410  220.5640 C   0  0  0  0  0  0  0  0  0  0  0  0
  145.6363   72.2366  221.5850 H   0  0  0  0  0  0  0  0  0  0  0  0
  146.6842   72.4557  220.1113 H   0  0  0  0  0  0  0  0  0  0  0  0
  145.4960   74.1730  220.6260 C   0  0  0  0  0  0  0  0  0  0  0  0
  145.6245   74.5000  221.6684 H   0  0  0  0  0  0  0  0  0  0  0  0
  146.2390   74.6270  219.9538 H   0  0  0  0  0  0  0  0  0  0  0  0
  144.1090   74.6240  220.1410 C   0  0  0  0  0  0  0  0  0  0  0  0
  143.8777   75.6096  220.5712 H   0  0  0  0  0  0  0  0  0  0  0  0
  144.1175   74.6827  219.0426 H   0  0  0  0  0  0  0  0  0  0  0  0
  140.9880   73.1630  221.6560 N   0  0  0  0  0  0  0  0  0  0  0  0
  141.0620   71.8410  226.1980 C   0  0  0  0  0  0  0  0  0  0  0  0
  141.6674   72.6944  225.8586 H   0  0  0  0  0  0  0  0  0  0  0  0
  140.8460   71.6380  227.5620 C   0  0  0  0  0  0  0  0  0  0  0  0
  141.2825   72.3248  228.3021 H   0  0  0  0  0  0  0  0  0  0  0  0
  1  2  1  0
  2  3  2  0
  3  4  1  0
  4  5  1  0
  4  6  2  0
  6  7  1  0
  7  8  1  0
  7  9  1  0
  7 10  1  0
 10 11  1  0
 10 12  1  0
 10 13  1  0
 13 14  1  0
 13 15  2  0
 15 16  1  0
 16 17  2  0
 17 18  1  0
 18 19  1  0
 19 20  1  0
 19 21  1  0
 19 22  1  0
 22 23  1  0
 22 24  1  0
 22 25  1  0
 25 26  1  0
 25 27  1  0
 27 28  1  0
 27 29  1  0
 27 30  1  0
 30 31  1  0
 30 32  1  0
 17 33  1  0
 33 34  1  0
 33 35  1  0
 35 36  1  0
 36 37  1  0
 37 38  1  0
 37 39  1  0
 37 40  1  0
 40 41  1  0
 40 42  1  0
 40 43  1  0
 43 44  1  0
 43 45  1  0
 43 46  1  0
 46 47  1  0
 46 48  1  0
 46 49  1  0
 49 50  1  0
 49 51  1  0
 35 52  2  0
  6 53  1  0
 53 54  1  0
 53 55  2  0
 55 56  1  0
 55  2  1  0
 52 15  1  0
 30 18  1  0
 49 36  1  0
M  CHG  1  13   1
M  END
>  <UniqueID>  (66) 
584

>  <SMILES>  (66) 
c1cncc(CC/[NH+]=c2\nc(N3CCCCC3)[nH]c(N3CCNCC3)n2)c1

>  <Energy>  (66) 
59.183879608312594

>  <Genealogy>  (66) 
c1cncc(CC[NH2+]c2nc(N3CCCCC3)nc(N3CCNCC3)n2)c1 (protonated)
c1cncc(CC[NH+]=c2nc(N3CCCCC3)[nH]c(N3CCNCC3)n2)c1 (tautomer)
c1cncc(CC/[NH+]=c2\nc(N3CCCCC3)[nH]c(N3CCNCC3)n2)c1 (cis-trans isomerization)
c1cncc(CC/[NH+]=c2\nc(N3CCCCC3)[nH]c(N3CCNCC3)n2)c1 (3D coordinates assigned)
c1cncc(CC/[NH+]=c2\nc(N3CCCCC3)[nH]c(N3CCNCC3)n2)c1 (nonaromatic ring conformer: 59.183879608312594 kcal/mol)

>  <smiles>  (66) 
c1cncc(CCNc2nc(N3CCCCC3)nc(N3CCNCC3)n2)c1

>  <score_type>  (66) 
oracle

>  <origin>  (66) 
autodockgpu

>  <m_score__min__energy>  (66) 
-8.5600000000000005

>  <m_primary>  (66) 
energy

>  <meeko>  (66) 
{"free_energy": -7.91, "intermolecular_energy": -9.7, "internal_energy": -0.61, "cluster_size": 18, "cluster_id": 1, "rank_in_cluster": 17}

>  <energy>  (66) 
-8.31

>  <cluster_rmsd>  (66) 
1.68

>  <rmsd>  (66) 
271.71

>  <cluster>  (66) 
1

$$$$
YQRBYBBKMCEKLP-VSQHSNIGNA-O
     RDKit          3D

 56 59  0  0  0  0  0  0  0  0999 V2000
  139.6437   66.7283  227.4415 H   0  0  0  0  0  0  0  0  0  0  0  0
  139.8060   67.6240  226.8240 C   0  0  0  0  0  0  0  0  0  0  0  0
  139.1950   67.7350  225.6140 N   0  0  0  0  0  0  0  0  0  0  0  0
  139.3730   68.8250  224.8210 C   0  0  0  0  0  0  0  0  0  0  0  0
  138.8606   68.8859  223.8495 H   0  0  0  0  0  0  0  0  0  0  0  0
  140.2080   69.8720  225.2380 C   0  0  0  0  0  0  0  0  0  0  0  0
  140.3820   71.1000  224.3830 C   0  0  0  0  0  0  0  0  0  0  0  0
  140.5454   71.9698  225.0362 H   0  0  0  0  0  0  0  0  0  0  0  0
  141.2454   70.9392  223.7207 H   0  0  0  0  0  0  0  0  0  0  0  0
  139.1470   71.3580  223.5090 C   0  0  0  0  0  0  0  0  0  0  0  0
  138.5551   70.4329  223.4466 H   0  0  0  0  0  0  0  0  0  0  0  0
  138.5643   72.1690  223.9703 H   0  0  0  0  0  0  0  0  0  0  0  0
  139.5190   71.7770  222.1520 N   0  0  0  0  0  0  0  0  0  0  0  0
  139.1700   71.1940  221.3570 H   0  0  0  0  0  0  0  0  0  0  0  0
  140.2670   72.8140  221.8920 C   0  0  0  0  0  0  0  0  0  0  0  0
  141.4610   72.6440  221.2700 N   0  0  0  0  0  0  0  0  0  0  0  0
  142.2460   73.7110  220.9680 C   0  0  0  0  0  0  0  0  0  0  0  0
  143.4980   73.5010  220.2860 N   0  0  0  0  0  0  0  0  0  0  0  0
  143.4980   73.2480  218.8390 C   0  0  0  0  0  0  0  0  0  0  0  0
  143.4498   72.1637  218.6605 H   0  0  0  0  0  0  0  0  0  0  0  0
  142.6249   73.7437  218.3896 H   0  0  0  0  0  0  0  0  0  0  0  0
  144.7700   73.8080  218.2010 C   0  0  0  0  0  0  0  0  0  0  0  0
  144.8156   73.4963  217.1471 H   0  0  0  0  0  0  0  0  0  0  0  0
  144.7517   74.9059  218.2672 H   0  0  0  0  0  0  0  0  0  0  0  0
  145.9540   73.3050  218.9070 N   0  0  0  0  0  0  0  0  0  0  0  0
  146.7990   73.7140  218.4410 H   0  0  0  0  0  0  0  0  0  0  0  0
  145.9470   73.7660  220.3000 C   0  0  0  0  0  0  0  0  0  0  0  0
  146.8623   73.4183  220.8014 H   0  0  0  0  0  0  0  0  0  0  0  0
  145.9037   74.8651  220.3119 H   0  0  0  0  0  0  0  0  0  0  0  0
  144.7260   73.2130  221.0390 C   0  0  0  0  0  0  0  0  0  0  0  0
  144.8340   72.1243  221.1536 H   0  0  0  0  0  0  0  0  0  0  0  0
  144.6595   73.6922  222.0269 H   0  0  0  0  0  0  0  0  0  0  0  0
  141.8320   74.9660  221.3100 N   0  0  0  0  0  0  0  0  0  0  0  0
  142.4190   75.7930  221.0710 H   0  0  0  0  0  0  0  0  0  0  0  0
  140.6440   75.1440  221.9540 C   0  0  0  0  0  0  0  0  0  0  0  0
  140.1810   76.4600  222.3040 N   0  0  0  0  0  0  0  0  0  0  0  0
  138.7350   76.7210  222.3380 C   0  0  0  0  0  0  0  0  0  0  0  0
  138.2915   76.3990  221.3843 H   0  0  0  0  0  0  0  0  0  0  0  0
  138.3037   76.1606  223.1805 H   0  0  0  0  0  0  0  0  0  0  0  0
  138.4350   78.2130  222.5490 C   0  0  0  0  0  0  0  0  0  0  0  0
  137.3883   78.4143  222.2773 H   0  0  0  0  0  0  0  0  0  0  0  0
  138.6062   78.4656  223.6058 H   0  0  0  0  0  0  0  0  0  0  0  0
  139.3580   79.0720  221.6760 C   0  0  0  0  0  0  0  0  0  0  0  0
  139.1488   78.8502  220.6191 H   0  0  0  0  0  0  0  0  0  0  0  0
  139.1576   80.1259  221.9190 H   0  0  0  0  0  0  0  0  0  0  0  0
  140.8570   78.8080  221.9490 C   0  0  0  0  0  0  0  0  0  0  0  0
  141.3813   78.7448  220.9840 H   0  0  0  0  0  0  0  0  0  0  0  0
  141.2253   79.6388  222.5688 H   0  0  0  0  0  0  0  0  0  0  0  0
  141.1160   77.5100  222.7300 C   0  0  0  0  0  0  0  0  0  0  0  0
  142.1469   77.1746  222.5436 H   0  0  0  0  0  0  0  0  0  0  0  0
  140.9694   77.7041  223.8028 H   0  0  0  0  0  0  0  0  0  0  0  0
  139.8640   74.0670  222.2290 N   0  0  0  0  0  0  0  0  0  0  0  0
  140.8370   69.7760  226.4880 C   0  0  0  0  0  0  0  0  0  0  0  0
  141.4860   70.5908  226.8416 H   0  0  0  0  0  0  0  0  0  0  0  0
  140.6390   68.6460  227.2830 C   0  0  0  0  0  0  0  0  0  0  0  0
  141.1344   68.5615  228.2615 H   0  0  0  0  0  0  0  0  0  0  0  0
  1  2  1  0
  2  3  2  0
  3  4  1  0
  4  5  1  0
  4  6  2  0
  6  7  1  0
  7  8  1  0
  7  9  1  0
  7 10  1  0
 10 11  1  0
 10 12  1  0
 10 13  1  0
 13 14  1  0
 13 15  2  0
 15 16  1  0
 16 17  2  0
 17 18  1  0
 18 19  1  0
 19 20  1  0
 19 21  1  0
 19 22  1  0
 22 23  1  0
 22 24  1  0
 22 25  1  0
 25 26  1  0
 25 27  1  0
 27 28  1  0
 27 29  1  0
 27 30  1  0
 30 31  1  0
 30 32  1  0
 17 33  1  0
 33 34  1  0
 33 35  1  0
 35 36  1  0
 36 37  1  0
 37 38  1  0
 37 39  1  0
 37 40  1  0
 40 41  1  0
 40 42  1  0
 40 43  1  0
 43 44  1  0
 43 45  1  0
 43 46  1  0
 46 47  1  0
 46 48  1  0
 46 49  1  0
 49 50  1  0
 49 51  1  0
 35 52  2  0
  6 53  1  0
 53 54  1  0
 53 55  2  0
 55 56  1  0
 55  2  1  0
 52 15  1  0
 30 18  1  0
 49 36  1  0
M  CHG  1  13   1
M  END
>  <UniqueID>  (67) 
584

>  <SMILES>  (67) 
c1cncc(CC/[NH+]=c2\nc(N3CCCCC3)[nH]c(N3CCNCC3)n2)c1

>  <Energy>  (67) 
59.183879608312594

>  <Genealogy>  (67) 
c1cncc(CC[NH2+]c2nc(N3CCCCC3)nc(N3CCNCC3)n2)c1 (protonated)
c1cncc(CC[NH+]=c2nc(N3CCCCC3)[nH]c(N3CCNCC3)n2)c1 (tautomer)
c1cncc(CC/[NH+]=c2\nc(N3CCCCC3)[nH]c(N3CCNCC3)n2)c1 (cis-trans isomerization)
c1cncc(CC/[NH+]=c2\nc(N3CCCCC3)[nH]c(N3CCNCC3)n2)c1 (3D coordinates assigned)
c1cncc(CC/[NH+]=c2\nc(N3CCCCC3)[nH]c(N3CCNCC3)n2)c1 (nonaromatic ring conformer: 59.183879608312594 kcal/mol)

>  <smiles>  (67) 
c1cncc(CCNc2nc(N3CCCCC3)nc(N3CCNCC3)n2)c1

>  <score_type>  (67) 
oracle

>  <origin>  (67) 
autodockgpu

>  <m_score__min__energy>  (67) 
-8.5600000000000005

>  <m_primary>  (67) 
energy

>  <meeko>  (67) 
{"free_energy": -8.39, "intermolecular_energy": -10.18, "internal_energy": -0.51, "cluster_size": 18, "cluster_id": 1, "rank_in_cluster": 4}

>  <energy>  (67) 
-8.3

>  <cluster_rmsd>  (67) 
0.88

>  <rmsd>  (67) 
271.83

>  <cluster>  (67) 
1

$$$$
YQRBYBBKMCEKLP-VSQHSNIGNA-O
     RDKit          3D

 56 59  0  0  0  0  0  0  0  0999 V2000
  141.6209   70.3380  227.8390 H   0  0  0  0  0  0  0  0  0  0  0  0
  141.0040   70.4300  226.9330 C   0  0  0  0  0  0  0  0  0  0  0  0
  139.9990   69.5440  226.7030 N   0  0  0  0  0  0  0  0  0  0  0  0
  139.2160   69.6230  225.5940 C   0  0  0  0  0  0  0  0  0  0  0  0
  138.4073   68.8933  225.4403 H   0  0  0  0  0  0  0  0  0  0  0  0
  139.4370   70.6330  224.6450 C   0  0  0  0  0  0  0  0  0  0  0  0
  138.5520   70.7510  223.4320 C   0  0  0  0  0  0  0  0  0  0  0  0
  138.2346   69.7444  223.1220 H   0  0  0  0  0  0  0  0  0  0  0  0
  137.6834   71.3713  223.6980 H   0  0  0  0  0  0  0  0  0  0  0  0
  139.2850   71.4250  222.2630 C   0  0  0  0  0  0  0  0  0  0  0  0
  140.3362   71.1010  222.2671 H   0  0  0  0  0  0  0  0  0  0  0  0
  138.7850   71.1296  221.3288 H   0  0  0  0  0  0  0  0  0  0  0  0
  139.2380   72.8890  222.3640 N   0  0  0  0  0  0  0  0  0  0  0  0
  138.3760   73.3140  222.7760 H   0  0  0  0  0  0  0  0  0  0  0  0
  140.1950   73.6750  221.9570 C   0  0  0  0  0  0  0  0  0  0  0  0
  141.3290   73.1430  221.4340 N   0  0  0  0  0  0  0  0  0  0  0  0
  142.3300   73.9430  220.9830 C   0  0  0  0  0  0  0  0  0  0  0  0
  143.5120   73.3480  220.4120 N   0  0  0  0  0  0  0  0  0  0  0  0
  144.7840   74.0810  220.4620 C   0  0  0  0  0  0  0  0  0  0  0  0
  144.8912   74.6847  219.5488 H   0  0  0  0  0  0  0  0  0  0  0  0
  144.7866   74.7338  221.3474 H   0  0  0  0  0  0  0  0  0  0  0  0
  145.9560   73.1030  220.5610 C   0  0  0  0  0  0  0  0  0  0  0  0
  146.9010   73.6579  220.4656 H   0  0  0  0  0  0  0  0  0  0  0  0
  145.9158   72.5929  221.5348 H   0  0  0  0  0  0  0  0  0  0  0  0
  145.8730   72.1010  219.4930 N   0  0  0  0  0  0  0  0  0  0  0  0
  146.6890   71.4540  219.6000 H   0  0  0  0  0  0  0  0  0  0  0  0
  144.6500   71.3040  219.6410 C   0  0  0  0  0  0  0  0  0  0  0  0
  144.6250   70.5305  218.8593 H   0  0  0  0  0  0  0  0  0  0  0  0
  144.6479   70.8365  220.6367 H   0  0  0  0  0  0  0  0  0  0  0  0
  143.4120   72.1940  219.5090 C   0  0  0  0  0  0  0  0  0  0  0  0
  143.3315   72.5514  218.4718 H   0  0  0  0  0  0  0  0  0  0  0  0
  142.5209   71.6075  219.7771 H   0  0  0  0  0  0  0  0  0  0  0  0
  142.1950   75.2990  221.0700 N   0  0  0  0  0  0  0  0  0  0  0  0
  142.9490   75.9230  220.7130 H   0  0  0  0  0  0  0  0  0  0  0  0
  141.0680   75.8420  221.6120 C   0  0  0  0  0  0  0  0  0  0  0  0
  140.9000   77.2680  221.6940 N   0  0  0  0  0  0  0  0  0  0  0  0
  141.5220   78.1190  220.6700 C   0  0  0  0  0  0  0  0  0  0  0  0
  142.5887   77.8618  220.5920 H   0  0  0  0  0  0  0  0  0  0  0  0
  141.0042   77.9427  219.7156 H   0  0  0  0  0  0  0  0  0  0  0  0
  141.3930   79.6100  221.0180 C   0  0  0  0  0  0  0  0  0  0  0  0
  142.1057   80.1873  220.4107 H   0  0  0  0  0  0  0  0  0  0  0  0
  140.3648   79.9389  220.8068 H   0  0  0  0  0  0  0  0  0  0  0  0
  141.6940   79.8380  222.5040 C   0  0  0  0  0  0  0  0  0  0  0  0
  142.7384   79.5527  222.6987 H   0  0  0  0  0  0  0  0  0  0  0  0
  141.5143   80.9018  222.7184 H   0  0  0  0  0  0  0  0  0  0  0  0
  140.7750   79.0140  223.4360 C   0  0  0  0  0  0  0  0  0  0  0  0
  141.3910   78.5760  224.2351 H   0  0  0  0  0  0  0  0  0  0  0  0
  140.0112   79.7008  223.8297 H   0  0  0  0  0  0  0  0  0  0  0  0
  140.0350   77.8780  222.7130 C   0  0  0  0  0  0  0  0  0  0  0  0
  139.7432   77.1116  223.4462 H   0  0  0  0  0  0  0  0  0  0  0  0
  139.1421   78.2912  222.2211 H   0  0  0  0  0  0  0  0  0  0  0  0
  140.0720   75.0260  222.0400 N   0  0  0  0  0  0  0  0  0  0  0  0
  140.4640   71.5600  224.8740 C   0  0  0  0  0  0  0  0  0  0  0  0
  140.6470   72.3682  224.1505 H   0  0  0  0  0  0  0  0  0  0  0  0
  141.2540   71.4570  226.0200 C   0  0  0  0  0  0  0  0  0  0  0  0
  142.0652   72.1773  226.2023 H   0  0  0  0  0  0  0  0  0  0  0  0
  1  2  1  0
  2  3  2  0
  3  4  1  0
  4  5  1  0
  4  6  2  0
  6  7  1  0
  7  8  1  0
  7  9  1  0
  7 10  1  0
 10 11  1  0
 10 12  1  0
 10 13  1  0
 13 14  1  0
 13 15  2  0
 15 16  1  0
 16 17  2  0
 17 18  1  0
 18 19  1  0
 19 20  1  0
 19 21  1  0
 19 22  1  0
 22 23  1  0
 22 24  1  0
 22 25  1  0
 25 26  1  0
 25 27  1  0
 27 28  1  0
 27 29  1  0
 27 30  1  0
 30 31  1  0
 30 32  1  0
 17 33  1  0
 33 34  1  0
 33 35  1  0
 35 36  1  0
 36 37  1  0
 37 38  1  0
 37 39  1  0
 37 40  1  0
 40 41  1  0
 40 42  1  0
 40 43  1  0
 43 44  1  0
 43 45  1  0
 43 46  1  0
 46 47  1  0
 46 48  1  0
 46 49  1  0
 49 50  1  0
 49 51  1  0
 35 52  2  0
  6 53  1  0
 53 54  1  0
 53 55  2  0
 55 56  1  0
 55  2  1  0
 52 15  1  0
 30 18  1  0
 49 36  1  0
M  CHG  1  13   1
M  END
>  <UniqueID>  (68) 
584

>  <SMILES>  (68) 
c1cncc(CC/[NH+]=c2\nc(N3CCCCC3)[nH]c(N3CCNCC3)n2)c1

>  <Energy>  (68) 
59.183879608312594

>  <Genealogy>  (68) 
c1cncc(CC[NH2+]c2nc(N3CCCCC3)nc(N3CCNCC3)n2)c1 (protonated)
c1cncc(CC[NH+]=c2nc(N3CCCCC3)[nH]c(N3CCNCC3)n2)c1 (tautomer)
c1cncc(CC/[NH+]=c2\nc(N3CCCCC3)[nH]c(N3CCNCC3)n2)c1 (cis-trans isomerization)
c1cncc(CC/[NH+]=c2\nc(N3CCCCC3)[nH]c(N3CCNCC3)n2)c1 (3D coordinates assigned)
c1cncc(CC/[NH+]=c2\nc(N3CCCCC3)[nH]c(N3CCNCC3)n2)c1 (nonaromatic ring conformer: 59.183879608312594 kcal/mol)

>  <smiles>  (68) 
c1cncc(CCNc2nc(N3CCCCC3)nc(N3CCNCC3)n2)c1

>  <score_type>  (68) 
oracle

>  <origin>  (68) 
autodockgpu

>  <m_score__min__energy>  (68) 
-8.5600000000000005

>  <m_primary>  (68) 
energy

>  <meeko>  (68) 
{"free_energy": -8.15, "intermolecular_energy": -9.94, "internal_energy": -0.58, "cluster_size": 18, "cluster_id": 1, "rank_in_cluster": 13}

>  <energy>  (68) 
-8.28

>  <cluster_rmsd>  (68) 
1.42

>  <rmsd>  (68) 
271.72

>  <cluster>  (68) 
1

$$$$
YQRBYBBKMCEKLP-VSQHSNIGNA-O
     RDKit          3D

 56 59  0  0  0  0  0  0  0  0999 V2000
  139.7157   66.4952  227.2182 H   0  0  0  0  0  0  0  0  0  0  0  0
  139.8800   67.4510  226.6990 C   0  0  0  0  0  0  0  0  0  0  0  0
  139.1810   67.7390  225.5690 N   0  0  0  0  0  0  0  0  0  0  0  0
  139.3580   68.9080  224.8970 C   0  0  0  0  0  0  0  0  0  0  0  0
  138.7729   69.1124  223.9882 H   0  0  0  0  0  0  0  0  0  0  0  0
  140.2850   69.8540  225.3600 C   0  0  0  0  0  0  0  0  0  0  0  0
  140.4620   71.1670  224.6440 C   0  0  0  0  0  0  0  0  0  0  0  0
  140.5581   71.9702  225.3894 H   0  0  0  0  0  0  0  0  0  0  0  0
  141.3658   71.1004  224.0205 H   0  0  0  0  0  0  0  0  0  0  0  0
  139.2680   71.4760  223.7290 C   0  0  0  0  0  0  0  0  0  0  0  0
  138.5863   70.6127  223.7286 H   0  0  0  0  0  0  0  0  0  0  0  0
  138.7646   72.3752  224.1137 H   0  0  0  0  0  0  0  0  0  0  0  0
  139.6960   71.7450  222.3510 N   0  0  0  0  0  0  0  0  0  0  0  0
  139.4360   71.0420  221.6220 H   0  0  0  0  0  0  0  0  0  0  0  0
  140.3900   72.7920  221.9980 C   0  0  0  0  0  0  0  0  0  0  0  0
  141.5580   72.6310  221.3270 N   0  0  0  0  0  0  0  0  0  0  0  0
  142.2860   73.7060  220.9290 C   0  0  0  0  0  0  0  0  0  0  0  0
  143.5120   73.5030  220.1980 N   0  0  0  0  0  0  0  0  0  0  0  0
  143.4580   73.2740  218.7480 C   0  0  0  0  0  0  0  0  0  0  0  0
  143.3979   72.1930  218.5534 H   0  0  0  0  0  0  0  0  0  0  0  0
  142.5715   73.7807  218.3387 H   0  0  0  0  0  0  0  0  0  0  0  0
  144.7090   73.8390  218.0740 C   0  0  0  0  0  0  0  0  0  0  0  0
  144.7150   73.5440  217.0143 H   0  0  0  0  0  0  0  0  0  0  0  0
  144.6975   74.9356  218.1596 H   0  0  0  0  0  0  0  0  0  0  0  0
  145.9160   73.3220  218.7270 N   0  0  0  0  0  0  0  0  0  0  0  0
  146.7440   73.7350  218.2370 H   0  0  0  0  0  0  0  0  0  0  0  0
  145.9610   73.7600  220.1270 C   0  0  0  0  0  0  0  0  0  0  0  0
  146.8924   73.4010  220.5892 H   0  0  0  0  0  0  0  0  0  0  0  0
  145.9223   74.8589  220.1583 H   0  0  0  0  0  0  0  0  0  0  0  0
  144.7650   73.1990  220.9010 C   0  0  0  0  0  0  0  0  0  0  0  0
  144.8729   72.1083  220.9941 H   0  0  0  0  0  0  0  0  0  0  0  0
  144.7362   73.6625  221.8982 H   0  0  0  0  0  0  0  0  0  0  0  0
  141.8400   74.9630  221.2210 N   0  0  0  0  0  0  0  0  0  0  0  0
  142.3820   75.7960  220.9070 H   0  0  0  0  0  0  0  0  0  0  0  0
  140.6780   75.1340  221.9110 C   0  0  0  0  0  0  0  0  0  0  0  0
  140.1810   76.4500  222.2110 N   0  0  0  0  0  0  0  0  0  0  0  0
  138.7360   76.7040  222.1200 C   0  0  0  0  0  0  0  0  0  0  0  0
  138.3766   76.3726  221.1346 H   0  0  0  0  0  0  0  0  0  0  0  0
  138.2373   76.1478  222.9274 H   0  0  0  0  0  0  0  0  0  0  0  0
  138.4120   78.1960  222.2930 C   0  0  0  0  0  0  0  0  0  0  0  0
  137.3913   78.3897  221.9316 H   0  0  0  0  0  0  0  0  0  0  0  0
  138.4912   78.4575  223.3585 H   0  0  0  0  0  0  0  0  0  0  0  0
  139.4020   79.0530  221.4950 C   0  0  0  0  0  0  0  0  0  0  0  0
  139.2847   78.8220  220.4259 H   0  0  0  0  0  0  0  0  0  0  0  0
  139.1767   80.1077  221.7115 H   0  0  0  0  0  0  0  0  0  0  0  0
  140.8740   78.7990  221.8970 C   0  0  0  0  0  0  0  0  0  0  0  0
  141.4791   78.7317  220.9808 H   0  0  0  0  0  0  0  0  0  0  0  0
  141.1844   79.6362  222.5395 H   0  0  0  0  0  0  0  0  0  0  0  0
  141.0710   77.5080  222.7070 C   0  0  0  0  0  0  0  0  0  0  0  0
  142.1156   77.1767  222.6120 H   0  0  0  0  0  0  0  0  0  0  0  0
  140.8320   77.7092  223.7617 H   0  0  0  0  0  0  0  0  0  0  0  0
  139.9550   74.0460  222.2840 N   0  0  0  0  0  0  0  0  0  0  0  0
  141.0060   69.5740  226.5300 C   0  0  0  0  0  0  0  0  0  0  0  0
  141.7292   70.3060  226.9187 H   0  0  0  0  0  0  0  0  0  0  0  0
  140.8060   68.3670  227.2010 C   0  0  0  0  0  0  0  0  0  0  0  0
  141.3723   68.1396  228.1162 H   0  0  0  0  0  0  0  0  0  0  0  0
  1  2  1  0
  2  3  2  0
  3  4  1  0
  4  5  1  0
  4  6  2  0
  6  7  1  0
  7  8  1  0
  7  9  1  0
  7 10  1  0
 10 11  1  0
 10 12  1  0
 10 13  1  0
 13 14  1  0
 13 15  2  0
 15 16  1  0
 16 17  2  0
 17 18  1  0
 18 19  1  0
 19 20  1  0
 19 21  1  0
 19 22  1  0
 22 23  1  0
 22 24  1  0
 22 25  1  0
 25 26  1  0
 25 27  1  0
 27 28  1  0
 27 29  1  0
 27 30  1  0
 30 31  1  0
 30 32  1  0
 17 33  1  0
 33 34  1  0
 33 35  1  0
 35 36  1  0
 36 37  1  0
 37 38  1  0
 37 39  1  0
 37 40  1  0
 40 41  1  0
 40 42  1  0
 40 43  1  0
 43 44  1  0
 43 45  1  0
 43 46  1  0
 46 47  1  0
 46 48  1  0
 46 49  1  0
 49 50  1  0
 49 51  1  0
 35 52  2  0
  6 53  1  0
 53 54  1  0
 53 55  2  0
 55 56  1  0
 55  2  1  0
 52 15  1  0
 30 18  1  0
 49 36  1  0
M  CHG  1  13   1
M  END
>  <UniqueID>  (69) 
584

>  <SMILES>  (69) 
c1cncc(CC/[NH+]=c2\nc(N3CCCCC3)[nH]c(N3CCNCC3)n2)c1

>  <Energy>  (69) 
59.183879608312594

>  <Genealogy>  (69) 
c1cncc(CC[NH2+]c2nc(N3CCCCC3)nc(N3CCNCC3)n2)c1 (protonated)
c1cncc(CC[NH+]=c2nc(N3CCCCC3)[nH]c(N3CCNCC3)n2)c1 (tautomer)
c1cncc(CC/[NH+]=c2\nc(N3CCCCC3)[nH]c(N3CCNCC3)n2)c1 (cis-trans isomerization)
c1cncc(CC/[NH+]=c2\nc(N3CCCCC3)[nH]c(N3CCNCC3)n2)c1 (3D coordinates assigned)
c1cncc(CC/[NH+]=c2\nc(N3CCCCC3)[nH]c(N3CCNCC3)n2)c1 (nonaromatic ring conformer: 59.183879608312594 kcal/mol)

>  <smiles>  (69) 
c1cncc(CCNc2nc(N3CCCCC3)nc(N3CCNCC3)n2)c1

>  <score_type>  (69) 
oracle

>  <origin>  (69) 
autodockgpu

>  <m_score__min__energy>  (69) 
-8.5600000000000005

>  <m_primary>  (69) 
energy

>  <meeko>  (69) 
{"free_energy": -8.39, "intermolecular_energy": -10.18, "internal_energy": -0.5, "cluster_size": 18, "cluster_id": 1, "rank_in_cluster": 3}

>  <energy>  (69) 
-8.26

>  <cluster_rmsd>  (69) 
0.88

>  <rmsd>  (69) 
271.86

>  <cluster>  (69) 
1

$$$$
YQRBYBBKMCEKLP-VSQHSNIGNA-O
     RDKit          3D

 56 59  0  0  0  0  0  0  0  0999 V2000
  133.3954   72.3930  226.6527 H   0  0  0  0  0  0  0  0  0  0  0  0
  133.9470   73.1320  226.0530 C   0  0  0  0  0  0  0  0  0  0  0  0
  133.9490   74.4400  226.4220 N   0  0  0  0  0  0  0  0  0  0  0  0
  134.6160   75.3840  225.7060 C   0  0  0  0  0  0  0  0  0  0  0  0
  134.6016   76.4336  226.0349 H   0  0  0  0  0  0  0  0  0  0  0  0
  135.3230   75.0230  224.5480 C   0  0  0  0  0  0  0  0  0  0  0  0
  136.0960   76.0540  223.7690 C   0  0  0  0  0  0  0  0  0  0  0  0
  135.4624   76.9415  223.6243 H   0  0  0  0  0  0  0  0  0  0  0  0
  137.0024   76.3079  224.3382 H   0  0  0  0  0  0  0  0  0  0  0  0
  136.5250   75.5180  222.3950 C   0  0  0  0  0  0  0  0  0  0  0  0
  135.7471   74.8372  222.0191 H   0  0  0  0  0  0  0  0  0  0  0  0
  136.6586   76.3751  221.7186 H   0  0  0  0  0  0  0  0  0  0  0  0
  137.7980   74.7910  222.4700 N   0  0  0  0  0  0  0  0  0  0  0  0
  137.7600   73.7840  222.7510 H   0  0  0  0  0  0  0  0  0  0  0  0
  138.9590   75.3330  222.2250 C   0  0  0  0  0  0  0  0  0  0  0  0
  139.1850   76.6260  222.5670 N   0  0  0  0  0  0  0  0  0  0  0  0
  140.3930   77.2050  222.3430 C   0  0  0  0  0  0  0  0  0  0  0  0
  140.6090   78.5740  222.7390 N   0  0  0  0  0  0  0  0  0  0  0  0
  141.9570   79.0060  223.1340 C   0  0  0  0  0  0  0  0  0  0  0  0
  142.0732   78.8842  224.2210 H   0  0  0  0  0  0  0  0  0  0  0  0
  142.6995   78.3909  222.6045 H   0  0  0  0  0  0  0  0  0  0  0  0
  142.1730   80.4740  222.7650 C   0  0  0  0  0  0  0  0  0  0  0  0
  143.1312   80.8162  223.1831 H   0  0  0  0  0  0  0  0  0  0  0  0
  142.1847   80.5699  221.6692 H   0  0  0  0  0  0  0  0  0  0  0  0
  141.0870   81.2990  223.3050 N   0  0  0  0  0  0  0  0  0  0  0  0
  141.2730   82.2910  223.0270 H   0  0  0  0  0  0  0  0  0  0  0  0
  139.8060   80.9020  222.7090 C   0  0  0  0  0  0  0  0  0  0  0  0
  139.0100   81.5579  223.0913 H   0  0  0  0  0  0  0  0  0  0  0  0
  139.8789   80.9927  221.6152 H   0  0  0  0  0  0  0  0  0  0  0  0
  139.4770   79.4500  223.0650 C   0  0  0  0  0  0  0  0  0  0  0  0
  139.2632   79.3803  224.1418 H   0  0  0  0  0  0  0  0  0  0  0  0
  138.5995   79.1302  222.4839 H   0  0  0  0  0  0  0  0  0  0  0  0
  141.3850   76.4760  221.7530 N   0  0  0  0  0  0  0  0  0  0  0  0
  142.3210   76.9050  221.5890 H   0  0  0  0  0  0  0  0  0  0  0  0
  141.1610   75.1830  221.3870 C   0  0  0  0  0  0  0  0  0  0  0  0
  142.2010   74.3930  220.7830 N   0  0  0  0  0  0  0  0  0  0  0  0
  142.1180   72.9280  220.8600 C   0  0  0  0  0  0  0  0  0  0  0  0
  141.9734   72.6332  221.9098 H   0  0  0  0  0  0  0  0  0  0  0  0
  141.2718   72.5979  220.2395 H   0  0  0  0  0  0  0  0  0  0  0  0
  143.3950   72.2610  220.3260 C   0  0  0  0  0  0  0  0  0  0  0  0
  143.4259   71.2145  220.6634 H   0  0  0  0  0  0  0  0  0  0  0  0
  143.3873   72.3030  219.2268 H   0  0  0  0  0  0  0  0  0  0  0  0
  144.6370   72.9960  220.8440 C   0  0  0  0  0  0  0  0  0  0  0  0
  144.6648   72.9096  221.9402 H   0  0  0  0  0  0  0  0  0  0  0  0
  145.5167   72.5305  220.3755 H   0  0  0  0  0  0  0  0  0  0  0  0
  144.6470   74.4960  220.4660 C   0  0  0  0  0  0  0  0  0  0  0  0
  144.9611   75.0755  221.3466 H   0  0  0  0  0  0  0  0  0  0  0  0
  145.3421   74.6138  219.6216 H   0  0  0  0  0  0  0  0  0  0  0  0
  143.2780   75.0170  220.0030 C   0  0  0  0  0  0  0  0  0  0  0  0
  143.2400   76.1077  220.1408 H   0  0  0  0  0  0  0  0  0  0  0  0
  143.1412   74.7647  218.9411 H   0  0  0  0  0  0  0  0  0  0  0  0
  139.9530   74.6170  221.6380 N   0  0  0  0  0  0  0  0  0  0  0  0
  135.3380   73.6750  224.1620 C   0  0  0  0  0  0  0  0  0  0  0  0
  135.8968   73.3658  223.2664 H   0  0  0  0  0  0  0  0  0  0  0  0
  134.6440   72.7250  224.9140 C   0  0  0  0  0  0  0  0  0  0  0  0
  134.6465   71.6672  224.6122 H   0  0  0  0  0  0  0  0  0  0  0  0
  1  2  1  0
  2  3  2  0
  3  4  1  0
  4  5  1  0
  4  6  2  0
  6  7  1  0
  7  8  1  0
  7  9  1  0
  7 10  1  0
 10 11  1  0
 10 12  1  0
 10 13  1  0
 13 14  1  0
 13 15  2  0
 15 16  1  0
 16 17  2  0
 17 18  1  0
 18 19  1  0
 19 20  1  0
 19 21  1  0
 19 22  1  0
 22 23  1  0
 22 24  1  0
 22 25  1  0
 25 26  1  0
 25 27  1  0
 27 28  1  0
 27 29  1  0
 27 30  1  0
 30 31  1  0
 30 32  1  0
 17 33  1  0
 33 34  1  0
 33 35  1  0
 35 36  1  0
 36 37  1  0
 37 38  1  0
 37 39  1  0
 37 40  1  0
 40 41  1  0
 40 42  1  0
 40 43  1  0
 43 44  1  0
 43 45  1  0
 43 46  1  0
 46 47  1  0
 46 48  1  0
 46 49  1  0
 49 50  1  0
 49 51  1  0
 35 52  2  0
  6 53  1  0
 53 54  1  0
 53 55  2  0
 55 56  1  0
 55  2  1  0
 52 15  1  0
 30 18  1  0
 49 36  1  0
M  CHG  1  13   1
M  END
>  <UniqueID>  (70) 
584

>  <SMILES>  (70) 
c1cncc(CC/[NH+]=c2\nc(N3CCCCC3)[nH]c(N3CCNCC3)n2)c1

>  <Energy>  (70) 
59.183879608312594

>  <Genealogy>  (70) 
c1cncc(CC[NH2+]c2nc(N3CCCCC3)nc(N3CCNCC3)n2)c1 (protonated)
c1cncc(CC[NH+]=c2nc(N3CCCCC3)[nH]c(N3CCNCC3)n2)c1 (tautomer)
c1cncc(CC/[NH+]=c2\nc(N3CCCCC3)[nH]c(N3CCNCC3)n2)c1 (cis-trans isomerization)
c1cncc(CC/[NH+]=c2\nc(N3CCCCC3)[nH]c(N3CCNCC3)n2)c1 (3D coordinates assigned)
c1cncc(CC/[NH+]=c2\nc(N3CCCCC3)[nH]c(N3CCNCC3)n2)c1 (nonaromatic ring conformer: 59.183879608312594 kcal/mol)

>  <smiles>  (70) 
c1cncc(CCNc2nc(N3CCCCC3)nc(N3CCNCC3)n2)c1

>  <score_type>  (70) 
oracle

>  <origin>  (70) 
autodockgpu

>  <m_score__min__energy>  (70) 
-8.5600000000000005

>  <m_primary>  (70) 
energy

>  <meeko>  (70) 
{"free_energy": -7.46, "intermolecular_energy": -9.25, "internal_energy": -0.52, "cluster_size": 1, "cluster_id": 2, "rank_in_cluster": 1}

>  <energy>  (70) 
-8.22

>  <cluster_rmsd>  (70) 
1.11

>  <rmsd>  (70) 
271.87

>  <cluster>  (70) 
1

$$$$
YQRBYBBKMCEKLP-VSQHSNIGNA-O
     RDKit          3D

 56 59  0  0  0  0  0  0  0  0999 V2000
  140.1372   69.8103  228.9954 H   0  0  0  0  0  0  0  0  0  0  0  0
  140.2600   70.2100  227.9780 C   0  0  0  0  0  0  0  0  0  0  0  0
  139.6860   69.5720  226.9230 N   0  0  0  0  0  0  0  0  0  0  0  0
  139.8160   70.0330  225.6510 C   0  0  0  0  0  0  0  0  0  0  0  0
  139.3339   69.4959  224.8209 H   0  0  0  0  0  0  0  0  0  0  0  0
  140.5640   71.1930  225.3940 C   0  0  0  0  0  0  0  0  0  0  0  0
  140.6840   71.7330  223.9930 C   0  0  0  0  0  0  0  0  0  0  0  0
  140.9829   72.7905  224.0419 H   0  0  0  0  0  0  0  0  0  0  0  0
  141.4376   71.1374  223.4570 H   0  0  0  0  0  0  0  0  0  0  0  0
  139.3540   71.6250  223.2320 C   0  0  0  0  0  0  0  0  0  0  0  0
  139.3206   70.6585  222.7078 H   0  0  0  0  0  0  0  0  0  0  0  0
  138.5341   71.7065  223.9608 H   0  0  0  0  0  0  0  0  0  0  0  0
  139.2020   72.7050  222.2490 N   0  0  0  0  0  0  0  0  0  0  0  0
  138.2600   72.8260  221.8110 H   0  0  0  0  0  0  0  0  0  0  0  0
  140.1720   73.4980  221.8870 C   0  0  0  0  0  0  0  0  0  0  0  0
  141.3270   72.9750  221.4060 N   0  0  0  0  0  0  0  0  0  0  0  0
  142.3420   73.7820  221.0010 C   0  0  0  0  0  0  0  0  0  0  0  0
  143.5490   73.1960  220.4730 N   0  0  0  0  0  0  0  0  0  0  0  0
  144.8180   73.9260  220.5940 C   0  0  0  0  0  0  0  0  0  0  0  0
  144.9664   74.5468  219.6981 H   0  0  0  0  0  0  0  0  0  0  0  0
  144.7811   74.5617  221.4909 H   0  0  0  0  0  0  0  0  0  0  0  0
  145.9840   72.9450  220.7270 C   0  0  0  0  0  0  0  0  0  0  0  0
  146.9326   73.5002  220.6839 H   0  0  0  0  0  0  0  0  0  0  0  0
  145.9011   72.4172  221.6886 H   0  0  0  0  0  0  0  0  0  0  0  0
  145.9470   71.9630  219.6370 N   0  0  0  0  0  0  0  0  0  0  0  0
  146.7580   71.3130  219.7690 H   0  0  0  0  0  0  0  0  0  0  0  0
  144.7190   71.1650  219.7160 C   0  0  0  0  0  0  0  0  0  0  0  0
  144.7286   70.4053  218.9205 H   0  0  0  0  0  0  0  0  0  0  0  0
  144.6719   70.6793  220.7019 H   0  0  0  0  0  0  0  0  0  0  0  0
  143.4890   72.0600  219.5440 C   0  0  0  0  0  0  0  0  0  0  0  0
  143.4569   72.4375  218.5113 H   0  0  0  0  0  0  0  0  0  0  0  0
  142.5856   71.4704  219.7589 H   0  0  0  0  0  0  0  0  0  0  0  0
  142.1990   75.1360  221.0940 N   0  0  0  0  0  0  0  0  0  0  0  0
  142.9640   75.7660  220.7730 H   0  0  0  0  0  0  0  0  0  0  0  0
  141.0490   75.6710  221.5950 C   0  0  0  0  0  0  0  0  0  0  0  0
  140.8720   77.0960  221.6820 N   0  0  0  0  0  0  0  0  0  0  0  0
  141.5560   77.9590  220.7090 C   0  0  0  0  0  0  0  0  0  0  0  0
  142.6262   77.7051  220.6968 H   0  0  0  0  0  0  0  0  0  0  0  0
  141.1017   77.7918  219.7212 H   0  0  0  0  0  0  0  0  0  0  0  0
  141.4000   79.4460  221.0650 C   0  0  0  0  0  0  0  0  0  0  0  0
  142.1475   80.0322  220.5104 H   0  0  0  0  0  0  0  0  0  0  0  0
  140.3860   79.7743  220.7931 H   0  0  0  0  0  0  0  0  0  0  0  0
  141.6060   79.6580  222.5700 C   0  0  0  0  0  0  0  0  0  0  0  0
  142.6368   79.3729  222.8272 H   0  0  0  0  0  0  0  0  0  0  0  0
  141.4104   80.7189  222.7849 H   0  0  0  0  0  0  0  0  0  0  0  0
  140.6320   78.8210  223.4320 C   0  0  0  0  0  0  0  0  0  0  0  0
  141.1975   78.3748  224.2634 H   0  0  0  0  0  0  0  0  0  0  0  0
  139.8429   79.5017  223.7840 H   0  0  0  0  0  0  0  0  0  0  0  0
  139.9420   77.6920  222.6510 C   0  0  0  0  0  0  0  0  0  0  0  0
  139.6066   76.9166  223.3554 H   0  0  0  0  0  0  0  0  0  0  0  0
  139.0805   78.1086  222.1086 H   0  0  0  0  0  0  0  0  0  0  0  0
  140.0400   74.8470  221.9770 N   0  0  0  0  0  0  0  0  0  0  0  0
  141.1530   71.8660  226.4730 C   0  0  0  0  0  0  0  0  0  0  0  0
  141.7325   72.7844  226.2976 H   0  0  0  0  0  0  0  0  0  0  0  0
  141.0050   71.3720  227.7700 C   0  0  0  0  0  0  0  0  0  0  0  0
  141.4707   71.8930  228.6195 H   0  0  0  0  0  0  0  0  0  0  0  0
  1  2  1  0
  2  3  2  0
  3  4  1  0
  4  5  1  0
  4  6  2  0
  6  7  1  0
  7  8  1  0
  7  9  1  0
  7 10  1  0
 10 11  1  0
 10 12  1  0
 10 13  1  0
 13 14  1  0
 13 15  2  0
 15 16  1  0
 16 17  2  0
 17 18  1  0
 18 19  1  0
 19 20  1  0
 19 21  1  0
 19 22  1  0
 22 23  1  0
 22 24  1  0
 22 25  1  0
 25 26  1  0
 25 27  1  0
 27 28  1  0
 27 29  1  0
 27 30  1  0
 30 31  1  0
 30 32  1  0
 17 33  1  0
 33 34  1  0
 33 35  1  0
 35 36  1  0
 36 37  1  0
 37 38  1  0
 37 39  1  0
 37 40  1  0
 40 41  1  0
 40 42  1  0
 40 43  1  0
 43 44  1  0
 43 45  1  0
 43 46  1  0
 46 47  1  0
 46 48  1  0
 46 49  1  0
 49 50  1  0
 49 51  1  0
 35 52  2  0
  6 53  1  0
 53 54  1  0
 53 55  2  0
 55 56  1  0
 55  2  1  0
 52 15  1  0
 30 18  1  0
 49 36  1  0
M  CHG  1  13   1
M  END
>  <UniqueID>  (71) 
584

>  <SMILES>  (71) 
c1cncc(CC/[NH+]=c2\nc(N3CCCCC3)[nH]c(N3CCNCC3)n2)c1

>  <Energy>  (71) 
59.183879608312594

>  <Genealogy>  (71) 
c1cncc(CC[NH2+]c2nc(N3CCCCC3)nc(N3CCNCC3)n2)c1 (protonated)
c1cncc(CC[NH+]=c2nc(N3CCCCC3)[nH]c(N3CCNCC3)n2)c1 (tautomer)
c1cncc(CC/[NH+]=c2\nc(N3CCCCC3)[nH]c(N3CCNCC3)n2)c1 (cis-trans isomerization)
c1cncc(CC/[NH+]=c2\nc(N3CCCCC3)[nH]c(N3CCNCC3)n2)c1 (3D coordinates assigned)
c1cncc(CC/[NH+]=c2\nc(N3CCCCC3)[nH]c(N3CCNCC3)n2)c1 (nonaromatic ring conformer: 59.183879608312594 kcal/mol)

>  <smiles>  (71) 
c1cncc(CCNc2nc(N3CCCCC3)nc(N3CCNCC3)n2)c1

>  <score_type>  (71) 
oracle

>  <origin>  (71) 
autodockgpu

>  <m_score__min__energy>  (71) 
-8.5600000000000005

>  <m_primary>  (71) 
energy

>  <meeko>  (71) 
{"free_energy": -8.26, "intermolecular_energy": -10.05, "internal_energy": -0.52, "cluster_size": 18, "cluster_id": 1, "rank_in_cluster": 9}

>  <energy>  (71) 
-8.17

>  <cluster_rmsd>  (71) 
1.0

>  <rmsd>  (71) 
271.65

>  <cluster>  (71) 
1

$$$$
YQRBYBBKMCEKLP-VSQHSNIGNA-O
     RDKit          3D

 56 59  0  0  0  0  0  0  0  0999 V2000
  141.1098   71.8821  229.3554 H   0  0  0  0  0  0  0  0  0  0  0  0
  140.8880   71.5610  228.3270 C   0  0  0  0  0  0  0  0  0  0  0  0
  140.1230   70.4580  228.1090 N   0  0  0  0  0  0  0  0  0  0  0  0
  139.8290   70.0280  226.8540 C   0  0  0  0  0  0  0  0  0  0  0  0
  139.2027   69.1348  226.7131 H   0  0  0  0  0  0  0  0  0  0  0  0
  140.3220   70.7200  225.7370 C   0  0  0  0  0  0  0  0  0  0  0  0
  139.9710   70.2730  224.3420 C   0  0  0  0  0  0  0  0  0  0  0  0
  140.8994   70.0773  223.7854 H   0  0  0  0  0  0  0  0  0  0  0  0
  139.3586   69.3622  224.4158 H   0  0  0  0  0  0  0  0  0  0  0  0
  139.1580   71.3400  223.5960 C   0  0  0  0  0  0  0  0  0  0  0  0
  138.1196   70.9913  223.4958 H   0  0  0  0  0  0  0  0  0  0  0  0
  139.2064   72.2743  224.1746 H   0  0  0  0  0  0  0  0  0  0  0  0
  139.7030   71.6020  222.2580 N   0  0  0  0  0  0  0  0  0  0  0  0
  139.5320   70.8800  221.5210 H   0  0  0  0  0  0  0  0  0  0  0  0
  140.3940   72.6640  221.9510 C   0  0  0  0  0  0  0  0  0  0  0  0
  141.5730   72.5330  221.2910 N   0  0  0  0  0  0  0  0  0  0  0  0
  142.2990   73.6260  220.9410 C   0  0  0  0  0  0  0  0  0  0  0  0
  143.5360   73.4560  220.2190 N   0  0  0  0  0  0  0  0  0  0  0  0
  143.4990   73.2320  218.7680 C   0  0  0  0  0  0  0  0  0  0  0  0
  143.4674   72.1507  218.5684 H   0  0  0  0  0  0  0  0  0  0  0  0
  142.6034   73.7179  218.3535 H   0  0  0  0  0  0  0  0  0  0  0  0
  144.7410   73.8310  218.1070 C   0  0  0  0  0  0  0  0  0  0  0  0
  144.7629   73.5416  217.0460 H   0  0  0  0  0  0  0  0  0  0  0  0
  144.7019   74.9266  218.1974 H   0  0  0  0  0  0  0  0  0  0  0  0
  145.9550   73.3400  218.7680 N   0  0  0  0  0  0  0  0  0  0  0  0
  146.7770   73.7750  218.2870 H   0  0  0  0  0  0  0  0  0  0  0  0
  145.9780   73.7720  220.1700 C   0  0  0  0  0  0  0  0  0  0  0  0
  146.9138   73.4328  220.6381 H   0  0  0  0  0  0  0  0  0  0  0  0
  145.9127   74.8695  220.2056 H   0  0  0  0  0  0  0  0  0  0  0  0
  144.7900   73.1800  220.9320 C   0  0  0  0  0  0  0  0  0  0  0  0
  144.9234   72.0919  221.0228 H   0  0  0  0  0  0  0  0  0  0  0  0
  144.7415   73.6393  221.9303 H   0  0  0  0  0  0  0  0  0  0  0  0
  141.8410   74.8690  221.2710 N   0  0  0  0  0  0  0  0  0  0  0  0
  142.3820   75.7160  220.9940 H   0  0  0  0  0  0  0  0  0  0  0  0
  140.6690   75.0090  221.9510 C   0  0  0  0  0  0  0  0  0  0  0  0
  140.1610   76.3110  222.2910 N   0  0  0  0  0  0  0  0  0  0  0  0
  138.7060   76.5200  222.3290 C   0  0  0  0  0  0  0  0  0  0  0  0
  138.2707   76.1727  221.3804 H   0  0  0  0  0  0  0  0  0  0  0  0
  138.2992   75.9527  223.1791 H   0  0  0  0  0  0  0  0  0  0  0  0
  138.3520   78.0020  222.5270 C   0  0  0  0  0  0  0  0  0  0  0  0
  137.2974   78.1623  222.2584 H   0  0  0  0  0  0  0  0  0  0  0  0
  138.5175   78.2720  223.5804 H   0  0  0  0  0  0  0  0  0  0  0  0
  139.2400   78.8840  221.6400 C   0  0  0  0  0  0  0  0  0  0  0  0
  139.0344   78.6425  220.5867 H   0  0  0  0  0  0  0  0  0  0  0  0
  139.0024   79.9325  221.8730 H   0  0  0  0  0  0  0  0  0  0  0  0
  140.7490   78.6790  221.9080 C   0  0  0  0  0  0  0  0  0  0  0  0
  141.2710   78.6252  220.9413 H   0  0  0  0  0  0  0  0  0  0  0  0
  141.0899   79.5294  222.5168 H   0  0  0  0  0  0  0  0  0  0  0  0
  141.0580   77.3990  222.7010 C   0  0  0  0  0  0  0  0  0  0  0  0
  142.0997   77.0995  222.5134 H   0  0  0  0  0  0  0  0  0  0  0  0
  140.9081   77.5992  223.7722 H   0  0  0  0  0  0  0  0  0  0  0  0
  139.9480   73.9050  222.2760 N   0  0  0  0  0  0  0  0  0  0  0  0
  141.1040   71.8650  225.9460 C   0  0  0  0  0  0  0  0  0  0  0  0
  141.4905   72.4315  225.0859 H   0  0  0  0  0  0  0  0  0  0  0  0
  141.3920   72.2860  227.2450 C   0  0  0  0  0  0  0  0  0  0  0  0
  142.0099   73.1801  227.4150 H   0  0  0  0  0  0  0  0  0  0  0  0
  1  2  1  0
  2  3  2  0
  3  4  1  0
  4  5  1  0
  4  6  2  0
  6  7  1  0
  7  8  1  0
  7  9  1  0
  7 10  1  0
 10 11  1  0
 10 12  1  0
 10 13  1  0
 13 14  1  0
 13 15  2  0
 15 16  1  0
 16 17  2  0
 17 18  1  0
 18 19  1  0
 19 20  1  0
 19 21  1  0
 19 22  1  0
 22 23  1  0
 22 24  1  0
 22 25  1  0
 25 26  1  0
 25 27  1  0
 27 28  1  0
 27 29  1  0
 27 30  1  0
 30 31  1  0
 30 32  1  0
 17 33  1  0
 33 34  1  0
 33 35  1  0
 35 36  1  0
 36 37  1  0
 37 38  1  0
 37 39  1  0
 37 40  1  0
 40 41  1  0
 40 42  1  0
 40 43  1  0
 43 44  1  0
 43 45  1  0
 43 46  1  0
 46 47  1  0
 46 48  1  0
 46 49  1  0
 49 50  1  0
 49 51  1  0
 35 52  2  0
  6 53  1  0
 53 54  1  0
 53 55  2  0
 55 56  1  0
 55  2  1  0
 52 15  1  0
 30 18  1  0
 49 36  1  0
M  CHG  1  13   1
M  END
>  <UniqueID>  (72) 
584

>  <SMILES>  (72) 
c1cncc(CC/[NH+]=c2\nc(N3CCCCC3)[nH]c(N3CCNCC3)n2)c1

>  <Energy>  (72) 
59.183879608312594

>  <Genealogy>  (72) 
c1cncc(CC[NH2+]c2nc(N3CCCCC3)nc(N3CCNCC3)n2)c1 (protonated)
c1cncc(CC[NH+]=c2nc(N3CCCCC3)[nH]c(N3CCNCC3)n2)c1 (tautomer)
c1cncc(CC/[NH+]=c2\nc(N3CCCCC3)[nH]c(N3CCNCC3)n2)c1 (cis-trans isomerization)
c1cncc(CC/[NH+]=c2\nc(N3CCCCC3)[nH]c(N3CCNCC3)n2)c1 (3D coordinates assigned)
c1cncc(CC/[NH+]=c2\nc(N3CCCCC3)[nH]c(N3CCNCC3)n2)c1 (nonaromatic ring conformer: 59.183879608312594 kcal/mol)

>  <smiles>  (72) 
c1cncc(CCNc2nc(N3CCCCC3)nc(N3CCNCC3)n2)c1

>  <score_type>  (72) 
oracle

>  <origin>  (72) 
autodockgpu

>  <m_score__min__energy>  (72) 
-8.5600000000000005

>  <m_primary>  (72) 
energy

>  <meeko>  (72) 
{"free_energy": -8.31, "intermolecular_energy": -10.1, "internal_energy": -0.59, "cluster_size": 18, "cluster_id": 1, "rank_in_cluster": 6}

>  <energy>  (72) 
-8.16

>  <cluster_rmsd>  (72) 
1.53

>  <rmsd>  (72) 
271.78

>  <cluster>  (72) 
1

$$$$
YQRBYBBKMCEKLP-VSQHSNIGNA-O
     RDKit          3D

 56 59  0  0  0  0  0  0  0  0999 V2000
  139.6367   66.6919  227.1815 H   0  0  0  0  0  0  0  0  0  0  0  0
  139.7960   67.6170  226.6080 C   0  0  0  0  0  0  0  0  0  0  0  0
  139.2110   67.7710  225.3900 N   0  0  0  0  0  0  0  0  0  0  0  0
  139.3860   68.8970  224.6500 C   0  0  0  0  0  0  0  0  0  0  0  0
  138.8942   68.9913  223.6706 H   0  0  0  0  0  0  0  0  0  0  0  0
  140.1920   69.9400  225.1310 C   0  0  0  0  0  0  0  0  0  0  0  0
  140.3630   71.2070  224.3350 C   0  0  0  0  0  0  0  0  0  0  0  0
  140.1097   72.0666  224.9729 H   0  0  0  0  0  0  0  0  0  0  0  0
  141.4084   71.2637  223.9976 H   0  0  0  0  0  0  0  0  0  0  0  0
  139.4560   71.2210  223.0960 C   0  0  0  0  0  0  0  0  0  0  0  0
  139.9937   70.7581  222.2554 H   0  0  0  0  0  0  0  0  0  0  0  0
  138.5403   70.6603  223.3351 H   0  0  0  0  0  0  0  0  0  0  0  0
  139.0710   72.5870  222.7200 N   0  0  0  0  0  0  0  0  0  0  0  0
  138.0610   72.8430  222.8080 H   0  0  0  0  0  0  0  0  0  0  0  0
  139.9100   73.4790  222.2710 C   0  0  0  0  0  0  0  0  0  0  0  0
  139.6400   74.7990  222.4320 N   0  0  0  0  0  0  0  0  0  0  0  0
  140.5090   75.7460  221.9930 C   0  0  0  0  0  0  0  0  0  0  0  0
  140.2050   77.1400  222.2000 N   0  0  0  0  0  0  0  0  0  0  0  0
  138.8110   77.5950  222.1120 C   0  0  0  0  0  0  0  0  0  0  0  0
  138.5960   77.9081  221.0796 H   0  0  0  0  0  0  0  0  0  0  0  0
  138.1459   76.7680  222.4014 H   0  0  0  0  0  0  0  0  0  0  0  0
  138.5770   78.7750  223.0560 C   0  0  0  0  0  0  0  0  0  0  0  0
  137.5714   79.1854  222.8819 H   0  0  0  0  0  0  0  0  0  0  0  0
  138.6660   78.4256  224.0952 H   0  0  0  0  0  0  0  0  0  0  0  0
  139.5750   79.8220  222.8170 N   0  0  0  0  0  0  0  0  0  0  0  0
  139.3800   80.6060  223.4840 H   0  0  0  0  0  0  0  0  0  0  0  0
  140.9210   79.3150  223.1080 C   0  0  0  0  0  0  0  0  0  0  0  0
  141.6518   80.1249  222.9662 H   0  0  0  0  0  0  0  0  0  0  0  0
  140.9502   78.9570  224.1477 H   0  0  0  0  0  0  0  0  0  0  0  0
  141.2680   78.1530  222.1730 C   0  0  0  0  0  0  0  0  0  0  0  0
  141.3798   78.5340  221.1472 H   0  0  0  0  0  0  0  0  0  0  0  0
  142.2087   77.6926  222.5095 H   0  0  0  0  0  0  0  0  0  0  0  0
  141.6610   75.3610  221.3700 N   0  0  0  0  0  0  0  0  0  0  0  0
  142.3430   76.0780  221.0430 H   0  0  0  0  0  0  0  0  0  0  0  0
  141.9310   74.0380  221.1860 C   0  0  0  0  0  0  0  0  0  0  0  0
  143.1490   73.6130  220.5490 N   0  0  0  0  0  0  0  0  0  0  0  0
  143.3340   72.1860  220.2470 C   0  0  0  0  0  0  0  0  0  0  0  0
  143.1538   71.6013  221.1611 H   0  0  0  0  0  0  0  0  0  0  0  0
  142.6229   71.9066  219.4556 H   0  0  0  0  0  0  0  0  0  0  0  0
  144.7550   71.8950  219.7410 C   0  0  0  0  0  0  0  0  0  0  0  0
  144.9498   70.8145  219.8085 H   0  0  0  0  0  0  0  0  0  0  0  0
  144.8375   72.2289  218.6961 H   0  0  0  0  0  0  0  0  0  0  0  0
  145.7880   72.6490  220.5880 C   0  0  0  0  0  0  0  0  0  0  0  0
  145.7340   72.2768  221.6217 H   0  0  0  0  0  0  0  0  0  0  0  0
  146.7771   72.4700  220.1412 H   0  0  0  0  0  0  0  0  0  0  0  0
  145.5520   74.1770  220.6000 C   0  0  0  0  0  0  0  0  0  0  0  0
  145.6728   74.5403  221.6312 H   0  0  0  0  0  0  0  0  0  0  0  0
  146.2854   74.6242  219.9129 H   0  0  0  0  0  0  0  0  0  0  0  0
  144.1570   74.5830  220.1010 C   0  0  0  0  0  0  0  0  0  0  0  0
  143.9051   75.5770  220.4990 H   0  0  0  0  0  0  0  0  0  0  0  0
  144.1649   74.6063  219.0013 H   0  0  0  0  0  0  0  0  0  0  0  0
  141.0590   73.1060  221.6490 N   0  0  0  0  0  0  0  0  0  0  0  0
  140.7940   69.8000  226.3900 C   0  0  0  0  0  0  0  0  0  0  0  0
  141.4198   70.6097  226.7936 H   0  0  0  0  0  0  0  0  0  0  0  0
  140.5990   68.6330  227.1310 C   0  0  0  0  0  0  0  0  0  0  0  0
  141.0729   68.5149  228.1166 H   0  0  0  0  0  0  0  0  0  0  0  0
  1  2  1  0
  2  3  2  0
  3  4  1  0
  4  5  1  0
  4  6  2  0
  6  7  1  0
  7  8  1  0
  7  9  1  0
  7 10  1  0
 10 11  1  0
 10 12  1  0
 10 13  1  0
 13 14  1  0
 13 15  2  0
 15 16  1  0
 16 17  2  0
 17 18  1  0
 18 19  1  0
 19 20  1  0
 19 21  1  0
 19 22  1  0
 22 23  1  0
 22 24  1  0
 22 25  1  0
 25 26  1  0
 25 27  1  0
 27 28  1  0
 27 29  1  0
 27 30  1  0
 30 31  1  0
 30 32  1  0
 17 33  1  0
 33 34  1  0
 33 35  1  0
 35 36  1  0
 36 37  1  0
 37 38  1  0
 37 39  1  0
 37 40  1  0
 40 41  1  0
 40 42  1  0
 40 43  1  0
 43 44  1  0
 43 45  1  0
 43 46  1  0
 46 47  1  0
 46 48  1  0
 46 49  1  0
 49 50  1  0
 49 51  1  0
 35 52  2  0
  6 53  1  0
 53 54  1  0
 53 55  2  0
 55 56  1  0
 55  2  1  0
 52 15  1  0
 30 18  1  0
 49 36  1  0
M  CHG  1  13   1
M  END
>  <UniqueID>  (73) 
584

>  <SMILES>  (73) 
c1cncc(CC/[NH+]=c2\nc(N3CCCCC3)[nH]c(N3CCNCC3)n2)c1

>  <Energy>  (73) 
59.183879608312594

>  <Genealogy>  (73) 
c1cncc(CC[NH2+]c2nc(N3CCCCC3)nc(N3CCNCC3)n2)c1 (protonated)
c1cncc(CC[NH+]=c2nc(N3CCCCC3)[nH]c(N3CCNCC3)n2)c1 (tautomer)
c1cncc(CC/[NH+]=c2\nc(N3CCCCC3)[nH]c(N3CCNCC3)n2)c1 (cis-trans isomerization)
c1cncc(CC/[NH+]=c2\nc(N3CCCCC3)[nH]c(N3CCNCC3)n2)c1 (3D coordinates assigned)
c1cncc(CC/[NH+]=c2\nc(N3CCCCC3)[nH]c(N3CCNCC3)n2)c1 (nonaromatic ring conformer: 59.183879608312594 kcal/mol)

>  <smiles>  (73) 
c1cncc(CCNc2nc(N3CCCCC3)nc(N3CCNCC3)n2)c1

>  <score_type>  (73) 
oracle

>  <origin>  (73) 
autodockgpu

>  <m_score__min__energy>  (73) 
-8.5600000000000005

>  <m_primary>  (73) 
energy

>  <meeko>  (73) 
{"free_energy": -8.33, "intermolecular_energy": -10.12, "internal_energy": -0.51, "cluster_size": 18, "cluster_id": 1, "rank_in_cluster": 5}

>  <energy>  (73) 
-8.15

>  <cluster_rmsd>  (73) 
0.8

>  <rmsd>  (73) 
271.64

>  <cluster>  (73) 
1

$$$$
YQRBYBBKMCEKLP-VSQHSNIGNA-O
     RDKit          3D

 56 59  0  0  0  0  0  0  0  0999 V2000
  141.6924   70.6364  227.8822 H   0  0  0  0  0  0  0  0  0  0  0  0
  141.0560   70.6420  226.9850 C   0  0  0  0  0  0  0  0  0  0  0  0
  141.3160   71.5120  225.9730 N   0  0  0  0  0  0  0  0  0  0  0  0
  140.5520   71.5510  224.8490 C   0  0  0  0  0  0  0  0  0  0  0  0
  140.7931   72.2635  224.0464 H   0  0  0  0  0  0  0  0  0  0  0  0
  139.4570   70.6850  224.7100 C   0  0  0  0  0  0  0  0  0  0  0  0
  138.6260   70.6950  223.4540 C   0  0  0  0  0  0  0  0  0  0  0  0
  138.3855   69.6582  223.1763 H   0  0  0  0  0  0  0  0  0  0  0  0
  137.7094   71.2703  223.6512 H   0  0  0  0  0  0  0  0  0  0  0  0
  139.3730   71.3630  222.2900 C   0  0  0  0  0  0  0  0  0  0  0  0
  140.4307   71.0630  222.3262 H   0  0  0  0  0  0  0  0  0  0  0  0
  138.9032   71.0385  221.3498 H   0  0  0  0  0  0  0  0  0  0  0  0
  139.2910   72.8270  222.3610 N   0  0  0  0  0  0  0  0  0  0  0  0
  138.4160   73.2400  222.7560 H   0  0  0  0  0  0  0  0  0  0  0  0
  140.2330   73.6280  221.9460 C   0  0  0  0  0  0  0  0  0  0  0  0
  141.3750   73.1120  221.4240 N   0  0  0  0  0  0  0  0  0  0  0  0
  142.3600   73.9260  220.9650 C   0  0  0  0  0  0  0  0  0  0  0  0
  143.5510   73.3490  220.3940 N   0  0  0  0  0  0  0  0  0  0  0  0
  144.8200   74.0850  220.4730 C   0  0  0  0  0  0  0  0  0  0  0  0
  144.9344   74.7082  219.5738 H   0  0  0  0  0  0  0  0  0  0  0  0
  144.8104   74.7182  221.3724 H   0  0  0  0  0  0  0  0  0  0  0  0
  145.9950   73.1110  220.5640 C   0  0  0  0  0  0  0  0  0  0  0  0
  146.9384   73.6719  220.4899 H   0  0  0  0  0  0  0  0  0  0  0  0
  145.9477   72.5808  221.5266 H   0  0  0  0  0  0  0  0  0  0  0  0
  145.9270   72.1310  219.4740 N   0  0  0  0  0  0  0  0  0  0  0  0
  146.7450   71.4850  219.5760 H   0  0  0  0  0  0  0  0  0  0  0  0
  144.7060   71.3260  219.5930 C   0  0  0  0  0  0  0  0  0  0  0  0
  144.6923   70.5685  218.7955 H   0  0  0  0  0  0  0  0  0  0  0  0
  144.6955   70.8379  220.5787 H   0  0  0  0  0  0  0  0  0  0  0  0
  143.4660   72.2140  219.4660 C   0  0  0  0  0  0  0  0  0  0  0  0
  143.3957   72.5929  218.4357 H   0  0  0  0  0  0  0  0  0  0  0  0
  142.5744   71.6185  219.7118 H   0  0  0  0  0  0  0  0  0  0  0  0
  142.2020   75.2800  221.0440 N   0  0  0  0  0  0  0  0  0  0  0  0
  142.9450   75.9150  220.6810 H   0  0  0  0  0  0  0  0  0  0  0  0
  141.0680   75.8070  221.5860 C   0  0  0  0  0  0  0  0  0  0  0  0
  140.8750   77.2300  221.6600 N   0  0  0  0  0  0  0  0  0  0  0  0
  141.5270   78.0900  220.6610 C   0  0  0  0  0  0  0  0  0  0  0  0
  142.5998   77.8493  220.6283 H   0  0  0  0  0  0  0  0  0  0  0  0
  141.0533   77.9049  219.6856 H   0  0  0  0  0  0  0  0  0  0  0  0
  141.3600   79.5790  221.0020 C   0  0  0  0  0  0  0  0  0  0  0  0
  142.0879   80.1674  220.4242 H   0  0  0  0  0  0  0  0  0  0  0  0
  140.3363   79.8916  220.7482 H   0  0  0  0  0  0  0  0  0  0  0  0
  141.5960   79.8120  222.5000 C   0  0  0  0  0  0  0  0  0  0  0  0
  142.6354   79.5419  222.7382 H   0  0  0  0  0  0  0  0  0  0  0  0
  141.3926   80.8732  222.7061 H   0  0  0  0  0  0  0  0  0  0  0  0
  140.6510   78.9750  223.3930 C   0  0  0  0  0  0  0  0  0  0  0  0
  141.2392   78.5462  224.2177 H   0  0  0  0  0  0  0  0  0  0  0  0
  139.8613   79.6505  223.7538 H   0  0  0  0  0  0  0  0  0  0  0  0
  139.9590   77.8280  222.6400 C   0  0  0  0  0  0  0  0  0  0  0  0
  139.6470   77.0579  223.3609 H   0  0  0  0  0  0  0  0  0  0  0  0
  139.0823   78.2283  222.1097 H   0  0  0  0  0  0  0  0  0  0  0  0
  140.0870   74.9760  222.0220 N   0  0  0  0  0  0  0  0  0  0  0  0
  139.1820   69.7760  225.7420 C   0  0  0  0  0  0  0  0  0  0  0  0
  138.3361   69.0789  225.6501 H   0  0  0  0  0  0  0  0  0  0  0  0
  139.9820   69.7560  226.8860 C   0  0  0  0  0  0  0  0  0  0  0  0
  139.7681   69.0491  227.7012 H   0  0  0  0  0  0  0  0  0  0  0  0
  1  2  1  0
  2  3  2  0
  3  4  1  0
  4  5  1  0
  4  6  2  0
  6  7  1  0
  7  8  1  0
  7  9  1  0
  7 10  1  0
 10 11  1  0
 10 12  1  0
 10 13  1  0
 13 14  1  0
 13 15  2  0
 15 16  1  0
 16 17  2  0
 17 18  1  0
 18 19  1  0
 19 20  1  0
 19 21  1  0
 19 22  1  0
 22 23  1  0
 22 24  1  0
 22 25  1  0
 25 26  1  0
 25 27  1  0
 27 28  1  0
 27 29  1  0
 27 30  1  0
 30 31  1  0
 30 32  1  0
 17 33  1  0
 33 34  1  0
 33 35  1  0
 35 36  1  0
 36 37  1  0
 37 38  1  0
 37 39  1  0
 37 40  1  0
 40 41  1  0
 40 42  1  0
 40 43  1  0
 43 44  1  0
 43 45  1  0
 43 46  1  0
 46 47  1  0
 46 48  1  0
 46 49  1  0
 49 50  1  0
 49 51  1  0
 35 52  2  0
  6 53  1  0
 53 54  1  0
 53 55  2  0
 55 56  1  0
 55  2  1  0
 52 15  1  0
 30 18  1  0
 49 36  1  0
M  CHG  1  13   1
M  END
>  <UniqueID>  (74) 
584

>  <SMILES>  (74) 
c1cncc(CC/[NH+]=c2\nc(N3CCCCC3)[nH]c(N3CCNCC3)n2)c1

>  <Energy>  (74) 
59.183879608312594

>  <Genealogy>  (74) 
c1cncc(CC[NH2+]c2nc(N3CCCCC3)nc(N3CCNCC3)n2)c1 (protonated)
c1cncc(CC[NH+]=c2nc(N3CCCCC3)[nH]c(N3CCNCC3)n2)c1 (tautomer)
c1cncc(CC/[NH+]=c2\nc(N3CCCCC3)[nH]c(N3CCNCC3)n2)c1 (cis-trans isomerization)
c1cncc(CC/[NH+]=c2\nc(N3CCCCC3)[nH]c(N3CCNCC3)n2)c1 (3D coordinates assigned)
c1cncc(CC/[NH+]=c2\nc(N3CCCCC3)[nH]c(N3CCNCC3)n2)c1 (nonaromatic ring conformer: 59.183879608312594 kcal/mol)

>  <smiles>  (74) 
c1cncc(CCNc2nc(N3CCCCC3)nc(N3CCNCC3)n2)c1

>  <score_type>  (74) 
oracle

>  <origin>  (74) 
autodockgpu

>  <m_score__min__energy>  (74) 
-8.5600000000000005

>  <m_primary>  (74) 
energy

>  <meeko>  (74) 
{"free_energy": -8.17, "intermolecular_energy": -9.96, "internal_energy": -0.57, "cluster_size": 18, "cluster_id": 1, "rank_in_cluster": 11}

>  <energy>  (74) 
-8.07

>  <cluster_rmsd>  (74) 
1.99

>  <rmsd>  (74) 
272.0

>  <cluster>  (74) 
1

$$$$
YQRBYBBKMCEKLP-VSQHSNIGNA-O
     RDKit          3D

 56 59  0  0  0  0  0  0  0  0999 V2000
  139.4457   66.8817  227.2619 H   0  0  0  0  0  0  0  0  0  0  0  0
  139.6950   67.7320  226.6100 C   0  0  0  0  0  0  0  0  0  0  0  0
  139.1950   67.7890  225.3470 N   0  0  0  0  0  0  0  0  0  0  0  0
  139.4820   68.8210  224.5100 C   0  0  0  0  0  0  0  0  0  0  0  0
  139.0573   68.8389  223.4955 H   0  0  0  0  0  0  0  0  0  0  0  0
  140.3190   69.8640  224.9370 C   0  0  0  0  0  0  0  0  0  0  0  0
  140.6140   71.0300  224.0310 C   0  0  0  0  0  0  0  0  0  0  0  0
  141.1675   71.7925  224.5986 H   0  0  0  0  0  0  0  0  0  0  0  0
  141.2098   70.6648  223.1815 H   0  0  0  0  0  0  0  0  0  0  0  0
  139.3240   71.6560  223.4810 C   0  0  0  0  0  0  0  0  0  0  0  0
  138.5290   70.8958  223.4851 H   0  0  0  0  0  0  0  0  0  0  0  0
  139.0568   72.5094  224.1216 H   0  0  0  0  0  0  0  0  0  0  0  0
  139.5020   72.1510  222.1100 N   0  0  0  0  0  0  0  0  0  0  0  0
  138.9660   71.6690  221.3530 H   0  0  0  0  0  0  0  0  0  0  0  0
  140.2970   73.1350  221.7920 C   0  0  0  0  0  0  0  0  0  0  0  0
  139.9400   74.4110  222.0830 N   0  0  0  0  0  0  0  0  0  0  0  0
  140.7620   75.4500  221.7810 C   0  0  0  0  0  0  0  0  0  0  0  0
  140.3650   76.7930  222.1240 N   0  0  0  0  0  0  0  0  0  0  0  0
  138.9510   77.1770  222.0150 C   0  0  0  0  0  0  0  0  0  0  0  0
  138.7638   77.5923  221.0137 H   0  0  0  0  0  0  0  0  0  0  0  0
  138.3249   76.2871  222.1768 H   0  0  0  0  0  0  0  0  0  0  0  0
  138.6040   78.2280  223.0700 C   0  0  0  0  0  0  0  0  0  0  0  0
  137.5841   78.5992  222.8913 H   0  0  0  0  0  0  0  0  0  0  0  0
  138.6674   77.7693  224.0678 H   0  0  0  0  0  0  0  0  0  0  0  0
  139.5470   79.3490  222.9980 N   0  0  0  0  0  0  0  0  0  0  0  0
  139.2750   80.0410  223.7360 H   0  0  0  0  0  0  0  0  0  0  0  0
  140.9060   78.8880  223.2990 C   0  0  0  0  0  0  0  0  0  0  0  0
  141.5918   79.7479  223.2840 H   0  0  0  0  0  0  0  0  0  0  0  0
  140.9105   78.4174  224.2932 H   0  0  0  0  0  0  0  0  0  0  0  0
  141.3640   77.8600  222.2620 C   0  0  0  0  0  0  0  0  0  0  0  0
  141.4976   78.3593  221.2910 H   0  0  0  0  0  0  0  0  0  0  0  0
  142.3151   77.4179  222.5934 H   0  0  0  0  0  0  0  0  0  0  0  0
  141.9550   75.2030  221.1650 N   0  0  0  0  0  0  0  0  0  0  0  0
  142.6000   75.9910  220.9420 H   0  0  0  0  0  0  0  0  0  0  0  0
  142.3120   73.9260  220.8500 C   0  0  0  0  0  0  0  0  0  0  0  0
  143.5740   73.6450  220.2190 N   0  0  0  0  0  0  0  0  0  0  0  0
  143.5870   72.8970  218.9540 C   0  0  0  0  0  0  0  0  0  0  0  0
  143.0064   71.9713  219.0808 H   0  0  0  0  0  0  0  0  0  0  0  0
  143.1457   73.5341  218.1734 H   0  0  0  0  0  0  0  0  0  0  0  0
  145.0160   72.5340  218.5260 C   0  0  0  0  0  0  0  0  0  0  0  0
  144.9760   71.7425  217.7631 H   0  0  0  0  0  0  0  0  0  0  0  0
  145.5043   73.4300  218.1153 H   0  0  0  0  0  0  0  0  0  0  0  0
  145.8230   72.0350  219.7300 C   0  0  0  0  0  0  0  0  0  0  0  0
  145.3576   71.1123  220.1068 H   0  0  0  0  0  0  0  0  0  0  0  0
  146.8543   71.8623  219.3884 H   0  0  0  0  0  0  0  0  0  0  0  0
  145.8810   73.0650  220.8820 C   0  0  0  0  0  0  0  0  0  0  0  0
  145.7133   72.5361  221.8318 H   0  0  0  0  0  0  0  0  0  0  0  0
  146.8712   73.5424  220.8421 H   0  0  0  0  0  0  0  0  0  0  0  0
  144.8330   74.1810  220.7540 C   0  0  0  0  0  0  0  0  0  0  0  0
  144.6476   74.6191  221.7458 H   0  0  0  0  0  0  0  0  0  0  0  0
  145.2138   74.9497  220.0654 H   0  0  0  0  0  0  0  0  0  0  0  0
  141.4860   72.9000  221.1770 N   0  0  0  0  0  0  0  0  0  0  0  0
  140.8340   69.8230  226.2410 C   0  0  0  0  0  0  0  0  0  0  0  0
  141.4819   70.6351  226.6025 H   0  0  0  0  0  0  0  0  0  0  0  0
  140.5240   68.7510  227.0800 C   0  0  0  0  0  0  0  0  0  0  0  0
  140.9295   68.7102  228.1017 H   0  0  0  0  0  0  0  0  0  0  0  0
  1  2  1  0
  2  3  2  0
  3  4  1  0
  4  5  1  0
  4  6  2  0
  6  7  1  0
  7  8  1  0
  7  9  1  0
  7 10  1  0
 10 11  1  0
 10 12  1  0
 10 13  1  0
 13 14  1  0
 13 15  2  0
 15 16  1  0
 16 17  2  0
 17 18  1  0
 18 19  1  0
 19 20  1  0
 19 21  1  0
 19 22  1  0
 22 23  1  0
 22 24  1  0
 22 25  1  0
 25 26  1  0
 25 27  1  0
 27 28  1  0
 27 29  1  0
 27 30  1  0
 30 31  1  0
 30 32  1  0
 17 33  1  0
 33 34  1  0
 33 35  1  0
 35 36  1  0
 36 37  1  0
 37 38  1  0
 37 39  1  0
 37 40  1  0
 40 41  1  0
 40 42  1  0
 40 43  1  0
 43 44  1  0
 43 45  1  0
 43 46  1  0
 46 47  1  0
 46 48  1  0
 46 49  1  0
 49 50  1  0
 49 51  1  0
 35 52  2  0
  6 53  1  0
 53 54  1  0
 53 55  2  0
 55 56  1  0
 55  2  1  0
 52 15  1  0
 30 18  1  0
 49 36  1  0
M  CHG  1  13   1
M  END
>  <UniqueID>  (75) 
584

>  <SMILES>  (75) 
c1cncc(CC/[NH+]=c2\nc(N3CCCCC3)[nH]c(N3CCNCC3)n2)c1

>  <Energy>  (75) 
59.183879608312594

>  <Genealogy>  (75) 
c1cncc(CC[NH2+]c2nc(N3CCCCC3)nc(N3CCNCC3)n2)c1 (protonated)
c1cncc(CC[NH+]=c2nc(N3CCCCC3)[nH]c(N3CCNCC3)n2)c1 (tautomer)
c1cncc(CC/[NH+]=c2\nc(N3CCCCC3)[nH]c(N3CCNCC3)n2)c1 (cis-trans isomerization)
c1cncc(CC/[NH+]=c2\nc(N3CCCCC3)[nH]c(N3CCNCC3)n2)c1 (3D coordinates assigned)
c1cncc(CC/[NH+]=c2\nc(N3CCCCC3)[nH]c(N3CCNCC3)n2)c1 (nonaromatic ring conformer: 59.183879608312594 kcal/mol)

>  <smiles>  (75) 
c1cncc(CCNc2nc(N3CCCCC3)nc(N3CCNCC3)n2)c1

>  <score_type>  (75) 
oracle

>  <origin>  (75) 
autodockgpu

>  <m_score__min__energy>  (75) 
-8.5600000000000005

>  <m_primary>  (75) 
energy

>  <meeko>  (75) 
{"free_energy": -7.61, "intermolecular_energy": -9.4, "internal_energy": -0.49, "cluster_size": 18, "cluster_id": 1, "rank_in_cluster": 18}

>  <energy>  (75) 
-8.0

>  <cluster_rmsd>  (75) 
1.96

>  <rmsd>  (75) 
271.91

>  <cluster>  (75) 
1

$$$$
YQRBYBBKMCEKLP-VSQHSNIGNA-O
     RDKit          3D

 56 59  0  0  0  0  0  0  0  0999 V2000
  139.7680   66.5091  226.9749 H   0  0  0  0  0  0  0  0  0  0  0  0
  139.8890   67.4900  226.4920 C   0  0  0  0  0  0  0  0  0  0  0  0
  139.2030   67.7760  225.3530 N   0  0  0  0  0  0  0  0  0  0  0  0
  139.3270   68.9760  224.7260 C   0  0  0  0  0  0  0  0  0  0  0  0
  138.7533   69.1778  223.8094 H   0  0  0  0  0  0  0  0  0  0  0  0
  140.1850   69.9580  225.2450 C   0  0  0  0  0  0  0  0  0  0  0  0
  140.3010   71.3040  224.5790 C   0  0  0  0  0  0  0  0  0  0  0  0
  139.7814   72.0531  225.1945 H   0  0  0  0  0  0  0  0  0  0  0  0
  141.3688   71.5492  224.4811 H   0  0  0  0  0  0  0  0  0  0  0  0
  139.6790   71.2940  223.1750 C   0  0  0  0  0  0  0  0  0  0  0  0
  140.3780   70.8071  222.4791 H   0  0  0  0  0  0  0  0  0  0  0  0
  138.7268   70.7456  223.2260 H   0  0  0  0  0  0  0  0  0  0  0  0
  139.3990   72.6520  222.6950 N   0  0  0  0  0  0  0  0  0  0  0  0
  138.4100   72.9870  222.7500 H   0  0  0  0  0  0  0  0  0  0  0  0
  140.3050   73.4460  222.1950 C   0  0  0  0  0  0  0  0  0  0  0  0
  141.4230   72.9230  221.6320 N   0  0  0  0  0  0  0  0  0  0  0  0
  142.3690   73.7290  221.0850 C   0  0  0  0  0  0  0  0  0  0  0  0
  143.5350   73.1420  220.4730 N   0  0  0  0  0  0  0  0  0  0  0  0
  144.7970   73.8950  220.4550 C   0  0  0  0  0  0  0  0  0  0  0  0
  144.8549   74.4843  219.5279 H   0  0  0  0  0  0  0  0  0  0  0  0
  144.8278   74.5630  221.3284 H   0  0  0  0  0  0  0  0  0  0  0  0
  145.9870   72.9370  220.5190 C   0  0  0  0  0  0  0  0  0  0  0  0
  146.9179   73.5044  220.3726 H   0  0  0  0  0  0  0  0  0  0  0  0
  145.9970   72.4439  221.5022 H   0  0  0  0  0  0  0  0  0  0  0  0
  145.8740   71.9150  219.4740 N   0  0  0  0  0  0  0  0  0  0  0  0
  146.7040   71.2830  219.5560 H   0  0  0  0  0  0  0  0  0  0  0  0
  144.6720   71.1020  219.6890 C   0  0  0  0  0  0  0  0  0  0  0  0
  144.6258   70.3140  218.9229 H   0  0  0  0  0  0  0  0  0  0  0  0
  144.7204   70.6525  220.6918 H   0  0  0  0  0  0  0  0  0  0  0  0
  143.4150   71.9710  219.5950 C   0  0  0  0  0  0  0  0  0  0  0  0
  143.2848   72.3087  218.5563 H   0  0  0  0  0  0  0  0  0  0  0  0
  142.5455   71.3759  219.9110 H   0  0  0  0  0  0  0  0  0  0  0  0
  142.1960   75.0830  221.1150 N   0  0  0  0  0  0  0  0  0  0  0  0
  142.9080   75.7110  220.6850 H   0  0  0  0  0  0  0  0  0  0  0  0
  141.0860   75.6180  221.6970 C   0  0  0  0  0  0  0  0  0  0  0  0
  140.8760   77.0410  221.7210 N   0  0  0  0  0  0  0  0  0  0  0  0
  141.4870   77.8690  220.6720 C   0  0  0  0  0  0  0  0  0  0  0  0
  142.5615   77.6399  220.6170 H   0  0  0  0  0  0  0  0  0  0  0  0
  140.9872   77.6409  219.7190 H   0  0  0  0  0  0  0  0  0  0  0  0
  141.3110   79.3680  220.9600 C   0  0  0  0  0  0  0  0  0  0  0  0
  142.0149   79.9418  220.3393 H   0  0  0  0  0  0  0  0  0  0  0  0
  140.2767   79.6585  220.7239 H   0  0  0  0  0  0  0  0  0  0  0  0
  141.5860   79.6620  222.4400 C   0  0  0  0  0  0  0  0  0  0  0  0
  142.6354   79.4147  222.6582 H   0  0  0  0  0  0  0  0  0  0  0  0
  141.3734   80.7277  222.6105 H   0  0  0  0  0  0  0  0  0  0  0  0
  140.6790   78.8490  223.3920 C   0  0  0  0  0  0  0  0  0  0  0  0
  141.2968   78.4597  224.2146 H   0  0  0  0  0  0  0  0  0  0  0  0
  139.8913   79.5285  223.7496 H   0  0  0  0  0  0  0  0  0  0  0  0
  139.9800   77.6650  222.7050 C   0  0  0  0  0  0  0  0  0  0  0  0
  139.7000   76.9196  223.4639 H   0  0  0  0  0  0  0  0  0  0  0  0
  139.0822   78.0329  222.1868 H   0  0  0  0  0  0  0  0  0  0  0  0
  140.1420   74.7950  222.2220 N   0  0  0  0  0  0  0  0  0  0  0  0
  140.8910   69.6800  226.4250 C   0  0  0  0  0  0  0  0  0  0  0  0
  141.5584   70.4395  226.8583 H   0  0  0  0  0  0  0  0  0  0  0  0
  140.7470   68.4410  227.0490 C   0  0  0  0  0  0  0  0  0  0  0  0
  141.3035   68.2151  227.9705 H   0  0  0  0  0  0  0  0  0  0  0  0
  1  2  1  0
  2  3  2  0
  3  4  1  0
  4  5  1  0
  4  6  2  0
  6  7  1  0
  7  8  1  0
  7  9  1  0
  7 10  1  0
 10 11  1  0
 10 12  1  0
 10 13  1  0
 13 14  1  0
 13 15  2  0
 15 16  1  0
 16 17  2  0
 17 18  1  0
 18 19  1  0
 19 20  1  0
 19 21  1  0
 19 22  1  0
 22 23  1  0
 22 24  1  0
 22 25  1  0
 25 26  1  0
 25 27  1  0
 27 28  1  0
 27 29  1  0
 27 30  1  0
 30 31  1  0
 30 32  1  0
 17 33  1  0
 33 34  1  0
 33 35  1  0
 35 36  1  0
 36 37  1  0
 37 38  1  0
 37 39  1  0
 37 40  1  0
 40 41  1  0
 40 42  1  0
 40 43  1  0
 43 44  1  0
 43 45  1  0
 43 46  1  0
 46 47  1  0
 46 48  1  0
 46 49  1  0
 49 50  1  0
 49 51  1  0
 35 52  2  0
  6 53  1  0
 53 54  1  0
 53 55  2  0
 55 56  1  0
 55  2  1  0
 52 15  1  0
 30 18  1  0
 49 36  1  0
M  CHG  1  13   1
M  END
>  <UniqueID>  (76) 
584

>  <SMILES>  (76) 
c1cncc(CC/[NH+]=c2\nc(N3CCCCC3)[nH]c(N3CCNCC3)n2)c1

>  <Energy>  (76) 
59.183879608312594

>  <Genealogy>  (76) 
c1cncc(CC[NH2+]c2nc(N3CCCCC3)nc(N3CCNCC3)n2)c1 (protonated)
c1cncc(CC[NH+]=c2nc(N3CCCCC3)[nH]c(N3CCNCC3)n2)c1 (tautomer)
c1cncc(CC/[NH+]=c2\nc(N3CCCCC3)[nH]c(N3CCNCC3)n2)c1 (cis-trans isomerization)
c1cncc(CC/[NH+]=c2\nc(N3CCCCC3)[nH]c(N3CCNCC3)n2)c1 (3D coordinates assigned)
c1cncc(CC/[NH+]=c2\nc(N3CCCCC3)[nH]c(N3CCNCC3)n2)c1 (nonaromatic ring conformer: 59.183879608312594 kcal/mol)

>  <smiles>  (76) 
c1cncc(CCNc2nc(N3CCCCC3)nc(N3CCNCC3)n2)c1

>  <score_type>  (76) 
oracle

>  <origin>  (76) 
autodockgpu

>  <m_score__min__energy>  (76) 
-8.5600000000000005

>  <m_primary>  (76) 
energy

>  <meeko>  (76) 
{"free_energy": -8.56, "intermolecular_energy": -10.35, "internal_energy": -0.47, "cluster_size": 18, "cluster_id": 1, "rank_in_cluster": 1}

>  <energy>  (76) 
-7.92

>  <cluster_rmsd>  (76) 
1.86

>  <rmsd>  (76) 
271.85

>  <cluster>  (76) 
1

$$$$
YQRBYBBKMCEKLP-VSQHSNIGNA-O
     RDKit          3D

 56 59  0  0  0  0  0  0  0  0999 V2000
  140.1899   69.3577  229.1267 H   0  0  0  0  0  0  0  0  0  0  0  0
  140.2720   69.7910  228.1190 C   0  0  0  0  0  0  0  0  0  0  0  0
  140.6540   71.0870  227.9660 N   0  0  0  0  0  0  0  0  0  0  0  0
  140.7650   71.6600  226.7380 C   0  0  0  0  0  0  0  0  0  0  0  0
  141.0812   72.7098  226.6488 H   0  0  0  0  0  0  0  0  0  0  0  0
  140.4770   70.9150  225.5840 C   0  0  0  0  0  0  0  0  0  0  0  0
  140.6320   71.5280  224.2170 C   0  0  0  0  0  0  0  0  0  0  0  0
  140.7173   72.6196  224.3227 H   0  0  0  0  0  0  0  0  0  0  0  0
  141.5352   71.1069  223.7512 H   0  0  0  0  0  0  0  0  0  0  0  0
  139.4320   71.2070  223.3150 C   0  0  0  0  0  0  0  0  0  0  0  0
  139.7018   70.3777  222.6446 H   0  0  0  0  0  0  0  0  0  0  0  0
  138.5829   70.9335  223.9586 H   0  0  0  0  0  0  0  0  0  0  0  0
  139.0370   72.3650  222.5040 N   0  0  0  0  0  0  0  0  0  0  0  0
  138.0360   72.4240  222.2080 H   0  0  0  0  0  0  0  0  0  0  0  0
  139.8620   73.3020  222.1260 C   0  0  0  0  0  0  0  0  0  0  0  0
  139.5430   74.6040  222.3340 N   0  0  0  0  0  0  0  0  0  0  0  0
  140.3970   75.5960  221.9690 C   0  0  0  0  0  0  0  0  0  0  0  0
  140.0410   76.9700  222.2240 N   0  0  0  0  0  0  0  0  0  0  0  0
  138.6630   77.4160  221.9760 C   0  0  0  0  0  0  0  0  0  0  0  0
  138.5846   77.7972  220.9472 H   0  0  0  0  0  0  0  0  0  0  0  0
  137.9807   76.5645  222.1153 H   0  0  0  0  0  0  0  0  0  0  0  0
  138.2800   78.5260  222.9560 C   0  0  0  0  0  0  0  0  0  0  0  0
  137.2994   78.9370  222.6742 H   0  0  0  0  0  0  0  0  0  0  0  0
  138.2339   78.1073  223.9721 H   0  0  0  0  0  0  0  0  0  0  0  0
  139.2810   79.5970  222.9250 N   0  0  0  0  0  0  0  0  0  0  0  0
  138.9820   80.3310  223.6100 H   0  0  0  0  0  0  0  0  0  0  0  0
  140.5840   79.0850  223.3630 C   0  0  0  0  0  0  0  0  0  0  0  0
  141.3116   79.9099  223.3762 H   0  0  0  0  0  0  0  0  0  0  0  0
  140.4785   78.6574  224.3710 H   0  0  0  0  0  0  0  0  0  0  0  0
  141.0770   77.9930  222.4100 C   0  0  0  0  0  0  0  0  0  0  0  0
  141.3198   78.4441  221.4366 H   0  0  0  0  0  0  0  0  0  0  0  0
  141.9717   77.5203  222.8414 H   0  0  0  0  0  0  0  0  0  0  0  0
  141.5820   75.2750  221.3730 N   0  0  0  0  0  0  0  0  0  0  0  0
  142.2520   76.0260  221.1020 H   0  0  0  0  0  0  0  0  0  0  0  0
  141.9010   73.9700  221.1420 C   0  0  0  0  0  0  0  0  0  0  0  0
  143.1540   73.6110  220.5340 N   0  0  0  0  0  0  0  0  0  0  0  0
  143.3810   72.2130  220.1410 C   0  0  0  0  0  0  0  0  0  0  0  0
  143.1722   71.5617  221.0026 H   0  0  0  0  0  0  0  0  0  0  0  0
  142.7115   71.9793  219.3000 H   0  0  0  0  0  0  0  0  0  0  0  0
  144.8280   71.9820  219.6810 C   0  0  0  0  0  0  0  0  0  0  0  0
  145.0406   70.9027  219.6809 H   0  0  0  0  0  0  0  0  0  0  0  0
  144.9503   72.3908  218.6671 H   0  0  0  0  0  0  0  0  0  0  0  0
  145.8070   72.6900  220.6250 C   0  0  0  0  0  0  0  0  0  0  0  0
  145.7143   72.2442  221.6264 H   0  0  0  0  0  0  0  0  0  0  0  0
  146.8183   72.5594  220.2124 H   0  0  0  0  0  0  0  0  0  0  0  0
  145.5410   74.2100  220.7340 C   0  0  0  0  0  0  0  0  0  0  0  0
  145.6083   74.5009  221.7927 H   0  0  0  0  0  0  0  0  0  0  0  0
  146.2957   74.7173  220.1150 H   0  0  0  0  0  0  0  0  0  0  0  0
  144.1620   74.6270  220.2010 C   0  0  0  0  0  0  0  0  0  0  0  0
  143.8731   75.5863  220.6552 H   0  0  0  0  0  0  0  0  0  0  0  0
  144.2184   74.7277  219.1071 H   0  0  0  0  0  0  0  0  0  0  0  0
  141.0430   72.9930  221.5310 N   0  0  0  0  0  0  0  0  0  0  0  0
  140.0910   69.5740  225.7270 C   0  0  0  0  0  0  0  0  0  0  0  0
  139.8726   68.9668  224.8362 H   0  0  0  0  0  0  0  0  0  0  0  0
  139.9840   69.0100  226.9990 C   0  0  0  0  0  0  0  0  0  0  0  0
  139.6758   67.9607  227.1175 H   0  0  0  0  0  0  0  0  0  0  0  0
  1  2  1  0
  2  3  2  0
  3  4  1  0
  4  5  1  0
  4  6  2  0
  6  7  1  0
  7  8  1  0
  7  9  1  0
  7 10  1  0
 10 11  1  0
 10 12  1  0
 10 13  1  0
 13 14  1  0
 13 15  2  0
 15 16  1  0
 16 17  2  0
 17 18  1  0
 18 19  1  0
 19 20  1  0
 19 21  1  0
 19 22  1  0
 22 23  1  0
 22 24  1  0
 22 25  1  0
 25 26  1  0
 25 27  1  0
 27 28  1  0
 27 29  1  0
 27 30  1  0
 30 31  1  0
 30 32  1  0
 17 33  1  0
 33 34  1  0
 33 35  1  0
 35 36  1  0
 36 37  1  0
 37 38  1  0
 37 39  1  0
 37 40  1  0
 40 41  1  0
 40 42  1  0
 40 43  1  0
 43 44  1  0
 43 45  1  0
 43 46  1  0
 46 47  1  0
 46 48  1  0
 46 49  1  0
 49 50  1  0
 49 51  1  0
 35 52  2  0
  6 53  1  0
 53 54  1  0
 53 55  2  0
 55 56  1  0
 55  2  1  0
 52 15  1  0
 30 18  1  0
 49 36  1  0
M  CHG  1  13   1
M  END
>  <UniqueID>  (77) 
584

>  <SMILES>  (77) 
c1cncc(CC/[NH+]=c2\nc(N3CCCCC3)[nH]c(N3CCNCC3)n2)c1

>  <Energy>  (77) 
59.183879608312594

>  <Genealogy>  (77) 
c1cncc(CC[NH2+]c2nc(N3CCCCC3)nc(N3CCNCC3)n2)c1 (protonated)
c1cncc(CC[NH+]=c2nc(N3CCCCC3)[nH]c(N3CCNCC3)n2)c1 (tautomer)
c1cncc(CC/[NH+]=c2\nc(N3CCCCC3)[nH]c(N3CCNCC3)n2)c1 (cis-trans isomerization)
c1cncc(CC/[NH+]=c2\nc(N3CCCCC3)[nH]c(N3CCNCC3)n2)c1 (3D coordinates assigned)
c1cncc(CC/[NH+]=c2\nc(N3CCCCC3)[nH]c(N3CCNCC3)n2)c1 (nonaromatic ring conformer: 59.183879608312594 kcal/mol)

>  <smiles>  (77) 
c1cncc(CCNc2nc(N3CCCCC3)nc(N3CCNCC3)n2)c1

>  <score_type>  (77) 
oracle

>  <origin>  (77) 
autodockgpu

>  <m_score__min__energy>  (77) 
-8.5600000000000005

>  <m_primary>  (77) 
energy

>  <meeko>  (77) 
{"free_energy": -8.0, "intermolecular_energy": -9.79, "internal_energy": -0.55, "cluster_size": 18, "cluster_id": 1, "rank_in_cluster": 15}

>  <energy>  (77) 
-7.91

>  <cluster_rmsd>  (77) 
1.87

>  <rmsd>  (77) 
271.9

>  <cluster>  (77) 
1

$$$$
YQRBYBBKMCEKLP-VSQHSNIGNA-O
     RDKit          3D

 56 59  0  0  0  0  0  0  0  0999 V2000
  140.6885   70.2558  229.3889 H   0  0  0  0  0  0  0  0  0  0  0  0
  140.6890   70.4250  228.3020 C   0  0  0  0  0  0  0  0  0  0  0  0
  141.0200   71.6470  227.8040 N   0  0  0  0  0  0  0  0  0  0  0  0
  141.0280   71.8960  226.4670 C   0  0  0  0  0  0  0  0  0  0  0  0
  141.3041   72.8943  226.0966 H   0  0  0  0  0  0  0  0  0  0  0  0
  140.6850   70.8830  225.5590 C   0  0  0  0  0  0  0  0  0  0  0  0
  140.7270   71.1380  224.0750 C   0  0  0  0  0  0  0  0  0  0  0  0
  141.4633   71.9289  223.8693 H   0  0  0  0  0  0  0  0  0  0  0  0
  141.0071   70.2005  223.5724 H   0  0  0  0  0  0  0  0  0  0  0  0
  139.3580   71.5800  223.5390 C   0  0  0  0  0  0  0  0  0  0  0  0
  138.6946   70.7039  223.4907 H   0  0  0  0  0  0  0  0  0  0  0  0
  138.9543   72.3440  224.2197 H   0  0  0  0  0  0  0  0  0  0  0  0
  139.4630   72.1710  222.2000 N   0  0  0  0  0  0  0  0  0  0  0  0
  138.8690   71.7580  221.4450 H   0  0  0  0  0  0  0  0  0  0  0  0
  140.2610   73.1590  221.9040 C   0  0  0  0  0  0  0  0  0  0  0  0
  141.4280   72.9130  221.2580 N   0  0  0  0  0  0  0  0  0  0  0  0
  142.2640   73.9290  220.9190 C   0  0  0  0  0  0  0  0  0  0  0  0
  143.4870   73.6370  220.2130 N   0  0  0  0  0  0  0  0  0  0  0  0
  143.4390   73.3590  218.7710 C   0  0  0  0  0  0  0  0  0  0  0  0
  143.3266   72.2761  218.6137 H   0  0  0  0  0  0  0  0  0  0  0  0
  142.5843   73.8941  218.3315 H   0  0  0  0  0  0  0  0  0  0  0  0
  144.7250   73.8360  218.0960 C   0  0  0  0  0  0  0  0  0  0  0  0
  144.7291   73.5043  217.0472 H   0  0  0  0  0  0  0  0  0  0  0  0
  144.7686   74.9341  218.1436 H   0  0  0  0  0  0  0  0  0  0  0  0
  145.8960   73.2810  218.7840 N   0  0  0  0  0  0  0  0  0  0  0  0
  146.7500   73.6330  218.2920 H   0  0  0  0  0  0  0  0  0  0  0  0
  145.9460   73.7650  220.1670 C   0  0  0  0  0  0  0  0  0  0  0  0
  146.8518   73.3753  220.6544 H   0  0  0  0  0  0  0  0  0  0  0  0
  145.9633   74.8648  220.1587 H   0  0  0  0  0  0  0  0  0  0  0  0
  144.7140   73.2950  220.9440 C   0  0  0  0  0  0  0  0  0  0  0  0
  144.7642   72.2043  221.0779 H   0  0  0  0  0  0  0  0  0  0  0  0
  144.6973   73.7955  221.9234 H   0  0  0  0  0  0  0  0  0  0  0  0
  141.9280   75.2110  221.2460 N   0  0  0  0  0  0  0  0  0  0  0  0
  142.5540   75.9990  220.9780 H   0  0  0  0  0  0  0  0  0  0  0  0
  140.7660   75.4660  221.9120 C   0  0  0  0  0  0  0  0  0  0  0  0
  140.3860   76.8120  222.2470 N   0  0  0  0  0  0  0  0  0  0  0  0
  139.0540   77.2940  221.8550 C   0  0  0  0  0  0  0  0  0  0  0  0
  138.9102   77.1105  220.7800 H   0  0  0  0  0  0  0  0  0  0  0  0
  138.3037   76.7527  222.4501 H   0  0  0  0  0  0  0  0  0  0  0  0
  138.8920   78.7960  222.1300 C   0  0  0  0  0  0  0  0  0  0  0  0
  138.0263   79.1764  221.5680 H   0  0  0  0  0  0  0  0  0  0  0  0
  138.7375   78.9475  223.2085 H   0  0  0  0  0  0  0  0  0  0  0  0
  140.1510   79.5560  221.6950 C   0  0  0  0  0  0  0  0  0  0  0  0
  140.2734   79.4404  220.6080 H   0  0  0  0  0  0  0  0  0  0  0  0
  140.0171   80.6098  221.9806 H   0  0  0  0  0  0  0  0  0  0  0  0
  141.4320   79.0430  222.3940 C   0  0  0  0  0  0  0  0  0  0  0  0
  142.2315   78.9640  221.6427 H   0  0  0  0  0  0  0  0  0  0  0  0
  141.6786   79.7621  223.1891 H   0  0  0  0  0  0  0  0  0  0  0  0
  141.2540   77.6710  223.0620 C   0  0  0  0  0  0  0  0  0  0  0  0
  142.2378   77.1914  223.1721 H   0  0  0  0  0  0  0  0  0  0  0  0
  140.7893   77.8130  224.0488 H   0  0  0  0  0  0  0  0  0  0  0  0
  139.9360   74.4390  222.2250 N   0  0  0  0  0  0  0  0  0  0  0  0
  140.3520   69.6160  226.0570 C   0  0  0  0  0  0  0  0  0  0  0  0
  140.0923   68.8030  225.3631 H   0  0  0  0  0  0  0  0  0  0  0  0
  140.3500   69.3860  227.4340 C   0  0  0  0  0  0  0  0  0  0  0  0
  140.0838   68.3953  227.8311 H   0  0  0  0  0  0  0  0  0  0  0  0
  1  2  1  0
  2  3  2  0
  3  4  1  0
  4  5  1  0
  4  6  2  0
  6  7  1  0
  7  8  1  0
  7  9  1  0
  7 10  1  0
 10 11  1  0
 10 12  1  0
 10 13  1  0
 13 14  1  0
 13 15  2  0
 15 16  1  0
 16 17  2  0
 17 18  1  0
 18 19  1  0
 19 20  1  0
 19 21  1  0
 19 22  1  0
 22 23  1  0
 22 24  1  0
 22 25  1  0
 25 26  1  0
 25 27  1  0
 27 28  1  0
 27 29  1  0
 27 30  1  0
 30 31  1  0
 30 32  1  0
 17 33  1  0
 33 34  1  0
 33 35  1  0
 35 36  1  0
 36 37  1  0
 37 38  1  0
 37 39  1  0
 37 40  1  0
 40 41  1  0
 40 42  1  0
 40 43  1  0
 43 44  1  0
 43 45  1  0
 43 46  1  0
 46 47  1  0
 46 48  1  0
 46 49  1  0
 49 50  1  0
 49 51  1  0
 35 52  2  0
  6 53  1  0
 53 54  1  0
 53 55  2  0
 55 56  1  0
 55  2  1  0
 52 15  1  0
 30 18  1  0
 49 36  1  0
M  CHG  1  13   1
M  END
>  <UniqueID>  (78) 
584

>  <SMILES>  (78) 
c1cncc(CC/[NH+]=c2\nc(N3CCCCC3)[nH]c(N3CCNCC3)n2)c1

>  <Energy>  (78) 
59.183879608312594

>  <Genealogy>  (78) 
c1cncc(CC[NH2+]c2nc(N3CCCCC3)nc(N3CCNCC3)n2)c1 (protonated)
c1cncc(CC[NH+]=c2nc(N3CCCCC3)[nH]c(N3CCNCC3)n2)c1 (tautomer)
c1cncc(CC/[NH+]=c2\nc(N3CCCCC3)[nH]c(N3CCNCC3)n2)c1 (cis-trans isomerization)
c1cncc(CC/[NH+]=c2\nc(N3CCCCC3)[nH]c(N3CCNCC3)n2)c1 (3D coordinates assigned)
c1cncc(CC/[NH+]=c2\nc(N3CCCCC3)[nH]c(N3CCNCC3)n2)c1 (nonaromatic ring conformer: 59.183879608312594 kcal/mol)

>  <smiles>  (78) 
c1cncc(CCNc2nc(N3CCCCC3)nc(N3CCNCC3)n2)c1

>  <score_type>  (78) 
oracle

>  <origin>  (78) 
autodockgpu

>  <m_score__min__energy>  (78) 
-8.5600000000000005

>  <m_primary>  (78) 
energy

>  <meeko>  (78) 
{"free_energy": -8.16, "intermolecular_energy": -9.95, "internal_energy": -0.54, "cluster_size": 18, "cluster_id": 1, "rank_in_cluster": 12}

>  <energy>  (78) 
-7.61

>  <cluster_rmsd>  (78) 
1.67

>  <rmsd>  (78) 
271.56

>  <cluster>  (78) 
1

$$$$
YQRBYBBKMCEKLP-VSQHSNIGNA-O
     RDKit          3D

 56 59  0  0  0  0  0  0  0  0999 V2000
  141.5633   71.1615  228.6046 H   0  0  0  0  0  0  0  0  0  0  0  0
  141.0710   70.9900  227.6360 C   0  0  0  0  0  0  0  0  0  0  0  0
  140.1750   69.9760  227.4990 N   0  0  0  0  0  0  0  0  0  0  0  0
  139.5490   69.7300  226.3180 C   0  0  0  0  0  0  0  0  0  0  0  0
  138.8261   68.9044  226.2422 H   0  0  0  0  0  0  0  0  0  0  0  0
  139.8220   70.5260  225.1950 C   0  0  0  0  0  0  0  0  0  0  0  0
  139.1060   70.2850  223.8920 C   0  0  0  0  0  0  0  0  0  0  0  0
  139.0821   69.2035  223.6923 H   0  0  0  0  0  0  0  0  0  0  0  0
  138.0872   70.6906  223.9787 H   0  0  0  0  0  0  0  0  0  0  0  0
  139.8070   70.9920  222.7240 C   0  0  0  0  0  0  0  0  0  0  0  0
  140.8955   70.9207  222.8658 H   0  0  0  0  0  0  0  0  0  0  0  0
  139.4979   70.4997  221.7901 H   0  0  0  0  0  0  0  0  0  0  0  0
  139.4300   72.4080  222.6410 N   0  0  0  0  0  0  0  0  0  0  0  0
  138.4730   72.6700  222.9710 H   0  0  0  0  0  0  0  0  0  0  0  0
  140.2100   73.3400  222.1670 C   0  0  0  0  0  0  0  0  0  0  0  0
  139.8880   74.6450  222.3500 N   0  0  0  0  0  0  0  0  0  0  0  0
  140.6960   75.6340  221.8860 C   0  0  0  0  0  0  0  0  0  0  0  0
  140.3380   77.0110  222.1160 N   0  0  0  0  0  0  0  0  0  0  0  0
  138.9240   77.4070  222.0650 C   0  0  0  0  0  0  0  0  0  0  0  0
  138.6719   77.7221  221.0417 H   0  0  0  0  0  0  0  0  0  0  0  0
  138.3010   76.5494  222.3590 H   0  0  0  0  0  0  0  0  0  0  0  0
  138.6630   78.5660  223.0290 C   0  0  0  0  0  0  0  0  0  0  0  0
  137.6371   78.9352  222.8837 H   0  0  0  0  0  0  0  0  0  0  0  0
  138.7916   78.2093  224.0616 H   0  0  0  0  0  0  0  0  0  0  0  0
  139.6100   79.6570  222.7790 N   0  0  0  0  0  0  0  0  0  0  0  0
  139.3970   80.4240  223.4600 H   0  0  0  0  0  0  0  0  0  0  0  0
  140.9820   79.2040  223.0330 C   0  0  0  0  0  0  0  0  0  0  0  0
  141.6746   80.0456  222.8847 H   0  0  0  0  0  0  0  0  0  0  0  0
  141.0498   78.8356  224.0673 H   0  0  0  0  0  0  0  0  0  0  0  0
  141.3560   78.0690  222.0770 C   0  0  0  0  0  0  0  0  0  0  0  0
  141.4275   78.4658  221.0535 H   0  0  0  0  0  0  0  0  0  0  0  0
  142.3230   77.6456  222.3864 H   0  0  0  0  0  0  0  0  0  0  0  0
  141.8380   75.3050  221.2150 N   0  0  0  0  0  0  0  0  0  0  0  0
  142.4740   76.0550  220.8670 H   0  0  0  0  0  0  0  0  0  0  0  0
  142.1600   73.9970  221.0090 C   0  0  0  0  0  0  0  0  0  0  0  0
  143.3700   73.6310  220.3220 N   0  0  0  0  0  0  0  0  0  0  0  0
  143.3880   72.4020  219.5160 C   0  0  0  0  0  0  0  0  0  0  0  0
  143.0288   71.5652  220.1330 H   0  0  0  0  0  0  0  0  0  0  0  0
  142.7369   72.5539  218.6425 H   0  0  0  0  0  0  0  0  0  0  0  0
  144.8010   72.0780  219.0110 C   0  0  0  0  0  0  0  0  0  0  0  0
  144.8356   71.0302  218.6779 H   0  0  0  0  0  0  0  0  0  0  0  0
  145.0434   72.7487  218.1735 H   0  0  0  0  0  0  0  0  0  0  0  0
  145.8290   72.2870  220.1300 C   0  0  0  0  0  0  0  0  0  0  0  0
  145.6105   71.5809  220.9446 H   0  0  0  0  0  0  0  0  0  0  0  0
  146.8269   72.1166  219.6997 H   0  0  0  0  0  0  0  0  0  0  0  0
  145.8070   73.7240  220.7020 C   0  0  0  0  0  0  0  0  0  0  0  0
  145.8632   73.6635  221.7989 H   0  0  0  0  0  0  0  0  0  0  0  0
  146.6661   74.2584  220.2703 H   0  0  0  0  0  0  0  0  0  0  0  0
  144.5450   74.5130  220.3220 C   0  0  0  0  0  0  0  0  0  0  0  0
  144.3905   75.3225  221.0507 H   0  0  0  0  0  0  0  0  0  0  0  0
  144.6765   74.9321  219.3135 H   0  0  0  0  0  0  0  0  0  0  0  0
  141.3490   73.0240  221.4970 N   0  0  0  0  0  0  0  0  0  0  0  0
  140.7350   71.5820  225.3240 C   0  0  0  0  0  0  0  0  0  0  0  0
  140.9542   72.2283  224.4613 H   0  0  0  0  0  0  0  0  0  0  0  0
  141.3660   71.8130  226.5480 C   0  0  0  0  0  0  0  0  0  0  0  0
  142.0886   72.6356  226.6538 H   0  0  0  0  0  0  0  0  0  0  0  0
  1  2  1  0
  2  3  2  0
  3  4  1  0
  4  5  1  0
  4  6  2  0
  6  7  1  0
  7  8  1  0
  7  9  1  0
  7 10  1  0
 10 11  1  0
 10 12  1  0
 10 13  1  0
 13 14  1  0
 13 15  2  0
 15 16  1  0
 16 17  2  0
 17 18  1  0
 18 19  1  0
 19 20  1  0
 19 21  1  0
 19 22  1  0
 22 23  1  0
 22 24  1  0
 22 25  1  0
 25 26  1  0
 25 27  1  0
 27 28  1  0
 27 29  1  0
 27 30  1  0
 30 31  1  0
 30 32  1  0
 17 33  1  0
 33 34  1  0
 33 35  1  0
 35 36  1  0
 36 37  1  0
 37 38  1  0
 37 39  1  0
 37 40  1  0
 40 41  1  0
 40 42  1  0
 40 43  1  0
 43 44  1  0
 43 45  1  0
 43 46  1  0
 46 47  1  0
 46 48  1  0
 46 49  1  0
 49 50  1  0
 49 51  1  0
 35 52  2  0
  6 53  1  0
 53 54  1  0
 53 55  2  0
 55 56  1  0
 55  2  1  0
 52 15  1  0
 30 18  1  0
 49 36  1  0
M  CHG  1  13   1
M  END
>  <UniqueID>  (79) 
584

>  <SMILES>  (79) 
c1cncc(CC/[NH+]=c2\nc(N3CCCCC3)[nH]c(N3CCNCC3)n2)c1

>  <Energy>  (79) 
59.183879608312594

>  <Genealogy>  (79) 
c1cncc(CC[NH2+]c2nc(N3CCCCC3)nc(N3CCNCC3)n2)c1 (protonated)
c1cncc(CC[NH+]=c2nc(N3CCCCC3)[nH]c(N3CCNCC3)n2)c1 (tautomer)
c1cncc(CC/[NH+]=c2\nc(N3CCCCC3)[nH]c(N3CCNCC3)n2)c1 (cis-trans isomerization)
c1cncc(CC/[NH+]=c2\nc(N3CCCCC3)[nH]c(N3CCNCC3)n2)c1 (3D coordinates assigned)
c1cncc(CC/[NH+]=c2\nc(N3CCCCC3)[nH]c(N3CCNCC3)n2)c1 (nonaromatic ring conformer: 59.183879608312594 kcal/mol)

>  <smiles>  (79) 
c1cncc(CCNc2nc(N3CCCCC3)nc(N3CCNCC3)n2)c1

>  <score_type>  (79) 
oracle

>  <origin>  (79) 
autodockgpu

>  <m_score__min__energy>  (79) 
-8.5600000000000005

>  <m_primary>  (79) 
energy

>  <meeko>  (79) 
{"free_energy": -7.92, "intermolecular_energy": -9.71, "internal_energy": -0.58, "cluster_size": 18, "cluster_id": 1, "rank_in_cluster": 16}

>  <energy>  (79) 
-7.46

>  <cluster_rmsd>  (79) 
0.0

>  <rmsd>  (79) 
271.56

>  <cluster>  (79) 
2

$$$$
YQRBYBBKMCEKLP-VSQHSNIGNA-O
     RDKit          3D

 56 59  0  0  0  0  0  0  0  0999 V2000
  139.7293   66.4990  226.9262 H   0  0  0  0  0  0  0  0  0  0  0  0
  139.8710   67.4730  226.4350 C   0  0  0  0  0  0  0  0  0  0  0  0
  139.2030   67.7580  225.2860 N   0  0  0  0  0  0  0  0  0  0  0  0
  139.3530   68.9480  224.6470 C   0  0  0  0  0  0  0  0  0  0  0  0
  138.7939   69.1479  223.7210 H   0  0  0  0  0  0  0  0  0  0  0  0
  140.2200   69.9230  225.1660 C   0  0  0  0  0  0  0  0  0  0  0  0
  140.3640   71.2590  224.4870 C   0  0  0  0  0  0  0  0  0  0  0  0
  139.9135   72.0340  225.1245 H   0  0  0  0  0  0  0  0  0  0  0  0
  141.4356   71.4527  224.3317 H   0  0  0  0  0  0  0  0  0  0  0  0
  139.6690   71.2740  223.1170 C   0  0  0  0  0  0  0  0  0  0  0  0
  140.3188   70.7764  222.3820 H   0  0  0  0  0  0  0  0  0  0  0  0
  138.7082   70.7471  223.2137 H   0  0  0  0  0  0  0  0  0  0  0  0
  139.3970   72.6430  222.6620 N   0  0  0  0  0  0  0  0  0  0  0  0
  138.4110   72.9830  222.7280 H   0  0  0  0  0  0  0  0  0  0  0  0
  140.3060   73.4380  222.1690 C   0  0  0  0  0  0  0  0  0  0  0  0
  141.4290   72.9170  221.6150 N   0  0  0  0  0  0  0  0  0  0  0  0
  142.3790   73.7240  221.0760 C   0  0  0  0  0  0  0  0  0  0  0  0
  143.5510   73.1390  220.4740 N   0  0  0  0  0  0  0  0  0  0  0  0
  144.8120   73.8930  220.4670 C   0  0  0  0  0  0  0  0  0  0  0  0
  144.8770   74.4825  219.5406 H   0  0  0  0  0  0  0  0  0  0  0  0
  144.8344   74.5604  221.3411 H   0  0  0  0  0  0  0  0  0  0  0  0
  146.0030   72.9370  220.5410 C   0  0  0  0  0  0  0  0  0  0  0  0
  146.9344   73.5056  220.4027 H   0  0  0  0  0  0  0  0  0  0  0  0
  146.0065   72.4436  221.5241 H   0  0  0  0  0  0  0  0  0  0  0  0
  145.8990   71.9160  219.4940 N   0  0  0  0  0  0  0  0  0  0  0  0
  146.7300   71.2840  219.5830 H   0  0  0  0  0  0  0  0  0  0  0  0
  144.6960   71.1010  219.6980 C   0  0  0  0  0  0  0  0  0  0  0  0
  144.6573   70.3136  218.9308 H   0  0  0  0  0  0  0  0  0  0  0  0
  144.7363   70.6504  220.7007 H   0  0  0  0  0  0  0  0  0  0  0  0
  143.4400   71.9680  219.5940 C   0  0  0  0  0  0  0  0  0  0  0  0
  143.3183   72.3063  218.5544 H   0  0  0  0  0  0  0  0  0  0  0  0
  142.5686   71.3717  219.9023 H   0  0  0  0  0  0  0  0  0  0  0  0
  142.2040   75.0780  221.1060 N   0  0  0  0  0  0  0  0  0  0  0  0
  142.9180   75.7070  220.6820 H   0  0  0  0  0  0  0  0  0  0  0  0
  141.0880   75.6110  221.6780 C   0  0  0  0  0  0  0  0  0  0  0  0
  140.8760   77.0340  221.7010 N   0  0  0  0  0  0  0  0  0  0  0  0
  141.5020   77.8640  220.6630 C   0  0  0  0  0  0  0  0  0  0  0  0
  142.5774   77.6361  220.6243 H   0  0  0  0  0  0  0  0  0  0  0  0
  141.0171   77.6366  219.7022 H   0  0  0  0  0  0  0  0  0  0  0  0
  141.3200   79.3620  220.9500 C   0  0  0  0  0  0  0  0  0  0  0  0
  142.0331   79.9372  220.3411 H   0  0  0  0  0  0  0  0  0  0  0  0
  140.2891   79.6515  220.6980 H   0  0  0  0  0  0  0  0  0  0  0  0
  141.5710   79.6550  222.4340 C   0  0  0  0  0  0  0  0  0  0  0  0
  142.6174   79.4098  222.6683 H   0  0  0  0  0  0  0  0  0  0  0  0
  141.3533   80.7200  222.6022 H   0  0  0  0  0  0  0  0  0  0  0  0
  140.6510   78.8390  223.3710 C   0  0  0  0  0  0  0  0  0  0  0  0
  141.2568   78.4495  224.2024 H   0  0  0  0  0  0  0  0  0  0  0  0
  139.8568   79.5164  223.7180 H   0  0  0  0  0  0  0  0  0  0  0  0
  139.9650   77.6550  222.6710 C   0  0  0  0  0  0  0  0  0  0  0  0
  139.6741   76.9080  223.4243 H   0  0  0  0  0  0  0  0  0  0  0  0
  139.0752   78.0228  222.1390 H   0  0  0  0  0  0  0  0  0  0  0  0
  140.1410   74.7860  222.1950 N   0  0  0  0  0  0  0  0  0  0  0  0
  140.9070   69.6470  226.3560 C   0  0  0  0  0  0  0  0  0  0  0  0
  141.5807   70.4010  226.7892 H   0  0  0  0  0  0  0  0  0  0  0  0
  140.7370   68.4160  226.9920 C   0  0  0  0  0  0  0  0  0  0  0  0
  141.2796   68.1913  227.9221 H   0  0  0  0  0  0  0  0  0  0  0  0
  1  2  1  0
  2  3  2  0
  3  4  1  0
  4  5  1  0
  4  6  2  0
  6  7  1  0
  7  8  1  0
  7  9  1  0
  7 10  1  0
 10 11  1  0
 10 12  1  0
 10 13  1  0
 13 14  1  0
 13 15  2  0
 15 16  1  0
 16 17  2  0
 17 18  1  0
 18 19  1  0
 19 20  1  0
 19 21  1  0
 19 22  1  0
 22 23  1  0
 22 24  1  0
 22 25  1  0
 25 26  1  0
 25 27  1  0
 27 28  1  0
 27 29  1  0
 27 30  1  0
 30 31  1  0
 30 32  1  0
 17 33  1  0
 33 34  1  0
 33 35  1  0
 35 36  1  0
 36 37  1  0
 37 38  1  0
 37 39  1  0
 37 40  1  0
 40 41  1  0
 40 42  1  0
 40 43  1  0
 43 44  1  0
 43 45  1  0
 43 46  1  0
 46 47  1  0
 46 48  1  0
 46 49  1  0
 49 50  1  0
 49 51  1  0
 35 52  2  0
  6 53  1  0
 53 54  1  0
 53 55  2  0
 55 56  1  0
 55  2  1  0
 52 15  1  0
 30 18  1  0
 49 36  1  0
M  CHG  1  13   1
M  END
>  <UniqueID>  (80) 
584

>  <SMILES>  (80) 
c1cncc(CC/[NH+]=c2\nc(N3CCCCC3)[nH]c(N3CCNCC3)n2)c1

>  <Energy>  (80) 
59.183879608312594

>  <Genealogy>  (80) 
c1cncc(CC[NH2+]c2nc(N3CCCCC3)nc(N3CCNCC3)n2)c1 (protonated)
c1cncc(CC[NH+]=c2nc(N3CCCCC3)[nH]c(N3CCNCC3)n2)c1 (tautomer)
c1cncc(CC/[NH+]=c2\nc(N3CCCCC3)[nH]c(N3CCNCC3)n2)c1 (cis-trans isomerization)
c1cncc(CC/[NH+]=c2\nc(N3CCCCC3)[nH]c(N3CCNCC3)n2)c1 (3D coordinates assigned)
c1cncc(CC/[NH+]=c2\nc(N3CCCCC3)[nH]c(N3CCNCC3)n2)c1 (nonaromatic ring conformer: 59.183879608312594 kcal/mol)

>  <smiles>  (80) 
c1cncc(CCNc2nc(N3CCCCC3)nc(N3CCNCC3)n2)c1

>  <score_type>  (80) 
oracle

>  <origin>  (80) 
autodockgpu

>  <m_score__min__energy>  (80) 
-8.5600000000000005

>  <m_primary>  (80) 
energy

>  <meeko>  (80) 
{"free_energy": -8.55, "intermolecular_energy": -10.34, "internal_energy": -0.48, "cluster_size": 18, "cluster_id": 1, "rank_in_cluster": 2}

>  <energy>  (80) 
-6.34

>  <cluster_rmsd>  (80) 
0.0

>  <rmsd>  (80) 
270.91

>  <cluster>  (80) 
3

$$$$
