
     RDKit          3D

 67 73  0  0  0  0  0  0  0  0999 V2000
  142.1980   80.7040  222.7090 C   0  0  0  0  0  0  0  0  0  0  0  0
  141.4680   80.2690  223.8150 C   0  0  0  0  0  0  0  0  0  0  0  0
  140.8420   79.0330  223.7360 C   0  0  0  0  0  0  0  0  0  0  0  0
  140.9140   78.2300  222.6180 C   0  0  0  0  0  0  0  0  0  0  0  0
  141.6290   78.6560  221.5350 C   0  0  0  0  0  0  0  0  0  0  0  0
  142.2620   79.8960  221.6020 C   0  0  0  0  0  0  0  0  0  0  0  0
  141.7870   77.8800  220.2760 C   0  0  0  0  0  0  0  0  0  0  0  0
  140.6480   76.9010  220.1850 C   0  0  0  0  0  0  0  0  0  0  0  0
  140.5180   76.1910  221.4450 N   0  0  0  0  0  0  0  0  0  0  0  0
  140.7160   74.7840  221.5660 C   0  0  0  0  0  0  0  0  0  0  0  0
  139.8030   74.0410  222.3210 C   0  0  0  0  0  0  0  0  0  0  0  0
  139.9470   72.6760  222.4990 C   0  0  0  0  0  0  0  0  0  0  0  0
  138.9620   71.9150  223.2500 N   0  0  0  0  0  0  0  0  0  0  0  0
  139.4940   70.6880  223.8260 C   0  0  2  0  0  0  0  0  0  0  0  0
  138.3480   69.7200  224.1540 C   0  0  0  0  0  0  0  0  0  0  0  0
  139.1060   68.7590  225.0700 C   0  0  0  0  0  0  0  0  0  0  0  0
  139.8680   69.7410  225.9210 C   0  0  0  0  0  0  0  0  0  0  0  0
  140.2950   69.5920  227.2140 C   0  0  0  0  0  0  0  0  0  0  0  0
  140.9850   70.6130  227.8570 C   0  0  0  0  0  0  0  0  0  0  0  0
  141.2060   71.7570  227.1220 C   0  0  0  0  0  0  0  0  0  0  0  0
  140.7740   71.9060  225.8150 C   0  0  0  0  0  0  0  0  0  0  0  0
  140.0870   70.8970  225.1670 C   0  0  0  0  0  0  0  0  0  0  0  0
  140.9990   72.0750  221.9220 N   0  0  0  0  0  0  0  0  0  0  0  0
  141.9010   72.7820  221.1800 C   0  0  0  0  0  0  0  0  0  0  0  0
  142.9850   72.0970  220.5990 N   0  0  0  0  0  0  0  0  0  0  0  0
  144.3270   72.6600  220.6590 C   0  0  0  0  0  0  0  0  0  0  0  0
  144.9670   72.2990  219.3080 C   0  0  0  0  0  0  0  0  0  0  0  0
  145.0750   70.8170  219.3290 C   0  0  0  0  0  0  0  0  0  0  0  0
  146.2370   70.1350  219.0420 C   0  0  0  0  0  0  0  0  0  0  0  0
  146.2870   68.7340  219.0790 C   0  0  0  0  0  0  0  0  0  0  0  0
  145.1310   68.0440  219.4150 C   0  0  0  0  0  0  0  0  0  0  0  0
  143.9580   68.7050  219.7060 C   0  0  0  0  0  0  0  0  0  0  0  0
  143.9410   70.0890  219.6600 C   0  0  0  0  0  0  0  0  0  0  0  0
  142.7150   70.8330  219.9550 C   0  0  0  0  0  0  0  0  0  0  0  0
  141.7360   74.1170  221.0200 N   0  0  0  0  0  0  0  0  0  0  0  0
  140.1860   76.9200  222.6650 C   0  0  0  0  0  0  0  0  0  0  0  0
  142.7125   81.6761  222.7240 H   0  0  0  0  0  0  0  0  0  0  0  0
  141.3909   80.8866  224.7220 H   0  0  0  0  0  0  0  0  0  0  0  0
  140.2638   78.6791  224.6023 H   0  0  0  0  0  0  0  0  0  0  0  0
  142.8373   80.2414  220.7304 H   0  0  0  0  0  0  0  0  0  0  0  0
  141.7632   78.5611  219.4126 H   0  0  0  0  0  0  0  0  0  0  0  0
  142.7492   77.3468  220.2748 H   0  0  0  0  0  0  0  0  0  0  0  0
  139.7149   77.4430  219.9716 H   0  0  0  0  0  0  0  0  0  0  0  0
  140.8469   76.1812  219.3774 H   0  0  0  0  0  0  0  0  0  0  0  0
  138.9483   74.5547  222.7854 H   0  0  0  0  0  0  0  0  0  0  0  0
  137.9960   72.2390  223.3430 H   0  0  0  0  0  0  0  0  0  0  0  0
  140.2223   70.3262  223.0853 H   0  0  0  0  0  0  0  0  0  0  0  0
  137.5202   70.2219  224.6763 H   0  0  0  0  0  0  0  0  0  0  0  0
  137.8543   69.2581  223.2863 H   0  0  0  0  0  0  0  0  0  0  0  0
  138.4202   68.1451  225.6724 H   0  0  0  0  0  0  0  0  0  0  0  0
  139.7320   68.0217  224.5461 H   0  0  0  0  0  0  0  0  0  0  0  0
  140.0895   68.6535  227.7497 H   0  0  0  0  0  0  0  0  0  0  0  0
  141.3351   70.5131  228.8950 H   0  0  0  0  0  0  0  0  0  0  0  0
  141.7495   72.5886  227.5942 H   0  0  0  0  0  0  0  0  0  0  0  0
  140.9816   72.8456  225.2821 H   0  0  0  0  0  0  0  0  0  0  0  0
  144.2836   73.7516  220.7875 H   0  0  0  0  0  0  0  0  0  0  0  0
  144.9038   72.2670  221.5092 H   0  0  0  0  0  0  0  0  0  0  0  0
  144.3292   72.6302  218.4752 H   0  0  0  0  0  0  0  0  0  0  0  0
  145.9426   72.7866  219.1648 H   0  0  0  0  0  0  0  0  0  0  0  0
  147.1432   70.7003  218.7787 H   0  0  0  0  0  0  0  0  0  0  0  0
  147.2183   68.1962  218.8477 H   0  0  0  0  0  0  0  0  0  0  0  0
  145.1517   66.9447  219.4498 H   0  0  0  0  0  0  0  0  0  0  0  0
  143.0501   68.1430  219.9704 H   0  0  0  0  0  0  0  0  0  0  0  0
  142.1804   71.0228  219.0125 H   0  0  0  0  0  0  0  0  0  0  0  0
  142.1093   70.2259  220.6439 H   0  0  0  0  0  0  0  0  0  0  0  0
  139.1011   77.0946  222.7150 H   0  0  0  0  0  0  0  0  0  0  0  0
  140.4816   76.3436  223.5540 H   0  0  0  0  0  0  0  0  0  0  0  0
  1  2  2  0
  2  3  1  0
  3  4  2  0
  4  5  1  0
  5  6  2  0
  5  7  1  0
  7  8  1  0
  8  9  1  0
  9 10  1  0
 10 11  2  0
 11 12  1  0
 12 13  1  0
 13 14  1  0
 14 15  1  0
 15 16  1  0
 16 17  1  0
 17 18  2  0
 18 19  1  0
 19 20  2  0
 20 21  1  0
 21 22  2  0
 12 23  2  0
 23 24  1  0
 24 25  1  0
 25 26  1  0
 26 27  1  0
 27 28  1  0
 28 29  2  0
 29 30  1  0
 30 31  2  0
 31 32  1  0
 32 33  2  0
 33 34  1  0
 24 35  2  0
  9 36  1  0
  6  1  1  0
 35 10  1  0
 36  4  1  0
 22 14  1  0
 34 25  1  0
 22 17  1  0
 33 28  1  0
  1 37  1  0
  2 38  1  0
  3 39  1  0
  6 40  1  0
  7 41  1  0
  7 42  1  0
  8 43  1  0
  8 44  1  0
 11 45  1  0
 13 46  1  0
 14 47  1  6
 15 48  1  0
 15 49  1  0
 16 50  1  0
 16 51  1  0
 18 52  1  0
 19 53  1  0
 20 54  1  0
 21 55  1  0
 26 56  1  0
 26 57  1  0
 27 58  1  0
 27 59  1  0
 29 60  1  0
 30 61  1  0
 31 62  1  0
 32 63  1  0
 34 64  1  0
 34 65  1  0
 36 66  1  0
 36 67  1  0
M  END
>  <smiles>  (1) 
c1ccc2c(c1)CCN(c1cc(N[C@@H]3CCc4ccccc43)nc(N3CCc4ccccc4C3)n1)C2

>  <score_type>  (1) 
oracle

>  <origin>  (1) 
autodockgpu

>  <m_score__min__energy>  (1) 
-11.31

>  <m_primary>  (1) 
energy

>  <meeko>  (1) 
{"free_energy": -11.1, "intermolecular_energy": -12.3, "internal_energy": -1.25, "cluster_size": 20, "cluster_id": 1, "rank_in_cluster": 14}

>  <energy>  (1) 
-11.31

>  <cluster_rmsd>  (1) 
0.0

>  <rmsd>  (1) 
270.48

>  <cluster>  (1) 
1

$$$$

     RDKit          3D

 67 73  0  0  0  0  0  0  0  0999 V2000
  141.9170   80.6280  222.6020 C   0  0  0  0  0  0  0  0  0  0  0  0
  141.0150   80.2040  223.5790 C   0  0  0  0  0  0  0  0  0  0  0  0
  140.4430   78.9490  223.4350 C   0  0  0  0  0  0  0  0  0  0  0  0
  140.7290   78.1150  222.3750 C   0  0  0  0  0  0  0  0  0  0  0  0
  141.6120   78.5300  221.4190 C   0  0  0  0  0  0  0  0  0  0  0  0
  142.1940   79.7890  221.5520 C   0  0  0  0  0  0  0  0  0  0  0  0
  142.0080   77.7210  220.2350 C   0  0  0  0  0  0  0  0  0  0  0  0
  140.9260   76.7060  219.9800 C   0  0  0  0  0  0  0  0  0  0  0  0
  140.5950   76.0310  221.2230 N   0  0  0  0  0  0  0  0  0  0  0  0
  140.8030   74.6340  221.4240 C   0  0  0  0  0  0  0  0  0  0  0  0
  139.9170   73.9370  222.2520 C   0  0  0  0  0  0  0  0  0  0  0  0
  140.0720   72.5870  222.5100 C   0  0  0  0  0  0  0  0  0  0  0  0
  139.1140   71.8720  223.3370 N   0  0  0  0  0  0  0  0  0  0  0  0
  139.6520   70.6520  223.9240 C   0  0  2  0  0  0  0  0  0  0  0  0
  138.5240   69.6380  224.1570 C   0  0  0  0  0  0  0  0  0  0  0  0
  139.2540   68.6850  225.1040 C   0  0  0  0  0  0  0  0  0  0  0  0
  139.9220   69.6760  226.0220 C   0  0  0  0  0  0  0  0  0  0  0  0
  140.2660   69.5150  227.3380 C   0  0  0  0  0  0  0  0  0  0  0  0
  140.8740   70.5460  228.0440 C   0  0  0  0  0  0  0  0  0  0  0  0
  141.1010   71.7120  227.3470 C   0  0  0  0  0  0  0  0  0  0  0  0
  140.7510   71.8740  226.0170 C   0  0  0  0  0  0  0  0  0  0  0  0
  140.1460   70.8540  225.3050 C   0  0  0  0  0  0  0  0  0  0  0  0
  141.1090   71.9540  221.9400 N   0  0  0  0  0  0  0  0  0  0  0  0
  141.9850   72.6160  221.1290 C   0  0  0  0  0  0  0  0  0  0  0  0
  143.0550   71.8990  220.5590 N   0  0  0  0  0  0  0  0  0  0  0  0
  144.4070   72.4350  220.6090 C   0  0  0  0  0  0  0  0  0  0  0  0
  145.0390   72.0380  219.2640 C   0  0  0  0  0  0  0  0  0  0  0  0
  145.1160   70.5550  219.3090 C   0  0  0  0  0  0  0  0  0  0  0  0
  146.2640   69.8440  219.0340 C   0  0  0  0  0  0  0  0  0  0  0  0
  146.2840   68.4440  219.0940 C   0  0  0  0  0  0  0  0  0  0  0  0
  145.1160   67.7830  219.4420 C   0  0  0  0  0  0  0  0  0  0  0  0
  143.9560   68.4730  219.7230 C   0  0  0  0  0  0  0  0  0  0  0  0
  143.9680   69.8560  219.6530 C   0  0  0  0  0  0  0  0  0  0  0  0
  142.7580   70.6300  219.9360 C   0  0  0  0  0  0  0  0  0  0  0  0
  141.8090   73.9380  220.8910 N   0  0  0  0  0  0  0  0  0  0  0  0
  140.0360   76.7860  222.3400 C   0  0  0  0  0  0  0  0  0  0  0  0
  142.3966   81.6155  222.6723 H   0  0  0  0  0  0  0  0  0  0  0  0
  140.7655   80.8457  224.4369 H   0  0  0  0  0  0  0  0  0  0  0  0
  139.7307   78.6042  224.1990 H   0  0  0  0  0  0  0  0  0  0  0  0
  142.9054   80.1245  220.7830 H   0  0  0  0  0  0  0  0  0  0  0  0
  142.1206   78.3746  219.3574 H   0  0  0  0  0  0  0  0  0  0  0  0
  142.9677   77.2168  220.4213 H   0  0  0  0  0  0  0  0  0  0  0  0
  140.0319   77.2132  219.5884 H   0  0  0  0  0  0  0  0  0  0  0  0
  141.2799   75.9687  219.2444 H   0  0  0  0  0  0  0  0  0  0  0  0
  139.0749   74.4766  222.7100 H   0  0  0  0  0  0  0  0  0  0  0  0
  138.1610   72.2190  223.4700 H   0  0  0  0  0  0  0  0  0  0  0  0
  140.4402   70.3318  223.2268 H   0  0  0  0  0  0  0  0  0  0  0  0
  137.6457   70.0995  224.6319 H   0  0  0  0  0  0  0  0  0  0  0  0
  138.1064   69.1769  223.2498 H   0  0  0  0  0  0  0  0  0  0  0  0
  138.5525   68.0353  225.6479 H   0  0  0  0  0  0  0  0  0  0  0  0
  139.9395   67.9808  224.6099 H   0  0  0  0  0  0  0  0  0  0  0  0
  140.0588   68.5592  227.8415 H   0  0  0  0  0  0  0  0  0  0  0  0
  141.1582   70.4369  229.1010 H   0  0  0  0  0  0  0  0  0  0  0  0
  141.5817   72.5519  227.8700 H   0  0  0  0  0  0  0  0  0  0  0  0
  140.9580   72.8318  225.5173 H   0  0  0  0  0  0  0  0  0  0  0  0
  144.3859   73.5293  220.7189 H   0  0  0  0  0  0  0  0  0  0  0  0
  144.9761   72.0448  221.4656 H   0  0  0  0  0  0  0  0  0  0  0  0
  144.4081   72.3688  218.4258 H   0  0  0  0  0  0  0  0  0  0  0  0
  146.0247   72.5024  219.1132 H   0  0  0  0  0  0  0  0  0  0  0  0
  147.1821   70.3856  218.7622 H   0  0  0  0  0  0  0  0  0  0  0  0
  147.2037   67.8834  218.8705 H   0  0  0  0  0  0  0  0  0  0  0  0
  145.1148   66.6843  219.4950 H   0  0  0  0  0  0  0  0  0  0  0  0
  143.0371   67.9345  219.9980 H   0  0  0  0  0  0  0  0  0  0  0  0
  142.2268   70.8152  218.9907 H   0  0  0  0  0  0  0  0  0  0  0  0
  142.1402   70.0471  220.6350 H   0  0  0  0  0  0  0  0  0  0  0  0
  138.9553   76.9294  222.1934 H   0  0  0  0  0  0  0  0  0  0  0  0
  140.1844   76.2458  223.2866 H   0  0  0  0  0  0  0  0  0  0  0  0
  1  2  2  0
  2  3  1  0
  3  4  2  0
  4  5  1  0
  5  6  2  0
  5  7  1  0
  7  8  1  0
  8  9  1  0
  9 10  1  0
 10 11  2  0
 11 12  1  0
 12 13  1  0
 13 14  1  0
 14 15  1  0
 15 16  1  0
 16 17  1  0
 17 18  2  0
 18 19  1  0
 19 20  2  0
 20 21  1  0
 21 22  2  0
 12 23  2  0
 23 24  1  0
 24 25  1  0
 25 26  1  0
 26 27  1  0
 27 28  1  0
 28 29  2  0
 29 30  1  0
 30 31  2  0
 31 32  1  0
 32 33  2  0
 33 34  1  0
 24 35  2  0
  9 36  1  0
  6  1  1  0
 35 10  1  0
 36  4  1  0
 22 14  1  0
 34 25  1  0
 22 17  1  0
 33 28  1  0
  1 37  1  0
  2 38  1  0
  3 39  1  0
  6 40  1  0
  7 41  1  0
  7 42  1  0
  8 43  1  0
  8 44  1  0
 11 45  1  0
 13 46  1  0
 14 47  1  6
 15 48  1  0
 15 49  1  0
 16 50  1  0
 16 51  1  0
 18 52  1  0
 19 53  1  0
 20 54  1  0
 21 55  1  0
 26 56  1  0
 26 57  1  0
 27 58  1  0
 27 59  1  0
 29 60  1  0
 30 61  1  0
 31 62  1  0
 32 63  1  0
 34 64  1  0
 34 65  1  0
 36 66  1  0
 36 67  1  0
M  END
>  <smiles>  (2) 
c1ccc2c(c1)CCN(c1cc(N[C@@H]3CCc4ccccc43)nc(N3CCc4ccccc4C3)n1)C2

>  <score_type>  (2) 
oracle

>  <origin>  (2) 
autodockgpu

>  <m_score__min__energy>  (2) 
-11.31

>  <m_primary>  (2) 
energy

>  <meeko>  (2) 
{"free_energy": -11.31, "intermolecular_energy": -12.5, "internal_energy": -1.21, "cluster_size": 20, "cluster_id": 1, "rank_in_cluster": 3}

>  <energy>  (2) 
-11.31

>  <cluster_rmsd>  (2) 
0.05

>  <rmsd>  (2) 
270.48

>  <cluster>  (2) 
1

$$$$

     RDKit          3D

 67 73  0  0  0  0  0  0  0  0999 V2000
  141.9480   80.6570  222.5920 C   0  0  0  0  0  0  0  0  0  0  0  0
  141.0620   80.2320  223.5830 C   0  0  0  0  0  0  0  0  0  0  0  0
  140.4850   78.9790  223.4460 C   0  0  0  0  0  0  0  0  0  0  0  0
  140.7500   78.1460  222.3800 C   0  0  0  0  0  0  0  0  0  0  0  0
  141.6180   78.5610  221.4100 C   0  0  0  0  0  0  0  0  0  0  0  0
  142.2050   79.8190  221.5350 C   0  0  0  0  0  0  0  0  0  0  0  0
  141.9920   77.7540  220.2170 C   0  0  0  0  0  0  0  0  0  0  0  0
  140.9040   76.7420  219.9790 C   0  0  0  0  0  0  0  0  0  0  0  0
  140.5920   76.0650  221.2250 N   0  0  0  0  0  0  0  0  0  0  0  0
  140.8000   74.6680  221.4200 C   0  0  0  0  0  0  0  0  0  0  0  0
  139.9110   73.9650  222.2390 C   0  0  0  0  0  0  0  0  0  0  0  0
  140.0660   72.6140  222.4910 C   0  0  0  0  0  0  0  0  0  0  0  0
  139.1040   71.8930  223.3080 N   0  0  0  0  0  0  0  0  0  0  0  0
  139.6400   70.6710  223.8930 C   0  0  2  0  0  0  0  0  0  0  0  0
  138.5100   69.6590  224.1270 C   0  0  0  0  0  0  0  0  0  0  0  0
  139.2400   68.7030  225.0710 C   0  0  0  0  0  0  0  0  0  0  0  0
  139.9120   69.6920  225.9880 C   0  0  0  0  0  0  0  0  0  0  0  0
  140.2600   69.5280  227.3030 C   0  0  0  0  0  0  0  0  0  0  0  0
  140.8720   70.5580  228.0100 C   0  0  0  0  0  0  0  0  0  0  0  0
  141.1000   71.7240  227.3130 C   0  0  0  0  0  0  0  0  0  0  0  0
  140.7470   71.8870  225.9840 C   0  0  0  0  0  0  0  0  0  0  0  0
  140.1380   70.8710  225.2730 C   0  0  0  0  0  0  0  0  0  0  0  0
  141.1060   71.9850  221.9230 N   0  0  0  0  0  0  0  0  0  0  0  0
  141.9860   72.6520  221.1200 C   0  0  0  0  0  0  0  0  0  0  0  0
  143.0600   71.9390  220.5520 N   0  0  0  0  0  0  0  0  0  0  0  0
  144.4060   72.4950  220.5790 C   0  0  0  0  0  0  0  0  0  0  0  0
  145.0290   72.0820  219.2350 C   0  0  0  0  0  0  0  0  0  0  0  0
  145.1280   70.6010  219.3060 C   0  0  0  0  0  0  0  0  0  0  0  0
  146.2820   69.9000  219.0320 C   0  0  0  0  0  0  0  0  0  0  0  0
  146.3220   68.5020  219.1170 C   0  0  0  0  0  0  0  0  0  0  0  0
  145.1660   67.8320  219.4890 C   0  0  0  0  0  0  0  0  0  0  0  0
  144.0000   68.5110  219.7690 C   0  0  0  0  0  0  0  0  0  0  0  0
  143.9920   69.8930  219.6750 C   0  0  0  0  0  0  0  0  0  0  0  0
  142.7750   70.6560  219.9550 C   0  0  0  0  0  0  0  0  0  0  0  0
  141.8100   73.9750  220.8890 N   0  0  0  0  0  0  0  0  0  0  0  0
  140.0550   76.8190  222.3540 C   0  0  0  0  0  0  0  0  0  0  0  0
  142.4307   81.6433  222.6563 H   0  0  0  0  0  0  0  0  0  0  0  0
  140.8286   80.8719  224.4467 H   0  0  0  0  0  0  0  0  0  0  0  0
  139.7853   78.6344  224.2216 H   0  0  0  0  0  0  0  0  0  0  0  0
  142.9034   80.1546  220.7542 H   0  0  0  0  0  0  0  0  0  0  0  0
  142.0904   78.4094  219.3391 H   0  0  0  0  0  0  0  0  0  0  0  0
  142.9540   77.2477  220.3850 H   0  0  0  0  0  0  0  0  0  0  0  0
  140.0046   77.2520  219.6036 H   0  0  0  0  0  0  0  0  0  0  0  0
  141.2445   76.0052  219.2366 H   0  0  0  0  0  0  0  0  0  0  0  0
  139.0656   74.5010  222.6951 H   0  0  0  0  0  0  0  0  0  0  0  0
  138.1490   72.2380  223.4360 H   0  0  0  0  0  0  0  0  0  0  0  0
  140.4259   70.3491  223.1939 H   0  0  0  0  0  0  0  0  0  0  0  0
  137.6337   70.1217  224.6045 H   0  0  0  0  0  0  0  0  0  0  0  0
  138.0893   69.2002  223.2201 H   0  0  0  0  0  0  0  0  0  0  0  0
  138.5384   68.0542  225.6159 H   0  0  0  0  0  0  0  0  0  0  0  0
  139.9226   67.9974  224.5748 H   0  0  0  0  0  0  0  0  0  0  0  0
  140.0532   68.5714  227.8052 H   0  0  0  0  0  0  0  0  0  0  0  0
  141.1578   70.4475  229.0664 H   0  0  0  0  0  0  0  0  0  0  0  0
  141.5838   72.5626  227.8351 H   0  0  0  0  0  0  0  0  0  0  0  0
  140.9556   72.8445  225.4844 H   0  0  0  0  0  0  0  0  0  0  0  0
  144.3708   73.5907  220.6693 H   0  0  0  0  0  0  0  0  0  0  0  0
  144.9892   72.1289  221.4368 H   0  0  0  0  0  0  0  0  0  0  0  0
  144.3844   72.3883  218.3979 H   0  0  0  0  0  0  0  0  0  0  0  0
  146.0063   72.5574  219.0651 H   0  0  0  0  0  0  0  0  0  0  0  0
  147.1898   70.4487  218.7408 H   0  0  0  0  0  0  0  0  0  0  0  0
  147.2469   67.9498  218.8943 H   0  0  0  0  0  0  0  0  0  0  0  0
  145.1802   66.7345  219.5621 H   0  0  0  0  0  0  0  0  0  0  0  0
  143.0912   67.9649  220.0621 H   0  0  0  0  0  0  0  0  0  0  0  0
  142.2331   70.8171  219.0114 H   0  0  0  0  0  0  0  0  0  0  0  0
  142.1714   70.0778  220.6701 H   0  0  0  0  0  0  0  0  0  0  0  0
  138.9720   76.9645  222.2275 H   0  0  0  0  0  0  0  0  0  0  0  0
  140.2203   76.2763  223.2964 H   0  0  0  0  0  0  0  0  0  0  0  0
  1  2  2  0
  2  3  1  0
  3  4  2  0
  4  5  1  0
  5  6  2  0
  5  7  1  0
  7  8  1  0
  8  9  1  0
  9 10  1  0
 10 11  2  0
 11 12  1  0
 12 13  1  0
 13 14  1  0
 14 15  1  0
 15 16  1  0
 16 17  1  0
 17 18  2  0
 18 19  1  0
 19 20  2  0
 20 21  1  0
 21 22  2  0
 12 23  2  0
 23 24  1  0
 24 25  1  0
 25 26  1  0
 26 27  1  0
 27 28  1  0
 28 29  2  0
 29 30  1  0
 30 31  2  0
 31 32  1  0
 32 33  2  0
 33 34  1  0
 24 35  2  0
  9 36  1  0
  6  1  1  0
 35 10  1  0
 36  4  1  0
 22 14  1  0
 34 25  1  0
 22 17  1  0
 33 28  1  0
  1 37  1  0
  2 38  1  0
  3 39  1  0
  6 40  1  0
  7 41  1  0
  7 42  1  0
  8 43  1  0
  8 44  1  0
 11 45  1  0
 13 46  1  0
 14 47  1  6
 15 48  1  0
 15 49  1  0
 16 50  1  0
 16 51  1  0
 18 52  1  0
 19 53  1  0
 20 54  1  0
 21 55  1  0
 26 56  1  0
 26 57  1  0
 27 58  1  0
 27 59  1  0
 29 60  1  0
 30 61  1  0
 31 62  1  0
 32 63  1  0
 34 64  1  0
 34 65  1  0
 36 66  1  0
 36 67  1  0
M  END
>  <smiles>  (3) 
c1ccc2c(c1)CCN(c1cc(N[C@@H]3CCc4ccccc43)nc(N3CCc4ccccc4C3)n1)C2

>  <score_type>  (3) 
oracle

>  <origin>  (3) 
autodockgpu

>  <m_score__min__energy>  (3) 
-11.31

>  <m_primary>  (3) 
energy

>  <meeko>  (3) 
{"free_energy": -11.3, "intermolecular_energy": -12.5, "internal_energy": -1.22, "cluster_size": 20, "cluster_id": 1, "rank_in_cluster": 5}

>  <energy>  (3) 
-11.31

>  <cluster_rmsd>  (3) 
0.04

>  <rmsd>  (3) 
270.47

>  <cluster>  (3) 
1

$$$$

     RDKit          3D

 67 73  0  0  0  0  0  0  0  0999 V2000
  141.9670   80.6370  222.6290 C   0  0  0  0  0  0  0  0  0  0  0  0
  141.0740   80.2170  223.6140 C   0  0  0  0  0  0  0  0  0  0  0  0
  140.4910   78.9660  223.4740 C   0  0  0  0  0  0  0  0  0  0  0  0
  140.7580   78.1330  222.4090 C   0  0  0  0  0  0  0  0  0  0  0  0
  141.6340   78.5440  221.4440 C   0  0  0  0  0  0  0  0  0  0  0  0
  142.2260   79.7980  221.5730 C   0  0  0  0  0  0  0  0  0  0  0  0
  142.0100   77.7350  220.2530 C   0  0  0  0  0  0  0  0  0  0  0  0
  140.9190   76.7280  220.0090 C   0  0  0  0  0  0  0  0  0  0  0  0
  140.5960   76.0530  221.2530 N   0  0  0  0  0  0  0  0  0  0  0  0
  140.7960   74.6540  221.4490 C   0  0  0  0  0  0  0  0  0  0  0  0
  139.9040   73.9570  222.2700 C   0  0  0  0  0  0  0  0  0  0  0  0
  140.0510   72.6050  222.5220 C   0  0  0  0  0  0  0  0  0  0  0  0
  139.0860   71.8910  223.3410 N   0  0  0  0  0  0  0  0  0  0  0  0
  139.6170   70.6680  223.9300 C   0  0  2  0  0  0  0  0  0  0  0  0
  138.4820   69.6630  224.1680 C   0  0  0  0  0  0  0  0  0  0  0  0
  139.2090   68.7060  225.1140 C   0  0  0  0  0  0  0  0  0  0  0  0
  139.8860   69.6940  226.0280 C   0  0  0  0  0  0  0  0  0  0  0  0
  140.2340   69.5330  227.3430 C   0  0  0  0  0  0  0  0  0  0  0  0
  140.8520   70.5610  228.0460 C   0  0  0  0  0  0  0  0  0  0  0  0
  141.0840   71.7240  227.3460 C   0  0  0  0  0  0  0  0  0  0  0  0
  140.7320   71.8860  226.0170 C   0  0  0  0  0  0  0  0  0  0  0  0
  140.1170   70.8700  225.3090 C   0  0  0  0  0  0  0  0  0  0  0  0
  141.0870   71.9700  221.9530 N   0  0  0  0  0  0  0  0  0  0  0  0
  141.9700   72.6310  221.1490 C   0  0  0  0  0  0  0  0  0  0  0  0
  143.0380   71.9110  220.5800 N   0  0  0  0  0  0  0  0  0  0  0  0
  144.3930   72.4430  220.6340 C   0  0  0  0  0  0  0  0  0  0  0  0
  145.0250   72.0460  219.2890 C   0  0  0  0  0  0  0  0  0  0  0  0
  145.0980   70.5630  219.3320 C   0  0  0  0  0  0  0  0  0  0  0  0
  146.2440   69.8480  219.0580 C   0  0  0  0  0  0  0  0  0  0  0  0
  146.2590   68.4480  219.1160 C   0  0  0  0  0  0  0  0  0  0  0  0
  145.0880   67.7900  219.4600 C   0  0  0  0  0  0  0  0  0  0  0  0
  143.9300   68.4840  219.7400 C   0  0  0  0  0  0  0  0  0  0  0  0
  143.9460   69.8670  219.6730 C   0  0  0  0  0  0  0  0  0  0  0  0
  142.7390   70.6450  219.9540 C   0  0  0  0  0  0  0  0  0  0  0  0
  141.8010   73.9550  220.9160 N   0  0  0  0  0  0  0  0  0  0  0  0
  140.0560   76.8090  222.3780 C   0  0  0  0  0  0  0  0  0  0  0  0
  142.4544   81.6208  222.6964 H   0  0  0  0  0  0  0  0  0  0  0  0
  140.8388   80.8583  224.4762 H   0  0  0  0  0  0  0  0  0  0  0  0
  139.7856   78.6244  224.2458 H   0  0  0  0  0  0  0  0  0  0  0  0
  142.9306   80.1304  220.7965 H   0  0  0  0  0  0  0  0  0  0  0  0
  142.1160   78.3900  219.3756 H   0  0  0  0  0  0  0  0  0  0  0  0
  142.9686   77.2241  220.4264 H   0  0  0  0  0  0  0  0  0  0  0  0
  140.0243   77.2419  219.6277 H   0  0  0  0  0  0  0  0  0  0  0  0
  141.2609   75.9892  219.2692 H   0  0  0  0  0  0  0  0  0  0  0  0
  139.0629   74.4985  222.7276 H   0  0  0  0  0  0  0  0  0  0  0  0
  138.1330   72.2410  223.4690 H   0  0  0  0  0  0  0  0  0  0  0  0
  140.4011   70.3400  223.2317 H   0  0  0  0  0  0  0  0  0  0  0  0
  137.6088   70.1316  224.6454 H   0  0  0  0  0  0  0  0  0  0  0  0
  138.0573   69.2040  223.2630 H   0  0  0  0  0  0  0  0  0  0  0  0
  138.5051   68.0615  225.6610 H   0  0  0  0  0  0  0  0  0  0  0  0
  139.8882   67.9964  224.6188 H   0  0  0  0  0  0  0  0  0  0  0  0
  140.0220   68.5794  227.8486 H   0  0  0  0  0  0  0  0  0  0  0  0
  141.1395   70.4515  229.1021 H   0  0  0  0  0  0  0  0  0  0  0  0
  141.5709   72.5620  227.8663 H   0  0  0  0  0  0  0  0  0  0  0  0
  140.9456   72.8411  225.5148 H   0  0  0  0  0  0  0  0  0  0  0  0
  144.3755   73.5371  220.7460 H   0  0  0  0  0  0  0  0  0  0  0  0
  144.9595   72.0499  221.4910 H   0  0  0  0  0  0  0  0  0  0  0  0
  144.3956   72.3796  218.4508 H   0  0  0  0  0  0  0  0  0  0  0  0
  146.0121   72.5079  219.1396 H   0  0  0  0  0  0  0  0  0  0  0  0
  147.1645   70.3867  218.7886 H   0  0  0  0  0  0  0  0  0  0  0  0
  147.1774   67.8847  218.8940 H   0  0  0  0  0  0  0  0  0  0  0  0
  145.0828   66.6912  219.5106 H   0  0  0  0  0  0  0  0  0  0  0  0
  143.0088   67.9480  220.0121 H   0  0  0  0  0  0  0  0  0  0  0  0
  142.2114   70.8340  219.0075 H   0  0  0  0  0  0  0  0  0  0  0  0
  142.1174   70.0631  220.6504 H   0  0  0  0  0  0  0  0  0  0  0  0
  138.9746   76.9602  222.2445 H   0  0  0  0  0  0  0  0  0  0  0  0
  140.2125   76.2651  223.3213 H   0  0  0  0  0  0  0  0  0  0  0  0
  1  2  2  0
  2  3  1  0
  3  4  2  0
  4  5  1  0
  5  6  2  0
  5  7  1  0
  7  8  1  0
  8  9  1  0
  9 10  1  0
 10 11  2  0
 11 12  1  0
 12 13  1  0
 13 14  1  0
 14 15  1  0
 15 16  1  0
 16 17  1  0
 17 18  2  0
 18 19  1  0
 19 20  2  0
 20 21  1  0
 21 22  2  0
 12 23  2  0
 23 24  1  0
 24 25  1  0
 25 26  1  0
 26 27  1  0
 27 28  1  0
 28 29  2  0
 29 30  1  0
 30 31  2  0
 31 32  1  0
 32 33  2  0
 33 34  1  0
 24 35  2  0
  9 36  1  0
  6  1  1  0
 35 10  1  0
 36  4  1  0
 22 14  1  0
 34 25  1  0
 22 17  1  0
 33 28  1  0
  1 37  1  0
  2 38  1  0
  3 39  1  0
  6 40  1  0
  7 41  1  0
  7 42  1  0
  8 43  1  0
  8 44  1  0
 11 45  1  0
 13 46  1  0
 14 47  1  6
 15 48  1  0
 15 49  1  0
 16 50  1  0
 16 51  1  0
 18 52  1  0
 19 53  1  0
 20 54  1  0
 21 55  1  0
 26 56  1  0
 26 57  1  0
 27 58  1  0
 27 59  1  0
 29 60  1  0
 30 61  1  0
 31 62  1  0
 32 63  1  0
 34 64  1  0
 34 65  1  0
 36 66  1  0
 36 67  1  0
M  END
>  <smiles>  (4) 
c1ccc2c(c1)CCN(c1cc(N[C@@H]3CCc4ccccc43)nc(N3CCc4ccccc4C3)n1)C2

>  <score_type>  (4) 
oracle

>  <origin>  (4) 
autodockgpu

>  <m_score__min__energy>  (4) 
-11.31

>  <m_primary>  (4) 
energy

>  <meeko>  (4) 
{"free_energy": -11.29, "intermolecular_energy": -12.49, "internal_energy": -1.22, "cluster_size": 20, "cluster_id": 1, "rank_in_cluster": 10}

>  <energy>  (4) 
-11.31

>  <cluster_rmsd>  (4) 
0.04

>  <rmsd>  (4) 
270.49

>  <cluster>  (4) 
1

$$$$

     RDKit          3D

 67 73  0  0  0  0  0  0  0  0999 V2000
  141.9290   80.6150  222.5760 C   0  0  0  0  0  0  0  0  0  0  0  0
  141.0370   80.1940  223.5630 C   0  0  0  0  0  0  0  0  0  0  0  0
  140.4630   78.9390  223.4290 C   0  0  0  0  0  0  0  0  0  0  0  0
  140.7380   78.1010  222.3690 C   0  0  0  0  0  0  0  0  0  0  0  0
  141.6110   78.5130  221.4030 C   0  0  0  0  0  0  0  0  0  0  0  0
  142.1950   79.7720  221.5260 C   0  0  0  0  0  0  0  0  0  0  0  0
  141.9940   77.7000  220.2170 C   0  0  0  0  0  0  0  0  0  0  0  0
  140.9100   76.6850  219.9770 C   0  0  0  0  0  0  0  0  0  0  0  0
  140.5910   76.0140  221.2250 N   0  0  0  0  0  0  0  0  0  0  0  0
  140.8000   74.6170  221.4290 C   0  0  0  0  0  0  0  0  0  0  0  0
  139.9130   73.9200  222.2540 C   0  0  0  0  0  0  0  0  0  0  0  0
  140.0690   72.5700  222.5140 C   0  0  0  0  0  0  0  0  0  0  0  0
  139.1100   71.8540  223.3380 N   0  0  0  0  0  0  0  0  0  0  0  0
  139.6450   70.6330  223.9240 C   0  0  2  0  0  0  0  0  0  0  0  0
  138.5160   69.6200  224.1550 C   0  0  0  0  0  0  0  0  0  0  0  0
  139.2440   68.6640  225.1000 C   0  0  0  0  0  0  0  0  0  0  0  0
  139.9130   69.6520  226.0200 C   0  0  0  0  0  0  0  0  0  0  0  0
  140.2580   69.4880  227.3350 C   0  0  0  0  0  0  0  0  0  0  0  0
  140.8680   70.5170  228.0440 C   0  0  0  0  0  0  0  0  0  0  0  0
  141.0960   71.6840  227.3490 C   0  0  0  0  0  0  0  0  0  0  0  0
  140.7470   71.8480  226.0190 C   0  0  0  0  0  0  0  0  0  0  0  0
  140.1400   70.8320  225.3050 C   0  0  0  0  0  0  0  0  0  0  0  0
  141.1090   71.9380  221.9480 N   0  0  0  0  0  0  0  0  0  0  0  0
  141.9870   72.6010  221.1400 C   0  0  0  0  0  0  0  0  0  0  0  0
  143.0600   71.8850  220.5740 N   0  0  0  0  0  0  0  0  0  0  0  0
  144.4120   72.4200  220.6350 C   0  0  0  0  0  0  0  0  0  0  0  0
  145.0520   72.0270  219.2920 C   0  0  0  0  0  0  0  0  0  0  0  0
  145.1280   70.5440  219.3330 C   0  0  0  0  0  0  0  0  0  0  0  0
  146.2770   69.8320  219.0620 C   0  0  0  0  0  0  0  0  0  0  0  0
  146.2960   68.4320  219.1180 C   0  0  0  0  0  0  0  0  0  0  0  0
  145.1240   67.7710  219.4560 C   0  0  0  0  0  0  0  0  0  0  0  0
  143.9640   68.4610  219.7310 C   0  0  0  0  0  0  0  0  0  0  0  0
  143.9770   69.8440  219.6670 C   0  0  0  0  0  0  0  0  0  0  0  0
  142.7660   70.6190  219.9450 C   0  0  0  0  0  0  0  0  0  0  0  0
  141.8090   73.9220  220.8990 N   0  0  0  0  0  0  0  0  0  0  0  0
  140.0440   76.7720  222.3450 C   0  0  0  0  0  0  0  0  0  0  0  0
  142.4093   81.6026  222.6382 H   0  0  0  0  0  0  0  0  0  0  0  0
  140.7965   80.8383  224.4215 H   0  0  0  0  0  0  0  0  0  0  0  0
  139.7581   78.5972  224.2012 H   0  0  0  0  0  0  0  0  0  0  0  0
  142.8990   80.1044  220.7488 H   0  0  0  0  0  0  0  0  0  0  0  0
  142.0971   78.3508  219.3362 H   0  0  0  0  0  0  0  0  0  0  0  0
  142.9556   77.1962  220.3945 H   0  0  0  0  0  0  0  0  0  0  0  0
  140.0121   77.1912  219.5928 H   0  0  0  0  0  0  0  0  0  0  0  0
  141.2567   75.9450  219.2407 H   0  0  0  0  0  0  0  0  0  0  0  0
  139.0686   74.4588  222.7086 H   0  0  0  0  0  0  0  0  0  0  0  0
  138.1570   72.2020  223.4710 H   0  0  0  0  0  0  0  0  0  0  0  0
  140.4328   70.3126  223.2263 H   0  0  0  0  0  0  0  0  0  0  0  0
  137.6382   70.0817  224.6307 H   0  0  0  0  0  0  0  0  0  0  0  0
  138.0982   69.1613  223.2467 H   0  0  0  0  0  0  0  0  0  0  0  0
  138.5413   68.0142  225.6423 H   0  0  0  0  0  0  0  0  0  0  0  0
  139.9285   67.9596  224.6048 H   0  0  0  0  0  0  0  0  0  0  0  0
  140.0502   68.5312  227.8363 H   0  0  0  0  0  0  0  0  0  0  0  0
  141.1525   70.4052  229.1007 H   0  0  0  0  0  0  0  0  0  0  0  0
  141.5766   72.5229  227.8736 H   0  0  0  0  0  0  0  0  0  0  0  0
  140.9570   72.8060  225.5208 H   0  0  0  0  0  0  0  0  0  0  0  0
  144.3910   73.5139  220.7487 H   0  0  0  0  0  0  0  0  0  0  0  0
  144.9755   72.0268  221.4940 H   0  0  0  0  0  0  0  0  0  0  0  0
  144.4262   72.3607  218.4512 H   0  0  0  0  0  0  0  0  0  0  0  0
  146.0387   72.4915  219.1483 H   0  0  0  0  0  0  0  0  0  0  0  0
  147.1969   70.3736  218.7966 H   0  0  0  0  0  0  0  0  0  0  0  0
  147.2168   67.8713  218.8995 H   0  0  0  0  0  0  0  0  0  0  0  0
  145.1210   66.6721  219.5054 H   0  0  0  0  0  0  0  0  0  0  0  0
  143.0426   67.9222  219.9970 H   0  0  0  0  0  0  0  0  0  0  0  0
  142.2412   70.8081  218.9969 H   0  0  0  0  0  0  0  0  0  0  0  0
  142.1432   70.0345  220.6382 H   0  0  0  0  0  0  0  0  0  0  0  0
  138.9619   76.9154  222.2091 H   0  0  0  0  0  0  0  0  0  0  0  0
  140.2019   76.2344  223.2916 H   0  0  0  0  0  0  0  0  0  0  0  0
  1  2  2  0
  2  3  1  0
  3  4  2  0
  4  5  1  0
  5  6  2  0
  5  7  1  0
  7  8  1  0
  8  9  1  0
  9 10  1  0
 10 11  2  0
 11 12  1  0
 12 13  1  0
 13 14  1  0
 14 15  1  0
 15 16  1  0
 16 17  1  0
 17 18  2  0
 18 19  1  0
 19 20  2  0
 20 21  1  0
 21 22  2  0
 12 23  2  0
 23 24  1  0
 24 25  1  0
 25 26  1  0
 26 27  1  0
 27 28  1  0
 28 29  2  0
 29 30  1  0
 30 31  2  0
 31 32  1  0
 32 33  2  0
 33 34  1  0
 24 35  2  0
  9 36  1  0
  6  1  1  0
 35 10  1  0
 36  4  1  0
 22 14  1  0
 34 25  1  0
 22 17  1  0
 33 28  1  0
  1 37  1  0
  2 38  1  0
  3 39  1  0
  6 40  1  0
  7 41  1  0
  7 42  1  0
  8 43  1  0
  8 44  1  0
 11 45  1  0
 13 46  1  0
 14 47  1  6
 15 48  1  0
 15 49  1  0
 16 50  1  0
 16 51  1  0
 18 52  1  0
 19 53  1  0
 20 54  1  0
 21 55  1  0
 26 56  1  0
 26 57  1  0
 27 58  1  0
 27 59  1  0
 29 60  1  0
 30 61  1  0
 31 62  1  0
 32 63  1  0
 34 64  1  0
 34 65  1  0
 36 66  1  0
 36 67  1  0
M  END
>  <smiles>  (5) 
c1ccc2c(c1)CCN(c1cc(N[C@@H]3CCc4ccccc43)nc(N3CCc4ccccc4C3)n1)C2

>  <score_type>  (5) 
oracle

>  <origin>  (5) 
autodockgpu

>  <m_score__min__energy>  (5) 
-11.31

>  <m_primary>  (5) 
energy

>  <meeko>  (5) 
{"free_energy": -11.3, "intermolecular_energy": -12.49, "internal_energy": -1.21, "cluster_size": 20, "cluster_id": 1, "rank_in_cluster": 6}

>  <energy>  (5) 
-11.3

>  <cluster_rmsd>  (5) 
0.06

>  <rmsd>  (5) 
270.47

>  <cluster>  (5) 
1

$$$$

     RDKit          3D

 67 73  0  0  0  0  0  0  0  0999 V2000
  142.4990   80.4910  222.6220 C   0  0  0  0  0  0  0  0  0  0  0  0
  142.2020   79.8650  223.8330 C   0  0  0  0  0  0  0  0  0  0  0  0
  141.5550   78.6400  223.7920 C   0  0  0  0  0  0  0  0  0  0  0  0
  141.1970   78.0230  222.6120 C   0  0  0  0  0  0  0  0  0  0  0  0
  141.4880   78.6350  221.4250 C   0  0  0  0  0  0  0  0  0  0  0  0
  142.1380   79.8670  221.4530 C   0  0  0  0  0  0  0  0  0  0  0  0
  141.1620   78.0700  220.0880 C   0  0  0  0  0  0  0  0  0  0  0  0
  140.0390   77.0840  220.2590 C   0  0  0  0  0  0  0  0  0  0  0  0
  140.3490   76.1820  221.3550 N   0  0  0  0  0  0  0  0  0  0  0  0
  140.5370   74.7800  221.1740 C   0  0  0  0  0  0  0  0  0  0  0  0
  141.0190   74.3210  219.9430 C   0  0  0  0  0  0  0  0  0  0  0  0
  141.2030   72.9730  219.6910 C   0  0  0  0  0  0  0  0  0  0  0  0
  141.7470   72.5210  218.4220 N   0  0  0  0  0  0  0  0  0  0  0  0
  143.1340   72.0840  218.5090 C   0  0  2  0  0  0  0  0  0  0  0  0
  143.2240   70.7730  219.3020 C   0  0  0  0  0  0  0  0  0  0  0  0
  144.7280   70.7680  219.5800 C   0  0  0  0  0  0  0  0  0  0  0  0
  144.9320   72.2050  219.9850 C   0  0  0  0  0  0  0  0  0  0  0  0
  145.8750   72.7210  220.8340 C   0  0  0  0  0  0  0  0  0  0  0  0
  145.9150   74.0850  221.1050 C   0  0  0  0  0  0  0  0  0  0  0  0
  144.9660   74.8600  220.4770 C   0  0  0  0  0  0  0  0  0  0  0  0
  144.0140   74.3360  219.6190 C   0  0  0  0  0  0  0  0  0  0  0  0
  143.9640   72.9820  219.3430 C   0  0  0  0  0  0  0  0  0  0  0  0
  140.9020   72.1050  220.6690 N   0  0  0  0  0  0  0  0  0  0  0  0
  140.4300   72.5320  221.8770 C   0  0  0  0  0  0  0  0  0  0  0  0
  140.1320   71.5730  222.8650 N   0  0  0  0  0  0  0  0  0  0  0  0
  139.5530   70.2910  222.4910 C   0  0  0  0  0  0  0  0  0  0  0  0
  138.5620   69.9620  223.6210 C   0  0  0  0  0  0  0  0  0  0  0  0
  139.4150   69.7640  224.8210 C   0  0  0  0  0  0  0  0  0  0  0  0
  139.3280   68.6610  225.6440 C   0  0  0  0  0  0  0  0  0  0  0  0
  140.1590   68.5220  226.7640 C   0  0  0  0  0  0  0  0  0  0  0  0
  141.0810   69.5240  227.0280 C   0  0  0  0  0  0  0  0  0  0  0  0
  141.1870   70.6350  226.2200 C   0  0  0  0  0  0  0  0  0  0  0  0
  140.3500   70.7440  225.1210 C   0  0  0  0  0  0  0  0  0  0  0  0
  140.4220   71.9100  224.2380 C   0  0  0  0  0  0  0  0  0  0  0  0
  140.2620   73.8570  222.0990 N   0  0  0  0  0  0  0  0  0  0  0  0
  140.4980   76.7010  222.7100 C   0  0  0  0  0  0  0  0  0  0  0  0
  143.0116   81.4641  222.6039 H   0  0  0  0  0  0  0  0  0  0  0  0
  142.4734   80.3301  224.7922 H   0  0  0  0  0  0  0  0  0  0  0  0
  141.3169   78.1384  224.7416 H   0  0  0  0  0  0  0  0  0  0  0  0
  142.3720   80.3609  220.4984 H   0  0  0  0  0  0  0  0  0  0  0  0
  140.8498   78.8766  219.4083 H   0  0  0  0  0  0  0  0  0  0  0  0
  142.0442   77.5724  219.6589 H   0  0  0  0  0  0  0  0  0  0  0  0
  139.1072   77.6246  220.4814 H   0  0  0  0  0  0  0  0  0  0  0  0
  139.9149   76.5053  219.3318 H   0  0  0  0  0  0  0  0  0  0  0  0
  141.2578   75.0508  219.1553 H   0  0  0  0  0  0  0  0  0  0  0  0
  141.1830   72.5250  217.5680 H   0  0  0  0  0  0  0  0  0  0  0  0
  143.4746   72.0303  217.4644 H   0  0  0  0  0  0  0  0  0  0  0  0
  142.6328   70.8096  220.2289 H   0  0  0  0  0  0  0  0  0  0  0  0
  142.8334   69.8812  218.7899 H   0  0  0  0  0  0  0  0  0  0  0  0
  144.9892   70.0750  220.3933 H   0  0  0  0  0  0  0  0  0  0  0  0
  145.3508   70.4345  218.7369 H   0  0  0  0  0  0  0  0  0  0  0  0
  146.6079   72.0503  221.3062 H   0  0  0  0  0  0  0  0  0  0  0  0
  146.6635   74.5202  221.7835 H   0  0  0  0  0  0  0  0  0  0  0  0
  144.9640   75.9438  220.6653 H   0  0  0  0  0  0  0  0  0  0  0  0
  143.2833   75.0099  219.1478 H   0  0  0  0  0  0  0  0  0  0  0  0
  139.0292   70.3690  221.5269 H   0  0  0  0  0  0  0  0  0  0  0  0
  140.3179   69.5099  222.3693 H   0  0  0  0  0  0  0  0  0  0  0  0
  137.8600   70.7944  223.7765 H   0  0  0  0  0  0  0  0  0  0  0  0
  137.9490   69.0772  223.3941 H   0  0  0  0  0  0  0  0  0  0  0  0
  138.5924   67.8753  225.4171 H   0  0  0  0  0  0  0  0  0  0  0  0
  140.0819   67.6404  227.4173 H   0  0  0  0  0  0  0  0  0  0  0  0
  141.7423   69.4296  227.9019 H   0  0  0  0  0  0  0  0  0  0  0  0
  141.9229   71.4215  226.4434 H   0  0  0  0  0  0  0  0  0  0  0  0
  139.6930   72.6592  224.5804 H   0  0  0  0  0  0  0  0  0  0  0  0
  141.4488   72.3022  224.2797 H   0  0  0  0  0  0  0  0  0  0  0  0
  139.5087   76.8327  223.1726 H   0  0  0  0  0  0  0  0  0  0  0  0
  141.0771   76.0018  223.3311 H   0  0  0  0  0  0  0  0  0  0  0  0
  1  2  2  0
  2  3  1  0
  3  4  2  0
  4  5  1  0
  5  6  2  0
  5  7  1  0
  7  8  1  0
  8  9  1  0
  9 10  1  0
 10 11  2  0
 11 12  1  0
 12 13  1  0
 13 14  1  0
 14 15  1  0
 15 16  1  0
 16 17  1  0
 17 18  2  0
 18 19  1  0
 19 20  2  0
 20 21  1  0
 21 22  2  0
 12 23  2  0
 23 24  1  0
 24 25  1  0
 25 26  1  0
 26 27  1  0
 27 28  1  0
 28 29  2  0
 29 30  1  0
 30 31  2  0
 31 32  1  0
 32 33  2  0
 33 34  1  0
 24 35  2  0
  9 36  1  0
  6  1  1  0
 35 10  1  0
 36  4  1  0
 22 14  1  0
 34 25  1  0
 22 17  1  0
 33 28  1  0
  1 37  1  0
  2 38  1  0
  3 39  1  0
  6 40  1  0
  7 41  1  0
  7 42  1  0
  8 43  1  0
  8 44  1  0
 11 45  1  0
 13 46  1  0
 14 47  1  6
 15 48  1  0
 15 49  1  0
 16 50  1  0
 16 51  1  0
 18 52  1  0
 19 53  1  0
 20 54  1  0
 21 55  1  0
 26 56  1  0
 26 57  1  0
 27 58  1  0
 27 59  1  0
 29 60  1  0
 30 61  1  0
 31 62  1  0
 32 63  1  0
 34 64  1  0
 34 65  1  0
 36 66  1  0
 36 67  1  0
M  END
>  <smiles>  (6) 
c1ccc2c(c1)CCN(c1cc(N[C@@H]3CCc4ccccc43)nc(N3CCc4ccccc4C3)n1)C2

>  <score_type>  (6) 
oracle

>  <origin>  (6) 
autodockgpu

>  <m_score__min__energy>  (6) 
-11.31

>  <m_primary>  (6) 
energy

>  <meeko>  (6) 
{"free_energy": -10.75, "intermolecular_energy": -11.95, "internal_energy": -1.6, "cluster_size": 20, "cluster_id": 1, "rank_in_cluster": 17}

>  <energy>  (6) 
-11.3

>  <cluster_rmsd>  (6) 
0.05

>  <rmsd>  (6) 
270.47

>  <cluster>  (6) 
1

$$$$

     RDKit          3D

 67 73  0  0  0  0  0  0  0  0999 V2000
  141.9610   80.6320  222.4790 C   0  0  0  0  0  0  0  0  0  0  0  0
  141.1100   80.2190  223.5030 C   0  0  0  0  0  0  0  0  0  0  0  0
  140.5300   78.9630  223.4010 C   0  0  0  0  0  0  0  0  0  0  0  0
  140.7620   78.1180  222.3370 C   0  0  0  0  0  0  0  0  0  0  0  0
  141.5970   78.5220  221.3340 C   0  0  0  0  0  0  0  0  0  0  0  0
  142.1850   79.7820  221.4240 C   0  0  0  0  0  0  0  0  0  0  0  0
  141.9320   77.7010  220.1390 C   0  0  0  0  0  0  0  0  0  0  0  0
  140.8390   76.6840  219.9500 C   0  0  0  0  0  0  0  0  0  0  0  0
  140.5690   76.0220  221.2140 N   0  0  0  0  0  0  0  0  0  0  0  0
  140.7860   74.6270  221.4190 C   0  0  0  0  0  0  0  0  0  0  0  0
  139.9030   73.9260  222.2450 C   0  0  0  0  0  0  0  0  0  0  0  0
  140.0660   72.5770  222.5070 C   0  0  0  0  0  0  0  0  0  0  0  0
  139.1110   71.8570  223.3310 N   0  0  0  0  0  0  0  0  0  0  0  0
  139.6560   70.6440  223.9250 C   0  0  2  0  0  0  0  0  0  0  0  0
  138.5320   69.6270  224.1700 C   0  0  0  0  0  0  0  0  0  0  0  0
  139.2700   68.6830  225.1200 C   0  0  0  0  0  0  0  0  0  0  0  0
  139.9380   69.6830  226.0280 C   0  0  0  0  0  0  0  0  0  0  0  0
  140.2890   69.5320  227.3440 C   0  0  0  0  0  0  0  0  0  0  0  0
  140.8960   70.5710  228.0410 C   0  0  0  0  0  0  0  0  0  0  0  0
  141.1150   71.7330  227.3350 C   0  0  0  0  0  0  0  0  0  0  0  0
  140.7590   71.8830  226.0050 C   0  0  0  0  0  0  0  0  0  0  0  0
  140.1550   70.8570  225.3030 C   0  0  0  0  0  0  0  0  0  0  0  0
  141.1100   71.9500  221.9410 N   0  0  0  0  0  0  0  0  0  0  0  0
  141.9840   72.6170  221.1320 C   0  0  0  0  0  0  0  0  0  0  0  0
  143.0610   71.9060  220.5670 N   0  0  0  0  0  0  0  0  0  0  0  0
  144.4120   72.4450  220.6340 C   0  0  0  0  0  0  0  0  0  0  0  0
  145.0560   72.0590  219.2920 C   0  0  0  0  0  0  0  0  0  0  0  0
  145.1370   70.5760  219.3280 C   0  0  0  0  0  0  0  0  0  0  0  0
  146.2890   69.8690  219.0580 C   0  0  0  0  0  0  0  0  0  0  0  0
  146.3120   68.4680  219.1080 C   0  0  0  0  0  0  0  0  0  0  0  0
  145.1410   67.8020  219.4410 C   0  0  0  0  0  0  0  0  0  0  0  0
  143.9770   68.4880  219.7150 C   0  0  0  0  0  0  0  0  0  0  0  0
  143.9870   69.8720  219.6560 C   0  0  0  0  0  0  0  0  0  0  0  0
  142.7730   70.6420  219.9320 C   0  0  0  0  0  0  0  0  0  0  0  0
  141.7990   73.9370  220.8910 N   0  0  0  0  0  0  0  0  0  0  0  0
  140.0680   76.7890  222.3500 C   0  0  0  0  0  0  0  0  0  0  0  0
  142.4438   81.6197  222.5154 H   0  0  0  0  0  0  0  0  0  0  0  0
  140.9046   80.8695  224.3659 H   0  0  0  0  0  0  0  0  0  0  0  0
  139.8564   78.6272  224.2032 H   0  0  0  0  0  0  0  0  0  0  0  0
  142.8564   80.1094  220.6165 H   0  0  0  0  0  0  0  0  0  0  0  0
  141.9992   78.3458  219.2504 H   0  0  0  0  0  0  0  0  0  0  0  0
  142.9002   77.1985  220.2808 H   0  0  0  0  0  0  0  0  0  0  0  0
  139.9267   77.1876  219.5977 H   0  0  0  0  0  0  0  0  0  0  0  0
  141.1570   75.9383  219.2065 H   0  0  0  0  0  0  0  0  0  0  0  0
  139.0558   74.4609  222.6990 H   0  0  0  0  0  0  0  0  0  0  0  0
  138.1540   72.1970  223.4590 H   0  0  0  0  0  0  0  0  0  0  0  0
  140.4431   70.3224  223.2271 H   0  0  0  0  0  0  0  0  0  0  0  0
  137.6542   70.0885  224.6459 H   0  0  0  0  0  0  0  0  0  0  0  0
  138.1117   69.1585  223.2679 H   0  0  0  0  0  0  0  0  0  0  0  0
  138.5736   68.0342  225.6714 H   0  0  0  0  0  0  0  0  0  0  0  0
  139.9560   67.9780  224.6277 H   0  0  0  0  0  0  0  0  0  0  0  0
  140.0884   68.5785  227.8546 H   0  0  0  0  0  0  0  0  0  0  0  0
  141.1851   70.4703  229.0975 H   0  0  0  0  0  0  0  0  0  0  0  0
  141.5936   72.5790  227.8500 H   0  0  0  0  0  0  0  0  0  0  0  0
  140.9610   72.8377  225.4973 H   0  0  0  0  0  0  0  0  0  0  0  0
  144.3876   73.5384  220.7518 H   0  0  0  0  0  0  0  0  0  0  0  0
  144.9743   72.0504  221.4931 H   0  0  0  0  0  0  0  0  0  0  0  0
  144.4310   72.3935  218.4509 H   0  0  0  0  0  0  0  0  0  0  0  0
  146.0415   72.5273  219.1522 H   0  0  0  0  0  0  0  0  0  0  0  0
  147.2082   70.4145  218.7982 H   0  0  0  0  0  0  0  0  0  0  0  0
  147.2348   67.9109  218.8888 H   0  0  0  0  0  0  0  0  0  0  0  0
  145.1415   66.7030  219.4873 H   0  0  0  0  0  0  0  0  0  0  0  0
  143.0562   67.9458  219.9760 H   0  0  0  0  0  0  0  0  0  0  0  0
  142.2515   70.8333  218.9826 H   0  0  0  0  0  0  0  0  0  0  0  0
  142.1490   70.0530  220.6202 H   0  0  0  0  0  0  0  0  0  0  0  0
  138.9813   76.9318  222.2570 H   0  0  0  0  0  0  0  0  0  0  0  0
  140.2647   76.2582  223.2932 H   0  0  0  0  0  0  0  0  0  0  0  0
  1  2  2  0
  2  3  1  0
  3  4  2  0
  4  5  1  0
  5  6  2  0
  5  7  1  0
  7  8  1  0
  8  9  1  0
  9 10  1  0
 10 11  2  0
 11 12  1  0
 12 13  1  0
 13 14  1  0
 14 15  1  0
 15 16  1  0
 16 17  1  0
 17 18  2  0
 18 19  1  0
 19 20  2  0
 20 21  1  0
 21 22  2  0
 12 23  2  0
 23 24  1  0
 24 25  1  0
 25 26  1  0
 26 27  1  0
 27 28  1  0
 28 29  2  0
 29 30  1  0
 30 31  2  0
 31 32  1  0
 32 33  2  0
 33 34  1  0
 24 35  2  0
  9 36  1  0
  6  1  1  0
 35 10  1  0
 36  4  1  0
 22 14  1  0
 34 25  1  0
 22 17  1  0
 33 28  1  0
  1 37  1  0
  2 38  1  0
  3 39  1  0
  6 40  1  0
  7 41  1  0
  7 42  1  0
  8 43  1  0
  8 44  1  0
 11 45  1  0
 13 46  1  0
 14 47  1  6
 15 48  1  0
 15 49  1  0
 16 50  1  0
 16 51  1  0
 18 52  1  0
 19 53  1  0
 20 54  1  0
 21 55  1  0
 26 56  1  0
 26 57  1  0
 27 58  1  0
 27 59  1  0
 29 60  1  0
 30 61  1  0
 31 62  1  0
 32 63  1  0
 34 64  1  0
 34 65  1  0
 36 66  1  0
 36 67  1  0
M  END
>  <smiles>  (7) 
c1ccc2c(c1)CCN(c1cc(N[C@@H]3CCc4ccccc43)nc(N3CCc4ccccc4C3)n1)C2

>  <score_type>  (7) 
oracle

>  <origin>  (7) 
autodockgpu

>  <m_score__min__energy>  (7) 
-11.31

>  <m_primary>  (7) 
energy

>  <meeko>  (7) 
{"free_energy": -11.29, "intermolecular_energy": -12.49, "internal_energy": -1.22, "cluster_size": 20, "cluster_id": 1, "rank_in_cluster": 8}

>  <energy>  (7) 
-11.3

>  <cluster_rmsd>  (7) 
0.05

>  <rmsd>  (7) 
270.47

>  <cluster>  (7) 
1

$$$$

     RDKit          3D

 67 73  0  0  0  0  0  0  0  0999 V2000
  142.5540   80.5320  222.6390 C   0  0  0  0  0  0  0  0  0  0  0  0
  142.2420   79.9110  223.8490 C   0  0  0  0  0  0  0  0  0  0  0  0
  141.5740   78.6970  223.8040 C   0  0  0  0  0  0  0  0  0  0  0  0
  141.2100   78.0880  222.6220 C   0  0  0  0  0  0  0  0  0  0  0  0
  141.5160   78.6950  221.4370 C   0  0  0  0  0  0  0  0  0  0  0  0
  142.1870   79.9160  221.4690 C   0  0  0  0  0  0  0  0  0  0  0  0
  141.1860   78.1370  220.0980 C   0  0  0  0  0  0  0  0  0  0  0  0
  140.0450   77.1700  220.2640 C   0  0  0  0  0  0  0  0  0  0  0  0
  140.3360   76.2620  221.3600 N   0  0  0  0  0  0  0  0  0  0  0  0
  140.5000   74.8570  221.1790 C   0  0  0  0  0  0  0  0  0  0  0  0
  140.9800   74.3910  219.9510 C   0  0  0  0  0  0  0  0  0  0  0  0
  141.1420   73.0410  219.6980 C   0  0  0  0  0  0  0  0  0  0  0  0
  141.6850   72.5800  218.4310 N   0  0  0  0  0  0  0  0  0  0  0  0
  143.0560   72.0960  218.5300 C   0  0  2  0  0  0  0  0  0  0  0  0
  143.0970   70.7940  219.3420 C   0  0  0  0  0  0  0  0  0  0  0  0
  144.5980   70.7400  219.6270 C   0  0  0  0  0  0  0  0  0  0  0  0
  144.8510   72.1750  220.0110 C   0  0  0  0  0  0  0  0  0  0  0  0
  145.8090   72.6710  220.8560 C   0  0  0  0  0  0  0  0  0  0  0  0
  145.8960   74.0350  221.1080 C   0  0  0  0  0  0  0  0  0  0  0  0
  144.9770   74.8340  220.4650 C   0  0  0  0  0  0  0  0  0  0  0  0
  144.0100   74.3320  219.6120 C   0  0  0  0  0  0  0  0  0  0  0  0
  143.9140   72.9770  219.3550 C   0  0  0  0  0  0  0  0  0  0  0  0
  140.8210   72.1770  220.6730 N   0  0  0  0  0  0  0  0  0  0  0  0
  140.3500   72.6110  221.8790 C   0  0  0  0  0  0  0  0  0  0  0  0
  140.0300   71.6570  222.8650 N   0  0  0  0  0  0  0  0  0  0  0  0
  139.2380   70.4840  222.5200 C   0  0  0  0  0  0  0  0  0  0  0  0
  138.3410   70.2410  223.7460 C   0  0  0  0  0  0  0  0  0  0  0  0
  139.2840   69.8720  224.8330 C   0  0  0  0  0  0  0  0  0  0  0  0
  139.1330   68.7540  225.6260 C   0  0  0  0  0  0  0  0  0  0  0  0
  140.0540   68.4510  226.6370 C   0  0  0  0  0  0  0  0  0  0  0  0
  141.1310   69.3040  226.8250 C   0  0  0  0  0  0  0  0  0  0  0  0
  141.3030   70.4270  226.0450 C   0  0  0  0  0  0  0  0  0  0  0  0
  140.3750   70.7010  225.0540 C   0  0  0  0  0  0  0  0  0  0  0  0
  140.5130   71.8860  224.2050 C   0  0  0  0  0  0  0  0  0  0  0  0
  140.2030   73.9390  222.1020 N   0  0  0  0  0  0  0  0  0  0  0  0
  140.4880   76.7780  222.7170 C   0  0  0  0  0  0  0  0  0  0  0  0
  143.0835   81.4960  222.6233 H   0  0  0  0  0  0  0  0  0  0  0  0
  142.5177   80.3708  224.8095 H   0  0  0  0  0  0  0  0  0  0  0  0
  141.3237   78.1984  224.7520 H   0  0  0  0  0  0  0  0  0  0  0  0
  142.4329   80.4069  220.5158 H   0  0  0  0  0  0  0  0  0  0  0  0
  140.8905   78.9494  219.4178 H   0  0  0  0  0  0  0  0  0  0  0  0
  142.0613   77.6249  219.6718 H   0  0  0  0  0  0  0  0  0  0  0  0
  139.1218   77.7263  220.4838 H   0  0  0  0  0  0  0  0  0  0  0  0
  139.9138   76.5945  219.3358 H   0  0  0  0  0  0  0  0  0  0  0  0
  141.2355   75.1174  219.1655 H   0  0  0  0  0  0  0  0  0  0  0  0
  141.1320   72.6090  217.5720 H   0  0  0  0  0  0  0  0  0  0  0  0
  143.3986   72.0153  217.4878 H   0  0  0  0  0  0  0  0  0  0  0  0
  142.5037   70.8646  220.2656 H   0  0  0  0  0  0  0  0  0  0  0  0
  142.6776   69.9093  218.8406 H   0  0  0  0  0  0  0  0  0  0  0  0
  144.8311   70.0508  220.4520 H   0  0  0  0  0  0  0  0  0  0  0  0
  145.2122   70.3717  218.7921 H   0  0  0  0  0  0  0  0  0  0  0  0
  146.5169   71.9821  221.3401 H   0  0  0  0  0  0  0  0  0  0  0  0
  146.6567   74.4532  221.7836 H   0  0  0  0  0  0  0  0  0  0  0  0
  145.0133   75.9198  220.6372 H   0  0  0  0  0  0  0  0  0  0  0  0
  143.3043   75.0241  219.1293 H   0  0  0  0  0  0  0  0  0  0  0  0
  138.6277   70.6779  221.6256 H   0  0  0  0  0  0  0  0  0  0  0  0
  139.8670   69.6123  222.2864 H   0  0  0  0  0  0  0  0  0  0  0  0
  137.7850   71.1534  224.0074 H   0  0  0  0  0  0  0  0  0  0  0  0
  137.5882   69.4599  223.5638 H   0  0  0  0  0  0  0  0  0  0  0  0
  138.2733   68.0877  225.4616 H   0  0  0  0  0  0  0  0  0  0  0  0
  139.9260   67.5581  227.2665 H   0  0  0  0  0  0  0  0  0  0  0  0
  141.8640   69.0794  227.6139 H   0  0  0  0  0  0  0  0  0  0  0  0
  142.1624   71.0942  226.2067 H   0  0  0  0  0  0  0  0  0  0  0  0
  139.9387   72.7107  224.6522 H   0  0  0  0  0  0  0  0  0  0  0  0
  141.5833   72.1316  224.1403 H   0  0  0  0  0  0  0  0  0  0  0  0
  139.4992   76.9264  223.1754 H   0  0  0  0  0  0  0  0  0  0  0  0
  141.0521   76.0688  223.3405 H   0  0  0  0  0  0  0  0  0  0  0  0
  1  2  2  0
  2  3  1  0
  3  4  2  0
  4  5  1  0
  5  6  2  0
  5  7  1  0
  7  8  1  0
  8  9  1  0
  9 10  1  0
 10 11  2  0
 11 12  1  0
 12 13  1  0
 13 14  1  0
 14 15  1  0
 15 16  1  0
 16 17  1  0
 17 18  2  0
 18 19  1  0
 19 20  2  0
 20 21  1  0
 21 22  2  0
 12 23  2  0
 23 24  1  0
 24 25  1  0
 25 26  1  0
 26 27  1  0
 27 28  1  0
 28 29  2  0
 29 30  1  0
 30 31  2  0
 31 32  1  0
 32 33  2  0
 33 34  1  0
 24 35  2  0
  9 36  1  0
  6  1  1  0
 35 10  1  0
 36  4  1  0
 22 14  1  0
 34 25  1  0
 22 17  1  0
 33 28  1  0
  1 37  1  0
  2 38  1  0
  3 39  1  0
  6 40  1  0
  7 41  1  0
  7 42  1  0
  8 43  1  0
  8 44  1  0
 11 45  1  0
 13 46  1  0
 14 47  1  6
 15 48  1  0
 15 49  1  0
 16 50  1  0
 16 51  1  0
 18 52  1  0
 19 53  1  0
 20 54  1  0
 21 55  1  0
 26 56  1  0
 26 57  1  0
 27 58  1  0
 27 59  1  0
 29 60  1  0
 30 61  1  0
 31 62  1  0
 32 63  1  0
 34 64  1  0
 34 65  1  0
 36 66  1  0
 36 67  1  0
M  END
>  <smiles>  (8) 
c1ccc2c(c1)CCN(c1cc(N[C@@H]3CCc4ccccc43)nc(N3CCc4ccccc4C3)n1)C2

>  <score_type>  (8) 
oracle

>  <origin>  (8) 
autodockgpu

>  <m_score__min__energy>  (8) 
-11.31

>  <m_primary>  (8) 
energy

>  <meeko>  (8) 
{"free_energy": -10.74, "intermolecular_energy": -11.93, "internal_energy": -1.63, "cluster_size": 20, "cluster_id": 1, "rank_in_cluster": 19}

>  <energy>  (8) 
-11.29

>  <cluster_rmsd>  (8) 
0.08

>  <rmsd>  (8) 
270.46

>  <cluster>  (8) 
1

$$$$

     RDKit          3D

 67 73  0  0  0  0  0  0  0  0999 V2000
  142.5650   80.4360  222.6320 C   0  0  0  0  0  0  0  0  0  0  0  0
  142.2600   79.8140  223.8430 C   0  0  0  0  0  0  0  0  0  0  0  0
  141.6030   78.5940  223.8020 C   0  0  0  0  0  0  0  0  0  0  0  0
  141.2430   77.9790  222.6210 C   0  0  0  0  0  0  0  0  0  0  0  0
  141.5410   78.5870  221.4350 C   0  0  0  0  0  0  0  0  0  0  0  0
  142.2020   79.8140  221.4630 C   0  0  0  0  0  0  0  0  0  0  0  0
  141.2140   78.0230  220.0970 C   0  0  0  0  0  0  0  0  0  0  0  0
  140.0820   77.0460  220.2670 C   0  0  0  0  0  0  0  0  0  0  0  0
  140.3830   76.1430  221.3650 N   0  0  0  0  0  0  0  0  0  0  0  0
  140.5590   74.7390  221.1860 C   0  0  0  0  0  0  0  0  0  0  0  0
  141.0350   74.2750  219.9560 C   0  0  0  0  0  0  0  0  0  0  0  0
  141.2080   72.9250  219.7050 C   0  0  0  0  0  0  0  0  0  0  0  0
  141.7460   72.4660  218.4360 N   0  0  0  0  0  0  0  0  0  0  0  0
  143.1300   72.0180  218.5210 C   0  0  2  0  0  0  0  0  0  0  0  0
  143.2110   70.7090  219.3200 C   0  0  0  0  0  0  0  0  0  0  0  0
  144.7150   70.6930  219.5940 C   0  0  0  0  0  0  0  0  0  0  0  0
  144.9320   72.1300  219.9920 C   0  0  0  0  0  0  0  0  0  0  0  0
  145.8820   72.6420  220.8370 C   0  0  0  0  0  0  0  0  0  0  0  0
  145.9340   74.0060  221.1020 C   0  0  0  0  0  0  0  0  0  0  0  0
  144.9900   74.7870  220.4730 C   0  0  0  0  0  0  0  0  0  0  0  0
  144.0310   74.2670  219.6200 C   0  0  0  0  0  0  0  0  0  0  0  0
  143.9700   72.9130  219.3500 C   0  0  0  0  0  0  0  0  0  0  0  0
  140.9020   72.0610  220.6850 N   0  0  0  0  0  0  0  0  0  0  0  0
  140.4360   72.4930  221.8930 C   0  0  0  0  0  0  0  0  0  0  0  0
  140.1320   71.5390  222.8830 N   0  0  0  0  0  0  0  0  0  0  0  0
  139.5430   70.2600  222.5130 C   0  0  0  0  0  0  0  0  0  0  0  0
  138.5520   69.9410  223.6450 C   0  0  0  0  0  0  0  0  0  0  0  0
  139.4050   69.7390  224.8450 C   0  0  0  0  0  0  0  0  0  0  0  0
  139.3110   68.6380  225.6700 C   0  0  0  0  0  0  0  0  0  0  0  0
  140.1430   68.4950  226.7890 C   0  0  0  0  0  0  0  0  0  0  0  0
  141.0720   69.4910  227.0500 C   0  0  0  0  0  0  0  0  0  0  0  0
  141.1850   70.6000  226.2390 C   0  0  0  0  0  0  0  0  0  0  0  0
  140.3480   70.7130  225.1410 C   0  0  0  0  0  0  0  0  0  0  0  0
  140.4260   71.8770  224.2560 C   0  0  0  0  0  0  0  0  0  0  0  0
  140.2780   73.8200  222.1130 N   0  0  0  0  0  0  0  0  0  0  0  0
  140.5330   76.6630  222.7200 C   0  0  0  0  0  0  0  0  0  0  0  0
  143.0856   81.4048  222.6141 H   0  0  0  0  0  0  0  0  0  0  0  0
  142.5329   80.2781  224.8023 H   0  0  0  0  0  0  0  0  0  0  0  0
  141.3584   78.0953  224.7515 H   0  0  0  0  0  0  0  0  0  0  0  0
  142.4429   80.3046  220.5084 H   0  0  0  0  0  0  0  0  0  0  0  0
  140.9101   78.8312  219.4155 H   0  0  0  0  0  0  0  0  0  0  0  0
  142.0932   77.5180  219.6704 H   0  0  0  0  0  0  0  0  0  0  0  0
  139.1541   77.5944  220.4869 H   0  0  0  0  0  0  0  0  0  0  0  0
  139.9546   76.4672  219.3403 H   0  0  0  0  0  0  0  0  0  0  0  0
  141.2784   75.0020  219.1671 H   0  0  0  0  0  0  0  0  0  0  0  0
  141.1810   72.4730  217.5830 H   0  0  0  0  0  0  0  0  0  0  0  0
  143.4675   71.9573  217.4758 H   0  0  0  0  0  0  0  0  0  0  0  0
  142.6225   70.7546  220.2482 H   0  0  0  0  0  0  0  0  0  0  0  0
  142.8116   69.8182  218.8130 H   0  0  0  0  0  0  0  0  0  0  0  0
  144.9726   70.0015  220.4097 H   0  0  0  0  0  0  0  0  0  0  0  0
  145.3328   70.3507  218.7507 H   0  0  0  0  0  0  0  0  0  0  0  0
  146.6105   71.9672  221.3102 H   0  0  0  0  0  0  0  0  0  0  0  0
  146.6878   74.4376  221.7770 H   0  0  0  0  0  0  0  0  0  0  0  0
  144.9981   75.8716  220.6563 H   0  0  0  0  0  0  0  0  0  0  0  0
  143.3040   74.9445  219.1484 H   0  0  0  0  0  0  0  0  0  0  0  0
  139.0181   70.3395  221.5496 H   0  0  0  0  0  0  0  0  0  0  0  0
  140.3020   69.4731  222.3919 H   0  0  0  0  0  0  0  0  0  0  0  0
  137.8565   70.7791  223.7997 H   0  0  0  0  0  0  0  0  0  0  0  0
  137.9325   69.0601  223.4208 H   0  0  0  0  0  0  0  0  0  0  0  0
  138.5692   67.8573  225.4457 H   0  0  0  0  0  0  0  0  0  0  0  0
  140.0611   67.6148  227.4437 H   0  0  0  0  0  0  0  0  0  0  0  0
  141.7334   69.3939  227.9236 H   0  0  0  0  0  0  0  0  0  0  0  0
  141.9269   71.3816  226.4599 H   0  0  0  0  0  0  0  0  0  0  0  0
  139.7020   72.6312  224.5980 H   0  0  0  0  0  0  0  0  0  0  0  0
  141.4552   72.2632  224.2958 H   0  0  0  0  0  0  0  0  0  0  0  0
  139.5438   76.8036  223.1801 H   0  0  0  0  0  0  0  0  0  0  0  0
  141.1047   75.9601  223.3438 H   0  0  0  0  0  0  0  0  0  0  0  0
  1  2  2  0
  2  3  1  0
  3  4  2  0
  4  5  1  0
  5  6  2  0
  5  7  1  0
  7  8  1  0
  8  9  1  0
  9 10  1  0
 10 11  2  0
 11 12  1  0
 12 13  1  0
 13 14  1  0
 14 15  1  0
 15 16  1  0
 16 17  1  0
 17 18  2  0
 18 19  1  0
 19 20  2  0
 20 21  1  0
 21 22  2  0
 12 23  2  0
 23 24  1  0
 24 25  1  0
 25 26  1  0
 26 27  1  0
 27 28  1  0
 28 29  2  0
 29 30  1  0
 30 31  2  0
 31 32  1  0
 32 33  2  0
 33 34  1  0
 24 35  2  0
  9 36  1  0
  6  1  1  0
 35 10  1  0
 36  4  1  0
 22 14  1  0
 34 25  1  0
 22 17  1  0
 33 28  1  0
  1 37  1  0
  2 38  1  0
  3 39  1  0
  6 40  1  0
  7 41  1  0
  7 42  1  0
  8 43  1  0
  8 44  1  0
 11 45  1  0
 13 46  1  0
 14 47  1  6
 15 48  1  0
 15 49  1  0
 16 50  1  0
 16 51  1  0
 18 52  1  0
 19 53  1  0
 20 54  1  0
 21 55  1  0
 26 56  1  0
 26 57  1  0
 27 58  1  0
 27 59  1  0
 29 60  1  0
 30 61  1  0
 31 62  1  0
 32 63  1  0
 34 64  1  0
 34 65  1  0
 36 66  1  0
 36 67  1  0
M  END
>  <smiles>  (9) 
c1ccc2c(c1)CCN(c1cc(N[C@@H]3CCc4ccccc43)nc(N3CCc4ccccc4C3)n1)C2

>  <score_type>  (9) 
oracle

>  <origin>  (9) 
autodockgpu

>  <m_score__min__energy>  (9) 
-11.31

>  <m_primary>  (9) 
energy

>  <meeko>  (9) 
{"free_energy": -10.77, "intermolecular_energy": -11.97, "internal_energy": -1.61, "cluster_size": 20, "cluster_id": 1, "rank_in_cluster": 15}

>  <energy>  (9) 
-11.29

>  <cluster_rmsd>  (9) 
0.07

>  <rmsd>  (9) 
270.46

>  <cluster>  (9) 
1

$$$$

     RDKit          3D

 67 73  0  0  0  0  0  0  0  0999 V2000
  141.9220   80.6480  222.6240 C   0  0  0  0  0  0  0  0  0  0  0  0
  141.0220   80.2220  223.6010 C   0  0  0  0  0  0  0  0  0  0  0  0
  140.4450   78.9700  223.4520 C   0  0  0  0  0  0  0  0  0  0  0  0
  140.7240   78.1400  222.3870 C   0  0  0  0  0  0  0  0  0  0  0  0
  141.6060   78.5570  221.4300 C   0  0  0  0  0  0  0  0  0  0  0  0
  142.1930   79.8140  221.5680 C   0  0  0  0  0  0  0  0  0  0  0  0
  141.9950   77.7530  220.2410 C   0  0  0  0  0  0  0  0  0  0  0  0
  140.9100   76.7440  219.9840 C   0  0  0  0  0  0  0  0  0  0  0  0
  140.5790   76.0630  221.2240 N   0  0  0  0  0  0  0  0  0  0  0  0
  140.7830   74.6650  221.4180 C   0  0  0  0  0  0  0  0  0  0  0  0
  139.8910   73.9640  222.2360 C   0  0  0  0  0  0  0  0  0  0  0  0
  140.0410   72.6120  222.4860 C   0  0  0  0  0  0  0  0  0  0  0  0
  139.0770   71.8940  223.3030 N   0  0  0  0  0  0  0  0  0  0  0  0
  139.6090   70.6700  223.8870 C   0  0  2  0  0  0  0  0  0  0  0  0
  138.4750   69.6640  224.1270 C   0  0  0  0  0  0  0  0  0  0  0  0
  139.2040   68.7060  225.0690 C   0  0  0  0  0  0  0  0  0  0  0  0
  139.8850   69.6920  225.9830 C   0  0  0  0  0  0  0  0  0  0  0  0
  140.2370   69.5280  227.2970 C   0  0  0  0  0  0  0  0  0  0  0  0
  140.8570   70.5560  227.9990 C   0  0  0  0  0  0  0  0  0  0  0  0
  141.0880   71.7200  227.3010 C   0  0  0  0  0  0  0  0  0  0  0  0
  140.7310   71.8840  225.9730 C   0  0  0  0  0  0  0  0  0  0  0  0
  140.1140   70.8690  225.2650 C   0  0  0  0  0  0  0  0  0  0  0  0
  141.0800   71.9800  221.9170 N   0  0  0  0  0  0  0  0  0  0  0  0
  141.9620   72.6460  221.1150 C   0  0  0  0  0  0  0  0  0  0  0  0
  143.0330   71.9290  220.5460 N   0  0  0  0  0  0  0  0  0  0  0  0
  144.3780   72.4880  220.5580 C   0  0  0  0  0  0  0  0  0  0  0  0
  144.9920   72.0640  219.2130 C   0  0  0  0  0  0  0  0  0  0  0  0
  145.0940   70.5840  219.2980 C   0  0  0  0  0  0  0  0  0  0  0  0
  146.2480   69.8830  219.0220 C   0  0  0  0  0  0  0  0  0  0  0  0
  146.2920   68.4860  219.1200 C   0  0  0  0  0  0  0  0  0  0  0  0
  145.1400   67.8160  219.5070 C   0  0  0  0  0  0  0  0  0  0  0  0
  143.9750   68.4960  219.7890 C   0  0  0  0  0  0  0  0  0  0  0  0
  143.9630   69.8770  219.6820 C   0  0  0  0  0  0  0  0  0  0  0  0
  142.7460   70.6400  219.9640 C   0  0  0  0  0  0  0  0  0  0  0  0
  141.7900   73.9690  220.8850 N   0  0  0  0  0  0  0  0  0  0  0  0
  140.0270   76.8140  222.3470 C   0  0  0  0  0  0  0  0  0  0  0  0
  142.4052   81.6334  222.6984 H   0  0  0  0  0  0  0  0  0  0  0  0
  140.7775   80.8598  224.4632 H   0  0  0  0  0  0  0  0  0  0  0  0
  139.7339   78.6240  224.2166 H   0  0  0  0  0  0  0  0  0  0  0  0
  142.9029   80.1515  220.7985 H   0  0  0  0  0  0  0  0  0  0  0  0
  142.1071   78.4108  219.3665 H   0  0  0  0  0  0  0  0  0  0  0  0
  142.9534   77.2443  220.4219 H   0  0  0  0  0  0  0  0  0  0  0  0
  140.0168   77.2564  219.5972 H   0  0  0  0  0  0  0  0  0  0  0  0
  141.2601   76.0092  219.2441 H   0  0  0  0  0  0  0  0  0  0  0  0
  139.0475   74.5024  222.6928 H   0  0  0  0  0  0  0  0  0  0  0  0
  138.1240   72.2420  223.4310 H   0  0  0  0  0  0  0  0  0  0  0  0
  140.3902   70.3433  223.1848 H   0  0  0  0  0  0  0  0  0  0  0  0
  137.6030   70.1317  224.6075 H   0  0  0  0  0  0  0  0  0  0  0  0
  138.0483   69.2061  223.2224 H   0  0  0  0  0  0  0  0  0  0  0  0
  138.5013   68.0612  225.6172 H   0  0  0  0  0  0  0  0  0  0  0  0
  139.8813   67.9970  224.5704 H   0  0  0  0  0  0  0  0  0  0  0  0
  140.0270   68.5735  227.8018 H   0  0  0  0  0  0  0  0  0  0  0  0
  141.1470   70.4452  229.0543 H   0  0  0  0  0  0  0  0  0  0  0  0
  141.5777   72.5566  227.8210 H   0  0  0  0  0  0  0  0  0  0  0  0
  140.9423   72.8401  225.4717 H   0  0  0  0  0  0  0  0  0  0  0  0
  144.3412   73.5844  220.6386 H   0  0  0  0  0  0  0  0  0  0  0  0
  144.9683   72.1309  221.4148 H   0  0  0  0  0  0  0  0  0  0  0  0
  144.3407   72.3611  218.3778 H   0  0  0  0  0  0  0  0  0  0  0  0
  145.9669   72.5397  219.0308 H   0  0  0  0  0  0  0  0  0  0  0  0
  147.1523   70.4310  218.7188 H   0  0  0  0  0  0  0  0  0  0  0  0
  147.2167   67.9341  218.8957 H   0  0  0  0  0  0  0  0  0  0  0  0
  145.1571   66.7193  219.5904 H   0  0  0  0  0  0  0  0  0  0  0  0
  143.0695   67.9510  220.0941 H   0  0  0  0  0  0  0  0  0  0  0  0
  142.1964   70.7906  219.0231 H   0  0  0  0  0  0  0  0  0  0  0  0
  142.1491   70.0675  220.6892 H   0  0  0  0  0  0  0  0  0  0  0  0
  138.9462   76.9618  222.2052 H   0  0  0  0  0  0  0  0  0  0  0  0
  140.1776   76.2681  223.2901 H   0  0  0  0  0  0  0  0  0  0  0  0
  1  2  2  0
  2  3  1  0
  3  4  2  0
  4  5  1  0
  5  6  2  0
  5  7  1  0
  7  8  1  0
  8  9  1  0
  9 10  1  0
 10 11  2  0
 11 12  1  0
 12 13  1  0
 13 14  1  0
 14 15  1  0
 15 16  1  0
 16 17  1  0
 17 18  2  0
 18 19  1  0
 19 20  2  0
 20 21  1  0
 21 22  2  0
 12 23  2  0
 23 24  1  0
 24 25  1  0
 25 26  1  0
 26 27  1  0
 27 28  1  0
 28 29  2  0
 29 30  1  0
 30 31  2  0
 31 32  1  0
 32 33  2  0
 33 34  1  0
 24 35  2  0
  9 36  1  0
  6  1  1  0
 35 10  1  0
 36  4  1  0
 22 14  1  0
 34 25  1  0
 22 17  1  0
 33 28  1  0
  1 37  1  0
  2 38  1  0
  3 39  1  0
  6 40  1  0
  7 41  1  0
  7 42  1  0
  8 43  1  0
  8 44  1  0
 11 45  1  0
 13 46  1  0
 14 47  1  6
 15 48  1  0
 15 49  1  0
 16 50  1  0
 16 51  1  0
 18 52  1  0
 19 53  1  0
 20 54  1  0
 21 55  1  0
 26 56  1  0
 26 57  1  0
 27 58  1  0
 27 59  1  0
 29 60  1  0
 30 61  1  0
 31 62  1  0
 32 63  1  0
 34 64  1  0
 34 65  1  0
 36 66  1  0
 36 67  1  0
M  END
>  <smiles>  (10) 
c1ccc2c(c1)CCN(c1cc(N[C@@H]3CCc4ccccc43)nc(N3CCc4ccccc4C3)n1)C2

>  <score_type>  (10) 
oracle

>  <origin>  (10) 
autodockgpu

>  <m_score__min__energy>  (10) 
-11.31

>  <m_primary>  (10) 
energy

>  <meeko>  (10) 
{"free_energy": -11.29, "intermolecular_energy": -12.49, "internal_energy": -1.22, "cluster_size": 20, "cluster_id": 1, "rank_in_cluster": 9}

>  <energy>  (10) 
-11.29

>  <cluster_rmsd>  (10) 
0.06

>  <rmsd>  (10) 
270.48

>  <cluster>  (10) 
1

$$$$

     RDKit          3D

 67 73  0  0  0  0  0  0  0  0999 V2000
  141.9410   80.6390  222.5760 C   0  0  0  0  0  0  0  0  0  0  0  0
  141.0340   80.2160  223.5480 C   0  0  0  0  0  0  0  0  0  0  0  0
  140.4610   78.9620  223.4030 C   0  0  0  0  0  0  0  0  0  0  0  0
  140.7510   78.1260  222.3460 C   0  0  0  0  0  0  0  0  0  0  0  0
  141.6400   78.5390  221.3940 C   0  0  0  0  0  0  0  0  0  0  0  0
  142.2220   79.7980  221.5280 C   0  0  0  0  0  0  0  0  0  0  0  0
  142.0400   77.7280  220.2120 C   0  0  0  0  0  0  0  0  0  0  0  0
  140.9590   76.7140  219.9540 C   0  0  0  0  0  0  0  0  0  0  0  0
  140.6200   76.0410  221.1950 N   0  0  0  0  0  0  0  0  0  0  0  0
  140.8260   74.6440  221.4000 C   0  0  0  0  0  0  0  0  0  0  0  0
  139.9410   73.9510  222.2320 C   0  0  0  0  0  0  0  0  0  0  0  0
  140.0940   72.6010  222.4930 C   0  0  0  0  0  0  0  0  0  0  0  0
  139.1370   71.8900  223.3240 N   0  0  0  0  0  0  0  0  0  0  0  0
  139.6740   70.6700  223.9120 C   0  0  2  0  0  0  0  0  0  0  0  0
  138.5430   69.6610  224.1540 C   0  0  0  0  0  0  0  0  0  0  0  0
  139.2750   68.7070  225.0990 C   0  0  0  0  0  0  0  0  0  0  0  0
  139.9520   69.6980  226.0100 C   0  0  0  0  0  0  0  0  0  0  0  0
  140.3040   69.5390  227.3250 C   0  0  0  0  0  0  0  0  0  0  0  0
  140.9200   70.5710  228.0250 C   0  0  0  0  0  0  0  0  0  0  0  0
  141.1460   71.7340  227.3230 C   0  0  0  0  0  0  0  0  0  0  0  0
  140.7900   71.8930  225.9950 C   0  0  0  0  0  0  0  0  0  0  0  0
  140.1770   70.8740  225.2890 C   0  0  0  0  0  0  0  0  0  0  0  0
  141.1280   71.9640  221.9210 N   0  0  0  0  0  0  0  0  0  0  0  0
  142.0030   72.6230  221.1050 C   0  0  0  0  0  0  0  0  0  0  0  0
  143.0690   71.9020  220.5330 N   0  0  0  0  0  0  0  0  0  0  0  0
  144.4220   72.4380  220.5730 C   0  0  0  0  0  0  0  0  0  0  0  0
  145.0460   72.0330  219.2270 C   0  0  0  0  0  0  0  0  0  0  0  0
  145.1230   70.5500  219.2810 C   0  0  0  0  0  0  0  0  0  0  0  0
  146.2690   69.8360  219.0030 C   0  0  0  0  0  0  0  0  0  0  0  0
  146.2890   68.4370  219.0710 C   0  0  0  0  0  0  0  0  0  0  0  0
  145.1220   67.7780  219.4300 C   0  0  0  0  0  0  0  0  0  0  0  0
  143.9650   68.4700  219.7120 C   0  0  0  0  0  0  0  0  0  0  0  0
  143.9760   69.8530  219.6350 C   0  0  0  0  0  0  0  0  0  0  0  0
  142.7680   70.6300  219.9200 C   0  0  0  0  0  0  0  0  0  0  0  0
  141.8290   73.9440  220.8650 N   0  0  0  0  0  0  0  0  0  0  0  0
  140.0580   76.7980  222.3090 C   0  0  0  0  0  0  0  0  0  0  0  0
  142.4211   81.6261  222.6479 H   0  0  0  0  0  0  0  0  0  0  0  0
  140.7810   80.8586  224.4042 H   0  0  0  0  0  0  0  0  0  0  0  0
  139.7443   78.6194  224.1639 H   0  0  0  0  0  0  0  0  0  0  0  0
  142.9368   80.1321  220.7616 H   0  0  0  0  0  0  0  0  0  0  0  0
  142.1564   78.3805  219.3341 H   0  0  0  0  0  0  0  0  0  0  0  0
  142.9986   77.2232  220.4027 H   0  0  0  0  0  0  0  0  0  0  0  0
  140.0675   77.2215  219.5568 H   0  0  0  0  0  0  0  0  0  0  0  0
  141.3169   75.9749  219.2222 H   0  0  0  0  0  0  0  0  0  0  0  0
  139.1013   74.4935  222.6909 H   0  0  0  0  0  0  0  0  0  0  0  0
  138.1850   72.2400  223.4600 H   0  0  0  0  0  0  0  0  0  0  0  0
  140.4574   70.3448  223.2117 H   0  0  0  0  0  0  0  0  0  0  0  0
  137.6694   70.1271  224.6331 H   0  0  0  0  0  0  0  0  0  0  0  0
  138.1180   69.1997  223.2504 H   0  0  0  0  0  0  0  0  0  0  0  0
  138.5743   68.0614  225.6488 H   0  0  0  0  0  0  0  0  0  0  0  0
  139.9546   67.9985  224.6028 H   0  0  0  0  0  0  0  0  0  0  0  0
  140.0971   68.5851  227.8322 H   0  0  0  0  0  0  0  0  0  0  0  0
  141.2105   70.4642  229.0806 H   0  0  0  0  0  0  0  0  0  0  0  0
  141.6313   72.5744  227.8410 H   0  0  0  0  0  0  0  0  0  0  0  0
  140.9987   72.8484  225.4913 H   0  0  0  0  0  0  0  0  0  0  0  0
  144.4019   73.5329  220.6768 H   0  0  0  0  0  0  0  0  0  0  0  0
  144.9957   72.0528  221.4288 H   0  0  0  0  0  0  0  0  0  0  0  0
  144.4102   72.3587  218.3905 H   0  0  0  0  0  0  0  0  0  0  0  0
  146.0308   72.4964  219.0673 H   0  0  0  0  0  0  0  0  0  0  0  0
  147.1856   70.3754  218.7223 H   0  0  0  0  0  0  0  0  0  0  0  0
  147.2072   67.8748  218.8454 H   0  0  0  0  0  0  0  0  0  0  0  0
  145.1208   66.6797  219.4907 H   0  0  0  0  0  0  0  0  0  0  0  0
  143.0472   67.9331  219.9938 H   0  0  0  0  0  0  0  0  0  0  0  0
  142.2317   70.8096  218.9765 H   0  0  0  0  0  0  0  0  0  0  0  0
  142.1538   70.0520  220.6262 H   0  0  0  0  0  0  0  0  0  0  0  0
  138.9779   76.9420  222.1583 H   0  0  0  0  0  0  0  0  0  0  0  0
  140.2033   76.2585  223.2566 H   0  0  0  0  0  0  0  0  0  0  0  0
  1  2  2  0
  2  3  1  0
  3  4  2  0
  4  5  1  0
  5  6  2  0
  5  7  1  0
  7  8  1  0
  8  9  1  0
  9 10  1  0
 10 11  2  0
 11 12  1  0
 12 13  1  0
 13 14  1  0
 14 15  1  0
 15 16  1  0
 16 17  1  0
 17 18  2  0
 18 19  1  0
 19 20  2  0
 20 21  1  0
 21 22  2  0
 12 23  2  0
 23 24  1  0
 24 25  1  0
 25 26  1  0
 26 27  1  0
 27 28  1  0
 28 29  2  0
 29 30  1  0
 30 31  2  0
 31 32  1  0
 32 33  2  0
 33 34  1  0
 24 35  2  0
  9 36  1  0
  6  1  1  0
 35 10  1  0
 36  4  1  0
 22 14  1  0
 34 25  1  0
 22 17  1  0
 33 28  1  0
  1 37  1  0
  2 38  1  0
  3 39  1  0
  6 40  1  0
  7 41  1  0
  7 42  1  0
  8 43  1  0
  8 44  1  0
 11 45  1  0
 13 46  1  0
 14 47  1  6
 15 48  1  0
 15 49  1  0
 16 50  1  0
 16 51  1  0
 18 52  1  0
 19 53  1  0
 20 54  1  0
 21 55  1  0
 26 56  1  0
 26 57  1  0
 27 58  1  0
 27 59  1  0
 29 60  1  0
 30 61  1  0
 31 62  1  0
 32 63  1  0
 34 64  1  0
 34 65  1  0
 36 66  1  0
 36 67  1  0
M  END
>  <smiles>  (11) 
c1ccc2c(c1)CCN(c1cc(N[C@@H]3CCc4ccccc43)nc(N3CCc4ccccc4C3)n1)C2

>  <score_type>  (11) 
oracle

>  <origin>  (11) 
autodockgpu

>  <m_score__min__energy>  (11) 
-11.31

>  <m_primary>  (11) 
energy

>  <meeko>  (11) 
{"free_energy": -11.28, "intermolecular_energy": -12.48, "internal_energy": -1.21, "cluster_size": 20, "cluster_id": 1, "rank_in_cluster": 13}

>  <energy>  (11) 
-11.29

>  <cluster_rmsd>  (11) 
0.08

>  <rmsd>  (11) 
270.46

>  <cluster>  (11) 
1

$$$$

     RDKit          3D

 67 73  0  0  0  0  0  0  0  0999 V2000
  141.9270   80.6460  222.5970 C   0  0  0  0  0  0  0  0  0  0  0  0
  141.0290   80.2250  223.5780 C   0  0  0  0  0  0  0  0  0  0  0  0
  140.4540   78.9710  223.4390 C   0  0  0  0  0  0  0  0  0  0  0  0
  140.7340   78.1340  222.3790 C   0  0  0  0  0  0  0  0  0  0  0  0
  141.6140   78.5460  221.4190 C   0  0  0  0  0  0  0  0  0  0  0  0
  142.1980   79.8040  221.5470 C   0  0  0  0  0  0  0  0  0  0  0  0
  142.0030   77.7340  220.2340 C   0  0  0  0  0  0  0  0  0  0  0  0
  140.9190   76.7200  219.9860 C   0  0  0  0  0  0  0  0  0  0  0  0
  140.5910   76.0480  221.2320 N   0  0  0  0  0  0  0  0  0  0  0  0
  140.7980   74.6520  221.4350 C   0  0  0  0  0  0  0  0  0  0  0  0
  139.9140   73.9580  222.2680 C   0  0  0  0  0  0  0  0  0  0  0  0
  140.0680   72.6080  222.5280 C   0  0  0  0  0  0  0  0  0  0  0  0
  139.1120   71.8960  223.3590 N   0  0  0  0  0  0  0  0  0  0  0  0
  139.6450   70.6690  223.9360 C   0  0  2  0  0  0  0  0  0  0  0  0
  138.5120   69.6600  224.1690 C   0  0  0  0  0  0  0  0  0  0  0  0
  139.2420   68.6960  225.1050 C   0  0  0  0  0  0  0  0  0  0  0  0
  139.9220   69.6770  226.0250 C   0  0  0  0  0  0  0  0  0  0  0  0
  140.2740   69.5050  227.3370 C   0  0  0  0  0  0  0  0  0  0  0  0
  140.8930   70.5280  228.0470 C   0  0  0  0  0  0  0  0  0  0  0  0
  141.1230   71.6970  227.3560 C   0  0  0  0  0  0  0  0  0  0  0  0
  140.7660   71.8690  226.0290 C   0  0  0  0  0  0  0  0  0  0  0  0
  140.1500   70.8590  225.3150 C   0  0  0  0  0  0  0  0  0  0  0  0
  141.1010   71.9720  221.9550 N   0  0  0  0  0  0  0  0  0  0  0  0
  141.9760   72.6310  221.1390 C   0  0  0  0  0  0  0  0  0  0  0  0
  143.0420   71.9110  220.5660 N   0  0  0  0  0  0  0  0  0  0  0  0
  144.3980   72.4380  220.6240 C   0  0  0  0  0  0  0  0  0  0  0  0
  145.0300   72.0470  219.2770 C   0  0  0  0  0  0  0  0  0  0  0  0
  145.0980   70.5630  219.3120 C   0  0  0  0  0  0  0  0  0  0  0  0
  146.2420   69.8460  219.0340 C   0  0  0  0  0  0  0  0  0  0  0  0
  146.2520   68.4450  219.0840 C   0  0  0  0  0  0  0  0  0  0  0  0
  145.0780   67.7900  219.4240 C   0  0  0  0  0  0  0  0  0  0  0  0
  143.9230   68.4850  219.7070 C   0  0  0  0  0  0  0  0  0  0  0  0
  143.9440   69.8690  219.6480 C   0  0  0  0  0  0  0  0  0  0  0  0
  142.7380   70.6490  219.9330 C   0  0  0  0  0  0  0  0  0  0  0  0
  141.8010   73.9520  220.8990 N   0  0  0  0  0  0  0  0  0  0  0  0
  140.0390   76.8060  222.3490 C   0  0  0  0  0  0  0  0  0  0  0  0
  142.4083   81.6329  222.6634 H   0  0  0  0  0  0  0  0  0  0  0  0
  140.7845   80.8685  224.4360 H   0  0  0  0  0  0  0  0  0  0  0  0
  139.7443   78.6291  224.2067 H   0  0  0  0  0  0  0  0  0  0  0  0
  142.9063   80.1370  220.7741 H   0  0  0  0  0  0  0  0  0  0  0  0
  142.1120   78.3859  219.3547 H   0  0  0  0  0  0  0  0  0  0  0  0
  142.9629   77.2288  220.4166 H   0  0  0  0  0  0  0  0  0  0  0  0
  140.0242   77.2275  219.5964 H   0  0  0  0  0  0  0  0  0  0  0  0
  141.2697   75.9802  219.2513 H   0  0  0  0  0  0  0  0  0  0  0  0
  139.0746   74.4998  222.7283 H   0  0  0  0  0  0  0  0  0  0  0  0
  138.1630   72.2500  223.5030 H   0  0  0  0  0  0  0  0  0  0  0  0
  140.4269   70.3481  223.2320 H   0  0  0  0  0  0  0  0  0  0  0  0
  137.6394   70.1235  224.6525 H   0  0  0  0  0  0  0  0  0  0  0  0
  138.0860   69.2078  223.2612 H   0  0  0  0  0  0  0  0  0  0  0  0
  138.5400   68.0471  225.6491 H   0  0  0  0  0  0  0  0  0  0  0  0
  139.9198   67.9906  224.6020 H   0  0  0  0  0  0  0  0  0  0  0  0
  140.0648   68.5468  227.8350 H   0  0  0  0  0  0  0  0  0  0  0  0
  141.1828   70.4102  229.1016 H   0  0  0  0  0  0  0  0  0  0  0  0
  141.6118   72.5308  227.8813 H   0  0  0  0  0  0  0  0  0  0  0  0
  140.9769   72.8283  225.5338 H   0  0  0  0  0  0  0  0  0  0  0  0
  144.3839   73.5315  220.7424 H   0  0  0  0  0  0  0  0  0  0  0  0
  144.9626   72.0379  221.4791 H   0  0  0  0  0  0  0  0  0  0  0  0
  144.4024   72.3874  218.4402 H   0  0  0  0  0  0  0  0  0  0  0  0
  146.0186   72.5067  219.1308 H   0  0  0  0  0  0  0  0  0  0  0  0
  147.1643   70.3832  218.7679 H   0  0  0  0  0  0  0  0  0  0  0  0
  147.1683   67.8794  218.8591 H   0  0  0  0  0  0  0  0  0  0  0  0
  145.0689   66.6909  219.4687 H   0  0  0  0  0  0  0  0  0  0  0  0
  142.9998   67.9504  219.9752 H   0  0  0  0  0  0  0  0  0  0  0  0
  142.2109   70.8447  218.9875 H   0  0  0  0  0  0  0  0  0  0  0  0
  142.1139   70.0653  220.6256 H   0  0  0  0  0  0  0  0  0  0  0  0
  138.9579   76.9509  222.2069 H   0  0  0  0  0  0  0  0  0  0  0  0
  140.1913   76.2673  223.2959 H   0  0  0  0  0  0  0  0  0  0  0  0
  1  2  2  0
  2  3  1  0
  3  4  2  0
  4  5  1  0
  5  6  2  0
  5  7  1  0
  7  8  1  0
  8  9  1  0
  9 10  1  0
 10 11  2  0
 11 12  1  0
 12 13  1  0
 13 14  1  0
 14 15  1  0
 15 16  1  0
 16 17  1  0
 17 18  2  0
 18 19  1  0
 19 20  2  0
 20 21  1  0
 21 22  2  0
 12 23  2  0
 23 24  1  0
 24 25  1  0
 25 26  1  0
 26 27  1  0
 27 28  1  0
 28 29  2  0
 29 30  1  0
 30 31  2  0
 31 32  1  0
 32 33  2  0
 33 34  1  0
 24 35  2  0
  9 36  1  0
  6  1  1  0
 35 10  1  0
 36  4  1  0
 22 14  1  0
 34 25  1  0
 22 17  1  0
 33 28  1  0
  1 37  1  0
  2 38  1  0
  3 39  1  0
  6 40  1  0
  7 41  1  0
  7 42  1  0
  8 43  1  0
  8 44  1  0
 11 45  1  0
 13 46  1  0
 14 47  1  6
 15 48  1  0
 15 49  1  0
 16 50  1  0
 16 51  1  0
 18 52  1  0
 19 53  1  0
 20 54  1  0
 21 55  1  0
 26 56  1  0
 26 57  1  0
 27 58  1  0
 27 59  1  0
 29 60  1  0
 30 61  1  0
 31 62  1  0
 32 63  1  0
 34 64  1  0
 34 65  1  0
 36 66  1  0
 36 67  1  0
M  END
>  <smiles>  (12) 
c1ccc2c(c1)CCN(c1cc(N[C@@H]3CCc4ccccc43)nc(N3CCc4ccccc4C3)n1)C2

>  <score_type>  (12) 
oracle

>  <origin>  (12) 
autodockgpu

>  <m_score__min__energy>  (12) 
-11.31

>  <m_primary>  (12) 
energy

>  <meeko>  (12) 
{"free_energy": -11.3, "intermolecular_energy": -12.49, "internal_energy": -1.21, "cluster_size": 20, "cluster_id": 1, "rank_in_cluster": 7}

>  <energy>  (12) 
-11.29

>  <cluster_rmsd>  (12) 
0.03

>  <rmsd>  (12) 
270.46

>  <cluster>  (12) 
1

$$$$

     RDKit          3D

 67 73  0  0  0  0  0  0  0  0999 V2000
  141.8880   80.6400  222.6380 C   0  0  0  0  0  0  0  0  0  0  0  0
  140.9640   80.2090  223.5910 C   0  0  0  0  0  0  0  0  0  0  0  0
  140.4020   78.9510  223.4300 C   0  0  0  0  0  0  0  0  0  0  0  0
  140.7180   78.1210  222.3760 C   0  0  0  0  0  0  0  0  0  0  0  0
  141.6230   78.5420  221.4430 C   0  0  0  0  0  0  0  0  0  0  0  0
  142.1950   79.8040  221.5930 C   0  0  0  0  0  0  0  0  0  0  0  0
  142.0530   77.7380  220.2680 C   0  0  0  0  0  0  0  0  0  0  0  0
  140.9830   76.7180  219.9840 C   0  0  0  0  0  0  0  0  0  0  0  0
  140.6240   76.0390  221.2160 N   0  0  0  0  0  0  0  0  0  0  0  0
  140.8340   74.6430  221.4200 C   0  0  0  0  0  0  0  0  0  0  0  0
  139.9490   73.9460  222.2490 C   0  0  0  0  0  0  0  0  0  0  0  0
  140.1060   72.5960  222.5100 C   0  0  0  0  0  0  0  0  0  0  0  0
  139.1490   71.8810  223.3370 N   0  0  0  0  0  0  0  0  0  0  0  0
  139.6880   70.6620  223.9250 C   0  0  2  0  0  0  0  0  0  0  0  0
  138.5630   69.6410  224.1440 C   0  0  0  0  0  0  0  0  0  0  0  0
  139.2900   68.6880  225.0930 C   0  0  0  0  0  0  0  0  0  0  0  0
  139.9440   69.6790  226.0210 C   0  0  0  0  0  0  0  0  0  0  0  0
  140.2780   69.5140  227.3390 C   0  0  0  0  0  0  0  0  0  0  0  0
  140.8750   70.5460  228.0550 C   0  0  0  0  0  0  0  0  0  0  0  0
  141.1010   71.7160  227.3650 C   0  0  0  0  0  0  0  0  0  0  0  0
  140.7630   71.8810  226.0320 C   0  0  0  0  0  0  0  0  0  0  0  0
  140.1690   70.8610  225.3110 C   0  0  0  0  0  0  0  0  0  0  0  0
  141.1440   71.9640  221.9400 N   0  0  0  0  0  0  0  0  0  0  0  0
  142.0190   72.6260  221.1280 C   0  0  0  0  0  0  0  0  0  0  0  0
  143.0890   71.9090  220.5580 N   0  0  0  0  0  0  0  0  0  0  0  0
  144.4420   72.4470  220.6090 C   0  0  0  0  0  0  0  0  0  0  0  0
  145.0740   72.0490  219.2640 C   0  0  0  0  0  0  0  0  0  0  0  0
  145.1530   70.5660  219.3110 C   0  0  0  0  0  0  0  0  0  0  0  0
  146.3020   69.8560  219.0360 C   0  0  0  0  0  0  0  0  0  0  0  0
  146.3230   68.4560  219.0980 C   0  0  0  0  0  0  0  0  0  0  0  0
  145.1550   67.7940  219.4460 C   0  0  0  0  0  0  0  0  0  0  0  0
  143.9950   68.4830  219.7260 C   0  0  0  0  0  0  0  0  0  0  0  0
  144.0050   69.8660  219.6550 C   0  0  0  0  0  0  0  0  0  0  0  0
  142.7940   70.6400  219.9370 C   0  0  0  0  0  0  0  0  0  0  0  0
  141.8410   73.9470  220.8880 N   0  0  0  0  0  0  0  0  0  0  0  0
  140.0340   76.7880  222.3210 C   0  0  0  0  0  0  0  0  0  0  0  0
  142.3608   81.6296  222.7224 H   0  0  0  0  0  0  0  0  0  0  0  0
  140.6897   80.8474  224.4438 H   0  0  0  0  0  0  0  0  0  0  0  0
  139.6729   78.6009  224.1755 H   0  0  0  0  0  0  0  0  0  0  0  0
  142.9233   80.1448  220.8424 H   0  0  0  0  0  0  0  0  0  0  0  0
  142.1842   78.3941  219.3949 H   0  0  0  0  0  0  0  0  0  0  0  0
  143.0105   77.2385  220.4772 H   0  0  0  0  0  0  0  0  0  0  0  0
  140.0966   77.2215  219.5708 H   0  0  0  0  0  0  0  0  0  0  0  0
  141.3594   75.9839  219.2564 H   0  0  0  0  0  0  0  0  0  0  0  0
  139.1059   74.4851  222.7056 H   0  0  0  0  0  0  0  0  0  0  0  0
  138.1960   72.2280  223.4710 H   0  0  0  0  0  0  0  0  0  0  0  0
  140.4844   70.3488  223.2339 H   0  0  0  0  0  0  0  0  0  0  0  0
  137.6782   70.0958  224.6134 H   0  0  0  0  0  0  0  0  0  0  0  0
  138.1554   69.1817  223.2314 H   0  0  0  0  0  0  0  0  0  0  0  0
  138.5876   68.0319  225.6278 H   0  0  0  0  0  0  0  0  0  0  0  0
  139.9838   67.9897  224.6020 H   0  0  0  0  0  0  0  0  0  0  0  0
  140.0718   68.5549  227.8366 H   0  0  0  0  0  0  0  0  0  0  0  0
  141.1513   70.4338  229.1138 H   0  0  0  0  0  0  0  0  0  0  0  0
  141.5708   72.5570  227.8961 H   0  0  0  0  0  0  0  0  0  0  0  0
  140.9709   72.8413  225.5374 H   0  0  0  0  0  0  0  0  0  0  0  0
  144.4200   73.5414  220.7181 H   0  0  0  0  0  0  0  0  0  0  0  0
  145.0113   72.0587  221.4664 H   0  0  0  0  0  0  0  0  0  0  0  0
  144.4422   72.3778  218.4257 H   0  0  0  0  0  0  0  0  0  0  0  0
  146.0590   72.5145  219.1120 H   0  0  0  0  0  0  0  0  0  0  0  0
  147.2193   70.3982  218.7628 H   0  0  0  0  0  0  0  0  0  0  0  0
  147.2434   67.8959  218.8761 H   0  0  0  0  0  0  0  0  0  0  0  0
  145.1546   66.6953  219.4996 H   0  0  0  0  0  0  0  0  0  0  0  0
  143.0766   67.9437  220.0012 H   0  0  0  0  0  0  0  0  0  0  0  0
  142.2630   70.8236  218.9913 H   0  0  0  0  0  0  0  0  0  0  0  0
  142.1769   70.0575  220.6369 H   0  0  0  0  0  0  0  0  0  0  0  0
  138.9563   76.9254  222.1488 H   0  0  0  0  0  0  0  0  0  0  0  0
  140.1630   76.2462  223.2696 H   0  0  0  0  0  0  0  0  0  0  0  0
  1  2  2  0
  2  3  1  0
  3  4  2  0
  4  5  1  0
  5  6  2  0
  5  7  1  0
  7  8  1  0
  8  9  1  0
  9 10  1  0
 10 11  2  0
 11 12  1  0
 12 13  1  0
 13 14  1  0
 14 15  1  0
 15 16  1  0
 16 17  1  0
 17 18  2  0
 18 19  1  0
 19 20  2  0
 20 21  1  0
 21 22  2  0
 12 23  2  0
 23 24  1  0
 24 25  1  0
 25 26  1  0
 26 27  1  0
 27 28  1  0
 28 29  2  0
 29 30  1  0
 30 31  2  0
 31 32  1  0
 32 33  2  0
 33 34  1  0
 24 35  2  0
  9 36  1  0
  6  1  1  0
 35 10  1  0
 36  4  1  0
 22 14  1  0
 34 25  1  0
 22 17  1  0
 33 28  1  0
  1 37  1  0
  2 38  1  0
  3 39  1  0
  6 40  1  0
  7 41  1  0
  7 42  1  0
  8 43  1  0
  8 44  1  0
 11 45  1  0
 13 46  1  0
 14 47  1  6
 15 48  1  0
 15 49  1  0
 16 50  1  0
 16 51  1  0
 18 52  1  0
 19 53  1  0
 20 54  1  0
 21 55  1  0
 26 56  1  0
 26 57  1  0
 27 58  1  0
 27 59  1  0
 29 60  1  0
 30 61  1  0
 31 62  1  0
 32 63  1  0
 34 64  1  0
 34 65  1  0
 36 66  1  0
 36 67  1  0
M  END
>  <smiles>  (13) 
c1ccc2c(c1)CCN(c1cc(N[C@@H]3CCc4ccccc43)nc(N3CCc4ccccc4C3)n1)C2

>  <score_type>  (13) 
oracle

>  <origin>  (13) 
autodockgpu

>  <m_score__min__energy>  (13) 
-11.31

>  <m_primary>  (13) 
energy

>  <meeko>  (13) 
{"free_energy": -11.31, "intermolecular_energy": -12.51, "internal_energy": -1.21, "cluster_size": 20, "cluster_id": 1, "rank_in_cluster": 1}

>  <energy>  (13) 
-11.28

>  <cluster_rmsd>  (13) 
0.04

>  <rmsd>  (13) 
270.46

>  <cluster>  (13) 
1

$$$$

     RDKit          3D

 67 73  0  0  0  0  0  0  0  0999 V2000
  141.9650   80.6490  222.5590 C   0  0  0  0  0  0  0  0  0  0  0  0
  141.1070   80.2310  223.5760 C   0  0  0  0  0  0  0  0  0  0  0  0
  140.5220   78.9780  223.4600 C   0  0  0  0  0  0  0  0  0  0  0  0
  140.7550   78.1420  222.3890 C   0  0  0  0  0  0  0  0  0  0  0  0
  141.5960   78.5510  221.3940 C   0  0  0  0  0  0  0  0  0  0  0  0
  142.1900   79.8070  221.4980 C   0  0  0  0  0  0  0  0  0  0  0  0
  141.9340   77.7390  220.1940 C   0  0  0  0  0  0  0  0  0  0  0  0
  140.8360   76.7290  219.9900 C   0  0  0  0  0  0  0  0  0  0  0  0
  140.5580   76.0570  221.2470 N   0  0  0  0  0  0  0  0  0  0  0  0
  140.7670   74.6600  221.4410 C   0  0  0  0  0  0  0  0  0  0  0  0
  139.8800   73.9560  222.2610 C   0  0  0  0  0  0  0  0  0  0  0  0
  140.0360   72.6050  222.5110 C   0  0  0  0  0  0  0  0  0  0  0  0
  139.0770   71.8830  223.3300 N   0  0  0  0  0  0  0  0  0  0  0  0
  139.6140   70.6600  223.9110 C   0  0  2  0  0  0  0  0  0  0  0  0
  138.4840   69.6500  224.1520 C   0  0  0  0  0  0  0  0  0  0  0  0
  139.2180   68.6930  225.0910 C   0  0  0  0  0  0  0  0  0  0  0  0
  139.8970   69.6800  226.0050 C   0  0  0  0  0  0  0  0  0  0  0  0
  140.2520   69.5160  227.3180 C   0  0  0  0  0  0  0  0  0  0  0  0
  140.8700   70.5440  228.0210 C   0  0  0  0  0  0  0  0  0  0  0  0
  141.0960   71.7100  227.3230 C   0  0  0  0  0  0  0  0  0  0  0  0
  140.7360   71.8740  225.9960 C   0  0  0  0  0  0  0  0  0  0  0  0
  140.1210   70.8580  225.2880 C   0  0  0  0  0  0  0  0  0  0  0  0
  141.0760   71.9770  221.9410 N   0  0  0  0  0  0  0  0  0  0  0  0
  141.9540   72.6450  221.1370 C   0  0  0  0  0  0  0  0  0  0  0  0
  143.0270   71.9330  220.5660 N   0  0  0  0  0  0  0  0  0  0  0  0
  144.3770   72.4780  220.6140 C   0  0  0  0  0  0  0  0  0  0  0  0
  145.0080   72.0820  219.2680 C   0  0  0  0  0  0  0  0  0  0  0  0
  145.0950   70.6000  219.3160 C   0  0  0  0  0  0  0  0  0  0  0  0
  146.2460   69.8950  219.0390 C   0  0  0  0  0  0  0  0  0  0  0  0
  146.2750   68.4950  219.1020 C   0  0  0  0  0  0  0  0  0  0  0  0
  145.1100   67.8280  219.4530 C   0  0  0  0  0  0  0  0  0  0  0  0
  143.9470   68.5110  219.7340 C   0  0  0  0  0  0  0  0  0  0  0  0
  143.9510   69.8950  219.6630 C   0  0  0  0  0  0  0  0  0  0  0  0
  142.7370   70.6630  219.9460 C   0  0  0  0  0  0  0  0  0  0  0  0
  141.7770   73.9680  220.9060 N   0  0  0  0  0  0  0  0  0  0  0  0
  140.0550   76.8160  222.3870 C   0  0  0  0  0  0  0  0  0  0  0  0
  142.4520   81.6342  222.6060 H   0  0  0  0  0  0  0  0  0  0  0  0
  140.9003   80.8749  224.4436 H   0  0  0  0  0  0  0  0  0  0  0  0
  139.8438   78.6375  224.2563 H   0  0  0  0  0  0  0  0  0  0  0  0
  142.8673   80.1378  220.6969 H   0  0  0  0  0  0  0  0  0  0  0  0
  142.0098   78.3912  219.3114 H   0  0  0  0  0  0  0  0  0  0  0  0
  142.8988   77.2303  220.3367 H   0  0  0  0  0  0  0  0  0  0  0  0
  139.9277   77.2405  219.6388 H   0  0  0  0  0  0  0  0  0  0  0  0
  141.1527   75.9889  219.2403 H   0  0  0  0  0  0  0  0  0  0  0  0
  139.0354   74.4912  222.7196 H   0  0  0  0  0  0  0  0  0  0  0  0
  138.1230   72.2280  223.4610 H   0  0  0  0  0  0  0  0  0  0  0  0
  140.3947   70.3373  223.2065 H   0  0  0  0  0  0  0  0  0  0  0  0
  137.6115   70.1142  224.6350 H   0  0  0  0  0  0  0  0  0  0  0  0
  138.0569   69.1920  223.2477 H   0  0  0  0  0  0  0  0  0  0  0  0
  138.5187   68.0449  225.6395 H   0  0  0  0  0  0  0  0  0  0  0  0
  139.8968   67.9871  224.5902 H   0  0  0  0  0  0  0  0  0  0  0  0
  140.0457   68.5601  227.8217 H   0  0  0  0  0  0  0  0  0  0  0  0
  141.1622   70.4326  229.0756 H   0  0  0  0  0  0  0  0  0  0  0  0
  141.5840   72.5477  227.8427 H   0  0  0  0  0  0  0  0  0  0  0  0
  140.9433   72.8313  225.4953 H   0  0  0  0  0  0  0  0  0  0  0  0
  144.3496   73.5723  220.7222 H   0  0  0  0  0  0  0  0  0  0  0  0
  144.9501   72.0936  221.4706 H   0  0  0  0  0  0  0  0  0  0  0  0
  144.3726   72.4067  218.4309 H   0  0  0  0  0  0  0  0  0  0  0  0
  145.9902   72.5525  219.1135 H   0  0  0  0  0  0  0  0  0  0  0  0
  147.1599   70.4415  218.7631 H   0  0  0  0  0  0  0  0  0  0  0  0
  147.1977   67.9393  218.8789 H   0  0  0  0  0  0  0  0  0  0  0  0
  145.1151   66.7294  219.5081 H   0  0  0  0  0  0  0  0  0  0  0  0
  143.0314   67.9674  220.0098 H   0  0  0  0  0  0  0  0  0  0  0  0
  142.2040   70.8438  219.0009 H   0  0  0  0  0  0  0  0  0  0  0  0
  142.1232   70.0778  220.6466 H   0  0  0  0  0  0  0  0  0  0  0  0
  138.9694   76.9644  222.2900 H   0  0  0  0  0  0  0  0  0  0  0  0
  140.2447   76.2760  223.3264 H   0  0  0  0  0  0  0  0  0  0  0  0
  1  2  2  0
  2  3  1  0
  3  4  2  0
  4  5  1  0
  5  6  2  0
  5  7  1  0
  7  8  1  0
  8  9  1  0
  9 10  1  0
 10 11  2  0
 11 12  1  0
 12 13  1  0
 13 14  1  0
 14 15  1  0
 15 16  1  0
 16 17  1  0
 17 18  2  0
 18 19  1  0
 19 20  2  0
 20 21  1  0
 21 22  2  0
 12 23  2  0
 23 24  1  0
 24 25  1  0
 25 26  1  0
 26 27  1  0
 27 28  1  0
 28 29  2  0
 29 30  1  0
 30 31  2  0
 31 32  1  0
 32 33  2  0
 33 34  1  0
 24 35  2  0
  9 36  1  0
  6  1  1  0
 35 10  1  0
 36  4  1  0
 22 14  1  0
 34 25  1  0
 22 17  1  0
 33 28  1  0
  1 37  1  0
  2 38  1  0
  3 39  1  0
  6 40  1  0
  7 41  1  0
  7 42  1  0
  8 43  1  0
  8 44  1  0
 11 45  1  0
 13 46  1  0
 14 47  1  6
 15 48  1  0
 15 49  1  0
 16 50  1  0
 16 51  1  0
 18 52  1  0
 19 53  1  0
 20 54  1  0
 21 55  1  0
 26 56  1  0
 26 57  1  0
 27 58  1  0
 27 59  1  0
 29 60  1  0
 30 61  1  0
 31 62  1  0
 32 63  1  0
 34 64  1  0
 34 65  1  0
 36 66  1  0
 36 67  1  0
M  END
>  <smiles>  (14) 
c1ccc2c(c1)CCN(c1cc(N[C@@H]3CCc4ccccc43)nc(N3CCc4ccccc4C3)n1)C2

>  <score_type>  (14) 
oracle

>  <origin>  (14) 
autodockgpu

>  <m_score__min__energy>  (14) 
-11.31

>  <m_primary>  (14) 
energy

>  <meeko>  (14) 
{"free_energy": -11.29, "intermolecular_energy": -12.49, "internal_energy": -1.22, "cluster_size": 20, "cluster_id": 1, "rank_in_cluster": 11}

>  <energy>  (14) 
-11.1

>  <cluster_rmsd>  (14) 
0.27

>  <rmsd>  (14) 
270.52

>  <cluster>  (14) 
1

$$$$

     RDKit          3D

 67 73  0  0  0  0  0  0  0  0999 V2000
  141.9130   80.6400  222.6270 C   0  0  0  0  0  0  0  0  0  0  0  0
  141.0020   80.2170  223.5950 C   0  0  0  0  0  0  0  0  0  0  0  0
  140.4290   78.9630  223.4470 C   0  0  0  0  0  0  0  0  0  0  0  0
  140.7230   78.1280  222.3900 C   0  0  0  0  0  0  0  0  0  0  0  0
  141.6170   78.5410  221.4420 C   0  0  0  0  0  0  0  0  0  0  0  0
  142.1990   79.8000  221.5800 C   0  0  0  0  0  0  0  0  0  0  0  0
  142.0220   77.7310  220.2620 C   0  0  0  0  0  0  0  0  0  0  0  0
  140.9420   76.7180  219.9980 C   0  0  0  0  0  0  0  0  0  0  0  0
  140.5970   76.0440  221.2370 N   0  0  0  0  0  0  0  0  0  0  0  0
  140.8010   74.6470  221.4420 C   0  0  0  0  0  0  0  0  0  0  0  0
  139.9160   73.9550  222.2740 C   0  0  0  0  0  0  0  0  0  0  0  0
  140.0670   72.6050  222.5350 C   0  0  0  0  0  0  0  0  0  0  0  0
  139.1100   71.8950  223.3660 N   0  0  0  0  0  0  0  0  0  0  0  0
  139.6450   70.6730  223.9530 C   0  0  2  0  0  0  0  0  0  0  0  0
  138.5150   69.6590  224.1800 C   0  0  0  0  0  0  0  0  0  0  0  0
  139.2420   68.7040  225.1270 C   0  0  0  0  0  0  0  0  0  0  0  0
  139.9070   69.6930  226.0500 C   0  0  0  0  0  0  0  0  0  0  0  0
  140.2470   69.5280  227.3660 C   0  0  0  0  0  0  0  0  0  0  0  0
  140.8540   70.5580  228.0770 C   0  0  0  0  0  0  0  0  0  0  0  0
  141.0830   71.7250  227.3830 C   0  0  0  0  0  0  0  0  0  0  0  0
  140.7380   71.8900  226.0520 C   0  0  0  0  0  0  0  0  0  0  0  0
  140.1350   70.8720  225.3360 C   0  0  0  0  0  0  0  0  0  0  0  0
  141.1000   71.9670  221.9630 N   0  0  0  0  0  0  0  0  0  0  0  0
  141.9760   72.6240  221.1470 C   0  0  0  0  0  0  0  0  0  0  0  0
  143.0410   71.9020  220.5750 N   0  0  0  0  0  0  0  0  0  0  0  0
  144.3970   72.4280  220.6290 C   0  0  0  0  0  0  0  0  0  0  0  0
  145.0270   72.0330  219.2830 C   0  0  0  0  0  0  0  0  0  0  0  0
  145.0950   70.5490  219.3220 C   0  0  0  0  0  0  0  0  0  0  0  0
  146.2380   69.8310  219.0440 C   0  0  0  0  0  0  0  0  0  0  0  0
  146.2480   68.4300  219.0980 C   0  0  0  0  0  0  0  0  0  0  0  0
  145.0740   67.7760  219.4420 C   0  0  0  0  0  0  0  0  0  0  0  0
  143.9190   68.4730  219.7240 C   0  0  0  0  0  0  0  0  0  0  0  0
  143.9410   69.8570  219.6610 C   0  0  0  0  0  0  0  0  0  0  0  0
  142.7360   70.6380  219.9460 C   0  0  0  0  0  0  0  0  0  0  0  0
  141.8030   73.9460  220.9060 N   0  0  0  0  0  0  0  0  0  0  0  0
  140.0290   76.8000  222.3490 C   0  0  0  0  0  0  0  0  0  0  0  0
  142.3926   81.6271  222.7013 H   0  0  0  0  0  0  0  0  0  0  0  0
  140.7457   80.8593  224.4505 H   0  0  0  0  0  0  0  0  0  0  0  0
  139.7094   78.6199  224.2050 H   0  0  0  0  0  0  0  0  0  0  0  0
  142.9179   80.1344  220.8175 H   0  0  0  0  0  0  0  0  0  0  0  0
  142.1431   78.3841  219.3852 H   0  0  0  0  0  0  0  0  0  0  0  0
  142.9793   77.2255  220.4570 H   0  0  0  0  0  0  0  0  0  0  0  0
  140.0526   77.2263  219.5972 H   0  0  0  0  0  0  0  0  0  0  0  0
  141.3029   75.9794  219.2671 H   0  0  0  0  0  0  0  0  0  0  0  0
  139.0772   74.4985  222.7334 H   0  0  0  0  0  0  0  0  0  0  0  0
  138.1590   72.2460  223.5030 H   0  0  0  0  0  0  0  0  0  0  0  0
  140.4354   70.3533  223.2579 H   0  0  0  0  0  0  0  0  0  0  0  0
  137.6354   70.1199  224.6532 H   0  0  0  0  0  0  0  0  0  0  0  0
  138.0995   69.2003  223.2706 H   0  0  0  0  0  0  0  0  0  0  0  0
  138.5389   68.0528  225.6669 H   0  0  0  0  0  0  0  0  0  0  0  0
  139.9294   68.0012  224.6334 H   0  0  0  0  0  0  0  0  0  0  0  0
  140.0379   68.5709  227.8662 H   0  0  0  0  0  0  0  0  0  0  0  0
  141.1354   70.4465  229.1345 H   0  0  0  0  0  0  0  0  0  0  0  0
  141.5615   72.5640  227.9095 H   0  0  0  0  0  0  0  0  0  0  0  0
  140.9475   72.8487  225.5550 H   0  0  0  0  0  0  0  0  0  0  0  0
  144.3837   73.5219  220.7442 H   0  0  0  0  0  0  0  0  0  0  0  0
  144.9625   72.0297  221.4843 H   0  0  0  0  0  0  0  0  0  0  0  0
  144.3984   72.3710  218.4460 H   0  0  0  0  0  0  0  0  0  0  0  0
  146.0155   72.4921  219.1344 H   0  0  0  0  0  0  0  0  0  0  0  0
  147.1599   70.3672  218.7747 H   0  0  0  0  0  0  0  0  0  0  0  0
  147.1638   67.8636  218.8732 H   0  0  0  0  0  0  0  0  0  0  0  0
  145.0647   66.6771  219.4908 H   0  0  0  0  0  0  0  0  0  0  0  0
  142.9956   67.9398  219.9944 H   0  0  0  0  0  0  0  0  0  0  0  0
  142.2073   70.8311  219.0009 H   0  0  0  0  0  0  0  0  0  0  0  0
  142.1133   70.0563  220.6416 H   0  0  0  0  0  0  0  0  0  0  0  0
  138.9498   76.9446  222.1928 H   0  0  0  0  0  0  0  0  0  0  0  0
  140.1685   76.2598  223.2970 H   0  0  0  0  0  0  0  0  0  0  0  0
  1  2  2  0
  2  3  1  0
  3  4  2  0
  4  5  1  0
  5  6  2  0
  5  7  1  0
  7  8  1  0
  8  9  1  0
  9 10  1  0
 10 11  2  0
 11 12  1  0
 12 13  1  0
 13 14  1  0
 14 15  1  0
 15 16  1  0
 16 17  1  0
 17 18  2  0
 18 19  1  0
 19 20  2  0
 20 21  1  0
 21 22  2  0
 12 23  2  0
 23 24  1  0
 24 25  1  0
 25 26  1  0
 26 27  1  0
 27 28  1  0
 28 29  2  0
 29 30  1  0
 30 31  2  0
 31 32  1  0
 32 33  2  0
 33 34  1  0
 24 35  2  0
  9 36  1  0
  6  1  1  0
 35 10  1  0
 36  4  1  0
 22 14  1  0
 34 25  1  0
 22 17  1  0
 33 28  1  0
  1 37  1  0
  2 38  1  0
  3 39  1  0
  6 40  1  0
  7 41  1  0
  7 42  1  0
  8 43  1  0
  8 44  1  0
 11 45  1  0
 13 46  1  0
 14 47  1  6
 15 48  1  0
 15 49  1  0
 16 50  1  0
 16 51  1  0
 18 52  1  0
 19 53  1  0
 20 54  1  0
 21 55  1  0
 26 56  1  0
 26 57  1  0
 27 58  1  0
 27 59  1  0
 29 60  1  0
 30 61  1  0
 31 62  1  0
 32 63  1  0
 34 64  1  0
 34 65  1  0
 36 66  1  0
 36 67  1  0
M  END
>  <smiles>  (15) 
c1ccc2c(c1)CCN(c1cc(N[C@@H]3CCc4ccccc43)nc(N3CCc4ccccc4C3)n1)C2

>  <score_type>  (15) 
oracle

>  <origin>  (15) 
autodockgpu

>  <m_score__min__energy>  (15) 
-11.31

>  <m_primary>  (15) 
energy

>  <meeko>  (15) 
{"free_energy": -11.31, "intermolecular_energy": -12.5, "internal_energy": -1.21, "cluster_size": 20, "cluster_id": 1, "rank_in_cluster": 2}

>  <energy>  (15) 
-10.77

>  <cluster_rmsd>  (15) 
1.97

>  <rmsd>  (15) 
270.28

>  <cluster>  (15) 
1

$$$$

     RDKit          3D

 67 73  0  0  0  0  0  0  0  0999 V2000
  142.5470   80.4420  222.6010 C   0  0  0  0  0  0  0  0  0  0  0  0
  142.2480   79.8250  223.8160 C   0  0  0  0  0  0  0  0  0  0  0  0
  141.5970   78.6010  223.7810 C   0  0  0  0  0  0  0  0  0  0  0  0
  141.2380   77.9790  222.6040 C   0  0  0  0  0  0  0  0  0  0  0  0
  141.5320   78.5830  221.4140 C   0  0  0  0  0  0  0  0  0  0  0  0
  142.1860   79.8130  221.4360 C   0  0  0  0  0  0  0  0  0  0  0  0
  141.2050   78.0120  220.0800 C   0  0  0  0  0  0  0  0  0  0  0  0
  140.0780   77.0300  220.2560 C   0  0  0  0  0  0  0  0  0  0  0  0
  140.3850   76.1330  221.3560 N   0  0  0  0  0  0  0  0  0  0  0  0
  140.5690   74.7300  221.1840 C   0  0  0  0  0  0  0  0  0  0  0  0
  141.0470   74.2620  219.9550 C   0  0  0  0  0  0  0  0  0  0  0  0
  141.2260   72.9130  219.7100 C   0  0  0  0  0  0  0  0  0  0  0  0
  141.7670   72.4510  218.4430 N   0  0  0  0  0  0  0  0  0  0  0  0
  143.1540   72.0120  218.5300 C   0  0  2  0  0  0  0  0  0  0  0  0
  143.2430   70.7060  219.3330 C   0  0  0  0  0  0  0  0  0  0  0  0
  144.7470   70.7000  219.6080 C   0  0  0  0  0  0  0  0  0  0  0  0
  144.9550   72.1400  220.0010 C   0  0  0  0  0  0  0  0  0  0  0  0
  145.9010   72.6620  220.8430 C   0  0  0  0  0  0  0  0  0  0  0  0
  145.9450   74.0270  221.1040 C   0  0  0  0  0  0  0  0  0  0  0  0
  144.9960   74.7990  220.4720 C   0  0  0  0  0  0  0  0  0  0  0  0
  144.0400   74.2700  219.6210 C   0  0  0  0  0  0  0  0  0  0  0  0
  143.9880   72.9150  219.3550 C   0  0  0  0  0  0  0  0  0  0  0  0
  140.9250   72.0500  220.6940 N   0  0  0  0  0  0  0  0  0  0  0  0
  140.4570   72.4860  221.9000 C   0  0  0  0  0  0  0  0  0  0  0  0
  140.1570   71.5340  222.8940 N   0  0  0  0  0  0  0  0  0  0  0  0
  139.5840   70.2470  222.5280 C   0  0  0  0  0  0  0  0  0  0  0  0
  138.5900   69.9230  223.6560 C   0  0  0  0  0  0  0  0  0  0  0  0
  139.4370   69.7380  224.8620 C   0  0  0  0  0  0  0  0  0  0  0  0
  139.3510   68.6420  225.6930 C   0  0  0  0  0  0  0  0  0  0  0  0
  140.1770   68.5140  226.8170 C   0  0  0  0  0  0  0  0  0  0  0  0
  141.0940   69.5220  227.0780 C   0  0  0  0  0  0  0  0  0  0  0  0
  141.1990   70.6270  226.2610 C   0  0  0  0  0  0  0  0  0  0  0  0
  140.3680   70.7240  225.1580 C   0  0  0  0  0  0  0  0  0  0  0  0
  140.4390   71.8830  224.2660 C   0  0  0  0  0  0  0  0  0  0  0  0
  140.2920   73.8130  222.1140 N   0  0  0  0  0  0  0  0  0  0  0  0
  140.5350   76.6590  222.7090 C   0  0  0  0  0  0  0  0  0  0  0  0
  143.0620   81.4137  222.5773 H   0  0  0  0  0  0  0  0  0  0  0  0
  142.5203   80.2950  224.7725 H   0  0  0  0  0  0  0  0  0  0  0  0
  141.3567   78.1051  224.7330 H   0  0  0  0  0  0  0  0  0  0  0  0
  142.4231   80.3006  220.4789 H   0  0  0  0  0  0  0  0  0  0  0  0
  140.8958   78.8159  219.3958 H   0  0  0  0  0  0  0  0  0  0  0  0
  142.0858   77.5093  219.6540 H   0  0  0  0  0  0  0  0  0  0  0  0
  139.1479   77.5747  220.4757 H   0  0  0  0  0  0  0  0  0  0  0  0
  139.9519   76.4471  219.3317 H   0  0  0  0  0  0  0  0  0  0  0  0
  141.2867   74.9865  219.1628 H   0  0  0  0  0  0  0  0  0  0  0  0
  141.2020   72.4500  217.5910 H   0  0  0  0  0  0  0  0  0  0  0  0
  143.4923   71.9498  217.4852 H   0  0  0  0  0  0  0  0  0  0  0  0
  142.6537   70.7507  220.2608 H   0  0  0  0  0  0  0  0  0  0  0  0
  142.8496   69.8113  218.8283 H   0  0  0  0  0  0  0  0  0  0  0  0
  145.0083   70.0130  220.4264 H   0  0  0  0  0  0  0  0  0  0  0  0
  145.3674   70.3583  218.7664 H   0  0  0  0  0  0  0  0  0  0  0  0
  146.6342   71.9937  221.3181 H   0  0  0  0  0  0  0  0  0  0  0  0
  146.6959   74.4656  221.7776 H   0  0  0  0  0  0  0  0  0  0  0  0
  144.9973   75.8843  220.6510 H   0  0  0  0  0  0  0  0  0  0  0  0
  143.3081   74.9412  219.1478 H   0  0  0  0  0  0  0  0  0  0  0  0
  139.0638   70.3156  221.5612 H   0  0  0  0  0  0  0  0  0  0  0  0
  140.3523   69.4678  222.4158 H   0  0  0  0  0  0  0  0  0  0  0  0
  137.8838   70.7537  223.8015 H   0  0  0  0  0  0  0  0  0  0  0  0
  137.9825   69.0335  223.4332 H   0  0  0  0  0  0  0  0  0  0  0  0
  138.6191   67.8519  225.4691 H   0  0  0  0  0  0  0  0  0  0  0  0
  140.1006   67.6366  227.4760 H   0  0  0  0  0  0  0  0  0  0  0  0
  141.7514   69.4374  227.9559 H   0  0  0  0  0  0  0  0  0  0  0  0
  141.9306   71.4183  226.4816 H   0  0  0  0  0  0  0  0  0  0  0  0
  139.7051   72.6316  224.5990 H   0  0  0  0  0  0  0  0  0  0  0  0
  141.4640   72.2799  224.3094 H   0  0  0  0  0  0  0  0  0  0  0  0
  139.5459   76.7959  223.1705 H   0  0  0  0  0  0  0  0  0  0  0  0
  141.1119   75.9615  223.3341 H   0  0  0  0  0  0  0  0  0  0  0  0
  1  2  2  0
  2  3  1  0
  3  4  2  0
  4  5  1  0
  5  6  2  0
  5  7  1  0
  7  8  1  0
  8  9  1  0
  9 10  1  0
 10 11  2  0
 11 12  1  0
 12 13  1  0
 13 14  1  0
 14 15  1  0
 15 16  1  0
 16 17  1  0
 17 18  2  0
 18 19  1  0
 19 20  2  0
 20 21  1  0
 21 22  2  0
 12 23  2  0
 23 24  1  0
 24 25  1  0
 25 26  1  0
 26 27  1  0
 27 28  1  0
 28 29  2  0
 29 30  1  0
 30 31  2  0
 31 32  1  0
 32 33  2  0
 33 34  1  0
 24 35  2  0
  9 36  1  0
  6  1  1  0
 35 10  1  0
 36  4  1  0
 22 14  1  0
 34 25  1  0
 22 17  1  0
 33 28  1  0
  1 37  1  0
  2 38  1  0
  3 39  1  0
  6 40  1  0
  7 41  1  0
  7 42  1  0
  8 43  1  0
  8 44  1  0
 11 45  1  0
 13 46  1  0
 14 47  1  6
 15 48  1  0
 15 49  1  0
 16 50  1  0
 16 51  1  0
 18 52  1  0
 19 53  1  0
 20 54  1  0
 21 55  1  0
 26 56  1  0
 26 57  1  0
 27 58  1  0
 27 59  1  0
 29 60  1  0
 30 61  1  0
 31 62  1  0
 32 63  1  0
 34 64  1  0
 34 65  1  0
 36 66  1  0
 36 67  1  0
M  END
>  <smiles>  (16) 
c1ccc2c(c1)CCN(c1cc(N[C@@H]3CCc4ccccc43)nc(N3CCc4ccccc4C3)n1)C2

>  <score_type>  (16) 
oracle

>  <origin>  (16) 
autodockgpu

>  <m_score__min__energy>  (16) 
-11.31

>  <m_primary>  (16) 
energy

>  <meeko>  (16) 
{"free_energy": -10.77, "intermolecular_energy": -11.96, "internal_energy": -1.61, "cluster_size": 20, "cluster_id": 1, "rank_in_cluster": 16}

>  <energy>  (16) 
-10.77

>  <cluster_rmsd>  (16) 
1.97

>  <rmsd>  (16) 
270.29

>  <cluster>  (16) 
1

$$$$

     RDKit          3D

 67 73  0  0  0  0  0  0  0  0999 V2000
  142.4680   80.5410  222.5340 C   0  0  0  0  0  0  0  0  0  0  0  0
  142.0970   79.9840  223.7580 C   0  0  0  0  0  0  0  0  0  0  0  0
  141.4590   78.7530  223.7470 C   0  0  0  0  0  0  0  0  0  0  0  0
  141.1820   78.0660  222.5840 C   0  0  0  0  0  0  0  0  0  0  0  0
  141.5450   78.6110  221.3850 C   0  0  0  0  0  0  0  0  0  0  0  0
  142.1860   79.8480  221.3830 C   0  0  0  0  0  0  0  0  0  0  0  0
  141.3090   77.9670  220.0650 C   0  0  0  0  0  0  0  0  0  0  0  0
  140.1820   76.9820  220.2210 C   0  0  0  0  0  0  0  0  0  0  0  0
  140.4260   76.1480  221.3850 N   0  0  0  0  0  0  0  0  0  0  0  0
  140.6310   74.7390  221.2980 C   0  0  0  0  0  0  0  0  0  0  0  0
  141.2220   74.2180  220.1430 C   0  0  0  0  0  0  0  0  0  0  0  0
  141.4300   72.8600  219.9810 C   0  0  0  0  0  0  0  0  0  0  0  0
  142.0870   72.3430  218.7920 N   0  0  0  0  0  0  0  0  0  0  0  0
  143.2520   73.1190  218.3900 C   0  0  2  0  0  0  0  0  0  0  0  0
  144.0510   72.3550  217.3240 C   0  0  0  0  0  0  0  0  0  0  0  0
  145.3530   73.1530  217.3880 C   0  0  0  0  0  0  0  0  0  0  0  0
  145.5230   73.2720  218.8810 C   0  0  0  0  0  0  0  0  0  0  0  0
  146.6870   73.3850  219.5960 C   0  0  0  0  0  0  0  0  0  0  0  0
  146.6620   73.4770  220.9830 C   0  0  0  0  0  0  0  0  0  0  0  0
  145.4180   73.4480  221.5740 C   0  0  0  0  0  0  0  0  0  0  0  0
  144.2440   73.3330  220.8500 C   0  0  0  0  0  0  0  0  0  0  0  0
  144.2570   73.2410  219.4700 C   0  0  0  0  0  0  0  0  0  0  0  0
  141.0450   72.0430  220.9740 N   0  0  0  0  0  0  0  0  0  0  0  0
  140.4670   72.5320  222.1110 C   0  0  0  0  0  0  0  0  0  0  0  0
  140.0830   71.6270  223.1190 N   0  0  0  0  0  0  0  0  0  0  0  0
  139.2160   70.5000  222.8020 C   0  0  0  0  0  0  0  0  0  0  0  0
  138.3040   70.3480  224.0310 C   0  0  0  0  0  0  0  0  0  0  0  0
  139.2190   69.9460  225.1300 C   0  0  0  0  0  0  0  0  0  0  0  0
  138.9940   68.8610  225.9500 C   0  0  0  0  0  0  0  0  0  0  0  0
  139.8920   68.5230  226.9720 C   0  0  0  0  0  0  0  0  0  0  0  0
  141.0230   69.3080  227.1410 C   0  0  0  0  0  0  0  0  0  0  0  0
  141.2690   70.3970  226.3330 C   0  0  0  0  0  0  0  0  0  0  0  0
  140.3620   70.7060  225.3330 C   0  0  0  0  0  0  0  0  0  0  0  0
  140.5790   71.8580  224.4550 C   0  0  0  0  0  0  0  0  0  0  0  0
  140.2760   73.8660  222.2440 N   0  0  0  0  0  0  0  0  0  0  0  0
  140.4840   76.7460  222.7150 C   0  0  0  0  0  0  0  0  0  0  0  0
  142.9762   81.5157  222.4920 H   0  0  0  0  0  0  0  0  0  0  0  0
  142.3044   80.5059  224.7038 H   0  0  0  0  0  0  0  0  0  0  0  0
  141.1612   78.3055  224.7067 H   0  0  0  0  0  0  0  0  0  0  0  0
  142.4786   80.2880  220.4182 H   0  0  0  0  0  0  0  0  0  0  0  0
  141.0370   78.7302  219.3210 H   0  0  0  0  0  0  0  0  0  0  0  0
  142.2197   77.4536  219.7229 H   0  0  0  0  0  0  0  0  0  0  0  0
  139.2349   77.5260  220.3516 H   0  0  0  0  0  0  0  0  0  0  0  0
  140.1206   76.3497  219.3230 H   0  0  0  0  0  0  0  0  0  0  0  0
  141.5297   74.9061  219.3419 H   0  0  0  0  0  0  0  0  0  0  0  0
  141.7360   71.5130  218.3080 H   0  0  0  0  0  0  0  0  0  0  0  0
  142.8433   74.0892  218.0712 H   0  0  0  0  0  0  0  0  0  0  0  0
  144.1996   71.2998  217.5967 H   0  0  0  0  0  0  0  0  0  0  0  0
  143.5803   72.2942  216.3316 H   0  0  0  0  0  0  0  0  0  0  0  0
  146.1883   72.6067  216.9256 H   0  0  0  0  0  0  0  0  0  0  0  0
  145.3323   74.1117  216.8491 H   0  0  0  0  0  0  0  0  0  0  0  0
  147.6511   73.4031  219.0667 H   0  0  0  0  0  0  0  0  0  0  0  0
  147.5843   73.5679  221.5755 H   0  0  0  0  0  0  0  0  0  0  0  0
  145.3549   73.5194  222.6699 H   0  0  0  0  0  0  0  0  0  0  0  0
  143.2817   73.3144  221.3826 H   0  0  0  0  0  0  0  0  0  0  0  0
  138.6206   70.7105  221.9013 H   0  0  0  0  0  0  0  0  0  0  0  0
  139.7867   69.5832  222.5925 H   0  0  0  0  0  0  0  0  0  0  0  0
  137.8088   71.3014  224.2673 H   0  0  0  0  0  0  0  0  0  0  0  0
  137.5019   69.6134  223.8666 H   0  0  0  0  0  0  0  0  0  0  0  0
  138.0926   68.2487  225.7995 H   0  0  0  0  0  0  0  0  0  0  0  0
  139.7044   67.6569  227.6236 H   0  0  0  0  0  0  0  0  0  0  0  0
  141.7390   69.0559  227.9371 H   0  0  0  0  0  0  0  0  0  0  0  0
  142.1703   71.0103  226.4798 H   0  0  0  0  0  0  0  0  0  0  0  0
  140.0598   72.7298  224.8797 H   0  0  0  0  0  0  0  0  0  0  0  0
  141.6631   72.0313  224.3873 H   0  0  0  0  0  0  0  0  0  0  0  0
  139.4662   76.8961  223.1043 H   0  0  0  0  0  0  0  0  0  0  0  0
  141.0242   76.0890  223.4126 H   0  0  0  0  0  0  0  0  0  0  0  0
  1  2  2  0
  2  3  1  0
  3  4  2  0
  4  5  1  0
  5  6  2  0
  5  7  1  0
  7  8  1  0
  8  9  1  0
  9 10  1  0
 10 11  2  0
 11 12  1  0
 12 13  1  0
 13 14  1  0
 14 15  1  0
 15 16  1  0
 16 17  1  0
 17 18  2  0
 18 19  1  0
 19 20  2  0
 20 21  1  0
 21 22  2  0
 12 23  2  0
 23 24  1  0
 24 25  1  0
 25 26  1  0
 26 27  1  0
 27 28  1  0
 28 29  2  0
 29 30  1  0
 30 31  2  0
 31 32  1  0
 32 33  2  0
 33 34  1  0
 24 35  2  0
  9 36  1  0
  6  1  1  0
 35 10  1  0
 36  4  1  0
 22 14  1  0
 34 25  1  0
 22 17  1  0
 33 28  1  0
  1 37  1  0
  2 38  1  0
  3 39  1  0
  6 40  1  0
  7 41  1  0
  7 42  1  0
  8 43  1  0
  8 44  1  0
 11 45  1  0
 13 46  1  0
 14 47  1  6
 15 48  1  0
 15 49  1  0
 16 50  1  0
 16 51  1  0
 18 52  1  0
 19 53  1  0
 20 54  1  0
 21 55  1  0
 26 56  1  0
 26 57  1  0
 27 58  1  0
 27 59  1  0
 29 60  1  0
 30 61  1  0
 31 62  1  0
 32 63  1  0
 34 64  1  0
 34 65  1  0
 36 66  1  0
 36 67  1  0
M  END
>  <smiles>  (17) 
c1ccc2c(c1)CCN(c1cc(N[C@@H]3CCc4ccccc43)nc(N3CCc4ccccc4C3)n1)C2

>  <score_type>  (17) 
oracle

>  <origin>  (17) 
autodockgpu

>  <m_score__min__energy>  (17) 
-11.31

>  <m_primary>  (17) 
energy

>  <meeko>  (17) 
{"free_energy": -10.48, "intermolecular_energy": -11.68, "internal_energy": -1.31, "cluster_size": 20, "cluster_id": 1, "rank_in_cluster": 20}

>  <energy>  (17) 
-10.75

>  <cluster_rmsd>  (17) 
1.99

>  <rmsd>  (17) 
270.28

>  <cluster>  (17) 
1

$$$$

     RDKit          3D

 67 73  0  0  0  0  0  0  0  0999 V2000
  141.8890   80.6330  222.5820 C   0  0  0  0  0  0  0  0  0  0  0  0
  140.9910   80.2050  223.5590 C   0  0  0  0  0  0  0  0  0  0  0  0
  140.4260   78.9460  223.4170 C   0  0  0  0  0  0  0  0  0  0  0  0
  140.7160   78.1130  222.3580 C   0  0  0  0  0  0  0  0  0  0  0  0
  141.5960   78.5310  221.4010 C   0  0  0  0  0  0  0  0  0  0  0  0
  142.1710   79.7940  221.5320 C   0  0  0  0  0  0  0  0  0  0  0  0
  141.9960   77.7240  220.2180 C   0  0  0  0  0  0  0  0  0  0  0  0
  140.9210   76.7020  219.9650 C   0  0  0  0  0  0  0  0  0  0  0  0
  140.5930   76.0260  221.2090 N   0  0  0  0  0  0  0  0  0  0  0  0
  140.8090   74.6310  221.4120 C   0  0  0  0  0  0  0  0  0  0  0  0
  139.9280   73.9300  222.2410 C   0  0  0  0  0  0  0  0  0  0  0  0
  140.0910   72.5810  222.5010 C   0  0  0  0  0  0  0  0  0  0  0  0
  139.1380   71.8620  223.3290 N   0  0  0  0  0  0  0  0  0  0  0  0
  139.6800   70.6410  223.9110 C   0  0  2  0  0  0  0  0  0  0  0  0
  138.5560   69.6210  224.1370 C   0  0  0  0  0  0  0  0  0  0  0  0
  139.2900   68.6660  225.0800 C   0  0  0  0  0  0  0  0  0  0  0  0
  139.9520   69.6560  226.0030 C   0  0  0  0  0  0  0  0  0  0  0  0
  140.2960   69.4890  227.3190 C   0  0  0  0  0  0  0  0  0  0  0  0
  140.8990   70.5190  228.0320 C   0  0  0  0  0  0  0  0  0  0  0  0
  141.1210   71.6900  227.3410 C   0  0  0  0  0  0  0  0  0  0  0  0
  140.7720   71.8570  226.0110 C   0  0  0  0  0  0  0  0  0  0  0  0
  140.1720   70.8390  225.2940 C   0  0  0  0  0  0  0  0  0  0  0  0
  141.1310   71.9540  221.9310 N   0  0  0  0  0  0  0  0  0  0  0  0
  142.0030   72.6200  221.1190 C   0  0  0  0  0  0  0  0  0  0  0  0
  143.0770   71.9080  220.5490 N   0  0  0  0  0  0  0  0  0  0  0  0
  144.4270   72.4510  220.6000 C   0  0  0  0  0  0  0  0  0  0  0  0
  145.0610   72.0570  219.2550 C   0  0  0  0  0  0  0  0  0  0  0  0
  145.1460   70.5750  219.3000 C   0  0  0  0  0  0  0  0  0  0  0  0
  146.2970   69.8690  219.0250 C   0  0  0  0  0  0  0  0  0  0  0  0
  146.3240   68.4690  219.0840 C   0  0  0  0  0  0  0  0  0  0  0  0
  145.1580   67.8020  219.4310 C   0  0  0  0  0  0  0  0  0  0  0  0
  143.9950   68.4870  219.7110 C   0  0  0  0  0  0  0  0  0  0  0  0
  144.0000   69.8700  219.6430 C   0  0  0  0  0  0  0  0  0  0  0  0
  142.7870   70.6380  219.9250 C   0  0  0  0  0  0  0  0  0  0  0  0
  141.8190   73.9400  220.8790 N   0  0  0  0  0  0  0  0  0  0  0  0
  140.0310   76.7790  222.3250 C   0  0  0  0  0  0  0  0  0  0  0  0
  142.3624   81.6235  222.6509 H   0  0  0  0  0  0  0  0  0  0  0  0
  140.7382   80.8462  224.4163 H   0  0  0  0  0  0  0  0  0  0  0  0
  139.7165   78.5978  224.1821 H   0  0  0  0  0  0  0  0  0  0  0  0
  142.8801   80.1327  220.7623 H   0  0  0  0  0  0  0  0  0  0  0  0
  142.1034   78.3775  219.3397 H   0  0  0  0  0  0  0  0  0  0  0  0
  142.9592   77.2263  220.4039 H   0  0  0  0  0  0  0  0  0  0  0  0
  140.0239   77.2030  219.5723 H   0  0  0  0  0  0  0  0  0  0  0  0
  141.2805   75.9656  219.2312 H   0  0  0  0  0  0  0  0  0  0  0  0
  139.0829   74.4652  222.6986 H   0  0  0  0  0  0  0  0  0  0  0  0
  138.1850   72.2060  223.4670 H   0  0  0  0  0  0  0  0  0  0  0  0
  140.4704   70.3269  223.2134 H   0  0  0  0  0  0  0  0  0  0  0  0
  137.6751   70.0760  224.6135 H   0  0  0  0  0  0  0  0  0  0  0  0
  138.1410   69.1631  223.2270 H   0  0  0  0  0  0  0  0  0  0  0  0
  138.5913   68.0102  225.6200 H   0  0  0  0  0  0  0  0  0  0  0  0
  139.9791   67.9672  224.5832 H   0  0  0  0  0  0  0  0  0  0  0  0
  140.0928   68.5293  227.8167 H   0  0  0  0  0  0  0  0  0  0  0  0
  141.1829   70.4053  229.0886 H   0  0  0  0  0  0  0  0  0  0  0  0
  141.5966   72.5297  227.8690 H   0  0  0  0  0  0  0  0  0  0  0  0
  140.9762   72.8179  225.5161 H   0  0  0  0  0  0  0  0  0  0  0  0
  144.4005   73.5452  220.7100 H   0  0  0  0  0  0  0  0  0  0  0  0
  144.9978   72.0639  221.4570 H   0  0  0  0  0  0  0  0  0  0  0  0
  144.4282   72.3843  218.4169 H   0  0  0  0  0  0  0  0  0  0  0  0
  146.0442   72.5266  219.1041 H   0  0  0  0  0  0  0  0  0  0  0  0
  147.2126   70.4150  218.7538 H   0  0  0  0  0  0  0  0  0  0  0  0
  147.2465   67.9130  218.8608 H   0  0  0  0  0  0  0  0  0  0  0  0
  145.1617   66.7033  219.4838 H   0  0  0  0  0  0  0  0  0  0  0  0
  143.0782   67.9439  219.9839 H   0  0  0  0  0  0  0  0  0  0  0  0
  142.2561   70.8212  218.9792 H   0  0  0  0  0  0  0  0  0  0  0  0
  142.1714   70.0519  220.6232 H   0  0  0  0  0  0  0  0  0  0  0  0
  138.9493   76.9156  222.1793 H   0  0  0  0  0  0  0  0  0  0  0  0
  140.1841   76.2409  223.2721 H   0  0  0  0  0  0  0  0  0  0  0  0
  1  2  2  0
  2  3  1  0
  3  4  2  0
  4  5  1  0
  5  6  2  0
  5  7  1  0
  7  8  1  0
  8  9  1  0
  9 10  1  0
 10 11  2  0
 11 12  1  0
 12 13  1  0
 13 14  1  0
 14 15  1  0
 15 16  1  0
 16 17  1  0
 17 18  2  0
 18 19  1  0
 19 20  2  0
 20 21  1  0
 21 22  2  0
 12 23  2  0
 23 24  1  0
 24 25  1  0
 25 26  1  0
 26 27  1  0
 27 28  1  0
 28 29  2  0
 29 30  1  0
 30 31  2  0
 31 32  1  0
 32 33  2  0
 33 34  1  0
 24 35  2  0
  9 36  1  0
  6  1  1  0
 35 10  1  0
 36  4  1  0
 22 14  1  0
 34 25  1  0
 22 17  1  0
 33 28  1  0
  1 37  1  0
  2 38  1  0
  3 39  1  0
  6 40  1  0
  7 41  1  0
  7 42  1  0
  8 43  1  0
  8 44  1  0
 11 45  1  0
 13 46  1  0
 14 47  1  6
 15 48  1  0
 15 49  1  0
 16 50  1  0
 16 51  1  0
 18 52  1  0
 19 53  1  0
 20 54  1  0
 21 55  1  0
 26 56  1  0
 26 57  1  0
 27 58  1  0
 27 59  1  0
 29 60  1  0
 30 61  1  0
 31 62  1  0
 32 63  1  0
 34 64  1  0
 34 65  1  0
 36 66  1  0
 36 67  1  0
M  END
>  <smiles>  (18) 
c1ccc2c(c1)CCN(c1cc(N[C@@H]3CCc4ccccc43)nc(N3CCc4ccccc4C3)n1)C2

>  <score_type>  (18) 
oracle

>  <origin>  (18) 
autodockgpu

>  <m_score__min__energy>  (18) 
-11.31

>  <m_primary>  (18) 
energy

>  <meeko>  (18) 
{"free_energy": -11.29, "intermolecular_energy": -12.48, "internal_energy": -1.21, "cluster_size": 20, "cluster_id": 1, "rank_in_cluster": 12}

>  <energy>  (18) 
-10.74

>  <cluster_rmsd>  (18) 
1.98

>  <rmsd>  (18) 
270.28

>  <cluster>  (18) 
1

$$$$

     RDKit          3D

 67 73  0  0  0  0  0  0  0  0999 V2000
  141.9070   80.6410  222.6270 C   0  0  0  0  0  0  0  0  0  0  0  0
  140.9940   80.2160  223.5920 C   0  0  0  0  0  0  0  0  0  0  0  0
  140.4250   78.9600  223.4430 C   0  0  0  0  0  0  0  0  0  0  0  0
  140.7250   78.1250  222.3880 C   0  0  0  0  0  0  0  0  0  0  0  0
  141.6200   78.5400  221.4420 C   0  0  0  0  0  0  0  0  0  0  0  0
  142.1980   79.8010  221.5810 C   0  0  0  0  0  0  0  0  0  0  0  0
  142.0310   77.7310  220.2640 C   0  0  0  0  0  0  0  0  0  0  0  0
  140.9550   76.7140  219.9970 C   0  0  0  0  0  0  0  0  0  0  0  0
  140.6080   76.0400  221.2360 N   0  0  0  0  0  0  0  0  0  0  0  0
  140.8150   74.6440  221.4410 C   0  0  0  0  0  0  0  0  0  0  0  0
  139.9330   73.9510  222.2770 C   0  0  0  0  0  0  0  0  0  0  0  0
  140.0880   72.6020  222.5390 C   0  0  0  0  0  0  0  0  0  0  0  0
  139.1340   71.8910  223.3740 N   0  0  0  0  0  0  0  0  0  0  0  0
  139.6720   70.6700  223.9590 C   0  0  2  0  0  0  0  0  0  0  0  0
  138.5440   69.6550  224.1880 C   0  0  0  0  0  0  0  0  0  0  0  0
  139.2740   68.6990  225.1320 C   0  0  0  0  0  0  0  0  0  0  0  0
  139.9410   69.6880  226.0530 C   0  0  0  0  0  0  0  0  0  0  0  0
  140.2850   69.5230  227.3690 C   0  0  0  0  0  0  0  0  0  0  0  0
  140.8920   70.5520  228.0790 C   0  0  0  0  0  0  0  0  0  0  0  0
  141.1190   71.7200  227.3860 C   0  0  0  0  0  0  0  0  0  0  0  0
  140.7700   71.8850  226.0550 C   0  0  0  0  0  0  0  0  0  0  0  0
  140.1650   70.8680  225.3410 C   0  0  0  0  0  0  0  0  0  0  0  0
  141.1210   71.9650  221.9650 N   0  0  0  0  0  0  0  0  0  0  0  0
  141.9930   72.6230  221.1460 C   0  0  0  0  0  0  0  0  0  0  0  0
  143.0580   71.9020  220.5720 N   0  0  0  0  0  0  0  0  0  0  0  0
  144.4120   72.4360  220.6140 C   0  0  0  0  0  0  0  0  0  0  0  0
  145.0350   72.0340  219.2660 C   0  0  0  0  0  0  0  0  0  0  0  0
  145.1100   70.5510  219.3160 C   0  0  0  0  0  0  0  0  0  0  0  0
  146.2550   69.8360  219.0360 C   0  0  0  0  0  0  0  0  0  0  0  0
  146.2730   68.4360  219.1000 C   0  0  0  0  0  0  0  0  0  0  0  0
  145.1050   67.7790  219.4570 C   0  0  0  0  0  0  0  0  0  0  0  0
  143.9480   68.4720  219.7420 C   0  0  0  0  0  0  0  0  0  0  0  0
  143.9620   69.8550  219.6680 C   0  0  0  0  0  0  0  0  0  0  0  0
  142.7550   70.6320  219.9550 C   0  0  0  0  0  0  0  0  0  0  0  0
  141.8170   73.9440  220.9040 N   0  0  0  0  0  0  0  0  0  0  0  0
  140.0350   76.7950  222.3450 C   0  0  0  0  0  0  0  0  0  0  0  0
  142.3842   81.6292  222.7026 H   0  0  0  0  0  0  0  0  0  0  0  0
  140.7329   80.8581  224.4461 H   0  0  0  0  0  0  0  0  0  0  0  0
  139.7037   78.6155  224.1987 H   0  0  0  0  0  0  0  0  0  0  0  0
  142.9178   80.1371  220.8202 H   0  0  0  0  0  0  0  0  0  0  0  0
  142.1526   78.3841  219.3873 H   0  0  0  0  0  0  0  0  0  0  0  0
  142.9893   77.2287  220.4623 H   0  0  0  0  0  0  0  0  0  0  0  0
  140.0653   77.2189  219.5926 H   0  0  0  0  0  0  0  0  0  0  0  0
  141.3207   75.9759  219.2679 H   0  0  0  0  0  0  0  0  0  0  0  0
  139.0943   74.4933  222.7380 H   0  0  0  0  0  0  0  0  0  0  0  0
  138.1840   72.2420  223.5150 H   0  0  0  0  0  0  0  0  0  0  0  0
  140.4614   70.3523  223.2619 H   0  0  0  0  0  0  0  0  0  0  0  0
  137.6654   70.1146  224.6642 H   0  0  0  0  0  0  0  0  0  0  0  0
  138.1267   69.1970  223.2791 H   0  0  0  0  0  0  0  0  0  0  0  0
  138.5727   68.0472  225.6737 H   0  0  0  0  0  0  0  0  0  0  0  0
  139.9598   67.9963  224.6362 H   0  0  0  0  0  0  0  0  0  0  0  0
  140.0784   68.5653  227.8691 H   0  0  0  0  0  0  0  0  0  0  0  0
  141.1754   70.4396  229.1359 H   0  0  0  0  0  0  0  0  0  0  0  0
  141.5984   72.5588  227.9119 H   0  0  0  0  0  0  0  0  0  0  0  0
  140.9785   72.8436  225.5574 H   0  0  0  0  0  0  0  0  0  0  0  0
  144.3937   73.5306  220.7213 H   0  0  0  0  0  0  0  0  0  0  0  0
  144.9852   72.0475  221.4687 H   0  0  0  0  0  0  0  0  0  0  0  0
  144.3992   72.3629  218.4308 H   0  0  0  0  0  0  0  0  0  0  0  0
  146.0202   72.4967  219.1070 H   0  0  0  0  0  0  0  0  0  0  0  0
  147.1725   70.3748  218.7569 H   0  0  0  0  0  0  0  0  0  0  0  0
  147.1901   67.8727  218.8729 H   0  0  0  0  0  0  0  0  0  0  0  0
  145.1018   66.6805  219.5140 H   0  0  0  0  0  0  0  0  0  0  0  0
  143.0296   67.9360  220.0233 H   0  0  0  0  0  0  0  0  0  0  0  0
  142.2190   70.8151  219.0121 H   0  0  0  0  0  0  0  0  0  0  0  0
  142.1397   70.0526  220.6591 H   0  0  0  0  0  0  0  0  0  0  0  0
  138.9559   76.9366  222.1852 H   0  0  0  0  0  0  0  0  0  0  0  0
  140.1734   76.2556  223.2936 H   0  0  0  0  0  0  0  0  0  0  0  0
  1  2  2  0
  2  3  1  0
  3  4  2  0
  4  5  1  0
  5  6  2  0
  5  7  1  0
  7  8  1  0
  8  9  1  0
  9 10  1  0
 10 11  2  0
 11 12  1  0
 12 13  1  0
 13 14  1  0
 14 15  1  0
 15 16  1  0
 16 17  1  0
 17 18  2  0
 18 19  1  0
 19 20  2  0
 20 21  1  0
 21 22  2  0
 12 23  2  0
 23 24  1  0
 24 25  1  0
 25 26  1  0
 26 27  1  0
 27 28  1  0
 28 29  2  0
 29 30  1  0
 30 31  2  0
 31 32  1  0
 32 33  2  0
 33 34  1  0
 24 35  2  0
  9 36  1  0
  6  1  1  0
 35 10  1  0
 36  4  1  0
 22 14  1  0
 34 25  1  0
 22 17  1  0
 33 28  1  0
  1 37  1  0
  2 38  1  0
  3 39  1  0
  6 40  1  0
  7 41  1  0
  7 42  1  0
  8 43  1  0
  8 44  1  0
 11 45  1  0
 13 46  1  0
 14 47  1  6
 15 48  1  0
 15 49  1  0
 16 50  1  0
 16 51  1  0
 18 52  1  0
 19 53  1  0
 20 54  1  0
 21 55  1  0
 26 56  1  0
 26 57  1  0
 27 58  1  0
 27 59  1  0
 29 60  1  0
 30 61  1  0
 31 62  1  0
 32 63  1  0
 34 64  1  0
 34 65  1  0
 36 66  1  0
 36 67  1  0
M  END
>  <smiles>  (19) 
c1ccc2c(c1)CCN(c1cc(N[C@@H]3CCc4ccccc43)nc(N3CCc4ccccc4C3)n1)C2

>  <score_type>  (19) 
oracle

>  <origin>  (19) 
autodockgpu

>  <m_score__min__energy>  (19) 
-11.31

>  <m_primary>  (19) 
energy

>  <meeko>  (19) 
{"free_energy": -11.31, "intermolecular_energy": -12.5, "internal_energy": -1.21, "cluster_size": 20, "cluster_id": 1, "rank_in_cluster": 4}

>  <energy>  (19) 
-10.74

>  <cluster_rmsd>  (19) 
1.99

>  <rmsd>  (19) 
270.26

>  <cluster>  (19) 
1

$$$$

     RDKit          3D

 67 73  0  0  0  0  0  0  0  0999 V2000
  142.5330   80.4440  222.6240 C   0  0  0  0  0  0  0  0  0  0  0  0
  142.2280   79.8210  223.8340 C   0  0  0  0  0  0  0  0  0  0  0  0
  141.5780   78.5970  223.7890 C   0  0  0  0  0  0  0  0  0  0  0  0
  141.2270   77.9800  222.6070 C   0  0  0  0  0  0  0  0  0  0  0  0
  141.5270   78.5900  221.4220 C   0  0  0  0  0  0  0  0  0  0  0  0
  142.1790   79.8210  221.4530 C   0  0  0  0  0  0  0  0  0  0  0  0
  141.2080   78.0240  220.0830 C   0  0  0  0  0  0  0  0  0  0  0  0
  140.0810   77.0410  220.2480 C   0  0  0  0  0  0  0  0  0  0  0  0
  140.3830   76.1400  221.3470 N   0  0  0  0  0  0  0  0  0  0  0  0
  140.5680   74.7370  221.1680 C   0  0  0  0  0  0  0  0  0  0  0  0
  141.0400   74.2740  219.9360 C   0  0  0  0  0  0  0  0  0  0  0  0
  141.2210   72.9260  219.6860 C   0  0  0  0  0  0  0  0  0  0  0  0
  141.7560   72.4690  218.4130 N   0  0  0  0  0  0  0  0  0  0  0  0
  143.1510   72.0550  218.4860 C   0  0  2  0  0  0  0  0  0  0  0  0
  143.2680   70.7340  219.2600 C   0  0  0  0  0  0  0  0  0  0  0  0
  144.7730   70.7510  219.5290 C   0  0  0  0  0  0  0  0  0  0  0  0
  144.9550   72.1860  219.9520 C   0  0  0  0  0  0  0  0  0  0  0  0
  145.8950   72.7070  220.8020 C   0  0  0  0  0  0  0  0  0  0  0  0
  145.9140   74.0670  221.0930 C   0  0  0  0  0  0  0  0  0  0  0  0
  144.9480   74.8340  220.4810 C   0  0  0  0  0  0  0  0  0  0  0  0
  143.9990   74.3060  219.6220 C   0  0  0  0  0  0  0  0  0  0  0  0
  143.9710   72.9560  219.3270 C   0  0  0  0  0  0  0  0  0  0  0  0
  140.9280   72.0600  220.6680 N   0  0  0  0  0  0  0  0  0  0  0  0
  140.4660   72.4910  221.8780 C   0  0  0  0  0  0  0  0  0  0  0  0
  140.1740   71.5350  222.8710 N   0  0  0  0  0  0  0  0  0  0  0  0
  139.6650   70.2230  222.5000 C   0  0  0  0  0  0  0  0  0  0  0  0
  138.6500   69.8680  223.6000 C   0  0  0  0  0  0  0  0  0  0  0  0
  139.4680   69.7260  224.8330 C   0  0  0  0  0  0  0  0  0  0  0  0
  139.4000   68.6340  225.6700 C   0  0  0  0  0  0  0  0  0  0  0  0
  140.1970   68.5480  226.8200 C   0  0  0  0  0  0  0  0  0  0  0  0
  141.0640   69.5940  227.0990 C   0  0  0  0  0  0  0  0  0  0  0  0
  141.1500   70.6960  226.2760 C   0  0  0  0  0  0  0  0  0  0  0  0
  140.3490   70.7510  225.1480 C   0  0  0  0  0  0  0  0  0  0  0  0
  140.4010   71.9060  224.2480 C   0  0  0  0  0  0  0  0  0  0  0  0
  140.2990   73.8170  222.0980 N   0  0  0  0  0  0  0  0  0  0  0  0
  140.5240   76.6590  222.7030 C   0  0  0  0  0  0  0  0  0  0  0  0
  143.0475   81.4161  222.6083 H   0  0  0  0  0  0  0  0  0  0  0  0
  142.4948   80.2863  224.7944 H   0  0  0  0  0  0  0  0  0  0  0  0
  141.3318   78.0967  224.7372 H   0  0  0  0  0  0  0  0  0  0  0  0
  142.4201   80.3141  220.4997 H   0  0  0  0  0  0  0  0  0  0  0  0
  140.9024   78.8306  219.4003 H   0  0  0  0  0  0  0  0  0  0  0  0
  142.0916   77.5235  219.6602 H   0  0  0  0  0  0  0  0  0  0  0  0
  139.1492   77.5841  220.4642 H   0  0  0  0  0  0  0  0  0  0  0  0
  139.9603   76.4617  219.3207 H   0  0  0  0  0  0  0  0  0  0  0  0
  141.2736   75.0014  219.1446 H   0  0  0  0  0  0  0  0  0  0  0  0
  141.1810   72.4560  217.5680 H   0  0  0  0  0  0  0  0  0  0  0  0
  143.4864   72.0217  217.4389 H   0  0  0  0  0  0  0  0  0  0  0  0
  142.6819   70.7473  220.1907 H   0  0  0  0  0  0  0  0  0  0  0  0
  142.8895   69.8430  218.7376 H   0  0  0  0  0  0  0  0  0  0  0  0
  145.0509   70.0518  220.3315 H   0  0  0  0  0  0  0  0  0  0  0  0
  145.3963   70.4394  218.6779 H   0  0  0  0  0  0  0  0  0  0  0  0
  146.6428   72.0424  221.2593 H   0  0  0  0  0  0  0  0  0  0  0  0
  146.6588   74.5051  221.7737 H   0  0  0  0  0  0  0  0  0  0  0  0
  144.9294   75.9150  220.6837 H   0  0  0  0  0  0  0  0  0  0  0  0
  143.2533   74.9736  219.1657 H   0  0  0  0  0  0  0  0  0  0  0  0
  139.1728   70.2624  221.5171 H   0  0  0  0  0  0  0  0  0  0  0  0
  140.4673   69.4748  222.4191 H   0  0  0  0  0  0  0  0  0  0  0  0
  137.9073   70.6710  223.7170 H   0  0  0  0  0  0  0  0  0  0  0  0
  138.0846   68.9537  223.3668 H   0  0  0  0  0  0  0  0  0  0  0  0
  138.7070   67.8138  225.4314 H   0  0  0  0  0  0  0  0  0  0  0  0
  140.1363   67.6732  227.4842 H   0  0  0  0  0  0  0  0  0  0  0  0
  141.6970   69.5428  227.9971 H   0  0  0  0  0  0  0  0  0  0  0  0
  141.8428   71.5174  226.5111 H   0  0  0  0  0  0  0  0  0  0  0  0
  139.6285   72.6275  224.5525 H   0  0  0  0  0  0  0  0  0  0  0  0
  141.4076   72.3439  224.3183 H   0  0  0  0  0  0  0  0  0  0  0  0
  139.5321   76.7933  223.1592 H   0  0  0  0  0  0  0  0  0  0  0  0
  141.0967   75.9590  223.3291 H   0  0  0  0  0  0  0  0  0  0  0  0
  1  2  2  0
  2  3  1  0
  3  4  2  0
  4  5  1  0
  5  6  2  0
  5  7  1  0
  7  8  1  0
  8  9  1  0
  9 10  1  0
 10 11  2  0
 11 12  1  0
 12 13  1  0
 13 14  1  0
 14 15  1  0
 15 16  1  0
 16 17  1  0
 17 18  2  0
 18 19  1  0
 19 20  2  0
 20 21  1  0
 21 22  2  0
 12 23  2  0
 23 24  1  0
 24 25  1  0
 25 26  1  0
 26 27  1  0
 27 28  1  0
 28 29  2  0
 29 30  1  0
 30 31  2  0
 31 32  1  0
 32 33  2  0
 33 34  1  0
 24 35  2  0
  9 36  1  0
  6  1  1  0
 35 10  1  0
 36  4  1  0
 22 14  1  0
 34 25  1  0
 22 17  1  0
 33 28  1  0
  1 37  1  0
  2 38  1  0
  3 39  1  0
  6 40  1  0
  7 41  1  0
  7 42  1  0
  8 43  1  0
  8 44  1  0
 11 45  1  0
 13 46  1  0
 14 47  1  6
 15 48  1  0
 15 49  1  0
 16 50  1  0
 16 51  1  0
 18 52  1  0
 19 53  1  0
 20 54  1  0
 21 55  1  0
 26 56  1  0
 26 57  1  0
 27 58  1  0
 27 59  1  0
 29 60  1  0
 30 61  1  0
 31 62  1  0
 32 63  1  0
 34 64  1  0
 34 65  1  0
 36 66  1  0
 36 67  1  0
M  END
>  <smiles>  (20) 
c1ccc2c(c1)CCN(c1cc(N[C@@H]3CCc4ccccc43)nc(N3CCc4ccccc4C3)n1)C2

>  <score_type>  (20) 
oracle

>  <origin>  (20) 
autodockgpu

>  <m_score__min__energy>  (20) 
-11.31

>  <m_primary>  (20) 
energy

>  <meeko>  (20) 
{"free_energy": -10.74, "intermolecular_energy": -11.94, "internal_energy": -1.59, "cluster_size": 20, "cluster_id": 1, "rank_in_cluster": 18}

>  <energy>  (20) 
-10.48

>  <cluster_rmsd>  (20) 
1.97

>  <rmsd>  (20) 
270.38

>  <cluster>  (20) 
1

$$$$
