
     RDKit          3D

 41 44  0  0  0  0  0  0  0  0999 V2000
  143.4380   77.1460  219.3450 O   0  0  0  0  0  0  0  0  0  0  0  0
  142.5020   76.5660  219.9780 C   0  0  0  0  0  0  0  0  0  0  0  0
  142.6920   75.2340  220.2420 C   0  0  0  0  0  0  0  0  0  0  0  0
  143.8250   74.5550  219.8480 C   0  0  0  0  0  0  0  0  0  0  0  0
  143.9930   73.2080  220.1260 C   0  0  0  0  0  0  0  0  0  0  0  0
  143.0060   72.5290  220.8110 C   0  0  0  0  0  0  0  0  0  0  0  0
  141.8490   73.1870  221.2220 C   0  0  0  0  0  0  0  0  0  0  0  0
  141.7200   74.5270  220.9260 C   0  0  0  0  0  0  0  0  0  0  0  0
  140.6300   75.2220  221.2930 N   0  0  0  0  0  0  0  0  0  0  0  0
  140.4620   76.5410  221.0220 C   0  0  0  0  0  0  0  0  0  0  0  0
  139.2280   77.1450  221.4600 C   0  0  0  0  0  0  0  0  0  0  0  0
  139.0610   77.5000  222.7130 C   0  0  0  0  0  0  0  0  0  0  0  0
  138.5670   78.8570  223.0900 C   0  0  0  0  0  0  0  0  0  0  0  0
  139.2020   79.6360  223.9480 C   0  0  0  0  0  0  0  0  0  0  0  0
  138.6380   80.8830  224.2170 C   0  0  0  0  0  0  0  0  0  0  0  0
  137.1080   80.9630  223.1900 S   0  0  0  0  0  0  0  0  0  0  0  0
  137.3920   79.3270  222.5190 C   0  0  0  0  0  0  0  0  0  0  0  0
  141.3840   77.2490  220.3630 N   0  0  0  0  0  0  0  0  0  0  0  0
  141.2820   78.6610  220.0680 C   0  0  0  0  0  0  0  0  0  0  0  0
  141.5770   79.5400  221.2210 C   0  0  0  0  0  0  0  0  0  0  0  0
  141.2790   80.8790  221.2810 C   0  0  0  0  0  0  0  0  0  0  0  0
  141.5820   81.6730  222.3870 C   0  0  0  0  0  0  0  0  0  0  0  0
  142.2070   81.1350  223.4890 C   0  0  0  0  0  0  0  0  0  0  0  0
  142.5180   81.8610  224.5790 F   0  0  0  0  0  0  0  0  0  0  0  0
  142.5130   79.7970  223.4490 C   0  0  0  0  0  0  0  0  0  0  0  0
  142.2120   79.0130  222.3540 C   0  0  0  0  0  0  0  0  0  0  0  0
  144.6127   75.0940  219.3012 H   0  0  0  0  0  0  0  0  0  0  0  0
  144.9051   72.6845  219.8035 H   0  0  0  0  0  0  0  0  0  0  0  0
  143.1339   71.4595  221.0343 H   0  0  0  0  0  0  0  0  0  0  0  0
  141.0589   72.6512  221.7685 H   0  0  0  0  0  0  0  0  0  0  0  0
  138.4168   77.3103  220.7357 H   0  0  0  0  0  0  0  0  0  0  0  0
  139.2920   76.7760  223.5083 H   0  0  0  0  0  0  0  0  0  0  0  0
  140.1369   79.3143  224.4302 H   0  0  0  0  0  0  0  0  0  0  0  0
  139.0242   81.6557  224.8980 H   0  0  0  0  0  0  0  0  0  0  0  0
  136.7574   78.7965  221.7938 H   0  0  0  0  0  0  0  0  0  0  0  0
  141.9920   78.8980  219.2619 H   0  0  0  0  0  0  0  0  0  0  0  0
  140.2370   78.8515  219.7820 H   0  0  0  0  0  0  0  0  0  0  0  0
  140.7795   81.3459  220.4193 H   0  0  0  0  0  0  0  0  0  0  0  0
  141.3186   82.7409  222.3784 H   0  0  0  0  0  0  0  0  0  0  0  0
  143.0123   79.3370  224.3145 H   0  0  0  0  0  0  0  0  0  0  0  0
  142.4776   77.9457  222.3708 H   0  0  0  0  0  0  0  0  0  0  0  0
  1  2  2  0
  2  3  1  0
  3  4  2  0
  4  5  1  0
  5  6  2  0
  6  7  1  0
  7  8  2  0
  8  9  1  0
  9 10  2  0
 10 11  1  0
 11 12  2  0
 12 13  1  0
 13 14  1  0
 14 15  2  0
 15 16  1  0
 16 17  1  0
 10 18  1  0
 18 19  1  0
 19 20  1  0
 20 21  2  0
 21 22  1  0
 22 23  2  0
 23 24  1  0
 23 25  1  0
 25 26  2  0
 18  2  1  0
 26 20  1  0
  8  3  1  0
 17 13  2  0
  4 27  1  0
  5 28  1  0
  6 29  1  0
  7 30  1  0
 11 31  1  0
 12 32  1  0
 14 33  1  0
 15 34  1  0
 17 35  1  0
 19 36  1  0
 19 37  1  0
 21 38  1  0
 22 39  1  0
 25 40  1  0
 26 41  1  0
M  END
>  <smiles>  (1) 
O=c1c2ccccc2nc(/C=C/c2ccsc2)n1Cc1ccc(F)cc1

>  <score_type>  (1) 
oracle

>  <origin>  (1) 
autodockgpu

>  <m_score__min__energy>  (1) 
-6.4900000000000002

>  <m_primary>  (1) 
energy

>  <meeko>  (1) 
{"free_energy": -6.47, "intermolecular_energy": -7.96, "internal_energy": -1.77, "cluster_size": 20, "cluster_id": 1, "rank_in_cluster": 3}

>  <energy>  (1) 
-6.49

>  <cluster_rmsd>  (1) 
0.0

>  <rmsd>  (1) 
271.01

>  <cluster>  (1) 
1

$$$$

     RDKit          3D

 41 44  0  0  0  0  0  0  0  0999 V2000
  143.5170   77.0690  219.4070 O   0  0  0  0  0  0  0  0  0  0  0  0
  142.5820   76.4710  220.0250 C   0  0  0  0  0  0  0  0  0  0  0  0
  142.7780   75.1360  220.2650 C   0  0  0  0  0  0  0  0  0  0  0  0
  143.9180   74.4710  219.8650 C   0  0  0  0  0  0  0  0  0  0  0  0
  144.0930   73.1210  220.1190 C   0  0  0  0  0  0  0  0  0  0  0  0
  143.1060   72.4220  220.7870 C   0  0  0  0  0  0  0  0  0  0  0  0
  141.9430   73.0660  221.2030 C   0  0  0  0  0  0  0  0  0  0  0  0
  141.8070   74.4110  220.9300 C   0  0  0  0  0  0  0  0  0  0  0  0
  140.7110   75.0910  221.3040 N   0  0  0  0  0  0  0  0  0  0  0  0
  140.5360   76.4140  221.0560 C   0  0  0  0  0  0  0  0  0  0  0  0
  139.2950   77.0020  221.4980 C   0  0  0  0  0  0  0  0  0  0  0  0
  139.1730   77.4770  222.7160 C   0  0  0  0  0  0  0  0  0  0  0  0
  138.8140   78.9030  222.9750 C   0  0  0  0  0  0  0  0  0  0  0  0
  139.2010   79.5510  224.0600 C   0  0  0  0  0  0  0  0  0  0  0  0
  138.7990   80.8820  224.1850 C   0  0  0  0  0  0  0  0  0  0  0  0
  137.8110   81.2430  222.6710 S   0  0  0  0  0  0  0  0  0  0  0  0
  138.0430   79.5820  222.0420 C   0  0  0  0  0  0  0  0  0  0  0  0
  141.4570   77.1400  220.4160 N   0  0  0  0  0  0  0  0  0  0  0  0
  141.3480   78.5570  220.1460 C   0  0  0  0  0  0  0  0  0  0  0  0
  141.6930   79.4180  221.2980 C   0  0  0  0  0  0  0  0  0  0  0  0
  142.2530   78.9710  222.4700 C   0  0  0  0  0  0  0  0  0  0  0  0
  142.5560   79.8190  223.5350 C   0  0  0  0  0  0  0  0  0  0  0  0
  142.2990   81.1680  223.4550 C   0  0  0  0  0  0  0  0  0  0  0  0
  142.5750   82.0250  224.4570 F   0  0  0  0  0  0  0  0  0  0  0  0
  141.7390   81.6350  222.2920 C   0  0  0  0  0  0  0  0  0  0  0  0
  141.4400   80.7950  221.2380 C   0  0  0  0  0  0  0  0  0  0  0  0
  144.7053   75.0249  219.3327 H   0  0  0  0  0  0  0  0  0  0  0  0
  145.0101   72.6094  219.7917 H   0  0  0  0  0  0  0  0  0  0  0  0
  143.2395   71.3495  220.9917 H   0  0  0  0  0  0  0  0  0  0  0  0
  141.1533   72.5159  221.7356 H   0  0  0  0  0  0  0  0  0  0  0  0
  138.4410   77.0530  220.8066 H   0  0  0  0  0  0  0  0  0  0  0  0
  139.3402   76.8048  223.5705 H   0  0  0  0  0  0  0  0  0  0  0  0
  139.8138   79.0623  224.8317 H   0  0  0  0  0  0  0  0  0  0  0  0
  139.0243   81.5705  225.0127 H   0  0  0  0  0  0  0  0  0  0  0  0
  137.6498   79.1778  221.0975 H   0  0  0  0  0  0  0  0  0  0  0  0
  142.0252   78.8037  219.3150 H   0  0  0  0  0  0  0  0  0  0  0  0
  140.2928   78.7547  219.9062 H   0  0  0  0  0  0  0  0  0  0  0  0
  142.4719   77.8979  222.5730 H   0  0  0  0  0  0  0  0  0  0  0  0
  143.0056   79.4044  224.4493 H   0  0  0  0  0  0  0  0  0  0  0  0
  141.5223   82.7093  222.1971 H   0  0  0  0  0  0  0  0  0  0  0  0
  140.9913   81.2178  220.3270 H   0  0  0  0  0  0  0  0  0  0  0  0
  1  2  2  0
  2  3  1  0
  3  4  2  0
  4  5  1  0
  5  6  2  0
  6  7  1  0
  7  8  2  0
  8  9  1  0
  9 10  2  0
 10 11  1  0
 11 12  2  0
 12 13  1  0
 13 14  1  0
 14 15  2  0
 15 16  1  0
 16 17  1  0
 10 18  1  0
 18 19  1  0
 19 20  1  0
 20 21  2  0
 21 22  1  0
 22 23  2  0
 23 24  1  0
 23 25  1  0
 25 26  2  0
 18  2  1  0
 26 20  1  0
  8  3  1  0
 17 13  2  0
  4 27  1  0
  5 28  1  0
  6 29  1  0
  7 30  1  0
 11 31  1  0
 12 32  1  0
 14 33  1  0
 15 34  1  0
 17 35  1  0
 19 36  1  0
 19 37  1  0
 21 38  1  0
 22 39  1  0
 25 40  1  0
 26 41  1  0
M  END
>  <smiles>  (2) 
O=c1c2ccccc2nc(/C=C/c2ccsc2)n1Cc1ccc(F)cc1

>  <score_type>  (2) 
oracle

>  <origin>  (2) 
autodockgpu

>  <m_score__min__energy>  (2) 
-6.4900000000000002

>  <m_primary>  (2) 
energy

>  <meeko>  (2) 
{"free_energy": -6.39, "intermolecular_energy": -7.88, "internal_energy": -1.86, "cluster_size": 20, "cluster_id": 1, "rank_in_cluster": 15}

>  <energy>  (2) 
-6.47

>  <cluster_rmsd>  (2) 
0.16

>  <rmsd>  (2) 
270.99

>  <cluster>  (2) 
1

$$$$

     RDKit          3D

 41 44  0  0  0  0  0  0  0  0999 V2000
  143.4870   77.1410  219.3430 O   0  0  0  0  0  0  0  0  0  0  0  0
  142.5470   76.5650  219.9750 C   0  0  0  0  0  0  0  0  0  0  0  0
  142.7310   75.2340  220.2430 C   0  0  0  0  0  0  0  0  0  0  0  0
  143.8640   74.5500  219.8560 C   0  0  0  0  0  0  0  0  0  0  0  0
  144.0270   73.2030  220.1390 C   0  0  0  0  0  0  0  0  0  0  0  0
  143.0340   72.5290  220.8230 C   0  0  0  0  0  0  0  0  0  0  0  0
  141.8770   73.1930  221.2270 C   0  0  0  0  0  0  0  0  0  0  0  0
  141.7550   74.5320  220.9250 C   0  0  0  0  0  0  0  0  0  0  0  0
  140.6650   75.2310  221.2850 N   0  0  0  0  0  0  0  0  0  0  0  0
  140.5030   76.5500  221.0100 C   0  0  0  0  0  0  0  0  0  0  0  0
  139.2680   77.1600  221.4400 C   0  0  0  0  0  0  0  0  0  0  0  0
  139.0930   77.5090  222.6930 C   0  0  0  0  0  0  0  0  0  0  0  0
  138.6030   78.8670  223.0740 C   0  0  0  0  0  0  0  0  0  0  0  0
  139.2370   79.6380  223.9400 C   0  0  0  0  0  0  0  0  0  0  0  0
  138.6760   80.8870  224.2110 C   0  0  0  0  0  0  0  0  0  0  0  0
  137.1550   80.9800  223.1740 S   0  0  0  0  0  0  0  0  0  0  0  0
  137.4350   79.3460  222.4970 C   0  0  0  0  0  0  0  0  0  0  0  0
  141.4300   77.2530  220.3530 N   0  0  0  0  0  0  0  0  0  0  0  0
  141.3340   78.6650  220.0520 C   0  0  0  0  0  0  0  0  0  0  0  0
  141.6210   79.5470  221.2050 C   0  0  0  0  0  0  0  0  0  0  0  0
  141.3310   80.8880  221.2570 C   0  0  0  0  0  0  0  0  0  0  0  0
  141.6270   81.6840  222.3630 C   0  0  0  0  0  0  0  0  0  0  0  0
  142.2350   81.1460  223.4740 C   0  0  0  0  0  0  0  0  0  0  0  0
  142.5390   81.8750  224.5650 F   0  0  0  0  0  0  0  0  0  0  0  0
  142.5340   79.8070  223.4430 C   0  0  0  0  0  0  0  0  0  0  0  0
  142.2400   79.0190  222.3470 C   0  0  0  0  0  0  0  0  0  0  0  0
  144.6556   75.0849  219.3109 H   0  0  0  0  0  0  0  0  0  0  0  0
  144.9387   72.6755  219.8219 H   0  0  0  0  0  0  0  0  0  0  0  0
  143.1573   71.4599  221.0506 H   0  0  0  0  0  0  0  0  0  0  0  0
  141.0826   72.6624  221.7723 H   0  0  0  0  0  0  0  0  0  0  0  0
  138.4643   77.3344  220.7095 H   0  0  0  0  0  0  0  0  0  0  0  0
  139.3139   76.7794  223.4860 H   0  0  0  0  0  0  0  0  0  0  0  0
  140.1672   79.3094  224.4265 H   0  0  0  0  0  0  0  0  0  0  0  0
  139.0607   81.6544  224.8988 H   0  0  0  0  0  0  0  0  0  0  0  0
  136.8029   78.8225  221.7646 H   0  0  0  0  0  0  0  0  0  0  0  0
  142.0517   78.8976  219.2515 H   0  0  0  0  0  0  0  0  0  0  0  0
  140.2922   78.8572  219.7558 H   0  0  0  0  0  0  0  0  0  0  0  0
  140.8439   81.3549  220.3882 H   0  0  0  0  0  0  0  0  0  0  0  0
  141.3716   82.7538  222.3472 H   0  0  0  0  0  0  0  0  0  0  0  0
  143.0216   79.3481  224.3157 H   0  0  0  0  0  0  0  0  0  0  0  0
  142.4981   77.9500  222.3708 H   0  0  0  0  0  0  0  0  0  0  0  0
  1  2  2  0
  2  3  1  0
  3  4  2  0
  4  5  1  0
  5  6  2  0
  6  7  1  0
  7  8  2  0
  8  9  1  0
  9 10  2  0
 10 11  1  0
 11 12  2  0
 12 13  1  0
 13 14  1  0
 14 15  2  0
 15 16  1  0
 16 17  1  0
 10 18  1  0
 18 19  1  0
 19 20  1  0
 20 21  2  0
 21 22  1  0
 22 23  2  0
 23 24  1  0
 23 25  1  0
 25 26  2  0
 18  2  1  0
 26 20  1  0
  8  3  1  0
 17 13  2  0
  4 27  1  0
  5 28  1  0
  6 29  1  0
  7 30  1  0
 11 31  1  0
 12 32  1  0
 14 33  1  0
 15 34  1  0
 17 35  1  0
 19 36  1  0
 19 37  1  0
 21 38  1  0
 22 39  1  0
 25 40  1  0
 26 41  1  0
M  END
>  <smiles>  (3) 
O=c1c2ccccc2nc(/C=C/c2ccsc2)n1Cc1ccc(F)cc1

>  <score_type>  (3) 
oracle

>  <origin>  (3) 
autodockgpu

>  <m_score__min__energy>  (3) 
-6.4900000000000002

>  <m_primary>  (3) 
energy

>  <meeko>  (3) 
{"free_energy": -6.46, "intermolecular_energy": -7.95, "internal_energy": -1.77, "cluster_size": 20, "cluster_id": 1, "rank_in_cluster": 4}

>  <energy>  (3) 
-6.47

>  <cluster_rmsd>  (3) 
0.17

>  <rmsd>  (3) 
270.97

>  <cluster>  (3) 
1

$$$$

     RDKit          3D

 41 44  0  0  0  0  0  0  0  0999 V2000
  143.6020   76.9250  219.4580 O   0  0  0  0  0  0  0  0  0  0  0  0
  142.6180   76.3440  220.0120 C   0  0  0  0  0  0  0  0  0  0  0  0
  142.7810   75.0090  220.2790 C   0  0  0  0  0  0  0  0  0  0  0  0
  143.9400   74.3280  219.9700 C   0  0  0  0  0  0  0  0  0  0  0  0
  144.0810   72.9790  220.2490 C   0  0  0  0  0  0  0  0  0  0  0  0
  143.0400   72.2980  220.8500 C   0  0  0  0  0  0  0  0  0  0  0  0
  141.8570   72.9580  221.1740 C   0  0  0  0  0  0  0  0  0  0  0  0
  141.7570   74.3010  220.8790 C   0  0  0  0  0  0  0  0  0  0  0  0
  140.6430   74.9970  221.1640 N   0  0  0  0  0  0  0  0  0  0  0  0
  140.5020   76.3190  220.8920 C   0  0  0  0  0  0  0  0  0  0  0  0
  139.2390   76.9240  221.2360 C   0  0  0  0  0  0  0  0  0  0  0  0
  139.0190   77.3780  222.4480 C   0  0  0  0  0  0  0  0  0  0  0  0
  138.7580   78.8230  222.7150 C   0  0  0  0  0  0  0  0  0  0  0  0
  139.1110   79.4170  223.8430 C   0  0  0  0  0  0  0  0  0  0  0  0
  138.8110   80.7740  223.9710 C   0  0  0  0  0  0  0  0  0  0  0  0
  137.9760   81.2440  222.3960 S   0  0  0  0  0  0  0  0  0  0  0  0
  138.1200   79.5820  221.7440 C   0  0  0  0  0  0  0  0  0  0  0  0
  141.4750   77.0280  220.3130 N   0  0  0  0  0  0  0  0  0  0  0  0
  141.4010   78.4430  220.0220 C   0  0  0  0  0  0  0  0  0  0  0  0
  141.7070   79.3130  221.1790 C   0  0  0  0  0  0  0  0  0  0  0  0
  142.1730   78.8680  222.3920 C   0  0  0  0  0  0  0  0  0  0  0  0
  142.4410   79.7240  223.4600 C   0  0  0  0  0  0  0  0  0  0  0  0
  142.2440   81.0810  223.3400 C   0  0  0  0  0  0  0  0  0  0  0  0
  142.4900   81.9460  224.3430 F   0  0  0  0  0  0  0  0  0  0  0  0
  141.7780   81.5460  222.1360 C   0  0  0  0  0  0  0  0  0  0  0  0
  141.5140   80.6980  221.0790 C   0  0  0  0  0  0  0  0  0  0  0  0
  144.7703   74.8682  219.4916 H   0  0  0  0  0  0  0  0  0  0  0  0
  145.0136   72.4542  219.9943 H   0  0  0  0  0  0  0  0  0  0  0  0
  143.1462   71.2264  221.0744 H   0  0  0  0  0  0  0  0  0  0  0  0
  141.0244   72.4217  221.6527 H   0  0  0  0  0  0  0  0  0  0  0  0
  138.4503   77.0061  220.4736 H   0  0  0  0  0  0  0  0  0  0  0  0
  139.0273   76.6724  223.2918 H   0  0  0  0  0  0  0  0  0  0  0  0
  139.6198   78.8644  224.6466 H   0  0  0  0  0  0  0  0  0  0  0  0
  139.0272   81.4257  224.8304 H   0  0  0  0  0  0  0  0  0  0  0  0
  137.7699   79.2304  220.7623 H   0  0  0  0  0  0  0  0  0  0  0  0
  142.1191   78.6690  219.2200 H   0  0  0  0  0  0  0  0  0  0  0  0
  140.3611   78.6539  219.7320 H   0  0  0  0  0  0  0  0  0  0  0  0
  142.3422   77.7895  222.5270 H   0  0  0  0  0  0  0  0  0  0  0  0
  142.8138   79.3102  224.4086 H   0  0  0  0  0  0  0  0  0  0  0  0
  141.6099   82.6257  222.0094 H   0  0  0  0  0  0  0  0  0  0  0  0
  141.1425   81.1201  220.1336 H   0  0  0  0  0  0  0  0  0  0  0  0
  1  2  2  0
  2  3  1  0
  3  4  2  0
  4  5  1  0
  5  6  2  0
  6  7  1  0
  7  8  2  0
  8  9  1  0
  9 10  2  0
 10 11  1  0
 11 12  2  0
 12 13  1  0
 13 14  1  0
 14 15  2  0
 15 16  1  0
 16 17  1  0
 10 18  1  0
 18 19  1  0
 19 20  1  0
 20 21  2  0
 21 22  1  0
 22 23  2  0
 23 24  1  0
 23 25  1  0
 25 26  2  0
 18  2  1  0
 26 20  1  0
  8  3  1  0
 17 13  2  0
  4 27  1  0
  5 28  1  0
  6 29  1  0
  7 30  1  0
 11 31  1  0
 12 32  1  0
 14 33  1  0
 15 34  1  0
 17 35  1  0
 19 36  1  0
 19 37  1  0
 21 38  1  0
 22 39  1  0
 25 40  1  0
 26 41  1  0
M  END
>  <smiles>  (4) 
O=c1c2ccccc2nc(/C=C/c2ccsc2)n1Cc1ccc(F)cc1

>  <score_type>  (4) 
oracle

>  <origin>  (4) 
autodockgpu

>  <m_score__min__energy>  (4) 
-6.4900000000000002

>  <m_primary>  (4) 
energy

>  <meeko>  (4) 
{"free_energy": -6.28, "intermolecular_energy": -7.77, "internal_energy": -1.88, "cluster_size": 20, "cluster_id": 1, "rank_in_cluster": 20}

>  <energy>  (4) 
-6.46

>  <cluster_rmsd>  (4) 
0.15

>  <rmsd>  (4) 
270.99

>  <cluster>  (4) 
1

$$$$

     RDKit          3D

 41 44  0  0  0  0  0  0  0  0999 V2000
  143.4710   77.1350  219.3570 O   0  0  0  0  0  0  0  0  0  0  0  0
  142.5310   76.5600  219.9890 C   0  0  0  0  0  0  0  0  0  0  0  0
  142.7130   75.2270  220.2530 C   0  0  0  0  0  0  0  0  0  0  0  0
  143.8430   74.5420  219.8610 C   0  0  0  0  0  0  0  0  0  0  0  0
  144.0030   73.1940  220.1390 C   0  0  0  0  0  0  0  0  0  0  0  0
  143.0110   72.5200  220.8230 C   0  0  0  0  0  0  0  0  0  0  0  0
  141.8560   73.1850  221.2320 C   0  0  0  0  0  0  0  0  0  0  0  0
  141.7360   74.5260  220.9350 C   0  0  0  0  0  0  0  0  0  0  0  0
  140.6490   75.2270  221.3000 N   0  0  0  0  0  0  0  0  0  0  0  0
  140.4890   76.5460  221.0290 C   0  0  0  0  0  0  0  0  0  0  0  0
  139.2570   77.1570  221.4640 C   0  0  0  0  0  0  0  0  0  0  0  0
  139.0890   77.5130  222.7160 C   0  0  0  0  0  0  0  0  0  0  0  0
  138.5890   78.8680  223.0920 C   0  0  0  0  0  0  0  0  0  0  0  0
  139.2180   79.6480  223.9550 C   0  0  0  0  0  0  0  0  0  0  0  0
  138.6480   80.8940  224.2220 C   0  0  0  0  0  0  0  0  0  0  0  0
  137.1240   80.9700  223.1880 S   0  0  0  0  0  0  0  0  0  0  0  0
  137.4170   79.3360  222.5160 C   0  0  0  0  0  0  0  0  0  0  0  0
  141.4160   77.2490  220.3720 N   0  0  0  0  0  0  0  0  0  0  0  0
  141.3220   78.6620  220.0760 C   0  0  0  0  0  0  0  0  0  0  0  0
  141.6130   79.5400  221.2310 C   0  0  0  0  0  0  0  0  0  0  0  0
  141.3210   80.8800  221.2890 C   0  0  0  0  0  0  0  0  0  0  0  0
  141.6190   81.6720  222.3980 C   0  0  0  0  0  0  0  0  0  0  0  0
  142.2330   81.1310  223.5040 C   0  0  0  0  0  0  0  0  0  0  0  0
  142.5400   81.8560  224.5970 F   0  0  0  0  0  0  0  0  0  0  0  0
  142.5330   79.7920  223.4660 C   0  0  0  0  0  0  0  0  0  0  0  0
  142.2370   79.0090  222.3690 C   0  0  0  0  0  0  0  0  0  0  0  0
  144.6347   75.0768  219.3158 H   0  0  0  0  0  0  0  0  0  0  0  0
  144.9125   72.6654  219.8175 H   0  0  0  0  0  0  0  0  0  0  0  0
  143.1329   71.4500  221.0470 H   0  0  0  0  0  0  0  0  0  0  0  0
  141.0617   72.6540  221.7771 H   0  0  0  0  0  0  0  0  0  0  0  0
  138.4485   77.3266  220.7377 H   0  0  0  0  0  0  0  0  0  0  0  0
  139.3237   76.7911  223.5121 H   0  0  0  0  0  0  0  0  0  0  0  0
  140.1511   79.3284  224.4420 H   0  0  0  0  0  0  0  0  0  0  0  0
  139.0282   81.6675  224.9055 H   0  0  0  0  0  0  0  0  0  0  0  0
  136.7880   78.8051  221.7862 H   0  0  0  0  0  0  0  0  0  0  0  0
  142.0384   78.8959  219.2747 H   0  0  0  0  0  0  0  0  0  0  0  0
  140.2798   78.8569  219.7830 H   0  0  0  0  0  0  0  0  0  0  0  0
  140.8308   81.3496  220.4235 H   0  0  0  0  0  0  0  0  0  0  0  0
  141.3602   82.7411  222.3881 H   0  0  0  0  0  0  0  0  0  0  0  0
  143.0236   79.3298  224.3353 H   0  0  0  0  0  0  0  0  0  0  0  0
  142.4973   77.9404  222.3877 H   0  0  0  0  0  0  0  0  0  0  0  0
  1  2  2  0
  2  3  1  0
  3  4  2  0
  4  5  1  0
  5  6  2  0
  6  7  1  0
  7  8  2  0
  8  9  1  0
  9 10  2  0
 10 11  1  0
 11 12  2  0
 12 13  1  0
 13 14  1  0
 14 15  2  0
 15 16  1  0
 16 17  1  0
 10 18  1  0
 18 19  1  0
 19 20  1  0
 20 21  2  0
 21 22  1  0
 22 23  2  0
 23 24  1  0
 23 25  1  0
 25 26  2  0
 18  2  1  0
 26 20  1  0
  8  3  1  0
 17 13  2  0
  4 27  1  0
  5 28  1  0
  6 29  1  0
  7 30  1  0
 11 31  1  0
 12 32  1  0
 14 33  1  0
 15 34  1  0
 17 35  1  0
 19 36  1  0
 19 37  1  0
 21 38  1  0
 22 39  1  0
 25 40  1  0
 26 41  1  0
M  END
>  <smiles>  (5) 
O=c1c2ccccc2nc(/C=C/c2ccsc2)n1Cc1ccc(F)cc1

>  <score_type>  (5) 
oracle

>  <origin>  (5) 
autodockgpu

>  <m_score__min__energy>  (5) 
-6.4900000000000002

>  <m_primary>  (5) 
energy

>  <meeko>  (5) 
{"free_energy": -6.47, "intermolecular_energy": -7.96, "internal_energy": -1.76, "cluster_size": 20, "cluster_id": 1, "rank_in_cluster": 2}

>  <energy>  (5) 
-6.46

>  <cluster_rmsd>  (5) 
1.97

>  <rmsd>  (5) 
270.74

>  <cluster>  (5) 
1

$$$$

     RDKit          3D

 41 44  0  0  0  0  0  0  0  0999 V2000
  143.5230   76.7490  219.5660 O   0  0  0  0  0  0  0  0  0  0  0  0
  142.5000   76.2670  220.1460 C   0  0  0  0  0  0  0  0  0  0  0  0
  142.5550   74.9310  220.4480 C   0  0  0  0  0  0  0  0  0  0  0  0
  143.6480   74.1470  220.1460 C   0  0  0  0  0  0  0  0  0  0  0  0
  143.6790   72.7990  220.4610 C   0  0  0  0  0  0  0  0  0  0  0  0
  142.5930   72.2240  221.0910 C   0  0  0  0  0  0  0  0  0  0  0  0
  141.4730   72.9890  221.4090 C   0  0  0  0  0  0  0  0  0  0  0  0
  141.4820   74.3280  221.0770 C   0  0  0  0  0  0  0  0  0  0  0  0
  140.4350   75.1220  221.3550 N   0  0  0  0  0  0  0  0  0  0  0  0
  140.4010   76.4430  221.0480 C   0  0  0  0  0  0  0  0  0  0  0  0
  139.1980   77.1620  221.3880 C   0  0  0  0  0  0  0  0  0  0  0  0
  138.9700   77.5450  222.6230 C   0  0  0  0  0  0  0  0  0  0  0  0
  138.6240   78.9580  222.9600 C   0  0  0  0  0  0  0  0  0  0  0  0
  139.1260   79.5850  224.0100 C   0  0  0  0  0  0  0  0  0  0  0  0
  138.7230   80.9060  224.2170 C   0  0  0  0  0  0  0  0  0  0  0  0
  137.5610   81.2880  222.8380 S   0  0  0  0  0  0  0  0  0  0  0  0
  137.7400   79.6470  222.1420 C   0  0  0  0  0  0  0  0  0  0  0  0
  141.4230   77.0530  220.4400 N   0  0  0  0  0  0  0  0  0  0  0  0
  141.4650   78.4610  220.1100 C   0  0  0  0  0  0  0  0  0  0  0  0
  141.7290   79.3430  221.2680 C   0  0  0  0  0  0  0  0  0  0  0  0
  142.1930   78.9160  222.4880 C   0  0  0  0  0  0  0  0  0  0  0  0
  142.4220   79.7830  223.5560 C   0  0  0  0  0  0  0  0  0  0  0  0
  142.1870   81.1320  223.4290 C   0  0  0  0  0  0  0  0  0  0  0  0
  142.3950   82.0080  224.4320 F   0  0  0  0  0  0  0  0  0  0  0  0
  141.7240   81.5800  222.2170 C   0  0  0  0  0  0  0  0  0  0  0  0
  141.4970   80.7210  221.1600 C   0  0  0  0  0  0  0  0  0  0  0  0
  144.5144   74.6022  219.6438 H   0  0  0  0  0  0  0  0  0  0  0  0
  144.5613   72.1913  220.2115 H   0  0  0  0  0  0  0  0  0  0  0  0
  142.6124   71.1536  221.3437 H   0  0  0  0  0  0  0  0  0  0  0  0
  140.6048   72.5375  221.9113 H   0  0  0  0  0  0  0  0  0  0  0  0
  138.4625   77.3923  220.6031 H   0  0  0  0  0  0  0  0  0  0  0  0
  139.0358   76.8035  223.4329 H   0  0  0  0  0  0  0  0  0  0  0  0
  139.8313   79.0873  224.6918 H   0  0  0  0  0  0  0  0  0  0  0  0
  139.0336   81.5771  225.0313 H   0  0  0  0  0  0  0  0  0  0  0  0
  137.2443   79.2600  221.2395 H   0  0  0  0  0  0  0  0  0  0  0  0
  142.2606   78.6185  219.3668 H   0  0  0  0  0  0  0  0  0  0  0  0
  140.4689   78.7279  219.7273 H   0  0  0  0  0  0  0  0  0  0  0  0
  142.3927   77.8435  222.6289 H   0  0  0  0  0  0  0  0  0  0  0  0
  142.7948   79.3834  224.5106 H   0  0  0  0  0  0  0  0  0  0  0  0
  141.5282   82.6542  222.0839 H   0  0  0  0  0  0  0  0  0  0  0  0
  141.1245   81.1287  220.2087 H   0  0  0  0  0  0  0  0  0  0  0  0
  1  2  2  0
  2  3  1  0
  3  4  2  0
  4  5  1  0
  5  6  2  0
  6  7  1  0
  7  8  2  0
  8  9  1  0
  9 10  2  0
 10 11  1  0
 11 12  2  0
 12 13  1  0
 13 14  1  0
 14 15  2  0
 15 16  1  0
 16 17  1  0
 10 18  1  0
 18 19  1  0
 19 20  1  0
 20 21  2  0
 21 22  1  0
 22 23  2  0
 23 24  1  0
 23 25  1  0
 25 26  2  0
 18  2  1  0
 26 20  1  0
  8  3  1  0
 17 13  2  0
  4 27  1  0
  5 28  1  0
  6 29  1  0
  7 30  1  0
 11 31  1  0
 12 32  1  0
 14 33  1  0
 15 34  1  0
 17 35  1  0
 19 36  1  0
 19 37  1  0
 21 38  1  0
 22 39  1  0
 25 40  1  0
 26 41  1  0
M  END
>  <smiles>  (6) 
O=c1c2ccccc2nc(/C=C/c2ccsc2)n1Cc1ccc(F)cc1

>  <score_type>  (6) 
oracle

>  <origin>  (6) 
autodockgpu

>  <m_score__min__energy>  (6) 
-6.4900000000000002

>  <m_primary>  (6) 
energy

>  <meeko>  (6) 
{"free_energy": -6.32, "intermolecular_energy": -7.81, "internal_energy": -1.83, "cluster_size": 20, "cluster_id": 1, "rank_in_cluster": 19}

>  <energy>  (6) 
-6.44

>  <cluster_rmsd>  (6) 
0.18

>  <rmsd>  (6) 
270.98

>  <cluster>  (6) 
1

$$$$

     RDKit          3D

 41 44  0  0  0  0  0  0  0  0999 V2000
  143.4670   77.1380  219.3400 O   0  0  0  0  0  0  0  0  0  0  0  0
  142.5320   76.5560  219.9730 C   0  0  0  0  0  0  0  0  0  0  0  0
  142.7250   75.2250  220.2390 C   0  0  0  0  0  0  0  0  0  0  0  0
  143.8600   74.5480  219.8480 C   0  0  0  0  0  0  0  0  0  0  0  0
  144.0310   73.2030  220.1280 C   0  0  0  0  0  0  0  0  0  0  0  0
  143.0440   72.5220  220.8130 C   0  0  0  0  0  0  0  0  0  0  0  0
  141.8850   73.1780  221.2210 C   0  0  0  0  0  0  0  0  0  0  0  0
  141.7540   74.5170  220.9220 C   0  0  0  0  0  0  0  0  0  0  0  0
  140.6610   75.2100  221.2860 N   0  0  0  0  0  0  0  0  0  0  0  0
  140.4900   76.5280  221.0130 C   0  0  0  0  0  0  0  0  0  0  0  0
  139.2540   77.1290  221.4480 C   0  0  0  0  0  0  0  0  0  0  0  0
  139.0920   77.5070  222.6950 C   0  0  0  0  0  0  0  0  0  0  0  0
  138.6130   78.8760  223.0500 C   0  0  0  0  0  0  0  0  0  0  0  0
  139.1860   79.6130  223.9860 C   0  0  0  0  0  0  0  0  0  0  0  0
  138.6430   80.8770  224.2230 C   0  0  0  0  0  0  0  0  0  0  0  0
  137.2320   81.0360  223.0470 S   0  0  0  0  0  0  0  0  0  0  0  0
  137.5230   79.4030  222.3720 C   0  0  0  0  0  0  0  0  0  0  0  0
  141.4120   77.2370  220.3550 N   0  0  0  0  0  0  0  0  0  0  0  0
  141.3070   78.6490  220.0580 C   0  0  0  0  0  0  0  0  0  0  0  0
  141.5960   79.5300  221.2100 C   0  0  0  0  0  0  0  0  0  0  0  0
  141.3140   80.8730  221.2590 C   0  0  0  0  0  0  0  0  0  0  0  0
  141.6120   81.6690  222.3650 C   0  0  0  0  0  0  0  0  0  0  0  0
  142.2140   81.1290  223.4780 C   0  0  0  0  0  0  0  0  0  0  0  0
  142.5190   81.8570  224.5690 F   0  0  0  0  0  0  0  0  0  0  0  0
  142.5040   79.7880  223.4500 C   0  0  0  0  0  0  0  0  0  0  0  0
  142.2090   79.0010  222.3540 C   0  0  0  0  0  0  0  0  0  0  0  0
  144.6472   75.0881  219.3015 H   0  0  0  0  0  0  0  0  0  0  0  0
  144.9450   72.6814  219.8077 H   0  0  0  0  0  0  0  0  0  0  0  0
  143.1742   71.4532  221.0382 H   0  0  0  0  0  0  0  0  0  0  0  0
  141.0952   72.6416  221.7673 H   0  0  0  0  0  0  0  0  0  0  0  0
  138.4364   77.2727  220.7263 H   0  0  0  0  0  0  0  0  0  0  0  0
  139.3158   76.7940  223.5021 H   0  0  0  0  0  0  0  0  0  0  0  0
  140.0536   79.2459  224.5538 H   0  0  0  0  0  0  0  0  0  0  0  0
  138.9850   81.6215  224.9570 H   0  0  0  0  0  0  0  0  0  0  0  0
  136.9480   78.9119  221.5731 H   0  0  0  0  0  0  0  0  0  0  0  0
  142.0187   78.8870  219.2537 H   0  0  0  0  0  0  0  0  0  0  0  0
  140.2623   78.8362  219.7690 H   0  0  0  0  0  0  0  0  0  0  0  0
  140.8321   81.3415  220.3882 H   0  0  0  0  0  0  0  0  0  0  0  0
  141.3629   82.7403  222.3471 H   0  0  0  0  0  0  0  0  0  0  0  0
  142.9850   79.3268  224.3252 H   0  0  0  0  0  0  0  0  0  0  0  0
  142.4618   77.9308  222.3797 H   0  0  0  0  0  0  0  0  0  0  0  0
  1  2  2  0
  2  3  1  0
  3  4  2  0
  4  5  1  0
  5  6  2  0
  6  7  1  0
  7  8  2  0
  8  9  1  0
  9 10  2  0
 10 11  1  0
 11 12  2  0
 12 13  1  0
 13 14  1  0
 14 15  2  0
 15 16  1  0
 16 17  1  0
 10 18  1  0
 18 19  1  0
 19 20  1  0
 20 21  2  0
 21 22  1  0
 22 23  2  0
 23 24  1  0
 23 25  1  0
 25 26  2  0
 18  2  1  0
 26 20  1  0
  8  3  1  0
 17 13  2  0
  4 27  1  0
  5 28  1  0
  6 29  1  0
  7 30  1  0
 11 31  1  0
 12 32  1  0
 14 33  1  0
 15 34  1  0
 17 35  1  0
 19 36  1  0
 19 37  1  0
 21 38  1  0
 22 39  1  0
 25 40  1  0
 26 41  1  0
M  END
>  <smiles>  (7) 
O=c1c2ccccc2nc(/C=C/c2ccsc2)n1Cc1ccc(F)cc1

>  <score_type>  (7) 
oracle

>  <origin>  (7) 
autodockgpu

>  <m_score__min__energy>  (7) 
-6.4900000000000002

>  <m_primary>  (7) 
energy

>  <meeko>  (7) 
{"free_energy": -6.44, "intermolecular_energy": -7.93, "internal_energy": -1.8, "cluster_size": 20, "cluster_id": 1, "rank_in_cluster": 6}

>  <energy>  (7) 
-6.42

>  <cluster_rmsd>  (7) 
0.24

>  <rmsd>  (7) 
271.02

>  <cluster>  (7) 
1

$$$$

     RDKit          3D

 41 44  0  0  0  0  0  0  0  0999 V2000
  143.4810   77.1230  219.4140 O   0  0  0  0  0  0  0  0  0  0  0  0
  142.5620   76.4950  220.0260 C   0  0  0  0  0  0  0  0  0  0  0  0
  142.7970   75.1650  220.2590 C   0  0  0  0  0  0  0  0  0  0  0  0
  143.9570   74.5360  219.8590 C   0  0  0  0  0  0  0  0  0  0  0  0
  144.1700   73.1900  220.1060 C   0  0  0  0  0  0  0  0  0  0  0  0
  143.2030   72.4600  220.7680 C   0  0  0  0  0  0  0  0  0  0  0  0
  142.0200   73.0670  221.1850 C   0  0  0  0  0  0  0  0  0  0  0  0
  141.8460   74.4080  220.9190 C   0  0  0  0  0  0  0  0  0  0  0  0
  140.7300   75.0550  221.2940 N   0  0  0  0  0  0  0  0  0  0  0  0
  140.5170   76.3730  221.0530 C   0  0  0  0  0  0  0  0  0  0  0  0
  139.2590   76.9230  221.4950 C   0  0  0  0  0  0  0  0  0  0  0  0
  139.1320   77.4250  222.7010 C   0  0  0  0  0  0  0  0  0  0  0  0
  138.7850   78.8590  222.9270 C   0  0  0  0  0  0  0  0  0  0  0  0
  139.1970   79.5360  223.9860 C   0  0  0  0  0  0  0  0  0  0  0  0
  138.8040   80.8720  224.0820 C   0  0  0  0  0  0  0  0  0  0  0  0
  137.7870   81.1950  222.5780 S   0  0  0  0  0  0  0  0  0  0  0  0
  137.9980   79.5160  221.9920 C   0  0  0  0  0  0  0  0  0  0  0  0
  141.4180   77.1290  220.4190 N   0  0  0  0  0  0  0  0  0  0  0  0
  141.2680   78.5440  220.1560 C   0  0  0  0  0  0  0  0  0  0  0  0
  141.6360   79.4100  221.2970 C   0  0  0  0  0  0  0  0  0  0  0  0
  142.2240   78.9700  222.4570 C   0  0  0  0  0  0  0  0  0  0  0  0
  142.5480   79.8230  223.5120 C   0  0  0  0  0  0  0  0  0  0  0  0
  142.2860   81.1710  223.4320 C   0  0  0  0  0  0  0  0  0  0  0  0
  142.5810   82.0330  224.4250 F   0  0  0  0  0  0  0  0  0  0  0  0
  141.6990   81.6320  222.2810 C   0  0  0  0  0  0  0  0  0  0  0  0
  141.3790   80.7870  221.2360 C   0  0  0  0  0  0  0  0  0  0  0  0
  144.7296   75.1156  219.3325 H   0  0  0  0  0  0  0  0  0  0  0  0
  145.1019   72.7066  219.7775 H   0  0  0  0  0  0  0  0  0  0  0  0
  143.3677   71.3909  220.9678 H   0  0  0  0  0  0  0  0  0  0  0  0
  141.2455   72.4910  221.7126 H   0  0  0  0  0  0  0  0  0  0  0  0
  138.3958   76.9217  220.8132 H   0  0  0  0  0  0  0  0  0  0  0  0
  139.2858   76.7696  223.5709 H   0  0  0  0  0  0  0  0  0  0  0  0
  139.8231   79.0659  224.7587 H   0  0  0  0  0  0  0  0  0  0  0  0
  139.0492   81.5823  224.8853 H   0  0  0  0  0  0  0  0  0  0  0  0
  137.5831   79.0875  221.0677 H   0  0  0  0  0  0  0  0  0  0  0  0
  141.9088   78.8069  219.3014 H   0  0  0  0  0  0  0  0  0  0  0  0
  140.2008   78.7190  219.9547 H   0  0  0  0  0  0  0  0  0  0  0  0
  142.4494   77.8982  222.5588 H   0  0  0  0  0  0  0  0  0  0  0  0
  143.0183   79.4132  224.4180 H   0  0  0  0  0  0  0  0  0  0  0  0
  141.4768   82.7053  222.1875 H   0  0  0  0  0  0  0  0  0  0  0  0
  140.9105   81.2052  220.3329 H   0  0  0  0  0  0  0  0  0  0  0  0
  1  2  2  0
  2  3  1  0
  3  4  2  0
  4  5  1  0
  5  6  2  0
  6  7  1  0
  7  8  2  0
  8  9  1  0
  9 10  2  0
 10 11  1  0
 11 12  2  0
 12 13  1  0
 13 14  1  0
 14 15  2  0
 15 16  1  0
 16 17  1  0
 10 18  1  0
 18 19  1  0
 19 20  1  0
 20 21  2  0
 21 22  1  0
 22 23  2  0
 23 24  1  0
 23 25  1  0
 25 26  2  0
 18  2  1  0
 26 20  1  0
  8  3  1  0
 17 13  2  0
  4 27  1  0
  5 28  1  0
  6 29  1  0
  7 30  1  0
 11 31  1  0
 12 32  1  0
 14 33  1  0
 15 34  1  0
 17 35  1  0
 19 36  1  0
 19 37  1  0
 21 38  1  0
 22 39  1  0
 25 40  1  0
 26 41  1  0
M  END
>  <smiles>  (8) 
O=c1c2ccccc2nc(/C=C/c2ccsc2)n1Cc1ccc(F)cc1

>  <score_type>  (8) 
oracle

>  <origin>  (8) 
autodockgpu

>  <m_score__min__energy>  (8) 
-6.4900000000000002

>  <m_primary>  (8) 
energy

>  <meeko>  (8) 
{"free_energy": -6.38, "intermolecular_energy": -7.87, "internal_energy": -1.86, "cluster_size": 20, "cluster_id": 1, "rank_in_cluster": 17}

>  <energy>  (8) 
-6.41

>  <cluster_rmsd>  (8) 
0.23

>  <rmsd>  (8) 
271.02

>  <cluster>  (8) 
1

$$$$

     RDKit          3D

 41 44  0  0  0  0  0  0  0  0999 V2000
  139.8200   74.7620  221.9650 O   0  0  0  0  0  0  0  0  0  0  0  0
  140.4740   75.6320  221.3080 C   0  0  0  0  0  0  0  0  0  0  0  0
  141.7180   75.2500  220.8810 C   0  0  0  0  0  0  0  0  0  0  0  0
  142.2410   74.0000  221.1400 C   0  0  0  0  0  0  0  0  0  0  0  0
  143.5020   73.6390  220.6970 C   0  0  0  0  0  0  0  0  0  0  0  0
  144.2550   74.5470  219.9800 C   0  0  0  0  0  0  0  0  0  0  0  0
  143.7560   75.8170  219.7010 C   0  0  0  0  0  0  0  0  0  0  0  0
  142.4960   76.1380  220.1610 C   0  0  0  0  0  0  0  0  0  0  0  0
  141.9550   77.3450  219.9270 N   0  0  0  0  0  0  0  0  0  0  0  0
  140.7200   77.7030  220.3600 C   0  0  0  0  0  0  0  0  0  0  0  0
  140.2830   79.0430  220.0520 C   0  0  0  0  0  0  0  0  0  0  0  0
  141.0810   80.0690  220.2380 C   0  0  0  0  0  0  0  0  0  0  0  0
  141.6580   80.3870  221.5780 C   0  0  0  0  0  0  0  0  0  0  0  0
  142.4960   79.5800  222.2050 C   0  0  0  0  0  0  0  0  0  0  0  0
  142.9650   79.9920  223.4530 C   0  0  0  0  0  0  0  0  0  0  0  0
  142.1720   81.6270  223.7620 S   0  0  0  0  0  0  0  0  0  0  0  0
  141.3050   81.5780  222.1960 C   0  0  0  0  0  0  0  0  0  0  0  0
  139.9460   76.8660  221.0570 N   0  0  0  0  0  0  0  0  0  0  0  0
  138.6110   77.1720  221.5220 C   0  0  0  0  0  0  0  0  0  0  0  0
  138.5480   78.3110  222.4640 C   0  0  0  0  0  0  0  0  0  0  0  0
  139.5470   78.6590  223.3400 C   0  0  0  0  0  0  0  0  0  0  0  0
  139.4420   79.7380  224.2180 C   0  0  0  0  0  0  0  0  0  0  0  0
  138.3080   80.5170  224.2420 C   0  0  0  0  0  0  0  0  0  0  0  0
  138.1610   81.5680  225.0710 F   0  0  0  0  0  0  0  0  0  0  0  0
  137.2970   80.1860  223.3740 C   0  0  0  0  0  0  0  0  0  0  0  0
  137.4020   79.1170  222.5060 C   0  0  0  0  0  0  0  0  0  0  0  0
  141.6431   73.2743  221.7109 H   0  0  0  0  0  0  0  0  0  0  0  0
  143.9005   72.6371  220.9145 H   0  0  0  0  0  0  0  0  0  0  0  0
  145.2576   74.2651  219.6260 H   0  0  0  0  0  0  0  0  0  0  0  0
  144.3508   76.5445  219.1292 H   0  0  0  0  0  0  0  0  0  0  0  0
  139.2696   79.2070  219.6568 H   0  0  0  0  0  0  0  0  0  0  0  0
  141.3317   80.7128  219.3820 H   0  0  0  0  0  0  0  0  0  0  0  0
  142.8106   78.6237  221.7617 H   0  0  0  0  0  0  0  0  0  0  0  0
  143.6613   79.4543  224.1133 H   0  0  0  0  0  0  0  0  0  0  0  0
  140.6233   82.3451  221.7999 H   0  0  0  0  0  0  0  0  0  0  0  0
  137.9867   77.4108  220.6484 H   0  0  0  0  0  0  0  0  0  0  0  0
  138.2538   76.2868  222.0687 H   0  0  0  0  0  0  0  0  0  0  0  0
  140.4701   78.0608  223.3497 H   0  0  0  0  0  0  0  0  0  0  0  0
  140.2749   79.9686  224.8986 H   0  0  0  0  0  0  0  0  0  0  0  0
  136.3773   80.7894  223.3698 H   0  0  0  0  0  0  0  0  0  0  0  0
  136.5641   78.8921  221.8297 H   0  0  0  0  0  0  0  0  0  0  0  0
  1  2  2  0
  2  3  1  0
  3  4  2  0
  4  5  1  0
  5  6  2  0
  6  7  1  0
  7  8  2  0
  8  9  1  0
  9 10  2  0
 10 11  1  0
 11 12  2  0
 12 13  1  0
 13 14  1  0
 14 15  2  0
 15 16  1  0
 16 17  1  0
 10 18  1  0
 18 19  1  0
 19 20  1  0
 20 21  2  0
 21 22  1  0
 22 23  2  0
 23 24  1  0
 23 25  1  0
 25 26  2  0
 18  2  1  0
 26 20  1  0
  8  3  1  0
 17 13  2  0
  4 27  1  0
  5 28  1  0
  6 29  1  0
  7 30  1  0
 11 31  1  0
 12 32  1  0
 14 33  1  0
 15 34  1  0
 17 35  1  0
 19 36  1  0
 19 37  1  0
 21 38  1  0
 22 39  1  0
 25 40  1  0
 26 41  1  0
M  END
>  <smiles>  (9) 
O=c1c2ccccc2nc(/C=C/c2ccsc2)n1Cc1ccc(F)cc1

>  <score_type>  (9) 
oracle

>  <origin>  (9) 
autodockgpu

>  <m_score__min__energy>  (9) 
-6.4900000000000002

>  <m_primary>  (9) 
energy

>  <meeko>  (9) 
{"free_energy": -6.35, "intermolecular_energy": -7.84, "internal_energy": -1.77, "cluster_size": 20, "cluster_id": 1, "rank_in_cluster": 18}

>  <energy>  (9) 
-6.4

>  <cluster_rmsd>  (9) 
0.2

>  <rmsd>  (9) 
270.97

>  <cluster>  (9) 
1

$$$$

     RDKit          3D

 41 44  0  0  0  0  0  0  0  0999 V2000
  143.6090   76.9940  219.3700 O   0  0  0  0  0  0  0  0  0  0  0  0
  142.6500   76.4420  219.9940 C   0  0  0  0  0  0  0  0  0  0  0  0
  142.7930   75.1040  220.2530 C   0  0  0  0  0  0  0  0  0  0  0  0
  143.9070   74.3890  219.8650 C   0  0  0  0  0  0  0  0  0  0  0  0
  144.0280   73.0370  220.1380 C   0  0  0  0  0  0  0  0  0  0  0  0
  143.0130   72.3870  220.8140 C   0  0  0  0  0  0  0  0  0  0  0  0
  141.8750   73.0820  221.2190 C   0  0  0  0  0  0  0  0  0  0  0  0
  141.7940   74.4270  220.9270 C   0  0  0  0  0  0  0  0  0  0  0  0
  140.7240   75.1560  221.2890 N   0  0  0  0  0  0  0  0  0  0  0  0
  140.6020   76.4810  221.0230 C   0  0  0  0  0  0  0  0  0  0  0  0
  139.3850   77.1240  221.4540 C   0  0  0  0  0  0  0  0  0  0  0  0
  139.2080   77.4510  222.7130 C   0  0  0  0  0  0  0  0  0  0  0  0
  138.6560   78.7790  223.1130 C   0  0  0  0  0  0  0  0  0  0  0  0
  139.3160   79.6230  223.8880 C   0  0  0  0  0  0  0  0  0  0  0  0
  138.6920   80.8340  224.1900 C   0  0  0  0  0  0  0  0  0  0  0  0
  137.0650   80.7790  223.3240 S   0  0  0  0  0  0  0  0  0  0  0  0
  137.4000   79.1500  222.6570 C   0  0  0  0  0  0  0  0  0  0  0  0
  141.5520   77.1600  220.3740 N   0  0  0  0  0  0  0  0  0  0  0  0
  141.4990   78.5770  220.0840 C   0  0  0  0  0  0  0  0  0  0  0  0
  141.7830   79.4410  221.2510 C   0  0  0  0  0  0  0  0  0  0  0  0
  142.3590   79.0130  222.4210 C   0  0  0  0  0  0  0  0  0  0  0  0
  142.6010   79.8630  223.5000 C   0  0  0  0  0  0  0  0  0  0  0  0
  142.2650   81.1960  223.4350 C   0  0  0  0  0  0  0  0  0  0  0  0
  142.4810   82.0540  224.4500 F   0  0  0  0  0  0  0  0  0  0  0  0
  141.6880   81.6440  222.2730 C   0  0  0  0  0  0  0  0  0  0  0  0
  141.4490   80.8020  221.2050 C   0  0  0  0  0  0  0  0  0  0  0  0
  144.7166   74.9040  219.3272 H   0  0  0  0  0  0  0  0  0  0  0  0
  144.9245   72.4849  219.8195 H   0  0  0  0  0  0  0  0  0  0  0  0
  143.1040   71.3131  221.0340 H   0  0  0  0  0  0  0  0  0  0  0  0
  141.0630   72.5711  221.7573 H   0  0  0  0  0  0  0  0  0  0  0  0
  138.5961   77.3429  220.7193 H   0  0  0  0  0  0  0  0  0  0  0  0
  139.4741   76.7254  223.4958 H   0  0  0  0  0  0  0  0  0  0  0  0
  140.3154   79.3805  224.2784 H   0  0  0  0  0  0  0  0  0  0  0  0
  139.0874   81.6496  224.8133 H   0  0  0  0  0  0  0  0  0  0  0  0
  136.7365   78.5577  222.0098 H   0  0  0  0  0  0  0  0  0  0  0  0
  142.2399   78.7979  219.3016 H   0  0  0  0  0  0  0  0  0  0  0  0
  140.4693   78.7987  219.7669 H   0  0  0  0  0  0  0  0  0  0  0  0
  142.6420   77.9539  222.5116 H   0  0  0  0  0  0  0  0  0  0  0  0
  143.0657   79.4634  224.4134 H   0  0  0  0  0  0  0  0  0  0  0  0
  141.4079   82.7045  222.1901 H   0  0  0  0  0  0  0  0  0  0  0  0
  140.9847   81.2094  220.2948 H   0  0  0  0  0  0  0  0  0  0  0  0
  1  2  2  0
  2  3  1  0
  3  4  2  0
  4  5  1  0
  5  6  2  0
  6  7  1  0
  7  8  2  0
  8  9  1  0
  9 10  2  0
 10 11  1  0
 11 12  2  0
 12 13  1  0
 13 14  1  0
 14 15  2  0
 15 16  1  0
 16 17  1  0
 10 18  1  0
 18 19  1  0
 19 20  1  0
 20 21  2  0
 21 22  1  0
 22 23  2  0
 23 24  1  0
 23 25  1  0
 25 26  2  0
 18  2  1  0
 26 20  1  0
  8  3  1  0
 17 13  2  0
  4 27  1  0
  5 28  1  0
  6 29  1  0
  7 30  1  0
 11 31  1  0
 12 32  1  0
 14 33  1  0
 15 34  1  0
 17 35  1  0
 19 36  1  0
 19 37  1  0
 21 38  1  0
 22 39  1  0
 25 40  1  0
 26 41  1  0
M  END
>  <smiles>  (10) 
O=c1c2ccccc2nc(/C=C/c2ccsc2)n1Cc1ccc(F)cc1

>  <score_type>  (10) 
oracle

>  <origin>  (10) 
autodockgpu

>  <m_score__min__energy>  (10) 
-6.4900000000000002

>  <m_primary>  (10) 
energy

>  <meeko>  (10) 
{"free_energy": -6.49, "intermolecular_energy": -7.98, "internal_energy": -1.71, "cluster_size": 20, "cluster_id": 1, "rank_in_cluster": 1}

>  <energy>  (10) 
-6.4

>  <cluster_rmsd>  (10) 
0.28

>  <rmsd>  (10) 
271.01

>  <cluster>  (10) 
1

$$$$

     RDKit          3D

 41 44  0  0  0  0  0  0  0  0999 V2000
  143.5180   77.0920  219.4280 O   0  0  0  0  0  0  0  0  0  0  0  0
  142.5870   76.4830  220.0420 C   0  0  0  0  0  0  0  0  0  0  0  0
  142.7980   75.1490  220.2810 C   0  0  0  0  0  0  0  0  0  0  0  0
  143.9470   74.4980  219.8840 C   0  0  0  0  0  0  0  0  0  0  0  0
  144.1360   73.1490  220.1370 C   0  0  0  0  0  0  0  0  0  0  0  0
  143.1550   72.4390  220.8000 C   0  0  0  0  0  0  0  0  0  0  0  0
  141.9830   73.0690  221.2130 C   0  0  0  0  0  0  0  0  0  0  0  0
  141.8330   74.4120  220.9420 C   0  0  0  0  0  0  0  0  0  0  0  0
  140.7280   75.0800  221.3130 N   0  0  0  0  0  0  0  0  0  0  0  0
  140.5390   76.4010  221.0670 C   0  0  0  0  0  0  0  0  0  0  0  0
  139.2900   76.9750  221.5050 C   0  0  0  0  0  0  0  0  0  0  0  0
  139.1640   77.4640  222.7160 C   0  0  0  0  0  0  0  0  0  0  0  0
  138.8100   78.8940  222.9570 C   0  0  0  0  0  0  0  0  0  0  0  0
  139.2020   79.5560  224.0330 C   0  0  0  0  0  0  0  0  0  0  0  0
  138.8060   80.8890  224.1410 C   0  0  0  0  0  0  0  0  0  0  0  0
  137.8140   81.2330  222.6250 S   0  0  0  0  0  0  0  0  0  0  0  0
  138.0390   79.5630  222.0180 C   0  0  0  0  0  0  0  0  0  0  0  0
  141.4540   77.1380  220.4300 N   0  0  0  0  0  0  0  0  0  0  0  0
  141.3290   78.5540  220.1620 C   0  0  0  0  0  0  0  0  0  0  0  0
  141.6810   79.4180  221.3110 C   0  0  0  0  0  0  0  0  0  0  0  0
  142.2550   78.9750  222.4760 C   0  0  0  0  0  0  0  0  0  0  0  0
  142.5630   79.8250  223.5390 C   0  0  0  0  0  0  0  0  0  0  0  0
  142.2980   81.1730  223.4600 C   0  0  0  0  0  0  0  0  0  0  0  0
  142.5790   82.0320  224.4590 F   0  0  0  0  0  0  0  0  0  0  0  0
  141.7250   81.6360  222.3020 C   0  0  0  0  0  0  0  0  0  0  0  0
  141.4200   80.7940  221.2520 C   0  0  0  0  0  0  0  0  0  0  0  0
  144.7299   75.0616  219.3554 H   0  0  0  0  0  0  0  0  0  0  0  0
  145.0599   72.6479  219.8123 H   0  0  0  0  0  0  0  0  0  0  0  0
  143.2998   71.3678  221.0037 H   0  0  0  0  0  0  0  0  0  0  0  0
  141.1976   72.5090  221.7417 H   0  0  0  0  0  0  0  0  0  0  0  0
  138.4333   77.0030  220.8156 H   0  0  0  0  0  0  0  0  0  0  0  0
  139.3239   76.8008  223.5789 H   0  0  0  0  0  0  0  0  0  0  0  0
  139.8146   79.0754  224.8100 H   0  0  0  0  0  0  0  0  0  0  0  0
  139.0368   81.5880  224.9584 H   0  0  0  0  0  0  0  0  0  0  0  0
  137.6418   79.1475  221.0801 H   0  0  0  0  0  0  0  0  0  0  0  0
  141.9935   78.8071  219.3227 H   0  0  0  0  0  0  0  0  0  0  0  0
  140.2692   78.7424  219.9353 H   0  0  0  0  0  0  0  0  0  0  0  0
  142.4822   77.9034  222.5763 H   0  0  0  0  0  0  0  0  0  0  0  0
  143.0225   79.4131  224.4496 H   0  0  0  0  0  0  0  0  0  0  0  0
  141.5025   82.7092  222.2081 H   0  0  0  0  0  0  0  0  0  0  0  0
  140.9601   81.2136  220.3451 H   0  0  0  0  0  0  0  0  0  0  0  0
  1  2  2  0
  2  3  1  0
  3  4  2  0
  4  5  1  0
  5  6  2  0
  6  7  1  0
  7  8  2  0
  8  9  1  0
  9 10  2  0
 10 11  1  0
 11 12  2  0
 12 13  1  0
 13 14  1  0
 14 15  2  0
 15 16  1  0
 16 17  1  0
 10 18  1  0
 18 19  1  0
 19 20  1  0
 20 21  2  0
 21 22  1  0
 22 23  2  0
 23 24  1  0
 23 25  1  0
 25 26  2  0
 18  2  1  0
 26 20  1  0
  8  3  1  0
 17 13  2  0
  4 27  1  0
  5 28  1  0
  6 29  1  0
  7 30  1  0
 11 31  1  0
 12 32  1  0
 14 33  1  0
 15 34  1  0
 17 35  1  0
 19 36  1  0
 19 37  1  0
 21 38  1  0
 22 39  1  0
 25 40  1  0
 26 41  1  0
M  END
>  <smiles>  (11) 
O=c1c2ccccc2nc(/C=C/c2ccsc2)n1Cc1ccc(F)cc1

>  <score_type>  (11) 
oracle

>  <origin>  (11) 
autodockgpu

>  <m_score__min__energy>  (11) 
-6.4900000000000002

>  <m_primary>  (11) 
energy

>  <meeko>  (11) 
{"free_energy": -6.38, "intermolecular_energy": -7.87, "internal_energy": -1.86, "cluster_size": 20, "cluster_id": 1, "rank_in_cluster": 16}

>  <energy>  (11) 
-6.4

>  <cluster_rmsd>  (11) 
0.27

>  <rmsd>  (11) 
271.01

>  <cluster>  (11) 
1

$$$$

     RDKit          3D

 41 44  0  0  0  0  0  0  0  0999 V2000
  143.5070   77.1010  219.4180 O   0  0  0  0  0  0  0  0  0  0  0  0
  142.5840   76.4860  220.0370 C   0  0  0  0  0  0  0  0  0  0  0  0
  142.8050   75.1550  220.2770 C   0  0  0  0  0  0  0  0  0  0  0  0
  143.9570   74.5110  219.8770 C   0  0  0  0  0  0  0  0  0  0  0  0
  144.1570   73.1640  220.1310 C   0  0  0  0  0  0  0  0  0  0  0  0
  143.1840   72.4480  220.8000 C   0  0  0  0  0  0  0  0  0  0  0  0
  142.0090   73.0700  221.2170 C   0  0  0  0  0  0  0  0  0  0  0  0
  141.8490   74.4120  220.9440 C   0  0  0  0  0  0  0  0  0  0  0  0
  140.7400   75.0720  221.3190 N   0  0  0  0  0  0  0  0  0  0  0  0
  140.5400   76.3910  221.0710 C   0  0  0  0  0  0  0  0  0  0  0  0
  139.2890   76.9560  221.5140 C   0  0  0  0  0  0  0  0  0  0  0  0
  139.1710   77.4630  222.7190 C   0  0  0  0  0  0  0  0  0  0  0  0
  138.8020   78.8920  222.9420 C   0  0  0  0  0  0  0  0  0  0  0  0
  139.1970   79.5750  224.0020 C   0  0  0  0  0  0  0  0  0  0  0  0
  138.7860   80.9060  224.0950 C   0  0  0  0  0  0  0  0  0  0  0  0
  137.7740   81.2140  222.5850 S   0  0  0  0  0  0  0  0  0  0  0  0
  138.0120   79.5370  222.0010 C   0  0  0  0  0  0  0  0  0  0  0  0
  141.4470   77.1340  220.4290 N   0  0  0  0  0  0  0  0  0  0  0  0
  141.3110   78.5480  220.1590 C   0  0  0  0  0  0  0  0  0  0  0  0
  141.6620   79.4170  221.3040 C   0  0  0  0  0  0  0  0  0  0  0  0
  142.2250   78.9770  222.4770 C   0  0  0  0  0  0  0  0  0  0  0  0
  142.5320   79.8320  223.5360 C   0  0  0  0  0  0  0  0  0  0  0  0
  142.2780   81.1810  223.4470 C   0  0  0  0  0  0  0  0  0  0  0  0
  142.5590   82.0440  224.4420 F   0  0  0  0  0  0  0  0  0  0  0  0
  141.7150   81.6410  222.2820 C   0  0  0  0  0  0  0  0  0  0  0  0
  141.4110   80.7940  221.2350 C   0  0  0  0  0  0  0  0  0  0  0  0
  144.7340   75.0793  219.3447 H   0  0  0  0  0  0  0  0  0  0  0  0
  145.0828   72.6690  219.8026 H   0  0  0  0  0  0  0  0  0  0  0  0
  143.3378   71.3783  221.0053 H   0  0  0  0  0  0  0  0  0  0  0  0
  141.2297   72.5054  221.7498 H   0  0  0  0  0  0  0  0  0  0  0  0
  138.4241   76.9621  220.8344 H   0  0  0  0  0  0  0  0  0  0  0  0
  139.3493   76.8156  223.5902 H   0  0  0  0  0  0  0  0  0  0  0  0
  139.8240   79.1138  224.7793 H   0  0  0  0  0  0  0  0  0  0  0  0
  139.0171   81.6200  224.8992 H   0  0  0  0  0  0  0  0  0  0  0  0
  137.6092   79.1021  221.0744 H   0  0  0  0  0  0  0  0  0  0  0  0
  141.9698   78.8039  219.3161 H   0  0  0  0  0  0  0  0  0  0  0  0
  140.2488   78.7284  219.9371 H   0  0  0  0  0  0  0  0  0  0  0  0
  142.4433   77.9044  222.5862 H   0  0  0  0  0  0  0  0  0  0  0  0
  142.9822   79.4227  224.4524 H   0  0  0  0  0  0  0  0  0  0  0  0
  141.5001   82.7150  222.1801 H   0  0  0  0  0  0  0  0  0  0  0  0
  140.9598   81.2110  220.3225 H   0  0  0  0  0  0  0  0  0  0  0  0
  1  2  2  0
  2  3  1  0
  3  4  2  0
  4  5  1  0
  5  6  2  0
  6  7  1  0
  7  8  2  0
  8  9  1  0
  9 10  2  0
 10 11  1  0
 11 12  2  0
 12 13  1  0
 13 14  1  0
 14 15  2  0
 15 16  1  0
 16 17  1  0
 10 18  1  0
 18 19  1  0
 19 20  1  0
 20 21  2  0
 21 22  1  0
 22 23  2  0
 23 24  1  0
 23 25  1  0
 25 26  2  0
 18  2  1  0
 26 20  1  0
  8  3  1  0
 17 13  2  0
  4 27  1  0
  5 28  1  0
  6 29  1  0
  7 30  1  0
 11 31  1  0
 12 32  1  0
 14 33  1  0
 15 34  1  0
 17 35  1  0
 19 36  1  0
 19 37  1  0
 21 38  1  0
 22 39  1  0
 25 40  1  0
 26 41  1  0
M  END
>  <smiles>  (12) 
O=c1c2ccccc2nc(/C=C/c2ccsc2)n1Cc1ccc(F)cc1

>  <score_type>  (12) 
oracle

>  <origin>  (12) 
autodockgpu

>  <m_score__min__energy>  (12) 
-6.4900000000000002

>  <m_primary>  (12) 
energy

>  <meeko>  (12) 
{"free_energy": -6.39, "intermolecular_energy": -7.89, "internal_energy": -1.85, "cluster_size": 20, "cluster_id": 1, "rank_in_cluster": 12}

>  <energy>  (12) 
-6.39

>  <cluster_rmsd>  (12) 
0.32

>  <rmsd>  (12) 
271.01

>  <cluster>  (12) 
1

$$$$

     RDKit          3D

 41 44  0  0  0  0  0  0  0  0999 V2000
  143.5050   77.1130  219.4250 O   0  0  0  0  0  0  0  0  0  0  0  0
  142.5680   76.5100  220.0360 C   0  0  0  0  0  0  0  0  0  0  0  0
  142.7660   75.1740  220.2700 C   0  0  0  0  0  0  0  0  0  0  0  0
  143.9090   74.5130  219.8730 C   0  0  0  0  0  0  0  0  0  0  0  0
  144.0860   73.1630  220.1210 C   0  0  0  0  0  0  0  0  0  0  0  0
  143.0980   72.4590  220.7820 C   0  0  0  0  0  0  0  0  0  0  0  0
  141.9310   73.0980  221.1960 C   0  0  0  0  0  0  0  0  0  0  0  0
  141.7940   74.4440  220.9280 C   0  0  0  0  0  0  0  0  0  0  0  0
  140.6940   75.1210  221.3000 N   0  0  0  0  0  0  0  0  0  0  0  0
  140.5180   76.4440  221.0580 C   0  0  0  0  0  0  0  0  0  0  0  0
  139.2740   77.0280  221.4970 C   0  0  0  0  0  0  0  0  0  0  0  0
  139.1430   77.4890  222.7190 C   0  0  0  0  0  0  0  0  0  0  0  0
  138.7410   78.9010  222.9920 C   0  0  0  0  0  0  0  0  0  0  0  0
  139.1760   79.5770  224.0410 C   0  0  0  0  0  0  0  0  0  0  0  0
  138.7270   80.8910  224.1830 C   0  0  0  0  0  0  0  0  0  0  0  0
  137.6180   81.1920  222.7420 S   0  0  0  0  0  0  0  0  0  0  0  0
  137.8760   79.5350  222.1120 C   0  0  0  0  0  0  0  0  0  0  0  0
  141.4400   77.1750  220.4250 N   0  0  0  0  0  0  0  0  0  0  0  0
  141.3290   78.5930  220.1610 C   0  0  0  0  0  0  0  0  0  0  0  0
  141.6640   79.4490  221.3200 C   0  0  0  0  0  0  0  0  0  0  0  0
  142.2220   78.9990  222.4910 C   0  0  0  0  0  0  0  0  0  0  0  0
  142.5150   79.8430  223.5630 C   0  0  0  0  0  0  0  0  0  0  0  0
  142.2510   81.1910  223.4890 C   0  0  0  0  0  0  0  0  0  0  0  0
  142.5170   82.0440  224.4970 F   0  0  0  0  0  0  0  0  0  0  0  0
  141.6940   81.6610  222.3260 C   0  0  0  0  0  0  0  0  0  0  0  0
  141.4040   80.8260  221.2660 C   0  0  0  0  0  0  0  0  0  0  0  0
  144.6978   75.0711  219.3474 H   0  0  0  0  0  0  0  0  0  0  0  0
  145.0054   72.6549  219.7946 H   0  0  0  0  0  0  0  0  0  0  0  0
  143.2336   71.3861  220.9830 H   0  0  0  0  0  0  0  0  0  0  0  0
  141.1401   72.5437  221.7225 H   0  0  0  0  0  0  0  0  0  0  0  0
  138.4254   77.0876  220.7996 H   0  0  0  0  0  0  0  0  0  0  0  0
  139.3350   76.8153  223.5670 H   0  0  0  0  0  0  0  0  0  0  0  0
  139.8626   79.1235  224.7710 H   0  0  0  0  0  0  0  0  0  0  0  0
  138.9816   81.5982  224.9861 H   0  0  0  0  0  0  0  0  0  0  0  0
  137.4336   79.1032  221.2022 H   0  0  0  0  0  0  0  0  0  0  0  0
  142.0111   78.8456  219.3358 H   0  0  0  0  0  0  0  0  0  0  0  0
  140.2751   78.7892  219.9146 H   0  0  0  0  0  0  0  0  0  0  0  0
  142.4479   77.9268  222.5884 H   0  0  0  0  0  0  0  0  0  0  0  0
  142.9620   79.4257  224.4774 H   0  0  0  0  0  0  0  0  0  0  0  0
  141.4722   82.7347  222.2361 H   0  0  0  0  0  0  0  0  0  0  0  0
  140.9574   81.2516  220.3553 H   0  0  0  0  0  0  0  0  0  0  0  0
  1  2  2  0
  2  3  1  0
  3  4  2  0
  4  5  1  0
  5  6  2  0
  6  7  1  0
  7  8  2  0
  8  9  1  0
  9 10  2  0
 10 11  1  0
 11 12  2  0
 12 13  1  0
 13 14  1  0
 14 15  2  0
 15 16  1  0
 16 17  1  0
 10 18  1  0
 18 19  1  0
 19 20  1  0
 20 21  2  0
 21 22  1  0
 22 23  2  0
 23 24  1  0
 23 25  1  0
 25 26  2  0
 18  2  1  0
 26 20  1  0
  8  3  1  0
 17 13  2  0
  4 27  1  0
  5 28  1  0
  6 29  1  0
  7 30  1  0
 11 31  1  0
 12 32  1  0
 14 33  1  0
 15 34  1  0
 17 35  1  0
 19 36  1  0
 19 37  1  0
 21 38  1  0
 22 39  1  0
 25 40  1  0
 26 41  1  0
M  END
>  <smiles>  (13) 
O=c1c2ccccc2nc(/C=C/c2ccsc2)n1Cc1ccc(F)cc1

>  <score_type>  (13) 
oracle

>  <origin>  (13) 
autodockgpu

>  <m_score__min__energy>  (13) 
-6.4900000000000002

>  <m_primary>  (13) 
energy

>  <meeko>  (13) 
{"free_energy": -6.4, "intermolecular_energy": -7.89, "internal_energy": -1.84, "cluster_size": 20, "cluster_id": 1, "rank_in_cluster": 11}

>  <energy>  (13) 
-6.39

>  <cluster_rmsd>  (13) 
0.32

>  <rmsd>  (13) 
270.99

>  <cluster>  (13) 
1

$$$$

     RDKit          3D

 41 44  0  0  0  0  0  0  0  0999 V2000
  143.4080   77.1360  219.4210 O   0  0  0  0  0  0  0  0  0  0  0  0
  142.4630   76.5400  220.0270 C   0  0  0  0  0  0  0  0  0  0  0  0
  142.6610   75.2070  220.2810 C   0  0  0  0  0  0  0  0  0  0  0  0
  143.8100   74.5430  219.9080 C   0  0  0  0  0  0  0  0  0  0  0  0
  143.9850   73.1960  220.1770 C   0  0  0  0  0  0  0  0  0  0  0  0
  142.9890   72.5000  220.8320 C   0  0  0  0  0  0  0  0  0  0  0  0
  141.8150   73.1420  221.2210 C   0  0  0  0  0  0  0  0  0  0  0  0
  141.6800   74.4840  220.9350 C   0  0  0  0  0  0  0  0  0  0  0  0
  140.5740   75.1640  221.2820 N   0  0  0  0  0  0  0  0  0  0  0  0
  140.3990   76.4830  221.0210 C   0  0  0  0  0  0  0  0  0  0  0  0
  139.1480   77.0710  221.4340 C   0  0  0  0  0  0  0  0  0  0  0  0
  138.9430   77.4000  222.6880 C   0  0  0  0  0  0  0  0  0  0  0  0
  138.5350   78.7800  223.0860 C   0  0  0  0  0  0  0  0  0  0  0  0
  139.2390   79.5200  223.9250 C   0  0  0  0  0  0  0  0  0  0  0  0
  138.7500   80.7940  224.2160 C   0  0  0  0  0  0  0  0  0  0  0  0
  137.1940   80.9600  223.2410 S   0  0  0  0  0  0  0  0  0  0  0  0
  137.3690   79.3140  222.5560 C   0  0  0  0  0  0  0  0  0  0  0  0
  141.3290   77.2070  220.3910 N   0  0  0  0  0  0  0  0  0  0  0  0
  141.2200   78.6220  220.1070 C   0  0  0  0  0  0  0  0  0  0  0  0
  141.5570   79.4940  221.2540 C   0  0  0  0  0  0  0  0  0  0  0  0
  141.2780   80.8360  221.3250 C   0  0  0  0  0  0  0  0  0  0  0  0
  141.6220   81.6230  222.4240 C   0  0  0  0  0  0  0  0  0  0  0  0
  142.2680   81.0740  223.5070 C   0  0  0  0  0  0  0  0  0  0  0  0
  142.6190   81.7940  224.5910 F   0  0  0  0  0  0  0  0  0  0  0  0
  142.5560   79.7330  223.4560 C   0  0  0  0  0  0  0  0  0  0  0  0
  142.2150   78.9550  222.3680 C   0  0  0  0  0  0  0  0  0  0  0  0
  144.6050   75.0951  219.3854 H   0  0  0  0  0  0  0  0  0  0  0  0
  144.9099   72.6849  219.8713 H   0  0  0  0  0  0  0  0  0  0  0  0
  143.1231   71.4299  221.0486 H   0  0  0  0  0  0  0  0  0  0  0  0
  141.0172   72.5927  221.7424 H   0  0  0  0  0  0  0  0  0  0  0  0
  138.3571   77.2456  220.6897 H   0  0  0  0  0  0  0  0  0  0  0  0
  139.0757   76.6365  223.4687 H   0  0  0  0  0  0  0  0  0  0  0  0
  140.1710   79.1472  224.3748 H   0  0  0  0  0  0  0  0  0  0  0  0
  139.1985   81.5421  224.8862 H   0  0  0  0  0  0  0  0  0  0  0  0
  136.6837   78.8212  221.8506 H   0  0  0  0  0  0  0  0  0  0  0  0
  141.9021   78.8619  219.2780 H   0  0  0  0  0  0  0  0  0  0  0  0
  140.1662   78.8164  219.8584 H   0  0  0  0  0  0  0  0  0  0  0  0
  140.7607   81.3114  220.4786 H   0  0  0  0  0  0  0  0  0  0  0  0
  141.3739   82.6946  222.4245 H   0  0  0  0  0  0  0  0  0  0  0  0
  143.0733   79.2649  224.3064 H   0  0  0  0  0  0  0  0  0  0  0  0
  142.4662   77.8841  222.3754 H   0  0  0  0  0  0  0  0  0  0  0  0
  1  2  2  0
  2  3  1  0
  3  4  2  0
  4  5  1  0
  5  6  2  0
  6  7  1  0
  7  8  2  0
  8  9  1  0
  9 10  2  0
 10 11  1  0
 11 12  2  0
 12 13  1  0
 13 14  1  0
 14 15  2  0
 15 16  1  0
 16 17  1  0
 10 18  1  0
 18 19  1  0
 19 20  1  0
 20 21  2  0
 21 22  1  0
 22 23  2  0
 23 24  1  0
 23 25  1  0
 25 26  2  0
 18  2  1  0
 26 20  1  0
  8  3  1  0
 17 13  2  0
  4 27  1  0
  5 28  1  0
  6 29  1  0
  7 30  1  0
 11 31  1  0
 12 32  1  0
 14 33  1  0
 15 34  1  0
 17 35  1  0
 19 36  1  0
 19 37  1  0
 21 38  1  0
 22 39  1  0
 25 40  1  0
 26 41  1  0
M  END
>  <smiles>  (14) 
O=c1c2ccccc2nc(/C=C/c2ccsc2)n1Cc1ccc(F)cc1

>  <score_type>  (14) 
oracle

>  <origin>  (14) 
autodockgpu

>  <m_score__min__energy>  (14) 
-6.4900000000000002

>  <m_primary>  (14) 
energy

>  <meeko>  (14) 
{"free_energy": -6.4, "intermolecular_energy": -7.89, "internal_energy": -1.79, "cluster_size": 20, "cluster_id": 1, "rank_in_cluster": 9}

>  <energy>  (14) 
-6.39

>  <cluster_rmsd>  (14) 
0.31

>  <rmsd>  (14) 
271.01

>  <cluster>  (14) 
1

$$$$

     RDKit          3D

 41 44  0  0  0  0  0  0  0  0999 V2000
  140.0100   74.2770  221.9270 O   0  0  0  0  0  0  0  0  0  0  0  0
  140.6940   75.1050  221.2480 C   0  0  0  0  0  0  0  0  0  0  0  0
  141.9390   74.6820  220.8630 C   0  0  0  0  0  0  0  0  0  0  0  0
  142.4310   73.4350  221.1860 C   0  0  0  0  0  0  0  0  0  0  0  0
  143.6930   73.0310  220.7850 C   0  0  0  0  0  0  0  0  0  0  0  0
  144.4790   73.8930  220.0460 C   0  0  0  0  0  0  0  0  0  0  0  0
  144.0110   75.1600  219.7040 C   0  0  0  0  0  0  0  0  0  0  0  0
  142.7480   75.5240  220.1230 C   0  0  0  0  0  0  0  0  0  0  0  0
  142.2360   76.7310  219.8280 N   0  0  0  0  0  0  0  0  0  0  0  0
  141.0000   77.1300  220.2190 C   0  0  0  0  0  0  0  0  0  0  0  0
  140.5960   78.4640  219.8460 C   0  0  0  0  0  0  0  0  0  0  0  0
  141.4390   79.4670  219.9240 C   0  0  0  0  0  0  0  0  0  0  0  0
  141.7860   80.1080  221.2270 C   0  0  0  0  0  0  0  0  0  0  0  0
  141.3790   81.3210  221.5570 C   0  0  0  0  0  0  0  0  0  0  0  0
  141.7710   81.8080  222.8050 C   0  0  0  0  0  0  0  0  0  0  0  0
  142.7790   80.4640  223.5640 S   0  0  0  0  0  0  0  0  0  0  0  0
  142.5670   79.4060  222.1340 C   0  0  0  0  0  0  0  0  0  0  0  0
  140.1960   76.3380  220.9340 N   0  0  0  0  0  0  0  0  0  0  0  0
  138.8580   76.6890  221.3590 C   0  0  0  0  0  0  0  0  0  0  0  0
  138.7980   77.8750  222.2410 C   0  0  0  0  0  0  0  0  0  0  0  0
  139.8000   78.2690  223.0930 C   0  0  0  0  0  0  0  0  0  0  0  0
  139.6980   79.3920  223.9140 C   0  0  0  0  0  0  0  0  0  0  0  0
  138.5620   80.1690  223.9030 C   0  0  0  0  0  0  0  0  0  0  0  0
  138.4180   81.2620  224.6770 F   0  0  0  0  0  0  0  0  0  0  0  0
  137.5480   79.7920  223.0580 C   0  0  0  0  0  0  0  0  0  0  0  0
  137.6510   78.6810  222.2460 C   0  0  0  0  0  0  0  0  0  0  0  0
  141.8073   72.7464  221.7750 H   0  0  0  0  0  0  0  0  0  0  0  0
  144.0665   72.0316  221.0528 H   0  0  0  0  0  0  0  0  0  0  0  0
  145.4825   73.5769  219.7248 H   0  0  0  0  0  0  0  0  0  0  0  0
  144.6320   75.8516  219.1156 H   0  0  0  0  0  0  0  0  0  0  0  0
  139.5698   78.6424  219.4922 H   0  0  0  0  0  0  0  0  0  0  0  0
  141.9036   79.8466  219.0020 H   0  0  0  0  0  0  0  0  0  0  0  0
  140.7574   81.9218  220.8768 H   0  0  0  0  0  0  0  0  0  0  0  0
  141.5293   82.7875  223.2433 H   0  0  0  0  0  0  0  0  0  0  0  0
  142.9772   78.3941  222.0006 H   0  0  0  0  0  0  0  0  0  0  0  0
  138.2531   76.8933  220.4632 H   0  0  0  0  0  0  0  0  0  0  0  0
  138.4765   75.8386  221.9432 H   0  0  0  0  0  0  0  0  0  0  0  0
  140.7237   77.6729  223.1298 H   0  0  0  0  0  0  0  0  0  0  0  0
  140.5340   79.6594  224.5770 H   0  0  0  0  0  0  0  0  0  0  0  0
  136.6270   80.3927  223.0273 H   0  0  0  0  0  0  0  0  0  0  0  0
  136.8109   78.4210  221.5852 H   0  0  0  0  0  0  0  0  0  0  0  0
  1  2  2  0
  2  3  1  0
  3  4  2  0
  4  5  1  0
  5  6  2  0
  6  7  1  0
  7  8  2  0
  8  9  1  0
  9 10  2  0
 10 11  1  0
 11 12  2  0
 12 13  1  0
 13 14  1  0
 14 15  2  0
 15 16  1  0
 16 17  1  0
 10 18  1  0
 18 19  1  0
 19 20  1  0
 20 21  2  0
 21 22  1  0
 22 23  2  0
 23 24  1  0
 23 25  1  0
 25 26  2  0
 18  2  1  0
 26 20  1  0
  8  3  1  0
 17 13  2  0
  4 27  1  0
  5 28  1  0
  6 29  1  0
  7 30  1  0
 11 31  1  0
 12 32  1  0
 14 33  1  0
 15 34  1  0
 17 35  1  0
 19 36  1  0
 19 37  1  0
 21 38  1  0
 22 39  1  0
 25 40  1  0
 26 41  1  0
M  END
>  <smiles>  (15) 
O=c1c2ccccc2nc(/C=C/c2ccsc2)n1Cc1ccc(F)cc1

>  <score_type>  (15) 
oracle

>  <origin>  (15) 
autodockgpu

>  <m_score__min__energy>  (15) 
-6.4900000000000002

>  <m_primary>  (15) 
energy

>  <meeko>  (15) 
{"free_energy": -6.46, "intermolecular_energy": -7.95, "internal_energy": -1.68, "cluster_size": 20, "cluster_id": 1, "rank_in_cluster": 5}

>  <energy>  (15) 
-6.39

>  <cluster_rmsd>  (15) 
0.31

>  <rmsd>  (15) 
271.01

>  <cluster>  (15) 
1

$$$$

     RDKit          3D

 41 44  0  0  0  0  0  0  0  0999 V2000
  143.5020   77.0860  219.4320 O   0  0  0  0  0  0  0  0  0  0  0  0
  142.5720   76.4750  220.0460 C   0  0  0  0  0  0  0  0  0  0  0  0
  142.7850   75.1420  220.2840 C   0  0  0  0  0  0  0  0  0  0  0  0
  143.9350   74.4930  219.8880 C   0  0  0  0  0  0  0  0  0  0  0  0
  144.1260   73.1440  220.1410 C   0  0  0  0  0  0  0  0  0  0  0  0
  143.1460   72.4330  220.8040 C   0  0  0  0  0  0  0  0  0  0  0  0
  141.9730   73.0600  221.2170 C   0  0  0  0  0  0  0  0  0  0  0  0
  141.8210   74.4040  220.9460 C   0  0  0  0  0  0  0  0  0  0  0  0
  140.7150   75.0700  221.3160 N   0  0  0  0  0  0  0  0  0  0  0  0
  140.5240   76.3900  221.0700 C   0  0  0  0  0  0  0  0  0  0  0  0
  139.2740   76.9620  221.5080 C   0  0  0  0  0  0  0  0  0  0  0  0
  139.1470   77.4490  222.7200 C   0  0  0  0  0  0  0  0  0  0  0  0
  138.7910   78.8780  222.9630 C   0  0  0  0  0  0  0  0  0  0  0  0
  139.1960   79.5430  224.0320 C   0  0  0  0  0  0  0  0  0  0  0  0
  138.7970   80.8760  224.1430 C   0  0  0  0  0  0  0  0  0  0  0  0
  137.7830   81.2130  222.6410 S   0  0  0  0  0  0  0  0  0  0  0  0
  138.0040   79.5430  222.0340 C   0  0  0  0  0  0  0  0  0  0  0  0
  141.4380   77.1280  220.4340 N   0  0  0  0  0  0  0  0  0  0  0  0
  141.3110   78.5440  220.1650 C   0  0  0  0  0  0  0  0  0  0  0  0
  141.6630   79.4090  221.3130 C   0  0  0  0  0  0  0  0  0  0  0  0
  142.2440   78.9680  222.4760 C   0  0  0  0  0  0  0  0  0  0  0  0
  142.5520   79.8190  223.5380 C   0  0  0  0  0  0  0  0  0  0  0  0
  142.2810   81.1660  223.4610 C   0  0  0  0  0  0  0  0  0  0  0  0
  142.5620   82.0250  224.4590 F   0  0  0  0  0  0  0  0  0  0  0  0
  141.7010   81.6270  222.3060 C   0  0  0  0  0  0  0  0  0  0  0  0
  141.3960   80.7840  221.2560 C   0  0  0  0  0  0  0  0  0  0  0  0
  144.7174   75.0579  219.3601 H   0  0  0  0  0  0  0  0  0  0  0  0
  145.0505   72.6441  219.8164 H   0  0  0  0  0  0  0  0  0  0  0  0
  143.2928   71.3621  221.0079 H   0  0  0  0  0  0  0  0  0  0  0  0
  141.1885   72.4984  221.7453 H   0  0  0  0  0  0  0  0  0  0  0  0
  138.4176   76.9902  220.8182 H   0  0  0  0  0  0  0  0  0  0  0  0
  139.3076   76.7847  223.5819 H   0  0  0  0  0  0  0  0  0  0  0  0
  139.8209   79.0658  224.8012 H   0  0  0  0  0  0  0  0  0  0  0  0
  139.0371   81.5775  224.9556 H   0  0  0  0  0  0  0  0  0  0  0  0
  137.5942   79.1245  221.1029 H   0  0  0  0  0  0  0  0  0  0  0  0
  141.9744   78.7973  219.3249 H   0  0  0  0  0  0  0  0  0  0  0  0
  140.2508   78.7311  219.9390 H   0  0  0  0  0  0  0  0  0  0  0  0
  142.4768   77.8975  222.5749 H   0  0  0  0  0  0  0  0  0  0  0  0
  143.0165   79.4087  224.4468 H   0  0  0  0  0  0  0  0  0  0  0  0
  141.4725   82.6991  222.2140 H   0  0  0  0  0  0  0  0  0  0  0  0
  140.9313   81.2023  220.3510 H   0  0  0  0  0  0  0  0  0  0  0  0
  1  2  2  0
  2  3  1  0
  3  4  2  0
  4  5  1  0
  5  6  2  0
  6  7  1  0
  7  8  2  0
  8  9  1  0
  9 10  2  0
 10 11  1  0
 11 12  2  0
 12 13  1  0
 13 14  1  0
 14 15  2  0
 15 16  1  0
 16 17  1  0
 10 18  1  0
 18 19  1  0
 19 20  1  0
 20 21  2  0
 21 22  1  0
 22 23  2  0
 23 24  1  0
 23 25  1  0
 25 26  2  0
 18  2  1  0
 26 20  1  0
  8  3  1  0
 17 13  2  0
  4 27  1  0
  5 28  1  0
  6 29  1  0
  7 30  1  0
 11 31  1  0
 12 32  1  0
 14 33  1  0
 15 34  1  0
 17 35  1  0
 19 36  1  0
 19 37  1  0
 21 38  1  0
 22 39  1  0
 25 40  1  0
 26 41  1  0
M  END
>  <smiles>  (16) 
O=c1c2ccccc2nc(/C=C/c2ccsc2)n1Cc1ccc(F)cc1

>  <score_type>  (16) 
oracle

>  <origin>  (16) 
autodockgpu

>  <m_score__min__energy>  (16) 
-6.4900000000000002

>  <m_primary>  (16) 
energy

>  <meeko>  (16) 
{"free_energy": -6.39, "intermolecular_energy": -7.88, "internal_energy": -1.86, "cluster_size": 20, "cluster_id": 1, "rank_in_cluster": 14}

>  <energy>  (16) 
-6.38

>  <cluster_rmsd>  (16) 
0.32

>  <rmsd>  (16) 
271.02

>  <cluster>  (16) 
1

$$$$

     RDKit          3D

 41 44  0  0  0  0  0  0  0  0999 V2000
  143.5910   77.0250  219.3780 O   0  0  0  0  0  0  0  0  0  0  0  0
  142.6440   76.4560  220.0060 C   0  0  0  0  0  0  0  0  0  0  0  0
  142.8070   75.1180  220.2560 C   0  0  0  0  0  0  0  0  0  0  0  0
  143.9270   74.4210  219.8560 C   0  0  0  0  0  0  0  0  0  0  0  0
  144.0690   73.0690  220.1200 C   0  0  0  0  0  0  0  0  0  0  0  0
  143.0680   72.4020  220.7980 C   0  0  0  0  0  0  0  0  0  0  0  0
  141.9240   73.0780  221.2160 C   0  0  0  0  0  0  0  0  0  0  0  0
  141.8210   74.4240  220.9320 C   0  0  0  0  0  0  0  0  0  0  0  0
  140.7450   75.1360  221.3060 N   0  0  0  0  0  0  0  0  0  0  0  0
  140.6030   76.4600  221.0490 C   0  0  0  0  0  0  0  0  0  0  0  0
  139.3800   77.0840  221.4930 C   0  0  0  0  0  0  0  0  0  0  0  0
  139.2630   77.5340  222.7200 C   0  0  0  0  0  0  0  0  0  0  0  0
  138.8030   78.9240  223.0110 C   0  0  0  0  0  0  0  0  0  0  0  0
  139.2150   79.6080  224.0650 C   0  0  0  0  0  0  0  0  0  0  0  0
  138.7110   80.8990  224.2250 C   0  0  0  0  0  0  0  0  0  0  0  0
  137.5800   81.1670  222.7930 S   0  0  0  0  0  0  0  0  0  0  0  0
  137.9060   79.5310  222.1430 C   0  0  0  0  0  0  0  0  0  0  0  0
  141.5390   77.1570  220.3980 N   0  0  0  0  0  0  0  0  0  0  0  0
  141.4650   78.5740  220.1170 C   0  0  0  0  0  0  0  0  0  0  0  0
  141.7540   79.4350  221.2840 C   0  0  0  0  0  0  0  0  0  0  0  0
  142.3120   78.9990  222.4600 C   0  0  0  0  0  0  0  0  0  0  0  0
  142.5610   79.8460  223.5400 C   0  0  0  0  0  0  0  0  0  0  0  0
  142.2490   81.1850  223.4700 C   0  0  0  0  0  0  0  0  0  0  0  0
  142.4720   82.0410  224.4860 F   0  0  0  0  0  0  0  0  0  0  0  0
  141.6900   81.6410  222.3020 C   0  0  0  0  0  0  0  0  0  0  0  0
  141.4450   80.8020  221.2340 C   0  0  0  0  0  0  0  0  0  0  0  0
  144.7254   74.9503  219.3153 H   0  0  0  0  0  0  0  0  0  0  0  0
  144.9710   72.5313  219.7925 H   0  0  0  0  0  0  0  0  0  0  0  0
  143.1748   71.3279  221.0098 H   0  0  0  0  0  0  0  0  0  0  0  0
  141.1240   72.5525  221.7581 H   0  0  0  0  0  0  0  0  0  0  0  0
  138.5359   77.1836  220.7947 H   0  0  0  0  0  0  0  0  0  0  0  0
  139.5112   76.8673  223.5590 H   0  0  0  0  0  0  0  0  0  0  0  0
  139.9256   79.1770  224.7857 H   0  0  0  0  0  0  0  0  0  0  0  0
  138.9399   81.6077  225.0346 H   0  0  0  0  0  0  0  0  0  0  0  0
  137.4775   79.0911  221.2304 H   0  0  0  0  0  0  0  0  0  0  0  0
  142.1926   78.8081  219.3259 H   0  0  0  0  0  0  0  0  0  0  0  0
  140.4284   78.7847  219.8153 H   0  0  0  0  0  0  0  0  0  0  0  0
  142.5743   77.9349  222.5549 H   0  0  0  0  0  0  0  0  0  0  0  0
  143.0116   79.4396  224.4575 H   0  0  0  0  0  0  0  0  0  0  0  0
  141.4298   82.7062  222.2148 H   0  0  0  0  0  0  0  0  0  0  0  0
  140.9956   81.2164  220.3195 H   0  0  0  0  0  0  0  0  0  0  0  0
  1  2  2  0
  2  3  1  0
  3  4  2  0
  4  5  1  0
  5  6  2  0
  6  7  1  0
  7  8  2  0
  8  9  1  0
  9 10  2  0
 10 11  1  0
 11 12  2  0
 12 13  1  0
 13 14  1  0
 14 15  2  0
 15 16  1  0
 16 17  1  0
 10 18  1  0
 18 19  1  0
 19 20  1  0
 20 21  2  0
 21 22  1  0
 22 23  2  0
 23 24  1  0
 23 25  1  0
 25 26  2  0
 18  2  1  0
 26 20  1  0
  8  3  1  0
 17 13  2  0
  4 27  1  0
  5 28  1  0
  6 29  1  0
  7 30  1  0
 11 31  1  0
 12 32  1  0
 14 33  1  0
 15 34  1  0
 17 35  1  0
 19 36  1  0
 19 37  1  0
 21 38  1  0
 22 39  1  0
 25 40  1  0
 26 41  1  0
M  END
>  <smiles>  (17) 
O=c1c2ccccc2nc(/C=C/c2ccsc2)n1Cc1ccc(F)cc1

>  <score_type>  (17) 
oracle

>  <origin>  (17) 
autodockgpu

>  <m_score__min__energy>  (17) 
-6.4900000000000002

>  <m_primary>  (17) 
energy

>  <meeko>  (17) 
{"free_energy": -6.42, "intermolecular_energy": -7.91, "internal_energy": -1.82, "cluster_size": 20, "cluster_id": 1, "rank_in_cluster": 7}

>  <energy>  (17) 
-6.38

>  <cluster_rmsd>  (17) 
0.32

>  <rmsd>  (17) 
270.99

>  <cluster>  (17) 
1

$$$$

     RDKit          3D

 41 44  0  0  0  0  0  0  0  0999 V2000
  143.5500   77.0590  219.4110 O   0  0  0  0  0  0  0  0  0  0  0  0
  142.5990   76.4840  220.0280 C   0  0  0  0  0  0  0  0  0  0  0  0
  142.7640   75.1450  220.2700 C   0  0  0  0  0  0  0  0  0  0  0  0
  143.8880   74.4530  219.8740 C   0  0  0  0  0  0  0  0  0  0  0  0
  144.0300   73.0990  220.1300 C   0  0  0  0  0  0  0  0  0  0  0  0
  143.0260   72.4250  220.7970 C   0  0  0  0  0  0  0  0  0  0  0  0
  141.8770   73.0970  221.2100 C   0  0  0  0  0  0  0  0  0  0  0  0
  141.7740   74.4440  220.9350 C   0  0  0  0  0  0  0  0  0  0  0  0
  140.6940   75.1510  221.3050 N   0  0  0  0  0  0  0  0  0  0  0  0
  140.5510   76.4770  221.0560 C   0  0  0  0  0  0  0  0  0  0  0  0
  139.3240   77.0960  221.4940 C   0  0  0  0  0  0  0  0  0  0  0  0
  139.1990   77.5440  222.7220 C   0  0  0  0  0  0  0  0  0  0  0  0
  138.7460   78.9370  223.0110 C   0  0  0  0  0  0  0  0  0  0  0  0
  139.1830   79.6290  224.0500 C   0  0  0  0  0  0  0  0  0  0  0  0
  138.6830   80.9220  224.2110 C   0  0  0  0  0  0  0  0  0  0  0  0
  137.5200   81.1790  222.8040 S   0  0  0  0  0  0  0  0  0  0  0  0
  137.8290   79.5360  222.1600 C   0  0  0  0  0  0  0  0  0  0  0  0
  141.4900   77.1800  220.4160 N   0  0  0  0  0  0  0  0  0  0  0  0
  141.4150   78.5990  220.1440 C   0  0  0  0  0  0  0  0  0  0  0  0
  141.7170   79.4530  221.3130 C   0  0  0  0  0  0  0  0  0  0  0  0
  142.2820   79.0090  222.4830 C   0  0  0  0  0  0  0  0  0  0  0  0
  142.5420   79.8490  223.5650 C   0  0  0  0  0  0  0  0  0  0  0  0
  142.2370   81.1900  223.5030 C   0  0  0  0  0  0  0  0  0  0  0  0
  142.4710   82.0400  224.5220 F   0  0  0  0  0  0  0  0  0  0  0  0
  141.6720   81.6550  222.3420 C   0  0  0  0  0  0  0  0  0  0  0  0
  141.4140   80.8210  221.2720 C   0  0  0  0  0  0  0  0  0  0  0  0
  144.6897   74.9873  219.3432 H   0  0  0  0  0  0  0  0  0  0  0  0
  144.9350   72.5651  219.8047 H   0  0  0  0  0  0  0  0  0  0  0  0
  143.1339   71.3500  221.0038 H   0  0  0  0  0  0  0  0  0  0  0  0
  141.0733   72.5665  221.7416 H   0  0  0  0  0  0  0  0  0  0  0  0
  138.4834   77.1939  220.7913 H   0  0  0  0  0  0  0  0  0  0  0  0
  139.4348   76.8738  223.5618 H   0  0  0  0  0  0  0  0  0  0  0  0
  139.9099   79.2033  224.7574 H   0  0  0  0  0  0  0  0  0  0  0  0
  138.9307   81.6371  225.0093 H   0  0  0  0  0  0  0  0  0  0  0  0
  137.3781   79.0882  221.2621 H   0  0  0  0  0  0  0  0  0  0  0  0
  142.1348   78.8368  219.3469 H   0  0  0  0  0  0  0  0  0  0  0  0
  140.3756   78.8127  219.8542 H   0  0  0  0  0  0  0  0  0  0  0  0
  142.5409   77.9435  222.5705 H   0  0  0  0  0  0  0  0  0  0  0  0
  142.9957   79.4358  224.4779 H   0  0  0  0  0  0  0  0  0  0  0  0
  141.4175   82.7221  222.2614 H   0  0  0  0  0  0  0  0  0  0  0  0
  140.9586   81.2414  220.3633 H   0  0  0  0  0  0  0  0  0  0  0  0
  1  2  2  0
  2  3  1  0
  3  4  2  0
  4  5  1  0
  5  6  2  0
  6  7  1  0
  7  8  2  0
  8  9  1  0
  9 10  2  0
 10 11  1  0
 11 12  2  0
 12 13  1  0
 13 14  1  0
 14 15  2  0
 15 16  1  0
 16 17  1  0
 10 18  1  0
 18 19  1  0
 19 20  1  0
 20 21  2  0
 21 22  1  0
 22 23  2  0
 23 24  1  0
 23 25  1  0
 25 26  2  0
 18  2  1  0
 26 20  1  0
  8  3  1  0
 17 13  2  0
  4 27  1  0
  5 28  1  0
  6 29  1  0
  7 30  1  0
 11 31  1  0
 12 32  1  0
 14 33  1  0
 15 34  1  0
 17 35  1  0
 19 36  1  0
 19 37  1  0
 21 38  1  0
 22 39  1  0
 25 40  1  0
 26 41  1  0
M  END
>  <smiles>  (18) 
O=c1c2ccccc2nc(/C=C/c2ccsc2)n1Cc1ccc(F)cc1

>  <score_type>  (18) 
oracle

>  <origin>  (18) 
autodockgpu

>  <m_score__min__energy>  (18) 
-6.4900000000000002

>  <m_primary>  (18) 
energy

>  <meeko>  (18) 
{"free_energy": -6.41, "intermolecular_energy": -7.9, "internal_energy": -1.83, "cluster_size": 20, "cluster_id": 1, "rank_in_cluster": 8}

>  <energy>  (18) 
-6.35

>  <cluster_rmsd>  (18) 
1.96

>  <rmsd>  (18) 
270.92

>  <cluster>  (18) 
1

$$$$

     RDKit          3D

 41 44  0  0  0  0  0  0  0  0999 V2000
  143.5500   77.0420  219.3870 O   0  0  0  0  0  0  0  0  0  0  0  0
  142.6110   76.4570  220.0120 C   0  0  0  0  0  0  0  0  0  0  0  0
  142.7940   75.1200  220.2560 C   0  0  0  0  0  0  0  0  0  0  0  0
  143.9250   74.4410  219.8540 C   0  0  0  0  0  0  0  0  0  0  0  0
  144.0860   73.0900  220.1120 C   0  0  0  0  0  0  0  0  0  0  0  0
  143.0950   72.4060  220.7880 C   0  0  0  0  0  0  0  0  0  0  0  0
  141.9410   73.0640  221.2070 C   0  0  0  0  0  0  0  0  0  0  0  0
  141.8190   74.4090  220.9290 C   0  0  0  0  0  0  0  0  0  0  0  0
  140.7320   75.1030  221.3060 N   0  0  0  0  0  0  0  0  0  0  0  0
  140.5700   76.4260  221.0540 C   0  0  0  0  0  0  0  0  0  0  0  0
  139.3380   77.0300  221.4990 C   0  0  0  0  0  0  0  0  0  0  0  0
  139.2260   77.5060  222.7180 C   0  0  0  0  0  0  0  0  0  0  0  0
  138.8100   78.9150  222.9790 C   0  0  0  0  0  0  0  0  0  0  0  0
  139.1830   79.5820  224.0580 C   0  0  0  0  0  0  0  0  0  0  0  0
  138.7270   80.8950  224.1870 C   0  0  0  0  0  0  0  0  0  0  0  0
  137.7030   81.2100  222.6860 S   0  0  0  0  0  0  0  0  0  0  0  0
  137.9970   79.5590  222.0570 C   0  0  0  0  0  0  0  0  0  0  0  0
  141.4960   77.1390  220.4060 N   0  0  0  0  0  0  0  0  0  0  0  0
  141.4010   78.5560  220.1310 C   0  0  0  0  0  0  0  0  0  0  0  0
  141.7090   79.4180  221.2930 C   0  0  0  0  0  0  0  0  0  0  0  0
  142.2670   78.9770  222.4680 C   0  0  0  0  0  0  0  0  0  0  0  0
  142.5340   79.8250  223.5430 C   0  0  0  0  0  0  0  0  0  0  0  0
  142.2420   81.1680  223.4690 C   0  0  0  0  0  0  0  0  0  0  0  0
  142.4830   82.0240  224.4810 F   0  0  0  0  0  0  0  0  0  0  0  0
  141.6840   81.6280  222.3030 C   0  0  0  0  0  0  0  0  0  0  0  0
  141.4200   80.7880  221.2390 C   0  0  0  0  0  0  0  0  0  0  0  0
  144.7164   74.9843  219.3168 H   0  0  0  0  0  0  0  0  0  0  0  0
  144.9951   72.5664  219.7814 H   0  0  0  0  0  0  0  0  0  0  0  0
  143.2179   71.3331  220.9972 H   0  0  0  0  0  0  0  0  0  0  0  0
  141.1478   72.5248  221.7456 H   0  0  0  0  0  0  0  0  0  0  0  0
  138.4829   77.0926  220.8099 H   0  0  0  0  0  0  0  0  0  0  0  0
  139.4452   76.8470  223.5710 H   0  0  0  0  0  0  0  0  0  0  0  0
  139.8260   79.1213  224.8224 H   0  0  0  0  0  0  0  0  0  0  0  0
  138.9347   81.5943  225.0103 H   0  0  0  0  0  0  0  0  0  0  0  0
  137.6075   79.1363  221.1191 H   0  0  0  0  0  0  0  0  0  0  0  0
  142.1071   78.7994  219.3234 H   0  0  0  0  0  0  0  0  0  0  0  0
  140.3552   78.7565  219.8553 H   0  0  0  0  0  0  0  0  0  0  0  0
  142.5139   77.9095  222.5655 H   0  0  0  0  0  0  0  0  0  0  0  0
  142.9829   79.4158  224.4601 H   0  0  0  0  0  0  0  0  0  0  0  0
  141.4399   82.6968  222.2130 H   0  0  0  0  0  0  0  0  0  0  0  0
  140.9712   81.2053  220.3255 H   0  0  0  0  0  0  0  0  0  0  0  0
  1  2  2  0
  2  3  1  0
  3  4  2  0
  4  5  1  0
  5  6  2  0
  6  7  1  0
  7  8  2  0
  8  9  1  0
  9 10  2  0
 10 11  1  0
 11 12  2  0
 12 13  1  0
 13 14  1  0
 14 15  2  0
 15 16  1  0
 16 17  1  0
 10 18  1  0
 18 19  1  0
 19 20  1  0
 20 21  2  0
 21 22  1  0
 22 23  2  0
 23 24  1  0
 23 25  1  0
 25 26  2  0
 18  2  1  0
 26 20  1  0
  8  3  1  0
 17 13  2  0
  4 27  1  0
  5 28  1  0
  6 29  1  0
  7 30  1  0
 11 31  1  0
 12 32  1  0
 14 33  1  0
 15 34  1  0
 17 35  1  0
 19 36  1  0
 19 37  1  0
 21 38  1  0
 22 39  1  0
 25 40  1  0
 26 41  1  0
M  END
>  <smiles>  (19) 
O=c1c2ccccc2nc(/C=C/c2ccsc2)n1Cc1ccc(F)cc1

>  <score_type>  (19) 
oracle

>  <origin>  (19) 
autodockgpu

>  <m_score__min__energy>  (19) 
-6.4900000000000002

>  <m_primary>  (19) 
energy

>  <meeko>  (19) 
{"free_energy": -6.4, "intermolecular_energy": -7.89, "internal_energy": -1.84, "cluster_size": 20, "cluster_id": 1, "rank_in_cluster": 10}

>  <energy>  (19) 
-6.32

>  <cluster_rmsd>  (19) 
0.36

>  <rmsd>  (19) 
270.96

>  <cluster>  (19) 
1

$$$$

     RDKit          3D

 41 44  0  0  0  0  0  0  0  0999 V2000
  143.4730   77.1030  219.4190 O   0  0  0  0  0  0  0  0  0  0  0  0
  142.5590   76.4750  220.0380 C   0  0  0  0  0  0  0  0  0  0  0  0
  142.7970   75.1460  220.2740 C   0  0  0  0  0  0  0  0  0  0  0  0
  143.9550   74.5170  219.8700 C   0  0  0  0  0  0  0  0  0  0  0  0
  144.1730   73.1730  220.1210 C   0  0  0  0  0  0  0  0  0  0  0  0
  143.2090   72.4430  220.7900 C   0  0  0  0  0  0  0  0  0  0  0  0
  142.0280   73.0500  221.2110 C   0  0  0  0  0  0  0  0  0  0  0  0
  141.8500   74.3900  220.9410 C   0  0  0  0  0  0  0  0  0  0  0  0
  140.7340   75.0360  221.3180 N   0  0  0  0  0  0  0  0  0  0  0  0
  140.5180   76.3530  221.0740 C   0  0  0  0  0  0  0  0  0  0  0  0
  139.2610   76.9020  221.5200 C   0  0  0  0  0  0  0  0  0  0  0  0
  139.1440   77.4230  222.7190 C   0  0  0  0  0  0  0  0  0  0  0  0
  138.7790   78.8560  222.9260 C   0  0  0  0  0  0  0  0  0  0  0  0
  139.1800   79.5510  223.9760 C   0  0  0  0  0  0  0  0  0  0  0  0
  138.7720   80.8830  224.0530 C   0  0  0  0  0  0  0  0  0  0  0  0
  137.7540   81.1750  222.5440 S   0  0  0  0  0  0  0  0  0  0  0  0
  137.9870   79.4910  221.9800 C   0  0  0  0  0  0  0  0  0  0  0  0
  141.4150   77.1080  220.4330 N   0  0  0  0  0  0  0  0  0  0  0  0
  141.2610   78.5220  220.1660 C   0  0  0  0  0  0  0  0  0  0  0  0
  141.6280   79.3930  221.3040 C   0  0  0  0  0  0  0  0  0  0  0  0
  142.2100   78.9560  222.4680 C   0  0  0  0  0  0  0  0  0  0  0  0
  142.5330   79.8130  223.5210 C   0  0  0  0  0  0  0  0  0  0  0  0
  142.2760   81.1620  223.4330 C   0  0  0  0  0  0  0  0  0  0  0  0
  142.5710   82.0280  224.4220 F   0  0  0  0  0  0  0  0  0  0  0  0
  141.6950   81.6190  222.2770 C   0  0  0  0  0  0  0  0  0  0  0  0
  141.3760   80.7700  221.2360 C   0  0  0  0  0  0  0  0  0  0  0  0
  144.7232   75.0958  219.3362 H   0  0  0  0  0  0  0  0  0  0  0  0
  145.1049   72.6907  219.7910 H   0  0  0  0  0  0  0  0  0  0  0  0
  143.3755   71.3745  220.9916 H   0  0  0  0  0  0  0  0  0  0  0  0
  141.2573   72.4749  221.7451 H   0  0  0  0  0  0  0  0  0  0  0  0
  138.3906   76.8839  220.8477 H   0  0  0  0  0  0  0  0  0  0  0  0
  139.3201   76.7849  223.5976 H   0  0  0  0  0  0  0  0  0  0  0  0
  139.8091   79.0983  224.7566 H   0  0  0  0  0  0  0  0  0  0  0  0
  139.0081   81.6067  224.8470 H   0  0  0  0  0  0  0  0  0  0  0  0
  137.5802   79.0456  221.0601 H   0  0  0  0  0  0  0  0  0  0  0  0
  141.9001   78.7839  219.3099 H   0  0  0  0  0  0  0  0  0  0  0  0
  140.1931   78.6934  219.9657 H   0  0  0  0  0  0  0  0  0  0  0  0
  142.4314   77.8839  222.5754 H   0  0  0  0  0  0  0  0  0  0  0  0
  142.9980   79.4058  224.4310 H   0  0  0  0  0  0  0  0  0  0  0  0
  141.4772   82.6925  222.1768 H   0  0  0  0  0  0  0  0  0  0  0  0
  140.9118   81.1853  220.3293 H   0  0  0  0  0  0  0  0  0  0  0  0
  1  2  2  0
  2  3  1  0
  3  4  2  0
  4  5  1  0
  5  6  2  0
  6  7  1  0
  7  8  2  0
  8  9  1  0
  9 10  2  0
 10 11  1  0
 11 12  2  0
 12 13  1  0
 13 14  1  0
 14 15  2  0
 15 16  1  0
 16 17  1  0
 10 18  1  0
 18 19  1  0
 19 20  1  0
 20 21  2  0
 21 22  1  0
 22 23  2  0
 23 24  1  0
 23 25  1  0
 25 26  2  0
 18  2  1  0
 26 20  1  0
  8  3  1  0
 17 13  2  0
  4 27  1  0
  5 28  1  0
  6 29  1  0
  7 30  1  0
 11 31  1  0
 12 32  1  0
 14 33  1  0
 15 34  1  0
 17 35  1  0
 19 36  1  0
 19 37  1  0
 21 38  1  0
 22 39  1  0
 25 40  1  0
 26 41  1  0
M  END
>  <smiles>  (20) 
O=c1c2ccccc2nc(/C=C/c2ccsc2)n1Cc1ccc(F)cc1

>  <score_type>  (20) 
oracle

>  <origin>  (20) 
autodockgpu

>  <m_score__min__energy>  (20) 
-6.4900000000000002

>  <m_primary>  (20) 
energy

>  <meeko>  (20) 
{"free_energy": -6.39, "intermolecular_energy": -7.89, "internal_energy": -1.85, "cluster_size": 20, "cluster_id": 1, "rank_in_cluster": 13}

>  <energy>  (20) 
-6.28

>  <cluster_rmsd>  (20) 
0.42

>  <rmsd>  (20) 
270.88

>  <cluster>  (20) 
1

$$$$
