CYEMMKKIRZZUDR-DEOSSOPVNA-N
     RDKit          3D

 52 56  0  0  0  0  0  0  0  0999 V2000
  137.7030   77.9500  219.7240 O   0  0  0  0  0  0  0  0  0  0  0  0
  137.8070   79.4320  219.9510 S   0  0  0  0  0  0  0  0  0  0  0  0
  136.4440   79.9630  220.2970 O   0  0  0  0  0  0  0  0  0  0  0  0
  138.4300   80.2100  218.4680 C   0  0  0  0  0  0  0  0  0  0  0  0
  139.9300   80.0570  218.3700 C   0  0  0  0  0  0  0  0  0  0  0  0
  140.4290   78.8720  217.7980 C   0  0  0  0  0  0  0  0  0  0  0  0
  141.8000   78.6680  217.6540 C   0  0  0  0  0  0  0  0  0  0  0  0
  142.6970   79.6420  218.0810 C   0  0  0  0  0  0  0  0  0  0  0  0
  142.2290   80.8260  218.6510 C   0  0  0  0  0  0  0  0  0  0  0  0
  140.8460   81.0630  218.7980 C   0  0  0  0  0  0  0  0  0  0  0  0
  140.3780   82.3490  219.4560 C   0  0  0  0  0  0  0  0  0  0  0  0
  141.2950   82.7650  220.4020 F   0  0  0  0  0  0  0  0  0  0  0  0
  140.2300   83.3320  218.4960 F   0  0  0  0  0  0  0  0  0  0  0  0
  139.1610   82.1850  220.0960 F   0  0  0  0  0  0  0  0  0  0  0  0
  138.9000   79.7540  221.2610 N   0  0  0  0  0  0  0  0  0  0  0  0
  138.4110   80.5000  222.3870 C   0  0  0  0  0  0  0  0  0  0  0  0
  139.2350   80.9080  223.3490 C   0  0  0  0  0  0  0  0  0  0  0  0
  140.6760   80.6220  223.2720 C   0  0  0  0  0  0  0  0  0  0  0  0
  141.5550   81.1780  224.2130 C   0  0  0  0  0  0  0  0  0  0  0  0
  142.9270   80.9320  224.1240 C   0  0  0  0  0  0  0  0  0  0  0  0
  143.4290   80.1310  223.0960 C   0  0  0  0  0  0  0  0  0  0  0  0
  142.5610   79.5680  222.1580 C   0  0  0  0  0  0  0  0  0  0  0  0
  141.1790   79.8100  222.2360 C   0  0  0  0  0  0  0  0  0  0  0  0
  140.2390   79.1410  221.2560 C   0  0  1  0  0  0  0  0  0  0  0  0
  140.1270   77.6760  221.5880 C   0  0  0  0  0  0  0  0  0  0  0  0
  139.2000   77.0870  222.4470 C   0  0  0  0  0  0  0  0  0  0  0  0
  139.4220   75.7580  222.5420 N   0  0  0  0  0  0  0  0  0  0  0  0
  140.4850   75.5000  221.7600 C   0  0  0  0  0  0  0  0  0  0  0  0
  141.0960   74.2650  221.5470 C   0  0  0  0  0  0  0  0  0  0  0  0
  142.2130   74.2230  220.6930 C   0  0  0  0  0  0  0  0  0  0  0  0
  142.6910   75.4020  220.0820 C   0  0  0  0  0  0  0  0  0  0  0  0
  142.0560   76.6350  220.3160 C   0  0  0  0  0  0  0  0  0  0  0  0
  140.9470   76.6460  221.1650 C   0  0  0  0  0  0  0  0  0  0  0  0
  137.9617   79.7402  217.5905 H   0  0  0  0  0  0  0  0  0  0  0  0
  138.1871   81.2822  218.5043 H   0  0  0  0  0  0  0  0  0  0  0  0
  139.7269   78.0957  217.4598 H   0  0  0  0  0  0  0  0  0  0  0  0
  142.1730   77.7368  217.2027 H   0  0  0  0  0  0  0  0  0  0  0  0
  143.7789   79.4779  217.9687 H   0  0  0  0  0  0  0  0  0  0  0  0
  142.9484   81.5856  218.9907 H   0  0  0  0  0  0  0  0  0  0  0  0
  137.3391   80.7376  222.4551 H   0  0  0  0  0  0  0  0  0  0  0  0
  138.8350   81.4642  224.2096 H   0  0  0  0  0  0  0  0  0  0  0  0
  141.1626   81.8097  225.0235 H   0  0  0  0  0  0  0  0  0  0  0  0
  143.6128   81.3696  224.8644 H   0  0  0  0  0  0  0  0  0  0  0  0
  144.5105   79.9431  223.0250 H   0  0  0  0  0  0  0  0  0  0  0  0
  142.9610   78.9322  221.3544 H   0  0  0  0  0  0  0  0  0  0  0  0
  140.6586   79.2734  220.2478 H   0  0  0  0  0  0  0  0  0  0  0  0
  138.4002   77.6285  222.9734 H   0  0  0  0  0  0  0  0  0  0  0  0
  138.8810   75.0730  223.1160 H   0  0  0  0  0  0  0  0  0  0  0  0
  140.7168   73.3529  222.0311 H   0  0  0  0  0  0  0  0  0  0  0  0
  142.7174   73.2647  220.5001 H   0  0  0  0  0  0  0  0  0  0  0  0
  143.5667   75.3563  219.4179 H   0  0  0  0  0  0  0  0  0  0  0  0
  142.4208   77.5602  219.8458 H   0  0  0  0  0  0  0  0  0  0  0  0
  1  2  2  0
  2  3  2  0
  2  4  1  0
  4  5  1  0
  5  6  2  0
  6  7  1  0
  7  8  2  0
  8  9  1  0
  9 10  2  0
 10 11  1  0
 11 12  1  0
 11 13  1  0
 11 14  1  0
  2 15  1  0
 15 16  1  0
 16 17  2  0
 17 18  1  0
 18 19  2  0
 19 20  1  0
 20 21  2  0
 21 22  1  0
 22 23  2  0
 23 24  1  0
 24 25  1  0
 25 26  2  0
 26 27  1  0
 27 28  1  0
 28 29  2  0
 29 30  1  0
 30 31  2  0
 31 32  1  0
 32 33  2  0
 10  5  1  0
 24 15  1  0
 33 25  1  0
 23 18  1  0
 33 28  1  0
  4 34  1  0
  4 35  1  0
  6 36  1  0
  7 37  1  0
  8 38  1  0
  9 39  1  0
 16 40  1  0
 17 41  1  0
 19 42  1  0
 20 43  1  0
 21 44  1  0
 22 45  1  0
 24 46  1  6
 26 47  1  0
 27 48  1  0
 29 49  1  0
 30 50  1  0
 31 51  1  0
 32 52  1  0
M  END
>  <UniqueID>  (1) 
1

>  <SMILES>  (1) 
O=S(=O)(Cc1ccccc1C(F)(F)F)N1C=Cc2ccccc2[C@H]1c1c[nH]c2ccccc12

>  <Energy>  (1) 
88.86118278603679

>  <Genealogy>  (1) 
O=S(=O)(Cc1ccccc1C(F)(F)F)N1C=Cc2ccccc2[C@H]1c1c[nH]c2ccccc12 (3D coordinates assigned)
O=S(=O)(Cc1ccccc1C(F)(F)F)N1C=Cc2ccccc2[C@H]1c1c[nH]c2ccccc12 (nonaromatic ring conformer: 88.86118278603679 kcal/mol)

>  <smiles>  (1) 
O=S(=O)(Cc1ccccc1C(F)(F)F)N1C=Cc2ccccc2[C@H]1c1c[nH]c2ccccc12

>  <score_type>  (1) 
oracle

>  <origin>  (1) 
autodockgpu

>  <m_score__min__energy>  (1) 
-8.0899999999999999

>  <m_primary>  (1) 
energy

>  <meeko>  (1) 
{"free_energy": -6.68, "intermolecular_energy": -8.17, "internal_energy": -3.31, "cluster_size": 17, "cluster_id": 2, "rank_in_cluster": 5}

>  <energy>  (1) 
-8.09

>  <cluster_rmsd>  (1) 
0.0

>  <rmsd>  (1) 
269.66

>  <cluster>  (1) 
1

$$$$
CYEMMKKIRZZUDR-DEOSSOPVNA-N
     RDKit          3D

 52 56  0  0  0  0  0  0  0  0999 V2000
  137.7250   77.9630  219.7040 O   0  0  0  0  0  0  0  0  0  0  0  0
  137.8290   79.4460  219.9280 S   0  0  0  0  0  0  0  0  0  0  0  0
  136.4660   79.9790  220.2650 O   0  0  0  0  0  0  0  0  0  0  0  0
  138.4620   80.2180  218.4450 C   0  0  0  0  0  0  0  0  0  0  0  0
  139.9590   80.0410  218.3440 C   0  0  0  0  0  0  0  0  0  0  0  0
  140.4370   78.8470  217.7740 C   0  0  0  0  0  0  0  0  0  0  0  0
  141.8040   78.6210  217.6260 C   0  0  0  0  0  0  0  0  0  0  0  0
  142.7190   79.5820  218.0470 C   0  0  0  0  0  0  0  0  0  0  0  0
  142.2710   80.7740  218.6160 C   0  0  0  0  0  0  0  0  0  0  0  0
  140.8920   81.0340  218.7660 C   0  0  0  0  0  0  0  0  0  0  0  0
  140.4460   82.3290  219.4220 C   0  0  0  0  0  0  0  0  0  0  0  0
  141.3760   82.7360  220.3590 F   0  0  0  0  0  0  0  0  0  0  0  0
  140.3060   83.3090  218.4580 F   0  0  0  0  0  0  0  0  0  0  0  0
  139.2310   82.1850  220.0710 F   0  0  0  0  0  0  0  0  0  0  0  0
  138.9170   79.7690  221.2430 N   0  0  0  0  0  0  0  0  0  0  0  0
  138.4210   80.5170  222.3660 C   0  0  0  0  0  0  0  0  0  0  0  0
  139.2410   80.9270  223.3310 C   0  0  0  0  0  0  0  0  0  0  0  0
  140.6820   80.6420  223.2610 C   0  0  0  0  0  0  0  0  0  0  0  0
  141.5560   81.2000  224.2050 C   0  0  0  0  0  0  0  0  0  0  0  0
  142.9290   80.9540  224.1230 C   0  0  0  0  0  0  0  0  0  0  0  0
  143.4370   80.1520  223.0990 C   0  0  0  0  0  0  0  0  0  0  0  0
  142.5730   79.5880  222.1570 C   0  0  0  0  0  0  0  0  0  0  0  0
  141.1900   79.8290  222.2290 C   0  0  0  0  0  0  0  0  0  0  0  0
  140.2560   79.1580  221.2450 C   0  0  1  0  0  0  0  0  0  0  0  0
  140.1430   77.6930  221.5780 C   0  0  0  0  0  0  0  0  0  0  0  0
  139.2170   77.1060  222.4390 C   0  0  0  0  0  0  0  0  0  0  0  0
  139.4380   75.7760  222.5340 N   0  0  0  0  0  0  0  0  0  0  0  0
  140.4990   75.5170  221.7510 C   0  0  0  0  0  0  0  0  0  0  0  0
  141.1090   74.2820  221.5370 C   0  0  0  0  0  0  0  0  0  0  0  0
  142.2250   74.2380  220.6810 C   0  0  0  0  0  0  0  0  0  0  0  0
  142.7020   75.4160  220.0680 C   0  0  0  0  0  0  0  0  0  0  0  0
  142.0690   76.6500  220.3020 C   0  0  0  0  0  0  0  0  0  0  0  0
  140.9620   76.6630  221.1540 C   0  0  0  0  0  0  0  0  0  0  0  0
  137.9846   79.7580  217.5672 H   0  0  0  0  0  0  0  0  0  0  0  0
  138.2364   81.2939  218.4843 H   0  0  0  0  0  0  0  0  0  0  0  0
  139.7215   78.0810  217.4404 H   0  0  0  0  0  0  0  0  0  0  0  0
  142.1604   77.6826  217.1762 H   0  0  0  0  0  0  0  0  0  0  0  0
  143.7977   79.4009  217.9306 H   0  0  0  0  0  0  0  0  0  0  0  0
  143.0033   81.5225  218.9528 H   0  0  0  0  0  0  0  0  0  0  0  0
  137.3486   80.7539  222.4287 H   0  0  0  0  0  0  0  0  0  0  0  0
  138.8369   81.4843  224.1890 H   0  0  0  0  0  0  0  0  0  0  0  0
  141.1596   81.8332  225.0124 H   0  0  0  0  0  0  0  0  0  0  0  0
  143.6108   81.3928  224.8663 H   0  0  0  0  0  0  0  0  0  0  0  0
  144.5189   79.9640  223.0339 H   0  0  0  0  0  0  0  0  0  0  0  0
  142.9769   78.9524  221.3552 H   0  0  0  0  0  0  0  0  0  0  0  0
  140.6812   79.2897  220.2391 H   0  0  0  0  0  0  0  0  0  0  0  0
  138.4189   77.6488  222.9667 H   0  0  0  0  0  0  0  0  0  0  0  0
  138.8980   75.0920  223.1100 H   0  0  0  0  0  0  0  0  0  0  0  0
  140.7299   73.3704  222.0221 H   0  0  0  0  0  0  0  0  0  0  0  0
  142.7287   73.2792  220.4885 H   0  0  0  0  0  0  0  0  0  0  0  0
  143.5760   75.3689  219.4017 H   0  0  0  0  0  0  0  0  0  0  0  0
  142.4335   77.5742  219.8298 H   0  0  0  0  0  0  0  0  0  0  0  0
  1  2  2  0
  2  3  2  0
  2  4  1  0
  4  5  1  0
  5  6  2  0
  6  7  1  0
  7  8  2  0
  8  9  1  0
  9 10  2  0
 10 11  1  0
 11 12  1  0
 11 13  1  0
 11 14  1  0
  2 15  1  0
 15 16  1  0
 16 17  2  0
 17 18  1  0
 18 19  2  0
 19 20  1  0
 20 21  2  0
 21 22  1  0
 22 23  2  0
 23 24  1  0
 24 25  1  0
 25 26  2  0
 26 27  1  0
 27 28  1  0
 28 29  2  0
 29 30  1  0
 30 31  2  0
 31 32  1  0
 32 33  2  0
 10  5  1  0
 24 15  1  0
 33 25  1  0
 23 18  1  0
 33 28  1  0
  4 34  1  0
  4 35  1  0
  6 36  1  0
  7 37  1  0
  8 38  1  0
  9 39  1  0
 16 40  1  0
 17 41  1  0
 19 42  1  0
 20 43  1  0
 21 44  1  0
 22 45  1  0
 24 46  1  6
 26 47  1  0
 27 48  1  0
 29 49  1  0
 30 50  1  0
 31 51  1  0
 32 52  1  0
M  END
>  <UniqueID>  (2) 
1

>  <SMILES>  (2) 
O=S(=O)(Cc1ccccc1C(F)(F)F)N1C=Cc2ccccc2[C@H]1c1c[nH]c2ccccc12

>  <Energy>  (2) 
88.86118278603679

>  <Genealogy>  (2) 
O=S(=O)(Cc1ccccc1C(F)(F)F)N1C=Cc2ccccc2[C@H]1c1c[nH]c2ccccc12 (3D coordinates assigned)
O=S(=O)(Cc1ccccc1C(F)(F)F)N1C=Cc2ccccc2[C@H]1c1c[nH]c2ccccc12 (nonaromatic ring conformer: 88.86118278603679 kcal/mol)

>  <smiles>  (2) 
O=S(=O)(Cc1ccccc1C(F)(F)F)N1C=Cc2ccccc2[C@H]1c1c[nH]c2ccccc12

>  <score_type>  (2) 
oracle

>  <origin>  (2) 
autodockgpu

>  <m_score__min__energy>  (2) 
-8.0899999999999999

>  <m_primary>  (2) 
energy

>  <meeko>  (2) 
{"free_energy": -6.68, "intermolecular_energy": -8.17, "internal_energy": -3.31, "cluster_size": 17, "cluster_id": 2, "rank_in_cluster": 7}

>  <energy>  (2) 
-8.08

>  <cluster_rmsd>  (2) 
0.05

>  <rmsd>  (2) 
269.64

>  <cluster>  (2) 
1

$$$$
CYEMMKKIRZZUDR-DEOSSOPVNA-N
     RDKit          3D

 52 56  0  0  0  0  0  0  0  0999 V2000
  137.6990   77.9500  219.7380 O   0  0  0  0  0  0  0  0  0  0  0  0
  137.8030   79.4330  219.9660 S   0  0  0  0  0  0  0  0  0  0  0  0
  136.4420   79.9620  220.3180 O   0  0  0  0  0  0  0  0  0  0  0  0
  138.4190   80.2120  218.4800 C   0  0  0  0  0  0  0  0  0  0  0  0
  139.9190   80.0610  218.3760 C   0  0  0  0  0  0  0  0  0  0  0  0
  140.4160   78.8760  217.8030 C   0  0  0  0  0  0  0  0  0  0  0  0
  141.7870   78.6740  217.6520 C   0  0  0  0  0  0  0  0  0  0  0  0
  142.6850   79.6500  218.0740 C   0  0  0  0  0  0  0  0  0  0  0  0
  142.2180   80.8330  218.6450 C   0  0  0  0  0  0  0  0  0  0  0  0
  140.8350   81.0690  218.7980 C   0  0  0  0  0  0  0  0  0  0  0  0
  140.3680   82.3550  219.4570 C   0  0  0  0  0  0  0  0  0  0  0  0
  141.2880   82.7710  220.4000 F   0  0  0  0  0  0  0  0  0  0  0  0
  140.2170   83.3370  218.4960 F   0  0  0  0  0  0  0  0  0  0  0  0
  139.1530   82.1910  220.1000 F   0  0  0  0  0  0  0  0  0  0  0  0
  138.9020   79.7540  221.2710 N   0  0  0  0  0  0  0  0  0  0  0  0
  138.4200   80.5090  222.3950 C   0  0  0  0  0  0  0  0  0  0  0  0
  139.2500   80.9170  223.3520 C   0  0  0  0  0  0  0  0  0  0  0  0
  140.6890   80.6230  223.2720 C   0  0  0  0  0  0  0  0  0  0  0  0
  141.5740   81.1790  224.2080 C   0  0  0  0  0  0  0  0  0  0  0  0
  142.9440   80.9240  224.1160 C   0  0  0  0  0  0  0  0  0  0  0  0
  143.4390   80.1150  223.0910 C   0  0  0  0  0  0  0  0  0  0  0  0
  142.5640   79.5530  222.1580 C   0  0  0  0  0  0  0  0  0  0  0  0
  141.1840   79.8030  222.2390 C   0  0  0  0  0  0  0  0  0  0  0  0
  140.2370   79.1340  221.2650 C   0  0  1  0  0  0  0  0  0  0  0  0
  140.1180   77.6720  221.6040 C   0  0  0  0  0  0  0  0  0  0  0  0
  139.1910   77.0920  222.4700 C   0  0  0  0  0  0  0  0  0  0  0  0
  139.4060   75.7620  222.5700 N   0  0  0  0  0  0  0  0  0  0  0  0
  140.4640   75.4940  221.7850 C   0  0  0  0  0  0  0  0  0  0  0  0
  141.0670   74.2550  221.5760 C   0  0  0  0  0  0  0  0  0  0  0  0
  142.1800   74.2030  220.7180 C   0  0  0  0  0  0  0  0  0  0  0  0
  142.6630   75.3760  220.0990 C   0  0  0  0  0  0  0  0  0  0  0  0
  142.0360   76.6140  220.3290 C   0  0  0  0  0  0  0  0  0  0  0  0
  140.9310   76.6350  221.1830 C   0  0  0  0  0  0  0  0  0  0  0  0
  137.9478   79.7414  217.6045 H   0  0  0  0  0  0  0  0  0  0  0  0
  138.1747   81.2839  218.5171 H   0  0  0  0  0  0  0  0  0  0  0  0
  139.7131   78.0983  217.4696 H   0  0  0  0  0  0  0  0  0  0  0  0
  142.1592   77.7431  217.1993 H   0  0  0  0  0  0  0  0  0  0  0  0
  143.7666   79.4875  217.9566 H   0  0  0  0  0  0  0  0  0  0  0  0
  142.9380   81.5936  218.9812 H   0  0  0  0  0  0  0  0  0  0  0  0
  137.3497   80.7531  222.4653 H   0  0  0  0  0  0  0  0  0  0  0  0
  138.8560   81.4796  224.2112 H   0  0  0  0  0  0  0  0  0  0  0  0
  141.1878   81.8174  225.0163 H   0  0  0  0  0  0  0  0  0  0  0  0
  143.6344   81.3612  224.8523 H   0  0  0  0  0  0  0  0  0  0  0  0
  144.5191   79.9200  223.0181 H   0  0  0  0  0  0  0  0  0  0  0  0
  142.9577   78.9115  221.3559 H   0  0  0  0  0  0  0  0  0  0  0  0
  140.6545   79.2592  220.2550 H   0  0  0  0  0  0  0  0  0  0  0  0
  138.3966   77.6404  222.9974 H   0  0  0  0  0  0  0  0  0  0  0  0
  138.8630   75.0830  223.1500 H   0  0  0  0  0  0  0  0  0  0  0  0
  140.6848   73.3474  222.0662 H   0  0  0  0  0  0  0  0  0  0  0  0
  142.6780   73.2408  220.5278 H   0  0  0  0  0  0  0  0  0  0  0  0
  143.5360   75.3216  219.4320 H   0  0  0  0  0  0  0  0  0  0  0  0
  142.4036   77.5347  219.8523 H   0  0  0  0  0  0  0  0  0  0  0  0
  1  2  2  0
  2  3  2  0
  2  4  1  0
  4  5  1  0
  5  6  2  0
  6  7  1  0
  7  8  2  0
  8  9  1  0
  9 10  2  0
 10 11  1  0
 11 12  1  0
 11 13  1  0
 11 14  1  0
  2 15  1  0
 15 16  1  0
 16 17  2  0
 17 18  1  0
 18 19  2  0
 19 20  1  0
 20 21  2  0
 21 22  1  0
 22 23  2  0
 23 24  1  0
 24 25  1  0
 25 26  2  0
 26 27  1  0
 27 28  1  0
 28 29  2  0
 29 30  1  0
 30 31  2  0
 31 32  1  0
 32 33  2  0
 10  5  1  0
 24 15  1  0
 33 25  1  0
 23 18  1  0
 33 28  1  0
  4 34  1  0
  4 35  1  0
  6 36  1  0
  7 37  1  0
  8 38  1  0
  9 39  1  0
 16 40  1  0
 17 41  1  0
 19 42  1  0
 20 43  1  0
 21 44  1  0
 22 45  1  0
 24 46  1  6
 26 47  1  0
 27 48  1  0
 29 49  1  0
 30 50  1  0
 31 51  1  0
 32 52  1  0
M  END
>  <UniqueID>  (3) 
1

>  <SMILES>  (3) 
O=S(=O)(Cc1ccccc1C(F)(F)F)N1C=Cc2ccccc2[C@H]1c1c[nH]c2ccccc12

>  <Energy>  (3) 
88.86118278603679

>  <Genealogy>  (3) 
O=S(=O)(Cc1ccccc1C(F)(F)F)N1C=Cc2ccccc2[C@H]1c1c[nH]c2ccccc12 (3D coordinates assigned)
O=S(=O)(Cc1ccccc1C(F)(F)F)N1C=Cc2ccccc2[C@H]1c1c[nH]c2ccccc12 (nonaromatic ring conformer: 88.86118278603679 kcal/mol)

>  <smiles>  (3) 
O=S(=O)(Cc1ccccc1C(F)(F)F)N1C=Cc2ccccc2[C@H]1c1c[nH]c2ccccc12

>  <score_type>  (3) 
oracle

>  <origin>  (3) 
autodockgpu

>  <m_score__min__energy>  (3) 
-8.0899999999999999

>  <m_primary>  (3) 
energy

>  <meeko>  (3) 
{"free_energy": -6.68, "intermolecular_energy": -8.17, "internal_energy": -3.31, "cluster_size": 17, "cluster_id": 2, "rank_in_cluster": 12}

>  <energy>  (3) 
-8.08

>  <cluster_rmsd>  (3) 
0.03

>  <rmsd>  (3) 
269.65

>  <cluster>  (3) 
1

$$$$
CYEMMKKIRZZUDR-DEOSSOPVNA-N
     RDKit          3D

 52 56  0  0  0  0  0  0  0  0999 V2000
  140.7700   74.0680  221.9770 O   0  0  0  0  0  0  0  0  0  0  0  0
  140.5310   74.9150  220.7580 S   0  0  0  0  0  0  0  0  0  0  0  0
  139.0810   74.8120  220.3770 O   0  0  0  0  0  0  0  0  0  0  0  0
  141.5760   74.3360  219.4290 C   0  0  0  0  0  0  0  0  0  0  0  0
  142.9220   73.8940  219.9570 C   0  0  0  0  0  0  0  0  0  0  0  0
  143.9170   74.8760  220.1080 C   0  0  0  0  0  0  0  0  0  0  0  0
  145.1760   74.5490  220.6100 C   0  0  0  0  0  0  0  0  0  0  0  0
  145.4630   73.2350  220.9670 C   0  0  0  0  0  0  0  0  0  0  0  0
  144.4930   72.2420  220.8270 C   0  0  0  0  0  0  0  0  0  0  0  0
  143.2070   72.5480  220.3320 C   0  0  0  0  0  0  0  0  0  0  0  0
  142.1910   71.4330  220.1620 C   0  0  0  0  0  0  0  0  0  0  0  0
  141.3010   71.4290  221.2190 F   0  0  0  0  0  0  0  0  0  0  0  0
  141.5000   71.6140  218.9790 F   0  0  0  0  0  0  0  0  0  0  0  0
  142.7970   70.1880  220.1200 F   0  0  0  0  0  0  0  0  0  0  0  0
  140.9200   76.5720  221.1040 N   0  0  0  0  0  0  0  0  0  0  0  0
  141.3180   77.4180  220.0130 C   0  0  0  0  0  0  0  0  0  0  0  0
  141.7730   78.6490  220.2320 C   0  0  0  0  0  0  0  0  0  0  0  0
  141.9000   79.1680  221.6020 C   0  0  0  0  0  0  0  0  0  0  0  0
  142.5140   80.4080  221.8310 C   0  0  0  0  0  0  0  0  0  0  0  0
  142.6610   80.8890  223.1340 C   0  0  0  0  0  0  0  0  0  0  0  0
  142.1990   80.1360  224.2150 C   0  0  0  0  0  0  0  0  0  0  0  0
  141.5820   78.9020  223.9960 C   0  0  0  0  0  0  0  0  0  0  0  0
  141.4280   78.4070  222.6900 C   0  0  0  0  0  0  0  0  0  0  0  0
  140.6980   77.1020  222.4590 C   0  0  1  0  0  0  0  0  0  0  0  0
  139.2230   77.3050  222.6880 C   0  0  0  0  0  0  0  0  0  0  0  0
  138.2600   76.3080  222.8400 C   0  0  0  0  0  0  0  0  0  0  0  0
  137.0330   76.8550  222.9830 N   0  0  0  0  0  0  0  0  0  0  0  0
  137.2070   78.1860  222.9150 C   0  0  0  0  0  0  0  0  0  0  0  0
  136.2240   79.1710  222.9980 C   0  0  0  0  0  0  0  0  0  0  0  0
  136.6270   80.5140  222.8880 C   0  0  0  0  0  0  0  0  0  0  0  0
  137.9870   80.8390  222.6960 C   0  0  0  0  0  0  0  0  0  0  0  0
  138.9590   79.8240  222.6130 C   0  0  0  0  0  0  0  0  0  0  0  0
  138.5290   78.5010  222.7300 C   0  0  0  0  0  0  0  0  0  0  0  0
  141.0874   73.4858  218.9305 H   0  0  0  0  0  0  0  0  0  0  0  0
  141.7302   75.1605  218.7174 H   0  0  0  0  0  0  0  0  0  0  0  0
  143.6991   75.9167  219.8261 H   0  0  0  0  0  0  0  0  0  0  0  0
  145.9424   75.3298  220.7239 H   0  0  0  0  0  0  0  0  0  0  0  0
  146.4576   72.9785  221.3607 H   0  0  0  0  0  0  0  0  0  0  0  0
  144.7339   71.2057  221.1064 H   0  0  0  0  0  0  0  0  0  0  0  0
  141.2455   77.0425  218.9816 H   0  0  0  0  0  0  0  0  0  0  0  0
  142.0568   79.2845  219.3802 H   0  0  0  0  0  0  0  0  0  0  0  0
  142.8809   81.0034  220.9819 H   0  0  0  0  0  0  0  0  0  0  0  0
  143.1416   81.8629  223.3088 H   0  0  0  0  0  0  0  0  0  0  0  0
  142.3210   80.5149  225.2405 H   0  0  0  0  0  0  0  0  0  0  0  0
  141.2148   78.3147  224.8505 H   0  0  0  0  0  0  0  0  0  0  0  0
  141.0979   76.3652  223.1712 H   0  0  0  0  0  0  0  0  0  0  0  0
  138.4698   75.2282  222.8430 H   0  0  0  0  0  0  0  0  0  0  0  0
  136.1310   76.3430  223.1110 H   0  0  0  0  0  0  0  0  0  0  0  0
  135.1665   78.9062  223.1449 H   0  0  0  0  0  0  0  0  0  0  0  0
  135.8773   81.3164  222.9520 H   0  0  0  0  0  0  0  0  0  0  0  0
  138.2897   81.8931  222.6106 H   0  0  0  0  0  0  0  0  0  0  0  0
  140.0214   80.0652  222.4611 H   0  0  0  0  0  0  0  0  0  0  0  0
  1  2  2  0
  2  3  2  0
  2  4  1  0
  4  5  1  0
  5  6  2  0
  6  7  1  0
  7  8  2  0
  8  9  1  0
  9 10  2  0
 10 11  1  0
 11 12  1  0
 11 13  1  0
 11 14  1  0
  2 15  1  0
 15 16  1  0
 16 17  2  0
 17 18  1  0
 18 19  2  0
 19 20  1  0
 20 21  2  0
 21 22  1  0
 22 23  2  0
 23 24  1  0
 24 25  1  0
 25 26  2  0
 26 27  1  0
 27 28  1  0
 28 29  2  0
 29 30  1  0
 30 31  2  0
 31 32  1  0
 32 33  2  0
 10  5  1  0
 24 15  1  0
 33 25  1  0
 23 18  1  0
 33 28  1  0
  4 34  1  0
  4 35  1  0
  6 36  1  0
  7 37  1  0
  8 38  1  0
  9 39  1  0
 16 40  1  0
 17 41  1  0
 19 42  1  0
 20 43  1  0
 21 44  1  0
 22 45  1  0
 24 46  1  1
 26 47  1  0
 27 48  1  0
 29 49  1  0
 30 50  1  0
 31 51  1  0
 32 52  1  0
M  END
>  <UniqueID>  (4) 
1

>  <SMILES>  (4) 
O=S(=O)(Cc1ccccc1C(F)(F)F)N1C=Cc2ccccc2[C@H]1c1c[nH]c2ccccc12

>  <Energy>  (4) 
88.86118278603679

>  <Genealogy>  (4) 
O=S(=O)(Cc1ccccc1C(F)(F)F)N1C=Cc2ccccc2[C@H]1c1c[nH]c2ccccc12 (3D coordinates assigned)
O=S(=O)(Cc1ccccc1C(F)(F)F)N1C=Cc2ccccc2[C@H]1c1c[nH]c2ccccc12 (nonaromatic ring conformer: 88.86118278603679 kcal/mol)

>  <smiles>  (4) 
O=S(=O)(Cc1ccccc1C(F)(F)F)N1C=Cc2ccccc2[C@H]1c1c[nH]c2ccccc12

>  <score_type>  (4) 
oracle

>  <origin>  (4) 
autodockgpu

>  <m_score__min__energy>  (4) 
-8.0899999999999999

>  <m_primary>  (4) 
energy

>  <meeko>  (4) 
{"free_energy": -8.08, "intermolecular_energy": -9.57, "internal_energy": -1.92, "cluster_size": 3, "cluster_id": 1, "rank_in_cluster": 3}

>  <energy>  (4) 
-6.69

>  <cluster_rmsd>  (4) 
0.0

>  <rmsd>  (4) 
269.62

>  <cluster>  (4) 
2

$$$$
CYEMMKKIRZZUDR-DEOSSOPVNA-N
     RDKit          3D

 52 56  0  0  0  0  0  0  0  0999 V2000
  137.7200   77.9610  219.7190 O   0  0  0  0  0  0  0  0  0  0  0  0
  137.8210   79.4440  219.9450 S   0  0  0  0  0  0  0  0  0  0  0  0
  136.4570   79.9730  220.2860 O   0  0  0  0  0  0  0  0  0  0  0  0
  138.4490   80.2200  218.4630 C   0  0  0  0  0  0  0  0  0  0  0  0
  139.9490   80.0620  218.3670 C   0  0  0  0  0  0  0  0  0  0  0  0
  140.4440   78.8750  217.7960 C   0  0  0  0  0  0  0  0  0  0  0  0
  141.8140   78.6660  217.6530 C   0  0  0  0  0  0  0  0  0  0  0  0
  142.7150   79.6370  218.0810 C   0  0  0  0  0  0  0  0  0  0  0  0
  142.2500   80.8220  218.6510 C   0  0  0  0  0  0  0  0  0  0  0  0
  140.8680   81.0640  218.7960 C   0  0  0  0  0  0  0  0  0  0  0  0
  140.4040   82.3520  219.4540 C   0  0  0  0  0  0  0  0  0  0  0  0
  141.3240   82.7670  220.3970 F   0  0  0  0  0  0  0  0  0  0  0  0
  140.2570   83.3340  218.4920 F   0  0  0  0  0  0  0  0  0  0  0  0
  139.1870   82.1920  220.0960 F   0  0  0  0  0  0  0  0  0  0  0  0
  138.9100   79.7670  221.2590 N   0  0  0  0  0  0  0  0  0  0  0  0
  138.4140   80.5100  222.3850 C   0  0  0  0  0  0  0  0  0  0  0  0
  139.2340   80.9190  223.3500 C   0  0  0  0  0  0  0  0  0  0  0  0
  140.6760   80.6390  223.2760 C   0  0  0  0  0  0  0  0  0  0  0  0
  141.5510   81.1980  224.2200 C   0  0  0  0  0  0  0  0  0  0  0  0
  142.9240   80.9570  224.1350 C   0  0  0  0  0  0  0  0  0  0  0  0
  143.4320   80.1600  223.1070 C   0  0  0  0  0  0  0  0  0  0  0  0
  142.5690   79.5960  222.1660 C   0  0  0  0  0  0  0  0  0  0  0  0
  141.1850   79.8310  222.2400 C   0  0  0  0  0  0  0  0  0  0  0  0
  140.2510   79.1600  221.2560 C   0  0  1  0  0  0  0  0  0  0  0  0
  140.1440   77.6940  221.5860 C   0  0  0  0  0  0  0  0  0  0  0  0
  139.2180   77.1000  222.4420 C   0  0  0  0  0  0  0  0  0  0  0  0
  139.4450   75.7710  222.5340 N   0  0  0  0  0  0  0  0  0  0  0  0
  140.5100   75.5190  221.7540 C   0  0  0  0  0  0  0  0  0  0  0  0
  141.1270   74.2880  221.5400 C   0  0  0  0  0  0  0  0  0  0  0  0
  142.2450   74.2510  220.6880 C   0  0  0  0  0  0  0  0  0  0  0  0
  142.7200   75.4330  220.0790 C   0  0  0  0  0  0  0  0  0  0  0  0
  142.0790   76.6640  220.3140 C   0  0  0  0  0  0  0  0  0  0  0  0
  140.9690   76.6680  221.1620 C   0  0  0  0  0  0  0  0  0  0  0  0
  137.9804   79.7518  217.5848 H   0  0  0  0  0  0  0  0  0  0  0  0
  138.2097   81.2931  218.4991 H   0  0  0  0  0  0  0  0  0  0  0  0
  139.7393   78.1011  217.4577 H   0  0  0  0  0  0  0  0  0  0  0  0
  142.1838   77.7335  217.2018 H   0  0  0  0  0  0  0  0  0  0  0  0
  143.7964   79.4693  217.9694 H   0  0  0  0  0  0  0  0  0  0  0  0
  142.9715   81.5788  218.9924 H   0  0  0  0  0  0  0  0  0  0  0  0
  137.3411   80.7439  222.4500 H   0  0  0  0  0  0  0  0  0  0  0  0
  138.8296   81.4715  224.2109 H   0  0  0  0  0  0  0  0  0  0  0  0
  141.1541   81.8281  225.0296 H   0  0  0  0  0  0  0  0  0  0  0  0
  143.6059   81.3954  224.8785 H   0  0  0  0  0  0  0  0  0  0  0  0
  144.5144   79.9763  223.0387 H   0  0  0  0  0  0  0  0  0  0  0  0
  142.9742   78.9641  221.3620 H   0  0  0  0  0  0  0  0  0  0  0  0
  140.6728   79.2957  220.2492 H   0  0  0  0  0  0  0  0  0  0  0  0
  138.4155   77.6374  222.9685 H   0  0  0  0  0  0  0  0  0  0  0  0
  138.9060   75.0830  223.1060 H   0  0  0  0  0  0  0  0  0  0  0  0
  140.7512   73.3737  222.0225 H   0  0  0  0  0  0  0  0  0  0  0  0
  142.7530   73.2947  220.4946 H   0  0  0  0  0  0  0  0  0  0  0  0
  143.5970   75.3916  219.4163 H   0  0  0  0  0  0  0  0  0  0  0  0
  142.4400   77.5915  219.8456 H   0  0  0  0  0  0  0  0  0  0  0  0
  1  2  2  0
  2  3  2  0
  2  4  1  0
  4  5  1  0
  5  6  2  0
  6  7  1  0
  7  8  2  0
  8  9  1  0
  9 10  2  0
 10 11  1  0
 11 12  1  0
 11 13  1  0
 11 14  1  0
  2 15  1  0
 15 16  1  0
 16 17  2  0
 17 18  1  0
 18 19  2  0
 19 20  1  0
 20 21  2  0
 21 22  1  0
 22 23  2  0
 23 24  1  0
 24 25  1  0
 25 26  2  0
 26 27  1  0
 27 28  1  0
 28 29  2  0
 29 30  1  0
 30 31  2  0
 31 32  1  0
 32 33  2  0
 10  5  1  0
 24 15  1  0
 33 25  1  0
 23 18  1  0
 33 28  1  0
  4 34  1  0
  4 35  1  0
  6 36  1  0
  7 37  1  0
  8 38  1  0
  9 39  1  0
 16 40  1  0
 17 41  1  0
 19 42  1  0
 20 43  1  0
 21 44  1  0
 22 45  1  0
 24 46  1  6
 26 47  1  0
 27 48  1  0
 29 49  1  0
 30 50  1  0
 31 51  1  0
 32 52  1  0
M  END
>  <UniqueID>  (5) 
1

>  <SMILES>  (5) 
O=S(=O)(Cc1ccccc1C(F)(F)F)N1C=Cc2ccccc2[C@H]1c1c[nH]c2ccccc12

>  <Energy>  (5) 
88.86118278603679

>  <Genealogy>  (5) 
O=S(=O)(Cc1ccccc1C(F)(F)F)N1C=Cc2ccccc2[C@H]1c1c[nH]c2ccccc12 (3D coordinates assigned)
O=S(=O)(Cc1ccccc1C(F)(F)F)N1C=Cc2ccccc2[C@H]1c1c[nH]c2ccccc12 (nonaromatic ring conformer: 88.86118278603679 kcal/mol)

>  <smiles>  (5) 
O=S(=O)(Cc1ccccc1C(F)(F)F)N1C=Cc2ccccc2[C@H]1c1c[nH]c2ccccc12

>  <score_type>  (5) 
oracle

>  <origin>  (5) 
autodockgpu

>  <m_score__min__energy>  (5) 
-8.0899999999999999

>  <m_primary>  (5) 
energy

>  <meeko>  (5) 
{"free_energy": -6.68, "intermolecular_energy": -8.17, "internal_energy": -3.3, "cluster_size": 17, "cluster_id": 2, "rank_in_cluster": 9}

>  <energy>  (5) 
-6.69

>  <cluster_rmsd>  (5) 
0.06

>  <rmsd>  (5) 
269.62

>  <cluster>  (5) 
2

$$$$
CYEMMKKIRZZUDR-DEOSSOPVNA-N
     RDKit          3D

 52 56  0  0  0  0  0  0  0  0999 V2000
  137.7530   77.9460  219.6840 O   0  0  0  0  0  0  0  0  0  0  0  0
  137.8320   79.4280  219.9260 S   0  0  0  0  0  0  0  0  0  0  0  0
  136.4600   79.9330  220.2710 O   0  0  0  0  0  0  0  0  0  0  0  0
  138.4480   80.2300  218.4520 C   0  0  0  0  0  0  0  0  0  0  0  0
  139.9480   80.0770  218.3450 C   0  0  0  0  0  0  0  0  0  0  0  0
  140.4440   78.8990  217.7580 C   0  0  0  0  0  0  0  0  0  0  0  0
  141.8140   78.6970  217.6050 C   0  0  0  0  0  0  0  0  0  0  0  0
  142.7140   79.6670  218.0360 C   0  0  0  0  0  0  0  0  0  0  0  0
  142.2480   80.8440  218.6210 C   0  0  0  0  0  0  0  0  0  0  0  0
  140.8660   81.0790  218.7780 C   0  0  0  0  0  0  0  0  0  0  0  0
  140.4010   82.3590  219.4520 C   0  0  0  0  0  0  0  0  0  0  0  0
  141.3140   82.7540  220.4100 F   0  0  0  0  0  0  0  0  0  0  0  0
  140.2680   83.3570  218.5050 F   0  0  0  0  0  0  0  0  0  0  0  0
  139.1780   82.1940  220.0800 F   0  0  0  0  0  0  0  0  0  0  0  0
  138.9150   79.7550  221.2430 N   0  0  0  0  0  0  0  0  0  0  0  0
  138.4140   80.4980  222.3660 C   0  0  0  0  0  0  0  0  0  0  0  0
  139.2300   80.9100  223.3340 C   0  0  0  0  0  0  0  0  0  0  0  0
  140.6730   80.6320  223.2660 C   0  0  0  0  0  0  0  0  0  0  0  0
  141.5430   81.1930  224.2130 C   0  0  0  0  0  0  0  0  0  0  0  0
  142.9160   80.9540  224.1330 C   0  0  0  0  0  0  0  0  0  0  0  0
  143.4300   80.1560  223.1080 C   0  0  0  0  0  0  0  0  0  0  0  0
  142.5710   79.5900  222.1640 C   0  0  0  0  0  0  0  0  0  0  0  0
  141.1870   79.8230  222.2330 C   0  0  0  0  0  0  0  0  0  0  0  0
  140.2570   79.1500  221.2460 C   0  0  1  0  0  0  0  0  0  0  0  0
  140.1510   77.6840  221.5770 C   0  0  0  0  0  0  0  0  0  0  0  0
  139.2270   77.0910  222.4370 C   0  0  0  0  0  0  0  0  0  0  0  0
  139.4550   75.7620  222.5300 N   0  0  0  0  0  0  0  0  0  0  0  0
  140.5170   75.5090  221.7460 C   0  0  0  0  0  0  0  0  0  0  0  0
  141.1330   74.2770  221.5310 C   0  0  0  0  0  0  0  0  0  0  0  0
  142.2490   74.2400  220.6760 C   0  0  0  0  0  0  0  0  0  0  0  0
  142.7220   75.4220  220.0650 C   0  0  0  0  0  0  0  0  0  0  0  0
  142.0820   76.6520  220.3010 C   0  0  0  0  0  0  0  0  0  0  0  0
  140.9750   76.6580  221.1520 C   0  0  0  0  0  0  0  0  0  0  0  0
  137.9751   79.7748  217.5693 H   0  0  0  0  0  0  0  0  0  0  0  0
  138.2057   81.3016  218.5061 H   0  0  0  0  0  0  0  0  0  0  0  0
  139.7403   78.1263  217.4149 H   0  0  0  0  0  0  0  0  0  0  0  0
  142.1846   77.7700  217.1431 H   0  0  0  0  0  0  0  0  0  0  0  0
  143.7953   79.5050  217.9150 H   0  0  0  0  0  0  0  0  0  0  0  0
  142.9688   81.6003  218.9651 H   0  0  0  0  0  0  0  0  0  0  0  0
  137.3404   80.7299  222.4269 H   0  0  0  0  0  0  0  0  0  0  0  0
  138.8215   81.4633  224.1924 H   0  0  0  0  0  0  0  0  0  0  0  0
  141.1421   81.8229  225.0207 H   0  0  0  0  0  0  0  0  0  0  0  0
  143.5944   81.3948  224.8783 H   0  0  0  0  0  0  0  0  0  0  0  0
  144.5129   79.9733  223.0446 H   0  0  0  0  0  0  0  0  0  0  0  0
  142.9799   78.9582  221.3618 H   0  0  0  0  0  0  0  0  0  0  0  0
  140.6821   79.2859  220.2406 H   0  0  0  0  0  0  0  0  0  0  0  0
  138.4258   77.6289  222.9650 H   0  0  0  0  0  0  0  0  0  0  0  0
  138.9170   75.0740  223.1040 H   0  0  0  0  0  0  0  0  0  0  0  0
  140.7581   73.3630  222.0147 H   0  0  0  0  0  0  0  0  0  0  0  0
  142.7569   73.2838  220.4818 H   0  0  0  0  0  0  0  0  0  0  0  0
  143.5971   75.3805  219.3998 H   0  0  0  0  0  0  0  0  0  0  0  0
  142.4418   77.5789  219.8305 H   0  0  0  0  0  0  0  0  0  0  0  0
  1  2  2  0
  2  3  2  0
  2  4  1  0
  4  5  1  0
  5  6  2  0
  6  7  1  0
  7  8  2  0
  8  9  1  0
  9 10  2  0
 10 11  1  0
 11 12  1  0
 11 13  1  0
 11 14  1  0
  2 15  1  0
 15 16  1  0
 16 17  2  0
 17 18  1  0
 18 19  2  0
 19 20  1  0
 20 21  2  0
 21 22  1  0
 22 23  2  0
 23 24  1  0
 24 25  1  0
 25 26  2  0
 26 27  1  0
 27 28  1  0
 28 29  2  0
 29 30  1  0
 30 31  2  0
 31 32  1  0
 32 33  2  0
 10  5  1  0
 24 15  1  0
 33 25  1  0
 23 18  1  0
 33 28  1  0
  4 34  1  0
  4 35  1  0
  6 36  1  0
  7 37  1  0
  8 38  1  0
  9 39  1  0
 16 40  1  0
 17 41  1  0
 19 42  1  0
 20 43  1  0
 21 44  1  0
 22 45  1  0
 24 46  1  6
 26 47  1  0
 27 48  1  0
 29 49  1  0
 30 50  1  0
 31 51  1  0
 32 52  1  0
M  END
>  <UniqueID>  (6) 
1

>  <SMILES>  (6) 
O=S(=O)(Cc1ccccc1C(F)(F)F)N1C=Cc2ccccc2[C@H]1c1c[nH]c2ccccc12

>  <Energy>  (6) 
88.86118278603679

>  <Genealogy>  (6) 
O=S(=O)(Cc1ccccc1C(F)(F)F)N1C=Cc2ccccc2[C@H]1c1c[nH]c2ccccc12 (3D coordinates assigned)
O=S(=O)(Cc1ccccc1C(F)(F)F)N1C=Cc2ccccc2[C@H]1c1c[nH]c2ccccc12 (nonaromatic ring conformer: 88.86118278603679 kcal/mol)

>  <smiles>  (6) 
O=S(=O)(Cc1ccccc1C(F)(F)F)N1C=Cc2ccccc2[C@H]1c1c[nH]c2ccccc12

>  <score_type>  (6) 
oracle

>  <origin>  (6) 
autodockgpu

>  <m_score__min__energy>  (6) 
-8.0899999999999999

>  <m_primary>  (6) 
energy

>  <meeko>  (6) 
{"free_energy": -6.67, "intermolecular_energy": -8.17, "internal_energy": -3.31, "cluster_size": 17, "cluster_id": 2, "rank_in_cluster": 14}

>  <energy>  (6) 
-6.69

>  <cluster_rmsd>  (6) 
0.03

>  <rmsd>  (6) 
269.62

>  <cluster>  (6) 
2

$$$$
CYEMMKKIRZZUDR-DEOSSOPVNA-N
     RDKit          3D

 52 56  0  0  0  0  0  0  0  0999 V2000
  137.7140   77.9620  219.7220 O   0  0  0  0  0  0  0  0  0  0  0  0
  137.8260   79.4440  219.9440 S   0  0  0  0  0  0  0  0  0  0  0  0
  136.4650   79.9840  220.2840 O   0  0  0  0  0  0  0  0  0  0  0  0
  138.4590   80.2130  218.4600 C   0  0  0  0  0  0  0  0  0  0  0  0
  139.9570   80.0380  218.3610 C   0  0  0  0  0  0  0  0  0  0  0  0
  140.4370   78.8430  217.7950 C   0  0  0  0  0  0  0  0  0  0  0  0
  141.8050   78.6190  217.6500 C   0  0  0  0  0  0  0  0  0  0  0  0
  142.7170   79.5830  218.0690 C   0  0  0  0  0  0  0  0  0  0  0  0
  142.2660   80.7770  218.6330 C   0  0  0  0  0  0  0  0  0  0  0  0
  140.8870   81.0340  218.7810 C   0  0  0  0  0  0  0  0  0  0  0  0
  140.4380   82.3310  219.4320 C   0  0  0  0  0  0  0  0  0  0  0  0
  141.3630   82.7390  220.3730 F   0  0  0  0  0  0  0  0  0  0  0  0
  140.3020   83.3090  218.4660 F   0  0  0  0  0  0  0  0  0  0  0  0
  139.2200   82.1880  220.0750 F   0  0  0  0  0  0  0  0  0  0  0  0
  138.9170   79.7640  221.2570 N   0  0  0  0  0  0  0  0  0  0  0  0
  138.4240   80.5060  222.3840 C   0  0  0  0  0  0  0  0  0  0  0  0
  139.2460   80.9130  223.3490 C   0  0  0  0  0  0  0  0  0  0  0  0
  140.6870   80.6300  223.2730 C   0  0  0  0  0  0  0  0  0  0  0  0
  141.5640   81.1860  224.2170 C   0  0  0  0  0  0  0  0  0  0  0  0
  142.9370   80.9420  224.1290 C   0  0  0  0  0  0  0  0  0  0  0  0
  143.4420   80.1450  223.1000 C   0  0  0  0  0  0  0  0  0  0  0  0
  142.5760   79.5840  222.1590 C   0  0  0  0  0  0  0  0  0  0  0  0
  141.1930   79.8220  222.2360 C   0  0  0  0  0  0  0  0  0  0  0  0
  140.2570   79.1540  221.2520 C   0  0  1  0  0  0  0  0  0  0  0  0
  140.1470   77.6880  221.5790 C   0  0  0  0  0  0  0  0  0  0  0  0
  139.2190   77.0950  222.4340 C   0  0  0  0  0  0  0  0  0  0  0  0
  139.4440   75.7650  222.5260 N   0  0  0  0  0  0  0  0  0  0  0  0
  140.5100   75.5130  221.7460 C   0  0  0  0  0  0  0  0  0  0  0  0
  141.1240   74.2800  221.5310 C   0  0  0  0  0  0  0  0  0  0  0  0
  142.2440   74.2430  220.6800 C   0  0  0  0  0  0  0  0  0  0  0  0
  142.7210   75.4250  220.0730 C   0  0  0  0  0  0  0  0  0  0  0  0
  142.0820   76.6560  220.3090 C   0  0  0  0  0  0  0  0  0  0  0  0
  140.9710   76.6620  221.1550 C   0  0  0  0  0  0  0  0  0  0  0  0
  137.9832   79.7500  217.5830 H   0  0  0  0  0  0  0  0  0  0  0  0
  138.2316   81.2886  218.4962 H   0  0  0  0  0  0  0  0  0  0  0  0
  139.7231   78.0750  217.4624 H   0  0  0  0  0  0  0  0  0  0  0  0
  142.1640   77.6797  217.2041 H   0  0  0  0  0  0  0  0  0  0  0  0
  143.7962   79.4033  217.9553 H   0  0  0  0  0  0  0  0  0  0  0  0
  142.9964   81.5286  218.9670 H   0  0  0  0  0  0  0  0  0  0  0  0
  137.3515   80.7413  222.4506 H   0  0  0  0  0  0  0  0  0  0  0  0
  138.8437   81.4658  224.2107 H   0  0  0  0  0  0  0  0  0  0  0  0
  141.1695   81.8155  225.0283 H   0  0  0  0  0  0  0  0  0  0  0  0
  143.6210   81.3786  224.8716 H   0  0  0  0  0  0  0  0  0  0  0  0
  144.5239   79.9586  223.0304 H   0  0  0  0  0  0  0  0  0  0  0  0
  142.9784   78.9525  221.3532 H   0  0  0  0  0  0  0  0  0  0  0  0
  140.6787   79.2901  220.2452 H   0  0  0  0  0  0  0  0  0  0  0  0
  138.4167   77.6334  222.9597 H   0  0  0  0  0  0  0  0  0  0  0  0
  138.9030   75.0770  223.0960 H   0  0  0  0  0  0  0  0  0  0  0  0
  140.7452   73.3657  222.0111 H   0  0  0  0  0  0  0  0  0  0  0  0
  142.7514   73.2864  220.4863 H   0  0  0  0  0  0  0  0  0  0  0  0
  143.5984   75.3832  219.4109 H   0  0  0  0  0  0  0  0  0  0  0  0
  142.4456   77.5834  219.8424 H   0  0  0  0  0  0  0  0  0  0  0  0
  1  2  2  0
  2  3  2  0
  2  4  1  0
  4  5  1  0
  5  6  2  0
  6  7  1  0
  7  8  2  0
  8  9  1  0
  9 10  2  0
 10 11  1  0
 11 12  1  0
 11 13  1  0
 11 14  1  0
  2 15  1  0
 15 16  1  0
 16 17  2  0
 17 18  1  0
 18 19  2  0
 19 20  1  0
 20 21  2  0
 21 22  1  0
 22 23  2  0
 23 24  1  0
 24 25  1  0
 25 26  2  0
 26 27  1  0
 27 28  1  0
 28 29  2  0
 29 30  1  0
 30 31  2  0
 31 32  1  0
 32 33  2  0
 10  5  1  0
 24 15  1  0
 33 25  1  0
 23 18  1  0
 33 28  1  0
  4 34  1  0
  4 35  1  0
  6 36  1  0
  7 37  1  0
  8 38  1  0
  9 39  1  0
 16 40  1  0
 17 41  1  0
 19 42  1  0
 20 43  1  0
 21 44  1  0
 22 45  1  0
 24 46  1  6
 26 47  1  0
 27 48  1  0
 29 49  1  0
 30 50  1  0
 31 51  1  0
 32 52  1  0
M  END
>  <UniqueID>  (7) 
1

>  <SMILES>  (7) 
O=S(=O)(Cc1ccccc1C(F)(F)F)N1C=Cc2ccccc2[C@H]1c1c[nH]c2ccccc12

>  <Energy>  (7) 
88.86118278603679

>  <Genealogy>  (7) 
O=S(=O)(Cc1ccccc1C(F)(F)F)N1C=Cc2ccccc2[C@H]1c1c[nH]c2ccccc12 (3D coordinates assigned)
O=S(=O)(Cc1ccccc1C(F)(F)F)N1C=Cc2ccccc2[C@H]1c1c[nH]c2ccccc12 (nonaromatic ring conformer: 88.86118278603679 kcal/mol)

>  <smiles>  (7) 
O=S(=O)(Cc1ccccc1C(F)(F)F)N1C=Cc2ccccc2[C@H]1c1c[nH]c2ccccc12

>  <score_type>  (7) 
oracle

>  <origin>  (7) 
autodockgpu

>  <m_score__min__energy>  (7) 
-8.0899999999999999

>  <m_primary>  (7) 
energy

>  <meeko>  (7) 
{"free_energy": -6.69, "intermolecular_energy": -8.18, "internal_energy": -3.31, "cluster_size": 17, "cluster_id": 2, "rank_in_cluster": 1}

>  <energy>  (7) 
-6.68

>  <cluster_rmsd>  (7) 
0.04

>  <rmsd>  (7) 
269.63

>  <cluster>  (7) 
2

$$$$
CYEMMKKIRZZUDR-DEOSSOPVNA-N
     RDKit          3D

 52 56  0  0  0  0  0  0  0  0999 V2000
  137.7030   77.9490  219.7420 O   0  0  0  0  0  0  0  0  0  0  0  0
  137.8140   79.4330  219.9620 S   0  0  0  0  0  0  0  0  0  0  0  0
  136.4550   79.9720  220.3070 O   0  0  0  0  0  0  0  0  0  0  0  0
  138.4400   80.1990  218.4730 C   0  0  0  0  0  0  0  0  0  0  0  0
  139.9400   80.0440  218.3780 C   0  0  0  0  0  0  0  0  0  0  0  0
  140.4370   78.8540  217.8160 C   0  0  0  0  0  0  0  0  0  0  0  0
  141.8080   78.6470  217.6750 C   0  0  0  0  0  0  0  0  0  0  0  0
  142.7070   79.6240  218.0930 C   0  0  0  0  0  0  0  0  0  0  0  0
  142.2390   80.8130  218.6530 C   0  0  0  0  0  0  0  0  0  0  0  0
  140.8560   81.0530  218.7970 C   0  0  0  0  0  0  0  0  0  0  0  0
  140.3890   82.3450  219.4440 C   0  0  0  0  0  0  0  0  0  0  0  0
  141.3190   82.7820  220.3670 F   0  0  0  0  0  0  0  0  0  0  0  0
  140.2170   83.3120  218.4710 F   0  0  0  0  0  0  0  0  0  0  0  0
  139.1840   82.1820  220.1070 F   0  0  0  0  0  0  0  0  0  0  0  0
  138.9120   79.7550  221.2690 N   0  0  0  0  0  0  0  0  0  0  0  0
  138.4250   80.5030  222.3950 C   0  0  0  0  0  0  0  0  0  0  0  0
  139.2520   80.9120  223.3540 C   0  0  0  0  0  0  0  0  0  0  0  0
  140.6920   80.6260  223.2740 C   0  0  0  0  0  0  0  0  0  0  0  0
  141.5740   81.1830  224.2120 C   0  0  0  0  0  0  0  0  0  0  0  0
  142.9460   80.9360  224.1190 C   0  0  0  0  0  0  0  0  0  0  0  0
  143.4450   80.1340  223.0910 C   0  0  0  0  0  0  0  0  0  0  0  0
  142.5740   79.5710  222.1560 C   0  0  0  0  0  0  0  0  0  0  0  0
  141.1920   79.8120  222.2370 C   0  0  0  0  0  0  0  0  0  0  0  0
  140.2500   79.1420  221.2600 C   0  0  1  0  0  0  0  0  0  0  0  0
  140.1390   77.6780  221.5940 C   0  0  0  0  0  0  0  0  0  0  0  0
  139.2140   77.0900  222.4570 C   0  0  0  0  0  0  0  0  0  0  0  0
  139.4360   75.7610  222.5520 N   0  0  0  0  0  0  0  0  0  0  0  0
  140.4970   75.5020  221.7670 C   0  0  0  0  0  0  0  0  0  0  0  0
  141.1070   74.2670  221.5530 C   0  0  0  0  0  0  0  0  0  0  0  0
  142.2210   74.2240  220.6960 C   0  0  0  0  0  0  0  0  0  0  0  0
  142.6980   75.4020  220.0820 C   0  0  0  0  0  0  0  0  0  0  0  0
  142.0630   76.6360  220.3170 C   0  0  0  0  0  0  0  0  0  0  0  0
  140.9570   76.6480  221.1690 C   0  0  0  0  0  0  0  0  0  0  0  0
  137.9724   79.7226  217.5987 H   0  0  0  0  0  0  0  0  0  0  0  0
  138.1981   81.2717  218.5006 H   0  0  0  0  0  0  0  0  0  0  0  0
  139.7339   78.0762  217.4833 H   0  0  0  0  0  0  0  0  0  0  0  0
  142.1799   77.7109  217.2331 H   0  0  0  0  0  0  0  0  0  0  0  0
  143.7887   79.4583  217.9816 H   0  0  0  0  0  0  0  0  0  0  0  0
  142.9588   81.5747  218.9872 H   0  0  0  0  0  0  0  0  0  0  0  0
  137.3533   80.7409  222.4653 H   0  0  0  0  0  0  0  0  0  0  0  0
  138.8544   81.4695  224.2149 H   0  0  0  0  0  0  0  0  0  0  0  0
  141.1843   81.8159  225.0229 H   0  0  0  0  0  0  0  0  0  0  0  0
  143.6341   81.3741  224.8569 H   0  0  0  0  0  0  0  0  0  0  0  0
  144.5262   79.9453  223.0174 H   0  0  0  0  0  0  0  0  0  0  0  0
  142.9720   78.9352  221.3514 H   0  0  0  0  0  0  0  0  0  0  0  0
  140.6666   79.2728  220.2504 H   0  0  0  0  0  0  0  0  0  0  0  0
  138.4162   77.6323  222.9857 H   0  0  0  0  0  0  0  0  0  0  0  0
  138.8970   75.0760  223.1280 H   0  0  0  0  0  0  0  0  0  0  0  0
  140.7291   73.3554  222.0389 H   0  0  0  0  0  0  0  0  0  0  0  0
  142.7244   73.2652  220.5027 H   0  0  0  0  0  0  0  0  0  0  0  0
  143.5718   75.3554  219.4154 H   0  0  0  0  0  0  0  0  0  0  0  0
  142.4263   77.5607  219.8448 H   0  0  0  0  0  0  0  0  0  0  0  0
  1  2  2  0
  2  3  2  0
  2  4  1  0
  4  5  1  0
  5  6  2  0
  6  7  1  0
  7  8  2  0
  8  9  1  0
  9 10  2  0
 10 11  1  0
 11 12  1  0
 11 13  1  0
 11 14  1  0
  2 15  1  0
 15 16  1  0
 16 17  2  0
 17 18  1  0
 18 19  2  0
 19 20  1  0
 20 21  2  0
 21 22  1  0
 22 23  2  0
 23 24  1  0
 24 25  1  0
 25 26  2  0
 26 27  1  0
 27 28  1  0
 28 29  2  0
 29 30  1  0
 30 31  2  0
 31 32  1  0
 32 33  2  0
 10  5  1  0
 24 15  1  0
 33 25  1  0
 23 18  1  0
 33 28  1  0
  4 34  1  0
  4 35  1  0
  6 36  1  0
  7 37  1  0
  8 38  1  0
  9 39  1  0
 16 40  1  0
 17 41  1  0
 19 42  1  0
 20 43  1  0
 21 44  1  0
 22 45  1  0
 24 46  1  6
 26 47  1  0
 27 48  1  0
 29 49  1  0
 30 50  1  0
 31 51  1  0
 32 52  1  0
M  END
>  <UniqueID>  (8) 
1

>  <SMILES>  (8) 
O=S(=O)(Cc1ccccc1C(F)(F)F)N1C=Cc2ccccc2[C@H]1c1c[nH]c2ccccc12

>  <Energy>  (8) 
88.86118278603679

>  <Genealogy>  (8) 
O=S(=O)(Cc1ccccc1C(F)(F)F)N1C=Cc2ccccc2[C@H]1c1c[nH]c2ccccc12 (3D coordinates assigned)
O=S(=O)(Cc1ccccc1C(F)(F)F)N1C=Cc2ccccc2[C@H]1c1c[nH]c2ccccc12 (nonaromatic ring conformer: 88.86118278603679 kcal/mol)

>  <smiles>  (8) 
O=S(=O)(Cc1ccccc1C(F)(F)F)N1C=Cc2ccccc2[C@H]1c1c[nH]c2ccccc12

>  <score_type>  (8) 
oracle

>  <origin>  (8) 
autodockgpu

>  <m_score__min__energy>  (8) 
-8.0899999999999999

>  <m_primary>  (8) 
energy

>  <meeko>  (8) 
{"free_energy": -6.69, "intermolecular_energy": -8.18, "internal_energy": -3.31, "cluster_size": 17, "cluster_id": 2, "rank_in_cluster": 3}

>  <energy>  (8) 
-6.68

>  <cluster_rmsd>  (8) 
0.04

>  <rmsd>  (8) 
269.61

>  <cluster>  (8) 
2

$$$$
CYEMMKKIRZZUDR-DEOSSOPVNA-N
     RDKit          3D

 52 56  0  0  0  0  0  0  0  0999 V2000
  137.7270   77.9430  219.7040 O   0  0  0  0  0  0  0  0  0  0  0  0
  137.8280   79.4260  219.9310 S   0  0  0  0  0  0  0  0  0  0  0  0
  136.4640   79.9550  220.2730 O   0  0  0  0  0  0  0  0  0  0  0  0
  138.4540   80.2040  218.4490 C   0  0  0  0  0  0  0  0  0  0  0  0
  139.9510   80.0240  218.3380 C   0  0  0  0  0  0  0  0  0  0  0  0
  140.4230   78.8270  217.7700 C   0  0  0  0  0  0  0  0  0  0  0  0
  141.7890   78.5990  217.6140 C   0  0  0  0  0  0  0  0  0  0  0  0
  142.7080   79.5610  218.0260 C   0  0  0  0  0  0  0  0  0  0  0  0
  142.2650   80.7560  218.5920 C   0  0  0  0  0  0  0  0  0  0  0  0
  140.8870   81.0180  218.7500 C   0  0  0  0  0  0  0  0  0  0  0  0
  140.4480   82.3160  219.4030 C   0  0  0  0  0  0  0  0  0  0  0  0
  141.3880   82.7300  220.3270 F   0  0  0  0  0  0  0  0  0  0  0  0
  140.2940   83.2910  218.4350 F   0  0  0  0  0  0  0  0  0  0  0  0
  139.2410   82.1750  220.0670 F   0  0  0  0  0  0  0  0  0  0  0  0
  138.9180   79.7490  221.2440 N   0  0  0  0  0  0  0  0  0  0  0  0
  138.4270   80.5020  222.3650 C   0  0  0  0  0  0  0  0  0  0  0  0
  139.2500   80.9120  223.3280 C   0  0  0  0  0  0  0  0  0  0  0  0
  140.6900   80.6210  223.2570 C   0  0  0  0  0  0  0  0  0  0  0  0
  141.5670   81.1780  224.1990 C   0  0  0  0  0  0  0  0  0  0  0  0
  142.9390   80.9260  224.1150 C   0  0  0  0  0  0  0  0  0  0  0  0
  143.4420   80.1190  223.0930 C   0  0  0  0  0  0  0  0  0  0  0  0
  142.5750   79.5560  222.1540 C   0  0  0  0  0  0  0  0  0  0  0  0
  141.1930   79.8020  222.2260 C   0  0  0  0  0  0  0  0  0  0  0  0
  140.2550   79.1320  221.2460 C   0  0  1  0  0  0  0  0  0  0  0  0
  140.1370   77.6700  221.5840 C   0  0  0  0  0  0  0  0  0  0  0  0
  139.2080   77.0880  222.4450 C   0  0  0  0  0  0  0  0  0  0  0  0
  139.4250   75.7580  222.5450 N   0  0  0  0  0  0  0  0  0  0  0  0
  140.4850   75.4930  221.7640 C   0  0  0  0  0  0  0  0  0  0  0  0
  141.0910   74.2540  221.5550 C   0  0  0  0  0  0  0  0  0  0  0  0
  142.2070   74.2040  220.7000 C   0  0  0  0  0  0  0  0  0  0  0  0
  142.6900   75.3790  220.0830 C   0  0  0  0  0  0  0  0  0  0  0  0
  142.0600   76.6150  220.3130 C   0  0  0  0  0  0  0  0  0  0  0  0
  140.9520   76.6340  221.1630 C   0  0  0  0  0  0  0  0  0  0  0  0
  137.9703   79.7498  217.5717 H   0  0  0  0  0  0  0  0  0  0  0  0
  138.2313   81.2802  218.4954 H   0  0  0  0  0  0  0  0  0  0  0  0
  139.7043   78.0605  217.4445 H   0  0  0  0  0  0  0  0  0  0  0  0
  142.1416   77.6586  217.1652 H   0  0  0  0  0  0  0  0  0  0  0  0
  143.7858   79.3777  217.9047 H   0  0  0  0  0  0  0  0  0  0  0  0
  143.0002   81.5055  218.9202 H   0  0  0  0  0  0  0  0  0  0  0  0
  137.3557   80.7432  222.4285 H   0  0  0  0  0  0  0  0  0  0  0  0
  138.8492   81.4736  224.1847 H   0  0  0  0  0  0  0  0  0  0  0  0
  141.1742   81.8145  225.0056 H   0  0  0  0  0  0  0  0  0  0  0  0
  143.6240   81.3644  224.8557 H   0  0  0  0  0  0  0  0  0  0  0  0
  144.5230   79.9262  223.0272 H   0  0  0  0  0  0  0  0  0  0  0  0
  142.9758   78.9166  221.3537 H   0  0  0  0  0  0  0  0  0  0  0  0
  140.6788   79.2586  220.2388 H   0  0  0  0  0  0  0  0  0  0  0  0
  138.4103   77.6346  222.9694 H   0  0  0  0  0  0  0  0  0  0  0  0
  138.8810   75.0770  223.1220 H   0  0  0  0  0  0  0  0  0  0  0  0
  140.7085   73.3454  222.0430 H   0  0  0  0  0  0  0  0  0  0  0  0
  142.7071   73.2427  220.5106 H   0  0  0  0  0  0  0  0  0  0  0  0
  143.5648   75.3270  219.4181 H   0  0  0  0  0  0  0  0  0  0  0  0
  142.4279   77.5369  219.8389 H   0  0  0  0  0  0  0  0  0  0  0  0
  1  2  2  0
  2  3  2  0
  2  4  1  0
  4  5  1  0
  5  6  2  0
  6  7  1  0
  7  8  2  0
  8  9  1  0
  9 10  2  0
 10 11  1  0
 11 12  1  0
 11 13  1  0
 11 14  1  0
  2 15  1  0
 15 16  1  0
 16 17  2  0
 17 18  1  0
 18 19  2  0
 19 20  1  0
 20 21  2  0
 21 22  1  0
 22 23  2  0
 23 24  1  0
 24 25  1  0
 25 26  2  0
 26 27  1  0
 27 28  1  0
 28 29  2  0
 29 30  1  0
 30 31  2  0
 31 32  1  0
 32 33  2  0
 10  5  1  0
 24 15  1  0
 33 25  1  0
 23 18  1  0
 33 28  1  0
  4 34  1  0
  4 35  1  0
  6 36  1  0
  7 37  1  0
  8 38  1  0
  9 39  1  0
 16 40  1  0
 17 41  1  0
 19 42  1  0
 20 43  1  0
 21 44  1  0
 22 45  1  0
 24 46  1  6
 26 47  1  0
 27 48  1  0
 29 49  1  0
 30 50  1  0
 31 51  1  0
 32 52  1  0
M  END
>  <UniqueID>  (9) 
1

>  <SMILES>  (9) 
O=S(=O)(Cc1ccccc1C(F)(F)F)N1C=Cc2ccccc2[C@H]1c1c[nH]c2ccccc12

>  <Energy>  (9) 
88.86118278603679

>  <Genealogy>  (9) 
O=S(=O)(Cc1ccccc1C(F)(F)F)N1C=Cc2ccccc2[C@H]1c1c[nH]c2ccccc12 (3D coordinates assigned)
O=S(=O)(Cc1ccccc1C(F)(F)F)N1C=Cc2ccccc2[C@H]1c1c[nH]c2ccccc12 (nonaromatic ring conformer: 88.86118278603679 kcal/mol)

>  <smiles>  (9) 
O=S(=O)(Cc1ccccc1C(F)(F)F)N1C=Cc2ccccc2[C@H]1c1c[nH]c2ccccc12

>  <score_type>  (9) 
oracle

>  <origin>  (9) 
autodockgpu

>  <m_score__min__energy>  (9) 
-8.0899999999999999

>  <m_primary>  (9) 
energy

>  <meeko>  (9) 
{"free_energy": -6.67, "intermolecular_energy": -8.16, "internal_energy": -3.32, "cluster_size": 17, "cluster_id": 2, "rank_in_cluster": 15}

>  <energy>  (9) 
-6.68

>  <cluster_rmsd>  (9) 
0.08

>  <rmsd>  (9) 
269.61

>  <cluster>  (9) 
2

$$$$
CYEMMKKIRZZUDR-DEOSSOPVNA-N
     RDKit          3D

 52 56  0  0  0  0  0  0  0  0999 V2000
  140.7680   74.0880  221.9690 O   0  0  0  0  0  0  0  0  0  0  0  0
  140.5310   74.9360  220.7500 S   0  0  0  0  0  0  0  0  0  0  0  0
  139.0820   74.8350  220.3670 O   0  0  0  0  0  0  0  0  0  0  0  0
  141.5780   74.3580  219.4220 C   0  0  0  0  0  0  0  0  0  0  0  0
  142.9260   73.9240  219.9500 C   0  0  0  0  0  0  0  0  0  0  0  0
  143.9190   74.9100  220.0920 C   0  0  0  0  0  0  0  0  0  0  0  0
  145.1790   74.5900  220.5930 C   0  0  0  0  0  0  0  0  0  0  0  0
  145.4710   73.2790  220.9580 C   0  0  0  0  0  0  0  0  0  0  0  0
  144.5040   72.2830  220.8260 C   0  0  0  0  0  0  0  0  0  0  0  0
  143.2160   72.5820  220.3330 C   0  0  0  0  0  0  0  0  0  0  0  0
  142.2040   71.4610  220.1720 C   0  0  0  0  0  0  0  0  0  0  0  0
  142.8480   70.2430  220.0810 F   0  0  0  0  0  0  0  0  0  0  0  0
  141.3500   71.4510  221.2590 F   0  0  0  0  0  0  0  0  0  0  0  0
  141.4410   71.6190  219.0270 F   0  0  0  0  0  0  0  0  0  0  0  0
  140.9220   76.5930  221.0980 N   0  0  0  0  0  0  0  0  0  0  0  0
  141.3180   77.4400  220.0080 C   0  0  0  0  0  0  0  0  0  0  0  0
  141.7740   78.6710  220.2290 C   0  0  0  0  0  0  0  0  0  0  0  0
  141.9030   79.1880  221.6000 C   0  0  0  0  0  0  0  0  0  0  0  0
  142.5170   80.4280  221.8300 C   0  0  0  0  0  0  0  0  0  0  0  0
  142.6670   80.9060  223.1330 C   0  0  0  0  0  0  0  0  0  0  0  0
  142.2070   80.1510  224.2140 C   0  0  0  0  0  0  0  0  0  0  0  0
  141.5890   78.9180  223.9940 C   0  0  0  0  0  0  0  0  0  0  0  0
  141.4330   78.4250  222.6870 C   0  0  0  0  0  0  0  0  0  0  0  0
  140.7010   77.1200  222.4550 C   0  0  1  0  0  0  0  0  0  0  0  0
  139.2270   77.3240  222.6860 C   0  0  0  0  0  0  0  0  0  0  0  0
  138.2640   76.3270  222.8340 C   0  0  0  0  0  0  0  0  0  0  0  0
  137.0370   76.8740  222.9820 N   0  0  0  0  0  0  0  0  0  0  0  0
  137.2120   78.2050  222.9200 C   0  0  0  0  0  0  0  0  0  0  0  0
  136.2300   79.1900  223.0090 C   0  0  0  0  0  0  0  0  0  0  0  0
  136.6340   80.5330  222.9050 C   0  0  0  0  0  0  0  0  0  0  0  0
  137.9940   80.8580  222.7120 C   0  0  0  0  0  0  0  0  0  0  0  0
  138.9650   79.8440  222.6240 C   0  0  0  0  0  0  0  0  0  0  0  0
  138.5340   78.5200  222.7340 C   0  0  0  0  0  0  0  0  0  0  0  0
  141.0931   73.5041  218.9263 H   0  0  0  0  0  0  0  0  0  0  0  0
  141.7279   75.1813  218.7080 H   0  0  0  0  0  0  0  0  0  0  0  0
  143.6977   75.9482  219.8035 H   0  0  0  0  0  0  0  0  0  0  0  0
  145.9434   75.3738  220.7002 H   0  0  0  0  0  0  0  0  0  0  0  0
  146.4670   73.0279  221.3515 H   0  0  0  0  0  0  0  0  0  0  0  0
  144.7488   71.2490  221.1104 H   0  0  0  0  0  0  0  0  0  0  0  0
  141.2435   77.0664  218.9761 H   0  0  0  0  0  0  0  0  0  0  0  0
  142.0571   79.3078  219.3780 H   0  0  0  0  0  0  0  0  0  0  0  0
  142.8813   81.0254  220.9813 H   0  0  0  0  0  0  0  0  0  0  0  0
  143.1485   81.8793  223.3086 H   0  0  0  0  0  0  0  0  0  0  0  0
  142.3315   80.5278  225.2399 H   0  0  0  0  0  0  0  0  0  0  0  0
  141.2224   78.3296  224.8481 H   0  0  0  0  0  0  0  0  0  0  0  0
  141.1000   76.3812  223.1656 H   0  0  0  0  0  0  0  0  0  0  0  0
  138.4733   75.2471  222.8308 H   0  0  0  0  0  0  0  0  0  0  0  0
  136.1350   76.3620  223.1080 H   0  0  0  0  0  0  0  0  0  0  0  0
  135.1725   78.9253  223.1559 H   0  0  0  0  0  0  0  0  0  0  0  0
  135.8851   81.3357  222.9745 H   0  0  0  0  0  0  0  0  0  0  0  0
  138.2969   81.9123  222.6298 H   0  0  0  0  0  0  0  0  0  0  0  0
  140.0276   80.0856  222.4737 H   0  0  0  0  0  0  0  0  0  0  0  0
  1  2  2  0
  2  3  2  0
  2  4  1  0
  4  5  1  0
  5  6  2  0
  6  7  1  0
  7  8  2  0
  8  9  1  0
  9 10  2  0
 10 11  1  0
 11 12  1  0
 11 13  1  0
 11 14  1  0
  2 15  1  0
 15 16  1  0
 16 17  2  0
 17 18  1  0
 18 19  2  0
 19 20  1  0
 20 21  2  0
 21 22  1  0
 22 23  2  0
 23 24  1  0
 24 25  1  0
 25 26  2  0
 26 27  1  0
 27 28  1  0
 28 29  2  0
 29 30  1  0
 30 31  2  0
 31 32  1  0
 32 33  2  0
 10  5  1  0
 24 15  1  0
 33 25  1  0
 23 18  1  0
 33 28  1  0
  4 34  1  0
  4 35  1  0
  6 36  1  0
  7 37  1  0
  8 38  1  0
  9 39  1  0
 16 40  1  0
 17 41  1  0
 19 42  1  0
 20 43  1  0
 21 44  1  0
 22 45  1  0
 24 46  1  1
 26 47  1  0
 27 48  1  0
 29 49  1  0
 30 50  1  0
 31 51  1  0
 32 52  1  0
M  END
>  <UniqueID>  (10) 
1

>  <SMILES>  (10) 
O=S(=O)(Cc1ccccc1C(F)(F)F)N1C=Cc2ccccc2[C@H]1c1c[nH]c2ccccc12

>  <Energy>  (10) 
88.86118278603679

>  <Genealogy>  (10) 
O=S(=O)(Cc1ccccc1C(F)(F)F)N1C=Cc2ccccc2[C@H]1c1c[nH]c2ccccc12 (3D coordinates assigned)
O=S(=O)(Cc1ccccc1C(F)(F)F)N1C=Cc2ccccc2[C@H]1c1c[nH]c2ccccc12 (nonaromatic ring conformer: 88.86118278603679 kcal/mol)

>  <smiles>  (10) 
O=S(=O)(Cc1ccccc1C(F)(F)F)N1C=Cc2ccccc2[C@H]1c1c[nH]c2ccccc12

>  <score_type>  (10) 
oracle

>  <origin>  (10) 
autodockgpu

>  <m_score__min__energy>  (10) 
-8.0899999999999999

>  <m_primary>  (10) 
energy

>  <meeko>  (10) 
{"free_energy": -8.09, "intermolecular_energy": -9.58, "internal_energy": -1.92, "cluster_size": 3, "cluster_id": 1, "rank_in_cluster": 1}

>  <energy>  (10) 
-6.68

>  <cluster_rmsd>  (10) 
0.02

>  <rmsd>  (10) 
269.61

>  <cluster>  (10) 
2

$$$$
CYEMMKKIRZZUDR-DEOSSOPVNA-N
     RDKit          3D

 52 56  0  0  0  0  0  0  0  0999 V2000
  137.6980   77.9330  219.7420 O   0  0  0  0  0  0  0  0  0  0  0  0
  137.8060   79.4180  219.9530 S   0  0  0  0  0  0  0  0  0  0  0  0
  136.4460   79.9570  220.2910 O   0  0  0  0  0  0  0  0  0  0  0  0
  138.4350   80.1770  218.4630 C   0  0  0  0  0  0  0  0  0  0  0  0
  139.9380   80.0420  218.3830 C   0  0  0  0  0  0  0  0  0  0  0  0
  140.4580   78.8550  217.8350 C   0  0  0  0  0  0  0  0  0  0  0  0
  141.8330   78.6670  217.7080 C   0  0  0  0  0  0  0  0  0  0  0  0
  142.7130   79.6590  218.1290 C   0  0  0  0  0  0  0  0  0  0  0  0
  142.2240   80.8450  218.6760 C   0  0  0  0  0  0  0  0  0  0  0  0
  140.8360   81.0660  218.8050 C   0  0  0  0  0  0  0  0  0  0  0  0
  140.3450   82.3560  219.4380 C   0  0  0  0  0  0  0  0  0  0  0  0
  141.2520   82.8040  220.3780 F   0  0  0  0  0  0  0  0  0  0  0  0
  140.1840   83.3190  218.4590 F   0  0  0  0  0  0  0  0  0  0  0  0
  139.1280   82.1840  220.0770 F   0  0  0  0  0  0  0  0  0  0  0  0
  138.8990   79.7500  221.2620 N   0  0  0  0  0  0  0  0  0  0  0  0
  138.4100   80.5080  222.3800 C   0  0  0  0  0  0  0  0  0  0  0  0
  139.2340   80.9230  223.3390 C   0  0  0  0  0  0  0  0  0  0  0  0
  140.6740   80.6340  223.2660 C   0  0  0  0  0  0  0  0  0  0  0  0
  141.5540   81.1970  224.2030 C   0  0  0  0  0  0  0  0  0  0  0  0
  142.9250   80.9470  224.1170 C   0  0  0  0  0  0  0  0  0  0  0  0
  143.4270   80.1360  223.0980 C   0  0  0  0  0  0  0  0  0  0  0  0
  142.5590   79.5660  222.1640 C   0  0  0  0  0  0  0  0  0  0  0  0
  141.1770   79.8110  222.2380 C   0  0  0  0  0  0  0  0  0  0  0  0
  140.2370   79.1350  221.2630 C   0  0  1  0  0  0  0  0  0  0  0  0
  140.1220   77.6730  221.6090 C   0  0  0  0  0  0  0  0  0  0  0  0
  139.2020   77.0960  222.4840 C   0  0  0  0  0  0  0  0  0  0  0  0
  139.4190   75.7660  222.5870 N   0  0  0  0  0  0  0  0  0  0  0  0
  140.4710   75.4970  221.7950 C   0  0  0  0  0  0  0  0  0  0  0  0
  141.0740   74.2580  221.5850 C   0  0  0  0  0  0  0  0  0  0  0  0
  142.1800   74.2030  220.7180 C   0  0  0  0  0  0  0  0  0  0  0  0
  142.6560   75.3740  220.0910 C   0  0  0  0  0  0  0  0  0  0  0  0
  142.0300   76.6130  220.3220 C   0  0  0  0  0  0  0  0  0  0  0  0
  140.9320   76.6360  221.1850 C   0  0  0  0  0  0  0  0  0  0  0  0
  137.9821   79.6854  217.5894 H   0  0  0  0  0  0  0  0  0  0  0  0
  138.1782   81.2465  218.4776 H   0  0  0  0  0  0  0  0  0  0  0  0
  139.7695   78.0643  217.5022 H   0  0  0  0  0  0  0  0  0  0  0  0
  142.2227   77.7340  217.2747 H   0  0  0  0  0  0  0  0  0  0  0  0
  143.7980   79.5073  218.0301 H   0  0  0  0  0  0  0  0  0  0  0  0
  142.9299   81.6190  219.0116 H   0  0  0  0  0  0  0  0  0  0  0  0
  137.3386   80.7489  222.4443 H   0  0  0  0  0  0  0  0  0  0  0  0
  138.8342   81.4875  224.1943 H   0  0  0  0  0  0  0  0  0  0  0  0
  141.1626   81.8370  225.0075 H   0  0  0  0  0  0  0  0  0  0  0  0
  143.6110   81.3902  224.8539 H   0  0  0  0  0  0  0  0  0  0  0  0
  144.5083   79.9454  223.0304 H   0  0  0  0  0  0  0  0  0  0  0  0
  142.9589   78.9223  221.3667 H   0  0  0  0  0  0  0  0  0  0  0  0
  140.6576   79.2576  220.2540 H   0  0  0  0  0  0  0  0  0  0  0  0
  138.4112   77.6458  223.0154 H   0  0  0  0  0  0  0  0  0  0  0  0
  138.8820   75.0890  223.1740 H   0  0  0  0  0  0  0  0  0  0  0  0
  140.6968   73.3519  222.0817 H   0  0  0  0  0  0  0  0  0  0  0  0
  142.6773   73.2405  220.5274 H   0  0  0  0  0  0  0  0  0  0  0  0
  143.5231   75.3180  219.4165 H   0  0  0  0  0  0  0  0  0  0  0  0
  142.3931   77.5323  219.8392 H   0  0  0  0  0  0  0  0  0  0  0  0
  1  2  2  0
  2  3  2  0
  2  4  1  0
  4  5  1  0
  5  6  2  0
  6  7  1  0
  7  8  2  0
  8  9  1  0
  9 10  2  0
 10 11  1  0
 11 12  1  0
 11 13  1  0
 11 14  1  0
  2 15  1  0
 15 16  1  0
 16 17  2  0
 17 18  1  0
 18 19  2  0
 19 20  1  0
 20 21  2  0
 21 22  1  0
 22 23  2  0
 23 24  1  0
 24 25  1  0
 25 26  2  0
 26 27  1  0
 27 28  1  0
 28 29  2  0
 29 30  1  0
 30 31  2  0
 31 32  1  0
 32 33  2  0
 10  5  1  0
 24 15  1  0
 33 25  1  0
 23 18  1  0
 33 28  1  0
  4 34  1  0
  4 35  1  0
  6 36  1  0
  7 37  1  0
  8 38  1  0
  9 39  1  0
 16 40  1  0
 17 41  1  0
 19 42  1  0
 20 43  1  0
 21 44  1  0
 22 45  1  0
 24 46  1  6
 26 47  1  0
 27 48  1  0
 29 49  1  0
 30 50  1  0
 31 51  1  0
 32 52  1  0
M  END
>  <UniqueID>  (11) 
1

>  <SMILES>  (11) 
O=S(=O)(Cc1ccccc1C(F)(F)F)N1C=Cc2ccccc2[C@H]1c1c[nH]c2ccccc12

>  <Energy>  (11) 
88.86118278603679

>  <Genealogy>  (11) 
O=S(=O)(Cc1ccccc1C(F)(F)F)N1C=Cc2ccccc2[C@H]1c1c[nH]c2ccccc12 (3D coordinates assigned)
O=S(=O)(Cc1ccccc1C(F)(F)F)N1C=Cc2ccccc2[C@H]1c1c[nH]c2ccccc12 (nonaromatic ring conformer: 88.86118278603679 kcal/mol)

>  <smiles>  (11) 
O=S(=O)(Cc1ccccc1C(F)(F)F)N1C=Cc2ccccc2[C@H]1c1c[nH]c2ccccc12

>  <score_type>  (11) 
oracle

>  <origin>  (11) 
autodockgpu

>  <m_score__min__energy>  (11) 
-8.0899999999999999

>  <m_primary>  (11) 
energy

>  <meeko>  (11) 
{"free_energy": -6.68, "intermolecular_energy": -8.17, "internal_energy": -3.31, "cluster_size": 17, "cluster_id": 2, "rank_in_cluster": 10}

>  <energy>  (11) 
-6.68

>  <cluster_rmsd>  (11) 
0.04

>  <rmsd>  (11) 
269.6

>  <cluster>  (11) 
2

$$$$
CYEMMKKIRZZUDR-DEOSSOPVNA-N
     RDKit          3D

 52 56  0  0  0  0  0  0  0  0999 V2000
  137.7490   77.9450  219.6740 O   0  0  0  0  0  0  0  0  0  0  0  0
  137.8460   79.4280  219.9020 S   0  0  0  0  0  0  0  0  0  0  0  0
  136.4790   79.9550  220.2330 O   0  0  0  0  0  0  0  0  0  0  0  0
  138.4840   80.2070  218.4260 C   0  0  0  0  0  0  0  0  0  0  0  0
  139.9800   80.0190  218.3220 C   0  0  0  0  0  0  0  0  0  0  0  0
  140.4490   78.8240  217.7470 C   0  0  0  0  0  0  0  0  0  0  0  0
  141.8140   78.5890  217.5970 C   0  0  0  0  0  0  0  0  0  0  0  0
  142.7360   79.5410  218.0210 C   0  0  0  0  0  0  0  0  0  0  0  0
  142.2970   80.7350  218.5940 C   0  0  0  0  0  0  0  0  0  0  0  0
  140.9200   81.0040  218.7470 C   0  0  0  0  0  0  0  0  0  0  0  0
  140.4850   82.3000  219.4080 C   0  0  0  0  0  0  0  0  0  0  0  0
  141.4150   82.6930  220.3500 F   0  0  0  0  0  0  0  0  0  0  0  0
  140.3570   83.2870  218.4490 F   0  0  0  0  0  0  0  0  0  0  0  0
  139.2660   82.1640  220.0520 F   0  0  0  0  0  0  0  0  0  0  0  0
  138.9240   79.7530  221.2240 N   0  0  0  0  0  0  0  0  0  0  0  0
  138.4210   80.5000  222.3440 C   0  0  0  0  0  0  0  0  0  0  0  0
  139.2340   80.9110  223.3140 C   0  0  0  0  0  0  0  0  0  0  0  0
  140.6750   80.6270  223.2540 C   0  0  0  0  0  0  0  0  0  0  0  0
  141.5430   81.1850  224.2040 C   0  0  0  0  0  0  0  0  0  0  0  0
  142.9160   80.9410  224.1310 C   0  0  0  0  0  0  0  0  0  0  0  0
  143.4320   80.1390  223.1100 C   0  0  0  0  0  0  0  0  0  0  0  0
  142.5750   79.5740  222.1630 C   0  0  0  0  0  0  0  0  0  0  0  0
  141.1910   79.8140  222.2250 C   0  0  0  0  0  0  0  0  0  0  0  0
  140.2640   79.1420  221.2350 C   0  0  1  0  0  0  0  0  0  0  0  0
  140.1500   77.6780  221.5680 C   0  0  0  0  0  0  0  0  0  0  0  0
  139.2210   77.0900  222.4260 C   0  0  0  0  0  0  0  0  0  0  0  0
  139.4420   75.7600  222.5210 N   0  0  0  0  0  0  0  0  0  0  0  0
  140.5060   75.5010  221.7410 C   0  0  0  0  0  0  0  0  0  0  0  0
  141.1160   74.2660  221.5290 C   0  0  0  0  0  0  0  0  0  0  0  0
  142.2340   74.2230  220.6770 C   0  0  0  0  0  0  0  0  0  0  0  0
  142.7140   75.4010  220.0660 C   0  0  0  0  0  0  0  0  0  0  0  0
  142.0800   76.6350  220.2980 C   0  0  0  0  0  0  0  0  0  0  0  0
  140.9700   76.6470  221.1460 C   0  0  0  0  0  0  0  0  0  0  0  0
  138.0023   79.7583  217.5447 H   0  0  0  0  0  0  0  0  0  0  0  0
  138.2672   81.2843  218.4748 H   0  0  0  0  0  0  0  0  0  0  0  0
  139.7279   78.0643  217.4110 H   0  0  0  0  0  0  0  0  0  0  0  0
  142.1632   77.6499  217.1429 H   0  0  0  0  0  0  0  0  0  0  0  0
  143.8133   79.3518  217.9042 H   0  0  0  0  0  0  0  0  0  0  0  0
  143.0350   81.4776  218.9315 H   0  0  0  0  0  0  0  0  0  0  0  0
  137.3480   80.7355  222.4002 H   0  0  0  0  0  0  0  0  0  0  0  0
  138.8238   81.4686  224.1689 H   0  0  0  0  0  0  0  0  0  0  0  0
  141.1408   81.8171  225.0094 H   0  0  0  0  0  0  0  0  0  0  0  0
  143.5924   81.3810  224.8786 H   0  0  0  0  0  0  0  0  0  0  0  0
  144.5145   79.9523  223.0519 H   0  0  0  0  0  0  0  0  0  0  0  0
  142.9848   78.9380  221.3645 H   0  0  0  0  0  0  0  0  0  0  0  0
  140.6954   79.2732  220.2317 H   0  0  0  0  0  0  0  0  0  0  0  0
  138.4211   77.6323  222.9514 H   0  0  0  0  0  0  0  0  0  0  0  0
  138.9000   75.0760  223.0950 H   0  0  0  0  0  0  0  0  0  0  0  0
  140.7353   73.3543  222.0125 H   0  0  0  0  0  0  0  0  0  0  0  0
  142.7380   73.2642  220.4855 H   0  0  0  0  0  0  0  0  0  0  0  0
  143.5907   75.3539  219.4032 H   0  0  0  0  0  0  0  0  0  0  0  0
  142.4460   77.5595  219.8275 H   0  0  0  0  0  0  0  0  0  0  0  0
  1  2  2  0
  2  3  2  0
  2  4  1  0
  4  5  1  0
  5  6  2  0
  6  7  1  0
  7  8  2  0
  8  9  1  0
  9 10  2  0
 10 11  1  0
 11 12  1  0
 11 13  1  0
 11 14  1  0
  2 15  1  0
 15 16  1  0
 16 17  2  0
 17 18  1  0
 18 19  2  0
 19 20  1  0
 20 21  2  0
 21 22  1  0
 22 23  2  0
 23 24  1  0
 24 25  1  0
 25 26  2  0
 26 27  1  0
 27 28  1  0
 28 29  2  0
 29 30  1  0
 30 31  2  0
 31 32  1  0
 32 33  2  0
 10  5  1  0
 24 15  1  0
 33 25  1  0
 23 18  1  0
 33 28  1  0
  4 34  1  0
  4 35  1  0
  6 36  1  0
  7 37  1  0
  8 38  1  0
  9 39  1  0
 16 40  1  0
 17 41  1  0
 19 42  1  0
 20 43  1  0
 21 44  1  0
 22 45  1  0
 24 46  1  6
 26 47  1  0
 27 48  1  0
 29 49  1  0
 30 50  1  0
 31 51  1  0
 32 52  1  0
M  END
>  <UniqueID>  (12) 
1

>  <SMILES>  (12) 
O=S(=O)(Cc1ccccc1C(F)(F)F)N1C=Cc2ccccc2[C@H]1c1c[nH]c2ccccc12

>  <Energy>  (12) 
88.86118278603679

>  <Genealogy>  (12) 
O=S(=O)(Cc1ccccc1C(F)(F)F)N1C=Cc2ccccc2[C@H]1c1c[nH]c2ccccc12 (3D coordinates assigned)
O=S(=O)(Cc1ccccc1C(F)(F)F)N1C=Cc2ccccc2[C@H]1c1c[nH]c2ccccc12 (nonaromatic ring conformer: 88.86118278603679 kcal/mol)

>  <smiles>  (12) 
O=S(=O)(Cc1ccccc1C(F)(F)F)N1C=Cc2ccccc2[C@H]1c1c[nH]c2ccccc12

>  <score_type>  (12) 
oracle

>  <origin>  (12) 
autodockgpu

>  <m_score__min__energy>  (12) 
-8.0899999999999999

>  <m_primary>  (12) 
energy

>  <meeko>  (12) 
{"free_energy": -6.68, "intermolecular_energy": -8.17, "internal_energy": -3.32, "cluster_size": 17, "cluster_id": 2, "rank_in_cluster": 8}

>  <energy>  (12) 
-6.68

>  <cluster_rmsd>  (12) 
0.03

>  <rmsd>  (12) 
269.62

>  <cluster>  (12) 
2

$$$$
CYEMMKKIRZZUDR-DEOSSOPVNA-N
     RDKit          3D

 52 56  0  0  0  0  0  0  0  0999 V2000
  140.7880   74.0740  221.9730 O   0  0  0  0  0  0  0  0  0  0  0  0
  140.5430   74.9230  220.7560 S   0  0  0  0  0  0  0  0  0  0  0  0
  139.0910   74.8210  220.3830 O   0  0  0  0  0  0  0  0  0  0  0  0
  141.5810   74.3470  219.4200 C   0  0  0  0  0  0  0  0  0  0  0  0
  142.9330   73.9130  219.9390 C   0  0  0  0  0  0  0  0  0  0  0  0
  143.9150   74.9050  220.1110 C   0  0  0  0  0  0  0  0  0  0  0  0
  145.1770   74.5850  220.6050 C   0  0  0  0  0  0  0  0  0  0  0  0
  145.4830   73.2680  220.9350 C   0  0  0  0  0  0  0  0  0  0  0  0
  144.5270   72.2650  220.7750 C   0  0  0  0  0  0  0  0  0  0  0  0
  143.2370   72.5630  220.2870 C   0  0  0  0  0  0  0  0  0  0  0  0
  142.2360   71.4380  220.0940 C   0  0  0  0  0  0  0  0  0  0  0  0
  141.5500   71.6050  218.9070 F   0  0  0  0  0  0  0  0  0  0  0  0
  142.9020   70.2270  220.0730 F   0  0  0  0  0  0  0  0  0  0  0  0
  141.3030   71.3990  221.1160 F   0  0  0  0  0  0  0  0  0  0  0  0
  140.9340   76.5790  221.1030 N   0  0  0  0  0  0  0  0  0  0  0  0
  141.3410   77.4230  220.0130 C   0  0  0  0  0  0  0  0  0  0  0  0
  141.7980   78.6540  220.2340 C   0  0  0  0  0  0  0  0  0  0  0  0
  141.9170   79.1740  221.6040 C   0  0  0  0  0  0  0  0  0  0  0  0
  142.5320   80.4130  221.8360 C   0  0  0  0  0  0  0  0  0  0  0  0
  142.6720   80.8950  223.1400 C   0  0  0  0  0  0  0  0  0  0  0  0
  142.2010   80.1440  224.2180 C   0  0  0  0  0  0  0  0  0  0  0  0
  141.5820   78.9120  223.9970 C   0  0  0  0  0  0  0  0  0  0  0  0
  141.4360   78.4150  222.6900 C   0  0  0  0  0  0  0  0  0  0  0  0
  140.7040   77.1110  222.4560 C   0  0  1  0  0  0  0  0  0  0  0  0
  139.2280   77.3190  222.6740 C   0  0  0  0  0  0  0  0  0  0  0  0
  138.2610   76.3240  222.8180 C   0  0  0  0  0  0  0  0  0  0  0  0
  137.0340   76.8740  222.9540 N   0  0  0  0  0  0  0  0  0  0  0  0
  137.2130   78.2050  222.8880 C   0  0  0  0  0  0  0  0  0  0  0  0
  136.2320   79.1930  222.9660 C   0  0  0  0  0  0  0  0  0  0  0  0
  136.6400   80.5350  222.8600 C   0  0  0  0  0  0  0  0  0  0  0  0
  138.0020   80.8560  222.6770 C   0  0  0  0  0  0  0  0  0  0  0  0
  138.9710   79.8390  222.6010 C   0  0  0  0  0  0  0  0  0  0  0  0
  138.5370   78.5160  222.7130 C   0  0  0  0  0  0  0  0  0  0  0  0
  141.0932   73.4934  218.9266 H   0  0  0  0  0  0  0  0  0  0  0  0
  141.7256   75.1709  218.7056 H   0  0  0  0  0  0  0  0  0  0  0  0
  143.6828   75.9485  219.8516 H   0  0  0  0  0  0  0  0  0  0  0  0
  145.9327   75.3738  220.7345 H   0  0  0  0  0  0  0  0  0  0  0  0
  146.4813   73.0174  221.3230 H   0  0  0  0  0  0  0  0  0  0  0  0
  144.7824   71.2266  221.0330 H   0  0  0  0  0  0  0  0  0  0  0  0
  141.2740   77.0466  218.9816 H   0  0  0  0  0  0  0  0  0  0  0  0
  142.0893   79.2879  219.3835 H   0  0  0  0  0  0  0  0  0  0  0  0
  142.9052   81.0071  220.9888 H   0  0  0  0  0  0  0  0  0  0  0  0
  143.1541   81.8677  223.3172 H   0  0  0  0  0  0  0  0  0  0  0  0
  142.3177   80.5234  225.2439 H   0  0  0  0  0  0  0  0  0  0  0  0
  141.2067   78.3274  224.8498 H   0  0  0  0  0  0  0  0  0  0  0  0
  141.0966   76.3739  223.1720 H   0  0  0  0  0  0  0  0  0  0  0  0
  138.4680   75.2437  222.8205 H   0  0  0  0  0  0  0  0  0  0  0  0
  136.1300   76.3650  223.0750 H   0  0  0  0  0  0  0  0  0  0  0  0
  135.1728   78.9312  223.1060 H   0  0  0  0  0  0  0  0  0  0  0  0
  135.8924   81.3397  222.9202 H   0  0  0  0  0  0  0  0  0  0  0  0
  138.3082   81.9092  222.5932 H   0  0  0  0  0  0  0  0  0  0  0  0
  140.0352   80.0777  222.4581 H   0  0  0  0  0  0  0  0  0  0  0  0
  1  2  2  0
  2  3  2  0
  2  4  1  0
  4  5  1  0
  5  6  2  0
  6  7  1  0
  7  8  2  0
  8  9  1  0
  9 10  2  0
 10 11  1  0
 11 12  1  0
 11 13  1  0
 11 14  1  0
  2 15  1  0
 15 16  1  0
 16 17  2  0
 17 18  1  0
 18 19  2  0
 19 20  1  0
 20 21  2  0
 21 22  1  0
 22 23  2  0
 23 24  1  0
 24 25  1  0
 25 26  2  0
 26 27  1  0
 27 28  1  0
 28 29  2  0
 29 30  1  0
 30 31  2  0
 31 32  1  0
 32 33  2  0
 10  5  1  0
 24 15  1  0
 33 25  1  0
 23 18  1  0
 33 28  1  0
  4 34  1  0
  4 35  1  0
  6 36  1  0
  7 37  1  0
  8 38  1  0
  9 39  1  0
 16 40  1  0
 17 41  1  0
 19 42  1  0
 20 43  1  0
 21 44  1  0
 22 45  1  0
 24 46  1  1
 26 47  1  0
 27 48  1  0
 29 49  1  0
 30 50  1  0
 31 51  1  0
 32 52  1  0
M  END
>  <UniqueID>  (13) 
1

>  <SMILES>  (13) 
O=S(=O)(Cc1ccccc1C(F)(F)F)N1C=Cc2ccccc2[C@H]1c1c[nH]c2ccccc12

>  <Energy>  (13) 
88.86118278603679

>  <Genealogy>  (13) 
O=S(=O)(Cc1ccccc1C(F)(F)F)N1C=Cc2ccccc2[C@H]1c1c[nH]c2ccccc12 (3D coordinates assigned)
O=S(=O)(Cc1ccccc1C(F)(F)F)N1C=Cc2ccccc2[C@H]1c1c[nH]c2ccccc12 (nonaromatic ring conformer: 88.86118278603679 kcal/mol)

>  <smiles>  (13) 
O=S(=O)(Cc1ccccc1C(F)(F)F)N1C=Cc2ccccc2[C@H]1c1c[nH]c2ccccc12

>  <score_type>  (13) 
oracle

>  <origin>  (13) 
autodockgpu

>  <m_score__min__energy>  (13) 
-8.0899999999999999

>  <m_primary>  (13) 
energy

>  <meeko>  (13) 
{"free_energy": -8.08, "intermolecular_energy": -9.57, "internal_energy": -1.92, "cluster_size": 3, "cluster_id": 1, "rank_in_cluster": 2}

>  <energy>  (13) 
-6.68

>  <cluster_rmsd>  (13) 
0.06

>  <rmsd>  (13) 
269.62

>  <cluster>  (13) 
2

$$$$
CYEMMKKIRZZUDR-DEOSSOPVNA-N
     RDKit          3D

 52 56  0  0  0  0  0  0  0  0999 V2000
  137.6870   77.9360  219.7390 O   0  0  0  0  0  0  0  0  0  0  0  0
  137.7890   79.4190  219.9630 S   0  0  0  0  0  0  0  0  0  0  0  0
  136.4270   79.9490  220.3110 O   0  0  0  0  0  0  0  0  0  0  0  0
  138.4090   80.1950  218.4770 C   0  0  0  0  0  0  0  0  0  0  0  0
  139.9120   80.0700  218.3920 C   0  0  0  0  0  0  0  0  0  0  0  0
  140.4380   78.8930  217.8300 C   0  0  0  0  0  0  0  0  0  0  0  0
  141.8140   78.7150  217.6980 C   0  0  0  0  0  0  0  0  0  0  0  0
  142.6890   79.7090  218.1270 C   0  0  0  0  0  0  0  0  0  0  0  0
  142.1930   80.8850  218.6870 C   0  0  0  0  0  0  0  0  0  0  0  0
  140.8040   81.0960  218.8220 C   0  0  0  0  0  0  0  0  0  0  0  0
  140.3070   82.3760  219.4700 C   0  0  0  0  0  0  0  0  0  0  0  0
  141.1980   82.8030  220.4360 F   0  0  0  0  0  0  0  0  0  0  0  0
  140.1680   83.3580  218.5070 F   0  0  0  0  0  0  0  0  0  0  0  0
  139.0780   82.1970  220.0830 F   0  0  0  0  0  0  0  0  0  0  0  0
  138.8850   79.7450  221.2710 N   0  0  0  0  0  0  0  0  0  0  0  0
  138.3970   80.4950  222.3950 C   0  0  0  0  0  0  0  0  0  0  0  0
  139.2230   80.9050  223.3550 C   0  0  0  0  0  0  0  0  0  0  0  0
  140.6640   80.6200  223.2760 C   0  0  0  0  0  0  0  0  0  0  0  0
  141.5450   81.1790  224.2130 C   0  0  0  0  0  0  0  0  0  0  0  0
  142.9170   80.9330  224.1220 C   0  0  0  0  0  0  0  0  0  0  0  0
  143.4170   80.1300  223.0960 C   0  0  0  0  0  0  0  0  0  0  0  0
  142.5470   79.5650  222.1610 C   0  0  0  0  0  0  0  0  0  0  0  0
  141.1650   79.8050  222.2410 C   0  0  0  0  0  0  0  0  0  0  0  0
  140.2240   79.1330  221.2640 C   0  0  1  0  0  0  0  0  0  0  0  0
  140.1140   77.6690  221.6010 C   0  0  0  0  0  0  0  0  0  0  0  0
  139.1890   77.0820  222.4640 C   0  0  0  0  0  0  0  0  0  0  0  0
  139.4120   75.7530  222.5610 N   0  0  0  0  0  0  0  0  0  0  0  0
  140.4730   75.4940  221.7770 C   0  0  0  0  0  0  0  0  0  0  0  0
  141.0840   74.2590  221.5660 C   0  0  0  0  0  0  0  0  0  0  0  0
  142.1980   74.2150  220.7090 C   0  0  0  0  0  0  0  0  0  0  0  0
  142.6740   75.3920  220.0930 C   0  0  0  0  0  0  0  0  0  0  0  0
  142.0390   76.6260  220.3250 C   0  0  0  0  0  0  0  0  0  0  0  0
  140.9330   76.6390  221.1780 C   0  0  0  0  0  0  0  0  0  0  0  0
  137.9567   79.7080  217.6005 H   0  0  0  0  0  0  0  0  0  0  0  0
  138.1454   81.2627  218.5012 H   0  0  0  0  0  0  0  0  0  0  0  0
  139.7538   78.1017  217.4898 H   0  0  0  0  0  0  0  0  0  0  0  0
  142.2086   77.7888  217.2547 H   0  0  0  0  0  0  0  0  0  0  0  0
  143.7748   79.5660  218.0238 H   0  0  0  0  0  0  0  0  0  0  0  0
  142.8945   81.6602  219.0288 H   0  0  0  0  0  0  0  0  0  0  0  0
  137.3254   80.7339  222.4633 H   0  0  0  0  0  0  0  0  0  0  0  0
  138.8243   81.4622  224.2155 H   0  0  0  0  0  0  0  0  0  0  0  0
  141.1543   81.8133  225.0223 H   0  0  0  0  0  0  0  0  0  0  0  0
  143.6041   81.3727  224.8599 H   0  0  0  0  0  0  0  0  0  0  0  0
  144.4984   79.9417  223.0236 H   0  0  0  0  0  0  0  0  0  0  0  0
  142.9460   78.9285  221.3574 H   0  0  0  0  0  0  0  0  0  0  0  0
  140.6410   79.2628  220.2544 H   0  0  0  0  0  0  0  0  0  0  0  0
  138.3905   77.6245  222.9913 H   0  0  0  0  0  0  0  0  0  0  0  0
  138.8730   75.0690  223.1390 H   0  0  0  0  0  0  0  0  0  0  0  0
  140.7069   73.3482  222.0541 H   0  0  0  0  0  0  0  0  0  0  0  0
  142.7020   73.2562  220.5174 H   0  0  0  0  0  0  0  0  0  0  0  0
  143.5479   75.3444  219.4266 H   0  0  0  0  0  0  0  0  0  0  0  0
  142.4015   77.5498  219.8504 H   0  0  0  0  0  0  0  0  0  0  0  0
  1  2  2  0
  2  3  2  0
  2  4  1  0
  4  5  1  0
  5  6  2  0
  6  7  1  0
  7  8  2  0
  8  9  1  0
  9 10  2  0
 10 11  1  0
 11 12  1  0
 11 13  1  0
 11 14  1  0
  2 15  1  0
 15 16  1  0
 16 17  2  0
 17 18  1  0
 18 19  2  0
 19 20  1  0
 20 21  2  0
 21 22  1  0
 22 23  2  0
 23 24  1  0
 24 25  1  0
 25 26  2  0
 26 27  1  0
 27 28  1  0
 28 29  2  0
 29 30  1  0
 30 31  2  0
 31 32  1  0
 32 33  2  0
 10  5  1  0
 24 15  1  0
 33 25  1  0
 23 18  1  0
 33 28  1  0
  4 34  1  0
  4 35  1  0
  6 36  1  0
  7 37  1  0
  8 38  1  0
  9 39  1  0
 16 40  1  0
 17 41  1  0
 19 42  1  0
 20 43  1  0
 21 44  1  0
 22 45  1  0
 24 46  1  6
 26 47  1  0
 27 48  1  0
 29 49  1  0
 30 50  1  0
 31 51  1  0
 32 52  1  0
M  END
>  <UniqueID>  (14) 
1

>  <SMILES>  (14) 
O=S(=O)(Cc1ccccc1C(F)(F)F)N1C=Cc2ccccc2[C@H]1c1c[nH]c2ccccc12

>  <Energy>  (14) 
88.86118278603679

>  <Genealogy>  (14) 
O=S(=O)(Cc1ccccc1C(F)(F)F)N1C=Cc2ccccc2[C@H]1c1c[nH]c2ccccc12 (3D coordinates assigned)
O=S(=O)(Cc1ccccc1C(F)(F)F)N1C=Cc2ccccc2[C@H]1c1c[nH]c2ccccc12 (nonaromatic ring conformer: 88.86118278603679 kcal/mol)

>  <smiles>  (14) 
O=S(=O)(Cc1ccccc1C(F)(F)F)N1C=Cc2ccccc2[C@H]1c1c[nH]c2ccccc12

>  <score_type>  (14) 
oracle

>  <origin>  (14) 
autodockgpu

>  <m_score__min__energy>  (14) 
-8.0899999999999999

>  <m_primary>  (14) 
energy

>  <meeko>  (14) 
{"free_energy": -6.68, "intermolecular_energy": -8.17, "internal_energy": -3.31, "cluster_size": 17, "cluster_id": 2, "rank_in_cluster": 6}

>  <energy>  (14) 
-6.68

>  <cluster_rmsd>  (14) 
0.05

>  <rmsd>  (14) 
269.62

>  <cluster>  (14) 
2

$$$$
CYEMMKKIRZZUDR-DEOSSOPVNA-N
     RDKit          3D

 52 56  0  0  0  0  0  0  0  0999 V2000
  137.6730   77.9570  219.7630 O   0  0  0  0  0  0  0  0  0  0  0  0
  137.7960   79.4400  219.9740 S   0  0  0  0  0  0  0  0  0  0  0  0
  136.4420   79.9920  220.3190 O   0  0  0  0  0  0  0  0  0  0  0  0
  138.4240   80.1940  218.4800 C   0  0  0  0  0  0  0  0  0  0  0  0
  139.9260   80.0540  218.3970 C   0  0  0  0  0  0  0  0  0  0  0  0
  140.4400   78.8660  217.8460 C   0  0  0  0  0  0  0  0  0  0  0  0
  141.8140   78.6730  217.7160 C   0  0  0  0  0  0  0  0  0  0  0  0
  142.6990   79.6610  218.1360 C   0  0  0  0  0  0  0  0  0  0  0  0
  142.2150   80.8480  218.6850 C   0  0  0  0  0  0  0  0  0  0  0  0
  140.8280   81.0750  218.8170 C   0  0  0  0  0  0  0  0  0  0  0  0
  140.3430   82.3660  219.4520 C   0  0  0  0  0  0  0  0  0  0  0  0
  141.2510   82.8070  220.3950 F   0  0  0  0  0  0  0  0  0  0  0  0
  140.1890   83.3310  218.4760 F   0  0  0  0  0  0  0  0  0  0  0  0
  139.1250   82.1990  220.0890 F   0  0  0  0  0  0  0  0  0  0  0  0
  138.8990   79.7620  221.2760 N   0  0  0  0  0  0  0  0  0  0  0  0
  138.4180   80.5130  222.4030 C   0  0  0  0  0  0  0  0  0  0  0  0
  139.2500   80.9210  223.3590 C   0  0  0  0  0  0  0  0  0  0  0  0
  140.6890   80.6310  223.2740 C   0  0  0  0  0  0  0  0  0  0  0  0
  141.5760   81.1880  224.2080 C   0  0  0  0  0  0  0  0  0  0  0  0
  142.9470   80.9370  224.1110 C   0  0  0  0  0  0  0  0  0  0  0  0
  143.4400   80.1320  223.0820 C   0  0  0  0  0  0  0  0  0  0  0  0
  142.5640   79.5700  222.1510 C   0  0  0  0  0  0  0  0  0  0  0  0
  141.1830   79.8150  222.2370 C   0  0  0  0  0  0  0  0  0  0  0  0
  140.2360   79.1460  221.2640 C   0  0  1  0  0  0  0  0  0  0  0  0
  140.1220   77.6830  221.6010 C   0  0  0  0  0  0  0  0  0  0  0  0
  139.2000   77.0990  222.4680 C   0  0  0  0  0  0  0  0  0  0  0  0
  139.4190   75.7680  222.5650 N   0  0  0  0  0  0  0  0  0  0  0  0
  140.4750   75.5060  221.7750 C   0  0  0  0  0  0  0  0  0  0  0  0
  141.0800   74.2690  221.5600 C   0  0  0  0  0  0  0  0  0  0  0  0
  142.1900   74.2220  220.6970 C   0  0  0  0  0  0  0  0  0  0  0  0
  142.6670   75.3980  220.0790 C   0  0  0  0  0  0  0  0  0  0  0  0
  142.0370   76.6330  220.3150 C   0  0  0  0  0  0  0  0  0  0  0  0
  140.9360   76.6490  221.1730 C   0  0  0  0  0  0  0  0  0  0  0  0
  137.9675   79.7018  217.6086 H   0  0  0  0  0  0  0  0  0  0  0  0
  138.1705   81.2643  218.4926 H   0  0  0  0  0  0  0  0  0  0  0  0
  139.7478   78.0786  217.5132 H   0  0  0  0  0  0  0  0  0  0  0  0
  142.1991   77.7389  217.2811 H   0  0  0  0  0  0  0  0  0  0  0  0
  143.7832   79.5054  218.0347 H   0  0  0  0  0  0  0  0  0  0  0  0
  142.9245   81.6189  219.0202 H   0  0  0  0  0  0  0  0  0  0  0  0
  137.3473   80.7541  222.4768 H   0  0  0  0  0  0  0  0  0  0  0  0
  138.8571   81.4804  224.2208 H   0  0  0  0  0  0  0  0  0  0  0  0
  141.1908   81.8240  225.0187 H   0  0  0  0  0  0  0  0  0  0  0  0
  143.6389   81.3740  224.8461 H   0  0  0  0  0  0  0  0  0  0  0  0
  144.5204   79.9402  223.0046 H   0  0  0  0  0  0  0  0  0  0  0  0
  142.9572   78.9320  221.3458 H   0  0  0  0  0  0  0  0  0  0  0  0
  140.6500   79.2746  220.2530 H   0  0  0  0  0  0  0  0  0  0  0  0
  138.4057   77.6442  222.9988 H   0  0  0  0  0  0  0  0  0  0  0  0
  138.8810   75.0860  223.1450 H   0  0  0  0  0  0  0  0  0  0  0  0
  140.7019   73.3592  222.0491 H   0  0  0  0  0  0  0  0  0  0  0  0
  142.6899   73.2617  220.5024 H   0  0  0  0  0  0  0  0  0  0  0  0
  143.5374   75.3481  219.4082 H   0  0  0  0  0  0  0  0  0  0  0  0
  142.3999   77.5560  219.8392 H   0  0  0  0  0  0  0  0  0  0  0  0
  1  2  2  0
  2  3  2  0
  2  4  1  0
  4  5  1  0
  5  6  2  0
  6  7  1  0
  7  8  2  0
  8  9  1  0
  9 10  2  0
 10 11  1  0
 11 12  1  0
 11 13  1  0
 11 14  1  0
  2 15  1  0
 15 16  1  0
 16 17  2  0
 17 18  1  0
 18 19  2  0
 19 20  1  0
 20 21  2  0
 21 22  1  0
 22 23  2  0
 23 24  1  0
 24 25  1  0
 25 26  2  0
 26 27  1  0
 27 28  1  0
 28 29  2  0
 29 30  1  0
 30 31  2  0
 31 32  1  0
 32 33  2  0
 10  5  1  0
 24 15  1  0
 33 25  1  0
 23 18  1  0
 33 28  1  0
  4 34  1  0
  4 35  1  0
  6 36  1  0
  7 37  1  0
  8 38  1  0
  9 39  1  0
 16 40  1  0
 17 41  1  0
 19 42  1  0
 20 43  1  0
 21 44  1  0
 22 45  1  0
 24 46  1  6
 26 47  1  0
 27 48  1  0
 29 49  1  0
 30 50  1  0
 31 51  1  0
 32 52  1  0
M  END
>  <UniqueID>  (15) 
1

>  <SMILES>  (15) 
O=S(=O)(Cc1ccccc1C(F)(F)F)N1C=Cc2ccccc2[C@H]1c1c[nH]c2ccccc12

>  <Energy>  (15) 
88.86118278603679

>  <Genealogy>  (15) 
O=S(=O)(Cc1ccccc1C(F)(F)F)N1C=Cc2ccccc2[C@H]1c1c[nH]c2ccccc12 (3D coordinates assigned)
O=S(=O)(Cc1ccccc1C(F)(F)F)N1C=Cc2ccccc2[C@H]1c1c[nH]c2ccccc12 (nonaromatic ring conformer: 88.86118278603679 kcal/mol)

>  <smiles>  (15) 
O=S(=O)(Cc1ccccc1C(F)(F)F)N1C=Cc2ccccc2[C@H]1c1c[nH]c2ccccc12

>  <score_type>  (15) 
oracle

>  <origin>  (15) 
autodockgpu

>  <m_score__min__energy>  (15) 
-8.0899999999999999

>  <m_primary>  (15) 
energy

>  <meeko>  (15) 
{"free_energy": -6.69, "intermolecular_energy": -8.18, "internal_energy": -3.3, "cluster_size": 17, "cluster_id": 2, "rank_in_cluster": 2}

>  <energy>  (15) 
-6.68

>  <cluster_rmsd>  (15) 
0.06

>  <rmsd>  (15) 
269.61

>  <cluster>  (15) 
2

$$$$
CYEMMKKIRZZUDR-DEOSSOPVNA-N
     RDKit          3D

 52 56  0  0  0  0  0  0  0  0999 V2000
  137.7010   77.9500  219.7140 O   0  0  0  0  0  0  0  0  0  0  0  0
  137.8190   79.4330  219.9290 S   0  0  0  0  0  0  0  0  0  0  0  0
  136.4620   79.9810  220.2660 O   0  0  0  0  0  0  0  0  0  0  0  0
  138.4570   80.1920  218.4420 C   0  0  0  0  0  0  0  0  0  0  0  0
  139.9530   80.0020  218.3400 C   0  0  0  0  0  0  0  0  0  0  0  0
  140.4200   78.8010  217.7770 C   0  0  0  0  0  0  0  0  0  0  0  0
  141.7850   78.5640  217.6290 C   0  0  0  0  0  0  0  0  0  0  0  0
  142.7080   79.5200  218.0430 C   0  0  0  0  0  0  0  0  0  0  0  0
  142.2700   80.7190  218.6050 C   0  0  0  0  0  0  0  0  0  0  0  0
  140.8930   80.9910  218.7550 C   0  0  0  0  0  0  0  0  0  0  0  0
  140.4590   82.2930  219.4030 C   0  0  0  0  0  0  0  0  0  0  0  0
  141.3970   82.7040  220.3290 F   0  0  0  0  0  0  0  0  0  0  0  0
  140.3150   83.2660  218.4320 F   0  0  0  0  0  0  0  0  0  0  0  0
  139.2480   82.1600  220.0630 F   0  0  0  0  0  0  0  0  0  0  0  0
  138.9120   79.7540  221.2410 N   0  0  0  0  0  0  0  0  0  0  0  0
  138.4220   80.5030  222.3650 C   0  0  0  0  0  0  0  0  0  0  0  0
  139.2450   80.9100  223.3280 C   0  0  0  0  0  0  0  0  0  0  0  0
  140.6850   80.6210  223.2540 C   0  0  0  0  0  0  0  0  0  0  0  0
  141.5640   81.1760  224.1960 C   0  0  0  0  0  0  0  0  0  0  0  0
  142.9360   80.9260  224.1090 C   0  0  0  0  0  0  0  0  0  0  0  0
  143.4380   80.1230  223.0840 C   0  0  0  0  0  0  0  0  0  0  0  0
  142.5700   79.5610  222.1450 C   0  0  0  0  0  0  0  0  0  0  0  0
  141.1880   79.8060  222.2200 C   0  0  0  0  0  0  0  0  0  0  0  0
  140.2490   79.1380  221.2390 C   0  0  1  0  0  0  0  0  0  0  0  0
  140.1330   77.6740  221.5730 C   0  0  0  0  0  0  0  0  0  0  0  0
  139.2080   77.0890  222.4380 C   0  0  0  0  0  0  0  0  0  0  0  0
  139.4260   75.7590  222.5320 N   0  0  0  0  0  0  0  0  0  0  0  0
  140.4820   75.4970  221.7440 C   0  0  0  0  0  0  0  0  0  0  0  0
  141.0870   74.2590  221.5280 C   0  0  0  0  0  0  0  0  0  0  0  0
  142.1990   74.2120  220.6670 C   0  0  0  0  0  0  0  0  0  0  0  0
  142.6780   75.3880  220.0520 C   0  0  0  0  0  0  0  0  0  0  0  0
  142.0490   76.6240  220.2890 C   0  0  0  0  0  0  0  0  0  0  0  0
  140.9460   76.6400  221.1450 C   0  0  0  0  0  0  0  0  0  0  0  0
  137.9748   79.7317  217.5670 H   0  0  0  0  0  0  0  0  0  0  0  0
  138.2407   81.2700  218.4764 H   0  0  0  0  0  0  0  0  0  0  0  0
  139.6981   78.0386  217.4491 H   0  0  0  0  0  0  0  0  0  0  0  0
  142.1336   77.6202  217.1844 H   0  0  0  0  0  0  0  0  0  0  0  0
  143.7851   79.3295  217.9267 H   0  0  0  0  0  0  0  0  0  0  0  0
  143.0086   81.4638  218.9363 H   0  0  0  0  0  0  0  0  0  0  0  0
  137.3506   80.7435  222.4303 H   0  0  0  0  0  0  0  0  0  0  0  0
  138.8446   81.4678  224.1874 H   0  0  0  0  0  0  0  0  0  0  0  0
  141.1721   81.8097  225.0053 H   0  0  0  0  0  0  0  0  0  0  0  0
  143.6217   81.3630  224.8499 H   0  0  0  0  0  0  0  0  0  0  0  0
  144.5192   79.9323  223.0154 H   0  0  0  0  0  0  0  0  0  0  0  0
  142.9700   78.9235  221.3428 H   0  0  0  0  0  0  0  0  0  0  0  0
  140.6708   79.2677  220.2314 H   0  0  0  0  0  0  0  0  0  0  0  0
  138.4132   77.6337  222.9687 H   0  0  0  0  0  0  0  0  0  0  0  0
  138.8850   75.0770  223.1100 H   0  0  0  0  0  0  0  0  0  0  0  0
  140.7071   73.3488  222.0150 H   0  0  0  0  0  0  0  0  0  0  0  0
  142.6984   73.2515  220.4720 H   0  0  0  0  0  0  0  0  0  0  0  0
  143.5494   75.3382  219.3825 H   0  0  0  0  0  0  0  0  0  0  0  0
  142.4141   77.5473  219.8155 H   0  0  0  0  0  0  0  0  0  0  0  0
  1  2  2  0
  2  3  2  0
  2  4  1  0
  4  5  1  0
  5  6  2  0
  6  7  1  0
  7  8  2  0
  8  9  1  0
  9 10  2  0
 10 11  1  0
 11 12  1  0
 11 13  1  0
 11 14  1  0
  2 15  1  0
 15 16  1  0
 16 17  2  0
 17 18  1  0
 18 19  2  0
 19 20  1  0
 20 21  2  0
 21 22  1  0
 22 23  2  0
 23 24  1  0
 24 25  1  0
 25 26  2  0
 26 27  1  0
 27 28  1  0
 28 29  2  0
 29 30  1  0
 30 31  2  0
 31 32  1  0
 32 33  2  0
 10  5  1  0
 24 15  1  0
 33 25  1  0
 23 18  1  0
 33 28  1  0
  4 34  1  0
  4 35  1  0
  6 36  1  0
  7 37  1  0
  8 38  1  0
  9 39  1  0
 16 40  1  0
 17 41  1  0
 19 42  1  0
 20 43  1  0
 21 44  1  0
 22 45  1  0
 24 46  1  6
 26 47  1  0
 27 48  1  0
 29 49  1  0
 30 50  1  0
 31 51  1  0
 32 52  1  0
M  END
>  <UniqueID>  (16) 
1

>  <SMILES>  (16) 
O=S(=O)(Cc1ccccc1C(F)(F)F)N1C=Cc2ccccc2[C@H]1c1c[nH]c2ccccc12

>  <Energy>  (16) 
88.86118278603679

>  <Genealogy>  (16) 
O=S(=O)(Cc1ccccc1C(F)(F)F)N1C=Cc2ccccc2[C@H]1c1c[nH]c2ccccc12 (3D coordinates assigned)
O=S(=O)(Cc1ccccc1C(F)(F)F)N1C=Cc2ccccc2[C@H]1c1c[nH]c2ccccc12 (nonaromatic ring conformer: 88.86118278603679 kcal/mol)

>  <smiles>  (16) 
O=S(=O)(Cc1ccccc1C(F)(F)F)N1C=Cc2ccccc2[C@H]1c1c[nH]c2ccccc12

>  <score_type>  (16) 
oracle

>  <origin>  (16) 
autodockgpu

>  <m_score__min__energy>  (16) 
-8.0899999999999999

>  <m_primary>  (16) 
energy

>  <meeko>  (16) 
{"free_energy": -6.67, "intermolecular_energy": -8.17, "internal_energy": -3.31, "cluster_size": 17, "cluster_id": 2, "rank_in_cluster": 13}

>  <energy>  (16) 
-6.67

>  <cluster_rmsd>  (16) 
0.04

>  <rmsd>  (16) 
269.59

>  <cluster>  (16) 
2

$$$$
CYEMMKKIRZZUDR-DEOSSOPVNA-N
     RDKit          3D

 52 56  0  0  0  0  0  0  0  0999 V2000
  137.7220   78.0080  219.7020 O   0  0  0  0  0  0  0  0  0  0  0  0
  137.8260   79.4910  219.9310 S   0  0  0  0  0  0  0  0  0  0  0  0
  136.4630   80.0230  220.2710 O   0  0  0  0  0  0  0  0  0  0  0  0
  138.4570   80.2690  218.4510 C   0  0  0  0  0  0  0  0  0  0  0  0
  139.9530   80.0820  218.3420 C   0  0  0  0  0  0  0  0  0  0  0  0
  140.4210   78.8880  217.7630 C   0  0  0  0  0  0  0  0  0  0  0  0
  141.7850   78.6540  217.6080 C   0  0  0  0  0  0  0  0  0  0  0  0
  142.7080   79.6070  218.0300 C   0  0  0  0  0  0  0  0  0  0  0  0
  142.2700   80.7990  218.6070 C   0  0  0  0  0  0  0  0  0  0  0  0
  140.8940   81.0670  218.7650 C   0  0  0  0  0  0  0  0  0  0  0  0
  140.4600   82.3610  219.4300 C   0  0  0  0  0  0  0  0  0  0  0  0
  141.3840   82.7440  220.3820 F   0  0  0  0  0  0  0  0  0  0  0  0
  140.3450   83.3540  218.4750 F   0  0  0  0  0  0  0  0  0  0  0  0
  139.2350   82.2280  220.0630 F   0  0  0  0  0  0  0  0  0  0  0  0
  138.9140   79.8100  221.2470 N   0  0  0  0  0  0  0  0  0  0  0  0
  138.4210   80.5610  222.3690 C   0  0  0  0  0  0  0  0  0  0  0  0
  139.2410   80.9670  223.3350 C   0  0  0  0  0  0  0  0  0  0  0  0
  140.6810   80.6760  223.2660 C   0  0  0  0  0  0  0  0  0  0  0  0
  141.5580   81.2300  224.2100 C   0  0  0  0  0  0  0  0  0  0  0  0
  142.9290   80.9790  224.1290 C   0  0  0  0  0  0  0  0  0  0  0  0
  143.4340   80.1750  223.1050 C   0  0  0  0  0  0  0  0  0  0  0  0
  142.5690   79.6140  222.1630 C   0  0  0  0  0  0  0  0  0  0  0  0
  141.1870   79.8600  222.2340 C   0  0  0  0  0  0  0  0  0  0  0  0
  140.2500   79.1930  221.2490 C   0  0  1  0  0  0  0  0  0  0  0  0
  140.1310   77.7290  221.5830 C   0  0  0  0  0  0  0  0  0  0  0  0
  139.2000   77.1450  222.4400 C   0  0  0  0  0  0  0  0  0  0  0  0
  139.4160   75.8150  222.5370 N   0  0  0  0  0  0  0  0  0  0  0  0
  140.4800   75.5520  221.7590 C   0  0  0  0  0  0  0  0  0  0  0  0
  141.0860   74.3150  221.5480 C   0  0  0  0  0  0  0  0  0  0  0  0
  142.2050   74.2670  220.6970 C   0  0  0  0  0  0  0  0  0  0  0  0
  142.6900   75.4430  220.0850 C   0  0  0  0  0  0  0  0  0  0  0  0
  142.0590   76.6790  220.3160 C   0  0  0  0  0  0  0  0  0  0  0  0
  140.9480   76.6960  221.1630 C   0  0  0  0  0  0  0  0  0  0  0  0
  137.9723   79.8186  217.5722 H   0  0  0  0  0  0  0  0  0  0  0  0
  138.2390   81.3461  218.4987 H   0  0  0  0  0  0  0  0  0  0  0  0
  139.6991   78.1286  217.4280 H   0  0  0  0  0  0  0  0  0  0  0  0
  142.1334   77.7156  217.1519 H   0  0  0  0  0  0  0  0  0  0  0  0
  143.7850   79.4196  217.9081 H   0  0  0  0  0  0  0  0  0  0  0  0
  143.0086   81.5412  218.9439 H   0  0  0  0  0  0  0  0  0  0  0  0
  137.3498   80.8037  222.4300 H   0  0  0  0  0  0  0  0  0  0  0  0
  138.8383   81.5253  224.1930 H   0  0  0  0  0  0  0  0  0  0  0  0
  141.1641   81.8648  225.0174 H   0  0  0  0  0  0  0  0  0  0  0  0
  143.6122   81.4151  224.8727 H   0  0  0  0  0  0  0  0  0  0  0  0
  144.5152   79.9832  223.0402 H   0  0  0  0  0  0  0  0  0  0  0  0
  142.9711   78.9766  221.3617 H   0  0  0  0  0  0  0  0  0  0  0  0
  140.6753   79.3226  220.2428 H   0  0  0  0  0  0  0  0  0  0  0  0
  138.4013   77.6905  222.9640 H   0  0  0  0  0  0  0  0  0  0  0  0
  138.8710   75.1330  223.1110 H   0  0  0  0  0  0  0  0  0  0  0  0
  140.7015   73.4049  222.0316 H   0  0  0  0  0  0  0  0  0  0  0  0
  142.7057   73.3062  220.5071 H   0  0  0  0  0  0  0  0  0  0  0  0
  143.5671   75.3926  219.4231 H   0  0  0  0  0  0  0  0  0  0  0  0
  142.4283   77.6020  219.8451 H   0  0  0  0  0  0  0  0  0  0  0  0
  1  2  2  0
  2  3  2  0
  2  4  1  0
  4  5  1  0
  5  6  2  0
  6  7  1  0
  7  8  2  0
  8  9  1  0
  9 10  2  0
 10 11  1  0
 11 12  1  0
 11 13  1  0
 11 14  1  0
  2 15  1  0
 15 16  1  0
 16 17  2  0
 17 18  1  0
 18 19  2  0
 19 20  1  0
 20 21  2  0
 21 22  1  0
 22 23  2  0
 23 24  1  0
 24 25  1  0
 25 26  2  0
 26 27  1  0
 27 28  1  0
 28 29  2  0
 29 30  1  0
 30 31  2  0
 31 32  1  0
 32 33  2  0
 10  5  1  0
 24 15  1  0
 33 25  1  0
 23 18  1  0
 33 28  1  0
  4 34  1  0
  4 35  1  0
  6 36  1  0
  7 37  1  0
  8 38  1  0
  9 39  1  0
 16 40  1  0
 17 41  1  0
 19 42  1  0
 20 43  1  0
 21 44  1  0
 22 45  1  0
 24 46  1  6
 26 47  1  0
 27 48  1  0
 29 49  1  0
 30 50  1  0
 31 51  1  0
 32 52  1  0
M  END
>  <UniqueID>  (17) 
1

>  <SMILES>  (17) 
O=S(=O)(Cc1ccccc1C(F)(F)F)N1C=Cc2ccccc2[C@H]1c1c[nH]c2ccccc12

>  <Energy>  (17) 
88.86118278603679

>  <Genealogy>  (17) 
O=S(=O)(Cc1ccccc1C(F)(F)F)N1C=Cc2ccccc2[C@H]1c1c[nH]c2ccccc12 (3D coordinates assigned)
O=S(=O)(Cc1ccccc1C(F)(F)F)N1C=Cc2ccccc2[C@H]1c1c[nH]c2ccccc12 (nonaromatic ring conformer: 88.86118278603679 kcal/mol)

>  <smiles>  (17) 
O=S(=O)(Cc1ccccc1C(F)(F)F)N1C=Cc2ccccc2[C@H]1c1c[nH]c2ccccc12

>  <score_type>  (17) 
oracle

>  <origin>  (17) 
autodockgpu

>  <m_score__min__energy>  (17) 
-8.0899999999999999

>  <m_primary>  (17) 
energy

>  <meeko>  (17) 
{"free_energy": -6.68, "intermolecular_energy": -8.17, "internal_energy": -3.31, "cluster_size": 17, "cluster_id": 2, "rank_in_cluster": 11}

>  <energy>  (17) 
-6.67

>  <cluster_rmsd>  (17) 
0.04

>  <rmsd>  (17) 
269.61

>  <cluster>  (17) 
2

$$$$
CYEMMKKIRZZUDR-DEOSSOPVNA-N
     RDKit          3D

 52 56  0  0  0  0  0  0  0  0999 V2000
  137.7690   77.9330  219.6550 O   0  0  0  0  0  0  0  0  0  0  0  0
  137.8490   79.4160  219.8910 S   0  0  0  0  0  0  0  0  0  0  0  0
  136.4760   79.9240  220.2270 O   0  0  0  0  0  0  0  0  0  0  0  0
  138.4750   80.2110  218.4180 C   0  0  0  0  0  0  0  0  0  0  0  0
  139.9730   80.0390  218.3100 C   0  0  0  0  0  0  0  0  0  0  0  0
  140.4530   78.8230  217.7920 C   0  0  0  0  0  0  0  0  0  0  0  0
  141.8200   78.5990  217.6410 C   0  0  0  0  0  0  0  0  0  0  0  0
  142.7320   79.5850  218.0070 C   0  0  0  0  0  0  0  0  0  0  0  0
  142.2810   80.8000  218.5230 C   0  0  0  0  0  0  0  0  0  0  0  0
  140.9020   81.0570  218.6750 C   0  0  0  0  0  0  0  0  0  0  0  0
  140.4540   82.3790  219.2730 C   0  0  0  0  0  0  0  0  0  0  0  0
  140.2030   82.2330  220.6240 F   0  0  0  0  0  0  0  0  0  0  0  0
  141.4420   83.3280  219.0890 F   0  0  0  0  0  0  0  0  0  0  0  0
  139.2930   82.8440  218.6780 F   0  0  0  0  0  0  0  0  0  0  0  0
  138.9250   79.7460  221.2140 N   0  0  0  0  0  0  0  0  0  0  0  0
  138.4220   80.5020  222.3270 C   0  0  0  0  0  0  0  0  0  0  0  0
  139.2330   80.9160  223.2970 C   0  0  0  0  0  0  0  0  0  0  0  0
  140.6750   80.6270  223.2420 C   0  0  0  0  0  0  0  0  0  0  0  0
  141.5420   81.1890  224.1900 C   0  0  0  0  0  0  0  0  0  0  0  0
  142.9150   80.9390  224.1220 C   0  0  0  0  0  0  0  0  0  0  0  0
  143.4290   80.1290  223.1070 C   0  0  0  0  0  0  0  0  0  0  0  0
  142.5730   79.5610  222.1620 C   0  0  0  0  0  0  0  0  0  0  0  0
  141.1900   79.8060  222.2190 C   0  0  0  0  0  0  0  0  0  0  0  0
  140.2620   79.1310  221.2310 C   0  0  1  0  0  0  0  0  0  0  0  0
  140.1430   77.6690  221.5740 C   0  0  0  0  0  0  0  0  0  0  0  0
  139.2160   77.0910  222.4390 C   0  0  0  0  0  0  0  0  0  0  0  0
  139.4310   75.7600  222.5420 N   0  0  0  0  0  0  0  0  0  0  0  0
  140.4890   75.4920  221.7590 C   0  0  0  0  0  0  0  0  0  0  0  0
  141.0920   74.2520  221.5520 C   0  0  0  0  0  0  0  0  0  0  0  0
  142.2070   74.1980  220.6940 C   0  0  0  0  0  0  0  0  0  0  0  0
  142.6890   75.3700  220.0730 C   0  0  0  0  0  0  0  0  0  0  0  0
  142.0620   76.6090  220.3010 C   0  0  0  0  0  0  0  0  0  0  0  0
  140.9560   76.6310  221.1540 C   0  0  0  0  0  0  0  0  0  0  0  0
  137.9960   79.7627  217.5351 H   0  0  0  0  0  0  0  0  0  0  0  0
  138.2468   81.2856  218.4735 H   0  0  0  0  0  0  0  0  0  0  0  0
  139.7394   78.0377  217.5020 H   0  0  0  0  0  0  0  0  0  0  0  0
  142.1786   77.6427  217.2325 H   0  0  0  0  0  0  0  0  0  0  0  0
  143.8108   79.4056  217.8890 H   0  0  0  0  0  0  0  0  0  0  0  0
  143.0111   81.5690  218.8156 H   0  0  0  0  0  0  0  0  0  0  0  0
  137.3498   80.7423  222.3781 H   0  0  0  0  0  0  0  0  0  0  0  0
  138.8221   81.4794  224.1477 H   0  0  0  0  0  0  0  0  0  0  0  0
  141.1400   81.8286  224.9896 H   0  0  0  0  0  0  0  0  0  0  0  0
  143.5916   81.3805  224.8685 H   0  0  0  0  0  0  0  0  0  0  0  0
  144.5109   79.9382  223.0521 H   0  0  0  0  0  0  0  0  0  0  0  0
  142.9827   78.9184  221.3687 H   0  0  0  0  0  0  0  0  0  0  0  0
  140.6948   79.2545  220.2273 H   0  0  0  0  0  0  0  0  0  0  0  0
  138.4209   77.6404  222.9643 H   0  0  0  0  0  0  0  0  0  0  0  0
  138.8880   75.0820  223.1230 H   0  0  0  0  0  0  0  0  0  0  0  0
  140.7090   73.3453  222.0431 H   0  0  0  0  0  0  0  0  0  0  0  0
  142.7058   73.2357  220.5064 H   0  0  0  0  0  0  0  0  0  0  0  0
  143.5616   75.3146  219.4055 H   0  0  0  0  0  0  0  0  0  0  0  0
  142.4303   77.5290  219.8237 H   0  0  0  0  0  0  0  0  0  0  0  0
  1  2  2  0
  2  3  2  0
  2  4  1  0
  4  5  1  0
  5  6  2  0
  6  7  1  0
  7  8  2  0
  8  9  1  0
  9 10  2  0
 10 11  1  0
 11 12  1  0
 11 13  1  0
 11 14  1  0
  2 15  1  0
 15 16  1  0
 16 17  2  0
 17 18  1  0
 18 19  2  0
 19 20  1  0
 20 21  2  0
 21 22  1  0
 22 23  2  0
 23 24  1  0
 24 25  1  0
 25 26  2  0
 26 27  1  0
 27 28  1  0
 28 29  2  0
 29 30  1  0
 30 31  2  0
 31 32  1  0
 32 33  2  0
 10  5  1  0
 24 15  1  0
 33 25  1  0
 23 18  1  0
 33 28  1  0
  4 34  1  0
  4 35  1  0
  6 36  1  0
  7 37  1  0
  8 38  1  0
  9 39  1  0
 16 40  1  0
 17 41  1  0
 19 42  1  0
 20 43  1  0
 21 44  1  0
 22 45  1  0
 24 46  1  6
 26 47  1  0
 27 48  1  0
 29 49  1  0
 30 50  1  0
 31 51  1  0
 32 52  1  0
M  END
>  <UniqueID>  (18) 
1

>  <SMILES>  (18) 
O=S(=O)(Cc1ccccc1C(F)(F)F)N1C=Cc2ccccc2[C@H]1c1c[nH]c2ccccc12

>  <Energy>  (18) 
88.86118278603679

>  <Genealogy>  (18) 
O=S(=O)(Cc1ccccc1C(F)(F)F)N1C=Cc2ccccc2[C@H]1c1c[nH]c2ccccc12 (3D coordinates assigned)
O=S(=O)(Cc1ccccc1C(F)(F)F)N1C=Cc2ccccc2[C@H]1c1c[nH]c2ccccc12 (nonaromatic ring conformer: 88.86118278603679 kcal/mol)

>  <smiles>  (18) 
O=S(=O)(Cc1ccccc1C(F)(F)F)N1C=Cc2ccccc2[C@H]1c1c[nH]c2ccccc12

>  <score_type>  (18) 
oracle

>  <origin>  (18) 
autodockgpu

>  <m_score__min__energy>  (18) 
-8.0899999999999999

>  <m_primary>  (18) 
energy

>  <meeko>  (18) 
{"free_energy": -6.65, "intermolecular_energy": -8.14, "internal_energy": -3.32, "cluster_size": 17, "cluster_id": 2, "rank_in_cluster": 17}

>  <energy>  (18) 
-6.67

>  <cluster_rmsd>  (18) 
0.03

>  <rmsd>  (18) 
269.6

>  <cluster>  (18) 
2

$$$$
CYEMMKKIRZZUDR-DEOSSOPVNA-N
     RDKit          3D

 52 56  0  0  0  0  0  0  0  0999 V2000
  137.9280   77.7840  219.4240 O   0  0  0  0  0  0  0  0  0  0  0  0
  137.9870   79.2750  219.6110 S   0  0  0  0  0  0  0  0  0  0  0  0
  136.5950   79.7860  219.8510 O   0  0  0  0  0  0  0  0  0  0  0  0
  138.6900   80.0210  218.1470 C   0  0  0  0  0  0  0  0  0  0  0  0
  140.1790   79.7660  218.0760 C   0  0  0  0  0  0  0  0  0  0  0  0
  140.6030   78.5100  217.6080 C   0  0  0  0  0  0  0  0  0  0  0  0
  141.9590   78.2090  217.4930 C   0  0  0  0  0  0  0  0  0  0  0  0
  142.9150   79.1560  217.8460 C   0  0  0  0  0  0  0  0  0  0  0  0
  142.5200   80.4100  218.3130 C   0  0  0  0  0  0  0  0  0  0  0  0
  141.1540   80.7450  218.4280 C   0  0  0  0  0  0  0  0  0  0  0  0
  140.7660   82.1080  218.9740 C   0  0  0  0  0  0  0  0  0  0  0  0
  141.8540   82.9590  218.9540 F   0  0  0  0  0  0  0  0  0  0  0  0
  139.7510   82.6420  218.2030 F   0  0  0  0  0  0  0  0  0  0  0  0
  140.3180   82.0290  220.2820 F   0  0  0  0  0  0  0  0  0  0  0  0
  138.9860   79.6600  220.9780 N   0  0  0  0  0  0  0  0  0  0  0  0
  138.4160   80.4500  222.0350 C   0  0  0  0  0  0  0  0  0  0  0  0
  139.1710   80.9040  223.0330 C   0  0  0  0  0  0  0  0  0  0  0  0
  140.6150   80.6260  223.0680 C   0  0  0  0  0  0  0  0  0  0  0  0
  141.4240   81.2280  224.0420 C   0  0  0  0  0  0  0  0  0  0  0  0
  142.8000   80.9880  224.0580 C   0  0  0  0  0  0  0  0  0  0  0  0
  143.3760   80.1480  223.1030 C   0  0  0  0  0  0  0  0  0  0  0  0
  142.5770   79.5400  222.1320 C   0  0  0  0  0  0  0  0  0  0  0  0
  141.1910   79.7740  222.1050 C   0  0  0  0  0  0  0  0  0  0  0  0
  140.3250   79.0570  221.0910 C   0  0  1  0  0  0  0  0  0  0  0  0
  140.1960   77.6070  221.4780 C   0  0  0  0  0  0  0  0  0  0  0  0
  139.2640   77.0610  222.3580 C   0  0  0  0  0  0  0  0  0  0  0  0
  139.4710   75.7330  222.5020 N   0  0  0  0  0  0  0  0  0  0  0  0
  140.5300   75.4350  221.7290 C   0  0  0  0  0  0  0  0  0  0  0  0
  141.1260   74.1870  221.5610 C   0  0  0  0  0  0  0  0  0  0  0  0
  142.2410   74.1000  220.7080 C   0  0  0  0  0  0  0  0  0  0  0  0
  142.7320   75.2500  220.0530 C   0  0  0  0  0  0  0  0  0  0  0  0
  142.1110   76.4990  220.2420 C   0  0  0  0  0  0  0  0  0  0  0  0
  141.0040   76.5530  221.0910 C   0  0  0  0  0  0  0  0  0  0  0  0
  138.2078   79.5916  217.2565 H   0  0  0  0  0  0  0  0  0  0  0  0
  138.5200   81.1070  218.1886 H   0  0  0  0  0  0  0  0  0  0  0  0
  139.8541   77.7543  217.3287 H   0  0  0  0  0  0  0  0  0  0  0  0
  142.2735   77.2220  217.1229 H   0  0  0  0  0  0  0  0  0  0  0  0
  143.9847   78.9156  217.7567 H   0  0  0  0  0  0  0  0  0  0  0  0
  143.2847   81.1485  218.5957 H   0  0  0  0  0  0  0  0  0  0  0  0
  137.3410   80.6826  222.0190 H   0  0  0  0  0  0  0  0  0  0  0  0
  138.7103   81.4930  223.8397 H   0  0  0  0  0  0  0  0  0  0  0  0
  140.9740   81.8910  224.7956 H   0  0  0  0  0  0  0  0  0  0  0  0
  143.4310   81.4617  224.8245 H   0  0  0  0  0  0  0  0  0  0  0  0
  144.4606   79.9648  223.1153 H   0  0  0  0  0  0  0  0  0  0  0  0
  143.0344   78.8748  221.3848 H   0  0  0  0  0  0  0  0  0  0  0  0
  140.8132   79.1490  220.1096 H   0  0  0  0  0  0  0  0  0  0  0  0
  138.4710   77.6307  222.8645 H   0  0  0  0  0  0  0  0  0  0  0  0
  138.9230   75.0760  223.1020 H   0  0  0  0  0  0  0  0  0  0  0  0
  140.7370   73.2980  222.0790 H   0  0  0  0  0  0  0  0  0  0  0  0
  142.7337   73.1292  220.5502 H   0  0  0  0  0  0  0  0  0  0  0  0
  143.6061   75.1695  219.3901 H   0  0  0  0  0  0  0  0  0  0  0  0
  142.4853   77.4021  219.7378 H   0  0  0  0  0  0  0  0  0  0  0  0
  1  2  2  0
  2  3  2  0
  2  4  1  0
  4  5  1  0
  5  6  2  0
  6  7  1  0
  7  8  2  0
  8  9  1  0
  9 10  2  0
 10 11  1  0
 11 12  1  0
 11 13  1  0
 11 14  1  0
  2 15  1  0
 15 16  1  0
 16 17  2  0
 17 18  1  0
 18 19  2  0
 19 20  1  0
 20 21  2  0
 21 22  1  0
 22 23  2  0
 23 24  1  0
 24 25  1  0
 25 26  2  0
 26 27  1  0
 27 28  1  0
 28 29  2  0
 29 30  1  0
 30 31  2  0
 31 32  1  0
 32 33  2  0
 10  5  1  0
 24 15  1  0
 33 25  1  0
 23 18  1  0
 33 28  1  0
  4 34  1  0
  4 35  1  0
  6 36  1  0
  7 37  1  0
  8 38  1  0
  9 39  1  0
 16 40  1  0
 17 41  1  0
 19 42  1  0
 20 43  1  0
 21 44  1  0
 22 45  1  0
 24 46  1  6
 26 47  1  0
 27 48  1  0
 29 49  1  0
 30 50  1  0
 31 51  1  0
 32 52  1  0
M  END
>  <UniqueID>  (19) 
1

>  <SMILES>  (19) 
O=S(=O)(Cc1ccccc1C(F)(F)F)N1C=Cc2ccccc2[C@H]1c1c[nH]c2ccccc12

>  <Energy>  (19) 
88.86118278603679

>  <Genealogy>  (19) 
O=S(=O)(Cc1ccccc1C(F)(F)F)N1C=Cc2ccccc2[C@H]1c1c[nH]c2ccccc12 (3D coordinates assigned)
O=S(=O)(Cc1ccccc1C(F)(F)F)N1C=Cc2ccccc2[C@H]1c1c[nH]c2ccccc12 (nonaromatic ring conformer: 88.86118278603679 kcal/mol)

>  <smiles>  (19) 
O=S(=O)(Cc1ccccc1C(F)(F)F)N1C=Cc2ccccc2[C@H]1c1c[nH]c2ccccc12

>  <score_type>  (19) 
oracle

>  <origin>  (19) 
autodockgpu

>  <m_score__min__energy>  (19) 
-8.0899999999999999

>  <m_primary>  (19) 
energy

>  <meeko>  (19) 
{"free_energy": -6.65, "intermolecular_energy": -8.14, "internal_energy": -3.32, "cluster_size": 17, "cluster_id": 2, "rank_in_cluster": 16}

>  <energy>  (19) 
-6.65

>  <cluster_rmsd>  (19) 
0.47

>  <rmsd>  (19) 
269.46

>  <cluster>  (19) 
2

$$$$
CYEMMKKIRZZUDR-DEOSSOPVNA-N
     RDKit          3D

 52 56  0  0  0  0  0  0  0  0999 V2000
  137.7040   77.9500  219.7500 O   0  0  0  0  0  0  0  0  0  0  0  0
  137.8160   79.4330  219.9690 S   0  0  0  0  0  0  0  0  0  0  0  0
  136.4570   79.9720  220.3160 O   0  0  0  0  0  0  0  0  0  0  0  0
  138.4390   80.2000  218.4800 C   0  0  0  0  0  0  0  0  0  0  0  0
  139.9400   80.0530  218.3860 C   0  0  0  0  0  0  0  0  0  0  0  0
  140.4450   78.8670  217.8220 C   0  0  0  0  0  0  0  0  0  0  0  0
  141.8170   78.6680  217.6820 C   0  0  0  0  0  0  0  0  0  0  0  0
  142.7090   79.6490  218.1060 C   0  0  0  0  0  0  0  0  0  0  0  0
  142.2340   80.8330  218.6690 C   0  0  0  0  0  0  0  0  0  0  0  0
  140.8500   81.0650  218.8110 C   0  0  0  0  0  0  0  0  0  0  0  0
  140.3750   82.3530  219.4610 C   0  0  0  0  0  0  0  0  0  0  0  0
  141.2930   82.7830  220.3990 F   0  0  0  0  0  0  0  0  0  0  0  0
  140.2160   83.3270  218.4930 F   0  0  0  0  0  0  0  0  0  0  0  0
  139.1610   82.1850  220.1070 F   0  0  0  0  0  0  0  0  0  0  0  0
  138.9150   79.7560  221.2740 N   0  0  0  0  0  0  0  0  0  0  0  0
  138.4300   80.5040  222.4010 C   0  0  0  0  0  0  0  0  0  0  0  0
  139.2580   80.9130  223.3590 C   0  0  0  0  0  0  0  0  0  0  0  0
  140.6990   80.6280  223.2770 C   0  0  0  0  0  0  0  0  0  0  0  0
  141.5820   81.1850  224.2130 C   0  0  0  0  0  0  0  0  0  0  0  0
  142.9530   80.9390  224.1190 C   0  0  0  0  0  0  0  0  0  0  0  0
  143.4510   80.1370  223.0900 C   0  0  0  0  0  0  0  0  0  0  0  0
  142.5790   79.5730  222.1560 C   0  0  0  0  0  0  0  0  0  0  0  0
  141.1970   79.8140  222.2400 C   0  0  0  0  0  0  0  0  0  0  0  0
  140.2530   79.1440  221.2640 C   0  0  1  0  0  0  0  0  0  0  0  0
  140.1430   77.6800  221.5990 C   0  0  0  0  0  0  0  0  0  0  0  0
  139.2220   77.0920  222.4650 C   0  0  0  0  0  0  0  0  0  0  0  0
  139.4440   75.7620  222.5590 N   0  0  0  0  0  0  0  0  0  0  0  0
  140.5010   75.5030  221.7700 C   0  0  0  0  0  0  0  0  0  0  0  0
  141.1100   74.2680  221.5530 C   0  0  0  0  0  0  0  0  0  0  0  0
  142.2200   74.2250  220.6910 C   0  0  0  0  0  0  0  0  0  0  0  0
  142.6940   75.4030  220.0750 C   0  0  0  0  0  0  0  0  0  0  0  0
  142.0620   76.6370  220.3120 C   0  0  0  0  0  0  0  0  0  0  0  0
  140.9600   76.6490  221.1700 C   0  0  0  0  0  0  0  0  0  0  0  0
  137.9746   79.7200  217.6060 H   0  0  0  0  0  0  0  0  0  0  0  0
  138.1914   81.2715  218.5062 H   0  0  0  0  0  0  0  0  0  0  0  0
  139.7468   78.0858  217.4869 H   0  0  0  0  0  0  0  0  0  0  0  0
  142.1951   77.7360  217.2366 H   0  0  0  0  0  0  0  0  0  0  0  0
  143.7919   79.4897  217.9966 H   0  0  0  0  0  0  0  0  0  0  0  0
  142.9491   81.5973  219.0074 H   0  0  0  0  0  0  0  0  0  0  0  0
  137.3585   80.7420  222.4728 H   0  0  0  0  0  0  0  0  0  0  0  0
  138.8611   81.4697  224.2207 H   0  0  0  0  0  0  0  0  0  0  0  0
  141.1931   81.8180  225.0242 H   0  0  0  0  0  0  0  0  0  0  0  0
  143.6417   81.3774  224.8563 H   0  0  0  0  0  0  0  0  0  0  0  0
  144.5322   79.9491  223.0149 H   0  0  0  0  0  0  0  0  0  0  0  0
  142.9758   78.9372  221.3509 H   0  0  0  0  0  0  0  0  0  0  0  0
  140.6680   79.2755  220.2538 H   0  0  0  0  0  0  0  0  0  0  0  0
  138.4265   77.6343  222.9970 H   0  0  0  0  0  0  0  0  0  0  0  0
  138.9070   75.0780  223.1380 H   0  0  0  0  0  0  0  0  0  0  0  0
  140.7342   73.3563  222.0405 H   0  0  0  0  0  0  0  0  0  0  0  0
  142.7226   73.2663  220.4953 H   0  0  0  0  0  0  0  0  0  0  0  0
  143.5646   75.3557  219.4043 H   0  0  0  0  0  0  0  0  0  0  0  0
  142.4234   77.5613  219.8376 H   0  0  0  0  0  0  0  0  0  0  0  0
  1  2  2  0
  2  3  2  0
  2  4  1  0
  4  5  1  0
  5  6  2  0
  6  7  1  0
  7  8  2  0
  8  9  1  0
  9 10  2  0
 10 11  1  0
 11 12  1  0
 11 13  1  0
 11 14  1  0
  2 15  1  0
 15 16  1  0
 16 17  2  0
 17 18  1  0
 18 19  2  0
 19 20  1  0
 20 21  2  0
 21 22  1  0
 22 23  2  0
 23 24  1  0
 24 25  1  0
 25 26  2  0
 26 27  1  0
 27 28  1  0
 28 29  2  0
 29 30  1  0
 30 31  2  0
 31 32  1  0
 32 33  2  0
 10  5  1  0
 24 15  1  0
 33 25  1  0
 23 18  1  0
 33 28  1  0
  4 34  1  0
  4 35  1  0
  6 36  1  0
  7 37  1  0
  8 38  1  0
  9 39  1  0
 16 40  1  0
 17 41  1  0
 19 42  1  0
 20 43  1  0
 21 44  1  0
 22 45  1  0
 24 46  1  6
 26 47  1  0
 27 48  1  0
 29 49  1  0
 30 50  1  0
 31 51  1  0
 32 52  1  0
M  END
>  <UniqueID>  (20) 
1

>  <SMILES>  (20) 
O=S(=O)(Cc1ccccc1C(F)(F)F)N1C=Cc2ccccc2[C@H]1c1c[nH]c2ccccc12

>  <Energy>  (20) 
88.86118278603679

>  <Genealogy>  (20) 
O=S(=O)(Cc1ccccc1C(F)(F)F)N1C=Cc2ccccc2[C@H]1c1c[nH]c2ccccc12 (3D coordinates assigned)
O=S(=O)(Cc1ccccc1C(F)(F)F)N1C=Cc2ccccc2[C@H]1c1c[nH]c2ccccc12 (nonaromatic ring conformer: 88.86118278603679 kcal/mol)

>  <smiles>  (20) 
O=S(=O)(Cc1ccccc1C(F)(F)F)N1C=Cc2ccccc2[C@H]1c1c[nH]c2ccccc12

>  <score_type>  (20) 
oracle

>  <origin>  (20) 
autodockgpu

>  <m_score__min__energy>  (20) 
-8.0899999999999999

>  <m_primary>  (20) 
energy

>  <meeko>  (20) 
{"free_energy": -6.68, "intermolecular_energy": -8.18, "internal_energy": -3.31, "cluster_size": 17, "cluster_id": 2, "rank_in_cluster": 4}

>  <energy>  (20) 
-6.65

>  <cluster_rmsd>  (20) 
0.36

>  <rmsd>  (20) 
269.58

>  <cluster>  (20) 
2

$$$$
CYEMMKKIRZZUDR-DEOSSOPVNA-N
     RDKit          3D

 52 56  0  0  0  0  0  0  0  0999 V2000
  137.7030   77.9500  219.7240 O   0  0  0  0  0  0  0  0  0  0  0  0
  137.8070   79.4320  219.9510 S   0  0  0  0  0  0  0  0  0  0  0  0
  136.4440   79.9630  220.2970 O   0  0  0  0  0  0  0  0  0  0  0  0
  138.4300   80.2100  218.4680 C   0  0  0  0  0  0  0  0  0  0  0  0
  139.9300   80.0570  218.3700 C   0  0  0  0  0  0  0  0  0  0  0  0
  140.4290   78.8720  217.7980 C   0  0  0  0  0  0  0  0  0  0  0  0
  141.8000   78.6680  217.6540 C   0  0  0  0  0  0  0  0  0  0  0  0
  142.6970   79.6420  218.0810 C   0  0  0  0  0  0  0  0  0  0  0  0
  142.2290   80.8260  218.6510 C   0  0  0  0  0  0  0  0  0  0  0  0
  140.8460   81.0630  218.7980 C   0  0  0  0  0  0  0  0  0  0  0  0
  140.3780   82.3490  219.4560 C   0  0  0  0  0  0  0  0  0  0  0  0
  141.2950   82.7650  220.4020 F   0  0  0  0  0  0  0  0  0  0  0  0
  140.2300   83.3320  218.4960 F   0  0  0  0  0  0  0  0  0  0  0  0
  139.1610   82.1850  220.0960 F   0  0  0  0  0  0  0  0  0  0  0  0
  138.9000   79.7540  221.2610 N   0  0  0  0  0  0  0  0  0  0  0  0
  138.4110   80.5000  222.3870 C   0  0  0  0  0  0  0  0  0  0  0  0
  139.2350   80.9080  223.3490 C   0  0  0  0  0  0  0  0  0  0  0  0
  140.6760   80.6220  223.2720 C   0  0  0  0  0  0  0  0  0  0  0  0
  141.5550   81.1780  224.2130 C   0  0  0  0  0  0  0  0  0  0  0  0
  142.9270   80.9320  224.1240 C   0  0  0  0  0  0  0  0  0  0  0  0
  143.4290   80.1310  223.0960 C   0  0  0  0  0  0  0  0  0  0  0  0
  142.5610   79.5680  222.1580 C   0  0  0  0  0  0  0  0  0  0  0  0
  141.1790   79.8100  222.2360 C   0  0  0  0  0  0  0  0  0  0  0  0
  140.2390   79.1410  221.2560 C   0  0  1  0  0  0  0  0  0  0  0  0
  140.1270   77.6760  221.5880 C   0  0  0  0  0  0  0  0  0  0  0  0
  139.2000   77.0870  222.4470 C   0  0  0  0  0  0  0  0  0  0  0  0
  139.4220   75.7580  222.5420 N   0  0  0  0  0  0  0  0  0  0  0  0
  140.4850   75.5000  221.7600 C   0  0  0  0  0  0  0  0  0  0  0  0
  141.0960   74.2650  221.5470 C   0  0  0  0  0  0  0  0  0  0  0  0
  142.2130   74.2230  220.6930 C   0  0  0  0  0  0  0  0  0  0  0  0
  142.6910   75.4020  220.0820 C   0  0  0  0  0  0  0  0  0  0  0  0
  142.0560   76.6350  220.3160 C   0  0  0  0  0  0  0  0  0  0  0  0
  140.9470   76.6460  221.1650 C   0  0  0  0  0  0  0  0  0  0  0  0
  137.9617   79.7402  217.5905 H   0  0  0  0  0  0  0  0  0  0  0  0
  138.1871   81.2822  218.5043 H   0  0  0  0  0  0  0  0  0  0  0  0
  139.7269   78.0957  217.4598 H   0  0  0  0  0  0  0  0  0  0  0  0
  142.1730   77.7368  217.2027 H   0  0  0  0  0  0  0  0  0  0  0  0
  143.7789   79.4779  217.9687 H   0  0  0  0  0  0  0  0  0  0  0  0
  142.9484   81.5856  218.9907 H   0  0  0  0  0  0  0  0  0  0  0  0
  137.3391   80.7376  222.4551 H   0  0  0  0  0  0  0  0  0  0  0  0
  138.8350   81.4642  224.2096 H   0  0  0  0  0  0  0  0  0  0  0  0
  141.1626   81.8097  225.0235 H   0  0  0  0  0  0  0  0  0  0  0  0
  143.6128   81.3696  224.8644 H   0  0  0  0  0  0  0  0  0  0  0  0
  144.5105   79.9431  223.0250 H   0  0  0  0  0  0  0  0  0  0  0  0
  142.9610   78.9322  221.3544 H   0  0  0  0  0  0  0  0  0  0  0  0
  140.6586   79.2734  220.2478 H   0  0  0  0  0  0  0  0  0  0  0  0
  138.4002   77.6285  222.9734 H   0  0  0  0  0  0  0  0  0  0  0  0
  138.8810   75.0730  223.1160 H   0  0  0  0  0  0  0  0  0  0  0  0
  140.7168   73.3529  222.0311 H   0  0  0  0  0  0  0  0  0  0  0  0
  142.7174   73.2647  220.5001 H   0  0  0  0  0  0  0  0  0  0  0  0
  143.5667   75.3563  219.4179 H   0  0  0  0  0  0  0  0  0  0  0  0
  142.4208   77.5602  219.8458 H   0  0  0  0  0  0  0  0  0  0  0  0
  1  2  2  0
  2  3  2  0
  2  4  1  0
  4  5  1  0
  5  6  2  0
  6  7  1  0
  7  8  2  0
  8  9  1  0
  9 10  2  0
 10 11  1  0
 11 12  1  0
 11 13  1  0
 11 14  1  0
  2 15  1  0
 15 16  1  0
 16 17  2  0
 17 18  1  0
 18 19  2  0
 19 20  1  0
 20 21  2  0
 21 22  1  0
 22 23  2  0
 23 24  1  0
 24 25  1  0
 25 26  2  0
 26 27  1  0
 27 28  1  0
 28 29  2  0
 29 30  1  0
 30 31  2  0
 31 32  1  0
 32 33  2  0
 10  5  1  0
 24 15  1  0
 33 25  1  0
 23 18  1  0
 33 28  1  0
  4 34  1  0
  4 35  1  0
  6 36  1  0
  7 37  1  0
  8 38  1  0
  9 39  1  0
 16 40  1  0
 17 41  1  0
 19 42  1  0
 20 43  1  0
 21 44  1  0
 22 45  1  0
 24 46  1  6
 26 47  1  0
 27 48  1  0
 29 49  1  0
 30 50  1  0
 31 51  1  0
 32 52  1  0
M  END
>  <UniqueID>  (21) 
2

>  <SMILES>  (21) 
O=S(=O)(Cc1ccccc1C(F)(F)F)N1C=Cc2ccccc2[C@H]1c1c[nH]c2ccccc12

>  <Energy>  (21) 
90.68583105846089

>  <Genealogy>  (21) 
O=S(=O)(Cc1ccccc1C(F)(F)F)N1C=Cc2ccccc2[C@H]1c1c[nH]c2ccccc12 (3D coordinates assigned)
O=S(=O)(Cc1ccccc1C(F)(F)F)N1C=Cc2ccccc2[C@H]1c1c[nH]c2ccccc12 (nonaromatic ring conformer: 90.68583105846089 kcal/mol)

>  <smiles>  (21) 
O=S(=O)(Cc1ccccc1C(F)(F)F)N1C=Cc2ccccc2[C@H]1c1c[nH]c2ccccc12

>  <score_type>  (21) 
oracle

>  <origin>  (21) 
autodockgpu

>  <m_score__min__energy>  (21) 
-8.0899999999999999

>  <m_primary>  (21) 
energy

>  <meeko>  (21) 
{"free_energy": -6.68, "intermolecular_energy": -8.17, "internal_energy": -3.31, "cluster_size": 17, "cluster_id": 2, "rank_in_cluster": 5}

>  <energy>  (21) 
-8.09

>  <cluster_rmsd>  (21) 
0.0

>  <rmsd>  (21) 
269.66

>  <cluster>  (21) 
1

$$$$
CYEMMKKIRZZUDR-DEOSSOPVNA-N
     RDKit          3D

 52 56  0  0  0  0  0  0  0  0999 V2000
  137.7250   77.9630  219.7040 O   0  0  0  0  0  0  0  0  0  0  0  0
  137.8290   79.4460  219.9280 S   0  0  0  0  0  0  0  0  0  0  0  0
  136.4660   79.9790  220.2650 O   0  0  0  0  0  0  0  0  0  0  0  0
  138.4620   80.2180  218.4450 C   0  0  0  0  0  0  0  0  0  0  0  0
  139.9590   80.0410  218.3440 C   0  0  0  0  0  0  0  0  0  0  0  0
  140.4370   78.8470  217.7740 C   0  0  0  0  0  0  0  0  0  0  0  0
  141.8040   78.6210  217.6260 C   0  0  0  0  0  0  0  0  0  0  0  0
  142.7190   79.5820  218.0470 C   0  0  0  0  0  0  0  0  0  0  0  0
  142.2710   80.7740  218.6160 C   0  0  0  0  0  0  0  0  0  0  0  0
  140.8920   81.0340  218.7660 C   0  0  0  0  0  0  0  0  0  0  0  0
  140.4460   82.3290  219.4220 C   0  0  0  0  0  0  0  0  0  0  0  0
  141.3760   82.7360  220.3590 F   0  0  0  0  0  0  0  0  0  0  0  0
  140.3060   83.3090  218.4580 F   0  0  0  0  0  0  0  0  0  0  0  0
  139.2310   82.1850  220.0710 F   0  0  0  0  0  0  0  0  0  0  0  0
  138.9170   79.7690  221.2430 N   0  0  0  0  0  0  0  0  0  0  0  0
  138.4210   80.5170  222.3660 C   0  0  0  0  0  0  0  0  0  0  0  0
  139.2410   80.9270  223.3310 C   0  0  0  0  0  0  0  0  0  0  0  0
  140.6820   80.6420  223.2610 C   0  0  0  0  0  0  0  0  0  0  0  0
  141.5560   81.2000  224.2050 C   0  0  0  0  0  0  0  0  0  0  0  0
  142.9290   80.9540  224.1230 C   0  0  0  0  0  0  0  0  0  0  0  0
  143.4370   80.1520  223.0990 C   0  0  0  0  0  0  0  0  0  0  0  0
  142.5730   79.5880  222.1570 C   0  0  0  0  0  0  0  0  0  0  0  0
  141.1900   79.8290  222.2290 C   0  0  0  0  0  0  0  0  0  0  0  0
  140.2560   79.1580  221.2450 C   0  0  1  0  0  0  0  0  0  0  0  0
  140.1430   77.6930  221.5780 C   0  0  0  0  0  0  0  0  0  0  0  0
  139.2170   77.1060  222.4390 C   0  0  0  0  0  0  0  0  0  0  0  0
  139.4380   75.7760  222.5340 N   0  0  0  0  0  0  0  0  0  0  0  0
  140.4990   75.5170  221.7510 C   0  0  0  0  0  0  0  0  0  0  0  0
  141.1090   74.2820  221.5370 C   0  0  0  0  0  0  0  0  0  0  0  0
  142.2250   74.2380  220.6810 C   0  0  0  0  0  0  0  0  0  0  0  0
  142.7020   75.4160  220.0680 C   0  0  0  0  0  0  0  0  0  0  0  0
  142.0690   76.6500  220.3020 C   0  0  0  0  0  0  0  0  0  0  0  0
  140.9620   76.6630  221.1540 C   0  0  0  0  0  0  0  0  0  0  0  0
  137.9846   79.7580  217.5672 H   0  0  0  0  0  0  0  0  0  0  0  0
  138.2364   81.2939  218.4843 H   0  0  0  0  0  0  0  0  0  0  0  0
  139.7215   78.0810  217.4404 H   0  0  0  0  0  0  0  0  0  0  0  0
  142.1604   77.6826  217.1762 H   0  0  0  0  0  0  0  0  0  0  0  0
  143.7977   79.4009  217.9306 H   0  0  0  0  0  0  0  0  0  0  0  0
  143.0033   81.5225  218.9528 H   0  0  0  0  0  0  0  0  0  0  0  0
  137.3486   80.7539  222.4287 H   0  0  0  0  0  0  0  0  0  0  0  0
  138.8369   81.4843  224.1890 H   0  0  0  0  0  0  0  0  0  0  0  0
  141.1596   81.8332  225.0124 H   0  0  0  0  0  0  0  0  0  0  0  0
  143.6108   81.3928  224.8663 H   0  0  0  0  0  0  0  0  0  0  0  0
  144.5189   79.9640  223.0339 H   0  0  0  0  0  0  0  0  0  0  0  0
  142.9769   78.9524  221.3552 H   0  0  0  0  0  0  0  0  0  0  0  0
  140.6812   79.2897  220.2391 H   0  0  0  0  0  0  0  0  0  0  0  0
  138.4189   77.6488  222.9667 H   0  0  0  0  0  0  0  0  0  0  0  0
  138.8980   75.0920  223.1100 H   0  0  0  0  0  0  0  0  0  0  0  0
  140.7299   73.3704  222.0221 H   0  0  0  0  0  0  0  0  0  0  0  0
  142.7287   73.2792  220.4885 H   0  0  0  0  0  0  0  0  0  0  0  0
  143.5760   75.3689  219.4017 H   0  0  0  0  0  0  0  0  0  0  0  0
  142.4335   77.5742  219.8298 H   0  0  0  0  0  0  0  0  0  0  0  0
  1  2  2  0
  2  3  2  0
  2  4  1  0
  4  5  1  0
  5  6  2  0
  6  7  1  0
  7  8  2  0
  8  9  1  0
  9 10  2  0
 10 11  1  0
 11 12  1  0
 11 13  1  0
 11 14  1  0
  2 15  1  0
 15 16  1  0
 16 17  2  0
 17 18  1  0
 18 19  2  0
 19 20  1  0
 20 21  2  0
 21 22  1  0
 22 23  2  0
 23 24  1  0
 24 25  1  0
 25 26  2  0
 26 27  1  0
 27 28  1  0
 28 29  2  0
 29 30  1  0
 30 31  2  0
 31 32  1  0
 32 33  2  0
 10  5  1  0
 24 15  1  0
 33 25  1  0
 23 18  1  0
 33 28  1  0
  4 34  1  0
  4 35  1  0
  6 36  1  0
  7 37  1  0
  8 38  1  0
  9 39  1  0
 16 40  1  0
 17 41  1  0
 19 42  1  0
 20 43  1  0
 21 44  1  0
 22 45  1  0
 24 46  1  6
 26 47  1  0
 27 48  1  0
 29 49  1  0
 30 50  1  0
 31 51  1  0
 32 52  1  0
M  END
>  <UniqueID>  (22) 
2

>  <SMILES>  (22) 
O=S(=O)(Cc1ccccc1C(F)(F)F)N1C=Cc2ccccc2[C@H]1c1c[nH]c2ccccc12

>  <Energy>  (22) 
90.68583105846089

>  <Genealogy>  (22) 
O=S(=O)(Cc1ccccc1C(F)(F)F)N1C=Cc2ccccc2[C@H]1c1c[nH]c2ccccc12 (3D coordinates assigned)
O=S(=O)(Cc1ccccc1C(F)(F)F)N1C=Cc2ccccc2[C@H]1c1c[nH]c2ccccc12 (nonaromatic ring conformer: 90.68583105846089 kcal/mol)

>  <smiles>  (22) 
O=S(=O)(Cc1ccccc1C(F)(F)F)N1C=Cc2ccccc2[C@H]1c1c[nH]c2ccccc12

>  <score_type>  (22) 
oracle

>  <origin>  (22) 
autodockgpu

>  <m_score__min__energy>  (22) 
-8.0899999999999999

>  <m_primary>  (22) 
energy

>  <meeko>  (22) 
{"free_energy": -6.68, "intermolecular_energy": -8.17, "internal_energy": -3.31, "cluster_size": 17, "cluster_id": 2, "rank_in_cluster": 7}

>  <energy>  (22) 
-8.08

>  <cluster_rmsd>  (22) 
0.05

>  <rmsd>  (22) 
269.64

>  <cluster>  (22) 
1

$$$$
CYEMMKKIRZZUDR-DEOSSOPVNA-N
     RDKit          3D

 52 56  0  0  0  0  0  0  0  0999 V2000
  137.6990   77.9500  219.7380 O   0  0  0  0  0  0  0  0  0  0  0  0
  137.8030   79.4330  219.9660 S   0  0  0  0  0  0  0  0  0  0  0  0
  136.4420   79.9620  220.3180 O   0  0  0  0  0  0  0  0  0  0  0  0
  138.4190   80.2120  218.4800 C   0  0  0  0  0  0  0  0  0  0  0  0
  139.9190   80.0610  218.3760 C   0  0  0  0  0  0  0  0  0  0  0  0
  140.4160   78.8760  217.8030 C   0  0  0  0  0  0  0  0  0  0  0  0
  141.7870   78.6740  217.6520 C   0  0  0  0  0  0  0  0  0  0  0  0
  142.6850   79.6500  218.0740 C   0  0  0  0  0  0  0  0  0  0  0  0
  142.2180   80.8330  218.6450 C   0  0  0  0  0  0  0  0  0  0  0  0
  140.8350   81.0690  218.7980 C   0  0  0  0  0  0  0  0  0  0  0  0
  140.3680   82.3550  219.4570 C   0  0  0  0  0  0  0  0  0  0  0  0
  141.2880   82.7710  220.4000 F   0  0  0  0  0  0  0  0  0  0  0  0
  140.2170   83.3370  218.4960 F   0  0  0  0  0  0  0  0  0  0  0  0
  139.1530   82.1910  220.1000 F   0  0  0  0  0  0  0  0  0  0  0  0
  138.9020   79.7540  221.2710 N   0  0  0  0  0  0  0  0  0  0  0  0
  138.4200   80.5090  222.3950 C   0  0  0  0  0  0  0  0  0  0  0  0
  139.2500   80.9170  223.3520 C   0  0  0  0  0  0  0  0  0  0  0  0
  140.6890   80.6230  223.2720 C   0  0  0  0  0  0  0  0  0  0  0  0
  141.5740   81.1790  224.2080 C   0  0  0  0  0  0  0  0  0  0  0  0
  142.9440   80.9240  224.1160 C   0  0  0  0  0  0  0  0  0  0  0  0
  143.4390   80.1150  223.0910 C   0  0  0  0  0  0  0  0  0  0  0  0
  142.5640   79.5530  222.1580 C   0  0  0  0  0  0  0  0  0  0  0  0
  141.1840   79.8030  222.2390 C   0  0  0  0  0  0  0  0  0  0  0  0
  140.2370   79.1340  221.2650 C   0  0  1  0  0  0  0  0  0  0  0  0
  140.1180   77.6720  221.6040 C   0  0  0  0  0  0  0  0  0  0  0  0
  139.1910   77.0920  222.4700 C   0  0  0  0  0  0  0  0  0  0  0  0
  139.4060   75.7620  222.5700 N   0  0  0  0  0  0  0  0  0  0  0  0
  140.4640   75.4940  221.7850 C   0  0  0  0  0  0  0  0  0  0  0  0
  141.0670   74.2550  221.5760 C   0  0  0  0  0  0  0  0  0  0  0  0
  142.1800   74.2030  220.7180 C   0  0  0  0  0  0  0  0  0  0  0  0
  142.6630   75.3760  220.0990 C   0  0  0  0  0  0  0  0  0  0  0  0
  142.0360   76.6140  220.3290 C   0  0  0  0  0  0  0  0  0  0  0  0
  140.9310   76.6350  221.1830 C   0  0  0  0  0  0  0  0  0  0  0  0
  137.9478   79.7414  217.6045 H   0  0  0  0  0  0  0  0  0  0  0  0
  138.1747   81.2839  218.5171 H   0  0  0  0  0  0  0  0  0  0  0  0
  139.7131   78.0983  217.4696 H   0  0  0  0  0  0  0  0  0  0  0  0
  142.1592   77.7431  217.1993 H   0  0  0  0  0  0  0  0  0  0  0  0
  143.7666   79.4875  217.9566 H   0  0  0  0  0  0  0  0  0  0  0  0
  142.9380   81.5936  218.9812 H   0  0  0  0  0  0  0  0  0  0  0  0
  137.3497   80.7531  222.4653 H   0  0  0  0  0  0  0  0  0  0  0  0
  138.8560   81.4796  224.2112 H   0  0  0  0  0  0  0  0  0  0  0  0
  141.1878   81.8174  225.0163 H   0  0  0  0  0  0  0  0  0  0  0  0
  143.6344   81.3612  224.8523 H   0  0  0  0  0  0  0  0  0  0  0  0
  144.5191   79.9200  223.0181 H   0  0  0  0  0  0  0  0  0  0  0  0
  142.9577   78.9115  221.3559 H   0  0  0  0  0  0  0  0  0  0  0  0
  140.6545   79.2592  220.2550 H   0  0  0  0  0  0  0  0  0  0  0  0
  138.3966   77.6404  222.9974 H   0  0  0  0  0  0  0  0  0  0  0  0
  138.8630   75.0830  223.1500 H   0  0  0  0  0  0  0  0  0  0  0  0
  140.6848   73.3474  222.0662 H   0  0  0  0  0  0  0  0  0  0  0  0
  142.6780   73.2408  220.5278 H   0  0  0  0  0  0  0  0  0  0  0  0
  143.5360   75.3216  219.4320 H   0  0  0  0  0  0  0  0  0  0  0  0
  142.4036   77.5347  219.8523 H   0  0  0  0  0  0  0  0  0  0  0  0
  1  2  2  0
  2  3  2  0
  2  4  1  0
  4  5  1  0
  5  6  2  0
  6  7  1  0
  7  8  2  0
  8  9  1  0
  9 10  2  0
 10 11  1  0
 11 12  1  0
 11 13  1  0
 11 14  1  0
  2 15  1  0
 15 16  1  0
 16 17  2  0
 17 18  1  0
 18 19  2  0
 19 20  1  0
 20 21  2  0
 21 22  1  0
 22 23  2  0
 23 24  1  0
 24 25  1  0
 25 26  2  0
 26 27  1  0
 27 28  1  0
 28 29  2  0
 29 30  1  0
 30 31  2  0
 31 32  1  0
 32 33  2  0
 10  5  1  0
 24 15  1  0
 33 25  1  0
 23 18  1  0
 33 28  1  0
  4 34  1  0
  4 35  1  0
  6 36  1  0
  7 37  1  0
  8 38  1  0
  9 39  1  0
 16 40  1  0
 17 41  1  0
 19 42  1  0
 20 43  1  0
 21 44  1  0
 22 45  1  0
 24 46  1  6
 26 47  1  0
 27 48  1  0
 29 49  1  0
 30 50  1  0
 31 51  1  0
 32 52  1  0
M  END
>  <UniqueID>  (23) 
2

>  <SMILES>  (23) 
O=S(=O)(Cc1ccccc1C(F)(F)F)N1C=Cc2ccccc2[C@H]1c1c[nH]c2ccccc12

>  <Energy>  (23) 
90.68583105846089

>  <Genealogy>  (23) 
O=S(=O)(Cc1ccccc1C(F)(F)F)N1C=Cc2ccccc2[C@H]1c1c[nH]c2ccccc12 (3D coordinates assigned)
O=S(=O)(Cc1ccccc1C(F)(F)F)N1C=Cc2ccccc2[C@H]1c1c[nH]c2ccccc12 (nonaromatic ring conformer: 90.68583105846089 kcal/mol)

>  <smiles>  (23) 
O=S(=O)(Cc1ccccc1C(F)(F)F)N1C=Cc2ccccc2[C@H]1c1c[nH]c2ccccc12

>  <score_type>  (23) 
oracle

>  <origin>  (23) 
autodockgpu

>  <m_score__min__energy>  (23) 
-8.0899999999999999

>  <m_primary>  (23) 
energy

>  <meeko>  (23) 
{"free_energy": -6.68, "intermolecular_energy": -8.17, "internal_energy": -3.31, "cluster_size": 17, "cluster_id": 2, "rank_in_cluster": 12}

>  <energy>  (23) 
-8.08

>  <cluster_rmsd>  (23) 
0.03

>  <rmsd>  (23) 
269.65

>  <cluster>  (23) 
1

$$$$
CYEMMKKIRZZUDR-DEOSSOPVNA-N
     RDKit          3D

 52 56  0  0  0  0  0  0  0  0999 V2000
  140.7700   74.0680  221.9770 O   0  0  0  0  0  0  0  0  0  0  0  0
  140.5310   74.9150  220.7580 S   0  0  0  0  0  0  0  0  0  0  0  0
  139.0810   74.8120  220.3770 O   0  0  0  0  0  0  0  0  0  0  0  0
  141.5760   74.3360  219.4290 C   0  0  0  0  0  0  0  0  0  0  0  0
  142.9220   73.8940  219.9570 C   0  0  0  0  0  0  0  0  0  0  0  0
  143.9170   74.8760  220.1080 C   0  0  0  0  0  0  0  0  0  0  0  0
  145.1760   74.5490  220.6100 C   0  0  0  0  0  0  0  0  0  0  0  0
  145.4630   73.2350  220.9670 C   0  0  0  0  0  0  0  0  0  0  0  0
  144.4930   72.2420  220.8270 C   0  0  0  0  0  0  0  0  0  0  0  0
  143.2070   72.5480  220.3320 C   0  0  0  0  0  0  0  0  0  0  0  0
  142.1910   71.4330  220.1620 C   0  0  0  0  0  0  0  0  0  0  0  0
  141.3010   71.4290  221.2190 F   0  0  0  0  0  0  0  0  0  0  0  0
  141.5000   71.6140  218.9790 F   0  0  0  0  0  0  0  0  0  0  0  0
  142.7970   70.1880  220.1200 F   0  0  0  0  0  0  0  0  0  0  0  0
  140.9200   76.5720  221.1040 N   0  0  0  0  0  0  0  0  0  0  0  0
  141.3180   77.4180  220.0130 C   0  0  0  0  0  0  0  0  0  0  0  0
  141.7730   78.6490  220.2320 C   0  0  0  0  0  0  0  0  0  0  0  0
  141.9000   79.1680  221.6020 C   0  0  0  0  0  0  0  0  0  0  0  0
  142.5140   80.4080  221.8310 C   0  0  0  0  0  0  0  0  0  0  0  0
  142.6610   80.8890  223.1340 C   0  0  0  0  0  0  0  0  0  0  0  0
  142.1990   80.1360  224.2150 C   0  0  0  0  0  0  0  0  0  0  0  0
  141.5820   78.9020  223.9960 C   0  0  0  0  0  0  0  0  0  0  0  0
  141.4280   78.4070  222.6900 C   0  0  0  0  0  0  0  0  0  0  0  0
  140.6980   77.1020  222.4590 C   0  0  1  0  0  0  0  0  0  0  0  0
  139.2230   77.3050  222.6880 C   0  0  0  0  0  0  0  0  0  0  0  0
  138.2600   76.3080  222.8400 C   0  0  0  0  0  0  0  0  0  0  0  0
  137.0330   76.8550  222.9830 N   0  0  0  0  0  0  0  0  0  0  0  0
  137.2070   78.1860  222.9150 C   0  0  0  0  0  0  0  0  0  0  0  0
  136.2240   79.1710  222.9980 C   0  0  0  0  0  0  0  0  0  0  0  0
  136.6270   80.5140  222.8880 C   0  0  0  0  0  0  0  0  0  0  0  0
  137.9870   80.8390  222.6960 C   0  0  0  0  0  0  0  0  0  0  0  0
  138.9590   79.8240  222.6130 C   0  0  0  0  0  0  0  0  0  0  0  0
  138.5290   78.5010  222.7300 C   0  0  0  0  0  0  0  0  0  0  0  0
  141.0874   73.4858  218.9305 H   0  0  0  0  0  0  0  0  0  0  0  0
  141.7302   75.1605  218.7174 H   0  0  0  0  0  0  0  0  0  0  0  0
  143.6991   75.9167  219.8261 H   0  0  0  0  0  0  0  0  0  0  0  0
  145.9424   75.3298  220.7239 H   0  0  0  0  0  0  0  0  0  0  0  0
  146.4576   72.9785  221.3607 H   0  0  0  0  0  0  0  0  0  0  0  0
  144.7339   71.2057  221.1064 H   0  0  0  0  0  0  0  0  0  0  0  0
  141.2455   77.0425  218.9816 H   0  0  0  0  0  0  0  0  0  0  0  0
  142.0568   79.2845  219.3802 H   0  0  0  0  0  0  0  0  0  0  0  0
  142.8809   81.0034  220.9819 H   0  0  0  0  0  0  0  0  0  0  0  0
  143.1416   81.8629  223.3088 H   0  0  0  0  0  0  0  0  0  0  0  0
  142.3210   80.5149  225.2405 H   0  0  0  0  0  0  0  0  0  0  0  0
  141.2148   78.3147  224.8505 H   0  0  0  0  0  0  0  0  0  0  0  0
  141.0979   76.3652  223.1712 H   0  0  0  0  0  0  0  0  0  0  0  0
  138.4698   75.2282  222.8430 H   0  0  0  0  0  0  0  0  0  0  0  0
  136.1310   76.3430  223.1110 H   0  0  0  0  0  0  0  0  0  0  0  0
  135.1665   78.9062  223.1449 H   0  0  0  0  0  0  0  0  0  0  0  0
  135.8773   81.3164  222.9520 H   0  0  0  0  0  0  0  0  0  0  0  0
  138.2897   81.8931  222.6106 H   0  0  0  0  0  0  0  0  0  0  0  0
  140.0214   80.0652  222.4611 H   0  0  0  0  0  0  0  0  0  0  0  0
  1  2  2  0
  2  3  2  0
  2  4  1  0
  4  5  1  0
  5  6  2  0
  6  7  1  0
  7  8  2  0
  8  9  1  0
  9 10  2  0
 10 11  1  0
 11 12  1  0
 11 13  1  0
 11 14  1  0
  2 15  1  0
 15 16  1  0
 16 17  2  0
 17 18  1  0
 18 19  2  0
 19 20  1  0
 20 21  2  0
 21 22  1  0
 22 23  2  0
 23 24  1  0
 24 25  1  0
 25 26  2  0
 26 27  1  0
 27 28  1  0
 28 29  2  0
 29 30  1  0
 30 31  2  0
 31 32  1  0
 32 33  2  0
 10  5  1  0
 24 15  1  0
 33 25  1  0
 23 18  1  0
 33 28  1  0
  4 34  1  0
  4 35  1  0
  6 36  1  0
  7 37  1  0
  8 38  1  0
  9 39  1  0
 16 40  1  0
 17 41  1  0
 19 42  1  0
 20 43  1  0
 21 44  1  0
 22 45  1  0
 24 46  1  1
 26 47  1  0
 27 48  1  0
 29 49  1  0
 30 50  1  0
 31 51  1  0
 32 52  1  0
M  END
>  <UniqueID>  (24) 
2

>  <SMILES>  (24) 
O=S(=O)(Cc1ccccc1C(F)(F)F)N1C=Cc2ccccc2[C@H]1c1c[nH]c2ccccc12

>  <Energy>  (24) 
90.68583105846089

>  <Genealogy>  (24) 
O=S(=O)(Cc1ccccc1C(F)(F)F)N1C=Cc2ccccc2[C@H]1c1c[nH]c2ccccc12 (3D coordinates assigned)
O=S(=O)(Cc1ccccc1C(F)(F)F)N1C=Cc2ccccc2[C@H]1c1c[nH]c2ccccc12 (nonaromatic ring conformer: 90.68583105846089 kcal/mol)

>  <smiles>  (24) 
O=S(=O)(Cc1ccccc1C(F)(F)F)N1C=Cc2ccccc2[C@H]1c1c[nH]c2ccccc12

>  <score_type>  (24) 
oracle

>  <origin>  (24) 
autodockgpu

>  <m_score__min__energy>  (24) 
-8.0899999999999999

>  <m_primary>  (24) 
energy

>  <meeko>  (24) 
{"free_energy": -8.08, "intermolecular_energy": -9.57, "internal_energy": -1.92, "cluster_size": 3, "cluster_id": 1, "rank_in_cluster": 3}

>  <energy>  (24) 
-6.69

>  <cluster_rmsd>  (24) 
0.0

>  <rmsd>  (24) 
269.62

>  <cluster>  (24) 
2

$$$$
CYEMMKKIRZZUDR-DEOSSOPVNA-N
     RDKit          3D

 52 56  0  0  0  0  0  0  0  0999 V2000
  137.7200   77.9610  219.7190 O   0  0  0  0  0  0  0  0  0  0  0  0
  137.8210   79.4440  219.9450 S   0  0  0  0  0  0  0  0  0  0  0  0
  136.4570   79.9730  220.2860 O   0  0  0  0  0  0  0  0  0  0  0  0
  138.4490   80.2200  218.4630 C   0  0  0  0  0  0  0  0  0  0  0  0
  139.9490   80.0620  218.3670 C   0  0  0  0  0  0  0  0  0  0  0  0
  140.4440   78.8750  217.7960 C   0  0  0  0  0  0  0  0  0  0  0  0
  141.8140   78.6660  217.6530 C   0  0  0  0  0  0  0  0  0  0  0  0
  142.7150   79.6370  218.0810 C   0  0  0  0  0  0  0  0  0  0  0  0
  142.2500   80.8220  218.6510 C   0  0  0  0  0  0  0  0  0  0  0  0
  140.8680   81.0640  218.7960 C   0  0  0  0  0  0  0  0  0  0  0  0
  140.4040   82.3520  219.4540 C   0  0  0  0  0  0  0  0  0  0  0  0
  141.3240   82.7670  220.3970 F   0  0  0  0  0  0  0  0  0  0  0  0
  140.2570   83.3340  218.4920 F   0  0  0  0  0  0  0  0  0  0  0  0
  139.1870   82.1920  220.0960 F   0  0  0  0  0  0  0  0  0  0  0  0
  138.9100   79.7670  221.2590 N   0  0  0  0  0  0  0  0  0  0  0  0
  138.4140   80.5100  222.3850 C   0  0  0  0  0  0  0  0  0  0  0  0
  139.2340   80.9190  223.3500 C   0  0  0  0  0  0  0  0  0  0  0  0
  140.6760   80.6390  223.2760 C   0  0  0  0  0  0  0  0  0  0  0  0
  141.5510   81.1980  224.2200 C   0  0  0  0  0  0  0  0  0  0  0  0
  142.9240   80.9570  224.1350 C   0  0  0  0  0  0  0  0  0  0  0  0
  143.4320   80.1600  223.1070 C   0  0  0  0  0  0  0  0  0  0  0  0
  142.5690   79.5960  222.1660 C   0  0  0  0  0  0  0  0  0  0  0  0
  141.1850   79.8310  222.2400 C   0  0  0  0  0  0  0  0  0  0  0  0
  140.2510   79.1600  221.2560 C   0  0  1  0  0  0  0  0  0  0  0  0
  140.1440   77.6940  221.5860 C   0  0  0  0  0  0  0  0  0  0  0  0
  139.2180   77.1000  222.4420 C   0  0  0  0  0  0  0  0  0  0  0  0
  139.4450   75.7710  222.5340 N   0  0  0  0  0  0  0  0  0  0  0  0
  140.5100   75.5190  221.7540 C   0  0  0  0  0  0  0  0  0  0  0  0
  141.1270   74.2880  221.5400 C   0  0  0  0  0  0  0  0  0  0  0  0
  142.2450   74.2510  220.6880 C   0  0  0  0  0  0  0  0  0  0  0  0
  142.7200   75.4330  220.0790 C   0  0  0  0  0  0  0  0  0  0  0  0
  142.0790   76.6640  220.3140 C   0  0  0  0  0  0  0  0  0  0  0  0
  140.9690   76.6680  221.1620 C   0  0  0  0  0  0  0  0  0  0  0  0
  137.9804   79.7518  217.5848 H   0  0  0  0  0  0  0  0  0  0  0  0
  138.2097   81.2931  218.4991 H   0  0  0  0  0  0  0  0  0  0  0  0
  139.7393   78.1011  217.4577 H   0  0  0  0  0  0  0  0  0  0  0  0
  142.1838   77.7335  217.2018 H   0  0  0  0  0  0  0  0  0  0  0  0
  143.7964   79.4693  217.9694 H   0  0  0  0  0  0  0  0  0  0  0  0
  142.9715   81.5788  218.9924 H   0  0  0  0  0  0  0  0  0  0  0  0
  137.3411   80.7439  222.4500 H   0  0  0  0  0  0  0  0  0  0  0  0
  138.8296   81.4715  224.2109 H   0  0  0  0  0  0  0  0  0  0  0  0
  141.1541   81.8281  225.0296 H   0  0  0  0  0  0  0  0  0  0  0  0
  143.6059   81.3954  224.8785 H   0  0  0  0  0  0  0  0  0  0  0  0
  144.5144   79.9763  223.0387 H   0  0  0  0  0  0  0  0  0  0  0  0
  142.9742   78.9641  221.3620 H   0  0  0  0  0  0  0  0  0  0  0  0
  140.6728   79.2957  220.2492 H   0  0  0  0  0  0  0  0  0  0  0  0
  138.4155   77.6374  222.9685 H   0  0  0  0  0  0  0  0  0  0  0  0
  138.9060   75.0830  223.1060 H   0  0  0  0  0  0  0  0  0  0  0  0
  140.7512   73.3737  222.0225 H   0  0  0  0  0  0  0  0  0  0  0  0
  142.7530   73.2947  220.4946 H   0  0  0  0  0  0  0  0  0  0  0  0
  143.5970   75.3916  219.4163 H   0  0  0  0  0  0  0  0  0  0  0  0
  142.4400   77.5915  219.8456 H   0  0  0  0  0  0  0  0  0  0  0  0
  1  2  2  0
  2  3  2  0
  2  4  1  0
  4  5  1  0
  5  6  2  0
  6  7  1  0
  7  8  2  0
  8  9  1  0
  9 10  2  0
 10 11  1  0
 11 12  1  0
 11 13  1  0
 11 14  1  0
  2 15  1  0
 15 16  1  0
 16 17  2  0
 17 18  1  0
 18 19  2  0
 19 20  1  0
 20 21  2  0
 21 22  1  0
 22 23  2  0
 23 24  1  0
 24 25  1  0
 25 26  2  0
 26 27  1  0
 27 28  1  0
 28 29  2  0
 29 30  1  0
 30 31  2  0
 31 32  1  0
 32 33  2  0
 10  5  1  0
 24 15  1  0
 33 25  1  0
 23 18  1  0
 33 28  1  0
  4 34  1  0
  4 35  1  0
  6 36  1  0
  7 37  1  0
  8 38  1  0
  9 39  1  0
 16 40  1  0
 17 41  1  0
 19 42  1  0
 20 43  1  0
 21 44  1  0
 22 45  1  0
 24 46  1  6
 26 47  1  0
 27 48  1  0
 29 49  1  0
 30 50  1  0
 31 51  1  0
 32 52  1  0
M  END
>  <UniqueID>  (25) 
2

>  <SMILES>  (25) 
O=S(=O)(Cc1ccccc1C(F)(F)F)N1C=Cc2ccccc2[C@H]1c1c[nH]c2ccccc12

>  <Energy>  (25) 
90.68583105846089

>  <Genealogy>  (25) 
O=S(=O)(Cc1ccccc1C(F)(F)F)N1C=Cc2ccccc2[C@H]1c1c[nH]c2ccccc12 (3D coordinates assigned)
O=S(=O)(Cc1ccccc1C(F)(F)F)N1C=Cc2ccccc2[C@H]1c1c[nH]c2ccccc12 (nonaromatic ring conformer: 90.68583105846089 kcal/mol)

>  <smiles>  (25) 
O=S(=O)(Cc1ccccc1C(F)(F)F)N1C=Cc2ccccc2[C@H]1c1c[nH]c2ccccc12

>  <score_type>  (25) 
oracle

>  <origin>  (25) 
autodockgpu

>  <m_score__min__energy>  (25) 
-8.0899999999999999

>  <m_primary>  (25) 
energy

>  <meeko>  (25) 
{"free_energy": -6.68, "intermolecular_energy": -8.17, "internal_energy": -3.3, "cluster_size": 17, "cluster_id": 2, "rank_in_cluster": 9}

>  <energy>  (25) 
-6.69

>  <cluster_rmsd>  (25) 
0.06

>  <rmsd>  (25) 
269.62

>  <cluster>  (25) 
2

$$$$
CYEMMKKIRZZUDR-DEOSSOPVNA-N
     RDKit          3D

 52 56  0  0  0  0  0  0  0  0999 V2000
  137.7530   77.9460  219.6840 O   0  0  0  0  0  0  0  0  0  0  0  0
  137.8320   79.4280  219.9260 S   0  0  0  0  0  0  0  0  0  0  0  0
  136.4600   79.9330  220.2710 O   0  0  0  0  0  0  0  0  0  0  0  0
  138.4480   80.2300  218.4520 C   0  0  0  0  0  0  0  0  0  0  0  0
  139.9480   80.0770  218.3450 C   0  0  0  0  0  0  0  0  0  0  0  0
  140.4440   78.8990  217.7580 C   0  0  0  0  0  0  0  0  0  0  0  0
  141.8140   78.6970  217.6050 C   0  0  0  0  0  0  0  0  0  0  0  0
  142.7140   79.6670  218.0360 C   0  0  0  0  0  0  0  0  0  0  0  0
  142.2480   80.8440  218.6210 C   0  0  0  0  0  0  0  0  0  0  0  0
  140.8660   81.0790  218.7780 C   0  0  0  0  0  0  0  0  0  0  0  0
  140.4010   82.3590  219.4520 C   0  0  0  0  0  0  0  0  0  0  0  0
  141.3140   82.7540  220.4100 F   0  0  0  0  0  0  0  0  0  0  0  0
  140.2680   83.3570  218.5050 F   0  0  0  0  0  0  0  0  0  0  0  0
  139.1780   82.1940  220.0800 F   0  0  0  0  0  0  0  0  0  0  0  0
  138.9150   79.7550  221.2430 N   0  0  0  0  0  0  0  0  0  0  0  0
  138.4140   80.4980  222.3660 C   0  0  0  0  0  0  0  0  0  0  0  0
  139.2300   80.9100  223.3340 C   0  0  0  0  0  0  0  0  0  0  0  0
  140.6730   80.6320  223.2660 C   0  0  0  0  0  0  0  0  0  0  0  0
  141.5430   81.1930  224.2130 C   0  0  0  0  0  0  0  0  0  0  0  0
  142.9160   80.9540  224.1330 C   0  0  0  0  0  0  0  0  0  0  0  0
  143.4300   80.1560  223.1080 C   0  0  0  0  0  0  0  0  0  0  0  0
  142.5710   79.5900  222.1640 C   0  0  0  0  0  0  0  0  0  0  0  0
  141.1870   79.8230  222.2330 C   0  0  0  0  0  0  0  0  0  0  0  0
  140.2570   79.1500  221.2460 C   0  0  1  0  0  0  0  0  0  0  0  0
  140.1510   77.6840  221.5770 C   0  0  0  0  0  0  0  0  0  0  0  0
  139.2270   77.0910  222.4370 C   0  0  0  0  0  0  0  0  0  0  0  0
  139.4550   75.7620  222.5300 N   0  0  0  0  0  0  0  0  0  0  0  0
  140.5170   75.5090  221.7460 C   0  0  0  0  0  0  0  0  0  0  0  0
  141.1330   74.2770  221.5310 C   0  0  0  0  0  0  0  0  0  0  0  0
  142.2490   74.2400  220.6760 C   0  0  0  0  0  0  0  0  0  0  0  0
  142.7220   75.4220  220.0650 C   0  0  0  0  0  0  0  0  0  0  0  0
  142.0820   76.6520  220.3010 C   0  0  0  0  0  0  0  0  0  0  0  0
  140.9750   76.6580  221.1520 C   0  0  0  0  0  0  0  0  0  0  0  0
  137.9751   79.7748  217.5693 H   0  0  0  0  0  0  0  0  0  0  0  0
  138.2057   81.3016  218.5061 H   0  0  0  0  0  0  0  0  0  0  0  0
  139.7403   78.1263  217.4149 H   0  0  0  0  0  0  0  0  0  0  0  0
  142.1846   77.7700  217.1431 H   0  0  0  0  0  0  0  0  0  0  0  0
  143.7953   79.5050  217.9150 H   0  0  0  0  0  0  0  0  0  0  0  0
  142.9688   81.6003  218.9651 H   0  0  0  0  0  0  0  0  0  0  0  0
  137.3404   80.7299  222.4269 H   0  0  0  0  0  0  0  0  0  0  0  0
  138.8215   81.4633  224.1924 H   0  0  0  0  0  0  0  0  0  0  0  0
  141.1421   81.8229  225.0207 H   0  0  0  0  0  0  0  0  0  0  0  0
  143.5944   81.3948  224.8783 H   0  0  0  0  0  0  0  0  0  0  0  0
  144.5129   79.9733  223.0446 H   0  0  0  0  0  0  0  0  0  0  0  0
  142.9799   78.9582  221.3618 H   0  0  0  0  0  0  0  0  0  0  0  0
  140.6821   79.2859  220.2406 H   0  0  0  0  0  0  0  0  0  0  0  0
  138.4258   77.6289  222.9650 H   0  0  0  0  0  0  0  0  0  0  0  0
  138.9170   75.0740  223.1040 H   0  0  0  0  0  0  0  0  0  0  0  0
  140.7581   73.3630  222.0147 H   0  0  0  0  0  0  0  0  0  0  0  0
  142.7569   73.2838  220.4818 H   0  0  0  0  0  0  0  0  0  0  0  0
  143.5971   75.3805  219.3998 H   0  0  0  0  0  0  0  0  0  0  0  0
  142.4418   77.5789  219.8305 H   0  0  0  0  0  0  0  0  0  0  0  0
  1  2  2  0
  2  3  2  0
  2  4  1  0
  4  5  1  0
  5  6  2  0
  6  7  1  0
  7  8  2  0
  8  9  1  0
  9 10  2  0
 10 11  1  0
 11 12  1  0
 11 13  1  0
 11 14  1  0
  2 15  1  0
 15 16  1  0
 16 17  2  0
 17 18  1  0
 18 19  2  0
 19 20  1  0
 20 21  2  0
 21 22  1  0
 22 23  2  0
 23 24  1  0
 24 25  1  0
 25 26  2  0
 26 27  1  0
 27 28  1  0
 28 29  2  0
 29 30  1  0
 30 31  2  0
 31 32  1  0
 32 33  2  0
 10  5  1  0
 24 15  1  0
 33 25  1  0
 23 18  1  0
 33 28  1  0
  4 34  1  0
  4 35  1  0
  6 36  1  0
  7 37  1  0
  8 38  1  0
  9 39  1  0
 16 40  1  0
 17 41  1  0
 19 42  1  0
 20 43  1  0
 21 44  1  0
 22 45  1  0
 24 46  1  6
 26 47  1  0
 27 48  1  0
 29 49  1  0
 30 50  1  0
 31 51  1  0
 32 52  1  0
M  END
>  <UniqueID>  (26) 
2

>  <SMILES>  (26) 
O=S(=O)(Cc1ccccc1C(F)(F)F)N1C=Cc2ccccc2[C@H]1c1c[nH]c2ccccc12

>  <Energy>  (26) 
90.68583105846089

>  <Genealogy>  (26) 
O=S(=O)(Cc1ccccc1C(F)(F)F)N1C=Cc2ccccc2[C@H]1c1c[nH]c2ccccc12 (3D coordinates assigned)
O=S(=O)(Cc1ccccc1C(F)(F)F)N1C=Cc2ccccc2[C@H]1c1c[nH]c2ccccc12 (nonaromatic ring conformer: 90.68583105846089 kcal/mol)

>  <smiles>  (26) 
O=S(=O)(Cc1ccccc1C(F)(F)F)N1C=Cc2ccccc2[C@H]1c1c[nH]c2ccccc12

>  <score_type>  (26) 
oracle

>  <origin>  (26) 
autodockgpu

>  <m_score__min__energy>  (26) 
-8.0899999999999999

>  <m_primary>  (26) 
energy

>  <meeko>  (26) 
{"free_energy": -6.67, "intermolecular_energy": -8.17, "internal_energy": -3.31, "cluster_size": 17, "cluster_id": 2, "rank_in_cluster": 14}

>  <energy>  (26) 
-6.69

>  <cluster_rmsd>  (26) 
0.03

>  <rmsd>  (26) 
269.62

>  <cluster>  (26) 
2

$$$$
CYEMMKKIRZZUDR-DEOSSOPVNA-N
     RDKit          3D

 52 56  0  0  0  0  0  0  0  0999 V2000
  137.7140   77.9620  219.7220 O   0  0  0  0  0  0  0  0  0  0  0  0
  137.8260   79.4440  219.9440 S   0  0  0  0  0  0  0  0  0  0  0  0
  136.4650   79.9840  220.2840 O   0  0  0  0  0  0  0  0  0  0  0  0
  138.4590   80.2130  218.4600 C   0  0  0  0  0  0  0  0  0  0  0  0
  139.9570   80.0380  218.3610 C   0  0  0  0  0  0  0  0  0  0  0  0
  140.4370   78.8430  217.7950 C   0  0  0  0  0  0  0  0  0  0  0  0
  141.8050   78.6190  217.6500 C   0  0  0  0  0  0  0  0  0  0  0  0
  142.7170   79.5830  218.0690 C   0  0  0  0  0  0  0  0  0  0  0  0
  142.2660   80.7770  218.6330 C   0  0  0  0  0  0  0  0  0  0  0  0
  140.8870   81.0340  218.7810 C   0  0  0  0  0  0  0  0  0  0  0  0
  140.4380   82.3310  219.4320 C   0  0  0  0  0  0  0  0  0  0  0  0
  141.3630   82.7390  220.3730 F   0  0  0  0  0  0  0  0  0  0  0  0
  140.3020   83.3090  218.4660 F   0  0  0  0  0  0  0  0  0  0  0  0
  139.2200   82.1880  220.0750 F   0  0  0  0  0  0  0  0  0  0  0  0
  138.9170   79.7640  221.2570 N   0  0  0  0  0  0  0  0  0  0  0  0
  138.4240   80.5060  222.3840 C   0  0  0  0  0  0  0  0  0  0  0  0
  139.2460   80.9130  223.3490 C   0  0  0  0  0  0  0  0  0  0  0  0
  140.6870   80.6300  223.2730 C   0  0  0  0  0  0  0  0  0  0  0  0
  141.5640   81.1860  224.2170 C   0  0  0  0  0  0  0  0  0  0  0  0
  142.9370   80.9420  224.1290 C   0  0  0  0  0  0  0  0  0  0  0  0
  143.4420   80.1450  223.1000 C   0  0  0  0  0  0  0  0  0  0  0  0
  142.5760   79.5840  222.1590 C   0  0  0  0  0  0  0  0  0  0  0  0
  141.1930   79.8220  222.2360 C   0  0  0  0  0  0  0  0  0  0  0  0
  140.2570   79.1540  221.2520 C   0  0  1  0  0  0  0  0  0  0  0  0
  140.1470   77.6880  221.5790 C   0  0  0  0  0  0  0  0  0  0  0  0
  139.2190   77.0950  222.4340 C   0  0  0  0  0  0  0  0  0  0  0  0
  139.4440   75.7650  222.5260 N   0  0  0  0  0  0  0  0  0  0  0  0
  140.5100   75.5130  221.7460 C   0  0  0  0  0  0  0  0  0  0  0  0
  141.1240   74.2800  221.5310 C   0  0  0  0  0  0  0  0  0  0  0  0
  142.2440   74.2430  220.6800 C   0  0  0  0  0  0  0  0  0  0  0  0
  142.7210   75.4250  220.0730 C   0  0  0  0  0  0  0  0  0  0  0  0
  142.0820   76.6560  220.3090 C   0  0  0  0  0  0  0  0  0  0  0  0
  140.9710   76.6620  221.1550 C   0  0  0  0  0  0  0  0  0  0  0  0
  137.9832   79.7500  217.5830 H   0  0  0  0  0  0  0  0  0  0  0  0
  138.2316   81.2886  218.4962 H   0  0  0  0  0  0  0  0  0  0  0  0
  139.7231   78.0750  217.4624 H   0  0  0  0  0  0  0  0  0  0  0  0
  142.1640   77.6797  217.2041 H   0  0  0  0  0  0  0  0  0  0  0  0
  143.7962   79.4033  217.9553 H   0  0  0  0  0  0  0  0  0  0  0  0
  142.9964   81.5286  218.9670 H   0  0  0  0  0  0  0  0  0  0  0  0
  137.3515   80.7413  222.4506 H   0  0  0  0  0  0  0  0  0  0  0  0
  138.8437   81.4658  224.2107 H   0  0  0  0  0  0  0  0  0  0  0  0
  141.1695   81.8155  225.0283 H   0  0  0  0  0  0  0  0  0  0  0  0
  143.6210   81.3786  224.8716 H   0  0  0  0  0  0  0  0  0  0  0  0
  144.5239   79.9586  223.0304 H   0  0  0  0  0  0  0  0  0  0  0  0
  142.9784   78.9525  221.3532 H   0  0  0  0  0  0  0  0  0  0  0  0
  140.6787   79.2901  220.2452 H   0  0  0  0  0  0  0  0  0  0  0  0
  138.4167   77.6334  222.9597 H   0  0  0  0  0  0  0  0  0  0  0  0
  138.9030   75.0770  223.0960 H   0  0  0  0  0  0  0  0  0  0  0  0
  140.7452   73.3657  222.0111 H   0  0  0  0  0  0  0  0  0  0  0  0
  142.7514   73.2864  220.4863 H   0  0  0  0  0  0  0  0  0  0  0  0
  143.5984   75.3832  219.4109 H   0  0  0  0  0  0  0  0  0  0  0  0
  142.4456   77.5834  219.8424 H   0  0  0  0  0  0  0  0  0  0  0  0
  1  2  2  0
  2  3  2  0
  2  4  1  0
  4  5  1  0
  5  6  2  0
  6  7  1  0
  7  8  2  0
  8  9  1  0
  9 10  2  0
 10 11  1  0
 11 12  1  0
 11 13  1  0
 11 14  1  0
  2 15  1  0
 15 16  1  0
 16 17  2  0
 17 18  1  0
 18 19  2  0
 19 20  1  0
 20 21  2  0
 21 22  1  0
 22 23  2  0
 23 24  1  0
 24 25  1  0
 25 26  2  0
 26 27  1  0
 27 28  1  0
 28 29  2  0
 29 30  1  0
 30 31  2  0
 31 32  1  0
 32 33  2  0
 10  5  1  0
 24 15  1  0
 33 25  1  0
 23 18  1  0
 33 28  1  0
  4 34  1  0
  4 35  1  0
  6 36  1  0
  7 37  1  0
  8 38  1  0
  9 39  1  0
 16 40  1  0
 17 41  1  0
 19 42  1  0
 20 43  1  0
 21 44  1  0
 22 45  1  0
 24 46  1  6
 26 47  1  0
 27 48  1  0
 29 49  1  0
 30 50  1  0
 31 51  1  0
 32 52  1  0
M  END
>  <UniqueID>  (27) 
2

>  <SMILES>  (27) 
O=S(=O)(Cc1ccccc1C(F)(F)F)N1C=Cc2ccccc2[C@H]1c1c[nH]c2ccccc12

>  <Energy>  (27) 
90.68583105846089

>  <Genealogy>  (27) 
O=S(=O)(Cc1ccccc1C(F)(F)F)N1C=Cc2ccccc2[C@H]1c1c[nH]c2ccccc12 (3D coordinates assigned)
O=S(=O)(Cc1ccccc1C(F)(F)F)N1C=Cc2ccccc2[C@H]1c1c[nH]c2ccccc12 (nonaromatic ring conformer: 90.68583105846089 kcal/mol)

>  <smiles>  (27) 
O=S(=O)(Cc1ccccc1C(F)(F)F)N1C=Cc2ccccc2[C@H]1c1c[nH]c2ccccc12

>  <score_type>  (27) 
oracle

>  <origin>  (27) 
autodockgpu

>  <m_score__min__energy>  (27) 
-8.0899999999999999

>  <m_primary>  (27) 
energy

>  <meeko>  (27) 
{"free_energy": -6.69, "intermolecular_energy": -8.18, "internal_energy": -3.31, "cluster_size": 17, "cluster_id": 2, "rank_in_cluster": 1}

>  <energy>  (27) 
-6.68

>  <cluster_rmsd>  (27) 
0.04

>  <rmsd>  (27) 
269.63

>  <cluster>  (27) 
2

$$$$
CYEMMKKIRZZUDR-DEOSSOPVNA-N
     RDKit          3D

 52 56  0  0  0  0  0  0  0  0999 V2000
  137.7030   77.9490  219.7420 O   0  0  0  0  0  0  0  0  0  0  0  0
  137.8140   79.4330  219.9620 S   0  0  0  0  0  0  0  0  0  0  0  0
  136.4550   79.9720  220.3070 O   0  0  0  0  0  0  0  0  0  0  0  0
  138.4400   80.1990  218.4730 C   0  0  0  0  0  0  0  0  0  0  0  0
  139.9400   80.0440  218.3780 C   0  0  0  0  0  0  0  0  0  0  0  0
  140.4370   78.8540  217.8160 C   0  0  0  0  0  0  0  0  0  0  0  0
  141.8080   78.6470  217.6750 C   0  0  0  0  0  0  0  0  0  0  0  0
  142.7070   79.6240  218.0930 C   0  0  0  0  0  0  0  0  0  0  0  0
  142.2390   80.8130  218.6530 C   0  0  0  0  0  0  0  0  0  0  0  0
  140.8560   81.0530  218.7970 C   0  0  0  0  0  0  0  0  0  0  0  0
  140.3890   82.3450  219.4440 C   0  0  0  0  0  0  0  0  0  0  0  0
  141.3190   82.7820  220.3670 F   0  0  0  0  0  0  0  0  0  0  0  0
  140.2170   83.3120  218.4710 F   0  0  0  0  0  0  0  0  0  0  0  0
  139.1840   82.1820  220.1070 F   0  0  0  0  0  0  0  0  0  0  0  0
  138.9120   79.7550  221.2690 N   0  0  0  0  0  0  0  0  0  0  0  0
  138.4250   80.5030  222.3950 C   0  0  0  0  0  0  0  0  0  0  0  0
  139.2520   80.9120  223.3540 C   0  0  0  0  0  0  0  0  0  0  0  0
  140.6920   80.6260  223.2740 C   0  0  0  0  0  0  0  0  0  0  0  0
  141.5740   81.1830  224.2120 C   0  0  0  0  0  0  0  0  0  0  0  0
  142.9460   80.9360  224.1190 C   0  0  0  0  0  0  0  0  0  0  0  0
  143.4450   80.1340  223.0910 C   0  0  0  0  0  0  0  0  0  0  0  0
  142.5740   79.5710  222.1560 C   0  0  0  0  0  0  0  0  0  0  0  0
  141.1920   79.8120  222.2370 C   0  0  0  0  0  0  0  0  0  0  0  0
  140.2500   79.1420  221.2600 C   0  0  1  0  0  0  0  0  0  0  0  0
  140.1390   77.6780  221.5940 C   0  0  0  0  0  0  0  0  0  0  0  0
  139.2140   77.0900  222.4570 C   0  0  0  0  0  0  0  0  0  0  0  0
  139.4360   75.7610  222.5520 N   0  0  0  0  0  0  0  0  0  0  0  0
  140.4970   75.5020  221.7670 C   0  0  0  0  0  0  0  0  0  0  0  0
  141.1070   74.2670  221.5530 C   0  0  0  0  0  0  0  0  0  0  0  0
  142.2210   74.2240  220.6960 C   0  0  0  0  0  0  0  0  0  0  0  0
  142.6980   75.4020  220.0820 C   0  0  0  0  0  0  0  0  0  0  0  0
  142.0630   76.6360  220.3170 C   0  0  0  0  0  0  0  0  0  0  0  0
  140.9570   76.6480  221.1690 C   0  0  0  0  0  0  0  0  0  0  0  0
  137.9724   79.7226  217.5987 H   0  0  0  0  0  0  0  0  0  0  0  0
  138.1981   81.2717  218.5006 H   0  0  0  0  0  0  0  0  0  0  0  0
  139.7339   78.0762  217.4833 H   0  0  0  0  0  0  0  0  0  0  0  0
  142.1799   77.7109  217.2331 H   0  0  0  0  0  0  0  0  0  0  0  0
  143.7887   79.4583  217.9816 H   0  0  0  0  0  0  0  0  0  0  0  0
  142.9588   81.5747  218.9872 H   0  0  0  0  0  0  0  0  0  0  0  0
  137.3533   80.7409  222.4653 H   0  0  0  0  0  0  0  0  0  0  0  0
  138.8544   81.4695  224.2149 H   0  0  0  0  0  0  0  0  0  0  0  0
  141.1843   81.8159  225.0229 H   0  0  0  0  0  0  0  0  0  0  0  0
  143.6341   81.3741  224.8569 H   0  0  0  0  0  0  0  0  0  0  0  0
  144.5262   79.9453  223.0174 H   0  0  0  0  0  0  0  0  0  0  0  0
  142.9720   78.9352  221.3514 H   0  0  0  0  0  0  0  0  0  0  0  0
  140.6666   79.2728  220.2504 H   0  0  0  0  0  0  0  0  0  0  0  0
  138.4162   77.6323  222.9857 H   0  0  0  0  0  0  0  0  0  0  0  0
  138.8970   75.0760  223.1280 H   0  0  0  0  0  0  0  0  0  0  0  0
  140.7291   73.3554  222.0389 H   0  0  0  0  0  0  0  0  0  0  0  0
  142.7244   73.2652  220.5027 H   0  0  0  0  0  0  0  0  0  0  0  0
  143.5718   75.3554  219.4154 H   0  0  0  0  0  0  0  0  0  0  0  0
  142.4263   77.5607  219.8448 H   0  0  0  0  0  0  0  0  0  0  0  0
  1  2  2  0
  2  3  2  0
  2  4  1  0
  4  5  1  0
  5  6  2  0
  6  7  1  0
  7  8  2  0
  8  9  1  0
  9 10  2  0
 10 11  1  0
 11 12  1  0
 11 13  1  0
 11 14  1  0
  2 15  1  0
 15 16  1  0
 16 17  2  0
 17 18  1  0
 18 19  2  0
 19 20  1  0
 20 21  2  0
 21 22  1  0
 22 23  2  0
 23 24  1  0
 24 25  1  0
 25 26  2  0
 26 27  1  0
 27 28  1  0
 28 29  2  0
 29 30  1  0
 30 31  2  0
 31 32  1  0
 32 33  2  0
 10  5  1  0
 24 15  1  0
 33 25  1  0
 23 18  1  0
 33 28  1  0
  4 34  1  0
  4 35  1  0
  6 36  1  0
  7 37  1  0
  8 38  1  0
  9 39  1  0
 16 40  1  0
 17 41  1  0
 19 42  1  0
 20 43  1  0
 21 44  1  0
 22 45  1  0
 24 46  1  6
 26 47  1  0
 27 48  1  0
 29 49  1  0
 30 50  1  0
 31 51  1  0
 32 52  1  0
M  END
>  <UniqueID>  (28) 
2

>  <SMILES>  (28) 
O=S(=O)(Cc1ccccc1C(F)(F)F)N1C=Cc2ccccc2[C@H]1c1c[nH]c2ccccc12

>  <Energy>  (28) 
90.68583105846089

>  <Genealogy>  (28) 
O=S(=O)(Cc1ccccc1C(F)(F)F)N1C=Cc2ccccc2[C@H]1c1c[nH]c2ccccc12 (3D coordinates assigned)
O=S(=O)(Cc1ccccc1C(F)(F)F)N1C=Cc2ccccc2[C@H]1c1c[nH]c2ccccc12 (nonaromatic ring conformer: 90.68583105846089 kcal/mol)

>  <smiles>  (28) 
O=S(=O)(Cc1ccccc1C(F)(F)F)N1C=Cc2ccccc2[C@H]1c1c[nH]c2ccccc12

>  <score_type>  (28) 
oracle

>  <origin>  (28) 
autodockgpu

>  <m_score__min__energy>  (28) 
-8.0899999999999999

>  <m_primary>  (28) 
energy

>  <meeko>  (28) 
{"free_energy": -6.69, "intermolecular_energy": -8.18, "internal_energy": -3.31, "cluster_size": 17, "cluster_id": 2, "rank_in_cluster": 3}

>  <energy>  (28) 
-6.68

>  <cluster_rmsd>  (28) 
0.04

>  <rmsd>  (28) 
269.61

>  <cluster>  (28) 
2

$$$$
CYEMMKKIRZZUDR-DEOSSOPVNA-N
     RDKit          3D

 52 56  0  0  0  0  0  0  0  0999 V2000
  137.7270   77.9430  219.7040 O   0  0  0  0  0  0  0  0  0  0  0  0
  137.8280   79.4260  219.9310 S   0  0  0  0  0  0  0  0  0  0  0  0
  136.4640   79.9550  220.2730 O   0  0  0  0  0  0  0  0  0  0  0  0
  138.4540   80.2040  218.4490 C   0  0  0  0  0  0  0  0  0  0  0  0
  139.9510   80.0240  218.3380 C   0  0  0  0  0  0  0  0  0  0  0  0
  140.4230   78.8270  217.7700 C   0  0  0  0  0  0  0  0  0  0  0  0
  141.7890   78.5990  217.6140 C   0  0  0  0  0  0  0  0  0  0  0  0
  142.7080   79.5610  218.0260 C   0  0  0  0  0  0  0  0  0  0  0  0
  142.2650   80.7560  218.5920 C   0  0  0  0  0  0  0  0  0  0  0  0
  140.8870   81.0180  218.7500 C   0  0  0  0  0  0  0  0  0  0  0  0
  140.4480   82.3160  219.4030 C   0  0  0  0  0  0  0  0  0  0  0  0
  141.3880   82.7300  220.3270 F   0  0  0  0  0  0  0  0  0  0  0  0
  140.2940   83.2910  218.4350 F   0  0  0  0  0  0  0  0  0  0  0  0
  139.2410   82.1750  220.0670 F   0  0  0  0  0  0  0  0  0  0  0  0
  138.9180   79.7490  221.2440 N   0  0  0  0  0  0  0  0  0  0  0  0
  138.4270   80.5020  222.3650 C   0  0  0  0  0  0  0  0  0  0  0  0
  139.2500   80.9120  223.3280 C   0  0  0  0  0  0  0  0  0  0  0  0
  140.6900   80.6210  223.2570 C   0  0  0  0  0  0  0  0  0  0  0  0
  141.5670   81.1780  224.1990 C   0  0  0  0  0  0  0  0  0  0  0  0
  142.9390   80.9260  224.1150 C   0  0  0  0  0  0  0  0  0  0  0  0
  143.4420   80.1190  223.0930 C   0  0  0  0  0  0  0  0  0  0  0  0
  142.5750   79.5560  222.1540 C   0  0  0  0  0  0  0  0  0  0  0  0
  141.1930   79.8020  222.2260 C   0  0  0  0  0  0  0  0  0  0  0  0
  140.2550   79.1320  221.2460 C   0  0  1  0  0  0  0  0  0  0  0  0
  140.1370   77.6700  221.5840 C   0  0  0  0  0  0  0  0  0  0  0  0
  139.2080   77.0880  222.4450 C   0  0  0  0  0  0  0  0  0  0  0  0
  139.4250   75.7580  222.5450 N   0  0  0  0  0  0  0  0  0  0  0  0
  140.4850   75.4930  221.7640 C   0  0  0  0  0  0  0  0  0  0  0  0
  141.0910   74.2540  221.5550 C   0  0  0  0  0  0  0  0  0  0  0  0
  142.2070   74.2040  220.7000 C   0  0  0  0  0  0  0  0  0  0  0  0
  142.6900   75.3790  220.0830 C   0  0  0  0  0  0  0  0  0  0  0  0
  142.0600   76.6150  220.3130 C   0  0  0  0  0  0  0  0  0  0  0  0
  140.9520   76.6340  221.1630 C   0  0  0  0  0  0  0  0  0  0  0  0
  137.9703   79.7498  217.5717 H   0  0  0  0  0  0  0  0  0  0  0  0
  138.2313   81.2802  218.4954 H   0  0  0  0  0  0  0  0  0  0  0  0
  139.7043   78.0605  217.4445 H   0  0  0  0  0  0  0  0  0  0  0  0
  142.1416   77.6586  217.1652 H   0  0  0  0  0  0  0  0  0  0  0  0
  143.7858   79.3777  217.9047 H   0  0  0  0  0  0  0  0  0  0  0  0
  143.0002   81.5055  218.9202 H   0  0  0  0  0  0  0  0  0  0  0  0
  137.3557   80.7432  222.4285 H   0  0  0  0  0  0  0  0  0  0  0  0
  138.8492   81.4736  224.1847 H   0  0  0  0  0  0  0  0  0  0  0  0
  141.1742   81.8145  225.0056 H   0  0  0  0  0  0  0  0  0  0  0  0
  143.6240   81.3644  224.8557 H   0  0  0  0  0  0  0  0  0  0  0  0
  144.5230   79.9262  223.0272 H   0  0  0  0  0  0  0  0  0  0  0  0
  142.9758   78.9166  221.3537 H   0  0  0  0  0  0  0  0  0  0  0  0
  140.6788   79.2586  220.2388 H   0  0  0  0  0  0  0  0  0  0  0  0
  138.4103   77.6346  222.9694 H   0  0  0  0  0  0  0  0  0  0  0  0
  138.8810   75.0770  223.1220 H   0  0  0  0  0  0  0  0  0  0  0  0
  140.7085   73.3454  222.0430 H   0  0  0  0  0  0  0  0  0  0  0  0
  142.7071   73.2427  220.5106 H   0  0  0  0  0  0  0  0  0  0  0  0
  143.5648   75.3270  219.4181 H   0  0  0  0  0  0  0  0  0  0  0  0
  142.4279   77.5369  219.8389 H   0  0  0  0  0  0  0  0  0  0  0  0
  1  2  2  0
  2  3  2  0
  2  4  1  0
  4  5  1  0
  5  6  2  0
  6  7  1  0
  7  8  2  0
  8  9  1  0
  9 10  2  0
 10 11  1  0
 11 12  1  0
 11 13  1  0
 11 14  1  0
  2 15  1  0
 15 16  1  0
 16 17  2  0
 17 18  1  0
 18 19  2  0
 19 20  1  0
 20 21  2  0
 21 22  1  0
 22 23  2  0
 23 24  1  0
 24 25  1  0
 25 26  2  0
 26 27  1  0
 27 28  1  0
 28 29  2  0
 29 30  1  0
 30 31  2  0
 31 32  1  0
 32 33  2  0
 10  5  1  0
 24 15  1  0
 33 25  1  0
 23 18  1  0
 33 28  1  0
  4 34  1  0
  4 35  1  0
  6 36  1  0
  7 37  1  0
  8 38  1  0
  9 39  1  0
 16 40  1  0
 17 41  1  0
 19 42  1  0
 20 43  1  0
 21 44  1  0
 22 45  1  0
 24 46  1  6
 26 47  1  0
 27 48  1  0
 29 49  1  0
 30 50  1  0
 31 51  1  0
 32 52  1  0
M  END
>  <UniqueID>  (29) 
2

>  <SMILES>  (29) 
O=S(=O)(Cc1ccccc1C(F)(F)F)N1C=Cc2ccccc2[C@H]1c1c[nH]c2ccccc12

>  <Energy>  (29) 
90.68583105846089

>  <Genealogy>  (29) 
O=S(=O)(Cc1ccccc1C(F)(F)F)N1C=Cc2ccccc2[C@H]1c1c[nH]c2ccccc12 (3D coordinates assigned)
O=S(=O)(Cc1ccccc1C(F)(F)F)N1C=Cc2ccccc2[C@H]1c1c[nH]c2ccccc12 (nonaromatic ring conformer: 90.68583105846089 kcal/mol)

>  <smiles>  (29) 
O=S(=O)(Cc1ccccc1C(F)(F)F)N1C=Cc2ccccc2[C@H]1c1c[nH]c2ccccc12

>  <score_type>  (29) 
oracle

>  <origin>  (29) 
autodockgpu

>  <m_score__min__energy>  (29) 
-8.0899999999999999

>  <m_primary>  (29) 
energy

>  <meeko>  (29) 
{"free_energy": -6.67, "intermolecular_energy": -8.16, "internal_energy": -3.32, "cluster_size": 17, "cluster_id": 2, "rank_in_cluster": 15}

>  <energy>  (29) 
-6.68

>  <cluster_rmsd>  (29) 
0.08

>  <rmsd>  (29) 
269.61

>  <cluster>  (29) 
2

$$$$
CYEMMKKIRZZUDR-DEOSSOPVNA-N
     RDKit          3D

 52 56  0  0  0  0  0  0  0  0999 V2000
  140.7680   74.0880  221.9690 O   0  0  0  0  0  0  0  0  0  0  0  0
  140.5310   74.9360  220.7500 S   0  0  0  0  0  0  0  0  0  0  0  0
  139.0820   74.8350  220.3670 O   0  0  0  0  0  0  0  0  0  0  0  0
  141.5780   74.3580  219.4220 C   0  0  0  0  0  0  0  0  0  0  0  0
  142.9260   73.9240  219.9500 C   0  0  0  0  0  0  0  0  0  0  0  0
  143.9190   74.9100  220.0920 C   0  0  0  0  0  0  0  0  0  0  0  0
  145.1790   74.5900  220.5930 C   0  0  0  0  0  0  0  0  0  0  0  0
  145.4710   73.2790  220.9580 C   0  0  0  0  0  0  0  0  0  0  0  0
  144.5040   72.2830  220.8260 C   0  0  0  0  0  0  0  0  0  0  0  0
  143.2160   72.5820  220.3330 C   0  0  0  0  0  0  0  0  0  0  0  0
  142.2040   71.4610  220.1720 C   0  0  0  0  0  0  0  0  0  0  0  0
  142.8480   70.2430  220.0810 F   0  0  0  0  0  0  0  0  0  0  0  0
  141.3500   71.4510  221.2590 F   0  0  0  0  0  0  0  0  0  0  0  0
  141.4410   71.6190  219.0270 F   0  0  0  0  0  0  0  0  0  0  0  0
  140.9220   76.5930  221.0980 N   0  0  0  0  0  0  0  0  0  0  0  0
  141.3180   77.4400  220.0080 C   0  0  0  0  0  0  0  0  0  0  0  0
  141.7740   78.6710  220.2290 C   0  0  0  0  0  0  0  0  0  0  0  0
  141.9030   79.1880  221.6000 C   0  0  0  0  0  0  0  0  0  0  0  0
  142.5170   80.4280  221.8300 C   0  0  0  0  0  0  0  0  0  0  0  0
  142.6670   80.9060  223.1330 C   0  0  0  0  0  0  0  0  0  0  0  0
  142.2070   80.1510  224.2140 C   0  0  0  0  0  0  0  0  0  0  0  0
  141.5890   78.9180  223.9940 C   0  0  0  0  0  0  0  0  0  0  0  0
  141.4330   78.4250  222.6870 C   0  0  0  0  0  0  0  0  0  0  0  0
  140.7010   77.1200  222.4550 C   0  0  1  0  0  0  0  0  0  0  0  0
  139.2270   77.3240  222.6860 C   0  0  0  0  0  0  0  0  0  0  0  0
  138.2640   76.3270  222.8340 C   0  0  0  0  0  0  0  0  0  0  0  0
  137.0370   76.8740  222.9820 N   0  0  0  0  0  0  0  0  0  0  0  0
  137.2120   78.2050  222.9200 C   0  0  0  0  0  0  0  0  0  0  0  0
  136.2300   79.1900  223.0090 C   0  0  0  0  0  0  0  0  0  0  0  0
  136.6340   80.5330  222.9050 C   0  0  0  0  0  0  0  0  0  0  0  0
  137.9940   80.8580  222.7120 C   0  0  0  0  0  0  0  0  0  0  0  0
  138.9650   79.8440  222.6240 C   0  0  0  0  0  0  0  0  0  0  0  0
  138.5340   78.5200  222.7340 C   0  0  0  0  0  0  0  0  0  0  0  0
  141.0931   73.5041  218.9263 H   0  0  0  0  0  0  0  0  0  0  0  0
  141.7279   75.1813  218.7080 H   0  0  0  0  0  0  0  0  0  0  0  0
  143.6977   75.9482  219.8035 H   0  0  0  0  0  0  0  0  0  0  0  0
  145.9434   75.3738  220.7002 H   0  0  0  0  0  0  0  0  0  0  0  0
  146.4670   73.0279  221.3515 H   0  0  0  0  0  0  0  0  0  0  0  0
  144.7488   71.2490  221.1104 H   0  0  0  0  0  0  0  0  0  0  0  0
  141.2435   77.0664  218.9761 H   0  0  0  0  0  0  0  0  0  0  0  0
  142.0571   79.3078  219.3780 H   0  0  0  0  0  0  0  0  0  0  0  0
  142.8813   81.0254  220.9813 H   0  0  0  0  0  0  0  0  0  0  0  0
  143.1485   81.8793  223.3086 H   0  0  0  0  0  0  0  0  0  0  0  0
  142.3315   80.5278  225.2399 H   0  0  0  0  0  0  0  0  0  0  0  0
  141.2224   78.3296  224.8481 H   0  0  0  0  0  0  0  0  0  0  0  0
  141.1000   76.3812  223.1656 H   0  0  0  0  0  0  0  0  0  0  0  0
  138.4733   75.2471  222.8308 H   0  0  0  0  0  0  0  0  0  0  0  0
  136.1350   76.3620  223.1080 H   0  0  0  0  0  0  0  0  0  0  0  0
  135.1725   78.9253  223.1559 H   0  0  0  0  0  0  0  0  0  0  0  0
  135.8851   81.3357  222.9745 H   0  0  0  0  0  0  0  0  0  0  0  0
  138.2969   81.9123  222.6298 H   0  0  0  0  0  0  0  0  0  0  0  0
  140.0276   80.0856  222.4737 H   0  0  0  0  0  0  0  0  0  0  0  0
  1  2  2  0
  2  3  2  0
  2  4  1  0
  4  5  1  0
  5  6  2  0
  6  7  1  0
  7  8  2  0
  8  9  1  0
  9 10  2  0
 10 11  1  0
 11 12  1  0
 11 13  1  0
 11 14  1  0
  2 15  1  0
 15 16  1  0
 16 17  2  0
 17 18  1  0
 18 19  2  0
 19 20  1  0
 20 21  2  0
 21 22  1  0
 22 23  2  0
 23 24  1  0
 24 25  1  0
 25 26  2  0
 26 27  1  0
 27 28  1  0
 28 29  2  0
 29 30  1  0
 30 31  2  0
 31 32  1  0
 32 33  2  0
 10  5  1  0
 24 15  1  0
 33 25  1  0
 23 18  1  0
 33 28  1  0
  4 34  1  0
  4 35  1  0
  6 36  1  0
  7 37  1  0
  8 38  1  0
  9 39  1  0
 16 40  1  0
 17 41  1  0
 19 42  1  0
 20 43  1  0
 21 44  1  0
 22 45  1  0
 24 46  1  1
 26 47  1  0
 27 48  1  0
 29 49  1  0
 30 50  1  0
 31 51  1  0
 32 52  1  0
M  END
>  <UniqueID>  (30) 
2

>  <SMILES>  (30) 
O=S(=O)(Cc1ccccc1C(F)(F)F)N1C=Cc2ccccc2[C@H]1c1c[nH]c2ccccc12

>  <Energy>  (30) 
90.68583105846089

>  <Genealogy>  (30) 
O=S(=O)(Cc1ccccc1C(F)(F)F)N1C=Cc2ccccc2[C@H]1c1c[nH]c2ccccc12 (3D coordinates assigned)
O=S(=O)(Cc1ccccc1C(F)(F)F)N1C=Cc2ccccc2[C@H]1c1c[nH]c2ccccc12 (nonaromatic ring conformer: 90.68583105846089 kcal/mol)

>  <smiles>  (30) 
O=S(=O)(Cc1ccccc1C(F)(F)F)N1C=Cc2ccccc2[C@H]1c1c[nH]c2ccccc12

>  <score_type>  (30) 
oracle

>  <origin>  (30) 
autodockgpu

>  <m_score__min__energy>  (30) 
-8.0899999999999999

>  <m_primary>  (30) 
energy

>  <meeko>  (30) 
{"free_energy": -8.09, "intermolecular_energy": -9.58, "internal_energy": -1.92, "cluster_size": 3, "cluster_id": 1, "rank_in_cluster": 1}

>  <energy>  (30) 
-6.68

>  <cluster_rmsd>  (30) 
0.02

>  <rmsd>  (30) 
269.61

>  <cluster>  (30) 
2

$$$$
CYEMMKKIRZZUDR-DEOSSOPVNA-N
     RDKit          3D

 52 56  0  0  0  0  0  0  0  0999 V2000
  137.6980   77.9330  219.7420 O   0  0  0  0  0  0  0  0  0  0  0  0
  137.8060   79.4180  219.9530 S   0  0  0  0  0  0  0  0  0  0  0  0
  136.4460   79.9570  220.2910 O   0  0  0  0  0  0  0  0  0  0  0  0
  138.4350   80.1770  218.4630 C   0  0  0  0  0  0  0  0  0  0  0  0
  139.9380   80.0420  218.3830 C   0  0  0  0  0  0  0  0  0  0  0  0
  140.4580   78.8550  217.8350 C   0  0  0  0  0  0  0  0  0  0  0  0
  141.8330   78.6670  217.7080 C   0  0  0  0  0  0  0  0  0  0  0  0
  142.7130   79.6590  218.1290 C   0  0  0  0  0  0  0  0  0  0  0  0
  142.2240   80.8450  218.6760 C   0  0  0  0  0  0  0  0  0  0  0  0
  140.8360   81.0660  218.8050 C   0  0  0  0  0  0  0  0  0  0  0  0
  140.3450   82.3560  219.4380 C   0  0  0  0  0  0  0  0  0  0  0  0
  141.2520   82.8040  220.3780 F   0  0  0  0  0  0  0  0  0  0  0  0
  140.1840   83.3190  218.4590 F   0  0  0  0  0  0  0  0  0  0  0  0
  139.1280   82.1840  220.0770 F   0  0  0  0  0  0  0  0  0  0  0  0
  138.8990   79.7500  221.2620 N   0  0  0  0  0  0  0  0  0  0  0  0
  138.4100   80.5080  222.3800 C   0  0  0  0  0  0  0  0  0  0  0  0
  139.2340   80.9230  223.3390 C   0  0  0  0  0  0  0  0  0  0  0  0
  140.6740   80.6340  223.2660 C   0  0  0  0  0  0  0  0  0  0  0  0
  141.5540   81.1970  224.2030 C   0  0  0  0  0  0  0  0  0  0  0  0
  142.9250   80.9470  224.1170 C   0  0  0  0  0  0  0  0  0  0  0  0
  143.4270   80.1360  223.0980 C   0  0  0  0  0  0  0  0  0  0  0  0
  142.5590   79.5660  222.1640 C   0  0  0  0  0  0  0  0  0  0  0  0
  141.1770   79.8110  222.2380 C   0  0  0  0  0  0  0  0  0  0  0  0
  140.2370   79.1350  221.2630 C   0  0  1  0  0  0  0  0  0  0  0  0
  140.1220   77.6730  221.6090 C   0  0  0  0  0  0  0  0  0  0  0  0
  139.2020   77.0960  222.4840 C   0  0  0  0  0  0  0  0  0  0  0  0
  139.4190   75.7660  222.5870 N   0  0  0  0  0  0  0  0  0  0  0  0
  140.4710   75.4970  221.7950 C   0  0  0  0  0  0  0  0  0  0  0  0
  141.0740   74.2580  221.5850 C   0  0  0  0  0  0  0  0  0  0  0  0
  142.1800   74.2030  220.7180 C   0  0  0  0  0  0  0  0  0  0  0  0
  142.6560   75.3740  220.0910 C   0  0  0  0  0  0  0  0  0  0  0  0
  142.0300   76.6130  220.3220 C   0  0  0  0  0  0  0  0  0  0  0  0
  140.9320   76.6360  221.1850 C   0  0  0  0  0  0  0  0  0  0  0  0
  137.9821   79.6854  217.5894 H   0  0  0  0  0  0  0  0  0  0  0  0
  138.1782   81.2465  218.4776 H   0  0  0  0  0  0  0  0  0  0  0  0
  139.7695   78.0643  217.5022 H   0  0  0  0  0  0  0  0  0  0  0  0
  142.2227   77.7340  217.2747 H   0  0  0  0  0  0  0  0  0  0  0  0
  143.7980   79.5073  218.0301 H   0  0  0  0  0  0  0  0  0  0  0  0
  142.9299   81.6190  219.0116 H   0  0  0  0  0  0  0  0  0  0  0  0
  137.3386   80.7489  222.4443 H   0  0  0  0  0  0  0  0  0  0  0  0
  138.8342   81.4875  224.1943 H   0  0  0  0  0  0  0  0  0  0  0  0
  141.1626   81.8370  225.0075 H   0  0  0  0  0  0  0  0  0  0  0  0
  143.6110   81.3902  224.8539 H   0  0  0  0  0  0  0  0  0  0  0  0
  144.5083   79.9454  223.0304 H   0  0  0  0  0  0  0  0  0  0  0  0
  142.9589   78.9223  221.3667 H   0  0  0  0  0  0  0  0  0  0  0  0
  140.6576   79.2576  220.2540 H   0  0  0  0  0  0  0  0  0  0  0  0
  138.4112   77.6458  223.0154 H   0  0  0  0  0  0  0  0  0  0  0  0
  138.8820   75.0890  223.1740 H   0  0  0  0  0  0  0  0  0  0  0  0
  140.6968   73.3519  222.0817 H   0  0  0  0  0  0  0  0  0  0  0  0
  142.6773   73.2405  220.5274 H   0  0  0  0  0  0  0  0  0  0  0  0
  143.5231   75.3180  219.4165 H   0  0  0  0  0  0  0  0  0  0  0  0
  142.3931   77.5323  219.8392 H   0  0  0  0  0  0  0  0  0  0  0  0
  1  2  2  0
  2  3  2  0
  2  4  1  0
  4  5  1  0
  5  6  2  0
  6  7  1  0
  7  8  2  0
  8  9  1  0
  9 10  2  0
 10 11  1  0
 11 12  1  0
 11 13  1  0
 11 14  1  0
  2 15  1  0
 15 16  1  0
 16 17  2  0
 17 18  1  0
 18 19  2  0
 19 20  1  0
 20 21  2  0
 21 22  1  0
 22 23  2  0
 23 24  1  0
 24 25  1  0
 25 26  2  0
 26 27  1  0
 27 28  1  0
 28 29  2  0
 29 30  1  0
 30 31  2  0
 31 32  1  0
 32 33  2  0
 10  5  1  0
 24 15  1  0
 33 25  1  0
 23 18  1  0
 33 28  1  0
  4 34  1  0
  4 35  1  0
  6 36  1  0
  7 37  1  0
  8 38  1  0
  9 39  1  0
 16 40  1  0
 17 41  1  0
 19 42  1  0
 20 43  1  0
 21 44  1  0
 22 45  1  0
 24 46  1  6
 26 47  1  0
 27 48  1  0
 29 49  1  0
 30 50  1  0
 31 51  1  0
 32 52  1  0
M  END
>  <UniqueID>  (31) 
2

>  <SMILES>  (31) 
O=S(=O)(Cc1ccccc1C(F)(F)F)N1C=Cc2ccccc2[C@H]1c1c[nH]c2ccccc12

>  <Energy>  (31) 
90.68583105846089

>  <Genealogy>  (31) 
O=S(=O)(Cc1ccccc1C(F)(F)F)N1C=Cc2ccccc2[C@H]1c1c[nH]c2ccccc12 (3D coordinates assigned)
O=S(=O)(Cc1ccccc1C(F)(F)F)N1C=Cc2ccccc2[C@H]1c1c[nH]c2ccccc12 (nonaromatic ring conformer: 90.68583105846089 kcal/mol)

>  <smiles>  (31) 
O=S(=O)(Cc1ccccc1C(F)(F)F)N1C=Cc2ccccc2[C@H]1c1c[nH]c2ccccc12

>  <score_type>  (31) 
oracle

>  <origin>  (31) 
autodockgpu

>  <m_score__min__energy>  (31) 
-8.0899999999999999

>  <m_primary>  (31) 
energy

>  <meeko>  (31) 
{"free_energy": -6.68, "intermolecular_energy": -8.17, "internal_energy": -3.31, "cluster_size": 17, "cluster_id": 2, "rank_in_cluster": 10}

>  <energy>  (31) 
-6.68

>  <cluster_rmsd>  (31) 
0.04

>  <rmsd>  (31) 
269.6

>  <cluster>  (31) 
2

$$$$
CYEMMKKIRZZUDR-DEOSSOPVNA-N
     RDKit          3D

 52 56  0  0  0  0  0  0  0  0999 V2000
  137.7490   77.9450  219.6740 O   0  0  0  0  0  0  0  0  0  0  0  0
  137.8460   79.4280  219.9020 S   0  0  0  0  0  0  0  0  0  0  0  0
  136.4790   79.9550  220.2330 O   0  0  0  0  0  0  0  0  0  0  0  0
  138.4840   80.2070  218.4260 C   0  0  0  0  0  0  0  0  0  0  0  0
  139.9800   80.0190  218.3220 C   0  0  0  0  0  0  0  0  0  0  0  0
  140.4490   78.8240  217.7470 C   0  0  0  0  0  0  0  0  0  0  0  0
  141.8140   78.5890  217.5970 C   0  0  0  0  0  0  0  0  0  0  0  0
  142.7360   79.5410  218.0210 C   0  0  0  0  0  0  0  0  0  0  0  0
  142.2970   80.7350  218.5940 C   0  0  0  0  0  0  0  0  0  0  0  0
  140.9200   81.0040  218.7470 C   0  0  0  0  0  0  0  0  0  0  0  0
  140.4850   82.3000  219.4080 C   0  0  0  0  0  0  0  0  0  0  0  0
  141.4150   82.6930  220.3500 F   0  0  0  0  0  0  0  0  0  0  0  0
  140.3570   83.2870  218.4490 F   0  0  0  0  0  0  0  0  0  0  0  0
  139.2660   82.1640  220.0520 F   0  0  0  0  0  0  0  0  0  0  0  0
  138.9240   79.7530  221.2240 N   0  0  0  0  0  0  0  0  0  0  0  0
  138.4210   80.5000  222.3440 C   0  0  0  0  0  0  0  0  0  0  0  0
  139.2340   80.9110  223.3140 C   0  0  0  0  0  0  0  0  0  0  0  0
  140.6750   80.6270  223.2540 C   0  0  0  0  0  0  0  0  0  0  0  0
  141.5430   81.1850  224.2040 C   0  0  0  0  0  0  0  0  0  0  0  0
  142.9160   80.9410  224.1310 C   0  0  0  0  0  0  0  0  0  0  0  0
  143.4320   80.1390  223.1100 C   0  0  0  0  0  0  0  0  0  0  0  0
  142.5750   79.5740  222.1630 C   0  0  0  0  0  0  0  0  0  0  0  0
  141.1910   79.8140  222.2250 C   0  0  0  0  0  0  0  0  0  0  0  0
  140.2640   79.1420  221.2350 C   0  0  1  0  0  0  0  0  0  0  0  0
  140.1500   77.6780  221.5680 C   0  0  0  0  0  0  0  0  0  0  0  0
  139.2210   77.0900  222.4260 C   0  0  0  0  0  0  0  0  0  0  0  0
  139.4420   75.7600  222.5210 N   0  0  0  0  0  0  0  0  0  0  0  0
  140.5060   75.5010  221.7410 C   0  0  0  0  0  0  0  0  0  0  0  0
  141.1160   74.2660  221.5290 C   0  0  0  0  0  0  0  0  0  0  0  0
  142.2340   74.2230  220.6770 C   0  0  0  0  0  0  0  0  0  0  0  0
  142.7140   75.4010  220.0660 C   0  0  0  0  0  0  0  0  0  0  0  0
  142.0800   76.6350  220.2980 C   0  0  0  0  0  0  0  0  0  0  0  0
  140.9700   76.6470  221.1460 C   0  0  0  0  0  0  0  0  0  0  0  0
  138.0023   79.7583  217.5447 H   0  0  0  0  0  0  0  0  0  0  0  0
  138.2672   81.2843  218.4748 H   0  0  0  0  0  0  0  0  0  0  0  0
  139.7279   78.0643  217.4110 H   0  0  0  0  0  0  0  0  0  0  0  0
  142.1632   77.6499  217.1429 H   0  0  0  0  0  0  0  0  0  0  0  0
  143.8133   79.3518  217.9042 H   0  0  0  0  0  0  0  0  0  0  0  0
  143.0350   81.4776  218.9315 H   0  0  0  0  0  0  0  0  0  0  0  0
  137.3480   80.7355  222.4002 H   0  0  0  0  0  0  0  0  0  0  0  0
  138.8238   81.4686  224.1689 H   0  0  0  0  0  0  0  0  0  0  0  0
  141.1408   81.8171  225.0094 H   0  0  0  0  0  0  0  0  0  0  0  0
  143.5924   81.3810  224.8786 H   0  0  0  0  0  0  0  0  0  0  0  0
  144.5145   79.9523  223.0519 H   0  0  0  0  0  0  0  0  0  0  0  0
  142.9848   78.9380  221.3645 H   0  0  0  0  0  0  0  0  0  0  0  0
  140.6954   79.2732  220.2317 H   0  0  0  0  0  0  0  0  0  0  0  0
  138.4211   77.6323  222.9514 H   0  0  0  0  0  0  0  0  0  0  0  0
  138.9000   75.0760  223.0950 H   0  0  0  0  0  0  0  0  0  0  0  0
  140.7353   73.3543  222.0125 H   0  0  0  0  0  0  0  0  0  0  0  0
  142.7380   73.2642  220.4855 H   0  0  0  0  0  0  0  0  0  0  0  0
  143.5907   75.3539  219.4032 H   0  0  0  0  0  0  0  0  0  0  0  0
  142.4460   77.5595  219.8275 H   0  0  0  0  0  0  0  0  0  0  0  0
  1  2  2  0
  2  3  2  0
  2  4  1  0
  4  5  1  0
  5  6  2  0
  6  7  1  0
  7  8  2  0
  8  9  1  0
  9 10  2  0
 10 11  1  0
 11 12  1  0
 11 13  1  0
 11 14  1  0
  2 15  1  0
 15 16  1  0
 16 17  2  0
 17 18  1  0
 18 19  2  0
 19 20  1  0
 20 21  2  0
 21 22  1  0
 22 23  2  0
 23 24  1  0
 24 25  1  0
 25 26  2  0
 26 27  1  0
 27 28  1  0
 28 29  2  0
 29 30  1  0
 30 31  2  0
 31 32  1  0
 32 33  2  0
 10  5  1  0
 24 15  1  0
 33 25  1  0
 23 18  1  0
 33 28  1  0
  4 34  1  0
  4 35  1  0
  6 36  1  0
  7 37  1  0
  8 38  1  0
  9 39  1  0
 16 40  1  0
 17 41  1  0
 19 42  1  0
 20 43  1  0
 21 44  1  0
 22 45  1  0
 24 46  1  6
 26 47  1  0
 27 48  1  0
 29 49  1  0
 30 50  1  0
 31 51  1  0
 32 52  1  0
M  END
>  <UniqueID>  (32) 
2

>  <SMILES>  (32) 
O=S(=O)(Cc1ccccc1C(F)(F)F)N1C=Cc2ccccc2[C@H]1c1c[nH]c2ccccc12

>  <Energy>  (32) 
90.68583105846089

>  <Genealogy>  (32) 
O=S(=O)(Cc1ccccc1C(F)(F)F)N1C=Cc2ccccc2[C@H]1c1c[nH]c2ccccc12 (3D coordinates assigned)
O=S(=O)(Cc1ccccc1C(F)(F)F)N1C=Cc2ccccc2[C@H]1c1c[nH]c2ccccc12 (nonaromatic ring conformer: 90.68583105846089 kcal/mol)

>  <smiles>  (32) 
O=S(=O)(Cc1ccccc1C(F)(F)F)N1C=Cc2ccccc2[C@H]1c1c[nH]c2ccccc12

>  <score_type>  (32) 
oracle

>  <origin>  (32) 
autodockgpu

>  <m_score__min__energy>  (32) 
-8.0899999999999999

>  <m_primary>  (32) 
energy

>  <meeko>  (32) 
{"free_energy": -6.68, "intermolecular_energy": -8.17, "internal_energy": -3.32, "cluster_size": 17, "cluster_id": 2, "rank_in_cluster": 8}

>  <energy>  (32) 
-6.68

>  <cluster_rmsd>  (32) 
0.03

>  <rmsd>  (32) 
269.62

>  <cluster>  (32) 
2

$$$$
CYEMMKKIRZZUDR-DEOSSOPVNA-N
     RDKit          3D

 52 56  0  0  0  0  0  0  0  0999 V2000
  140.7880   74.0740  221.9730 O   0  0  0  0  0  0  0  0  0  0  0  0
  140.5430   74.9230  220.7560 S   0  0  0  0  0  0  0  0  0  0  0  0
  139.0910   74.8210  220.3830 O   0  0  0  0  0  0  0  0  0  0  0  0
  141.5810   74.3470  219.4200 C   0  0  0  0  0  0  0  0  0  0  0  0
  142.9330   73.9130  219.9390 C   0  0  0  0  0  0  0  0  0  0  0  0
  143.9150   74.9050  220.1110 C   0  0  0  0  0  0  0  0  0  0  0  0
  145.1770   74.5850  220.6050 C   0  0  0  0  0  0  0  0  0  0  0  0
  145.4830   73.2680  220.9350 C   0  0  0  0  0  0  0  0  0  0  0  0
  144.5270   72.2650  220.7750 C   0  0  0  0  0  0  0  0  0  0  0  0
  143.2370   72.5630  220.2870 C   0  0  0  0  0  0  0  0  0  0  0  0
  142.2360   71.4380  220.0940 C   0  0  0  0  0  0  0  0  0  0  0  0
  141.5500   71.6050  218.9070 F   0  0  0  0  0  0  0  0  0  0  0  0
  142.9020   70.2270  220.0730 F   0  0  0  0  0  0  0  0  0  0  0  0
  141.3030   71.3990  221.1160 F   0  0  0  0  0  0  0  0  0  0  0  0
  140.9340   76.5790  221.1030 N   0  0  0  0  0  0  0  0  0  0  0  0
  141.3410   77.4230  220.0130 C   0  0  0  0  0  0  0  0  0  0  0  0
  141.7980   78.6540  220.2340 C   0  0  0  0  0  0  0  0  0  0  0  0
  141.9170   79.1740  221.6040 C   0  0  0  0  0  0  0  0  0  0  0  0
  142.5320   80.4130  221.8360 C   0  0  0  0  0  0  0  0  0  0  0  0
  142.6720   80.8950  223.1400 C   0  0  0  0  0  0  0  0  0  0  0  0
  142.2010   80.1440  224.2180 C   0  0  0  0  0  0  0  0  0  0  0  0
  141.5820   78.9120  223.9970 C   0  0  0  0  0  0  0  0  0  0  0  0
  141.4360   78.4150  222.6900 C   0  0  0  0  0  0  0  0  0  0  0  0
  140.7040   77.1110  222.4560 C   0  0  1  0  0  0  0  0  0  0  0  0
  139.2280   77.3190  222.6740 C   0  0  0  0  0  0  0  0  0  0  0  0
  138.2610   76.3240  222.8180 C   0  0  0  0  0  0  0  0  0  0  0  0
  137.0340   76.8740  222.9540 N   0  0  0  0  0  0  0  0  0  0  0  0
  137.2130   78.2050  222.8880 C   0  0  0  0  0  0  0  0  0  0  0  0
  136.2320   79.1930  222.9660 C   0  0  0  0  0  0  0  0  0  0  0  0
  136.6400   80.5350  222.8600 C   0  0  0  0  0  0  0  0  0  0  0  0
  138.0020   80.8560  222.6770 C   0  0  0  0  0  0  0  0  0  0  0  0
  138.9710   79.8390  222.6010 C   0  0  0  0  0  0  0  0  0  0  0  0
  138.5370   78.5160  222.7130 C   0  0  0  0  0  0  0  0  0  0  0  0
  141.0932   73.4934  218.9266 H   0  0  0  0  0  0  0  0  0  0  0  0
  141.7256   75.1709  218.7056 H   0  0  0  0  0  0  0  0  0  0  0  0
  143.6828   75.9485  219.8516 H   0  0  0  0  0  0  0  0  0  0  0  0
  145.9327   75.3738  220.7345 H   0  0  0  0  0  0  0  0  0  0  0  0
  146.4813   73.0174  221.3230 H   0  0  0  0  0  0  0  0  0  0  0  0
  144.7824   71.2266  221.0330 H   0  0  0  0  0  0  0  0  0  0  0  0
  141.2740   77.0466  218.9816 H   0  0  0  0  0  0  0  0  0  0  0  0
  142.0893   79.2879  219.3835 H   0  0  0  0  0  0  0  0  0  0  0  0
  142.9052   81.0071  220.9888 H   0  0  0  0  0  0  0  0  0  0  0  0
  143.1541   81.8677  223.3172 H   0  0  0  0  0  0  0  0  0  0  0  0
  142.3177   80.5234  225.2439 H   0  0  0  0  0  0  0  0  0  0  0  0
  141.2067   78.3274  224.8498 H   0  0  0  0  0  0  0  0  0  0  0  0
  141.0966   76.3739  223.1720 H   0  0  0  0  0  0  0  0  0  0  0  0
  138.4680   75.2437  222.8205 H   0  0  0  0  0  0  0  0  0  0  0  0
  136.1300   76.3650  223.0750 H   0  0  0  0  0  0  0  0  0  0  0  0
  135.1728   78.9312  223.1060 H   0  0  0  0  0  0  0  0  0  0  0  0
  135.8924   81.3397  222.9202 H   0  0  0  0  0  0  0  0  0  0  0  0
  138.3082   81.9092  222.5932 H   0  0  0  0  0  0  0  0  0  0  0  0
  140.0352   80.0777  222.4581 H   0  0  0  0  0  0  0  0  0  0  0  0
  1  2  2  0
  2  3  2  0
  2  4  1  0
  4  5  1  0
  5  6  2  0
  6  7  1  0
  7  8  2  0
  8  9  1  0
  9 10  2  0
 10 11  1  0
 11 12  1  0
 11 13  1  0
 11 14  1  0
  2 15  1  0
 15 16  1  0
 16 17  2  0
 17 18  1  0
 18 19  2  0
 19 20  1  0
 20 21  2  0
 21 22  1  0
 22 23  2  0
 23 24  1  0
 24 25  1  0
 25 26  2  0
 26 27  1  0
 27 28  1  0
 28 29  2  0
 29 30  1  0
 30 31  2  0
 31 32  1  0
 32 33  2  0
 10  5  1  0
 24 15  1  0
 33 25  1  0
 23 18  1  0
 33 28  1  0
  4 34  1  0
  4 35  1  0
  6 36  1  0
  7 37  1  0
  8 38  1  0
  9 39  1  0
 16 40  1  0
 17 41  1  0
 19 42  1  0
 20 43  1  0
 21 44  1  0
 22 45  1  0
 24 46  1  1
 26 47  1  0
 27 48  1  0
 29 49  1  0
 30 50  1  0
 31 51  1  0
 32 52  1  0
M  END
>  <UniqueID>  (33) 
2

>  <SMILES>  (33) 
O=S(=O)(Cc1ccccc1C(F)(F)F)N1C=Cc2ccccc2[C@H]1c1c[nH]c2ccccc12

>  <Energy>  (33) 
90.68583105846089

>  <Genealogy>  (33) 
O=S(=O)(Cc1ccccc1C(F)(F)F)N1C=Cc2ccccc2[C@H]1c1c[nH]c2ccccc12 (3D coordinates assigned)
O=S(=O)(Cc1ccccc1C(F)(F)F)N1C=Cc2ccccc2[C@H]1c1c[nH]c2ccccc12 (nonaromatic ring conformer: 90.68583105846089 kcal/mol)

>  <smiles>  (33) 
O=S(=O)(Cc1ccccc1C(F)(F)F)N1C=Cc2ccccc2[C@H]1c1c[nH]c2ccccc12

>  <score_type>  (33) 
oracle

>  <origin>  (33) 
autodockgpu

>  <m_score__min__energy>  (33) 
-8.0899999999999999

>  <m_primary>  (33) 
energy

>  <meeko>  (33) 
{"free_energy": -8.08, "intermolecular_energy": -9.57, "internal_energy": -1.92, "cluster_size": 3, "cluster_id": 1, "rank_in_cluster": 2}

>  <energy>  (33) 
-6.68

>  <cluster_rmsd>  (33) 
0.06

>  <rmsd>  (33) 
269.62

>  <cluster>  (33) 
2

$$$$
CYEMMKKIRZZUDR-DEOSSOPVNA-N
     RDKit          3D

 52 56  0  0  0  0  0  0  0  0999 V2000
  137.6870   77.9360  219.7390 O   0  0  0  0  0  0  0  0  0  0  0  0
  137.7890   79.4190  219.9630 S   0  0  0  0  0  0  0  0  0  0  0  0
  136.4270   79.9490  220.3110 O   0  0  0  0  0  0  0  0  0  0  0  0
  138.4090   80.1950  218.4770 C   0  0  0  0  0  0  0  0  0  0  0  0
  139.9120   80.0700  218.3920 C   0  0  0  0  0  0  0  0  0  0  0  0
  140.4380   78.8930  217.8300 C   0  0  0  0  0  0  0  0  0  0  0  0
  141.8140   78.7150  217.6980 C   0  0  0  0  0  0  0  0  0  0  0  0
  142.6890   79.7090  218.1270 C   0  0  0  0  0  0  0  0  0  0  0  0
  142.1930   80.8850  218.6870 C   0  0  0  0  0  0  0  0  0  0  0  0
  140.8040   81.0960  218.8220 C   0  0  0  0  0  0  0  0  0  0  0  0
  140.3070   82.3760  219.4700 C   0  0  0  0  0  0  0  0  0  0  0  0
  141.1980   82.8030  220.4360 F   0  0  0  0  0  0  0  0  0  0  0  0
  140.1680   83.3580  218.5070 F   0  0  0  0  0  0  0  0  0  0  0  0
  139.0780   82.1970  220.0830 F   0  0  0  0  0  0  0  0  0  0  0  0
  138.8850   79.7450  221.2710 N   0  0  0  0  0  0  0  0  0  0  0  0
  138.3970   80.4950  222.3950 C   0  0  0  0  0  0  0  0  0  0  0  0
  139.2230   80.9050  223.3550 C   0  0  0  0  0  0  0  0  0  0  0  0
  140.6640   80.6200  223.2760 C   0  0  0  0  0  0  0  0  0  0  0  0
  141.5450   81.1790  224.2130 C   0  0  0  0  0  0  0  0  0  0  0  0
  142.9170   80.9330  224.1220 C   0  0  0  0  0  0  0  0  0  0  0  0
  143.4170   80.1300  223.0960 C   0  0  0  0  0  0  0  0  0  0  0  0
  142.5470   79.5650  222.1610 C   0  0  0  0  0  0  0  0  0  0  0  0
  141.1650   79.8050  222.2410 C   0  0  0  0  0  0  0  0  0  0  0  0
  140.2240   79.1330  221.2640 C   0  0  1  0  0  0  0  0  0  0  0  0
  140.1140   77.6690  221.6010 C   0  0  0  0  0  0  0  0  0  0  0  0
  139.1890   77.0820  222.4640 C   0  0  0  0  0  0  0  0  0  0  0  0
  139.4120   75.7530  222.5610 N   0  0  0  0  0  0  0  0  0  0  0  0
  140.4730   75.4940  221.7770 C   0  0  0  0  0  0  0  0  0  0  0  0
  141.0840   74.2590  221.5660 C   0  0  0  0  0  0  0  0  0  0  0  0
  142.1980   74.2150  220.7090 C   0  0  0  0  0  0  0  0  0  0  0  0
  142.6740   75.3920  220.0930 C   0  0  0  0  0  0  0  0  0  0  0  0
  142.0390   76.6260  220.3250 C   0  0  0  0  0  0  0  0  0  0  0  0
  140.9330   76.6390  221.1780 C   0  0  0  0  0  0  0  0  0  0  0  0
  137.9567   79.7080  217.6005 H   0  0  0  0  0  0  0  0  0  0  0  0
  138.1454   81.2627  218.5012 H   0  0  0  0  0  0  0  0  0  0  0  0
  139.7538   78.1017  217.4898 H   0  0  0  0  0  0  0  0  0  0  0  0
  142.2086   77.7888  217.2547 H   0  0  0  0  0  0  0  0  0  0  0  0
  143.7748   79.5660  218.0238 H   0  0  0  0  0  0  0  0  0  0  0  0
  142.8945   81.6602  219.0288 H   0  0  0  0  0  0  0  0  0  0  0  0
  137.3254   80.7339  222.4633 H   0  0  0  0  0  0  0  0  0  0  0  0
  138.8243   81.4622  224.2155 H   0  0  0  0  0  0  0  0  0  0  0  0
  141.1543   81.8133  225.0223 H   0  0  0  0  0  0  0  0  0  0  0  0
  143.6041   81.3727  224.8599 H   0  0  0  0  0  0  0  0  0  0  0  0
  144.4984   79.9417  223.0236 H   0  0  0  0  0  0  0  0  0  0  0  0
  142.9460   78.9285  221.3574 H   0  0  0  0  0  0  0  0  0  0  0  0
  140.6410   79.2628  220.2544 H   0  0  0  0  0  0  0  0  0  0  0  0
  138.3905   77.6245  222.9913 H   0  0  0  0  0  0  0  0  0  0  0  0
  138.8730   75.0690  223.1390 H   0  0  0  0  0  0  0  0  0  0  0  0
  140.7069   73.3482  222.0541 H   0  0  0  0  0  0  0  0  0  0  0  0
  142.7020   73.2562  220.5174 H   0  0  0  0  0  0  0  0  0  0  0  0
  143.5479   75.3444  219.4266 H   0  0  0  0  0  0  0  0  0  0  0  0
  142.4015   77.5498  219.8504 H   0  0  0  0  0  0  0  0  0  0  0  0
  1  2  2  0
  2  3  2  0
  2  4  1  0
  4  5  1  0
  5  6  2  0
  6  7  1  0
  7  8  2  0
  8  9  1  0
  9 10  2  0
 10 11  1  0
 11 12  1  0
 11 13  1  0
 11 14  1  0
  2 15  1  0
 15 16  1  0
 16 17  2  0
 17 18  1  0
 18 19  2  0
 19 20  1  0
 20 21  2  0
 21 22  1  0
 22 23  2  0
 23 24  1  0
 24 25  1  0
 25 26  2  0
 26 27  1  0
 27 28  1  0
 28 29  2  0
 29 30  1  0
 30 31  2  0
 31 32  1  0
 32 33  2  0
 10  5  1  0
 24 15  1  0
 33 25  1  0
 23 18  1  0
 33 28  1  0
  4 34  1  0
  4 35  1  0
  6 36  1  0
  7 37  1  0
  8 38  1  0
  9 39  1  0
 16 40  1  0
 17 41  1  0
 19 42  1  0
 20 43  1  0
 21 44  1  0
 22 45  1  0
 24 46  1  6
 26 47  1  0
 27 48  1  0
 29 49  1  0
 30 50  1  0
 31 51  1  0
 32 52  1  0
M  END
>  <UniqueID>  (34) 
2

>  <SMILES>  (34) 
O=S(=O)(Cc1ccccc1C(F)(F)F)N1C=Cc2ccccc2[C@H]1c1c[nH]c2ccccc12

>  <Energy>  (34) 
90.68583105846089

>  <Genealogy>  (34) 
O=S(=O)(Cc1ccccc1C(F)(F)F)N1C=Cc2ccccc2[C@H]1c1c[nH]c2ccccc12 (3D coordinates assigned)
O=S(=O)(Cc1ccccc1C(F)(F)F)N1C=Cc2ccccc2[C@H]1c1c[nH]c2ccccc12 (nonaromatic ring conformer: 90.68583105846089 kcal/mol)

>  <smiles>  (34) 
O=S(=O)(Cc1ccccc1C(F)(F)F)N1C=Cc2ccccc2[C@H]1c1c[nH]c2ccccc12

>  <score_type>  (34) 
oracle

>  <origin>  (34) 
autodockgpu

>  <m_score__min__energy>  (34) 
-8.0899999999999999

>  <m_primary>  (34) 
energy

>  <meeko>  (34) 
{"free_energy": -6.68, "intermolecular_energy": -8.17, "internal_energy": -3.31, "cluster_size": 17, "cluster_id": 2, "rank_in_cluster": 6}

>  <energy>  (34) 
-6.68

>  <cluster_rmsd>  (34) 
0.05

>  <rmsd>  (34) 
269.62

>  <cluster>  (34) 
2

$$$$
CYEMMKKIRZZUDR-DEOSSOPVNA-N
     RDKit          3D

 52 56  0  0  0  0  0  0  0  0999 V2000
  137.6730   77.9570  219.7630 O   0  0  0  0  0  0  0  0  0  0  0  0
  137.7960   79.4400  219.9740 S   0  0  0  0  0  0  0  0  0  0  0  0
  136.4420   79.9920  220.3190 O   0  0  0  0  0  0  0  0  0  0  0  0
  138.4240   80.1940  218.4800 C   0  0  0  0  0  0  0  0  0  0  0  0
  139.9260   80.0540  218.3970 C   0  0  0  0  0  0  0  0  0  0  0  0
  140.4400   78.8660  217.8460 C   0  0  0  0  0  0  0  0  0  0  0  0
  141.8140   78.6730  217.7160 C   0  0  0  0  0  0  0  0  0  0  0  0
  142.6990   79.6610  218.1360 C   0  0  0  0  0  0  0  0  0  0  0  0
  142.2150   80.8480  218.6850 C   0  0  0  0  0  0  0  0  0  0  0  0
  140.8280   81.0750  218.8170 C   0  0  0  0  0  0  0  0  0  0  0  0
  140.3430   82.3660  219.4520 C   0  0  0  0  0  0  0  0  0  0  0  0
  141.2510   82.8070  220.3950 F   0  0  0  0  0  0  0  0  0  0  0  0
  140.1890   83.3310  218.4760 F   0  0  0  0  0  0  0  0  0  0  0  0
  139.1250   82.1990  220.0890 F   0  0  0  0  0  0  0  0  0  0  0  0
  138.8990   79.7620  221.2760 N   0  0  0  0  0  0  0  0  0  0  0  0
  138.4180   80.5130  222.4030 C   0  0  0  0  0  0  0  0  0  0  0  0
  139.2500   80.9210  223.3590 C   0  0  0  0  0  0  0  0  0  0  0  0
  140.6890   80.6310  223.2740 C   0  0  0  0  0  0  0  0  0  0  0  0
  141.5760   81.1880  224.2080 C   0  0  0  0  0  0  0  0  0  0  0  0
  142.9470   80.9370  224.1110 C   0  0  0  0  0  0  0  0  0  0  0  0
  143.4400   80.1320  223.0820 C   0  0  0  0  0  0  0  0  0  0  0  0
  142.5640   79.5700  222.1510 C   0  0  0  0  0  0  0  0  0  0  0  0
  141.1830   79.8150  222.2370 C   0  0  0  0  0  0  0  0  0  0  0  0
  140.2360   79.1460  221.2640 C   0  0  1  0  0  0  0  0  0  0  0  0
  140.1220   77.6830  221.6010 C   0  0  0  0  0  0  0  0  0  0  0  0
  139.2000   77.0990  222.4680 C   0  0  0  0  0  0  0  0  0  0  0  0
  139.4190   75.7680  222.5650 N   0  0  0  0  0  0  0  0  0  0  0  0
  140.4750   75.5060  221.7750 C   0  0  0  0  0  0  0  0  0  0  0  0
  141.0800   74.2690  221.5600 C   0  0  0  0  0  0  0  0  0  0  0  0
  142.1900   74.2220  220.6970 C   0  0  0  0  0  0  0  0  0  0  0  0
  142.6670   75.3980  220.0790 C   0  0  0  0  0  0  0  0  0  0  0  0
  142.0370   76.6330  220.3150 C   0  0  0  0  0  0  0  0  0  0  0  0
  140.9360   76.6490  221.1730 C   0  0  0  0  0  0  0  0  0  0  0  0
  137.9675   79.7018  217.6086 H   0  0  0  0  0  0  0  0  0  0  0  0
  138.1705   81.2643  218.4926 H   0  0  0  0  0  0  0  0  0  0  0  0
  139.7478   78.0786  217.5132 H   0  0  0  0  0  0  0  0  0  0  0  0
  142.1991   77.7389  217.2811 H   0  0  0  0  0  0  0  0  0  0  0  0
  143.7832   79.5054  218.0347 H   0  0  0  0  0  0  0  0  0  0  0  0
  142.9245   81.6189  219.0202 H   0  0  0  0  0  0  0  0  0  0  0  0
  137.3473   80.7541  222.4768 H   0  0  0  0  0  0  0  0  0  0  0  0
  138.8571   81.4804  224.2208 H   0  0  0  0  0  0  0  0  0  0  0  0
  141.1908   81.8240  225.0187 H   0  0  0  0  0  0  0  0  0  0  0  0
  143.6389   81.3740  224.8461 H   0  0  0  0  0  0  0  0  0  0  0  0
  144.5204   79.9402  223.0046 H   0  0  0  0  0  0  0  0  0  0  0  0
  142.9572   78.9320  221.3458 H   0  0  0  0  0  0  0  0  0  0  0  0
  140.6500   79.2746  220.2530 H   0  0  0  0  0  0  0  0  0  0  0  0
  138.4057   77.6442  222.9988 H   0  0  0  0  0  0  0  0  0  0  0  0
  138.8810   75.0860  223.1450 H   0  0  0  0  0  0  0  0  0  0  0  0
  140.7019   73.3592  222.0491 H   0  0  0  0  0  0  0  0  0  0  0  0
  142.6899   73.2617  220.5024 H   0  0  0  0  0  0  0  0  0  0  0  0
  143.5374   75.3481  219.4082 H   0  0  0  0  0  0  0  0  0  0  0  0
  142.3999   77.5560  219.8392 H   0  0  0  0  0  0  0  0  0  0  0  0
  1  2  2  0
  2  3  2  0
  2  4  1  0
  4  5  1  0
  5  6  2  0
  6  7  1  0
  7  8  2  0
  8  9  1  0
  9 10  2  0
 10 11  1  0
 11 12  1  0
 11 13  1  0
 11 14  1  0
  2 15  1  0
 15 16  1  0
 16 17  2  0
 17 18  1  0
 18 19  2  0
 19 20  1  0
 20 21  2  0
 21 22  1  0
 22 23  2  0
 23 24  1  0
 24 25  1  0
 25 26  2  0
 26 27  1  0
 27 28  1  0
 28 29  2  0
 29 30  1  0
 30 31  2  0
 31 32  1  0
 32 33  2  0
 10  5  1  0
 24 15  1  0
 33 25  1  0
 23 18  1  0
 33 28  1  0
  4 34  1  0
  4 35  1  0
  6 36  1  0
  7 37  1  0
  8 38  1  0
  9 39  1  0
 16 40  1  0
 17 41  1  0
 19 42  1  0
 20 43  1  0
 21 44  1  0
 22 45  1  0
 24 46  1  6
 26 47  1  0
 27 48  1  0
 29 49  1  0
 30 50  1  0
 31 51  1  0
 32 52  1  0
M  END
>  <UniqueID>  (35) 
2

>  <SMILES>  (35) 
O=S(=O)(Cc1ccccc1C(F)(F)F)N1C=Cc2ccccc2[C@H]1c1c[nH]c2ccccc12

>  <Energy>  (35) 
90.68583105846089

>  <Genealogy>  (35) 
O=S(=O)(Cc1ccccc1C(F)(F)F)N1C=Cc2ccccc2[C@H]1c1c[nH]c2ccccc12 (3D coordinates assigned)
O=S(=O)(Cc1ccccc1C(F)(F)F)N1C=Cc2ccccc2[C@H]1c1c[nH]c2ccccc12 (nonaromatic ring conformer: 90.68583105846089 kcal/mol)

>  <smiles>  (35) 
O=S(=O)(Cc1ccccc1C(F)(F)F)N1C=Cc2ccccc2[C@H]1c1c[nH]c2ccccc12

>  <score_type>  (35) 
oracle

>  <origin>  (35) 
autodockgpu

>  <m_score__min__energy>  (35) 
-8.0899999999999999

>  <m_primary>  (35) 
energy

>  <meeko>  (35) 
{"free_energy": -6.69, "intermolecular_energy": -8.18, "internal_energy": -3.3, "cluster_size": 17, "cluster_id": 2, "rank_in_cluster": 2}

>  <energy>  (35) 
-6.68

>  <cluster_rmsd>  (35) 
0.06

>  <rmsd>  (35) 
269.61

>  <cluster>  (35) 
2

$$$$
CYEMMKKIRZZUDR-DEOSSOPVNA-N
     RDKit          3D

 52 56  0  0  0  0  0  0  0  0999 V2000
  137.7010   77.9500  219.7140 O   0  0  0  0  0  0  0  0  0  0  0  0
  137.8190   79.4330  219.9290 S   0  0  0  0  0  0  0  0  0  0  0  0
  136.4620   79.9810  220.2660 O   0  0  0  0  0  0  0  0  0  0  0  0
  138.4570   80.1920  218.4420 C   0  0  0  0  0  0  0  0  0  0  0  0
  139.9530   80.0020  218.3400 C   0  0  0  0  0  0  0  0  0  0  0  0
  140.4200   78.8010  217.7770 C   0  0  0  0  0  0  0  0  0  0  0  0
  141.7850   78.5640  217.6290 C   0  0  0  0  0  0  0  0  0  0  0  0
  142.7080   79.5200  218.0430 C   0  0  0  0  0  0  0  0  0  0  0  0
  142.2700   80.7190  218.6050 C   0  0  0  0  0  0  0  0  0  0  0  0
  140.8930   80.9910  218.7550 C   0  0  0  0  0  0  0  0  0  0  0  0
  140.4590   82.2930  219.4030 C   0  0  0  0  0  0  0  0  0  0  0  0
  141.3970   82.7040  220.3290 F   0  0  0  0  0  0  0  0  0  0  0  0
  140.3150   83.2660  218.4320 F   0  0  0  0  0  0  0  0  0  0  0  0
  139.2480   82.1600  220.0630 F   0  0  0  0  0  0  0  0  0  0  0  0
  138.9120   79.7540  221.2410 N   0  0  0  0  0  0  0  0  0  0  0  0
  138.4220   80.5030  222.3650 C   0  0  0  0  0  0  0  0  0  0  0  0
  139.2450   80.9100  223.3280 C   0  0  0  0  0  0  0  0  0  0  0  0
  140.6850   80.6210  223.2540 C   0  0  0  0  0  0  0  0  0  0  0  0
  141.5640   81.1760  224.1960 C   0  0  0  0  0  0  0  0  0  0  0  0
  142.9360   80.9260  224.1090 C   0  0  0  0  0  0  0  0  0  0  0  0
  143.4380   80.1230  223.0840 C   0  0  0  0  0  0  0  0  0  0  0  0
  142.5700   79.5610  222.1450 C   0  0  0  0  0  0  0  0  0  0  0  0
  141.1880   79.8060  222.2200 C   0  0  0  0  0  0  0  0  0  0  0  0
  140.2490   79.1380  221.2390 C   0  0  1  0  0  0  0  0  0  0  0  0
  140.1330   77.6740  221.5730 C   0  0  0  0  0  0  0  0  0  0  0  0
  139.2080   77.0890  222.4380 C   0  0  0  0  0  0  0  0  0  0  0  0
  139.4260   75.7590  222.5320 N   0  0  0  0  0  0  0  0  0  0  0  0
  140.4820   75.4970  221.7440 C   0  0  0  0  0  0  0  0  0  0  0  0
  141.0870   74.2590  221.5280 C   0  0  0  0  0  0  0  0  0  0  0  0
  142.1990   74.2120  220.6670 C   0  0  0  0  0  0  0  0  0  0  0  0
  142.6780   75.3880  220.0520 C   0  0  0  0  0  0  0  0  0  0  0  0
  142.0490   76.6240  220.2890 C   0  0  0  0  0  0  0  0  0  0  0  0
  140.9460   76.6400  221.1450 C   0  0  0  0  0  0  0  0  0  0  0  0
  137.9748   79.7317  217.5670 H   0  0  0  0  0  0  0  0  0  0  0  0
  138.2407   81.2700  218.4764 H   0  0  0  0  0  0  0  0  0  0  0  0
  139.6981   78.0386  217.4491 H   0  0  0  0  0  0  0  0  0  0  0  0
  142.1336   77.6202  217.1844 H   0  0  0  0  0  0  0  0  0  0  0  0
  143.7851   79.3295  217.9267 H   0  0  0  0  0  0  0  0  0  0  0  0
  143.0086   81.4638  218.9363 H   0  0  0  0  0  0  0  0  0  0  0  0
  137.3506   80.7435  222.4303 H   0  0  0  0  0  0  0  0  0  0  0  0
  138.8446   81.4678  224.1874 H   0  0  0  0  0  0  0  0  0  0  0  0
  141.1721   81.8097  225.0053 H   0  0  0  0  0  0  0  0  0  0  0  0
  143.6217   81.3630  224.8499 H   0  0  0  0  0  0  0  0  0  0  0  0
  144.5192   79.9323  223.0154 H   0  0  0  0  0  0  0  0  0  0  0  0
  142.9700   78.9235  221.3428 H   0  0  0  0  0  0  0  0  0  0  0  0
  140.6708   79.2677  220.2314 H   0  0  0  0  0  0  0  0  0  0  0  0
  138.4132   77.6337  222.9687 H   0  0  0  0  0  0  0  0  0  0  0  0
  138.8850   75.0770  223.1100 H   0  0  0  0  0  0  0  0  0  0  0  0
  140.7071   73.3488  222.0150 H   0  0  0  0  0  0  0  0  0  0  0  0
  142.6984   73.2515  220.4720 H   0  0  0  0  0  0  0  0  0  0  0  0
  143.5494   75.3382  219.3825 H   0  0  0  0  0  0  0  0  0  0  0  0
  142.4141   77.5473  219.8155 H   0  0  0  0  0  0  0  0  0  0  0  0
  1  2  2  0
  2  3  2  0
  2  4  1  0
  4  5  1  0
  5  6  2  0
  6  7  1  0
  7  8  2  0
  8  9  1  0
  9 10  2  0
 10 11  1  0
 11 12  1  0
 11 13  1  0
 11 14  1  0
  2 15  1  0
 15 16  1  0
 16 17  2  0
 17 18  1  0
 18 19  2  0
 19 20  1  0
 20 21  2  0
 21 22  1  0
 22 23  2  0
 23 24  1  0
 24 25  1  0
 25 26  2  0
 26 27  1  0
 27 28  1  0
 28 29  2  0
 29 30  1  0
 30 31  2  0
 31 32  1  0
 32 33  2  0
 10  5  1  0
 24 15  1  0
 33 25  1  0
 23 18  1  0
 33 28  1  0
  4 34  1  0
  4 35  1  0
  6 36  1  0
  7 37  1  0
  8 38  1  0
  9 39  1  0
 16 40  1  0
 17 41  1  0
 19 42  1  0
 20 43  1  0
 21 44  1  0
 22 45  1  0
 24 46  1  6
 26 47  1  0
 27 48  1  0
 29 49  1  0
 30 50  1  0
 31 51  1  0
 32 52  1  0
M  END
>  <UniqueID>  (36) 
2

>  <SMILES>  (36) 
O=S(=O)(Cc1ccccc1C(F)(F)F)N1C=Cc2ccccc2[C@H]1c1c[nH]c2ccccc12

>  <Energy>  (36) 
90.68583105846089

>  <Genealogy>  (36) 
O=S(=O)(Cc1ccccc1C(F)(F)F)N1C=Cc2ccccc2[C@H]1c1c[nH]c2ccccc12 (3D coordinates assigned)
O=S(=O)(Cc1ccccc1C(F)(F)F)N1C=Cc2ccccc2[C@H]1c1c[nH]c2ccccc12 (nonaromatic ring conformer: 90.68583105846089 kcal/mol)

>  <smiles>  (36) 
O=S(=O)(Cc1ccccc1C(F)(F)F)N1C=Cc2ccccc2[C@H]1c1c[nH]c2ccccc12

>  <score_type>  (36) 
oracle

>  <origin>  (36) 
autodockgpu

>  <m_score__min__energy>  (36) 
-8.0899999999999999

>  <m_primary>  (36) 
energy

>  <meeko>  (36) 
{"free_energy": -6.67, "intermolecular_energy": -8.17, "internal_energy": -3.31, "cluster_size": 17, "cluster_id": 2, "rank_in_cluster": 13}

>  <energy>  (36) 
-6.67

>  <cluster_rmsd>  (36) 
0.04

>  <rmsd>  (36) 
269.59

>  <cluster>  (36) 
2

$$$$
CYEMMKKIRZZUDR-DEOSSOPVNA-N
     RDKit          3D

 52 56  0  0  0  0  0  0  0  0999 V2000
  137.7220   78.0080  219.7020 O   0  0  0  0  0  0  0  0  0  0  0  0
  137.8260   79.4910  219.9310 S   0  0  0  0  0  0  0  0  0  0  0  0
  136.4630   80.0230  220.2710 O   0  0  0  0  0  0  0  0  0  0  0  0
  138.4570   80.2690  218.4510 C   0  0  0  0  0  0  0  0  0  0  0  0
  139.9530   80.0820  218.3420 C   0  0  0  0  0  0  0  0  0  0  0  0
  140.4210   78.8880  217.7630 C   0  0  0  0  0  0  0  0  0  0  0  0
  141.7850   78.6540  217.6080 C   0  0  0  0  0  0  0  0  0  0  0  0
  142.7080   79.6070  218.0300 C   0  0  0  0  0  0  0  0  0  0  0  0
  142.2700   80.7990  218.6070 C   0  0  0  0  0  0  0  0  0  0  0  0
  140.8940   81.0670  218.7650 C   0  0  0  0  0  0  0  0  0  0  0  0
  140.4600   82.3610  219.4300 C   0  0  0  0  0  0  0  0  0  0  0  0
  141.3840   82.7440  220.3820 F   0  0  0  0  0  0  0  0  0  0  0  0
  140.3450   83.3540  218.4750 F   0  0  0  0  0  0  0  0  0  0  0  0
  139.2350   82.2280  220.0630 F   0  0  0  0  0  0  0  0  0  0  0  0
  138.9140   79.8100  221.2470 N   0  0  0  0  0  0  0  0  0  0  0  0
  138.4210   80.5610  222.3690 C   0  0  0  0  0  0  0  0  0  0  0  0
  139.2410   80.9670  223.3350 C   0  0  0  0  0  0  0  0  0  0  0  0
  140.6810   80.6760  223.2660 C   0  0  0  0  0  0  0  0  0  0  0  0
  141.5580   81.2300  224.2100 C   0  0  0  0  0  0  0  0  0  0  0  0
  142.9290   80.9790  224.1290 C   0  0  0  0  0  0  0  0  0  0  0  0
  143.4340   80.1750  223.1050 C   0  0  0  0  0  0  0  0  0  0  0  0
  142.5690   79.6140  222.1630 C   0  0  0  0  0  0  0  0  0  0  0  0
  141.1870   79.8600  222.2340 C   0  0  0  0  0  0  0  0  0  0  0  0
  140.2500   79.1930  221.2490 C   0  0  1  0  0  0  0  0  0  0  0  0
  140.1310   77.7290  221.5830 C   0  0  0  0  0  0  0  0  0  0  0  0
  139.2000   77.1450  222.4400 C   0  0  0  0  0  0  0  0  0  0  0  0
  139.4160   75.8150  222.5370 N   0  0  0  0  0  0  0  0  0  0  0  0
  140.4800   75.5520  221.7590 C   0  0  0  0  0  0  0  0  0  0  0  0
  141.0860   74.3150  221.5480 C   0  0  0  0  0  0  0  0  0  0  0  0
  142.2050   74.2670  220.6970 C   0  0  0  0  0  0  0  0  0  0  0  0
  142.6900   75.4430  220.0850 C   0  0  0  0  0  0  0  0  0  0  0  0
  142.0590   76.6790  220.3160 C   0  0  0  0  0  0  0  0  0  0  0  0
  140.9480   76.6960  221.1630 C   0  0  0  0  0  0  0  0  0  0  0  0
  137.9723   79.8186  217.5722 H   0  0  0  0  0  0  0  0  0  0  0  0
  138.2390   81.3461  218.4987 H   0  0  0  0  0  0  0  0  0  0  0  0
  139.6991   78.1286  217.4280 H   0  0  0  0  0  0  0  0  0  0  0  0
  142.1334   77.7156  217.1519 H   0  0  0  0  0  0  0  0  0  0  0  0
  143.7850   79.4196  217.9081 H   0  0  0  0  0  0  0  0  0  0  0  0
  143.0086   81.5412  218.9439 H   0  0  0  0  0  0  0  0  0  0  0  0
  137.3498   80.8037  222.4300 H   0  0  0  0  0  0  0  0  0  0  0  0
  138.8383   81.5253  224.1930 H   0  0  0  0  0  0  0  0  0  0  0  0
  141.1641   81.8648  225.0174 H   0  0  0  0  0  0  0  0  0  0  0  0
  143.6122   81.4151  224.8727 H   0  0  0  0  0  0  0  0  0  0  0  0
  144.5152   79.9832  223.0402 H   0  0  0  0  0  0  0  0  0  0  0  0
  142.9711   78.9766  221.3617 H   0  0  0  0  0  0  0  0  0  0  0  0
  140.6753   79.3226  220.2428 H   0  0  0  0  0  0  0  0  0  0  0  0
  138.4013   77.6905  222.9640 H   0  0  0  0  0  0  0  0  0  0  0  0
  138.8710   75.1330  223.1110 H   0  0  0  0  0  0  0  0  0  0  0  0
  140.7015   73.4049  222.0316 H   0  0  0  0  0  0  0  0  0  0  0  0
  142.7057   73.3062  220.5071 H   0  0  0  0  0  0  0  0  0  0  0  0
  143.5671   75.3926  219.4231 H   0  0  0  0  0  0  0  0  0  0  0  0
  142.4283   77.6020  219.8451 H   0  0  0  0  0  0  0  0  0  0  0  0
  1  2  2  0
  2  3  2  0
  2  4  1  0
  4  5  1  0
  5  6  2  0
  6  7  1  0
  7  8  2  0
  8  9  1  0
  9 10  2  0
 10 11  1  0
 11 12  1  0
 11 13  1  0
 11 14  1  0
  2 15  1  0
 15 16  1  0
 16 17  2  0
 17 18  1  0
 18 19  2  0
 19 20  1  0
 20 21  2  0
 21 22  1  0
 22 23  2  0
 23 24  1  0
 24 25  1  0
 25 26  2  0
 26 27  1  0
 27 28  1  0
 28 29  2  0
 29 30  1  0
 30 31  2  0
 31 32  1  0
 32 33  2  0
 10  5  1  0
 24 15  1  0
 33 25  1  0
 23 18  1  0
 33 28  1  0
  4 34  1  0
  4 35  1  0
  6 36  1  0
  7 37  1  0
  8 38  1  0
  9 39  1  0
 16 40  1  0
 17 41  1  0
 19 42  1  0
 20 43  1  0
 21 44  1  0
 22 45  1  0
 24 46  1  6
 26 47  1  0
 27 48  1  0
 29 49  1  0
 30 50  1  0
 31 51  1  0
 32 52  1  0
M  END
>  <UniqueID>  (37) 
2

>  <SMILES>  (37) 
O=S(=O)(Cc1ccccc1C(F)(F)F)N1C=Cc2ccccc2[C@H]1c1c[nH]c2ccccc12

>  <Energy>  (37) 
90.68583105846089

>  <Genealogy>  (37) 
O=S(=O)(Cc1ccccc1C(F)(F)F)N1C=Cc2ccccc2[C@H]1c1c[nH]c2ccccc12 (3D coordinates assigned)
O=S(=O)(Cc1ccccc1C(F)(F)F)N1C=Cc2ccccc2[C@H]1c1c[nH]c2ccccc12 (nonaromatic ring conformer: 90.68583105846089 kcal/mol)

>  <smiles>  (37) 
O=S(=O)(Cc1ccccc1C(F)(F)F)N1C=Cc2ccccc2[C@H]1c1c[nH]c2ccccc12

>  <score_type>  (37) 
oracle

>  <origin>  (37) 
autodockgpu

>  <m_score__min__energy>  (37) 
-8.0899999999999999

>  <m_primary>  (37) 
energy

>  <meeko>  (37) 
{"free_energy": -6.68, "intermolecular_energy": -8.17, "internal_energy": -3.31, "cluster_size": 17, "cluster_id": 2, "rank_in_cluster": 11}

>  <energy>  (37) 
-6.67

>  <cluster_rmsd>  (37) 
0.04

>  <rmsd>  (37) 
269.61

>  <cluster>  (37) 
2

$$$$
CYEMMKKIRZZUDR-DEOSSOPVNA-N
     RDKit          3D

 52 56  0  0  0  0  0  0  0  0999 V2000
  137.7690   77.9330  219.6550 O   0  0  0  0  0  0  0  0  0  0  0  0
  137.8490   79.4160  219.8910 S   0  0  0  0  0  0  0  0  0  0  0  0
  136.4760   79.9240  220.2270 O   0  0  0  0  0  0  0  0  0  0  0  0
  138.4750   80.2110  218.4180 C   0  0  0  0  0  0  0  0  0  0  0  0
  139.9730   80.0390  218.3100 C   0  0  0  0  0  0  0  0  0  0  0  0
  140.4530   78.8230  217.7920 C   0  0  0  0  0  0  0  0  0  0  0  0
  141.8200   78.5990  217.6410 C   0  0  0  0  0  0  0  0  0  0  0  0
  142.7320   79.5850  218.0070 C   0  0  0  0  0  0  0  0  0  0  0  0
  142.2810   80.8000  218.5230 C   0  0  0  0  0  0  0  0  0  0  0  0
  140.9020   81.0570  218.6750 C   0  0  0  0  0  0  0  0  0  0  0  0
  140.4540   82.3790  219.2730 C   0  0  0  0  0  0  0  0  0  0  0  0
  140.2030   82.2330  220.6240 F   0  0  0  0  0  0  0  0  0  0  0  0
  141.4420   83.3280  219.0890 F   0  0  0  0  0  0  0  0  0  0  0  0
  139.2930   82.8440  218.6780 F   0  0  0  0  0  0  0  0  0  0  0  0
  138.9250   79.7460  221.2140 N   0  0  0  0  0  0  0  0  0  0  0  0
  138.4220   80.5020  222.3270 C   0  0  0  0  0  0  0  0  0  0  0  0
  139.2330   80.9160  223.2970 C   0  0  0  0  0  0  0  0  0  0  0  0
  140.6750   80.6270  223.2420 C   0  0  0  0  0  0  0  0  0  0  0  0
  141.5420   81.1890  224.1900 C   0  0  0  0  0  0  0  0  0  0  0  0
  142.9150   80.9390  224.1220 C   0  0  0  0  0  0  0  0  0  0  0  0
  143.4290   80.1290  223.1070 C   0  0  0  0  0  0  0  0  0  0  0  0
  142.5730   79.5610  222.1620 C   0  0  0  0  0  0  0  0  0  0  0  0
  141.1900   79.8060  222.2190 C   0  0  0  0  0  0  0  0  0  0  0  0
  140.2620   79.1310  221.2310 C   0  0  1  0  0  0  0  0  0  0  0  0
  140.1430   77.6690  221.5740 C   0  0  0  0  0  0  0  0  0  0  0  0
  139.2160   77.0910  222.4390 C   0  0  0  0  0  0  0  0  0  0  0  0
  139.4310   75.7600  222.5420 N   0  0  0  0  0  0  0  0  0  0  0  0
  140.4890   75.4920  221.7590 C   0  0  0  0  0  0  0  0  0  0  0  0
  141.0920   74.2520  221.5520 C   0  0  0  0  0  0  0  0  0  0  0  0
  142.2070   74.1980  220.6940 C   0  0  0  0  0  0  0  0  0  0  0  0
  142.6890   75.3700  220.0730 C   0  0  0  0  0  0  0  0  0  0  0  0
  142.0620   76.6090  220.3010 C   0  0  0  0  0  0  0  0  0  0  0  0
  140.9560   76.6310  221.1540 C   0  0  0  0  0  0  0  0  0  0  0  0
  137.9960   79.7627  217.5351 H   0  0  0  0  0  0  0  0  0  0  0  0
  138.2468   81.2856  218.4735 H   0  0  0  0  0  0  0  0  0  0  0  0
  139.7394   78.0377  217.5020 H   0  0  0  0  0  0  0  0  0  0  0  0
  142.1786   77.6427  217.2325 H   0  0  0  0  0  0  0  0  0  0  0  0
  143.8108   79.4056  217.8890 H   0  0  0  0  0  0  0  0  0  0  0  0
  143.0111   81.5690  218.8156 H   0  0  0  0  0  0  0  0  0  0  0  0
  137.3498   80.7423  222.3781 H   0  0  0  0  0  0  0  0  0  0  0  0
  138.8221   81.4794  224.1477 H   0  0  0  0  0  0  0  0  0  0  0  0
  141.1400   81.8286  224.9896 H   0  0  0  0  0  0  0  0  0  0  0  0
  143.5916   81.3805  224.8685 H   0  0  0  0  0  0  0  0  0  0  0  0
  144.5109   79.9382  223.0521 H   0  0  0  0  0  0  0  0  0  0  0  0
  142.9827   78.9184  221.3687 H   0  0  0  0  0  0  0  0  0  0  0  0
  140.6948   79.2545  220.2273 H   0  0  0  0  0  0  0  0  0  0  0  0
  138.4209   77.6404  222.9643 H   0  0  0  0  0  0  0  0  0  0  0  0
  138.8880   75.0820  223.1230 H   0  0  0  0  0  0  0  0  0  0  0  0
  140.7090   73.3453  222.0431 H   0  0  0  0  0  0  0  0  0  0  0  0
  142.7058   73.2357  220.5064 H   0  0  0  0  0  0  0  0  0  0  0  0
  143.5616   75.3146  219.4055 H   0  0  0  0  0  0  0  0  0  0  0  0
  142.4303   77.5290  219.8237 H   0  0  0  0  0  0  0  0  0  0  0  0
  1  2  2  0
  2  3  2  0
  2  4  1  0
  4  5  1  0
  5  6  2  0
  6  7  1  0
  7  8  2  0
  8  9  1  0
  9 10  2  0
 10 11  1  0
 11 12  1  0
 11 13  1  0
 11 14  1  0
  2 15  1  0
 15 16  1  0
 16 17  2  0
 17 18  1  0
 18 19  2  0
 19 20  1  0
 20 21  2  0
 21 22  1  0
 22 23  2  0
 23 24  1  0
 24 25  1  0
 25 26  2  0
 26 27  1  0
 27 28  1  0
 28 29  2  0
 29 30  1  0
 30 31  2  0
 31 32  1  0
 32 33  2  0
 10  5  1  0
 24 15  1  0
 33 25  1  0
 23 18  1  0
 33 28  1  0
  4 34  1  0
  4 35  1  0
  6 36  1  0
  7 37  1  0
  8 38  1  0
  9 39  1  0
 16 40  1  0
 17 41  1  0
 19 42  1  0
 20 43  1  0
 21 44  1  0
 22 45  1  0
 24 46  1  6
 26 47  1  0
 27 48  1  0
 29 49  1  0
 30 50  1  0
 31 51  1  0
 32 52  1  0
M  END
>  <UniqueID>  (38) 
2

>  <SMILES>  (38) 
O=S(=O)(Cc1ccccc1C(F)(F)F)N1C=Cc2ccccc2[C@H]1c1c[nH]c2ccccc12

>  <Energy>  (38) 
90.68583105846089

>  <Genealogy>  (38) 
O=S(=O)(Cc1ccccc1C(F)(F)F)N1C=Cc2ccccc2[C@H]1c1c[nH]c2ccccc12 (3D coordinates assigned)
O=S(=O)(Cc1ccccc1C(F)(F)F)N1C=Cc2ccccc2[C@H]1c1c[nH]c2ccccc12 (nonaromatic ring conformer: 90.68583105846089 kcal/mol)

>  <smiles>  (38) 
O=S(=O)(Cc1ccccc1C(F)(F)F)N1C=Cc2ccccc2[C@H]1c1c[nH]c2ccccc12

>  <score_type>  (38) 
oracle

>  <origin>  (38) 
autodockgpu

>  <m_score__min__energy>  (38) 
-8.0899999999999999

>  <m_primary>  (38) 
energy

>  <meeko>  (38) 
{"free_energy": -6.65, "intermolecular_energy": -8.14, "internal_energy": -3.32, "cluster_size": 17, "cluster_id": 2, "rank_in_cluster": 17}

>  <energy>  (38) 
-6.67

>  <cluster_rmsd>  (38) 
0.03

>  <rmsd>  (38) 
269.6

>  <cluster>  (38) 
2

$$$$
CYEMMKKIRZZUDR-DEOSSOPVNA-N
     RDKit          3D

 52 56  0  0  0  0  0  0  0  0999 V2000
  137.9280   77.7840  219.4240 O   0  0  0  0  0  0  0  0  0  0  0  0
  137.9870   79.2750  219.6110 S   0  0  0  0  0  0  0  0  0  0  0  0
  136.5950   79.7860  219.8510 O   0  0  0  0  0  0  0  0  0  0  0  0
  138.6900   80.0210  218.1470 C   0  0  0  0  0  0  0  0  0  0  0  0
  140.1790   79.7660  218.0760 C   0  0  0  0  0  0  0  0  0  0  0  0
  140.6030   78.5100  217.6080 C   0  0  0  0  0  0  0  0  0  0  0  0
  141.9590   78.2090  217.4930 C   0  0  0  0  0  0  0  0  0  0  0  0
  142.9150   79.1560  217.8460 C   0  0  0  0  0  0  0  0  0  0  0  0
  142.5200   80.4100  218.3130 C   0  0  0  0  0  0  0  0  0  0  0  0
  141.1540   80.7450  218.4280 C   0  0  0  0  0  0  0  0  0  0  0  0
  140.7660   82.1080  218.9740 C   0  0  0  0  0  0  0  0  0  0  0  0
  141.8540   82.9590  218.9540 F   0  0  0  0  0  0  0  0  0  0  0  0
  139.7510   82.6420  218.2030 F   0  0  0  0  0  0  0  0  0  0  0  0
  140.3180   82.0290  220.2820 F   0  0  0  0  0  0  0  0  0  0  0  0
  138.9860   79.6600  220.9780 N   0  0  0  0  0  0  0  0  0  0  0  0
  138.4160   80.4500  222.0350 C   0  0  0  0  0  0  0  0  0  0  0  0
  139.1710   80.9040  223.0330 C   0  0  0  0  0  0  0  0  0  0  0  0
  140.6150   80.6260  223.0680 C   0  0  0  0  0  0  0  0  0  0  0  0
  141.4240   81.2280  224.0420 C   0  0  0  0  0  0  0  0  0  0  0  0
  142.8000   80.9880  224.0580 C   0  0  0  0  0  0  0  0  0  0  0  0
  143.3760   80.1480  223.1030 C   0  0  0  0  0  0  0  0  0  0  0  0
  142.5770   79.5400  222.1320 C   0  0  0  0  0  0  0  0  0  0  0  0
  141.1910   79.7740  222.1050 C   0  0  0  0  0  0  0  0  0  0  0  0
  140.3250   79.0570  221.0910 C   0  0  1  0  0  0  0  0  0  0  0  0
  140.1960   77.6070  221.4780 C   0  0  0  0  0  0  0  0  0  0  0  0
  139.2640   77.0610  222.3580 C   0  0  0  0  0  0  0  0  0  0  0  0
  139.4710   75.7330  222.5020 N   0  0  0  0  0  0  0  0  0  0  0  0
  140.5300   75.4350  221.7290 C   0  0  0  0  0  0  0  0  0  0  0  0
  141.1260   74.1870  221.5610 C   0  0  0  0  0  0  0  0  0  0  0  0
  142.2410   74.1000  220.7080 C   0  0  0  0  0  0  0  0  0  0  0  0
  142.7320   75.2500  220.0530 C   0  0  0  0  0  0  0  0  0  0  0  0
  142.1110   76.4990  220.2420 C   0  0  0  0  0  0  0  0  0  0  0  0
  141.0040   76.5530  221.0910 C   0  0  0  0  0  0  0  0  0  0  0  0
  138.2078   79.5916  217.2565 H   0  0  0  0  0  0  0  0  0  0  0  0
  138.5200   81.1070  218.1886 H   0  0  0  0  0  0  0  0  0  0  0  0
  139.8541   77.7543  217.3287 H   0  0  0  0  0  0  0  0  0  0  0  0
  142.2735   77.2220  217.1229 H   0  0  0  0  0  0  0  0  0  0  0  0
  143.9847   78.9156  217.7567 H   0  0  0  0  0  0  0  0  0  0  0  0
  143.2847   81.1485  218.5957 H   0  0  0  0  0  0  0  0  0  0  0  0
  137.3410   80.6826  222.0190 H   0  0  0  0  0  0  0  0  0  0  0  0
  138.7103   81.4930  223.8397 H   0  0  0  0  0  0  0  0  0  0  0  0
  140.9740   81.8910  224.7956 H   0  0  0  0  0  0  0  0  0  0  0  0
  143.4310   81.4617  224.8245 H   0  0  0  0  0  0  0  0  0  0  0  0
  144.4606   79.9648  223.1153 H   0  0  0  0  0  0  0  0  0  0  0  0
  143.0344   78.8748  221.3848 H   0  0  0  0  0  0  0  0  0  0  0  0
  140.8132   79.1490  220.1096 H   0  0  0  0  0  0  0  0  0  0  0  0
  138.4710   77.6307  222.8645 H   0  0  0  0  0  0  0  0  0  0  0  0
  138.9230   75.0760  223.1020 H   0  0  0  0  0  0  0  0  0  0  0  0
  140.7370   73.2980  222.0790 H   0  0  0  0  0  0  0  0  0  0  0  0
  142.7337   73.1292  220.5502 H   0  0  0  0  0  0  0  0  0  0  0  0
  143.6061   75.1695  219.3901 H   0  0  0  0  0  0  0  0  0  0  0  0
  142.4853   77.4021  219.7378 H   0  0  0  0  0  0  0  0  0  0  0  0
  1  2  2  0
  2  3  2  0
  2  4  1  0
  4  5  1  0
  5  6  2  0
  6  7  1  0
  7  8  2  0
  8  9  1  0
  9 10  2  0
 10 11  1  0
 11 12  1  0
 11 13  1  0
 11 14  1  0
  2 15  1  0
 15 16  1  0
 16 17  2  0
 17 18  1  0
 18 19  2  0
 19 20  1  0
 20 21  2  0
 21 22  1  0
 22 23  2  0
 23 24  1  0
 24 25  1  0
 25 26  2  0
 26 27  1  0
 27 28  1  0
 28 29  2  0
 29 30  1  0
 30 31  2  0
 31 32  1  0
 32 33  2  0
 10  5  1  0
 24 15  1  0
 33 25  1  0
 23 18  1  0
 33 28  1  0
  4 34  1  0
  4 35  1  0
  6 36  1  0
  7 37  1  0
  8 38  1  0
  9 39  1  0
 16 40  1  0
 17 41  1  0
 19 42  1  0
 20 43  1  0
 21 44  1  0
 22 45  1  0
 24 46  1  6
 26 47  1  0
 27 48  1  0
 29 49  1  0
 30 50  1  0
 31 51  1  0
 32 52  1  0
M  END
>  <UniqueID>  (39) 
2

>  <SMILES>  (39) 
O=S(=O)(Cc1ccccc1C(F)(F)F)N1C=Cc2ccccc2[C@H]1c1c[nH]c2ccccc12

>  <Energy>  (39) 
90.68583105846089

>  <Genealogy>  (39) 
O=S(=O)(Cc1ccccc1C(F)(F)F)N1C=Cc2ccccc2[C@H]1c1c[nH]c2ccccc12 (3D coordinates assigned)
O=S(=O)(Cc1ccccc1C(F)(F)F)N1C=Cc2ccccc2[C@H]1c1c[nH]c2ccccc12 (nonaromatic ring conformer: 90.68583105846089 kcal/mol)

>  <smiles>  (39) 
O=S(=O)(Cc1ccccc1C(F)(F)F)N1C=Cc2ccccc2[C@H]1c1c[nH]c2ccccc12

>  <score_type>  (39) 
oracle

>  <origin>  (39) 
autodockgpu

>  <m_score__min__energy>  (39) 
-8.0899999999999999

>  <m_primary>  (39) 
energy

>  <meeko>  (39) 
{"free_energy": -6.65, "intermolecular_energy": -8.14, "internal_energy": -3.32, "cluster_size": 17, "cluster_id": 2, "rank_in_cluster": 16}

>  <energy>  (39) 
-6.65

>  <cluster_rmsd>  (39) 
0.47

>  <rmsd>  (39) 
269.46

>  <cluster>  (39) 
2

$$$$
CYEMMKKIRZZUDR-DEOSSOPVNA-N
     RDKit          3D

 52 56  0  0  0  0  0  0  0  0999 V2000
  137.7040   77.9500  219.7500 O   0  0  0  0  0  0  0  0  0  0  0  0
  137.8160   79.4330  219.9690 S   0  0  0  0  0  0  0  0  0  0  0  0
  136.4570   79.9720  220.3160 O   0  0  0  0  0  0  0  0  0  0  0  0
  138.4390   80.2000  218.4800 C   0  0  0  0  0  0  0  0  0  0  0  0
  139.9400   80.0530  218.3860 C   0  0  0  0  0  0  0  0  0  0  0  0
  140.4450   78.8670  217.8220 C   0  0  0  0  0  0  0  0  0  0  0  0
  141.8170   78.6680  217.6820 C   0  0  0  0  0  0  0  0  0  0  0  0
  142.7090   79.6490  218.1060 C   0  0  0  0  0  0  0  0  0  0  0  0
  142.2340   80.8330  218.6690 C   0  0  0  0  0  0  0  0  0  0  0  0
  140.8500   81.0650  218.8110 C   0  0  0  0  0  0  0  0  0  0  0  0
  140.3750   82.3530  219.4610 C   0  0  0  0  0  0  0  0  0  0  0  0
  141.2930   82.7830  220.3990 F   0  0  0  0  0  0  0  0  0  0  0  0
  140.2160   83.3270  218.4930 F   0  0  0  0  0  0  0  0  0  0  0  0
  139.1610   82.1850  220.1070 F   0  0  0  0  0  0  0  0  0  0  0  0
  138.9150   79.7560  221.2740 N   0  0  0  0  0  0  0  0  0  0  0  0
  138.4300   80.5040  222.4010 C   0  0  0  0  0  0  0  0  0  0  0  0
  139.2580   80.9130  223.3590 C   0  0  0  0  0  0  0  0  0  0  0  0
  140.6990   80.6280  223.2770 C   0  0  0  0  0  0  0  0  0  0  0  0
  141.5820   81.1850  224.2130 C   0  0  0  0  0  0  0  0  0  0  0  0
  142.9530   80.9390  224.1190 C   0  0  0  0  0  0  0  0  0  0  0  0
  143.4510   80.1370  223.0900 C   0  0  0  0  0  0  0  0  0  0  0  0
  142.5790   79.5730  222.1560 C   0  0  0  0  0  0  0  0  0  0  0  0
  141.1970   79.8140  222.2400 C   0  0  0  0  0  0  0  0  0  0  0  0
  140.2530   79.1440  221.2640 C   0  0  1  0  0  0  0  0  0  0  0  0
  140.1430   77.6800  221.5990 C   0  0  0  0  0  0  0  0  0  0  0  0
  139.2220   77.0920  222.4650 C   0  0  0  0  0  0  0  0  0  0  0  0
  139.4440   75.7620  222.5590 N   0  0  0  0  0  0  0  0  0  0  0  0
  140.5010   75.5030  221.7700 C   0  0  0  0  0  0  0  0  0  0  0  0
  141.1100   74.2680  221.5530 C   0  0  0  0  0  0  0  0  0  0  0  0
  142.2200   74.2250  220.6910 C   0  0  0  0  0  0  0  0  0  0  0  0
  142.6940   75.4030  220.0750 C   0  0  0  0  0  0  0  0  0  0  0  0
  142.0620   76.6370  220.3120 C   0  0  0  0  0  0  0  0  0  0  0  0
  140.9600   76.6490  221.1700 C   0  0  0  0  0  0  0  0  0  0  0  0
  137.9746   79.7200  217.6060 H   0  0  0  0  0  0  0  0  0  0  0  0
  138.1914   81.2715  218.5062 H   0  0  0  0  0  0  0  0  0  0  0  0
  139.7468   78.0858  217.4869 H   0  0  0  0  0  0  0  0  0  0  0  0
  142.1951   77.7360  217.2366 H   0  0  0  0  0  0  0  0  0  0  0  0
  143.7919   79.4897  217.9966 H   0  0  0  0  0  0  0  0  0  0  0  0
  142.9491   81.5973  219.0074 H   0  0  0  0  0  0  0  0  0  0  0  0
  137.3585   80.7420  222.4728 H   0  0  0  0  0  0  0  0  0  0  0  0
  138.8611   81.4697  224.2207 H   0  0  0  0  0  0  0  0  0  0  0  0
  141.1931   81.8180  225.0242 H   0  0  0  0  0  0  0  0  0  0  0  0
  143.6417   81.3774  224.8563 H   0  0  0  0  0  0  0  0  0  0  0  0
  144.5322   79.9491  223.0149 H   0  0  0  0  0  0  0  0  0  0  0  0
  142.9758   78.9372  221.3509 H   0  0  0  0  0  0  0  0  0  0  0  0
  140.6680   79.2755  220.2538 H   0  0  0  0  0  0  0  0  0  0  0  0
  138.4265   77.6343  222.9970 H   0  0  0  0  0  0  0  0  0  0  0  0
  138.9070   75.0780  223.1380 H   0  0  0  0  0  0  0  0  0  0  0  0
  140.7342   73.3563  222.0405 H   0  0  0  0  0  0  0  0  0  0  0  0
  142.7226   73.2663  220.4953 H   0  0  0  0  0  0  0  0  0  0  0  0
  143.5646   75.3557  219.4043 H   0  0  0  0  0  0  0  0  0  0  0  0
  142.4234   77.5613  219.8376 H   0  0  0  0  0  0  0  0  0  0  0  0
  1  2  2  0
  2  3  2  0
  2  4  1  0
  4  5  1  0
  5  6  2  0
  6  7  1  0
  7  8  2  0
  8  9  1  0
  9 10  2  0
 10 11  1  0
 11 12  1  0
 11 13  1  0
 11 14  1  0
  2 15  1  0
 15 16  1  0
 16 17  2  0
 17 18  1  0
 18 19  2  0
 19 20  1  0
 20 21  2  0
 21 22  1  0
 22 23  2  0
 23 24  1  0
 24 25  1  0
 25 26  2  0
 26 27  1  0
 27 28  1  0
 28 29  2  0
 29 30  1  0
 30 31  2  0
 31 32  1  0
 32 33  2  0
 10  5  1  0
 24 15  1  0
 33 25  1  0
 23 18  1  0
 33 28  1  0
  4 34  1  0
  4 35  1  0
  6 36  1  0
  7 37  1  0
  8 38  1  0
  9 39  1  0
 16 40  1  0
 17 41  1  0
 19 42  1  0
 20 43  1  0
 21 44  1  0
 22 45  1  0
 24 46  1  6
 26 47  1  0
 27 48  1  0
 29 49  1  0
 30 50  1  0
 31 51  1  0
 32 52  1  0
M  END
>  <UniqueID>  (40) 
2

>  <SMILES>  (40) 
O=S(=O)(Cc1ccccc1C(F)(F)F)N1C=Cc2ccccc2[C@H]1c1c[nH]c2ccccc12

>  <Energy>  (40) 
90.68583105846089

>  <Genealogy>  (40) 
O=S(=O)(Cc1ccccc1C(F)(F)F)N1C=Cc2ccccc2[C@H]1c1c[nH]c2ccccc12 (3D coordinates assigned)
O=S(=O)(Cc1ccccc1C(F)(F)F)N1C=Cc2ccccc2[C@H]1c1c[nH]c2ccccc12 (nonaromatic ring conformer: 90.68583105846089 kcal/mol)

>  <smiles>  (40) 
O=S(=O)(Cc1ccccc1C(F)(F)F)N1C=Cc2ccccc2[C@H]1c1c[nH]c2ccccc12

>  <score_type>  (40) 
oracle

>  <origin>  (40) 
autodockgpu

>  <m_score__min__energy>  (40) 
-8.0899999999999999

>  <m_primary>  (40) 
energy

>  <meeko>  (40) 
{"free_energy": -6.68, "intermolecular_energy": -8.18, "internal_energy": -3.31, "cluster_size": 17, "cluster_id": 2, "rank_in_cluster": 4}

>  <energy>  (40) 
-6.65

>  <cluster_rmsd>  (40) 
0.36

>  <rmsd>  (40) 
269.58

>  <cluster>  (40) 
2

$$$$
CYEMMKKIRZZUDR-DEOSSOPVNA-N
     RDKit          3D

 52 56  0  0  0  0  0  0  0  0999 V2000
  137.7030   77.9500  219.7240 O   0  0  0  0  0  0  0  0  0  0  0  0
  137.8070   79.4320  219.9510 S   0  0  0  0  0  0  0  0  0  0  0  0
  136.4440   79.9630  220.2970 O   0  0  0  0  0  0  0  0  0  0  0  0
  138.4300   80.2100  218.4680 C   0  0  0  0  0  0  0  0  0  0  0  0
  139.9300   80.0570  218.3700 C   0  0  0  0  0  0  0  0  0  0  0  0
  140.4290   78.8720  217.7980 C   0  0  0  0  0  0  0  0  0  0  0  0
  141.8000   78.6680  217.6540 C   0  0  0  0  0  0  0  0  0  0  0  0
  142.6970   79.6420  218.0810 C   0  0  0  0  0  0  0  0  0  0  0  0
  142.2290   80.8260  218.6510 C   0  0  0  0  0  0  0  0  0  0  0  0
  140.8460   81.0630  218.7980 C   0  0  0  0  0  0  0  0  0  0  0  0
  140.3780   82.3490  219.4560 C   0  0  0  0  0  0  0  0  0  0  0  0
  141.2950   82.7650  220.4020 F   0  0  0  0  0  0  0  0  0  0  0  0
  140.2300   83.3320  218.4960 F   0  0  0  0  0  0  0  0  0  0  0  0
  139.1610   82.1850  220.0960 F   0  0  0  0  0  0  0  0  0  0  0  0
  138.9000   79.7540  221.2610 N   0  0  0  0  0  0  0  0  0  0  0  0
  138.4110   80.5000  222.3870 C   0  0  0  0  0  0  0  0  0  0  0  0
  139.2350   80.9080  223.3490 C   0  0  0  0  0  0  0  0  0  0  0  0
  140.6760   80.6220  223.2720 C   0  0  0  0  0  0  0  0  0  0  0  0
  141.5550   81.1780  224.2130 C   0  0  0  0  0  0  0  0  0  0  0  0
  142.9270   80.9320  224.1240 C   0  0  0  0  0  0  0  0  0  0  0  0
  143.4290   80.1310  223.0960 C   0  0  0  0  0  0  0  0  0  0  0  0
  142.5610   79.5680  222.1580 C   0  0  0  0  0  0  0  0  0  0  0  0
  141.1790   79.8100  222.2360 C   0  0  0  0  0  0  0  0  0  0  0  0
  140.2390   79.1410  221.2560 C   0  0  1  0  0  0  0  0  0  0  0  0
  140.1270   77.6760  221.5880 C   0  0  0  0  0  0  0  0  0  0  0  0
  139.2000   77.0870  222.4470 C   0  0  0  0  0  0  0  0  0  0  0  0
  139.4220   75.7580  222.5420 N   0  0  0  0  0  0  0  0  0  0  0  0
  140.4850   75.5000  221.7600 C   0  0  0  0  0  0  0  0  0  0  0  0
  141.0960   74.2650  221.5470 C   0  0  0  0  0  0  0  0  0  0  0  0
  142.2130   74.2230  220.6930 C   0  0  0  0  0  0  0  0  0  0  0  0
  142.6910   75.4020  220.0820 C   0  0  0  0  0  0  0  0  0  0  0  0
  142.0560   76.6350  220.3160 C   0  0  0  0  0  0  0  0  0  0  0  0
  140.9470   76.6460  221.1650 C   0  0  0  0  0  0  0  0  0  0  0  0
  137.9617   79.7402  217.5905 H   0  0  0  0  0  0  0  0  0  0  0  0
  138.1871   81.2822  218.5043 H   0  0  0  0  0  0  0  0  0  0  0  0
  139.7269   78.0957  217.4598 H   0  0  0  0  0  0  0  0  0  0  0  0
  142.1730   77.7368  217.2027 H   0  0  0  0  0  0  0  0  0  0  0  0
  143.7789   79.4779  217.9687 H   0  0  0  0  0  0  0  0  0  0  0  0
  142.9484   81.5856  218.9907 H   0  0  0  0  0  0  0  0  0  0  0  0
  137.3391   80.7376  222.4551 H   0  0  0  0  0  0  0  0  0  0  0  0
  138.8350   81.4642  224.2096 H   0  0  0  0  0  0  0  0  0  0  0  0
  141.1626   81.8097  225.0235 H   0  0  0  0  0  0  0  0  0  0  0  0
  143.6128   81.3696  224.8644 H   0  0  0  0  0  0  0  0  0  0  0  0
  144.5105   79.9431  223.0250 H   0  0  0  0  0  0  0  0  0  0  0  0
  142.9610   78.9322  221.3544 H   0  0  0  0  0  0  0  0  0  0  0  0
  140.6586   79.2734  220.2478 H   0  0  0  0  0  0  0  0  0  0  0  0
  138.4002   77.6285  222.9734 H   0  0  0  0  0  0  0  0  0  0  0  0
  138.8810   75.0730  223.1160 H   0  0  0  0  0  0  0  0  0  0  0  0
  140.7168   73.3529  222.0311 H   0  0  0  0  0  0  0  0  0  0  0  0
  142.7174   73.2647  220.5001 H   0  0  0  0  0  0  0  0  0  0  0  0
  143.5667   75.3563  219.4179 H   0  0  0  0  0  0  0  0  0  0  0  0
  142.4208   77.5602  219.8458 H   0  0  0  0  0  0  0  0  0  0  0  0
  1  2  2  0
  2  3  2  0
  2  4  1  0
  4  5  1  0
  5  6  2  0
  6  7  1  0
  7  8  2  0
  8  9  1  0
  9 10  2  0
 10 11  1  0
 11 12  1  0
 11 13  1  0
 11 14  1  0
  2 15  1  0
 15 16  1  0
 16 17  2  0
 17 18  1  0
 18 19  2  0
 19 20  1  0
 20 21  2  0
 21 22  1  0
 22 23  2  0
 23 24  1  0
 24 25  1  0
 25 26  2  0
 26 27  1  0
 27 28  1  0
 28 29  2  0
 29 30  1  0
 30 31  2  0
 31 32  1  0
 32 33  2  0
 10  5  1  0
 24 15  1  0
 33 25  1  0
 23 18  1  0
 33 28  1  0
  4 34  1  0
  4 35  1  0
  6 36  1  0
  7 37  1  0
  8 38  1  0
  9 39  1  0
 16 40  1  0
 17 41  1  0
 19 42  1  0
 20 43  1  0
 21 44  1  0
 22 45  1  0
 24 46  1  6
 26 47  1  0
 27 48  1  0
 29 49  1  0
 30 50  1  0
 31 51  1  0
 32 52  1  0
M  END
>  <UniqueID>  (41) 
3

>  <SMILES>  (41) 
O=S(=O)(Cc1ccccc1C(F)(F)F)N1C=Cc2ccccc2[C@H]1c1c[nH]c2ccccc12

>  <Energy>  (41) 
90.70790345980004

>  <Genealogy>  (41) 
O=S(=O)(Cc1ccccc1C(F)(F)F)N1C=Cc2ccccc2[C@H]1c1c[nH]c2ccccc12 (3D coordinates assigned)
O=S(=O)(Cc1ccccc1C(F)(F)F)N1C=Cc2ccccc2[C@H]1c1c[nH]c2ccccc12 (nonaromatic ring conformer: 90.70790345980004 kcal/mol)

>  <smiles>  (41) 
O=S(=O)(Cc1ccccc1C(F)(F)F)N1C=Cc2ccccc2[C@H]1c1c[nH]c2ccccc12

>  <score_type>  (41) 
oracle

>  <origin>  (41) 
autodockgpu

>  <m_score__min__energy>  (41) 
-8.0899999999999999

>  <m_primary>  (41) 
energy

>  <meeko>  (41) 
{"free_energy": -6.68, "intermolecular_energy": -8.17, "internal_energy": -3.31, "cluster_size": 17, "cluster_id": 2, "rank_in_cluster": 5}

>  <energy>  (41) 
-8.09

>  <cluster_rmsd>  (41) 
0.0

>  <rmsd>  (41) 
269.66

>  <cluster>  (41) 
1

$$$$
CYEMMKKIRZZUDR-DEOSSOPVNA-N
     RDKit          3D

 52 56  0  0  0  0  0  0  0  0999 V2000
  137.7250   77.9630  219.7040 O   0  0  0  0  0  0  0  0  0  0  0  0
  137.8290   79.4460  219.9280 S   0  0  0  0  0  0  0  0  0  0  0  0
  136.4660   79.9790  220.2650 O   0  0  0  0  0  0  0  0  0  0  0  0
  138.4620   80.2180  218.4450 C   0  0  0  0  0  0  0  0  0  0  0  0
  139.9590   80.0410  218.3440 C   0  0  0  0  0  0  0  0  0  0  0  0
  140.4370   78.8470  217.7740 C   0  0  0  0  0  0  0  0  0  0  0  0
  141.8040   78.6210  217.6260 C   0  0  0  0  0  0  0  0  0  0  0  0
  142.7190   79.5820  218.0470 C   0  0  0  0  0  0  0  0  0  0  0  0
  142.2710   80.7740  218.6160 C   0  0  0  0  0  0  0  0  0  0  0  0
  140.8920   81.0340  218.7660 C   0  0  0  0  0  0  0  0  0  0  0  0
  140.4460   82.3290  219.4220 C   0  0  0  0  0  0  0  0  0  0  0  0
  141.3760   82.7360  220.3590 F   0  0  0  0  0  0  0  0  0  0  0  0
  140.3060   83.3090  218.4580 F   0  0  0  0  0  0  0  0  0  0  0  0
  139.2310   82.1850  220.0710 F   0  0  0  0  0  0  0  0  0  0  0  0
  138.9170   79.7690  221.2430 N   0  0  0  0  0  0  0  0  0  0  0  0
  138.4210   80.5170  222.3660 C   0  0  0  0  0  0  0  0  0  0  0  0
  139.2410   80.9270  223.3310 C   0  0  0  0  0  0  0  0  0  0  0  0
  140.6820   80.6420  223.2610 C   0  0  0  0  0  0  0  0  0  0  0  0
  141.5560   81.2000  224.2050 C   0  0  0  0  0  0  0  0  0  0  0  0
  142.9290   80.9540  224.1230 C   0  0  0  0  0  0  0  0  0  0  0  0
  143.4370   80.1520  223.0990 C   0  0  0  0  0  0  0  0  0  0  0  0
  142.5730   79.5880  222.1570 C   0  0  0  0  0  0  0  0  0  0  0  0
  141.1900   79.8290  222.2290 C   0  0  0  0  0  0  0  0  0  0  0  0
  140.2560   79.1580  221.2450 C   0  0  1  0  0  0  0  0  0  0  0  0
  140.1430   77.6930  221.5780 C   0  0  0  0  0  0  0  0  0  0  0  0
  139.2170   77.1060  222.4390 C   0  0  0  0  0  0  0  0  0  0  0  0
  139.4380   75.7760  222.5340 N   0  0  0  0  0  0  0  0  0  0  0  0
  140.4990   75.5170  221.7510 C   0  0  0  0  0  0  0  0  0  0  0  0
  141.1090   74.2820  221.5370 C   0  0  0  0  0  0  0  0  0  0  0  0
  142.2250   74.2380  220.6810 C   0  0  0  0  0  0  0  0  0  0  0  0
  142.7020   75.4160  220.0680 C   0  0  0  0  0  0  0  0  0  0  0  0
  142.0690   76.6500  220.3020 C   0  0  0  0  0  0  0  0  0  0  0  0
  140.9620   76.6630  221.1540 C   0  0  0  0  0  0  0  0  0  0  0  0
  137.9846   79.7580  217.5672 H   0  0  0  0  0  0  0  0  0  0  0  0
  138.2364   81.2939  218.4843 H   0  0  0  0  0  0  0  0  0  0  0  0
  139.7215   78.0810  217.4404 H   0  0  0  0  0  0  0  0  0  0  0  0
  142.1604   77.6826  217.1762 H   0  0  0  0  0  0  0  0  0  0  0  0
  143.7977   79.4009  217.9306 H   0  0  0  0  0  0  0  0  0  0  0  0
  143.0033   81.5225  218.9528 H   0  0  0  0  0  0  0  0  0  0  0  0
  137.3486   80.7539  222.4287 H   0  0  0  0  0  0  0  0  0  0  0  0
  138.8369   81.4843  224.1890 H   0  0  0  0  0  0  0  0  0  0  0  0
  141.1596   81.8332  225.0124 H   0  0  0  0  0  0  0  0  0  0  0  0
  143.6108   81.3928  224.8663 H   0  0  0  0  0  0  0  0  0  0  0  0
  144.5189   79.9640  223.0339 H   0  0  0  0  0  0  0  0  0  0  0  0
  142.9769   78.9524  221.3552 H   0  0  0  0  0  0  0  0  0  0  0  0
  140.6812   79.2897  220.2391 H   0  0  0  0  0  0  0  0  0  0  0  0
  138.4189   77.6488  222.9667 H   0  0  0  0  0  0  0  0  0  0  0  0
  138.8980   75.0920  223.1100 H   0  0  0  0  0  0  0  0  0  0  0  0
  140.7299   73.3704  222.0221 H   0  0  0  0  0  0  0  0  0  0  0  0
  142.7287   73.2792  220.4885 H   0  0  0  0  0  0  0  0  0  0  0  0
  143.5760   75.3689  219.4017 H   0  0  0  0  0  0  0  0  0  0  0  0
  142.4335   77.5742  219.8298 H   0  0  0  0  0  0  0  0  0  0  0  0
  1  2  2  0
  2  3  2  0
  2  4  1  0
  4  5  1  0
  5  6  2  0
  6  7  1  0
  7  8  2  0
  8  9  1  0
  9 10  2  0
 10 11  1  0
 11 12  1  0
 11 13  1  0
 11 14  1  0
  2 15  1  0
 15 16  1  0
 16 17  2  0
 17 18  1  0
 18 19  2  0
 19 20  1  0
 20 21  2  0
 21 22  1  0
 22 23  2  0
 23 24  1  0
 24 25  1  0
 25 26  2  0
 26 27  1  0
 27 28  1  0
 28 29  2  0
 29 30  1  0
 30 31  2  0
 31 32  1  0
 32 33  2  0
 10  5  1  0
 24 15  1  0
 33 25  1  0
 23 18  1  0
 33 28  1  0
  4 34  1  0
  4 35  1  0
  6 36  1  0
  7 37  1  0
  8 38  1  0
  9 39  1  0
 16 40  1  0
 17 41  1  0
 19 42  1  0
 20 43  1  0
 21 44  1  0
 22 45  1  0
 24 46  1  6
 26 47  1  0
 27 48  1  0
 29 49  1  0
 30 50  1  0
 31 51  1  0
 32 52  1  0
M  END
>  <UniqueID>  (42) 
3

>  <SMILES>  (42) 
O=S(=O)(Cc1ccccc1C(F)(F)F)N1C=Cc2ccccc2[C@H]1c1c[nH]c2ccccc12

>  <Energy>  (42) 
90.70790345980004

>  <Genealogy>  (42) 
O=S(=O)(Cc1ccccc1C(F)(F)F)N1C=Cc2ccccc2[C@H]1c1c[nH]c2ccccc12 (3D coordinates assigned)
O=S(=O)(Cc1ccccc1C(F)(F)F)N1C=Cc2ccccc2[C@H]1c1c[nH]c2ccccc12 (nonaromatic ring conformer: 90.70790345980004 kcal/mol)

>  <smiles>  (42) 
O=S(=O)(Cc1ccccc1C(F)(F)F)N1C=Cc2ccccc2[C@H]1c1c[nH]c2ccccc12

>  <score_type>  (42) 
oracle

>  <origin>  (42) 
autodockgpu

>  <m_score__min__energy>  (42) 
-8.0899999999999999

>  <m_primary>  (42) 
energy

>  <meeko>  (42) 
{"free_energy": -6.68, "intermolecular_energy": -8.17, "internal_energy": -3.31, "cluster_size": 17, "cluster_id": 2, "rank_in_cluster": 7}

>  <energy>  (42) 
-8.08

>  <cluster_rmsd>  (42) 
0.05

>  <rmsd>  (42) 
269.64

>  <cluster>  (42) 
1

$$$$
CYEMMKKIRZZUDR-DEOSSOPVNA-N
     RDKit          3D

 52 56  0  0  0  0  0  0  0  0999 V2000
  137.6990   77.9500  219.7380 O   0  0  0  0  0  0  0  0  0  0  0  0
  137.8030   79.4330  219.9660 S   0  0  0  0  0  0  0  0  0  0  0  0
  136.4420   79.9620  220.3180 O   0  0  0  0  0  0  0  0  0  0  0  0
  138.4190   80.2120  218.4800 C   0  0  0  0  0  0  0  0  0  0  0  0
  139.9190   80.0610  218.3760 C   0  0  0  0  0  0  0  0  0  0  0  0
  140.4160   78.8760  217.8030 C   0  0  0  0  0  0  0  0  0  0  0  0
  141.7870   78.6740  217.6520 C   0  0  0  0  0  0  0  0  0  0  0  0
  142.6850   79.6500  218.0740 C   0  0  0  0  0  0  0  0  0  0  0  0
  142.2180   80.8330  218.6450 C   0  0  0  0  0  0  0  0  0  0  0  0
  140.8350   81.0690  218.7980 C   0  0  0  0  0  0  0  0  0  0  0  0
  140.3680   82.3550  219.4570 C   0  0  0  0  0  0  0  0  0  0  0  0
  141.2880   82.7710  220.4000 F   0  0  0  0  0  0  0  0  0  0  0  0
  140.2170   83.3370  218.4960 F   0  0  0  0  0  0  0  0  0  0  0  0
  139.1530   82.1910  220.1000 F   0  0  0  0  0  0  0  0  0  0  0  0
  138.9020   79.7540  221.2710 N   0  0  0  0  0  0  0  0  0  0  0  0
  138.4200   80.5090  222.3950 C   0  0  0  0  0  0  0  0  0  0  0  0
  139.2500   80.9170  223.3520 C   0  0  0  0  0  0  0  0  0  0  0  0
  140.6890   80.6230  223.2720 C   0  0  0  0  0  0  0  0  0  0  0  0
  141.5740   81.1790  224.2080 C   0  0  0  0  0  0  0  0  0  0  0  0
  142.9440   80.9240  224.1160 C   0  0  0  0  0  0  0  0  0  0  0  0
  143.4390   80.1150  223.0910 C   0  0  0  0  0  0  0  0  0  0  0  0
  142.5640   79.5530  222.1580 C   0  0  0  0  0  0  0  0  0  0  0  0
  141.1840   79.8030  222.2390 C   0  0  0  0  0  0  0  0  0  0  0  0
  140.2370   79.1340  221.2650 C   0  0  1  0  0  0  0  0  0  0  0  0
  140.1180   77.6720  221.6040 C   0  0  0  0  0  0  0  0  0  0  0  0
  139.1910   77.0920  222.4700 C   0  0  0  0  0  0  0  0  0  0  0  0
  139.4060   75.7620  222.5700 N   0  0  0  0  0  0  0  0  0  0  0  0
  140.4640   75.4940  221.7850 C   0  0  0  0  0  0  0  0  0  0  0  0
  141.0670   74.2550  221.5760 C   0  0  0  0  0  0  0  0  0  0  0  0
  142.1800   74.2030  220.7180 C   0  0  0  0  0  0  0  0  0  0  0  0
  142.6630   75.3760  220.0990 C   0  0  0  0  0  0  0  0  0  0  0  0
  142.0360   76.6140  220.3290 C   0  0  0  0  0  0  0  0  0  0  0  0
  140.9310   76.6350  221.1830 C   0  0  0  0  0  0  0  0  0  0  0  0
  137.9478   79.7414  217.6045 H   0  0  0  0  0  0  0  0  0  0  0  0
  138.1747   81.2839  218.5171 H   0  0  0  0  0  0  0  0  0  0  0  0
  139.7131   78.0983  217.4696 H   0  0  0  0  0  0  0  0  0  0  0  0
  142.1592   77.7431  217.1993 H   0  0  0  0  0  0  0  0  0  0  0  0
  143.7666   79.4875  217.9566 H   0  0  0  0  0  0  0  0  0  0  0  0
  142.9380   81.5936  218.9812 H   0  0  0  0  0  0  0  0  0  0  0  0
  137.3497   80.7531  222.4653 H   0  0  0  0  0  0  0  0  0  0  0  0
  138.8560   81.4796  224.2112 H   0  0  0  0  0  0  0  0  0  0  0  0
  141.1878   81.8174  225.0163 H   0  0  0  0  0  0  0  0  0  0  0  0
  143.6344   81.3612  224.8523 H   0  0  0  0  0  0  0  0  0  0  0  0
  144.5191   79.9200  223.0181 H   0  0  0  0  0  0  0  0  0  0  0  0
  142.9577   78.9115  221.3559 H   0  0  0  0  0  0  0  0  0  0  0  0
  140.6545   79.2592  220.2550 H   0  0  0  0  0  0  0  0  0  0  0  0
  138.3966   77.6404  222.9974 H   0  0  0  0  0  0  0  0  0  0  0  0
  138.8630   75.0830  223.1500 H   0  0  0  0  0  0  0  0  0  0  0  0
  140.6848   73.3474  222.0662 H   0  0  0  0  0  0  0  0  0  0  0  0
  142.6780   73.2408  220.5278 H   0  0  0  0  0  0  0  0  0  0  0  0
  143.5360   75.3216  219.4320 H   0  0  0  0  0  0  0  0  0  0  0  0
  142.4036   77.5347  219.8523 H   0  0  0  0  0  0  0  0  0  0  0  0
  1  2  2  0
  2  3  2  0
  2  4  1  0
  4  5  1  0
  5  6  2  0
  6  7  1  0
  7  8  2  0
  8  9  1  0
  9 10  2  0
 10 11  1  0
 11 12  1  0
 11 13  1  0
 11 14  1  0
  2 15  1  0
 15 16  1  0
 16 17  2  0
 17 18  1  0
 18 19  2  0
 19 20  1  0
 20 21  2  0
 21 22  1  0
 22 23  2  0
 23 24  1  0
 24 25  1  0
 25 26  2  0
 26 27  1  0
 27 28  1  0
 28 29  2  0
 29 30  1  0
 30 31  2  0
 31 32  1  0
 32 33  2  0
 10  5  1  0
 24 15  1  0
 33 25  1  0
 23 18  1  0
 33 28  1  0
  4 34  1  0
  4 35  1  0
  6 36  1  0
  7 37  1  0
  8 38  1  0
  9 39  1  0
 16 40  1  0
 17 41  1  0
 19 42  1  0
 20 43  1  0
 21 44  1  0
 22 45  1  0
 24 46  1  6
 26 47  1  0
 27 48  1  0
 29 49  1  0
 30 50  1  0
 31 51  1  0
 32 52  1  0
M  END
>  <UniqueID>  (43) 
3

>  <SMILES>  (43) 
O=S(=O)(Cc1ccccc1C(F)(F)F)N1C=Cc2ccccc2[C@H]1c1c[nH]c2ccccc12

>  <Energy>  (43) 
90.70790345980004

>  <Genealogy>  (43) 
O=S(=O)(Cc1ccccc1C(F)(F)F)N1C=Cc2ccccc2[C@H]1c1c[nH]c2ccccc12 (3D coordinates assigned)
O=S(=O)(Cc1ccccc1C(F)(F)F)N1C=Cc2ccccc2[C@H]1c1c[nH]c2ccccc12 (nonaromatic ring conformer: 90.70790345980004 kcal/mol)

>  <smiles>  (43) 
O=S(=O)(Cc1ccccc1C(F)(F)F)N1C=Cc2ccccc2[C@H]1c1c[nH]c2ccccc12

>  <score_type>  (43) 
oracle

>  <origin>  (43) 
autodockgpu

>  <m_score__min__energy>  (43) 
-8.0899999999999999

>  <m_primary>  (43) 
energy

>  <meeko>  (43) 
{"free_energy": -6.68, "intermolecular_energy": -8.17, "internal_energy": -3.31, "cluster_size": 17, "cluster_id": 2, "rank_in_cluster": 12}

>  <energy>  (43) 
-8.08

>  <cluster_rmsd>  (43) 
0.03

>  <rmsd>  (43) 
269.65

>  <cluster>  (43) 
1

$$$$
CYEMMKKIRZZUDR-DEOSSOPVNA-N
     RDKit          3D

 52 56  0  0  0  0  0  0  0  0999 V2000
  140.7700   74.0680  221.9770 O   0  0  0  0  0  0  0  0  0  0  0  0
  140.5310   74.9150  220.7580 S   0  0  0  0  0  0  0  0  0  0  0  0
  139.0810   74.8120  220.3770 O   0  0  0  0  0  0  0  0  0  0  0  0
  141.5760   74.3360  219.4290 C   0  0  0  0  0  0  0  0  0  0  0  0
  142.9220   73.8940  219.9570 C   0  0  0  0  0  0  0  0  0  0  0  0
  143.9170   74.8760  220.1080 C   0  0  0  0  0  0  0  0  0  0  0  0
  145.1760   74.5490  220.6100 C   0  0  0  0  0  0  0  0  0  0  0  0
  145.4630   73.2350  220.9670 C   0  0  0  0  0  0  0  0  0  0  0  0
  144.4930   72.2420  220.8270 C   0  0  0  0  0  0  0  0  0  0  0  0
  143.2070   72.5480  220.3320 C   0  0  0  0  0  0  0  0  0  0  0  0
  142.1910   71.4330  220.1620 C   0  0  0  0  0  0  0  0  0  0  0  0
  141.3010   71.4290  221.2190 F   0  0  0  0  0  0  0  0  0  0  0  0
  141.5000   71.6140  218.9790 F   0  0  0  0  0  0  0  0  0  0  0  0
  142.7970   70.1880  220.1200 F   0  0  0  0  0  0  0  0  0  0  0  0
  140.9200   76.5720  221.1040 N   0  0  0  0  0  0  0  0  0  0  0  0
  141.3180   77.4180  220.0130 C   0  0  0  0  0  0  0  0  0  0  0  0
  141.7730   78.6490  220.2320 C   0  0  0  0  0  0  0  0  0  0  0  0
  141.9000   79.1680  221.6020 C   0  0  0  0  0  0  0  0  0  0  0  0
  142.5140   80.4080  221.8310 C   0  0  0  0  0  0  0  0  0  0  0  0
  142.6610   80.8890  223.1340 C   0  0  0  0  0  0  0  0  0  0  0  0
  142.1990   80.1360  224.2150 C   0  0  0  0  0  0  0  0  0  0  0  0
  141.5820   78.9020  223.9960 C   0  0  0  0  0  0  0  0  0  0  0  0
  141.4280   78.4070  222.6900 C   0  0  0  0  0  0  0  0  0  0  0  0
  140.6980   77.1020  222.4590 C   0  0  1  0  0  0  0  0  0  0  0  0
  139.2230   77.3050  222.6880 C   0  0  0  0  0  0  0  0  0  0  0  0
  138.2600   76.3080  222.8400 C   0  0  0  0  0  0  0  0  0  0  0  0
  137.0330   76.8550  222.9830 N   0  0  0  0  0  0  0  0  0  0  0  0
  137.2070   78.1860  222.9150 C   0  0  0  0  0  0  0  0  0  0  0  0
  136.2240   79.1710  222.9980 C   0  0  0  0  0  0  0  0  0  0  0  0
  136.6270   80.5140  222.8880 C   0  0  0  0  0  0  0  0  0  0  0  0
  137.9870   80.8390  222.6960 C   0  0  0  0  0  0  0  0  0  0  0  0
  138.9590   79.8240  222.6130 C   0  0  0  0  0  0  0  0  0  0  0  0
  138.5290   78.5010  222.7300 C   0  0  0  0  0  0  0  0  0  0  0  0
  141.0874   73.4858  218.9305 H   0  0  0  0  0  0  0  0  0  0  0  0
  141.7302   75.1605  218.7174 H   0  0  0  0  0  0  0  0  0  0  0  0
  143.6991   75.9167  219.8261 H   0  0  0  0  0  0  0  0  0  0  0  0
  145.9424   75.3298  220.7239 H   0  0  0  0  0  0  0  0  0  0  0  0
  146.4576   72.9785  221.3607 H   0  0  0  0  0  0  0  0  0  0  0  0
  144.7339   71.2057  221.1064 H   0  0  0  0  0  0  0  0  0  0  0  0
  141.2455   77.0425  218.9816 H   0  0  0  0  0  0  0  0  0  0  0  0
  142.0568   79.2845  219.3802 H   0  0  0  0  0  0  0  0  0  0  0  0
  142.8809   81.0034  220.9819 H   0  0  0  0  0  0  0  0  0  0  0  0
  143.1416   81.8629  223.3088 H   0  0  0  0  0  0  0  0  0  0  0  0
  142.3210   80.5149  225.2405 H   0  0  0  0  0  0  0  0  0  0  0  0
  141.2148   78.3147  224.8505 H   0  0  0  0  0  0  0  0  0  0  0  0
  141.0979   76.3652  223.1712 H   0  0  0  0  0  0  0  0  0  0  0  0
  138.4698   75.2282  222.8430 H   0  0  0  0  0  0  0  0  0  0  0  0
  136.1310   76.3430  223.1110 H   0  0  0  0  0  0  0  0  0  0  0  0
  135.1665   78.9062  223.1449 H   0  0  0  0  0  0  0  0  0  0  0  0
  135.8773   81.3164  222.9520 H   0  0  0  0  0  0  0  0  0  0  0  0
  138.2897   81.8931  222.6106 H   0  0  0  0  0  0  0  0  0  0  0  0
  140.0214   80.0652  222.4611 H   0  0  0  0  0  0  0  0  0  0  0  0
  1  2  2  0
  2  3  2  0
  2  4  1  0
  4  5  1  0
  5  6  2  0
  6  7  1  0
  7  8  2  0
  8  9  1  0
  9 10  2  0
 10 11  1  0
 11 12  1  0
 11 13  1  0
 11 14  1  0
  2 15  1  0
 15 16  1  0
 16 17  2  0
 17 18  1  0
 18 19  2  0
 19 20  1  0
 20 21  2  0
 21 22  1  0
 22 23  2  0
 23 24  1  0
 24 25  1  0
 25 26  2  0
 26 27  1  0
 27 28  1  0
 28 29  2  0
 29 30  1  0
 30 31  2  0
 31 32  1  0
 32 33  2  0
 10  5  1  0
 24 15  1  0
 33 25  1  0
 23 18  1  0
 33 28  1  0
  4 34  1  0
  4 35  1  0
  6 36  1  0
  7 37  1  0
  8 38  1  0
  9 39  1  0
 16 40  1  0
 17 41  1  0
 19 42  1  0
 20 43  1  0
 21 44  1  0
 22 45  1  0
 24 46  1  1
 26 47  1  0
 27 48  1  0
 29 49  1  0
 30 50  1  0
 31 51  1  0
 32 52  1  0
M  END
>  <UniqueID>  (44) 
3

>  <SMILES>  (44) 
O=S(=O)(Cc1ccccc1C(F)(F)F)N1C=Cc2ccccc2[C@H]1c1c[nH]c2ccccc12

>  <Energy>  (44) 
90.70790345980004

>  <Genealogy>  (44) 
O=S(=O)(Cc1ccccc1C(F)(F)F)N1C=Cc2ccccc2[C@H]1c1c[nH]c2ccccc12 (3D coordinates assigned)
O=S(=O)(Cc1ccccc1C(F)(F)F)N1C=Cc2ccccc2[C@H]1c1c[nH]c2ccccc12 (nonaromatic ring conformer: 90.70790345980004 kcal/mol)

>  <smiles>  (44) 
O=S(=O)(Cc1ccccc1C(F)(F)F)N1C=Cc2ccccc2[C@H]1c1c[nH]c2ccccc12

>  <score_type>  (44) 
oracle

>  <origin>  (44) 
autodockgpu

>  <m_score__min__energy>  (44) 
-8.0899999999999999

>  <m_primary>  (44) 
energy

>  <meeko>  (44) 
{"free_energy": -8.08, "intermolecular_energy": -9.57, "internal_energy": -1.92, "cluster_size": 3, "cluster_id": 1, "rank_in_cluster": 3}

>  <energy>  (44) 
-6.69

>  <cluster_rmsd>  (44) 
0.0

>  <rmsd>  (44) 
269.62

>  <cluster>  (44) 
2

$$$$
CYEMMKKIRZZUDR-DEOSSOPVNA-N
     RDKit          3D

 52 56  0  0  0  0  0  0  0  0999 V2000
  137.7200   77.9610  219.7190 O   0  0  0  0  0  0  0  0  0  0  0  0
  137.8210   79.4440  219.9450 S   0  0  0  0  0  0  0  0  0  0  0  0
  136.4570   79.9730  220.2860 O   0  0  0  0  0  0  0  0  0  0  0  0
  138.4490   80.2200  218.4630 C   0  0  0  0  0  0  0  0  0  0  0  0
  139.9490   80.0620  218.3670 C   0  0  0  0  0  0  0  0  0  0  0  0
  140.4440   78.8750  217.7960 C   0  0  0  0  0  0  0  0  0  0  0  0
  141.8140   78.6660  217.6530 C   0  0  0  0  0  0  0  0  0  0  0  0
  142.7150   79.6370  218.0810 C   0  0  0  0  0  0  0  0  0  0  0  0
  142.2500   80.8220  218.6510 C   0  0  0  0  0  0  0  0  0  0  0  0
  140.8680   81.0640  218.7960 C   0  0  0  0  0  0  0  0  0  0  0  0
  140.4040   82.3520  219.4540 C   0  0  0  0  0  0  0  0  0  0  0  0
  141.3240   82.7670  220.3970 F   0  0  0  0  0  0  0  0  0  0  0  0
  140.2570   83.3340  218.4920 F   0  0  0  0  0  0  0  0  0  0  0  0
  139.1870   82.1920  220.0960 F   0  0  0  0  0  0  0  0  0  0  0  0
  138.9100   79.7670  221.2590 N   0  0  0  0  0  0  0  0  0  0  0  0
  138.4140   80.5100  222.3850 C   0  0  0  0  0  0  0  0  0  0  0  0
  139.2340   80.9190  223.3500 C   0  0  0  0  0  0  0  0  0  0  0  0
  140.6760   80.6390  223.2760 C   0  0  0  0  0  0  0  0  0  0  0  0
  141.5510   81.1980  224.2200 C   0  0  0  0  0  0  0  0  0  0  0  0
  142.9240   80.9570  224.1350 C   0  0  0  0  0  0  0  0  0  0  0  0
  143.4320   80.1600  223.1070 C   0  0  0  0  0  0  0  0  0  0  0  0
  142.5690   79.5960  222.1660 C   0  0  0  0  0  0  0  0  0  0  0  0
  141.1850   79.8310  222.2400 C   0  0  0  0  0  0  0  0  0  0  0  0
  140.2510   79.1600  221.2560 C   0  0  1  0  0  0  0  0  0  0  0  0
  140.1440   77.6940  221.5860 C   0  0  0  0  0  0  0  0  0  0  0  0
  139.2180   77.1000  222.4420 C   0  0  0  0  0  0  0  0  0  0  0  0
  139.4450   75.7710  222.5340 N   0  0  0  0  0  0  0  0  0  0  0  0
  140.5100   75.5190  221.7540 C   0  0  0  0  0  0  0  0  0  0  0  0
  141.1270   74.2880  221.5400 C   0  0  0  0  0  0  0  0  0  0  0  0
  142.2450   74.2510  220.6880 C   0  0  0  0  0  0  0  0  0  0  0  0
  142.7200   75.4330  220.0790 C   0  0  0  0  0  0  0  0  0  0  0  0
  142.0790   76.6640  220.3140 C   0  0  0  0  0  0  0  0  0  0  0  0
  140.9690   76.6680  221.1620 C   0  0  0  0  0  0  0  0  0  0  0  0
  137.9804   79.7518  217.5848 H   0  0  0  0  0  0  0  0  0  0  0  0
  138.2097   81.2931  218.4991 H   0  0  0  0  0  0  0  0  0  0  0  0
  139.7393   78.1011  217.4577 H   0  0  0  0  0  0  0  0  0  0  0  0
  142.1838   77.7335  217.2018 H   0  0  0  0  0  0  0  0  0  0  0  0
  143.7964   79.4693  217.9694 H   0  0  0  0  0  0  0  0  0  0  0  0
  142.9715   81.5788  218.9924 H   0  0  0  0  0  0  0  0  0  0  0  0
  137.3411   80.7439  222.4500 H   0  0  0  0  0  0  0  0  0  0  0  0
  138.8296   81.4715  224.2109 H   0  0  0  0  0  0  0  0  0  0  0  0
  141.1541   81.8281  225.0296 H   0  0  0  0  0  0  0  0  0  0  0  0
  143.6059   81.3954  224.8785 H   0  0  0  0  0  0  0  0  0  0  0  0
  144.5144   79.9763  223.0387 H   0  0  0  0  0  0  0  0  0  0  0  0
  142.9742   78.9641  221.3620 H   0  0  0  0  0  0  0  0  0  0  0  0
  140.6728   79.2957  220.2492 H   0  0  0  0  0  0  0  0  0  0  0  0
  138.4155   77.6374  222.9685 H   0  0  0  0  0  0  0  0  0  0  0  0
  138.9060   75.0830  223.1060 H   0  0  0  0  0  0  0  0  0  0  0  0
  140.7512   73.3737  222.0225 H   0  0  0  0  0  0  0  0  0  0  0  0
  142.7530   73.2947  220.4946 H   0  0  0  0  0  0  0  0  0  0  0  0
  143.5970   75.3916  219.4163 H   0  0  0  0  0  0  0  0  0  0  0  0
  142.4400   77.5915  219.8456 H   0  0  0  0  0  0  0  0  0  0  0  0
  1  2  2  0
  2  3  2  0
  2  4  1  0
  4  5  1  0
  5  6  2  0
  6  7  1  0
  7  8  2  0
  8  9  1  0
  9 10  2  0
 10 11  1  0
 11 12  1  0
 11 13  1  0
 11 14  1  0
  2 15  1  0
 15 16  1  0
 16 17  2  0
 17 18  1  0
 18 19  2  0
 19 20  1  0
 20 21  2  0
 21 22  1  0
 22 23  2  0
 23 24  1  0
 24 25  1  0
 25 26  2  0
 26 27  1  0
 27 28  1  0
 28 29  2  0
 29 30  1  0
 30 31  2  0
 31 32  1  0
 32 33  2  0
 10  5  1  0
 24 15  1  0
 33 25  1  0
 23 18  1  0
 33 28  1  0
  4 34  1  0
  4 35  1  0
  6 36  1  0
  7 37  1  0
  8 38  1  0
  9 39  1  0
 16 40  1  0
 17 41  1  0
 19 42  1  0
 20 43  1  0
 21 44  1  0
 22 45  1  0
 24 46  1  6
 26 47  1  0
 27 48  1  0
 29 49  1  0
 30 50  1  0
 31 51  1  0
 32 52  1  0
M  END
>  <UniqueID>  (45) 
3

>  <SMILES>  (45) 
O=S(=O)(Cc1ccccc1C(F)(F)F)N1C=Cc2ccccc2[C@H]1c1c[nH]c2ccccc12

>  <Energy>  (45) 
90.70790345980004

>  <Genealogy>  (45) 
O=S(=O)(Cc1ccccc1C(F)(F)F)N1C=Cc2ccccc2[C@H]1c1c[nH]c2ccccc12 (3D coordinates assigned)
O=S(=O)(Cc1ccccc1C(F)(F)F)N1C=Cc2ccccc2[C@H]1c1c[nH]c2ccccc12 (nonaromatic ring conformer: 90.70790345980004 kcal/mol)

>  <smiles>  (45) 
O=S(=O)(Cc1ccccc1C(F)(F)F)N1C=Cc2ccccc2[C@H]1c1c[nH]c2ccccc12

>  <score_type>  (45) 
oracle

>  <origin>  (45) 
autodockgpu

>  <m_score__min__energy>  (45) 
-8.0899999999999999

>  <m_primary>  (45) 
energy

>  <meeko>  (45) 
{"free_energy": -6.68, "intermolecular_energy": -8.17, "internal_energy": -3.3, "cluster_size": 17, "cluster_id": 2, "rank_in_cluster": 9}

>  <energy>  (45) 
-6.69

>  <cluster_rmsd>  (45) 
0.06

>  <rmsd>  (45) 
269.62

>  <cluster>  (45) 
2

$$$$
CYEMMKKIRZZUDR-DEOSSOPVNA-N
     RDKit          3D

 52 56  0  0  0  0  0  0  0  0999 V2000
  137.7530   77.9460  219.6840 O   0  0  0  0  0  0  0  0  0  0  0  0
  137.8320   79.4280  219.9260 S   0  0  0  0  0  0  0  0  0  0  0  0
  136.4600   79.9330  220.2710 O   0  0  0  0  0  0  0  0  0  0  0  0
  138.4480   80.2300  218.4520 C   0  0  0  0  0  0  0  0  0  0  0  0
  139.9480   80.0770  218.3450 C   0  0  0  0  0  0  0  0  0  0  0  0
  140.4440   78.8990  217.7580 C   0  0  0  0  0  0  0  0  0  0  0  0
  141.8140   78.6970  217.6050 C   0  0  0  0  0  0  0  0  0  0  0  0
  142.7140   79.6670  218.0360 C   0  0  0  0  0  0  0  0  0  0  0  0
  142.2480   80.8440  218.6210 C   0  0  0  0  0  0  0  0  0  0  0  0
  140.8660   81.0790  218.7780 C   0  0  0  0  0  0  0  0  0  0  0  0
  140.4010   82.3590  219.4520 C   0  0  0  0  0  0  0  0  0  0  0  0
  141.3140   82.7540  220.4100 F   0  0  0  0  0  0  0  0  0  0  0  0
  140.2680   83.3570  218.5050 F   0  0  0  0  0  0  0  0  0  0  0  0
  139.1780   82.1940  220.0800 F   0  0  0  0  0  0  0  0  0  0  0  0
  138.9150   79.7550  221.2430 N   0  0  0  0  0  0  0  0  0  0  0  0
  138.4140   80.4980  222.3660 C   0  0  0  0  0  0  0  0  0  0  0  0
  139.2300   80.9100  223.3340 C   0  0  0  0  0  0  0  0  0  0  0  0
  140.6730   80.6320  223.2660 C   0  0  0  0  0  0  0  0  0  0  0  0
  141.5430   81.1930  224.2130 C   0  0  0  0  0  0  0  0  0  0  0  0
  142.9160   80.9540  224.1330 C   0  0  0  0  0  0  0  0  0  0  0  0
  143.4300   80.1560  223.1080 C   0  0  0  0  0  0  0  0  0  0  0  0
  142.5710   79.5900  222.1640 C   0  0  0  0  0  0  0  0  0  0  0  0
  141.1870   79.8230  222.2330 C   0  0  0  0  0  0  0  0  0  0  0  0
  140.2570   79.1500  221.2460 C   0  0  1  0  0  0  0  0  0  0  0  0
  140.1510   77.6840  221.5770 C   0  0  0  0  0  0  0  0  0  0  0  0
  139.2270   77.0910  222.4370 C   0  0  0  0  0  0  0  0  0  0  0  0
  139.4550   75.7620  222.5300 N   0  0  0  0  0  0  0  0  0  0  0  0
  140.5170   75.5090  221.7460 C   0  0  0  0  0  0  0  0  0  0  0  0
  141.1330   74.2770  221.5310 C   0  0  0  0  0  0  0  0  0  0  0  0
  142.2490   74.2400  220.6760 C   0  0  0  0  0  0  0  0  0  0  0  0
  142.7220   75.4220  220.0650 C   0  0  0  0  0  0  0  0  0  0  0  0
  142.0820   76.6520  220.3010 C   0  0  0  0  0  0  0  0  0  0  0  0
  140.9750   76.6580  221.1520 C   0  0  0  0  0  0  0  0  0  0  0  0
  137.9751   79.7748  217.5693 H   0  0  0  0  0  0  0  0  0  0  0  0
  138.2057   81.3016  218.5061 H   0  0  0  0  0  0  0  0  0  0  0  0
  139.7403   78.1263  217.4149 H   0  0  0  0  0  0  0  0  0  0  0  0
  142.1846   77.7700  217.1431 H   0  0  0  0  0  0  0  0  0  0  0  0
  143.7953   79.5050  217.9150 H   0  0  0  0  0  0  0  0  0  0  0  0
  142.9688   81.6003  218.9651 H   0  0  0  0  0  0  0  0  0  0  0  0
  137.3404   80.7299  222.4269 H   0  0  0  0  0  0  0  0  0  0  0  0
  138.8215   81.4633  224.1924 H   0  0  0  0  0  0  0  0  0  0  0  0
  141.1421   81.8229  225.0207 H   0  0  0  0  0  0  0  0  0  0  0  0
  143.5944   81.3948  224.8783 H   0  0  0  0  0  0  0  0  0  0  0  0
  144.5129   79.9733  223.0446 H   0  0  0  0  0  0  0  0  0  0  0  0
  142.9799   78.9582  221.3618 H   0  0  0  0  0  0  0  0  0  0  0  0
  140.6821   79.2859  220.2406 H   0  0  0  0  0  0  0  0  0  0  0  0
  138.4258   77.6289  222.9650 H   0  0  0  0  0  0  0  0  0  0  0  0
  138.9170   75.0740  223.1040 H   0  0  0  0  0  0  0  0  0  0  0  0
  140.7581   73.3630  222.0147 H   0  0  0  0  0  0  0  0  0  0  0  0
  142.7569   73.2838  220.4818 H   0  0  0  0  0  0  0  0  0  0  0  0
  143.5971   75.3805  219.3998 H   0  0  0  0  0  0  0  0  0  0  0  0
  142.4418   77.5789  219.8305 H   0  0  0  0  0  0  0  0  0  0  0  0
  1  2  2  0
  2  3  2  0
  2  4  1  0
  4  5  1  0
  5  6  2  0
  6  7  1  0
  7  8  2  0
  8  9  1  0
  9 10  2  0
 10 11  1  0
 11 12  1  0
 11 13  1  0
 11 14  1  0
  2 15  1  0
 15 16  1  0
 16 17  2  0
 17 18  1  0
 18 19  2  0
 19 20  1  0
 20 21  2  0
 21 22  1  0
 22 23  2  0
 23 24  1  0
 24 25  1  0
 25 26  2  0
 26 27  1  0
 27 28  1  0
 28 29  2  0
 29 30  1  0
 30 31  2  0
 31 32  1  0
 32 33  2  0
 10  5  1  0
 24 15  1  0
 33 25  1  0
 23 18  1  0
 33 28  1  0
  4 34  1  0
  4 35  1  0
  6 36  1  0
  7 37  1  0
  8 38  1  0
  9 39  1  0
 16 40  1  0
 17 41  1  0
 19 42  1  0
 20 43  1  0
 21 44  1  0
 22 45  1  0
 24 46  1  6
 26 47  1  0
 27 48  1  0
 29 49  1  0
 30 50  1  0
 31 51  1  0
 32 52  1  0
M  END
>  <UniqueID>  (46) 
3

>  <SMILES>  (46) 
O=S(=O)(Cc1ccccc1C(F)(F)F)N1C=Cc2ccccc2[C@H]1c1c[nH]c2ccccc12

>  <Energy>  (46) 
90.70790345980004

>  <Genealogy>  (46) 
O=S(=O)(Cc1ccccc1C(F)(F)F)N1C=Cc2ccccc2[C@H]1c1c[nH]c2ccccc12 (3D coordinates assigned)
O=S(=O)(Cc1ccccc1C(F)(F)F)N1C=Cc2ccccc2[C@H]1c1c[nH]c2ccccc12 (nonaromatic ring conformer: 90.70790345980004 kcal/mol)

>  <smiles>  (46) 
O=S(=O)(Cc1ccccc1C(F)(F)F)N1C=Cc2ccccc2[C@H]1c1c[nH]c2ccccc12

>  <score_type>  (46) 
oracle

>  <origin>  (46) 
autodockgpu

>  <m_score__min__energy>  (46) 
-8.0899999999999999

>  <m_primary>  (46) 
energy

>  <meeko>  (46) 
{"free_energy": -6.67, "intermolecular_energy": -8.17, "internal_energy": -3.31, "cluster_size": 17, "cluster_id": 2, "rank_in_cluster": 14}

>  <energy>  (46) 
-6.69

>  <cluster_rmsd>  (46) 
0.03

>  <rmsd>  (46) 
269.62

>  <cluster>  (46) 
2

$$$$
CYEMMKKIRZZUDR-DEOSSOPVNA-N
     RDKit          3D

 52 56  0  0  0  0  0  0  0  0999 V2000
  137.7140   77.9620  219.7220 O   0  0  0  0  0  0  0  0  0  0  0  0
  137.8260   79.4440  219.9440 S   0  0  0  0  0  0  0  0  0  0  0  0
  136.4650   79.9840  220.2840 O   0  0  0  0  0  0  0  0  0  0  0  0
  138.4590   80.2130  218.4600 C   0  0  0  0  0  0  0  0  0  0  0  0
  139.9570   80.0380  218.3610 C   0  0  0  0  0  0  0  0  0  0  0  0
  140.4370   78.8430  217.7950 C   0  0  0  0  0  0  0  0  0  0  0  0
  141.8050   78.6190  217.6500 C   0  0  0  0  0  0  0  0  0  0  0  0
  142.7170   79.5830  218.0690 C   0  0  0  0  0  0  0  0  0  0  0  0
  142.2660   80.7770  218.6330 C   0  0  0  0  0  0  0  0  0  0  0  0
  140.8870   81.0340  218.7810 C   0  0  0  0  0  0  0  0  0  0  0  0
  140.4380   82.3310  219.4320 C   0  0  0  0  0  0  0  0  0  0  0  0
  141.3630   82.7390  220.3730 F   0  0  0  0  0  0  0  0  0  0  0  0
  140.3020   83.3090  218.4660 F   0  0  0  0  0  0  0  0  0  0  0  0
  139.2200   82.1880  220.0750 F   0  0  0  0  0  0  0  0  0  0  0  0
  138.9170   79.7640  221.2570 N   0  0  0  0  0  0  0  0  0  0  0  0
  138.4240   80.5060  222.3840 C   0  0  0  0  0  0  0  0  0  0  0  0
  139.2460   80.9130  223.3490 C   0  0  0  0  0  0  0  0  0  0  0  0
  140.6870   80.6300  223.2730 C   0  0  0  0  0  0  0  0  0  0  0  0
  141.5640   81.1860  224.2170 C   0  0  0  0  0  0  0  0  0  0  0  0
  142.9370   80.9420  224.1290 C   0  0  0  0  0  0  0  0  0  0  0  0
  143.4420   80.1450  223.1000 C   0  0  0  0  0  0  0  0  0  0  0  0
  142.5760   79.5840  222.1590 C   0  0  0  0  0  0  0  0  0  0  0  0
  141.1930   79.8220  222.2360 C   0  0  0  0  0  0  0  0  0  0  0  0
  140.2570   79.1540  221.2520 C   0  0  1  0  0  0  0  0  0  0  0  0
  140.1470   77.6880  221.5790 C   0  0  0  0  0  0  0  0  0  0  0  0
  139.2190   77.0950  222.4340 C   0  0  0  0  0  0  0  0  0  0  0  0
  139.4440   75.7650  222.5260 N   0  0  0  0  0  0  0  0  0  0  0  0
  140.5100   75.5130  221.7460 C   0  0  0  0  0  0  0  0  0  0  0  0
  141.1240   74.2800  221.5310 C   0  0  0  0  0  0  0  0  0  0  0  0
  142.2440   74.2430  220.6800 C   0  0  0  0  0  0  0  0  0  0  0  0
  142.7210   75.4250  220.0730 C   0  0  0  0  0  0  0  0  0  0  0  0
  142.0820   76.6560  220.3090 C   0  0  0  0  0  0  0  0  0  0  0  0
  140.9710   76.6620  221.1550 C   0  0  0  0  0  0  0  0  0  0  0  0
  137.9832   79.7500  217.5830 H   0  0  0  0  0  0  0  0  0  0  0  0
  138.2316   81.2886  218.4962 H   0  0  0  0  0  0  0  0  0  0  0  0
  139.7231   78.0750  217.4624 H   0  0  0  0  0  0  0  0  0  0  0  0
  142.1640   77.6797  217.2041 H   0  0  0  0  0  0  0  0  0  0  0  0
  143.7962   79.4033  217.9553 H   0  0  0  0  0  0  0  0  0  0  0  0
  142.9964   81.5286  218.9670 H   0  0  0  0  0  0  0  0  0  0  0  0
  137.3515   80.7413  222.4506 H   0  0  0  0  0  0  0  0  0  0  0  0
  138.8437   81.4658  224.2107 H   0  0  0  0  0  0  0  0  0  0  0  0
  141.1695   81.8155  225.0283 H   0  0  0  0  0  0  0  0  0  0  0  0
  143.6210   81.3786  224.8716 H   0  0  0  0  0  0  0  0  0  0  0  0
  144.5239   79.9586  223.0304 H   0  0  0  0  0  0  0  0  0  0  0  0
  142.9784   78.9525  221.3532 H   0  0  0  0  0  0  0  0  0  0  0  0
  140.6787   79.2901  220.2452 H   0  0  0  0  0  0  0  0  0  0  0  0
  138.4167   77.6334  222.9597 H   0  0  0  0  0  0  0  0  0  0  0  0
  138.9030   75.0770  223.0960 H   0  0  0  0  0  0  0  0  0  0  0  0
  140.7452   73.3657  222.0111 H   0  0  0  0  0  0  0  0  0  0  0  0
  142.7514   73.2864  220.4863 H   0  0  0  0  0  0  0  0  0  0  0  0
  143.5984   75.3832  219.4109 H   0  0  0  0  0  0  0  0  0  0  0  0
  142.4456   77.5834  219.8424 H   0  0  0  0  0  0  0  0  0  0  0  0
  1  2  2  0
  2  3  2  0
  2  4  1  0
  4  5  1  0
  5  6  2  0
  6  7  1  0
  7  8  2  0
  8  9  1  0
  9 10  2  0
 10 11  1  0
 11 12  1  0
 11 13  1  0
 11 14  1  0
  2 15  1  0
 15 16  1  0
 16 17  2  0
 17 18  1  0
 18 19  2  0
 19 20  1  0
 20 21  2  0
 21 22  1  0
 22 23  2  0
 23 24  1  0
 24 25  1  0
 25 26  2  0
 26 27  1  0
 27 28  1  0
 28 29  2  0
 29 30  1  0
 30 31  2  0
 31 32  1  0
 32 33  2  0
 10  5  1  0
 24 15  1  0
 33 25  1  0
 23 18  1  0
 33 28  1  0
  4 34  1  0
  4 35  1  0
  6 36  1  0
  7 37  1  0
  8 38  1  0
  9 39  1  0
 16 40  1  0
 17 41  1  0
 19 42  1  0
 20 43  1  0
 21 44  1  0
 22 45  1  0
 24 46  1  6
 26 47  1  0
 27 48  1  0
 29 49  1  0
 30 50  1  0
 31 51  1  0
 32 52  1  0
M  END
>  <UniqueID>  (47) 
3

>  <SMILES>  (47) 
O=S(=O)(Cc1ccccc1C(F)(F)F)N1C=Cc2ccccc2[C@H]1c1c[nH]c2ccccc12

>  <Energy>  (47) 
90.70790345980004

>  <Genealogy>  (47) 
O=S(=O)(Cc1ccccc1C(F)(F)F)N1C=Cc2ccccc2[C@H]1c1c[nH]c2ccccc12 (3D coordinates assigned)
O=S(=O)(Cc1ccccc1C(F)(F)F)N1C=Cc2ccccc2[C@H]1c1c[nH]c2ccccc12 (nonaromatic ring conformer: 90.70790345980004 kcal/mol)

>  <smiles>  (47) 
O=S(=O)(Cc1ccccc1C(F)(F)F)N1C=Cc2ccccc2[C@H]1c1c[nH]c2ccccc12

>  <score_type>  (47) 
oracle

>  <origin>  (47) 
autodockgpu

>  <m_score__min__energy>  (47) 
-8.0899999999999999

>  <m_primary>  (47) 
energy

>  <meeko>  (47) 
{"free_energy": -6.69, "intermolecular_energy": -8.18, "internal_energy": -3.31, "cluster_size": 17, "cluster_id": 2, "rank_in_cluster": 1}

>  <energy>  (47) 
-6.68

>  <cluster_rmsd>  (47) 
0.04

>  <rmsd>  (47) 
269.63

>  <cluster>  (47) 
2

$$$$
CYEMMKKIRZZUDR-DEOSSOPVNA-N
     RDKit          3D

 52 56  0  0  0  0  0  0  0  0999 V2000
  137.7030   77.9490  219.7420 O   0  0  0  0  0  0  0  0  0  0  0  0
  137.8140   79.4330  219.9620 S   0  0  0  0  0  0  0  0  0  0  0  0
  136.4550   79.9720  220.3070 O   0  0  0  0  0  0  0  0  0  0  0  0
  138.4400   80.1990  218.4730 C   0  0  0  0  0  0  0  0  0  0  0  0
  139.9400   80.0440  218.3780 C   0  0  0  0  0  0  0  0  0  0  0  0
  140.4370   78.8540  217.8160 C   0  0  0  0  0  0  0  0  0  0  0  0
  141.8080   78.6470  217.6750 C   0  0  0  0  0  0  0  0  0  0  0  0
  142.7070   79.6240  218.0930 C   0  0  0  0  0  0  0  0  0  0  0  0
  142.2390   80.8130  218.6530 C   0  0  0  0  0  0  0  0  0  0  0  0
  140.8560   81.0530  218.7970 C   0  0  0  0  0  0  0  0  0  0  0  0
  140.3890   82.3450  219.4440 C   0  0  0  0  0  0  0  0  0  0  0  0
  141.3190   82.7820  220.3670 F   0  0  0  0  0  0  0  0  0  0  0  0
  140.2170   83.3120  218.4710 F   0  0  0  0  0  0  0  0  0  0  0  0
  139.1840   82.1820  220.1070 F   0  0  0  0  0  0  0  0  0  0  0  0
  138.9120   79.7550  221.2690 N   0  0  0  0  0  0  0  0  0  0  0  0
  138.4250   80.5030  222.3950 C   0  0  0  0  0  0  0  0  0  0  0  0
  139.2520   80.9120  223.3540 C   0  0  0  0  0  0  0  0  0  0  0  0
  140.6920   80.6260  223.2740 C   0  0  0  0  0  0  0  0  0  0  0  0
  141.5740   81.1830  224.2120 C   0  0  0  0  0  0  0  0  0  0  0  0
  142.9460   80.9360  224.1190 C   0  0  0  0  0  0  0  0  0  0  0  0
  143.4450   80.1340  223.0910 C   0  0  0  0  0  0  0  0  0  0  0  0
  142.5740   79.5710  222.1560 C   0  0  0  0  0  0  0  0  0  0  0  0
  141.1920   79.8120  222.2370 C   0  0  0  0  0  0  0  0  0  0  0  0
  140.2500   79.1420  221.2600 C   0  0  1  0  0  0  0  0  0  0  0  0
  140.1390   77.6780  221.5940 C   0  0  0  0  0  0  0  0  0  0  0  0
  139.2140   77.0900  222.4570 C   0  0  0  0  0  0  0  0  0  0  0  0
  139.4360   75.7610  222.5520 N   0  0  0  0  0  0  0  0  0  0  0  0
  140.4970   75.5020  221.7670 C   0  0  0  0  0  0  0  0  0  0  0  0
  141.1070   74.2670  221.5530 C   0  0  0  0  0  0  0  0  0  0  0  0
  142.2210   74.2240  220.6960 C   0  0  0  0  0  0  0  0  0  0  0  0
  142.6980   75.4020  220.0820 C   0  0  0  0  0  0  0  0  0  0  0  0
  142.0630   76.6360  220.3170 C   0  0  0  0  0  0  0  0  0  0  0  0
  140.9570   76.6480  221.1690 C   0  0  0  0  0  0  0  0  0  0  0  0
  137.9724   79.7226  217.5987 H   0  0  0  0  0  0  0  0  0  0  0  0
  138.1981   81.2717  218.5006 H   0  0  0  0  0  0  0  0  0  0  0  0
  139.7339   78.0762  217.4833 H   0  0  0  0  0  0  0  0  0  0  0  0
  142.1799   77.7109  217.2331 H   0  0  0  0  0  0  0  0  0  0  0  0
  143.7887   79.4583  217.9816 H   0  0  0  0  0  0  0  0  0  0  0  0
  142.9588   81.5747  218.9872 H   0  0  0  0  0  0  0  0  0  0  0  0
  137.3533   80.7409  222.4653 H   0  0  0  0  0  0  0  0  0  0  0  0
  138.8544   81.4695  224.2149 H   0  0  0  0  0  0  0  0  0  0  0  0
  141.1843   81.8159  225.0229 H   0  0  0  0  0  0  0  0  0  0  0  0
  143.6341   81.3741  224.8569 H   0  0  0  0  0  0  0  0  0  0  0  0
  144.5262   79.9453  223.0174 H   0  0  0  0  0  0  0  0  0  0  0  0
  142.9720   78.9352  221.3514 H   0  0  0  0  0  0  0  0  0  0  0  0
  140.6666   79.2728  220.2504 H   0  0  0  0  0  0  0  0  0  0  0  0
  138.4162   77.6323  222.9857 H   0  0  0  0  0  0  0  0  0  0  0  0
  138.8970   75.0760  223.1280 H   0  0  0  0  0  0  0  0  0  0  0  0
  140.7291   73.3554  222.0389 H   0  0  0  0  0  0  0  0  0  0  0  0
  142.7244   73.2652  220.5027 H   0  0  0  0  0  0  0  0  0  0  0  0
  143.5718   75.3554  219.4154 H   0  0  0  0  0  0  0  0  0  0  0  0
  142.4263   77.5607  219.8448 H   0  0  0  0  0  0  0  0  0  0  0  0
  1  2  2  0
  2  3  2  0
  2  4  1  0
  4  5  1  0
  5  6  2  0
  6  7  1  0
  7  8  2  0
  8  9  1  0
  9 10  2  0
 10 11  1  0
 11 12  1  0
 11 13  1  0
 11 14  1  0
  2 15  1  0
 15 16  1  0
 16 17  2  0
 17 18  1  0
 18 19  2  0
 19 20  1  0
 20 21  2  0
 21 22  1  0
 22 23  2  0
 23 24  1  0
 24 25  1  0
 25 26  2  0
 26 27  1  0
 27 28  1  0
 28 29  2  0
 29 30  1  0
 30 31  2  0
 31 32  1  0
 32 33  2  0
 10  5  1  0
 24 15  1  0
 33 25  1  0
 23 18  1  0
 33 28  1  0
  4 34  1  0
  4 35  1  0
  6 36  1  0
  7 37  1  0
  8 38  1  0
  9 39  1  0
 16 40  1  0
 17 41  1  0
 19 42  1  0
 20 43  1  0
 21 44  1  0
 22 45  1  0
 24 46  1  6
 26 47  1  0
 27 48  1  0
 29 49  1  0
 30 50  1  0
 31 51  1  0
 32 52  1  0
M  END
>  <UniqueID>  (48) 
3

>  <SMILES>  (48) 
O=S(=O)(Cc1ccccc1C(F)(F)F)N1C=Cc2ccccc2[C@H]1c1c[nH]c2ccccc12

>  <Energy>  (48) 
90.70790345980004

>  <Genealogy>  (48) 
O=S(=O)(Cc1ccccc1C(F)(F)F)N1C=Cc2ccccc2[C@H]1c1c[nH]c2ccccc12 (3D coordinates assigned)
O=S(=O)(Cc1ccccc1C(F)(F)F)N1C=Cc2ccccc2[C@H]1c1c[nH]c2ccccc12 (nonaromatic ring conformer: 90.70790345980004 kcal/mol)

>  <smiles>  (48) 
O=S(=O)(Cc1ccccc1C(F)(F)F)N1C=Cc2ccccc2[C@H]1c1c[nH]c2ccccc12

>  <score_type>  (48) 
oracle

>  <origin>  (48) 
autodockgpu

>  <m_score__min__energy>  (48) 
-8.0899999999999999

>  <m_primary>  (48) 
energy

>  <meeko>  (48) 
{"free_energy": -6.69, "intermolecular_energy": -8.18, "internal_energy": -3.31, "cluster_size": 17, "cluster_id": 2, "rank_in_cluster": 3}

>  <energy>  (48) 
-6.68

>  <cluster_rmsd>  (48) 
0.04

>  <rmsd>  (48) 
269.61

>  <cluster>  (48) 
2

$$$$
CYEMMKKIRZZUDR-DEOSSOPVNA-N
     RDKit          3D

 52 56  0  0  0  0  0  0  0  0999 V2000
  137.7270   77.9430  219.7040 O   0  0  0  0  0  0  0  0  0  0  0  0
  137.8280   79.4260  219.9310 S   0  0  0  0  0  0  0  0  0  0  0  0
  136.4640   79.9550  220.2730 O   0  0  0  0  0  0  0  0  0  0  0  0
  138.4540   80.2040  218.4490 C   0  0  0  0  0  0  0  0  0  0  0  0
  139.9510   80.0240  218.3380 C   0  0  0  0  0  0  0  0  0  0  0  0
  140.4230   78.8270  217.7700 C   0  0  0  0  0  0  0  0  0  0  0  0
  141.7890   78.5990  217.6140 C   0  0  0  0  0  0  0  0  0  0  0  0
  142.7080   79.5610  218.0260 C   0  0  0  0  0  0  0  0  0  0  0  0
  142.2650   80.7560  218.5920 C   0  0  0  0  0  0  0  0  0  0  0  0
  140.8870   81.0180  218.7500 C   0  0  0  0  0  0  0  0  0  0  0  0
  140.4480   82.3160  219.4030 C   0  0  0  0  0  0  0  0  0  0  0  0
  141.3880   82.7300  220.3270 F   0  0  0  0  0  0  0  0  0  0  0  0
  140.2940   83.2910  218.4350 F   0  0  0  0  0  0  0  0  0  0  0  0
  139.2410   82.1750  220.0670 F   0  0  0  0  0  0  0  0  0  0  0  0
  138.9180   79.7490  221.2440 N   0  0  0  0  0  0  0  0  0  0  0  0
  138.4270   80.5020  222.3650 C   0  0  0  0  0  0  0  0  0  0  0  0
  139.2500   80.9120  223.3280 C   0  0  0  0  0  0  0  0  0  0  0  0
  140.6900   80.6210  223.2570 C   0  0  0  0  0  0  0  0  0  0  0  0
  141.5670   81.1780  224.1990 C   0  0  0  0  0  0  0  0  0  0  0  0
  142.9390   80.9260  224.1150 C   0  0  0  0  0  0  0  0  0  0  0  0
  143.4420   80.1190  223.0930 C   0  0  0  0  0  0  0  0  0  0  0  0
  142.5750   79.5560  222.1540 C   0  0  0  0  0  0  0  0  0  0  0  0
  141.1930   79.8020  222.2260 C   0  0  0  0  0  0  0  0  0  0  0  0
  140.2550   79.1320  221.2460 C   0  0  1  0  0  0  0  0  0  0  0  0
  140.1370   77.6700  221.5840 C   0  0  0  0  0  0  0  0  0  0  0  0
  139.2080   77.0880  222.4450 C   0  0  0  0  0  0  0  0  0  0  0  0
  139.4250   75.7580  222.5450 N   0  0  0  0  0  0  0  0  0  0  0  0
  140.4850   75.4930  221.7640 C   0  0  0  0  0  0  0  0  0  0  0  0
  141.0910   74.2540  221.5550 C   0  0  0  0  0  0  0  0  0  0  0  0
  142.2070   74.2040  220.7000 C   0  0  0  0  0  0  0  0  0  0  0  0
  142.6900   75.3790  220.0830 C   0  0  0  0  0  0  0  0  0  0  0  0
  142.0600   76.6150  220.3130 C   0  0  0  0  0  0  0  0  0  0  0  0
  140.9520   76.6340  221.1630 C   0  0  0  0  0  0  0  0  0  0  0  0
  137.9703   79.7498  217.5717 H   0  0  0  0  0  0  0  0  0  0  0  0
  138.2313   81.2802  218.4954 H   0  0  0  0  0  0  0  0  0  0  0  0
  139.7043   78.0605  217.4445 H   0  0  0  0  0  0  0  0  0  0  0  0
  142.1416   77.6586  217.1652 H   0  0  0  0  0  0  0  0  0  0  0  0
  143.7858   79.3777  217.9047 H   0  0  0  0  0  0  0  0  0  0  0  0
  143.0002   81.5055  218.9202 H   0  0  0  0  0  0  0  0  0  0  0  0
  137.3557   80.7432  222.4285 H   0  0  0  0  0  0  0  0  0  0  0  0
  138.8492   81.4736  224.1847 H   0  0  0  0  0  0  0  0  0  0  0  0
  141.1742   81.8145  225.0056 H   0  0  0  0  0  0  0  0  0  0  0  0
  143.6240   81.3644  224.8557 H   0  0  0  0  0  0  0  0  0  0  0  0
  144.5230   79.9262  223.0272 H   0  0  0  0  0  0  0  0  0  0  0  0
  142.9758   78.9166  221.3537 H   0  0  0  0  0  0  0  0  0  0  0  0
  140.6788   79.2586  220.2388 H   0  0  0  0  0  0  0  0  0  0  0  0
  138.4103   77.6346  222.9694 H   0  0  0  0  0  0  0  0  0  0  0  0
  138.8810   75.0770  223.1220 H   0  0  0  0  0  0  0  0  0  0  0  0
  140.7085   73.3454  222.0430 H   0  0  0  0  0  0  0  0  0  0  0  0
  142.7071   73.2427  220.5106 H   0  0  0  0  0  0  0  0  0  0  0  0
  143.5648   75.3270  219.4181 H   0  0  0  0  0  0  0  0  0  0  0  0
  142.4279   77.5369  219.8389 H   0  0  0  0  0  0  0  0  0  0  0  0
  1  2  2  0
  2  3  2  0
  2  4  1  0
  4  5  1  0
  5  6  2  0
  6  7  1  0
  7  8  2  0
  8  9  1  0
  9 10  2  0
 10 11  1  0
 11 12  1  0
 11 13  1  0
 11 14  1  0
  2 15  1  0
 15 16  1  0
 16 17  2  0
 17 18  1  0
 18 19  2  0
 19 20  1  0
 20 21  2  0
 21 22  1  0
 22 23  2  0
 23 24  1  0
 24 25  1  0
 25 26  2  0
 26 27  1  0
 27 28  1  0
 28 29  2  0
 29 30  1  0
 30 31  2  0
 31 32  1  0
 32 33  2  0
 10  5  1  0
 24 15  1  0
 33 25  1  0
 23 18  1  0
 33 28  1  0
  4 34  1  0
  4 35  1  0
  6 36  1  0
  7 37  1  0
  8 38  1  0
  9 39  1  0
 16 40  1  0
 17 41  1  0
 19 42  1  0
 20 43  1  0
 21 44  1  0
 22 45  1  0
 24 46  1  6
 26 47  1  0
 27 48  1  0
 29 49  1  0
 30 50  1  0
 31 51  1  0
 32 52  1  0
M  END
>  <UniqueID>  (49) 
3

>  <SMILES>  (49) 
O=S(=O)(Cc1ccccc1C(F)(F)F)N1C=Cc2ccccc2[C@H]1c1c[nH]c2ccccc12

>  <Energy>  (49) 
90.70790345980004

>  <Genealogy>  (49) 
O=S(=O)(Cc1ccccc1C(F)(F)F)N1C=Cc2ccccc2[C@H]1c1c[nH]c2ccccc12 (3D coordinates assigned)
O=S(=O)(Cc1ccccc1C(F)(F)F)N1C=Cc2ccccc2[C@H]1c1c[nH]c2ccccc12 (nonaromatic ring conformer: 90.70790345980004 kcal/mol)

>  <smiles>  (49) 
O=S(=O)(Cc1ccccc1C(F)(F)F)N1C=Cc2ccccc2[C@H]1c1c[nH]c2ccccc12

>  <score_type>  (49) 
oracle

>  <origin>  (49) 
autodockgpu

>  <m_score__min__energy>  (49) 
-8.0899999999999999

>  <m_primary>  (49) 
energy

>  <meeko>  (49) 
{"free_energy": -6.67, "intermolecular_energy": -8.16, "internal_energy": -3.32, "cluster_size": 17, "cluster_id": 2, "rank_in_cluster": 15}

>  <energy>  (49) 
-6.68

>  <cluster_rmsd>  (49) 
0.08

>  <rmsd>  (49) 
269.61

>  <cluster>  (49) 
2

$$$$
CYEMMKKIRZZUDR-DEOSSOPVNA-N
     RDKit          3D

 52 56  0  0  0  0  0  0  0  0999 V2000
  140.7680   74.0880  221.9690 O   0  0  0  0  0  0  0  0  0  0  0  0
  140.5310   74.9360  220.7500 S   0  0  0  0  0  0  0  0  0  0  0  0
  139.0820   74.8350  220.3670 O   0  0  0  0  0  0  0  0  0  0  0  0
  141.5780   74.3580  219.4220 C   0  0  0  0  0  0  0  0  0  0  0  0
  142.9260   73.9240  219.9500 C   0  0  0  0  0  0  0  0  0  0  0  0
  143.9190   74.9100  220.0920 C   0  0  0  0  0  0  0  0  0  0  0  0
  145.1790   74.5900  220.5930 C   0  0  0  0  0  0  0  0  0  0  0  0
  145.4710   73.2790  220.9580 C   0  0  0  0  0  0  0  0  0  0  0  0
  144.5040   72.2830  220.8260 C   0  0  0  0  0  0  0  0  0  0  0  0
  143.2160   72.5820  220.3330 C   0  0  0  0  0  0  0  0  0  0  0  0
  142.2040   71.4610  220.1720 C   0  0  0  0  0  0  0  0  0  0  0  0
  142.8480   70.2430  220.0810 F   0  0  0  0  0  0  0  0  0  0  0  0
  141.3500   71.4510  221.2590 F   0  0  0  0  0  0  0  0  0  0  0  0
  141.4410   71.6190  219.0270 F   0  0  0  0  0  0  0  0  0  0  0  0
  140.9220   76.5930  221.0980 N   0  0  0  0  0  0  0  0  0  0  0  0
  141.3180   77.4400  220.0080 C   0  0  0  0  0  0  0  0  0  0  0  0
  141.7740   78.6710  220.2290 C   0  0  0  0  0  0  0  0  0  0  0  0
  141.9030   79.1880  221.6000 C   0  0  0  0  0  0  0  0  0  0  0  0
  142.5170   80.4280  221.8300 C   0  0  0  0  0  0  0  0  0  0  0  0
  142.6670   80.9060  223.1330 C   0  0  0  0  0  0  0  0  0  0  0  0
  142.2070   80.1510  224.2140 C   0  0  0  0  0  0  0  0  0  0  0  0
  141.5890   78.9180  223.9940 C   0  0  0  0  0  0  0  0  0  0  0  0
  141.4330   78.4250  222.6870 C   0  0  0  0  0  0  0  0  0  0  0  0
  140.7010   77.1200  222.4550 C   0  0  1  0  0  0  0  0  0  0  0  0
  139.2270   77.3240  222.6860 C   0  0  0  0  0  0  0  0  0  0  0  0
  138.2640   76.3270  222.8340 C   0  0  0  0  0  0  0  0  0  0  0  0
  137.0370   76.8740  222.9820 N   0  0  0  0  0  0  0  0  0  0  0  0
  137.2120   78.2050  222.9200 C   0  0  0  0  0  0  0  0  0  0  0  0
  136.2300   79.1900  223.0090 C   0  0  0  0  0  0  0  0  0  0  0  0
  136.6340   80.5330  222.9050 C   0  0  0  0  0  0  0  0  0  0  0  0
  137.9940   80.8580  222.7120 C   0  0  0  0  0  0  0  0  0  0  0  0
  138.9650   79.8440  222.6240 C   0  0  0  0  0  0  0  0  0  0  0  0
  138.5340   78.5200  222.7340 C   0  0  0  0  0  0  0  0  0  0  0  0
  141.0931   73.5041  218.9263 H   0  0  0  0  0  0  0  0  0  0  0  0
  141.7279   75.1813  218.7080 H   0  0  0  0  0  0  0  0  0  0  0  0
  143.6977   75.9482  219.8035 H   0  0  0  0  0  0  0  0  0  0  0  0
  145.9434   75.3738  220.7002 H   0  0  0  0  0  0  0  0  0  0  0  0
  146.4670   73.0279  221.3515 H   0  0  0  0  0  0  0  0  0  0  0  0
  144.7488   71.2490  221.1104 H   0  0  0  0  0  0  0  0  0  0  0  0
  141.2435   77.0664  218.9761 H   0  0  0  0  0  0  0  0  0  0  0  0
  142.0571   79.3078  219.3780 H   0  0  0  0  0  0  0  0  0  0  0  0
  142.8813   81.0254  220.9813 H   0  0  0  0  0  0  0  0  0  0  0  0
  143.1485   81.8793  223.3086 H   0  0  0  0  0  0  0  0  0  0  0  0
  142.3315   80.5278  225.2399 H   0  0  0  0  0  0  0  0  0  0  0  0
  141.2224   78.3296  224.8481 H   0  0  0  0  0  0  0  0  0  0  0  0
  141.1000   76.3812  223.1656 H   0  0  0  0  0  0  0  0  0  0  0  0
  138.4733   75.2471  222.8308 H   0  0  0  0  0  0  0  0  0  0  0  0
  136.1350   76.3620  223.1080 H   0  0  0  0  0  0  0  0  0  0  0  0
  135.1725   78.9253  223.1559 H   0  0  0  0  0  0  0  0  0  0  0  0
  135.8851   81.3357  222.9745 H   0  0  0  0  0  0  0  0  0  0  0  0
  138.2969   81.9123  222.6298 H   0  0  0  0  0  0  0  0  0  0  0  0
  140.0276   80.0856  222.4737 H   0  0  0  0  0  0  0  0  0  0  0  0
  1  2  2  0
  2  3  2  0
  2  4  1  0
  4  5  1  0
  5  6  2  0
  6  7  1  0
  7  8  2  0
  8  9  1  0
  9 10  2  0
 10 11  1  0
 11 12  1  0
 11 13  1  0
 11 14  1  0
  2 15  1  0
 15 16  1  0
 16 17  2  0
 17 18  1  0
 18 19  2  0
 19 20  1  0
 20 21  2  0
 21 22  1  0
 22 23  2  0
 23 24  1  0
 24 25  1  0
 25 26  2  0
 26 27  1  0
 27 28  1  0
 28 29  2  0
 29 30  1  0
 30 31  2  0
 31 32  1  0
 32 33  2  0
 10  5  1  0
 24 15  1  0
 33 25  1  0
 23 18  1  0
 33 28  1  0
  4 34  1  0
  4 35  1  0
  6 36  1  0
  7 37  1  0
  8 38  1  0
  9 39  1  0
 16 40  1  0
 17 41  1  0
 19 42  1  0
 20 43  1  0
 21 44  1  0
 22 45  1  0
 24 46  1  1
 26 47  1  0
 27 48  1  0
 29 49  1  0
 30 50  1  0
 31 51  1  0
 32 52  1  0
M  END
>  <UniqueID>  (50) 
3

>  <SMILES>  (50) 
O=S(=O)(Cc1ccccc1C(F)(F)F)N1C=Cc2ccccc2[C@H]1c1c[nH]c2ccccc12

>  <Energy>  (50) 
90.70790345980004

>  <Genealogy>  (50) 
O=S(=O)(Cc1ccccc1C(F)(F)F)N1C=Cc2ccccc2[C@H]1c1c[nH]c2ccccc12 (3D coordinates assigned)
O=S(=O)(Cc1ccccc1C(F)(F)F)N1C=Cc2ccccc2[C@H]1c1c[nH]c2ccccc12 (nonaromatic ring conformer: 90.70790345980004 kcal/mol)

>  <smiles>  (50) 
O=S(=O)(Cc1ccccc1C(F)(F)F)N1C=Cc2ccccc2[C@H]1c1c[nH]c2ccccc12

>  <score_type>  (50) 
oracle

>  <origin>  (50) 
autodockgpu

>  <m_score__min__energy>  (50) 
-8.0899999999999999

>  <m_primary>  (50) 
energy

>  <meeko>  (50) 
{"free_energy": -8.09, "intermolecular_energy": -9.58, "internal_energy": -1.92, "cluster_size": 3, "cluster_id": 1, "rank_in_cluster": 1}

>  <energy>  (50) 
-6.68

>  <cluster_rmsd>  (50) 
0.02

>  <rmsd>  (50) 
269.61

>  <cluster>  (50) 
2

$$$$
CYEMMKKIRZZUDR-DEOSSOPVNA-N
     RDKit          3D

 52 56  0  0  0  0  0  0  0  0999 V2000
  137.6980   77.9330  219.7420 O   0  0  0  0  0  0  0  0  0  0  0  0
  137.8060   79.4180  219.9530 S   0  0  0  0  0  0  0  0  0  0  0  0
  136.4460   79.9570  220.2910 O   0  0  0  0  0  0  0  0  0  0  0  0
  138.4350   80.1770  218.4630 C   0  0  0  0  0  0  0  0  0  0  0  0
  139.9380   80.0420  218.3830 C   0  0  0  0  0  0  0  0  0  0  0  0
  140.4580   78.8550  217.8350 C   0  0  0  0  0  0  0  0  0  0  0  0
  141.8330   78.6670  217.7080 C   0  0  0  0  0  0  0  0  0  0  0  0
  142.7130   79.6590  218.1290 C   0  0  0  0  0  0  0  0  0  0  0  0
  142.2240   80.8450  218.6760 C   0  0  0  0  0  0  0  0  0  0  0  0
  140.8360   81.0660  218.8050 C   0  0  0  0  0  0  0  0  0  0  0  0
  140.3450   82.3560  219.4380 C   0  0  0  0  0  0  0  0  0  0  0  0
  141.2520   82.8040  220.3780 F   0  0  0  0  0  0  0  0  0  0  0  0
  140.1840   83.3190  218.4590 F   0  0  0  0  0  0  0  0  0  0  0  0
  139.1280   82.1840  220.0770 F   0  0  0  0  0  0  0  0  0  0  0  0
  138.8990   79.7500  221.2620 N   0  0  0  0  0  0  0  0  0  0  0  0
  138.4100   80.5080  222.3800 C   0  0  0  0  0  0  0  0  0  0  0  0
  139.2340   80.9230  223.3390 C   0  0  0  0  0  0  0  0  0  0  0  0
  140.6740   80.6340  223.2660 C   0  0  0  0  0  0  0  0  0  0  0  0
  141.5540   81.1970  224.2030 C   0  0  0  0  0  0  0  0  0  0  0  0
  142.9250   80.9470  224.1170 C   0  0  0  0  0  0  0  0  0  0  0  0
  143.4270   80.1360  223.0980 C   0  0  0  0  0  0  0  0  0  0  0  0
  142.5590   79.5660  222.1640 C   0  0  0  0  0  0  0  0  0  0  0  0
  141.1770   79.8110  222.2380 C   0  0  0  0  0  0  0  0  0  0  0  0
  140.2370   79.1350  221.2630 C   0  0  1  0  0  0  0  0  0  0  0  0
  140.1220   77.6730  221.6090 C   0  0  0  0  0  0  0  0  0  0  0  0
  139.2020   77.0960  222.4840 C   0  0  0  0  0  0  0  0  0  0  0  0
  139.4190   75.7660  222.5870 N   0  0  0  0  0  0  0  0  0  0  0  0
  140.4710   75.4970  221.7950 C   0  0  0  0  0  0  0  0  0  0  0  0
  141.0740   74.2580  221.5850 C   0  0  0  0  0  0  0  0  0  0  0  0
  142.1800   74.2030  220.7180 C   0  0  0  0  0  0  0  0  0  0  0  0
  142.6560   75.3740  220.0910 C   0  0  0  0  0  0  0  0  0  0  0  0
  142.0300   76.6130  220.3220 C   0  0  0  0  0  0  0  0  0  0  0  0
  140.9320   76.6360  221.1850 C   0  0  0  0  0  0  0  0  0  0  0  0
  137.9821   79.6854  217.5894 H   0  0  0  0  0  0  0  0  0  0  0  0
  138.1782   81.2465  218.4776 H   0  0  0  0  0  0  0  0  0  0  0  0
  139.7695   78.0643  217.5022 H   0  0  0  0  0  0  0  0  0  0  0  0
  142.2227   77.7340  217.2747 H   0  0  0  0  0  0  0  0  0  0  0  0
  143.7980   79.5073  218.0301 H   0  0  0  0  0  0  0  0  0  0  0  0
  142.9299   81.6190  219.0116 H   0  0  0  0  0  0  0  0  0  0  0  0
  137.3386   80.7489  222.4443 H   0  0  0  0  0  0  0  0  0  0  0  0
  138.8342   81.4875  224.1943 H   0  0  0  0  0  0  0  0  0  0  0  0
  141.1626   81.8370  225.0075 H   0  0  0  0  0  0  0  0  0  0  0  0
  143.6110   81.3902  224.8539 H   0  0  0  0  0  0  0  0  0  0  0  0
  144.5083   79.9454  223.0304 H   0  0  0  0  0  0  0  0  0  0  0  0
  142.9589   78.9223  221.3667 H   0  0  0  0  0  0  0  0  0  0  0  0
  140.6576   79.2576  220.2540 H   0  0  0  0  0  0  0  0  0  0  0  0
  138.4112   77.6458  223.0154 H   0  0  0  0  0  0  0  0  0  0  0  0
  138.8820   75.0890  223.1740 H   0  0  0  0  0  0  0  0  0  0  0  0
  140.6968   73.3519  222.0817 H   0  0  0  0  0  0  0  0  0  0  0  0
  142.6773   73.2405  220.5274 H   0  0  0  0  0  0  0  0  0  0  0  0
  143.5231   75.3180  219.4165 H   0  0  0  0  0  0  0  0  0  0  0  0
  142.3931   77.5323  219.8392 H   0  0  0  0  0  0  0  0  0  0  0  0
  1  2  2  0
  2  3  2  0
  2  4  1  0
  4  5  1  0
  5  6  2  0
  6  7  1  0
  7  8  2  0
  8  9  1  0
  9 10  2  0
 10 11  1  0
 11 12  1  0
 11 13  1  0
 11 14  1  0
  2 15  1  0
 15 16  1  0
 16 17  2  0
 17 18  1  0
 18 19  2  0
 19 20  1  0
 20 21  2  0
 21 22  1  0
 22 23  2  0
 23 24  1  0
 24 25  1  0
 25 26  2  0
 26 27  1  0
 27 28  1  0
 28 29  2  0
 29 30  1  0
 30 31  2  0
 31 32  1  0
 32 33  2  0
 10  5  1  0
 24 15  1  0
 33 25  1  0
 23 18  1  0
 33 28  1  0
  4 34  1  0
  4 35  1  0
  6 36  1  0
  7 37  1  0
  8 38  1  0
  9 39  1  0
 16 40  1  0
 17 41  1  0
 19 42  1  0
 20 43  1  0
 21 44  1  0
 22 45  1  0
 24 46  1  6
 26 47  1  0
 27 48  1  0
 29 49  1  0
 30 50  1  0
 31 51  1  0
 32 52  1  0
M  END
>  <UniqueID>  (51) 
3

>  <SMILES>  (51) 
O=S(=O)(Cc1ccccc1C(F)(F)F)N1C=Cc2ccccc2[C@H]1c1c[nH]c2ccccc12

>  <Energy>  (51) 
90.70790345980004

>  <Genealogy>  (51) 
O=S(=O)(Cc1ccccc1C(F)(F)F)N1C=Cc2ccccc2[C@H]1c1c[nH]c2ccccc12 (3D coordinates assigned)
O=S(=O)(Cc1ccccc1C(F)(F)F)N1C=Cc2ccccc2[C@H]1c1c[nH]c2ccccc12 (nonaromatic ring conformer: 90.70790345980004 kcal/mol)

>  <smiles>  (51) 
O=S(=O)(Cc1ccccc1C(F)(F)F)N1C=Cc2ccccc2[C@H]1c1c[nH]c2ccccc12

>  <score_type>  (51) 
oracle

>  <origin>  (51) 
autodockgpu

>  <m_score__min__energy>  (51) 
-8.0899999999999999

>  <m_primary>  (51) 
energy

>  <meeko>  (51) 
{"free_energy": -6.68, "intermolecular_energy": -8.17, "internal_energy": -3.31, "cluster_size": 17, "cluster_id": 2, "rank_in_cluster": 10}

>  <energy>  (51) 
-6.68

>  <cluster_rmsd>  (51) 
0.04

>  <rmsd>  (51) 
269.6

>  <cluster>  (51) 
2

$$$$
CYEMMKKIRZZUDR-DEOSSOPVNA-N
     RDKit          3D

 52 56  0  0  0  0  0  0  0  0999 V2000
  137.7490   77.9450  219.6740 O   0  0  0  0  0  0  0  0  0  0  0  0
  137.8460   79.4280  219.9020 S   0  0  0  0  0  0  0  0  0  0  0  0
  136.4790   79.9550  220.2330 O   0  0  0  0  0  0  0  0  0  0  0  0
  138.4840   80.2070  218.4260 C   0  0  0  0  0  0  0  0  0  0  0  0
  139.9800   80.0190  218.3220 C   0  0  0  0  0  0  0  0  0  0  0  0
  140.4490   78.8240  217.7470 C   0  0  0  0  0  0  0  0  0  0  0  0
  141.8140   78.5890  217.5970 C   0  0  0  0  0  0  0  0  0  0  0  0
  142.7360   79.5410  218.0210 C   0  0  0  0  0  0  0  0  0  0  0  0
  142.2970   80.7350  218.5940 C   0  0  0  0  0  0  0  0  0  0  0  0
  140.9200   81.0040  218.7470 C   0  0  0  0  0  0  0  0  0  0  0  0
  140.4850   82.3000  219.4080 C   0  0  0  0  0  0  0  0  0  0  0  0
  141.4150   82.6930  220.3500 F   0  0  0  0  0  0  0  0  0  0  0  0
  140.3570   83.2870  218.4490 F   0  0  0  0  0  0  0  0  0  0  0  0
  139.2660   82.1640  220.0520 F   0  0  0  0  0  0  0  0  0  0  0  0
  138.9240   79.7530  221.2240 N   0  0  0  0  0  0  0  0  0  0  0  0
  138.4210   80.5000  222.3440 C   0  0  0  0  0  0  0  0  0  0  0  0
  139.2340   80.9110  223.3140 C   0  0  0  0  0  0  0  0  0  0  0  0
  140.6750   80.6270  223.2540 C   0  0  0  0  0  0  0  0  0  0  0  0
  141.5430   81.1850  224.2040 C   0  0  0  0  0  0  0  0  0  0  0  0
  142.9160   80.9410  224.1310 C   0  0  0  0  0  0  0  0  0  0  0  0
  143.4320   80.1390  223.1100 C   0  0  0  0  0  0  0  0  0  0  0  0
  142.5750   79.5740  222.1630 C   0  0  0  0  0  0  0  0  0  0  0  0
  141.1910   79.8140  222.2250 C   0  0  0  0  0  0  0  0  0  0  0  0
  140.2640   79.1420  221.2350 C   0  0  1  0  0  0  0  0  0  0  0  0
  140.1500   77.6780  221.5680 C   0  0  0  0  0  0  0  0  0  0  0  0
  139.2210   77.0900  222.4260 C   0  0  0  0  0  0  0  0  0  0  0  0
  139.4420   75.7600  222.5210 N   0  0  0  0  0  0  0  0  0  0  0  0
  140.5060   75.5010  221.7410 C   0  0  0  0  0  0  0  0  0  0  0  0
  141.1160   74.2660  221.5290 C   0  0  0  0  0  0  0  0  0  0  0  0
  142.2340   74.2230  220.6770 C   0  0  0  0  0  0  0  0  0  0  0  0
  142.7140   75.4010  220.0660 C   0  0  0  0  0  0  0  0  0  0  0  0
  142.0800   76.6350  220.2980 C   0  0  0  0  0  0  0  0  0  0  0  0
  140.9700   76.6470  221.1460 C   0  0  0  0  0  0  0  0  0  0  0  0
  138.0023   79.7583  217.5447 H   0  0  0  0  0  0  0  0  0  0  0  0
  138.2672   81.2843  218.4748 H   0  0  0  0  0  0  0  0  0  0  0  0
  139.7279   78.0643  217.4110 H   0  0  0  0  0  0  0  0  0  0  0  0
  142.1632   77.6499  217.1429 H   0  0  0  0  0  0  0  0  0  0  0  0
  143.8133   79.3518  217.9042 H   0  0  0  0  0  0  0  0  0  0  0  0
  143.0350   81.4776  218.9315 H   0  0  0  0  0  0  0  0  0  0  0  0
  137.3480   80.7355  222.4002 H   0  0  0  0  0  0  0  0  0  0  0  0
  138.8238   81.4686  224.1689 H   0  0  0  0  0  0  0  0  0  0  0  0
  141.1408   81.8171  225.0094 H   0  0  0  0  0  0  0  0  0  0  0  0
  143.5924   81.3810  224.8786 H   0  0  0  0  0  0  0  0  0  0  0  0
  144.5145   79.9523  223.0519 H   0  0  0  0  0  0  0  0  0  0  0  0
  142.9848   78.9380  221.3645 H   0  0  0  0  0  0  0  0  0  0  0  0
  140.6954   79.2732  220.2317 H   0  0  0  0  0  0  0  0  0  0  0  0
  138.4211   77.6323  222.9514 H   0  0  0  0  0  0  0  0  0  0  0  0
  138.9000   75.0760  223.0950 H   0  0  0  0  0  0  0  0  0  0  0  0
  140.7353   73.3543  222.0125 H   0  0  0  0  0  0  0  0  0  0  0  0
  142.7380   73.2642  220.4855 H   0  0  0  0  0  0  0  0  0  0  0  0
  143.5907   75.3539  219.4032 H   0  0  0  0  0  0  0  0  0  0  0  0
  142.4460   77.5595  219.8275 H   0  0  0  0  0  0  0  0  0  0  0  0
  1  2  2  0
  2  3  2  0
  2  4  1  0
  4  5  1  0
  5  6  2  0
  6  7  1  0
  7  8  2  0
  8  9  1  0
  9 10  2  0
 10 11  1  0
 11 12  1  0
 11 13  1  0
 11 14  1  0
  2 15  1  0
 15 16  1  0
 16 17  2  0
 17 18  1  0
 18 19  2  0
 19 20  1  0
 20 21  2  0
 21 22  1  0
 22 23  2  0
 23 24  1  0
 24 25  1  0
 25 26  2  0
 26 27  1  0
 27 28  1  0
 28 29  2  0
 29 30  1  0
 30 31  2  0
 31 32  1  0
 32 33  2  0
 10  5  1  0
 24 15  1  0
 33 25  1  0
 23 18  1  0
 33 28  1  0
  4 34  1  0
  4 35  1  0
  6 36  1  0
  7 37  1  0
  8 38  1  0
  9 39  1  0
 16 40  1  0
 17 41  1  0
 19 42  1  0
 20 43  1  0
 21 44  1  0
 22 45  1  0
 24 46  1  6
 26 47  1  0
 27 48  1  0
 29 49  1  0
 30 50  1  0
 31 51  1  0
 32 52  1  0
M  END
>  <UniqueID>  (52) 
3

>  <SMILES>  (52) 
O=S(=O)(Cc1ccccc1C(F)(F)F)N1C=Cc2ccccc2[C@H]1c1c[nH]c2ccccc12

>  <Energy>  (52) 
90.70790345980004

>  <Genealogy>  (52) 
O=S(=O)(Cc1ccccc1C(F)(F)F)N1C=Cc2ccccc2[C@H]1c1c[nH]c2ccccc12 (3D coordinates assigned)
O=S(=O)(Cc1ccccc1C(F)(F)F)N1C=Cc2ccccc2[C@H]1c1c[nH]c2ccccc12 (nonaromatic ring conformer: 90.70790345980004 kcal/mol)

>  <smiles>  (52) 
O=S(=O)(Cc1ccccc1C(F)(F)F)N1C=Cc2ccccc2[C@H]1c1c[nH]c2ccccc12

>  <score_type>  (52) 
oracle

>  <origin>  (52) 
autodockgpu

>  <m_score__min__energy>  (52) 
-8.0899999999999999

>  <m_primary>  (52) 
energy

>  <meeko>  (52) 
{"free_energy": -6.68, "intermolecular_energy": -8.17, "internal_energy": -3.32, "cluster_size": 17, "cluster_id": 2, "rank_in_cluster": 8}

>  <energy>  (52) 
-6.68

>  <cluster_rmsd>  (52) 
0.03

>  <rmsd>  (52) 
269.62

>  <cluster>  (52) 
2

$$$$
CYEMMKKIRZZUDR-DEOSSOPVNA-N
     RDKit          3D

 52 56  0  0  0  0  0  0  0  0999 V2000
  140.7880   74.0740  221.9730 O   0  0  0  0  0  0  0  0  0  0  0  0
  140.5430   74.9230  220.7560 S   0  0  0  0  0  0  0  0  0  0  0  0
  139.0910   74.8210  220.3830 O   0  0  0  0  0  0  0  0  0  0  0  0
  141.5810   74.3470  219.4200 C   0  0  0  0  0  0  0  0  0  0  0  0
  142.9330   73.9130  219.9390 C   0  0  0  0  0  0  0  0  0  0  0  0
  143.9150   74.9050  220.1110 C   0  0  0  0  0  0  0  0  0  0  0  0
  145.1770   74.5850  220.6050 C   0  0  0  0  0  0  0  0  0  0  0  0
  145.4830   73.2680  220.9350 C   0  0  0  0  0  0  0  0  0  0  0  0
  144.5270   72.2650  220.7750 C   0  0  0  0  0  0  0  0  0  0  0  0
  143.2370   72.5630  220.2870 C   0  0  0  0  0  0  0  0  0  0  0  0
  142.2360   71.4380  220.0940 C   0  0  0  0  0  0  0  0  0  0  0  0
  141.5500   71.6050  218.9070 F   0  0  0  0  0  0  0  0  0  0  0  0
  142.9020   70.2270  220.0730 F   0  0  0  0  0  0  0  0  0  0  0  0
  141.3030   71.3990  221.1160 F   0  0  0  0  0  0  0  0  0  0  0  0
  140.9340   76.5790  221.1030 N   0  0  0  0  0  0  0  0  0  0  0  0
  141.3410   77.4230  220.0130 C   0  0  0  0  0  0  0  0  0  0  0  0
  141.7980   78.6540  220.2340 C   0  0  0  0  0  0  0  0  0  0  0  0
  141.9170   79.1740  221.6040 C   0  0  0  0  0  0  0  0  0  0  0  0
  142.5320   80.4130  221.8360 C   0  0  0  0  0  0  0  0  0  0  0  0
  142.6720   80.8950  223.1400 C   0  0  0  0  0  0  0  0  0  0  0  0
  142.2010   80.1440  224.2180 C   0  0  0  0  0  0  0  0  0  0  0  0
  141.5820   78.9120  223.9970 C   0  0  0  0  0  0  0  0  0  0  0  0
  141.4360   78.4150  222.6900 C   0  0  0  0  0  0  0  0  0  0  0  0
  140.7040   77.1110  222.4560 C   0  0  1  0  0  0  0  0  0  0  0  0
  139.2280   77.3190  222.6740 C   0  0  0  0  0  0  0  0  0  0  0  0
  138.2610   76.3240  222.8180 C   0  0  0  0  0  0  0  0  0  0  0  0
  137.0340   76.8740  222.9540 N   0  0  0  0  0  0  0  0  0  0  0  0
  137.2130   78.2050  222.8880 C   0  0  0  0  0  0  0  0  0  0  0  0
  136.2320   79.1930  222.9660 C   0  0  0  0  0  0  0  0  0  0  0  0
  136.6400   80.5350  222.8600 C   0  0  0  0  0  0  0  0  0  0  0  0
  138.0020   80.8560  222.6770 C   0  0  0  0  0  0  0  0  0  0  0  0
  138.9710   79.8390  222.6010 C   0  0  0  0  0  0  0  0  0  0  0  0
  138.5370   78.5160  222.7130 C   0  0  0  0  0  0  0  0  0  0  0  0
  141.0932   73.4934  218.9266 H   0  0  0  0  0  0  0  0  0  0  0  0
  141.7256   75.1709  218.7056 H   0  0  0  0  0  0  0  0  0  0  0  0
  143.6828   75.9485  219.8516 H   0  0  0  0  0  0  0  0  0  0  0  0
  145.9327   75.3738  220.7345 H   0  0  0  0  0  0  0  0  0  0  0  0
  146.4813   73.0174  221.3230 H   0  0  0  0  0  0  0  0  0  0  0  0
  144.7824   71.2266  221.0330 H   0  0  0  0  0  0  0  0  0  0  0  0
  141.2740   77.0466  218.9816 H   0  0  0  0  0  0  0  0  0  0  0  0
  142.0893   79.2879  219.3835 H   0  0  0  0  0  0  0  0  0  0  0  0
  142.9052   81.0071  220.9888 H   0  0  0  0  0  0  0  0  0  0  0  0
  143.1541   81.8677  223.3172 H   0  0  0  0  0  0  0  0  0  0  0  0
  142.3177   80.5234  225.2439 H   0  0  0  0  0  0  0  0  0  0  0  0
  141.2067   78.3274  224.8498 H   0  0  0  0  0  0  0  0  0  0  0  0
  141.0966   76.3739  223.1720 H   0  0  0  0  0  0  0  0  0  0  0  0
  138.4680   75.2437  222.8205 H   0  0  0  0  0  0  0  0  0  0  0  0
  136.1300   76.3650  223.0750 H   0  0  0  0  0  0  0  0  0  0  0  0
  135.1728   78.9312  223.1060 H   0  0  0  0  0  0  0  0  0  0  0  0
  135.8924   81.3397  222.9202 H   0  0  0  0  0  0  0  0  0  0  0  0
  138.3082   81.9092  222.5932 H   0  0  0  0  0  0  0  0  0  0  0  0
  140.0352   80.0777  222.4581 H   0  0  0  0  0  0  0  0  0  0  0  0
  1  2  2  0
  2  3  2  0
  2  4  1  0
  4  5  1  0
  5  6  2  0
  6  7  1  0
  7  8  2  0
  8  9  1  0
  9 10  2  0
 10 11  1  0
 11 12  1  0
 11 13  1  0
 11 14  1  0
  2 15  1  0
 15 16  1  0
 16 17  2  0
 17 18  1  0
 18 19  2  0
 19 20  1  0
 20 21  2  0
 21 22  1  0
 22 23  2  0
 23 24  1  0
 24 25  1  0
 25 26  2  0
 26 27  1  0
 27 28  1  0
 28 29  2  0
 29 30  1  0
 30 31  2  0
 31 32  1  0
 32 33  2  0
 10  5  1  0
 24 15  1  0
 33 25  1  0
 23 18  1  0
 33 28  1  0
  4 34  1  0
  4 35  1  0
  6 36  1  0
  7 37  1  0
  8 38  1  0
  9 39  1  0
 16 40  1  0
 17 41  1  0
 19 42  1  0
 20 43  1  0
 21 44  1  0
 22 45  1  0
 24 46  1  1
 26 47  1  0
 27 48  1  0
 29 49  1  0
 30 50  1  0
 31 51  1  0
 32 52  1  0
M  END
>  <UniqueID>  (53) 
3

>  <SMILES>  (53) 
O=S(=O)(Cc1ccccc1C(F)(F)F)N1C=Cc2ccccc2[C@H]1c1c[nH]c2ccccc12

>  <Energy>  (53) 
90.70790345980004

>  <Genealogy>  (53) 
O=S(=O)(Cc1ccccc1C(F)(F)F)N1C=Cc2ccccc2[C@H]1c1c[nH]c2ccccc12 (3D coordinates assigned)
O=S(=O)(Cc1ccccc1C(F)(F)F)N1C=Cc2ccccc2[C@H]1c1c[nH]c2ccccc12 (nonaromatic ring conformer: 90.70790345980004 kcal/mol)

>  <smiles>  (53) 
O=S(=O)(Cc1ccccc1C(F)(F)F)N1C=Cc2ccccc2[C@H]1c1c[nH]c2ccccc12

>  <score_type>  (53) 
oracle

>  <origin>  (53) 
autodockgpu

>  <m_score__min__energy>  (53) 
-8.0899999999999999

>  <m_primary>  (53) 
energy

>  <meeko>  (53) 
{"free_energy": -8.08, "intermolecular_energy": -9.57, "internal_energy": -1.92, "cluster_size": 3, "cluster_id": 1, "rank_in_cluster": 2}

>  <energy>  (53) 
-6.68

>  <cluster_rmsd>  (53) 
0.06

>  <rmsd>  (53) 
269.62

>  <cluster>  (53) 
2

$$$$
CYEMMKKIRZZUDR-DEOSSOPVNA-N
     RDKit          3D

 52 56  0  0  0  0  0  0  0  0999 V2000
  137.6870   77.9360  219.7390 O   0  0  0  0  0  0  0  0  0  0  0  0
  137.7890   79.4190  219.9630 S   0  0  0  0  0  0  0  0  0  0  0  0
  136.4270   79.9490  220.3110 O   0  0  0  0  0  0  0  0  0  0  0  0
  138.4090   80.1950  218.4770 C   0  0  0  0  0  0  0  0  0  0  0  0
  139.9120   80.0700  218.3920 C   0  0  0  0  0  0  0  0  0  0  0  0
  140.4380   78.8930  217.8300 C   0  0  0  0  0  0  0  0  0  0  0  0
  141.8140   78.7150  217.6980 C   0  0  0  0  0  0  0  0  0  0  0  0
  142.6890   79.7090  218.1270 C   0  0  0  0  0  0  0  0  0  0  0  0
  142.1930   80.8850  218.6870 C   0  0  0  0  0  0  0  0  0  0  0  0
  140.8040   81.0960  218.8220 C   0  0  0  0  0  0  0  0  0  0  0  0
  140.3070   82.3760  219.4700 C   0  0  0  0  0  0  0  0  0  0  0  0
  141.1980   82.8030  220.4360 F   0  0  0  0  0  0  0  0  0  0  0  0
  140.1680   83.3580  218.5070 F   0  0  0  0  0  0  0  0  0  0  0  0
  139.0780   82.1970  220.0830 F   0  0  0  0  0  0  0  0  0  0  0  0
  138.8850   79.7450  221.2710 N   0  0  0  0  0  0  0  0  0  0  0  0
  138.3970   80.4950  222.3950 C   0  0  0  0  0  0  0  0  0  0  0  0
  139.2230   80.9050  223.3550 C   0  0  0  0  0  0  0  0  0  0  0  0
  140.6640   80.6200  223.2760 C   0  0  0  0  0  0  0  0  0  0  0  0
  141.5450   81.1790  224.2130 C   0  0  0  0  0  0  0  0  0  0  0  0
  142.9170   80.9330  224.1220 C   0  0  0  0  0  0  0  0  0  0  0  0
  143.4170   80.1300  223.0960 C   0  0  0  0  0  0  0  0  0  0  0  0
  142.5470   79.5650  222.1610 C   0  0  0  0  0  0  0  0  0  0  0  0
  141.1650   79.8050  222.2410 C   0  0  0  0  0  0  0  0  0  0  0  0
  140.2240   79.1330  221.2640 C   0  0  1  0  0  0  0  0  0  0  0  0
  140.1140   77.6690  221.6010 C   0  0  0  0  0  0  0  0  0  0  0  0
  139.1890   77.0820  222.4640 C   0  0  0  0  0  0  0  0  0  0  0  0
  139.4120   75.7530  222.5610 N   0  0  0  0  0  0  0  0  0  0  0  0
  140.4730   75.4940  221.7770 C   0  0  0  0  0  0  0  0  0  0  0  0
  141.0840   74.2590  221.5660 C   0  0  0  0  0  0  0  0  0  0  0  0
  142.1980   74.2150  220.7090 C   0  0  0  0  0  0  0  0  0  0  0  0
  142.6740   75.3920  220.0930 C   0  0  0  0  0  0  0  0  0  0  0  0
  142.0390   76.6260  220.3250 C   0  0  0  0  0  0  0  0  0  0  0  0
  140.9330   76.6390  221.1780 C   0  0  0  0  0  0  0  0  0  0  0  0
  137.9567   79.7080  217.6005 H   0  0  0  0  0  0  0  0  0  0  0  0
  138.1454   81.2627  218.5012 H   0  0  0  0  0  0  0  0  0  0  0  0
  139.7538   78.1017  217.4898 H   0  0  0  0  0  0  0  0  0  0  0  0
  142.2086   77.7888  217.2547 H   0  0  0  0  0  0  0  0  0  0  0  0
  143.7748   79.5660  218.0238 H   0  0  0  0  0  0  0  0  0  0  0  0
  142.8945   81.6602  219.0288 H   0  0  0  0  0  0  0  0  0  0  0  0
  137.3254   80.7339  222.4633 H   0  0  0  0  0  0  0  0  0  0  0  0
  138.8243   81.4622  224.2155 H   0  0  0  0  0  0  0  0  0  0  0  0
  141.1543   81.8133  225.0223 H   0  0  0  0  0  0  0  0  0  0  0  0
  143.6041   81.3727  224.8599 H   0  0  0  0  0  0  0  0  0  0  0  0
  144.4984   79.9417  223.0236 H   0  0  0  0  0  0  0  0  0  0  0  0
  142.9460   78.9285  221.3574 H   0  0  0  0  0  0  0  0  0  0  0  0
  140.6410   79.2628  220.2544 H   0  0  0  0  0  0  0  0  0  0  0  0
  138.3905   77.6245  222.9913 H   0  0  0  0  0  0  0  0  0  0  0  0
  138.8730   75.0690  223.1390 H   0  0  0  0  0  0  0  0  0  0  0  0
  140.7069   73.3482  222.0541 H   0  0  0  0  0  0  0  0  0  0  0  0
  142.7020   73.2562  220.5174 H   0  0  0  0  0  0  0  0  0  0  0  0
  143.5479   75.3444  219.4266 H   0  0  0  0  0  0  0  0  0  0  0  0
  142.4015   77.5498  219.8504 H   0  0  0  0  0  0  0  0  0  0  0  0
  1  2  2  0
  2  3  2  0
  2  4  1  0
  4  5  1  0
  5  6  2  0
  6  7  1  0
  7  8  2  0
  8  9  1  0
  9 10  2  0
 10 11  1  0
 11 12  1  0
 11 13  1  0
 11 14  1  0
  2 15  1  0
 15 16  1  0
 16 17  2  0
 17 18  1  0
 18 19  2  0
 19 20  1  0
 20 21  2  0
 21 22  1  0
 22 23  2  0
 23 24  1  0
 24 25  1  0
 25 26  2  0
 26 27  1  0
 27 28  1  0
 28 29  2  0
 29 30  1  0
 30 31  2  0
 31 32  1  0
 32 33  2  0
 10  5  1  0
 24 15  1  0
 33 25  1  0
 23 18  1  0
 33 28  1  0
  4 34  1  0
  4 35  1  0
  6 36  1  0
  7 37  1  0
  8 38  1  0
  9 39  1  0
 16 40  1  0
 17 41  1  0
 19 42  1  0
 20 43  1  0
 21 44  1  0
 22 45  1  0
 24 46  1  6
 26 47  1  0
 27 48  1  0
 29 49  1  0
 30 50  1  0
 31 51  1  0
 32 52  1  0
M  END
>  <UniqueID>  (54) 
3

>  <SMILES>  (54) 
O=S(=O)(Cc1ccccc1C(F)(F)F)N1C=Cc2ccccc2[C@H]1c1c[nH]c2ccccc12

>  <Energy>  (54) 
90.70790345980004

>  <Genealogy>  (54) 
O=S(=O)(Cc1ccccc1C(F)(F)F)N1C=Cc2ccccc2[C@H]1c1c[nH]c2ccccc12 (3D coordinates assigned)
O=S(=O)(Cc1ccccc1C(F)(F)F)N1C=Cc2ccccc2[C@H]1c1c[nH]c2ccccc12 (nonaromatic ring conformer: 90.70790345980004 kcal/mol)

>  <smiles>  (54) 
O=S(=O)(Cc1ccccc1C(F)(F)F)N1C=Cc2ccccc2[C@H]1c1c[nH]c2ccccc12

>  <score_type>  (54) 
oracle

>  <origin>  (54) 
autodockgpu

>  <m_score__min__energy>  (54) 
-8.0899999999999999

>  <m_primary>  (54) 
energy

>  <meeko>  (54) 
{"free_energy": -6.68, "intermolecular_energy": -8.17, "internal_energy": -3.31, "cluster_size": 17, "cluster_id": 2, "rank_in_cluster": 6}

>  <energy>  (54) 
-6.68

>  <cluster_rmsd>  (54) 
0.05

>  <rmsd>  (54) 
269.62

>  <cluster>  (54) 
2

$$$$
CYEMMKKIRZZUDR-DEOSSOPVNA-N
     RDKit          3D

 52 56  0  0  0  0  0  0  0  0999 V2000
  137.6730   77.9570  219.7630 O   0  0  0  0  0  0  0  0  0  0  0  0
  137.7960   79.4400  219.9740 S   0  0  0  0  0  0  0  0  0  0  0  0
  136.4420   79.9920  220.3190 O   0  0  0  0  0  0  0  0  0  0  0  0
  138.4240   80.1940  218.4800 C   0  0  0  0  0  0  0  0  0  0  0  0
  139.9260   80.0540  218.3970 C   0  0  0  0  0  0  0  0  0  0  0  0
  140.4400   78.8660  217.8460 C   0  0  0  0  0  0  0  0  0  0  0  0
  141.8140   78.6730  217.7160 C   0  0  0  0  0  0  0  0  0  0  0  0
  142.6990   79.6610  218.1360 C   0  0  0  0  0  0  0  0  0  0  0  0
  142.2150   80.8480  218.6850 C   0  0  0  0  0  0  0  0  0  0  0  0
  140.8280   81.0750  218.8170 C   0  0  0  0  0  0  0  0  0  0  0  0
  140.3430   82.3660  219.4520 C   0  0  0  0  0  0  0  0  0  0  0  0
  141.2510   82.8070  220.3950 F   0  0  0  0  0  0  0  0  0  0  0  0
  140.1890   83.3310  218.4760 F   0  0  0  0  0  0  0  0  0  0  0  0
  139.1250   82.1990  220.0890 F   0  0  0  0  0  0  0  0  0  0  0  0
  138.8990   79.7620  221.2760 N   0  0  0  0  0  0  0  0  0  0  0  0
  138.4180   80.5130  222.4030 C   0  0  0  0  0  0  0  0  0  0  0  0
  139.2500   80.9210  223.3590 C   0  0  0  0  0  0  0  0  0  0  0  0
  140.6890   80.6310  223.2740 C   0  0  0  0  0  0  0  0  0  0  0  0
  141.5760   81.1880  224.2080 C   0  0  0  0  0  0  0  0  0  0  0  0
  142.9470   80.9370  224.1110 C   0  0  0  0  0  0  0  0  0  0  0  0
  143.4400   80.1320  223.0820 C   0  0  0  0  0  0  0  0  0  0  0  0
  142.5640   79.5700  222.1510 C   0  0  0  0  0  0  0  0  0  0  0  0
  141.1830   79.8150  222.2370 C   0  0  0  0  0  0  0  0  0  0  0  0
  140.2360   79.1460  221.2640 C   0  0  1  0  0  0  0  0  0  0  0  0
  140.1220   77.6830  221.6010 C   0  0  0  0  0  0  0  0  0  0  0  0
  139.2000   77.0990  222.4680 C   0  0  0  0  0  0  0  0  0  0  0  0
  139.4190   75.7680  222.5650 N   0  0  0  0  0  0  0  0  0  0  0  0
  140.4750   75.5060  221.7750 C   0  0  0  0  0  0  0  0  0  0  0  0
  141.0800   74.2690  221.5600 C   0  0  0  0  0  0  0  0  0  0  0  0
  142.1900   74.2220  220.6970 C   0  0  0  0  0  0  0  0  0  0  0  0
  142.6670   75.3980  220.0790 C   0  0  0  0  0  0  0  0  0  0  0  0
  142.0370   76.6330  220.3150 C   0  0  0  0  0  0  0  0  0  0  0  0
  140.9360   76.6490  221.1730 C   0  0  0  0  0  0  0  0  0  0  0  0
  137.9675   79.7018  217.6086 H   0  0  0  0  0  0  0  0  0  0  0  0
  138.1705   81.2643  218.4926 H   0  0  0  0  0  0  0  0  0  0  0  0
  139.7478   78.0786  217.5132 H   0  0  0  0  0  0  0  0  0  0  0  0
  142.1991   77.7389  217.2811 H   0  0  0  0  0  0  0  0  0  0  0  0
  143.7832   79.5054  218.0347 H   0  0  0  0  0  0  0  0  0  0  0  0
  142.9245   81.6189  219.0202 H   0  0  0  0  0  0  0  0  0  0  0  0
  137.3473   80.7541  222.4768 H   0  0  0  0  0  0  0  0  0  0  0  0
  138.8571   81.4804  224.2208 H   0  0  0  0  0  0  0  0  0  0  0  0
  141.1908   81.8240  225.0187 H   0  0  0  0  0  0  0  0  0  0  0  0
  143.6389   81.3740  224.8461 H   0  0  0  0  0  0  0  0  0  0  0  0
  144.5204   79.9402  223.0046 H   0  0  0  0  0  0  0  0  0  0  0  0
  142.9572   78.9320  221.3458 H   0  0  0  0  0  0  0  0  0  0  0  0
  140.6500   79.2746  220.2530 H   0  0  0  0  0  0  0  0  0  0  0  0
  138.4057   77.6442  222.9988 H   0  0  0  0  0  0  0  0  0  0  0  0
  138.8810   75.0860  223.1450 H   0  0  0  0  0  0  0  0  0  0  0  0
  140.7019   73.3592  222.0491 H   0  0  0  0  0  0  0  0  0  0  0  0
  142.6899   73.2617  220.5024 H   0  0  0  0  0  0  0  0  0  0  0  0
  143.5374   75.3481  219.4082 H   0  0  0  0  0  0  0  0  0  0  0  0
  142.3999   77.5560  219.8392 H   0  0  0  0  0  0  0  0  0  0  0  0
  1  2  2  0
  2  3  2  0
  2  4  1  0
  4  5  1  0
  5  6  2  0
  6  7  1  0
  7  8  2  0
  8  9  1  0
  9 10  2  0
 10 11  1  0
 11 12  1  0
 11 13  1  0
 11 14  1  0
  2 15  1  0
 15 16  1  0
 16 17  2  0
 17 18  1  0
 18 19  2  0
 19 20  1  0
 20 21  2  0
 21 22  1  0
 22 23  2  0
 23 24  1  0
 24 25  1  0
 25 26  2  0
 26 27  1  0
 27 28  1  0
 28 29  2  0
 29 30  1  0
 30 31  2  0
 31 32  1  0
 32 33  2  0
 10  5  1  0
 24 15  1  0
 33 25  1  0
 23 18  1  0
 33 28  1  0
  4 34  1  0
  4 35  1  0
  6 36  1  0
  7 37  1  0
  8 38  1  0
  9 39  1  0
 16 40  1  0
 17 41  1  0
 19 42  1  0
 20 43  1  0
 21 44  1  0
 22 45  1  0
 24 46  1  6
 26 47  1  0
 27 48  1  0
 29 49  1  0
 30 50  1  0
 31 51  1  0
 32 52  1  0
M  END
>  <UniqueID>  (55) 
3

>  <SMILES>  (55) 
O=S(=O)(Cc1ccccc1C(F)(F)F)N1C=Cc2ccccc2[C@H]1c1c[nH]c2ccccc12

>  <Energy>  (55) 
90.70790345980004

>  <Genealogy>  (55) 
O=S(=O)(Cc1ccccc1C(F)(F)F)N1C=Cc2ccccc2[C@H]1c1c[nH]c2ccccc12 (3D coordinates assigned)
O=S(=O)(Cc1ccccc1C(F)(F)F)N1C=Cc2ccccc2[C@H]1c1c[nH]c2ccccc12 (nonaromatic ring conformer: 90.70790345980004 kcal/mol)

>  <smiles>  (55) 
O=S(=O)(Cc1ccccc1C(F)(F)F)N1C=Cc2ccccc2[C@H]1c1c[nH]c2ccccc12

>  <score_type>  (55) 
oracle

>  <origin>  (55) 
autodockgpu

>  <m_score__min__energy>  (55) 
-8.0899999999999999

>  <m_primary>  (55) 
energy

>  <meeko>  (55) 
{"free_energy": -6.69, "intermolecular_energy": -8.18, "internal_energy": -3.3, "cluster_size": 17, "cluster_id": 2, "rank_in_cluster": 2}

>  <energy>  (55) 
-6.68

>  <cluster_rmsd>  (55) 
0.06

>  <rmsd>  (55) 
269.61

>  <cluster>  (55) 
2

$$$$
CYEMMKKIRZZUDR-DEOSSOPVNA-N
     RDKit          3D

 52 56  0  0  0  0  0  0  0  0999 V2000
  137.7010   77.9500  219.7140 O   0  0  0  0  0  0  0  0  0  0  0  0
  137.8190   79.4330  219.9290 S   0  0  0  0  0  0  0  0  0  0  0  0
  136.4620   79.9810  220.2660 O   0  0  0  0  0  0  0  0  0  0  0  0
  138.4570   80.1920  218.4420 C   0  0  0  0  0  0  0  0  0  0  0  0
  139.9530   80.0020  218.3400 C   0  0  0  0  0  0  0  0  0  0  0  0
  140.4200   78.8010  217.7770 C   0  0  0  0  0  0  0  0  0  0  0  0
  141.7850   78.5640  217.6290 C   0  0  0  0  0  0  0  0  0  0  0  0
  142.7080   79.5200  218.0430 C   0  0  0  0  0  0  0  0  0  0  0  0
  142.2700   80.7190  218.6050 C   0  0  0  0  0  0  0  0  0  0  0  0
  140.8930   80.9910  218.7550 C   0  0  0  0  0  0  0  0  0  0  0  0
  140.4590   82.2930  219.4030 C   0  0  0  0  0  0  0  0  0  0  0  0
  141.3970   82.7040  220.3290 F   0  0  0  0  0  0  0  0  0  0  0  0
  140.3150   83.2660  218.4320 F   0  0  0  0  0  0  0  0  0  0  0  0
  139.2480   82.1600  220.0630 F   0  0  0  0  0  0  0  0  0  0  0  0
  138.9120   79.7540  221.2410 N   0  0  0  0  0  0  0  0  0  0  0  0
  138.4220   80.5030  222.3650 C   0  0  0  0  0  0  0  0  0  0  0  0
  139.2450   80.9100  223.3280 C   0  0  0  0  0  0  0  0  0  0  0  0
  140.6850   80.6210  223.2540 C   0  0  0  0  0  0  0  0  0  0  0  0
  141.5640   81.1760  224.1960 C   0  0  0  0  0  0  0  0  0  0  0  0
  142.9360   80.9260  224.1090 C   0  0  0  0  0  0  0  0  0  0  0  0
  143.4380   80.1230  223.0840 C   0  0  0  0  0  0  0  0  0  0  0  0
  142.5700   79.5610  222.1450 C   0  0  0  0  0  0  0  0  0  0  0  0
  141.1880   79.8060  222.2200 C   0  0  0  0  0  0  0  0  0  0  0  0
  140.2490   79.1380  221.2390 C   0  0  1  0  0  0  0  0  0  0  0  0
  140.1330   77.6740  221.5730 C   0  0  0  0  0  0  0  0  0  0  0  0
  139.2080   77.0890  222.4380 C   0  0  0  0  0  0  0  0  0  0  0  0
  139.4260   75.7590  222.5320 N   0  0  0  0  0  0  0  0  0  0  0  0
  140.4820   75.4970  221.7440 C   0  0  0  0  0  0  0  0  0  0  0  0
  141.0870   74.2590  221.5280 C   0  0  0  0  0  0  0  0  0  0  0  0
  142.1990   74.2120  220.6670 C   0  0  0  0  0  0  0  0  0  0  0  0
  142.6780   75.3880  220.0520 C   0  0  0  0  0  0  0  0  0  0  0  0
  142.0490   76.6240  220.2890 C   0  0  0  0  0  0  0  0  0  0  0  0
  140.9460   76.6400  221.1450 C   0  0  0  0  0  0  0  0  0  0  0  0
  137.9748   79.7317  217.5670 H   0  0  0  0  0  0  0  0  0  0  0  0
  138.2407   81.2700  218.4764 H   0  0  0  0  0  0  0  0  0  0  0  0
  139.6981   78.0386  217.4491 H   0  0  0  0  0  0  0  0  0  0  0  0
  142.1336   77.6202  217.1844 H   0  0  0  0  0  0  0  0  0  0  0  0
  143.7851   79.3295  217.9267 H   0  0  0  0  0  0  0  0  0  0  0  0
  143.0086   81.4638  218.9363 H   0  0  0  0  0  0  0  0  0  0  0  0
  137.3506   80.7435  222.4303 H   0  0  0  0  0  0  0  0  0  0  0  0
  138.8446   81.4678  224.1874 H   0  0  0  0  0  0  0  0  0  0  0  0
  141.1721   81.8097  225.0053 H   0  0  0  0  0  0  0  0  0  0  0  0
  143.6217   81.3630  224.8499 H   0  0  0  0  0  0  0  0  0  0  0  0
  144.5192   79.9323  223.0154 H   0  0  0  0  0  0  0  0  0  0  0  0
  142.9700   78.9235  221.3428 H   0  0  0  0  0  0  0  0  0  0  0  0
  140.6708   79.2677  220.2314 H   0  0  0  0  0  0  0  0  0  0  0  0
  138.4132   77.6337  222.9687 H   0  0  0  0  0  0  0  0  0  0  0  0
  138.8850   75.0770  223.1100 H   0  0  0  0  0  0  0  0  0  0  0  0
  140.7071   73.3488  222.0150 H   0  0  0  0  0  0  0  0  0  0  0  0
  142.6984   73.2515  220.4720 H   0  0  0  0  0  0  0  0  0  0  0  0
  143.5494   75.3382  219.3825 H   0  0  0  0  0  0  0  0  0  0  0  0
  142.4141   77.5473  219.8155 H   0  0  0  0  0  0  0  0  0  0  0  0
  1  2  2  0
  2  3  2  0
  2  4  1  0
  4  5  1  0
  5  6  2  0
  6  7  1  0
  7  8  2  0
  8  9  1  0
  9 10  2  0
 10 11  1  0
 11 12  1  0
 11 13  1  0
 11 14  1  0
  2 15  1  0
 15 16  1  0
 16 17  2  0
 17 18  1  0
 18 19  2  0
 19 20  1  0
 20 21  2  0
 21 22  1  0
 22 23  2  0
 23 24  1  0
 24 25  1  0
 25 26  2  0
 26 27  1  0
 27 28  1  0
 28 29  2  0
 29 30  1  0
 30 31  2  0
 31 32  1  0
 32 33  2  0
 10  5  1  0
 24 15  1  0
 33 25  1  0
 23 18  1  0
 33 28  1  0
  4 34  1  0
  4 35  1  0
  6 36  1  0
  7 37  1  0
  8 38  1  0
  9 39  1  0
 16 40  1  0
 17 41  1  0
 19 42  1  0
 20 43  1  0
 21 44  1  0
 22 45  1  0
 24 46  1  6
 26 47  1  0
 27 48  1  0
 29 49  1  0
 30 50  1  0
 31 51  1  0
 32 52  1  0
M  END
>  <UniqueID>  (56) 
3

>  <SMILES>  (56) 
O=S(=O)(Cc1ccccc1C(F)(F)F)N1C=Cc2ccccc2[C@H]1c1c[nH]c2ccccc12

>  <Energy>  (56) 
90.70790345980004

>  <Genealogy>  (56) 
O=S(=O)(Cc1ccccc1C(F)(F)F)N1C=Cc2ccccc2[C@H]1c1c[nH]c2ccccc12 (3D coordinates assigned)
O=S(=O)(Cc1ccccc1C(F)(F)F)N1C=Cc2ccccc2[C@H]1c1c[nH]c2ccccc12 (nonaromatic ring conformer: 90.70790345980004 kcal/mol)

>  <smiles>  (56) 
O=S(=O)(Cc1ccccc1C(F)(F)F)N1C=Cc2ccccc2[C@H]1c1c[nH]c2ccccc12

>  <score_type>  (56) 
oracle

>  <origin>  (56) 
autodockgpu

>  <m_score__min__energy>  (56) 
-8.0899999999999999

>  <m_primary>  (56) 
energy

>  <meeko>  (56) 
{"free_energy": -6.67, "intermolecular_energy": -8.17, "internal_energy": -3.31, "cluster_size": 17, "cluster_id": 2, "rank_in_cluster": 13}

>  <energy>  (56) 
-6.67

>  <cluster_rmsd>  (56) 
0.04

>  <rmsd>  (56) 
269.59

>  <cluster>  (56) 
2

$$$$
CYEMMKKIRZZUDR-DEOSSOPVNA-N
     RDKit          3D

 52 56  0  0  0  0  0  0  0  0999 V2000
  137.7220   78.0080  219.7020 O   0  0  0  0  0  0  0  0  0  0  0  0
  137.8260   79.4910  219.9310 S   0  0  0  0  0  0  0  0  0  0  0  0
  136.4630   80.0230  220.2710 O   0  0  0  0  0  0  0  0  0  0  0  0
  138.4570   80.2690  218.4510 C   0  0  0  0  0  0  0  0  0  0  0  0
  139.9530   80.0820  218.3420 C   0  0  0  0  0  0  0  0  0  0  0  0
  140.4210   78.8880  217.7630 C   0  0  0  0  0  0  0  0  0  0  0  0
  141.7850   78.6540  217.6080 C   0  0  0  0  0  0  0  0  0  0  0  0
  142.7080   79.6070  218.0300 C   0  0  0  0  0  0  0  0  0  0  0  0
  142.2700   80.7990  218.6070 C   0  0  0  0  0  0  0  0  0  0  0  0
  140.8940   81.0670  218.7650 C   0  0  0  0  0  0  0  0  0  0  0  0
  140.4600   82.3610  219.4300 C   0  0  0  0  0  0  0  0  0  0  0  0
  141.3840   82.7440  220.3820 F   0  0  0  0  0  0  0  0  0  0  0  0
  140.3450   83.3540  218.4750 F   0  0  0  0  0  0  0  0  0  0  0  0
  139.2350   82.2280  220.0630 F   0  0  0  0  0  0  0  0  0  0  0  0
  138.9140   79.8100  221.2470 N   0  0  0  0  0  0  0  0  0  0  0  0
  138.4210   80.5610  222.3690 C   0  0  0  0  0  0  0  0  0  0  0  0
  139.2410   80.9670  223.3350 C   0  0  0  0  0  0  0  0  0  0  0  0
  140.6810   80.6760  223.2660 C   0  0  0  0  0  0  0  0  0  0  0  0
  141.5580   81.2300  224.2100 C   0  0  0  0  0  0  0  0  0  0  0  0
  142.9290   80.9790  224.1290 C   0  0  0  0  0  0  0  0  0  0  0  0
  143.4340   80.1750  223.1050 C   0  0  0  0  0  0  0  0  0  0  0  0
  142.5690   79.6140  222.1630 C   0  0  0  0  0  0  0  0  0  0  0  0
  141.1870   79.8600  222.2340 C   0  0  0  0  0  0  0  0  0  0  0  0
  140.2500   79.1930  221.2490 C   0  0  1  0  0  0  0  0  0  0  0  0
  140.1310   77.7290  221.5830 C   0  0  0  0  0  0  0  0  0  0  0  0
  139.2000   77.1450  222.4400 C   0  0  0  0  0  0  0  0  0  0  0  0
  139.4160   75.8150  222.5370 N   0  0  0  0  0  0  0  0  0  0  0  0
  140.4800   75.5520  221.7590 C   0  0  0  0  0  0  0  0  0  0  0  0
  141.0860   74.3150  221.5480 C   0  0  0  0  0  0  0  0  0  0  0  0
  142.2050   74.2670  220.6970 C   0  0  0  0  0  0  0  0  0  0  0  0
  142.6900   75.4430  220.0850 C   0  0  0  0  0  0  0  0  0  0  0  0
  142.0590   76.6790  220.3160 C   0  0  0  0  0  0  0  0  0  0  0  0
  140.9480   76.6960  221.1630 C   0  0  0  0  0  0  0  0  0  0  0  0
  137.9723   79.8186  217.5722 H   0  0  0  0  0  0  0  0  0  0  0  0
  138.2390   81.3461  218.4987 H   0  0  0  0  0  0  0  0  0  0  0  0
  139.6991   78.1286  217.4280 H   0  0  0  0  0  0  0  0  0  0  0  0
  142.1334   77.7156  217.1519 H   0  0  0  0  0  0  0  0  0  0  0  0
  143.7850   79.4196  217.9081 H   0  0  0  0  0  0  0  0  0  0  0  0
  143.0086   81.5412  218.9439 H   0  0  0  0  0  0  0  0  0  0  0  0
  137.3498   80.8037  222.4300 H   0  0  0  0  0  0  0  0  0  0  0  0
  138.8383   81.5253  224.1930 H   0  0  0  0  0  0  0  0  0  0  0  0
  141.1641   81.8648  225.0174 H   0  0  0  0  0  0  0  0  0  0  0  0
  143.6122   81.4151  224.8727 H   0  0  0  0  0  0  0  0  0  0  0  0
  144.5152   79.9832  223.0402 H   0  0  0  0  0  0  0  0  0  0  0  0
  142.9711   78.9766  221.3617 H   0  0  0  0  0  0  0  0  0  0  0  0
  140.6753   79.3226  220.2428 H   0  0  0  0  0  0  0  0  0  0  0  0
  138.4013   77.6905  222.9640 H   0  0  0  0  0  0  0  0  0  0  0  0
  138.8710   75.1330  223.1110 H   0  0  0  0  0  0  0  0  0  0  0  0
  140.7015   73.4049  222.0316 H   0  0  0  0  0  0  0  0  0  0  0  0
  142.7057   73.3062  220.5071 H   0  0  0  0  0  0  0  0  0  0  0  0
  143.5671   75.3926  219.4231 H   0  0  0  0  0  0  0  0  0  0  0  0
  142.4283   77.6020  219.8451 H   0  0  0  0  0  0  0  0  0  0  0  0
  1  2  2  0
  2  3  2  0
  2  4  1  0
  4  5  1  0
  5  6  2  0
  6  7  1  0
  7  8  2  0
  8  9  1  0
  9 10  2  0
 10 11  1  0
 11 12  1  0
 11 13  1  0
 11 14  1  0
  2 15  1  0
 15 16  1  0
 16 17  2  0
 17 18  1  0
 18 19  2  0
 19 20  1  0
 20 21  2  0
 21 22  1  0
 22 23  2  0
 23 24  1  0
 24 25  1  0
 25 26  2  0
 26 27  1  0
 27 28  1  0
 28 29  2  0
 29 30  1  0
 30 31  2  0
 31 32  1  0
 32 33  2  0
 10  5  1  0
 24 15  1  0
 33 25  1  0
 23 18  1  0
 33 28  1  0
  4 34  1  0
  4 35  1  0
  6 36  1  0
  7 37  1  0
  8 38  1  0
  9 39  1  0
 16 40  1  0
 17 41  1  0
 19 42  1  0
 20 43  1  0
 21 44  1  0
 22 45  1  0
 24 46  1  6
 26 47  1  0
 27 48  1  0
 29 49  1  0
 30 50  1  0
 31 51  1  0
 32 52  1  0
M  END
>  <UniqueID>  (57) 
3

>  <SMILES>  (57) 
O=S(=O)(Cc1ccccc1C(F)(F)F)N1C=Cc2ccccc2[C@H]1c1c[nH]c2ccccc12

>  <Energy>  (57) 
90.70790345980004

>  <Genealogy>  (57) 
O=S(=O)(Cc1ccccc1C(F)(F)F)N1C=Cc2ccccc2[C@H]1c1c[nH]c2ccccc12 (3D coordinates assigned)
O=S(=O)(Cc1ccccc1C(F)(F)F)N1C=Cc2ccccc2[C@H]1c1c[nH]c2ccccc12 (nonaromatic ring conformer: 90.70790345980004 kcal/mol)

>  <smiles>  (57) 
O=S(=O)(Cc1ccccc1C(F)(F)F)N1C=Cc2ccccc2[C@H]1c1c[nH]c2ccccc12

>  <score_type>  (57) 
oracle

>  <origin>  (57) 
autodockgpu

>  <m_score__min__energy>  (57) 
-8.0899999999999999

>  <m_primary>  (57) 
energy

>  <meeko>  (57) 
{"free_energy": -6.68, "intermolecular_energy": -8.17, "internal_energy": -3.31, "cluster_size": 17, "cluster_id": 2, "rank_in_cluster": 11}

>  <energy>  (57) 
-6.67

>  <cluster_rmsd>  (57) 
0.04

>  <rmsd>  (57) 
269.61

>  <cluster>  (57) 
2

$$$$
CYEMMKKIRZZUDR-DEOSSOPVNA-N
     RDKit          3D

 52 56  0  0  0  0  0  0  0  0999 V2000
  137.7690   77.9330  219.6550 O   0  0  0  0  0  0  0  0  0  0  0  0
  137.8490   79.4160  219.8910 S   0  0  0  0  0  0  0  0  0  0  0  0
  136.4760   79.9240  220.2270 O   0  0  0  0  0  0  0  0  0  0  0  0
  138.4750   80.2110  218.4180 C   0  0  0  0  0  0  0  0  0  0  0  0
  139.9730   80.0390  218.3100 C   0  0  0  0  0  0  0  0  0  0  0  0
  140.4530   78.8230  217.7920 C   0  0  0  0  0  0  0  0  0  0  0  0
  141.8200   78.5990  217.6410 C   0  0  0  0  0  0  0  0  0  0  0  0
  142.7320   79.5850  218.0070 C   0  0  0  0  0  0  0  0  0  0  0  0
  142.2810   80.8000  218.5230 C   0  0  0  0  0  0  0  0  0  0  0  0
  140.9020   81.0570  218.6750 C   0  0  0  0  0  0  0  0  0  0  0  0
  140.4540   82.3790  219.2730 C   0  0  0  0  0  0  0  0  0  0  0  0
  140.2030   82.2330  220.6240 F   0  0  0  0  0  0  0  0  0  0  0  0
  141.4420   83.3280  219.0890 F   0  0  0  0  0  0  0  0  0  0  0  0
  139.2930   82.8440  218.6780 F   0  0  0  0  0  0  0  0  0  0  0  0
  138.9250   79.7460  221.2140 N   0  0  0  0  0  0  0  0  0  0  0  0
  138.4220   80.5020  222.3270 C   0  0  0  0  0  0  0  0  0  0  0  0
  139.2330   80.9160  223.2970 C   0  0  0  0  0  0  0  0  0  0  0  0
  140.6750   80.6270  223.2420 C   0  0  0  0  0  0  0  0  0  0  0  0
  141.5420   81.1890  224.1900 C   0  0  0  0  0  0  0  0  0  0  0  0
  142.9150   80.9390  224.1220 C   0  0  0  0  0  0  0  0  0  0  0  0
  143.4290   80.1290  223.1070 C   0  0  0  0  0  0  0  0  0  0  0  0
  142.5730   79.5610  222.1620 C   0  0  0  0  0  0  0  0  0  0  0  0
  141.1900   79.8060  222.2190 C   0  0  0  0  0  0  0  0  0  0  0  0
  140.2620   79.1310  221.2310 C   0  0  1  0  0  0  0  0  0  0  0  0
  140.1430   77.6690  221.5740 C   0  0  0  0  0  0  0  0  0  0  0  0
  139.2160   77.0910  222.4390 C   0  0  0  0  0  0  0  0  0  0  0  0
  139.4310   75.7600  222.5420 N   0  0  0  0  0  0  0  0  0  0  0  0
  140.4890   75.4920  221.7590 C   0  0  0  0  0  0  0  0  0  0  0  0
  141.0920   74.2520  221.5520 C   0  0  0  0  0  0  0  0  0  0  0  0
  142.2070   74.1980  220.6940 C   0  0  0  0  0  0  0  0  0  0  0  0
  142.6890   75.3700  220.0730 C   0  0  0  0  0  0  0  0  0  0  0  0
  142.0620   76.6090  220.3010 C   0  0  0  0  0  0  0  0  0  0  0  0
  140.9560   76.6310  221.1540 C   0  0  0  0  0  0  0  0  0  0  0  0
  137.9960   79.7627  217.5351 H   0  0  0  0  0  0  0  0  0  0  0  0
  138.2468   81.2856  218.4735 H   0  0  0  0  0  0  0  0  0  0  0  0
  139.7394   78.0377  217.5020 H   0  0  0  0  0  0  0  0  0  0  0  0
  142.1786   77.6427  217.2325 H   0  0  0  0  0  0  0  0  0  0  0  0
  143.8108   79.4056  217.8890 H   0  0  0  0  0  0  0  0  0  0  0  0
  143.0111   81.5690  218.8156 H   0  0  0  0  0  0  0  0  0  0  0  0
  137.3498   80.7423  222.3781 H   0  0  0  0  0  0  0  0  0  0  0  0
  138.8221   81.4794  224.1477 H   0  0  0  0  0  0  0  0  0  0  0  0
  141.1400   81.8286  224.9896 H   0  0  0  0  0  0  0  0  0  0  0  0
  143.5916   81.3805  224.8685 H   0  0  0  0  0  0  0  0  0  0  0  0
  144.5109   79.9382  223.0521 H   0  0  0  0  0  0  0  0  0  0  0  0
  142.9827   78.9184  221.3687 H   0  0  0  0  0  0  0  0  0  0  0  0
  140.6948   79.2545  220.2273 H   0  0  0  0  0  0  0  0  0  0  0  0
  138.4209   77.6404  222.9643 H   0  0  0  0  0  0  0  0  0  0  0  0
  138.8880   75.0820  223.1230 H   0  0  0  0  0  0  0  0  0  0  0  0
  140.7090   73.3453  222.0431 H   0  0  0  0  0  0  0  0  0  0  0  0
  142.7058   73.2357  220.5064 H   0  0  0  0  0  0  0  0  0  0  0  0
  143.5616   75.3146  219.4055 H   0  0  0  0  0  0  0  0  0  0  0  0
  142.4303   77.5290  219.8237 H   0  0  0  0  0  0  0  0  0  0  0  0
  1  2  2  0
  2  3  2  0
  2  4  1  0
  4  5  1  0
  5  6  2  0
  6  7  1  0
  7  8  2  0
  8  9  1  0
  9 10  2  0
 10 11  1  0
 11 12  1  0
 11 13  1  0
 11 14  1  0
  2 15  1  0
 15 16  1  0
 16 17  2  0
 17 18  1  0
 18 19  2  0
 19 20  1  0
 20 21  2  0
 21 22  1  0
 22 23  2  0
 23 24  1  0
 24 25  1  0
 25 26  2  0
 26 27  1  0
 27 28  1  0
 28 29  2  0
 29 30  1  0
 30 31  2  0
 31 32  1  0
 32 33  2  0
 10  5  1  0
 24 15  1  0
 33 25  1  0
 23 18  1  0
 33 28  1  0
  4 34  1  0
  4 35  1  0
  6 36  1  0
  7 37  1  0
  8 38  1  0
  9 39  1  0
 16 40  1  0
 17 41  1  0
 19 42  1  0
 20 43  1  0
 21 44  1  0
 22 45  1  0
 24 46  1  6
 26 47  1  0
 27 48  1  0
 29 49  1  0
 30 50  1  0
 31 51  1  0
 32 52  1  0
M  END
>  <UniqueID>  (58) 
3

>  <SMILES>  (58) 
O=S(=O)(Cc1ccccc1C(F)(F)F)N1C=Cc2ccccc2[C@H]1c1c[nH]c2ccccc12

>  <Energy>  (58) 
90.70790345980004

>  <Genealogy>  (58) 
O=S(=O)(Cc1ccccc1C(F)(F)F)N1C=Cc2ccccc2[C@H]1c1c[nH]c2ccccc12 (3D coordinates assigned)
O=S(=O)(Cc1ccccc1C(F)(F)F)N1C=Cc2ccccc2[C@H]1c1c[nH]c2ccccc12 (nonaromatic ring conformer: 90.70790345980004 kcal/mol)

>  <smiles>  (58) 
O=S(=O)(Cc1ccccc1C(F)(F)F)N1C=Cc2ccccc2[C@H]1c1c[nH]c2ccccc12

>  <score_type>  (58) 
oracle

>  <origin>  (58) 
autodockgpu

>  <m_score__min__energy>  (58) 
-8.0899999999999999

>  <m_primary>  (58) 
energy

>  <meeko>  (58) 
{"free_energy": -6.65, "intermolecular_energy": -8.14, "internal_energy": -3.32, "cluster_size": 17, "cluster_id": 2, "rank_in_cluster": 17}

>  <energy>  (58) 
-6.67

>  <cluster_rmsd>  (58) 
0.03

>  <rmsd>  (58) 
269.6

>  <cluster>  (58) 
2

$$$$
CYEMMKKIRZZUDR-DEOSSOPVNA-N
     RDKit          3D

 52 56  0  0  0  0  0  0  0  0999 V2000
  137.9280   77.7840  219.4240 O   0  0  0  0  0  0  0  0  0  0  0  0
  137.9870   79.2750  219.6110 S   0  0  0  0  0  0  0  0  0  0  0  0
  136.5950   79.7860  219.8510 O   0  0  0  0  0  0  0  0  0  0  0  0
  138.6900   80.0210  218.1470 C   0  0  0  0  0  0  0  0  0  0  0  0
  140.1790   79.7660  218.0760 C   0  0  0  0  0  0  0  0  0  0  0  0
  140.6030   78.5100  217.6080 C   0  0  0  0  0  0  0  0  0  0  0  0
  141.9590   78.2090  217.4930 C   0  0  0  0  0  0  0  0  0  0  0  0
  142.9150   79.1560  217.8460 C   0  0  0  0  0  0  0  0  0  0  0  0
  142.5200   80.4100  218.3130 C   0  0  0  0  0  0  0  0  0  0  0  0
  141.1540   80.7450  218.4280 C   0  0  0  0  0  0  0  0  0  0  0  0
  140.7660   82.1080  218.9740 C   0  0  0  0  0  0  0  0  0  0  0  0
  141.8540   82.9590  218.9540 F   0  0  0  0  0  0  0  0  0  0  0  0
  139.7510   82.6420  218.2030 F   0  0  0  0  0  0  0  0  0  0  0  0
  140.3180   82.0290  220.2820 F   0  0  0  0  0  0  0  0  0  0  0  0
  138.9860   79.6600  220.9780 N   0  0  0  0  0  0  0  0  0  0  0  0
  138.4160   80.4500  222.0350 C   0  0  0  0  0  0  0  0  0  0  0  0
  139.1710   80.9040  223.0330 C   0  0  0  0  0  0  0  0  0  0  0  0
  140.6150   80.6260  223.0680 C   0  0  0  0  0  0  0  0  0  0  0  0
  141.4240   81.2280  224.0420 C   0  0  0  0  0  0  0  0  0  0  0  0
  142.8000   80.9880  224.0580 C   0  0  0  0  0  0  0  0  0  0  0  0
  143.3760   80.1480  223.1030 C   0  0  0  0  0  0  0  0  0  0  0  0
  142.5770   79.5400  222.1320 C   0  0  0  0  0  0  0  0  0  0  0  0
  141.1910   79.7740  222.1050 C   0  0  0  0  0  0  0  0  0  0  0  0
  140.3250   79.0570  221.0910 C   0  0  1  0  0  0  0  0  0  0  0  0
  140.1960   77.6070  221.4780 C   0  0  0  0  0  0  0  0  0  0  0  0
  139.2640   77.0610  222.3580 C   0  0  0  0  0  0  0  0  0  0  0  0
  139.4710   75.7330  222.5020 N   0  0  0  0  0  0  0  0  0  0  0  0
  140.5300   75.4350  221.7290 C   0  0  0  0  0  0  0  0  0  0  0  0
  141.1260   74.1870  221.5610 C   0  0  0  0  0  0  0  0  0  0  0  0
  142.2410   74.1000  220.7080 C   0  0  0  0  0  0  0  0  0  0  0  0
  142.7320   75.2500  220.0530 C   0  0  0  0  0  0  0  0  0  0  0  0
  142.1110   76.4990  220.2420 C   0  0  0  0  0  0  0  0  0  0  0  0
  141.0040   76.5530  221.0910 C   0  0  0  0  0  0  0  0  0  0  0  0
  138.2078   79.5916  217.2565 H   0  0  0  0  0  0  0  0  0  0  0  0
  138.5200   81.1070  218.1886 H   0  0  0  0  0  0  0  0  0  0  0  0
  139.8541   77.7543  217.3287 H   0  0  0  0  0  0  0  0  0  0  0  0
  142.2735   77.2220  217.1229 H   0  0  0  0  0  0  0  0  0  0  0  0
  143.9847   78.9156  217.7567 H   0  0  0  0  0  0  0  0  0  0  0  0
  143.2847   81.1485  218.5957 H   0  0  0  0  0  0  0  0  0  0  0  0
  137.3410   80.6826  222.0190 H   0  0  0  0  0  0  0  0  0  0  0  0
  138.7103   81.4930  223.8397 H   0  0  0  0  0  0  0  0  0  0  0  0
  140.9740   81.8910  224.7956 H   0  0  0  0  0  0  0  0  0  0  0  0
  143.4310   81.4617  224.8245 H   0  0  0  0  0  0  0  0  0  0  0  0
  144.4606   79.9648  223.1153 H   0  0  0  0  0  0  0  0  0  0  0  0
  143.0344   78.8748  221.3848 H   0  0  0  0  0  0  0  0  0  0  0  0
  140.8132   79.1490  220.1096 H   0  0  0  0  0  0  0  0  0  0  0  0
  138.4710   77.6307  222.8645 H   0  0  0  0  0  0  0  0  0  0  0  0
  138.9230   75.0760  223.1020 H   0  0  0  0  0  0  0  0  0  0  0  0
  140.7370   73.2980  222.0790 H   0  0  0  0  0  0  0  0  0  0  0  0
  142.7337   73.1292  220.5502 H   0  0  0  0  0  0  0  0  0  0  0  0
  143.6061   75.1695  219.3901 H   0  0  0  0  0  0  0  0  0  0  0  0
  142.4853   77.4021  219.7378 H   0  0  0  0  0  0  0  0  0  0  0  0
  1  2  2  0
  2  3  2  0
  2  4  1  0
  4  5  1  0
  5  6  2  0
  6  7  1  0
  7  8  2  0
  8  9  1  0
  9 10  2  0
 10 11  1  0
 11 12  1  0
 11 13  1  0
 11 14  1  0
  2 15  1  0
 15 16  1  0
 16 17  2  0
 17 18  1  0
 18 19  2  0
 19 20  1  0
 20 21  2  0
 21 22  1  0
 22 23  2  0
 23 24  1  0
 24 25  1  0
 25 26  2  0
 26 27  1  0
 27 28  1  0
 28 29  2  0
 29 30  1  0
 30 31  2  0
 31 32  1  0
 32 33  2  0
 10  5  1  0
 24 15  1  0
 33 25  1  0
 23 18  1  0
 33 28  1  0
  4 34  1  0
  4 35  1  0
  6 36  1  0
  7 37  1  0
  8 38  1  0
  9 39  1  0
 16 40  1  0
 17 41  1  0
 19 42  1  0
 20 43  1  0
 21 44  1  0
 22 45  1  0
 24 46  1  6
 26 47  1  0
 27 48  1  0
 29 49  1  0
 30 50  1  0
 31 51  1  0
 32 52  1  0
M  END
>  <UniqueID>  (59) 
3

>  <SMILES>  (59) 
O=S(=O)(Cc1ccccc1C(F)(F)F)N1C=Cc2ccccc2[C@H]1c1c[nH]c2ccccc12

>  <Energy>  (59) 
90.70790345980004

>  <Genealogy>  (59) 
O=S(=O)(Cc1ccccc1C(F)(F)F)N1C=Cc2ccccc2[C@H]1c1c[nH]c2ccccc12 (3D coordinates assigned)
O=S(=O)(Cc1ccccc1C(F)(F)F)N1C=Cc2ccccc2[C@H]1c1c[nH]c2ccccc12 (nonaromatic ring conformer: 90.70790345980004 kcal/mol)

>  <smiles>  (59) 
O=S(=O)(Cc1ccccc1C(F)(F)F)N1C=Cc2ccccc2[C@H]1c1c[nH]c2ccccc12

>  <score_type>  (59) 
oracle

>  <origin>  (59) 
autodockgpu

>  <m_score__min__energy>  (59) 
-8.0899999999999999

>  <m_primary>  (59) 
energy

>  <meeko>  (59) 
{"free_energy": -6.65, "intermolecular_energy": -8.14, "internal_energy": -3.32, "cluster_size": 17, "cluster_id": 2, "rank_in_cluster": 16}

>  <energy>  (59) 
-6.65

>  <cluster_rmsd>  (59) 
0.47

>  <rmsd>  (59) 
269.46

>  <cluster>  (59) 
2

$$$$
CYEMMKKIRZZUDR-DEOSSOPVNA-N
     RDKit          3D

 52 56  0  0  0  0  0  0  0  0999 V2000
  137.7040   77.9500  219.7500 O   0  0  0  0  0  0  0  0  0  0  0  0
  137.8160   79.4330  219.9690 S   0  0  0  0  0  0  0  0  0  0  0  0
  136.4570   79.9720  220.3160 O   0  0  0  0  0  0  0  0  0  0  0  0
  138.4390   80.2000  218.4800 C   0  0  0  0  0  0  0  0  0  0  0  0
  139.9400   80.0530  218.3860 C   0  0  0  0  0  0  0  0  0  0  0  0
  140.4450   78.8670  217.8220 C   0  0  0  0  0  0  0  0  0  0  0  0
  141.8170   78.6680  217.6820 C   0  0  0  0  0  0  0  0  0  0  0  0
  142.7090   79.6490  218.1060 C   0  0  0  0  0  0  0  0  0  0  0  0
  142.2340   80.8330  218.6690 C   0  0  0  0  0  0  0  0  0  0  0  0
  140.8500   81.0650  218.8110 C   0  0  0  0  0  0  0  0  0  0  0  0
  140.3750   82.3530  219.4610 C   0  0  0  0  0  0  0  0  0  0  0  0
  141.2930   82.7830  220.3990 F   0  0  0  0  0  0  0  0  0  0  0  0
  140.2160   83.3270  218.4930 F   0  0  0  0  0  0  0  0  0  0  0  0
  139.1610   82.1850  220.1070 F   0  0  0  0  0  0  0  0  0  0  0  0
  138.9150   79.7560  221.2740 N   0  0  0  0  0  0  0  0  0  0  0  0
  138.4300   80.5040  222.4010 C   0  0  0  0  0  0  0  0  0  0  0  0
  139.2580   80.9130  223.3590 C   0  0  0  0  0  0  0  0  0  0  0  0
  140.6990   80.6280  223.2770 C   0  0  0  0  0  0  0  0  0  0  0  0
  141.5820   81.1850  224.2130 C   0  0  0  0  0  0  0  0  0  0  0  0
  142.9530   80.9390  224.1190 C   0  0  0  0  0  0  0  0  0  0  0  0
  143.4510   80.1370  223.0900 C   0  0  0  0  0  0  0  0  0  0  0  0
  142.5790   79.5730  222.1560 C   0  0  0  0  0  0  0  0  0  0  0  0
  141.1970   79.8140  222.2400 C   0  0  0  0  0  0  0  0  0  0  0  0
  140.2530   79.1440  221.2640 C   0  0  1  0  0  0  0  0  0  0  0  0
  140.1430   77.6800  221.5990 C   0  0  0  0  0  0  0  0  0  0  0  0
  139.2220   77.0920  222.4650 C   0  0  0  0  0  0  0  0  0  0  0  0
  139.4440   75.7620  222.5590 N   0  0  0  0  0  0  0  0  0  0  0  0
  140.5010   75.5030  221.7700 C   0  0  0  0  0  0  0  0  0  0  0  0
  141.1100   74.2680  221.5530 C   0  0  0  0  0  0  0  0  0  0  0  0
  142.2200   74.2250  220.6910 C   0  0  0  0  0  0  0  0  0  0  0  0
  142.6940   75.4030  220.0750 C   0  0  0  0  0  0  0  0  0  0  0  0
  142.0620   76.6370  220.3120 C   0  0  0  0  0  0  0  0  0  0  0  0
  140.9600   76.6490  221.1700 C   0  0  0  0  0  0  0  0  0  0  0  0
  137.9746   79.7200  217.6060 H   0  0  0  0  0  0  0  0  0  0  0  0
  138.1914   81.2715  218.5062 H   0  0  0  0  0  0  0  0  0  0  0  0
  139.7468   78.0858  217.4869 H   0  0  0  0  0  0  0  0  0  0  0  0
  142.1951   77.7360  217.2366 H   0  0  0  0  0  0  0  0  0  0  0  0
  143.7919   79.4897  217.9966 H   0  0  0  0  0  0  0  0  0  0  0  0
  142.9491   81.5973  219.0074 H   0  0  0  0  0  0  0  0  0  0  0  0
  137.3585   80.7420  222.4728 H   0  0  0  0  0  0  0  0  0  0  0  0
  138.8611   81.4697  224.2207 H   0  0  0  0  0  0  0  0  0  0  0  0
  141.1931   81.8180  225.0242 H   0  0  0  0  0  0  0  0  0  0  0  0
  143.6417   81.3774  224.8563 H   0  0  0  0  0  0  0  0  0  0  0  0
  144.5322   79.9491  223.0149 H   0  0  0  0  0  0  0  0  0  0  0  0
  142.9758   78.9372  221.3509 H   0  0  0  0  0  0  0  0  0  0  0  0
  140.6680   79.2755  220.2538 H   0  0  0  0  0  0  0  0  0  0  0  0
  138.4265   77.6343  222.9970 H   0  0  0  0  0  0  0  0  0  0  0  0
  138.9070   75.0780  223.1380 H   0  0  0  0  0  0  0  0  0  0  0  0
  140.7342   73.3563  222.0405 H   0  0  0  0  0  0  0  0  0  0  0  0
  142.7226   73.2663  220.4953 H   0  0  0  0  0  0  0  0  0  0  0  0
  143.5646   75.3557  219.4043 H   0  0  0  0  0  0  0  0  0  0  0  0
  142.4234   77.5613  219.8376 H   0  0  0  0  0  0  0  0  0  0  0  0
  1  2  2  0
  2  3  2  0
  2  4  1  0
  4  5  1  0
  5  6  2  0
  6  7  1  0
  7  8  2  0
  8  9  1  0
  9 10  2  0
 10 11  1  0
 11 12  1  0
 11 13  1  0
 11 14  1  0
  2 15  1  0
 15 16  1  0
 16 17  2  0
 17 18  1  0
 18 19  2  0
 19 20  1  0
 20 21  2  0
 21 22  1  0
 22 23  2  0
 23 24  1  0
 24 25  1  0
 25 26  2  0
 26 27  1  0
 27 28  1  0
 28 29  2  0
 29 30  1  0
 30 31  2  0
 31 32  1  0
 32 33  2  0
 10  5  1  0
 24 15  1  0
 33 25  1  0
 23 18  1  0
 33 28  1  0
  4 34  1  0
  4 35  1  0
  6 36  1  0
  7 37  1  0
  8 38  1  0
  9 39  1  0
 16 40  1  0
 17 41  1  0
 19 42  1  0
 20 43  1  0
 21 44  1  0
 22 45  1  0
 24 46  1  6
 26 47  1  0
 27 48  1  0
 29 49  1  0
 30 50  1  0
 31 51  1  0
 32 52  1  0
M  END
>  <UniqueID>  (60) 
3

>  <SMILES>  (60) 
O=S(=O)(Cc1ccccc1C(F)(F)F)N1C=Cc2ccccc2[C@H]1c1c[nH]c2ccccc12

>  <Energy>  (60) 
90.70790345980004

>  <Genealogy>  (60) 
O=S(=O)(Cc1ccccc1C(F)(F)F)N1C=Cc2ccccc2[C@H]1c1c[nH]c2ccccc12 (3D coordinates assigned)
O=S(=O)(Cc1ccccc1C(F)(F)F)N1C=Cc2ccccc2[C@H]1c1c[nH]c2ccccc12 (nonaromatic ring conformer: 90.70790345980004 kcal/mol)

>  <smiles>  (60) 
O=S(=O)(Cc1ccccc1C(F)(F)F)N1C=Cc2ccccc2[C@H]1c1c[nH]c2ccccc12

>  <score_type>  (60) 
oracle

>  <origin>  (60) 
autodockgpu

>  <m_score__min__energy>  (60) 
-8.0899999999999999

>  <m_primary>  (60) 
energy

>  <meeko>  (60) 
{"free_energy": -6.68, "intermolecular_energy": -8.18, "internal_energy": -3.31, "cluster_size": 17, "cluster_id": 2, "rank_in_cluster": 4}

>  <energy>  (60) 
-6.65

>  <cluster_rmsd>  (60) 
0.36

>  <rmsd>  (60) 
269.58

>  <cluster>  (60) 
2

$$$$
CYEMMKKIRZZUDR-DEOSSOPVNA-N
     RDKit          3D

 52 56  0  0  0  0  0  0  0  0999 V2000
  137.7030   77.9500  219.7240 O   0  0  0  0  0  0  0  0  0  0  0  0
  137.8070   79.4320  219.9510 S   0  0  0  0  0  0  0  0  0  0  0  0
  136.4440   79.9630  220.2970 O   0  0  0  0  0  0  0  0  0  0  0  0
  138.4300   80.2100  218.4680 C   0  0  0  0  0  0  0  0  0  0  0  0
  139.9300   80.0570  218.3700 C   0  0  0  0  0  0  0  0  0  0  0  0
  140.4290   78.8720  217.7980 C   0  0  0  0  0  0  0  0  0  0  0  0
  141.8000   78.6680  217.6540 C   0  0  0  0  0  0  0  0  0  0  0  0
  142.6970   79.6420  218.0810 C   0  0  0  0  0  0  0  0  0  0  0  0
  142.2290   80.8260  218.6510 C   0  0  0  0  0  0  0  0  0  0  0  0
  140.8460   81.0630  218.7980 C   0  0  0  0  0  0  0  0  0  0  0  0
  140.3780   82.3490  219.4560 C   0  0  0  0  0  0  0  0  0  0  0  0
  141.2950   82.7650  220.4020 F   0  0  0  0  0  0  0  0  0  0  0  0
  140.2300   83.3320  218.4960 F   0  0  0  0  0  0  0  0  0  0  0  0
  139.1610   82.1850  220.0960 F   0  0  0  0  0  0  0  0  0  0  0  0
  138.9000   79.7540  221.2610 N   0  0  0  0  0  0  0  0  0  0  0  0
  138.4110   80.5000  222.3870 C   0  0  0  0  0  0  0  0  0  0  0  0
  139.2350   80.9080  223.3490 C   0  0  0  0  0  0  0  0  0  0  0  0
  140.6760   80.6220  223.2720 C   0  0  0  0  0  0  0  0  0  0  0  0
  141.5550   81.1780  224.2130 C   0  0  0  0  0  0  0  0  0  0  0  0
  142.9270   80.9320  224.1240 C   0  0  0  0  0  0  0  0  0  0  0  0
  143.4290   80.1310  223.0960 C   0  0  0  0  0  0  0  0  0  0  0  0
  142.5610   79.5680  222.1580 C   0  0  0  0  0  0  0  0  0  0  0  0
  141.1790   79.8100  222.2360 C   0  0  0  0  0  0  0  0  0  0  0  0
  140.2390   79.1410  221.2560 C   0  0  1  0  0  0  0  0  0  0  0  0
  140.1270   77.6760  221.5880 C   0  0  0  0  0  0  0  0  0  0  0  0
  139.2000   77.0870  222.4470 C   0  0  0  0  0  0  0  0  0  0  0  0
  139.4220   75.7580  222.5420 N   0  0  0  0  0  0  0  0  0  0  0  0
  140.4850   75.5000  221.7600 C   0  0  0  0  0  0  0  0  0  0  0  0
  141.0960   74.2650  221.5470 C   0  0  0  0  0  0  0  0  0  0  0  0
  142.2130   74.2230  220.6930 C   0  0  0  0  0  0  0  0  0  0  0  0
  142.6910   75.4020  220.0820 C   0  0  0  0  0  0  0  0  0  0  0  0
  142.0560   76.6350  220.3160 C   0  0  0  0  0  0  0  0  0  0  0  0
  140.9470   76.6460  221.1650 C   0  0  0  0  0  0  0  0  0  0  0  0
  137.9617   79.7402  217.5905 H   0  0  0  0  0  0  0  0  0  0  0  0
  138.1871   81.2822  218.5043 H   0  0  0  0  0  0  0  0  0  0  0  0
  139.7269   78.0957  217.4598 H   0  0  0  0  0  0  0  0  0  0  0  0
  142.1730   77.7368  217.2027 H   0  0  0  0  0  0  0  0  0  0  0  0
  143.7789   79.4779  217.9687 H   0  0  0  0  0  0  0  0  0  0  0  0
  142.9484   81.5856  218.9907 H   0  0  0  0  0  0  0  0  0  0  0  0
  137.3391   80.7376  222.4551 H   0  0  0  0  0  0  0  0  0  0  0  0
  138.8350   81.4642  224.2096 H   0  0  0  0  0  0  0  0  0  0  0  0
  141.1626   81.8097  225.0235 H   0  0  0  0  0  0  0  0  0  0  0  0
  143.6128   81.3696  224.8644 H   0  0  0  0  0  0  0  0  0  0  0  0
  144.5105   79.9431  223.0250 H   0  0  0  0  0  0  0  0  0  0  0  0
  142.9610   78.9322  221.3544 H   0  0  0  0  0  0  0  0  0  0  0  0
  140.6586   79.2734  220.2478 H   0  0  0  0  0  0  0  0  0  0  0  0
  138.4002   77.6285  222.9734 H   0  0  0  0  0  0  0  0  0  0  0  0
  138.8810   75.0730  223.1160 H   0  0  0  0  0  0  0  0  0  0  0  0
  140.7168   73.3529  222.0311 H   0  0  0  0  0  0  0  0  0  0  0  0
  142.7174   73.2647  220.5001 H   0  0  0  0  0  0  0  0  0  0  0  0
  143.5667   75.3563  219.4179 H   0  0  0  0  0  0  0  0  0  0  0  0
  142.4208   77.5602  219.8458 H   0  0  0  0  0  0  0  0  0  0  0  0
  1  2  2  0
  2  3  2  0
  2  4  1  0
  4  5  1  0
  5  6  2  0
  6  7  1  0
  7  8  2  0
  8  9  1  0
  9 10  2  0
 10 11  1  0
 11 12  1  0
 11 13  1  0
 11 14  1  0
  2 15  1  0
 15 16  1  0
 16 17  2  0
 17 18  1  0
 18 19  2  0
 19 20  1  0
 20 21  2  0
 21 22  1  0
 22 23  2  0
 23 24  1  0
 24 25  1  0
 25 26  2  0
 26 27  1  0
 27 28  1  0
 28 29  2  0
 29 30  1  0
 30 31  2  0
 31 32  1  0
 32 33  2  0
 10  5  1  0
 24 15  1  0
 33 25  1  0
 23 18  1  0
 33 28  1  0
  4 34  1  0
  4 35  1  0
  6 36  1  0
  7 37  1  0
  8 38  1  0
  9 39  1  0
 16 40  1  0
 17 41  1  0
 19 42  1  0
 20 43  1  0
 21 44  1  0
 22 45  1  0
 24 46  1  6
 26 47  1  0
 27 48  1  0
 29 49  1  0
 30 50  1  0
 31 51  1  0
 32 52  1  0
M  END
>  <UniqueID>  (61) 
4

>  <SMILES>  (61) 
O=S(=O)(Cc1ccccc1C(F)(F)F)N1C=Cc2ccccc2[C@H]1c1c[nH]c2ccccc12

>  <Energy>  (61) 
90.73444200797094

>  <Genealogy>  (61) 
O=S(=O)(Cc1ccccc1C(F)(F)F)N1C=Cc2ccccc2[C@H]1c1c[nH]c2ccccc12 (3D coordinates assigned)
O=S(=O)(Cc1ccccc1C(F)(F)F)N1C=Cc2ccccc2[C@H]1c1c[nH]c2ccccc12 (nonaromatic ring conformer: 90.73444200797094 kcal/mol)

>  <smiles>  (61) 
O=S(=O)(Cc1ccccc1C(F)(F)F)N1C=Cc2ccccc2[C@H]1c1c[nH]c2ccccc12

>  <score_type>  (61) 
oracle

>  <origin>  (61) 
autodockgpu

>  <m_score__min__energy>  (61) 
-8.0899999999999999

>  <m_primary>  (61) 
energy

>  <meeko>  (61) 
{"free_energy": -6.68, "intermolecular_energy": -8.17, "internal_energy": -3.31, "cluster_size": 17, "cluster_id": 2, "rank_in_cluster": 5}

>  <energy>  (61) 
-8.09

>  <cluster_rmsd>  (61) 
0.0

>  <rmsd>  (61) 
269.66

>  <cluster>  (61) 
1

$$$$
CYEMMKKIRZZUDR-DEOSSOPVNA-N
     RDKit          3D

 52 56  0  0  0  0  0  0  0  0999 V2000
  137.7250   77.9630  219.7040 O   0  0  0  0  0  0  0  0  0  0  0  0
  137.8290   79.4460  219.9280 S   0  0  0  0  0  0  0  0  0  0  0  0
  136.4660   79.9790  220.2650 O   0  0  0  0  0  0  0  0  0  0  0  0
  138.4620   80.2180  218.4450 C   0  0  0  0  0  0  0  0  0  0  0  0
  139.9590   80.0410  218.3440 C   0  0  0  0  0  0  0  0  0  0  0  0
  140.4370   78.8470  217.7740 C   0  0  0  0  0  0  0  0  0  0  0  0
  141.8040   78.6210  217.6260 C   0  0  0  0  0  0  0  0  0  0  0  0
  142.7190   79.5820  218.0470 C   0  0  0  0  0  0  0  0  0  0  0  0
  142.2710   80.7740  218.6160 C   0  0  0  0  0  0  0  0  0  0  0  0
  140.8920   81.0340  218.7660 C   0  0  0  0  0  0  0  0  0  0  0  0
  140.4460   82.3290  219.4220 C   0  0  0  0  0  0  0  0  0  0  0  0
  141.3760   82.7360  220.3590 F   0  0  0  0  0  0  0  0  0  0  0  0
  140.3060   83.3090  218.4580 F   0  0  0  0  0  0  0  0  0  0  0  0
  139.2310   82.1850  220.0710 F   0  0  0  0  0  0  0  0  0  0  0  0
  138.9170   79.7690  221.2430 N   0  0  0  0  0  0  0  0  0  0  0  0
  138.4210   80.5170  222.3660 C   0  0  0  0  0  0  0  0  0  0  0  0
  139.2410   80.9270  223.3310 C   0  0  0  0  0  0  0  0  0  0  0  0
  140.6820   80.6420  223.2610 C   0  0  0  0  0  0  0  0  0  0  0  0
  141.5560   81.2000  224.2050 C   0  0  0  0  0  0  0  0  0  0  0  0
  142.9290   80.9540  224.1230 C   0  0  0  0  0  0  0  0  0  0  0  0
  143.4370   80.1520  223.0990 C   0  0  0  0  0  0  0  0  0  0  0  0
  142.5730   79.5880  222.1570 C   0  0  0  0  0  0  0  0  0  0  0  0
  141.1900   79.8290  222.2290 C   0  0  0  0  0  0  0  0  0  0  0  0
  140.2560   79.1580  221.2450 C   0  0  1  0  0  0  0  0  0  0  0  0
  140.1430   77.6930  221.5780 C   0  0  0  0  0  0  0  0  0  0  0  0
  139.2170   77.1060  222.4390 C   0  0  0  0  0  0  0  0  0  0  0  0
  139.4380   75.7760  222.5340 N   0  0  0  0  0  0  0  0  0  0  0  0
  140.4990   75.5170  221.7510 C   0  0  0  0  0  0  0  0  0  0  0  0
  141.1090   74.2820  221.5370 C   0  0  0  0  0  0  0  0  0  0  0  0
  142.2250   74.2380  220.6810 C   0  0  0  0  0  0  0  0  0  0  0  0
  142.7020   75.4160  220.0680 C   0  0  0  0  0  0  0  0  0  0  0  0
  142.0690   76.6500  220.3020 C   0  0  0  0  0  0  0  0  0  0  0  0
  140.9620   76.6630  221.1540 C   0  0  0  0  0  0  0  0  0  0  0  0
  137.9846   79.7580  217.5672 H   0  0  0  0  0  0  0  0  0  0  0  0
  138.2364   81.2939  218.4843 H   0  0  0  0  0  0  0  0  0  0  0  0
  139.7215   78.0810  217.4404 H   0  0  0  0  0  0  0  0  0  0  0  0
  142.1604   77.6826  217.1762 H   0  0  0  0  0  0  0  0  0  0  0  0
  143.7977   79.4009  217.9306 H   0  0  0  0  0  0  0  0  0  0  0  0
  143.0033   81.5225  218.9528 H   0  0  0  0  0  0  0  0  0  0  0  0
  137.3486   80.7539  222.4287 H   0  0  0  0  0  0  0  0  0  0  0  0
  138.8369   81.4843  224.1890 H   0  0  0  0  0  0  0  0  0  0  0  0
  141.1596   81.8332  225.0124 H   0  0  0  0  0  0  0  0  0  0  0  0
  143.6108   81.3928  224.8663 H   0  0  0  0  0  0  0  0  0  0  0  0
  144.5189   79.9640  223.0339 H   0  0  0  0  0  0  0  0  0  0  0  0
  142.9769   78.9524  221.3552 H   0  0  0  0  0  0  0  0  0  0  0  0
  140.6812   79.2897  220.2391 H   0  0  0  0  0  0  0  0  0  0  0  0
  138.4189   77.6488  222.9667 H   0  0  0  0  0  0  0  0  0  0  0  0
  138.8980   75.0920  223.1100 H   0  0  0  0  0  0  0  0  0  0  0  0
  140.7299   73.3704  222.0221 H   0  0  0  0  0  0  0  0  0  0  0  0
  142.7287   73.2792  220.4885 H   0  0  0  0  0  0  0  0  0  0  0  0
  143.5760   75.3689  219.4017 H   0  0  0  0  0  0  0  0  0  0  0  0
  142.4335   77.5742  219.8298 H   0  0  0  0  0  0  0  0  0  0  0  0
  1  2  2  0
  2  3  2  0
  2  4  1  0
  4  5  1  0
  5  6  2  0
  6  7  1  0
  7  8  2  0
  8  9  1  0
  9 10  2  0
 10 11  1  0
 11 12  1  0
 11 13  1  0
 11 14  1  0
  2 15  1  0
 15 16  1  0
 16 17  2  0
 17 18  1  0
 18 19  2  0
 19 20  1  0
 20 21  2  0
 21 22  1  0
 22 23  2  0
 23 24  1  0
 24 25  1  0
 25 26  2  0
 26 27  1  0
 27 28  1  0
 28 29  2  0
 29 30  1  0
 30 31  2  0
 31 32  1  0
 32 33  2  0
 10  5  1  0
 24 15  1  0
 33 25  1  0
 23 18  1  0
 33 28  1  0
  4 34  1  0
  4 35  1  0
  6 36  1  0
  7 37  1  0
  8 38  1  0
  9 39  1  0
 16 40  1  0
 17 41  1  0
 19 42  1  0
 20 43  1  0
 21 44  1  0
 22 45  1  0
 24 46  1  6
 26 47  1  0
 27 48  1  0
 29 49  1  0
 30 50  1  0
 31 51  1  0
 32 52  1  0
M  END
>  <UniqueID>  (62) 
4

>  <SMILES>  (62) 
O=S(=O)(Cc1ccccc1C(F)(F)F)N1C=Cc2ccccc2[C@H]1c1c[nH]c2ccccc12

>  <Energy>  (62) 
90.73444200797094

>  <Genealogy>  (62) 
O=S(=O)(Cc1ccccc1C(F)(F)F)N1C=Cc2ccccc2[C@H]1c1c[nH]c2ccccc12 (3D coordinates assigned)
O=S(=O)(Cc1ccccc1C(F)(F)F)N1C=Cc2ccccc2[C@H]1c1c[nH]c2ccccc12 (nonaromatic ring conformer: 90.73444200797094 kcal/mol)

>  <smiles>  (62) 
O=S(=O)(Cc1ccccc1C(F)(F)F)N1C=Cc2ccccc2[C@H]1c1c[nH]c2ccccc12

>  <score_type>  (62) 
oracle

>  <origin>  (62) 
autodockgpu

>  <m_score__min__energy>  (62) 
-8.0899999999999999

>  <m_primary>  (62) 
energy

>  <meeko>  (62) 
{"free_energy": -6.68, "intermolecular_energy": -8.17, "internal_energy": -3.31, "cluster_size": 17, "cluster_id": 2, "rank_in_cluster": 7}

>  <energy>  (62) 
-8.08

>  <cluster_rmsd>  (62) 
0.05

>  <rmsd>  (62) 
269.64

>  <cluster>  (62) 
1

$$$$
CYEMMKKIRZZUDR-DEOSSOPVNA-N
     RDKit          3D

 52 56  0  0  0  0  0  0  0  0999 V2000
  137.6990   77.9500  219.7380 O   0  0  0  0  0  0  0  0  0  0  0  0
  137.8030   79.4330  219.9660 S   0  0  0  0  0  0  0  0  0  0  0  0
  136.4420   79.9620  220.3180 O   0  0  0  0  0  0  0  0  0  0  0  0
  138.4190   80.2120  218.4800 C   0  0  0  0  0  0  0  0  0  0  0  0
  139.9190   80.0610  218.3760 C   0  0  0  0  0  0  0  0  0  0  0  0
  140.4160   78.8760  217.8030 C   0  0  0  0  0  0  0  0  0  0  0  0
  141.7870   78.6740  217.6520 C   0  0  0  0  0  0  0  0  0  0  0  0
  142.6850   79.6500  218.0740 C   0  0  0  0  0  0  0  0  0  0  0  0
  142.2180   80.8330  218.6450 C   0  0  0  0  0  0  0  0  0  0  0  0
  140.8350   81.0690  218.7980 C   0  0  0  0  0  0  0  0  0  0  0  0
  140.3680   82.3550  219.4570 C   0  0  0  0  0  0  0  0  0  0  0  0
  141.2880   82.7710  220.4000 F   0  0  0  0  0  0  0  0  0  0  0  0
  140.2170   83.3370  218.4960 F   0  0  0  0  0  0  0  0  0  0  0  0
  139.1530   82.1910  220.1000 F   0  0  0  0  0  0  0  0  0  0  0  0
  138.9020   79.7540  221.2710 N   0  0  0  0  0  0  0  0  0  0  0  0
  138.4200   80.5090  222.3950 C   0  0  0  0  0  0  0  0  0  0  0  0
  139.2500   80.9170  223.3520 C   0  0  0  0  0  0  0  0  0  0  0  0
  140.6890   80.6230  223.2720 C   0  0  0  0  0  0  0  0  0  0  0  0
  141.5740   81.1790  224.2080 C   0  0  0  0  0  0  0  0  0  0  0  0
  142.9440   80.9240  224.1160 C   0  0  0  0  0  0  0  0  0  0  0  0
  143.4390   80.1150  223.0910 C   0  0  0  0  0  0  0  0  0  0  0  0
  142.5640   79.5530  222.1580 C   0  0  0  0  0  0  0  0  0  0  0  0
  141.1840   79.8030  222.2390 C   0  0  0  0  0  0  0  0  0  0  0  0
  140.2370   79.1340  221.2650 C   0  0  1  0  0  0  0  0  0  0  0  0
  140.1180   77.6720  221.6040 C   0  0  0  0  0  0  0  0  0  0  0  0
  139.1910   77.0920  222.4700 C   0  0  0  0  0  0  0  0  0  0  0  0
  139.4060   75.7620  222.5700 N   0  0  0  0  0  0  0  0  0  0  0  0
  140.4640   75.4940  221.7850 C   0  0  0  0  0  0  0  0  0  0  0  0
  141.0670   74.2550  221.5760 C   0  0  0  0  0  0  0  0  0  0  0  0
  142.1800   74.2030  220.7180 C   0  0  0  0  0  0  0  0  0  0  0  0
  142.6630   75.3760  220.0990 C   0  0  0  0  0  0  0  0  0  0  0  0
  142.0360   76.6140  220.3290 C   0  0  0  0  0  0  0  0  0  0  0  0
  140.9310   76.6350  221.1830 C   0  0  0  0  0  0  0  0  0  0  0  0
  137.9478   79.7414  217.6045 H   0  0  0  0  0  0  0  0  0  0  0  0
  138.1747   81.2839  218.5171 H   0  0  0  0  0  0  0  0  0  0  0  0
  139.7131   78.0983  217.4696 H   0  0  0  0  0  0  0  0  0  0  0  0
  142.1592   77.7431  217.1993 H   0  0  0  0  0  0  0  0  0  0  0  0
  143.7666   79.4875  217.9566 H   0  0  0  0  0  0  0  0  0  0  0  0
  142.9380   81.5936  218.9812 H   0  0  0  0  0  0  0  0  0  0  0  0
  137.3497   80.7531  222.4653 H   0  0  0  0  0  0  0  0  0  0  0  0
  138.8560   81.4796  224.2112 H   0  0  0  0  0  0  0  0  0  0  0  0
  141.1878   81.8174  225.0163 H   0  0  0  0  0  0  0  0  0  0  0  0
  143.6344   81.3612  224.8523 H   0  0  0  0  0  0  0  0  0  0  0  0
  144.5191   79.9200  223.0181 H   0  0  0  0  0  0  0  0  0  0  0  0
  142.9577   78.9115  221.3559 H   0  0  0  0  0  0  0  0  0  0  0  0
  140.6545   79.2592  220.2550 H   0  0  0  0  0  0  0  0  0  0  0  0
  138.3966   77.6404  222.9974 H   0  0  0  0  0  0  0  0  0  0  0  0
  138.8630   75.0830  223.1500 H   0  0  0  0  0  0  0  0  0  0  0  0
  140.6848   73.3474  222.0662 H   0  0  0  0  0  0  0  0  0  0  0  0
  142.6780   73.2408  220.5278 H   0  0  0  0  0  0  0  0  0  0  0  0
  143.5360   75.3216  219.4320 H   0  0  0  0  0  0  0  0  0  0  0  0
  142.4036   77.5347  219.8523 H   0  0  0  0  0  0  0  0  0  0  0  0
  1  2  2  0
  2  3  2  0
  2  4  1  0
  4  5  1  0
  5  6  2  0
  6  7  1  0
  7  8  2  0
  8  9  1  0
  9 10  2  0
 10 11  1  0
 11 12  1  0
 11 13  1  0
 11 14  1  0
  2 15  1  0
 15 16  1  0
 16 17  2  0
 17 18  1  0
 18 19  2  0
 19 20  1  0
 20 21  2  0
 21 22  1  0
 22 23  2  0
 23 24  1  0
 24 25  1  0
 25 26  2  0
 26 27  1  0
 27 28  1  0
 28 29  2  0
 29 30  1  0
 30 31  2  0
 31 32  1  0
 32 33  2  0
 10  5  1  0
 24 15  1  0
 33 25  1  0
 23 18  1  0
 33 28  1  0
  4 34  1  0
  4 35  1  0
  6 36  1  0
  7 37  1  0
  8 38  1  0
  9 39  1  0
 16 40  1  0
 17 41  1  0
 19 42  1  0
 20 43  1  0
 21 44  1  0
 22 45  1  0
 24 46  1  6
 26 47  1  0
 27 48  1  0
 29 49  1  0
 30 50  1  0
 31 51  1  0
 32 52  1  0
M  END
>  <UniqueID>  (63) 
4

>  <SMILES>  (63) 
O=S(=O)(Cc1ccccc1C(F)(F)F)N1C=Cc2ccccc2[C@H]1c1c[nH]c2ccccc12

>  <Energy>  (63) 
90.73444200797094

>  <Genealogy>  (63) 
O=S(=O)(Cc1ccccc1C(F)(F)F)N1C=Cc2ccccc2[C@H]1c1c[nH]c2ccccc12 (3D coordinates assigned)
O=S(=O)(Cc1ccccc1C(F)(F)F)N1C=Cc2ccccc2[C@H]1c1c[nH]c2ccccc12 (nonaromatic ring conformer: 90.73444200797094 kcal/mol)

>  <smiles>  (63) 
O=S(=O)(Cc1ccccc1C(F)(F)F)N1C=Cc2ccccc2[C@H]1c1c[nH]c2ccccc12

>  <score_type>  (63) 
oracle

>  <origin>  (63) 
autodockgpu

>  <m_score__min__energy>  (63) 
-8.0899999999999999

>  <m_primary>  (63) 
energy

>  <meeko>  (63) 
{"free_energy": -6.68, "intermolecular_energy": -8.17, "internal_energy": -3.31, "cluster_size": 17, "cluster_id": 2, "rank_in_cluster": 12}

>  <energy>  (63) 
-8.08

>  <cluster_rmsd>  (63) 
0.03

>  <rmsd>  (63) 
269.65

>  <cluster>  (63) 
1

$$$$
CYEMMKKIRZZUDR-DEOSSOPVNA-N
     RDKit          3D

 52 56  0  0  0  0  0  0  0  0999 V2000
  140.7700   74.0680  221.9770 O   0  0  0  0  0  0  0  0  0  0  0  0
  140.5310   74.9150  220.7580 S   0  0  0  0  0  0  0  0  0  0  0  0
  139.0810   74.8120  220.3770 O   0  0  0  0  0  0  0  0  0  0  0  0
  141.5760   74.3360  219.4290 C   0  0  0  0  0  0  0  0  0  0  0  0
  142.9220   73.8940  219.9570 C   0  0  0  0  0  0  0  0  0  0  0  0
  143.9170   74.8760  220.1080 C   0  0  0  0  0  0  0  0  0  0  0  0
  145.1760   74.5490  220.6100 C   0  0  0  0  0  0  0  0  0  0  0  0
  145.4630   73.2350  220.9670 C   0  0  0  0  0  0  0  0  0  0  0  0
  144.4930   72.2420  220.8270 C   0  0  0  0  0  0  0  0  0  0  0  0
  143.2070   72.5480  220.3320 C   0  0  0  0  0  0  0  0  0  0  0  0
  142.1910   71.4330  220.1620 C   0  0  0  0  0  0  0  0  0  0  0  0
  141.3010   71.4290  221.2190 F   0  0  0  0  0  0  0  0  0  0  0  0
  141.5000   71.6140  218.9790 F   0  0  0  0  0  0  0  0  0  0  0  0
  142.7970   70.1880  220.1200 F   0  0  0  0  0  0  0  0  0  0  0  0
  140.9200   76.5720  221.1040 N   0  0  0  0  0  0  0  0  0  0  0  0
  141.3180   77.4180  220.0130 C   0  0  0  0  0  0  0  0  0  0  0  0
  141.7730   78.6490  220.2320 C   0  0  0  0  0  0  0  0  0  0  0  0
  141.9000   79.1680  221.6020 C   0  0  0  0  0  0  0  0  0  0  0  0
  142.5140   80.4080  221.8310 C   0  0  0  0  0  0  0  0  0  0  0  0
  142.6610   80.8890  223.1340 C   0  0  0  0  0  0  0  0  0  0  0  0
  142.1990   80.1360  224.2150 C   0  0  0  0  0  0  0  0  0  0  0  0
  141.5820   78.9020  223.9960 C   0  0  0  0  0  0  0  0  0  0  0  0
  141.4280   78.4070  222.6900 C   0  0  0  0  0  0  0  0  0  0  0  0
  140.6980   77.1020  222.4590 C   0  0  1  0  0  0  0  0  0  0  0  0
  139.2230   77.3050  222.6880 C   0  0  0  0  0  0  0  0  0  0  0  0
  138.2600   76.3080  222.8400 C   0  0  0  0  0  0  0  0  0  0  0  0
  137.0330   76.8550  222.9830 N   0  0  0  0  0  0  0  0  0  0  0  0
  137.2070   78.1860  222.9150 C   0  0  0  0  0  0  0  0  0  0  0  0
  136.2240   79.1710  222.9980 C   0  0  0  0  0  0  0  0  0  0  0  0
  136.6270   80.5140  222.8880 C   0  0  0  0  0  0  0  0  0  0  0  0
  137.9870   80.8390  222.6960 C   0  0  0  0  0  0  0  0  0  0  0  0
  138.9590   79.8240  222.6130 C   0  0  0  0  0  0  0  0  0  0  0  0
  138.5290   78.5010  222.7300 C   0  0  0  0  0  0  0  0  0  0  0  0
  141.0874   73.4858  218.9305 H   0  0  0  0  0  0  0  0  0  0  0  0
  141.7302   75.1605  218.7174 H   0  0  0  0  0  0  0  0  0  0  0  0
  143.6991   75.9167  219.8261 H   0  0  0  0  0  0  0  0  0  0  0  0
  145.9424   75.3298  220.7239 H   0  0  0  0  0  0  0  0  0  0  0  0
  146.4576   72.9785  221.3607 H   0  0  0  0  0  0  0  0  0  0  0  0
  144.7339   71.2057  221.1064 H   0  0  0  0  0  0  0  0  0  0  0  0
  141.2455   77.0425  218.9816 H   0  0  0  0  0  0  0  0  0  0  0  0
  142.0568   79.2845  219.3802 H   0  0  0  0  0  0  0  0  0  0  0  0
  142.8809   81.0034  220.9819 H   0  0  0  0  0  0  0  0  0  0  0  0
  143.1416   81.8629  223.3088 H   0  0  0  0  0  0  0  0  0  0  0  0
  142.3210   80.5149  225.2405 H   0  0  0  0  0  0  0  0  0  0  0  0
  141.2148   78.3147  224.8505 H   0  0  0  0  0  0  0  0  0  0  0  0
  141.0979   76.3652  223.1712 H   0  0  0  0  0  0  0  0  0  0  0  0
  138.4698   75.2282  222.8430 H   0  0  0  0  0  0  0  0  0  0  0  0
  136.1310   76.3430  223.1110 H   0  0  0  0  0  0  0  0  0  0  0  0
  135.1665   78.9062  223.1449 H   0  0  0  0  0  0  0  0  0  0  0  0
  135.8773   81.3164  222.9520 H   0  0  0  0  0  0  0  0  0  0  0  0
  138.2897   81.8931  222.6106 H   0  0  0  0  0  0  0  0  0  0  0  0
  140.0214   80.0652  222.4611 H   0  0  0  0  0  0  0  0  0  0  0  0
  1  2  2  0
  2  3  2  0
  2  4  1  0
  4  5  1  0
  5  6  2  0
  6  7  1  0
  7  8  2  0
  8  9  1  0
  9 10  2  0
 10 11  1  0
 11 12  1  0
 11 13  1  0
 11 14  1  0
  2 15  1  0
 15 16  1  0
 16 17  2  0
 17 18  1  0
 18 19  2  0
 19 20  1  0
 20 21  2  0
 21 22  1  0
 22 23  2  0
 23 24  1  0
 24 25  1  0
 25 26  2  0
 26 27  1  0
 27 28  1  0
 28 29  2  0
 29 30  1  0
 30 31  2  0
 31 32  1  0
 32 33  2  0
 10  5  1  0
 24 15  1  0
 33 25  1  0
 23 18  1  0
 33 28  1  0
  4 34  1  0
  4 35  1  0
  6 36  1  0
  7 37  1  0
  8 38  1  0
  9 39  1  0
 16 40  1  0
 17 41  1  0
 19 42  1  0
 20 43  1  0
 21 44  1  0
 22 45  1  0
 24 46  1  1
 26 47  1  0
 27 48  1  0
 29 49  1  0
 30 50  1  0
 31 51  1  0
 32 52  1  0
M  END
>  <UniqueID>  (64) 
4

>  <SMILES>  (64) 
O=S(=O)(Cc1ccccc1C(F)(F)F)N1C=Cc2ccccc2[C@H]1c1c[nH]c2ccccc12

>  <Energy>  (64) 
90.73444200797094

>  <Genealogy>  (64) 
O=S(=O)(Cc1ccccc1C(F)(F)F)N1C=Cc2ccccc2[C@H]1c1c[nH]c2ccccc12 (3D coordinates assigned)
O=S(=O)(Cc1ccccc1C(F)(F)F)N1C=Cc2ccccc2[C@H]1c1c[nH]c2ccccc12 (nonaromatic ring conformer: 90.73444200797094 kcal/mol)

>  <smiles>  (64) 
O=S(=O)(Cc1ccccc1C(F)(F)F)N1C=Cc2ccccc2[C@H]1c1c[nH]c2ccccc12

>  <score_type>  (64) 
oracle

>  <origin>  (64) 
autodockgpu

>  <m_score__min__energy>  (64) 
-8.0899999999999999

>  <m_primary>  (64) 
energy

>  <meeko>  (64) 
{"free_energy": -8.08, "intermolecular_energy": -9.57, "internal_energy": -1.92, "cluster_size": 3, "cluster_id": 1, "rank_in_cluster": 3}

>  <energy>  (64) 
-6.69

>  <cluster_rmsd>  (64) 
0.0

>  <rmsd>  (64) 
269.62

>  <cluster>  (64) 
2

$$$$
CYEMMKKIRZZUDR-DEOSSOPVNA-N
     RDKit          3D

 52 56  0  0  0  0  0  0  0  0999 V2000
  137.7200   77.9610  219.7190 O   0  0  0  0  0  0  0  0  0  0  0  0
  137.8210   79.4440  219.9450 S   0  0  0  0  0  0  0  0  0  0  0  0
  136.4570   79.9730  220.2860 O   0  0  0  0  0  0  0  0  0  0  0  0
  138.4490   80.2200  218.4630 C   0  0  0  0  0  0  0  0  0  0  0  0
  139.9490   80.0620  218.3670 C   0  0  0  0  0  0  0  0  0  0  0  0
  140.4440   78.8750  217.7960 C   0  0  0  0  0  0  0  0  0  0  0  0
  141.8140   78.6660  217.6530 C   0  0  0  0  0  0  0  0  0  0  0  0
  142.7150   79.6370  218.0810 C   0  0  0  0  0  0  0  0  0  0  0  0
  142.2500   80.8220  218.6510 C   0  0  0  0  0  0  0  0  0  0  0  0
  140.8680   81.0640  218.7960 C   0  0  0  0  0  0  0  0  0  0  0  0
  140.4040   82.3520  219.4540 C   0  0  0  0  0  0  0  0  0  0  0  0
  141.3240   82.7670  220.3970 F   0  0  0  0  0  0  0  0  0  0  0  0
  140.2570   83.3340  218.4920 F   0  0  0  0  0  0  0  0  0  0  0  0
  139.1870   82.1920  220.0960 F   0  0  0  0  0  0  0  0  0  0  0  0
  138.9100   79.7670  221.2590 N   0  0  0  0  0  0  0  0  0  0  0  0
  138.4140   80.5100  222.3850 C   0  0  0  0  0  0  0  0  0  0  0  0
  139.2340   80.9190  223.3500 C   0  0  0  0  0  0  0  0  0  0  0  0
  140.6760   80.6390  223.2760 C   0  0  0  0  0  0  0  0  0  0  0  0
  141.5510   81.1980  224.2200 C   0  0  0  0  0  0  0  0  0  0  0  0
  142.9240   80.9570  224.1350 C   0  0  0  0  0  0  0  0  0  0  0  0
  143.4320   80.1600  223.1070 C   0  0  0  0  0  0  0  0  0  0  0  0
  142.5690   79.5960  222.1660 C   0  0  0  0  0  0  0  0  0  0  0  0
  141.1850   79.8310  222.2400 C   0  0  0  0  0  0  0  0  0  0  0  0
  140.2510   79.1600  221.2560 C   0  0  1  0  0  0  0  0  0  0  0  0
  140.1440   77.6940  221.5860 C   0  0  0  0  0  0  0  0  0  0  0  0
  139.2180   77.1000  222.4420 C   0  0  0  0  0  0  0  0  0  0  0  0
  139.4450   75.7710  222.5340 N   0  0  0  0  0  0  0  0  0  0  0  0
  140.5100   75.5190  221.7540 C   0  0  0  0  0  0  0  0  0  0  0  0
  141.1270   74.2880  221.5400 C   0  0  0  0  0  0  0  0  0  0  0  0
  142.2450   74.2510  220.6880 C   0  0  0  0  0  0  0  0  0  0  0  0
  142.7200   75.4330  220.0790 C   0  0  0  0  0  0  0  0  0  0  0  0
  142.0790   76.6640  220.3140 C   0  0  0  0  0  0  0  0  0  0  0  0
  140.9690   76.6680  221.1620 C   0  0  0  0  0  0  0  0  0  0  0  0
  137.9804   79.7518  217.5848 H   0  0  0  0  0  0  0  0  0  0  0  0
  138.2097   81.2931  218.4991 H   0  0  0  0  0  0  0  0  0  0  0  0
  139.7393   78.1011  217.4577 H   0  0  0  0  0  0  0  0  0  0  0  0
  142.1838   77.7335  217.2018 H   0  0  0  0  0  0  0  0  0  0  0  0
  143.7964   79.4693  217.9694 H   0  0  0  0  0  0  0  0  0  0  0  0
  142.9715   81.5788  218.9924 H   0  0  0  0  0  0  0  0  0  0  0  0
  137.3411   80.7439  222.4500 H   0  0  0  0  0  0  0  0  0  0  0  0
  138.8296   81.4715  224.2109 H   0  0  0  0  0  0  0  0  0  0  0  0
  141.1541   81.8281  225.0296 H   0  0  0  0  0  0  0  0  0  0  0  0
  143.6059   81.3954  224.8785 H   0  0  0  0  0  0  0  0  0  0  0  0
  144.5144   79.9763  223.0387 H   0  0  0  0  0  0  0  0  0  0  0  0
  142.9742   78.9641  221.3620 H   0  0  0  0  0  0  0  0  0  0  0  0
  140.6728   79.2957  220.2492 H   0  0  0  0  0  0  0  0  0  0  0  0
  138.4155   77.6374  222.9685 H   0  0  0  0  0  0  0  0  0  0  0  0
  138.9060   75.0830  223.1060 H   0  0  0  0  0  0  0  0  0  0  0  0
  140.7512   73.3737  222.0225 H   0  0  0  0  0  0  0  0  0  0  0  0
  142.7530   73.2947  220.4946 H   0  0  0  0  0  0  0  0  0  0  0  0
  143.5970   75.3916  219.4163 H   0  0  0  0  0  0  0  0  0  0  0  0
  142.4400   77.5915  219.8456 H   0  0  0  0  0  0  0  0  0  0  0  0
  1  2  2  0
  2  3  2  0
  2  4  1  0
  4  5  1  0
  5  6  2  0
  6  7  1  0
  7  8  2  0
  8  9  1  0
  9 10  2  0
 10 11  1  0
 11 12  1  0
 11 13  1  0
 11 14  1  0
  2 15  1  0
 15 16  1  0
 16 17  2  0
 17 18  1  0
 18 19  2  0
 19 20  1  0
 20 21  2  0
 21 22  1  0
 22 23  2  0
 23 24  1  0
 24 25  1  0
 25 26  2  0
 26 27  1  0
 27 28  1  0
 28 29  2  0
 29 30  1  0
 30 31  2  0
 31 32  1  0
 32 33  2  0
 10  5  1  0
 24 15  1  0
 33 25  1  0
 23 18  1  0
 33 28  1  0
  4 34  1  0
  4 35  1  0
  6 36  1  0
  7 37  1  0
  8 38  1  0
  9 39  1  0
 16 40  1  0
 17 41  1  0
 19 42  1  0
 20 43  1  0
 21 44  1  0
 22 45  1  0
 24 46  1  6
 26 47  1  0
 27 48  1  0
 29 49  1  0
 30 50  1  0
 31 51  1  0
 32 52  1  0
M  END
>  <UniqueID>  (65) 
4

>  <SMILES>  (65) 
O=S(=O)(Cc1ccccc1C(F)(F)F)N1C=Cc2ccccc2[C@H]1c1c[nH]c2ccccc12

>  <Energy>  (65) 
90.73444200797094

>  <Genealogy>  (65) 
O=S(=O)(Cc1ccccc1C(F)(F)F)N1C=Cc2ccccc2[C@H]1c1c[nH]c2ccccc12 (3D coordinates assigned)
O=S(=O)(Cc1ccccc1C(F)(F)F)N1C=Cc2ccccc2[C@H]1c1c[nH]c2ccccc12 (nonaromatic ring conformer: 90.73444200797094 kcal/mol)

>  <smiles>  (65) 
O=S(=O)(Cc1ccccc1C(F)(F)F)N1C=Cc2ccccc2[C@H]1c1c[nH]c2ccccc12

>  <score_type>  (65) 
oracle

>  <origin>  (65) 
autodockgpu

>  <m_score__min__energy>  (65) 
-8.0899999999999999

>  <m_primary>  (65) 
energy

>  <meeko>  (65) 
{"free_energy": -6.68, "intermolecular_energy": -8.17, "internal_energy": -3.3, "cluster_size": 17, "cluster_id": 2, "rank_in_cluster": 9}

>  <energy>  (65) 
-6.69

>  <cluster_rmsd>  (65) 
0.06

>  <rmsd>  (65) 
269.62

>  <cluster>  (65) 
2

$$$$
CYEMMKKIRZZUDR-DEOSSOPVNA-N
     RDKit          3D

 52 56  0  0  0  0  0  0  0  0999 V2000
  137.7530   77.9460  219.6840 O   0  0  0  0  0  0  0  0  0  0  0  0
  137.8320   79.4280  219.9260 S   0  0  0  0  0  0  0  0  0  0  0  0
  136.4600   79.9330  220.2710 O   0  0  0  0  0  0  0  0  0  0  0  0
  138.4480   80.2300  218.4520 C   0  0  0  0  0  0  0  0  0  0  0  0
  139.9480   80.0770  218.3450 C   0  0  0  0  0  0  0  0  0  0  0  0
  140.4440   78.8990  217.7580 C   0  0  0  0  0  0  0  0  0  0  0  0
  141.8140   78.6970  217.6050 C   0  0  0  0  0  0  0  0  0  0  0  0
  142.7140   79.6670  218.0360 C   0  0  0  0  0  0  0  0  0  0  0  0
  142.2480   80.8440  218.6210 C   0  0  0  0  0  0  0  0  0  0  0  0
  140.8660   81.0790  218.7780 C   0  0  0  0  0  0  0  0  0  0  0  0
  140.4010   82.3590  219.4520 C   0  0  0  0  0  0  0  0  0  0  0  0
  141.3140   82.7540  220.4100 F   0  0  0  0  0  0  0  0  0  0  0  0
  140.2680   83.3570  218.5050 F   0  0  0  0  0  0  0  0  0  0  0  0
  139.1780   82.1940  220.0800 F   0  0  0  0  0  0  0  0  0  0  0  0
  138.9150   79.7550  221.2430 N   0  0  0  0  0  0  0  0  0  0  0  0
  138.4140   80.4980  222.3660 C   0  0  0  0  0  0  0  0  0  0  0  0
  139.2300   80.9100  223.3340 C   0  0  0  0  0  0  0  0  0  0  0  0
  140.6730   80.6320  223.2660 C   0  0  0  0  0  0  0  0  0  0  0  0
  141.5430   81.1930  224.2130 C   0  0  0  0  0  0  0  0  0  0  0  0
  142.9160   80.9540  224.1330 C   0  0  0  0  0  0  0  0  0  0  0  0
  143.4300   80.1560  223.1080 C   0  0  0  0  0  0  0  0  0  0  0  0
  142.5710   79.5900  222.1640 C   0  0  0  0  0  0  0  0  0  0  0  0
  141.1870   79.8230  222.2330 C   0  0  0  0  0  0  0  0  0  0  0  0
  140.2570   79.1500  221.2460 C   0  0  1  0  0  0  0  0  0  0  0  0
  140.1510   77.6840  221.5770 C   0  0  0  0  0  0  0  0  0  0  0  0
  139.2270   77.0910  222.4370 C   0  0  0  0  0  0  0  0  0  0  0  0
  139.4550   75.7620  222.5300 N   0  0  0  0  0  0  0  0  0  0  0  0
  140.5170   75.5090  221.7460 C   0  0  0  0  0  0  0  0  0  0  0  0
  141.1330   74.2770  221.5310 C   0  0  0  0  0  0  0  0  0  0  0  0
  142.2490   74.2400  220.6760 C   0  0  0  0  0  0  0  0  0  0  0  0
  142.7220   75.4220  220.0650 C   0  0  0  0  0  0  0  0  0  0  0  0
  142.0820   76.6520  220.3010 C   0  0  0  0  0  0  0  0  0  0  0  0
  140.9750   76.6580  221.1520 C   0  0  0  0  0  0  0  0  0  0  0  0
  137.9751   79.7748  217.5693 H   0  0  0  0  0  0  0  0  0  0  0  0
  138.2057   81.3016  218.5061 H   0  0  0  0  0  0  0  0  0  0  0  0
  139.7403   78.1263  217.4149 H   0  0  0  0  0  0  0  0  0  0  0  0
  142.1846   77.7700  217.1431 H   0  0  0  0  0  0  0  0  0  0  0  0
  143.7953   79.5050  217.9150 H   0  0  0  0  0  0  0  0  0  0  0  0
  142.9688   81.6003  218.9651 H   0  0  0  0  0  0  0  0  0  0  0  0
  137.3404   80.7299  222.4269 H   0  0  0  0  0  0  0  0  0  0  0  0
  138.8215   81.4633  224.1924 H   0  0  0  0  0  0  0  0  0  0  0  0
  141.1421   81.8229  225.0207 H   0  0  0  0  0  0  0  0  0  0  0  0
  143.5944   81.3948  224.8783 H   0  0  0  0  0  0  0  0  0  0  0  0
  144.5129   79.9733  223.0446 H   0  0  0  0  0  0  0  0  0  0  0  0
  142.9799   78.9582  221.3618 H   0  0  0  0  0  0  0  0  0  0  0  0
  140.6821   79.2859  220.2406 H   0  0  0  0  0  0  0  0  0  0  0  0
  138.4258   77.6289  222.9650 H   0  0  0  0  0  0  0  0  0  0  0  0
  138.9170   75.0740  223.1040 H   0  0  0  0  0  0  0  0  0  0  0  0
  140.7581   73.3630  222.0147 H   0  0  0  0  0  0  0  0  0  0  0  0
  142.7569   73.2838  220.4818 H   0  0  0  0  0  0  0  0  0  0  0  0
  143.5971   75.3805  219.3998 H   0  0  0  0  0  0  0  0  0  0  0  0
  142.4418   77.5789  219.8305 H   0  0  0  0  0  0  0  0  0  0  0  0
  1  2  2  0
  2  3  2  0
  2  4  1  0
  4  5  1  0
  5  6  2  0
  6  7  1  0
  7  8  2  0
  8  9  1  0
  9 10  2  0
 10 11  1  0
 11 12  1  0
 11 13  1  0
 11 14  1  0
  2 15  1  0
 15 16  1  0
 16 17  2  0
 17 18  1  0
 18 19  2  0
 19 20  1  0
 20 21  2  0
 21 22  1  0
 22 23  2  0
 23 24  1  0
 24 25  1  0
 25 26  2  0
 26 27  1  0
 27 28  1  0
 28 29  2  0
 29 30  1  0
 30 31  2  0
 31 32  1  0
 32 33  2  0
 10  5  1  0
 24 15  1  0
 33 25  1  0
 23 18  1  0
 33 28  1  0
  4 34  1  0
  4 35  1  0
  6 36  1  0
  7 37  1  0
  8 38  1  0
  9 39  1  0
 16 40  1  0
 17 41  1  0
 19 42  1  0
 20 43  1  0
 21 44  1  0
 22 45  1  0
 24 46  1  6
 26 47  1  0
 27 48  1  0
 29 49  1  0
 30 50  1  0
 31 51  1  0
 32 52  1  0
M  END
>  <UniqueID>  (66) 
4

>  <SMILES>  (66) 
O=S(=O)(Cc1ccccc1C(F)(F)F)N1C=Cc2ccccc2[C@H]1c1c[nH]c2ccccc12

>  <Energy>  (66) 
90.73444200797094

>  <Genealogy>  (66) 
O=S(=O)(Cc1ccccc1C(F)(F)F)N1C=Cc2ccccc2[C@H]1c1c[nH]c2ccccc12 (3D coordinates assigned)
O=S(=O)(Cc1ccccc1C(F)(F)F)N1C=Cc2ccccc2[C@H]1c1c[nH]c2ccccc12 (nonaromatic ring conformer: 90.73444200797094 kcal/mol)

>  <smiles>  (66) 
O=S(=O)(Cc1ccccc1C(F)(F)F)N1C=Cc2ccccc2[C@H]1c1c[nH]c2ccccc12

>  <score_type>  (66) 
oracle

>  <origin>  (66) 
autodockgpu

>  <m_score__min__energy>  (66) 
-8.0899999999999999

>  <m_primary>  (66) 
energy

>  <meeko>  (66) 
{"free_energy": -6.67, "intermolecular_energy": -8.17, "internal_energy": -3.31, "cluster_size": 17, "cluster_id": 2, "rank_in_cluster": 14}

>  <energy>  (66) 
-6.69

>  <cluster_rmsd>  (66) 
0.03

>  <rmsd>  (66) 
269.62

>  <cluster>  (66) 
2

$$$$
CYEMMKKIRZZUDR-DEOSSOPVNA-N
     RDKit          3D

 52 56  0  0  0  0  0  0  0  0999 V2000
  137.7140   77.9620  219.7220 O   0  0  0  0  0  0  0  0  0  0  0  0
  137.8260   79.4440  219.9440 S   0  0  0  0  0  0  0  0  0  0  0  0
  136.4650   79.9840  220.2840 O   0  0  0  0  0  0  0  0  0  0  0  0
  138.4590   80.2130  218.4600 C   0  0  0  0  0  0  0  0  0  0  0  0
  139.9570   80.0380  218.3610 C   0  0  0  0  0  0  0  0  0  0  0  0
  140.4370   78.8430  217.7950 C   0  0  0  0  0  0  0  0  0  0  0  0
  141.8050   78.6190  217.6500 C   0  0  0  0  0  0  0  0  0  0  0  0
  142.7170   79.5830  218.0690 C   0  0  0  0  0  0  0  0  0  0  0  0
  142.2660   80.7770  218.6330 C   0  0  0  0  0  0  0  0  0  0  0  0
  140.8870   81.0340  218.7810 C   0  0  0  0  0  0  0  0  0  0  0  0
  140.4380   82.3310  219.4320 C   0  0  0  0  0  0  0  0  0  0  0  0
  141.3630   82.7390  220.3730 F   0  0  0  0  0  0  0  0  0  0  0  0
  140.3020   83.3090  218.4660 F   0  0  0  0  0  0  0  0  0  0  0  0
  139.2200   82.1880  220.0750 F   0  0  0  0  0  0  0  0  0  0  0  0
  138.9170   79.7640  221.2570 N   0  0  0  0  0  0  0  0  0  0  0  0
  138.4240   80.5060  222.3840 C   0  0  0  0  0  0  0  0  0  0  0  0
  139.2460   80.9130  223.3490 C   0  0  0  0  0  0  0  0  0  0  0  0
  140.6870   80.6300  223.2730 C   0  0  0  0  0  0  0  0  0  0  0  0
  141.5640   81.1860  224.2170 C   0  0  0  0  0  0  0  0  0  0  0  0
  142.9370   80.9420  224.1290 C   0  0  0  0  0  0  0  0  0  0  0  0
  143.4420   80.1450  223.1000 C   0  0  0  0  0  0  0  0  0  0  0  0
  142.5760   79.5840  222.1590 C   0  0  0  0  0  0  0  0  0  0  0  0
  141.1930   79.8220  222.2360 C   0  0  0  0  0  0  0  0  0  0  0  0
  140.2570   79.1540  221.2520 C   0  0  1  0  0  0  0  0  0  0  0  0
  140.1470   77.6880  221.5790 C   0  0  0  0  0  0  0  0  0  0  0  0
  139.2190   77.0950  222.4340 C   0  0  0  0  0  0  0  0  0  0  0  0
  139.4440   75.7650  222.5260 N   0  0  0  0  0  0  0  0  0  0  0  0
  140.5100   75.5130  221.7460 C   0  0  0  0  0  0  0  0  0  0  0  0
  141.1240   74.2800  221.5310 C   0  0  0  0  0  0  0  0  0  0  0  0
  142.2440   74.2430  220.6800 C   0  0  0  0  0  0  0  0  0  0  0  0
  142.7210   75.4250  220.0730 C   0  0  0  0  0  0  0  0  0  0  0  0
  142.0820   76.6560  220.3090 C   0  0  0  0  0  0  0  0  0  0  0  0
  140.9710   76.6620  221.1550 C   0  0  0  0  0  0  0  0  0  0  0  0
  137.9832   79.7500  217.5830 H   0  0  0  0  0  0  0  0  0  0  0  0
  138.2316   81.2886  218.4962 H   0  0  0  0  0  0  0  0  0  0  0  0
  139.7231   78.0750  217.4624 H   0  0  0  0  0  0  0  0  0  0  0  0
  142.1640   77.6797  217.2041 H   0  0  0  0  0  0  0  0  0  0  0  0
  143.7962   79.4033  217.9553 H   0  0  0  0  0  0  0  0  0  0  0  0
  142.9964   81.5286  218.9670 H   0  0  0  0  0  0  0  0  0  0  0  0
  137.3515   80.7413  222.4506 H   0  0  0  0  0  0  0  0  0  0  0  0
  138.8437   81.4658  224.2107 H   0  0  0  0  0  0  0  0  0  0  0  0
  141.1695   81.8155  225.0283 H   0  0  0  0  0  0  0  0  0  0  0  0
  143.6210   81.3786  224.8716 H   0  0  0  0  0  0  0  0  0  0  0  0
  144.5239   79.9586  223.0304 H   0  0  0  0  0  0  0  0  0  0  0  0
  142.9784   78.9525  221.3532 H   0  0  0  0  0  0  0  0  0  0  0  0
  140.6787   79.2901  220.2452 H   0  0  0  0  0  0  0  0  0  0  0  0
  138.4167   77.6334  222.9597 H   0  0  0  0  0  0  0  0  0  0  0  0
  138.9030   75.0770  223.0960 H   0  0  0  0  0  0  0  0  0  0  0  0
  140.7452   73.3657  222.0111 H   0  0  0  0  0  0  0  0  0  0  0  0
  142.7514   73.2864  220.4863 H   0  0  0  0  0  0  0  0  0  0  0  0
  143.5984   75.3832  219.4109 H   0  0  0  0  0  0  0  0  0  0  0  0
  142.4456   77.5834  219.8424 H   0  0  0  0  0  0  0  0  0  0  0  0
  1  2  2  0
  2  3  2  0
  2  4  1  0
  4  5  1  0
  5  6  2  0
  6  7  1  0
  7  8  2  0
  8  9  1  0
  9 10  2  0
 10 11  1  0
 11 12  1  0
 11 13  1  0
 11 14  1  0
  2 15  1  0
 15 16  1  0
 16 17  2  0
 17 18  1  0
 18 19  2  0
 19 20  1  0
 20 21  2  0
 21 22  1  0
 22 23  2  0
 23 24  1  0
 24 25  1  0
 25 26  2  0
 26 27  1  0
 27 28  1  0
 28 29  2  0
 29 30  1  0
 30 31  2  0
 31 32  1  0
 32 33  2  0
 10  5  1  0
 24 15  1  0
 33 25  1  0
 23 18  1  0
 33 28  1  0
  4 34  1  0
  4 35  1  0
  6 36  1  0
  7 37  1  0
  8 38  1  0
  9 39  1  0
 16 40  1  0
 17 41  1  0
 19 42  1  0
 20 43  1  0
 21 44  1  0
 22 45  1  0
 24 46  1  6
 26 47  1  0
 27 48  1  0
 29 49  1  0
 30 50  1  0
 31 51  1  0
 32 52  1  0
M  END
>  <UniqueID>  (67) 
4

>  <SMILES>  (67) 
O=S(=O)(Cc1ccccc1C(F)(F)F)N1C=Cc2ccccc2[C@H]1c1c[nH]c2ccccc12

>  <Energy>  (67) 
90.73444200797094

>  <Genealogy>  (67) 
O=S(=O)(Cc1ccccc1C(F)(F)F)N1C=Cc2ccccc2[C@H]1c1c[nH]c2ccccc12 (3D coordinates assigned)
O=S(=O)(Cc1ccccc1C(F)(F)F)N1C=Cc2ccccc2[C@H]1c1c[nH]c2ccccc12 (nonaromatic ring conformer: 90.73444200797094 kcal/mol)

>  <smiles>  (67) 
O=S(=O)(Cc1ccccc1C(F)(F)F)N1C=Cc2ccccc2[C@H]1c1c[nH]c2ccccc12

>  <score_type>  (67) 
oracle

>  <origin>  (67) 
autodockgpu

>  <m_score__min__energy>  (67) 
-8.0899999999999999

>  <m_primary>  (67) 
energy

>  <meeko>  (67) 
{"free_energy": -6.69, "intermolecular_energy": -8.18, "internal_energy": -3.31, "cluster_size": 17, "cluster_id": 2, "rank_in_cluster": 1}

>  <energy>  (67) 
-6.68

>  <cluster_rmsd>  (67) 
0.04

>  <rmsd>  (67) 
269.63

>  <cluster>  (67) 
2

$$$$
CYEMMKKIRZZUDR-DEOSSOPVNA-N
     RDKit          3D

 52 56  0  0  0  0  0  0  0  0999 V2000
  137.7030   77.9490  219.7420 O   0  0  0  0  0  0  0  0  0  0  0  0
  137.8140   79.4330  219.9620 S   0  0  0  0  0  0  0  0  0  0  0  0
  136.4550   79.9720  220.3070 O   0  0  0  0  0  0  0  0  0  0  0  0
  138.4400   80.1990  218.4730 C   0  0  0  0  0  0  0  0  0  0  0  0
  139.9400   80.0440  218.3780 C   0  0  0  0  0  0  0  0  0  0  0  0
  140.4370   78.8540  217.8160 C   0  0  0  0  0  0  0  0  0  0  0  0
  141.8080   78.6470  217.6750 C   0  0  0  0  0  0  0  0  0  0  0  0
  142.7070   79.6240  218.0930 C   0  0  0  0  0  0  0  0  0  0  0  0
  142.2390   80.8130  218.6530 C   0  0  0  0  0  0  0  0  0  0  0  0
  140.8560   81.0530  218.7970 C   0  0  0  0  0  0  0  0  0  0  0  0
  140.3890   82.3450  219.4440 C   0  0  0  0  0  0  0  0  0  0  0  0
  141.3190   82.7820  220.3670 F   0  0  0  0  0  0  0  0  0  0  0  0
  140.2170   83.3120  218.4710 F   0  0  0  0  0  0  0  0  0  0  0  0
  139.1840   82.1820  220.1070 F   0  0  0  0  0  0  0  0  0  0  0  0
  138.9120   79.7550  221.2690 N   0  0  0  0  0  0  0  0  0  0  0  0
  138.4250   80.5030  222.3950 C   0  0  0  0  0  0  0  0  0  0  0  0
  139.2520   80.9120  223.3540 C   0  0  0  0  0  0  0  0  0  0  0  0
  140.6920   80.6260  223.2740 C   0  0  0  0  0  0  0  0  0  0  0  0
  141.5740   81.1830  224.2120 C   0  0  0  0  0  0  0  0  0  0  0  0
  142.9460   80.9360  224.1190 C   0  0  0  0  0  0  0  0  0  0  0  0
  143.4450   80.1340  223.0910 C   0  0  0  0  0  0  0  0  0  0  0  0
  142.5740   79.5710  222.1560 C   0  0  0  0  0  0  0  0  0  0  0  0
  141.1920   79.8120  222.2370 C   0  0  0  0  0  0  0  0  0  0  0  0
  140.2500   79.1420  221.2600 C   0  0  1  0  0  0  0  0  0  0  0  0
  140.1390   77.6780  221.5940 C   0  0  0  0  0  0  0  0  0  0  0  0
  139.2140   77.0900  222.4570 C   0  0  0  0  0  0  0  0  0  0  0  0
  139.4360   75.7610  222.5520 N   0  0  0  0  0  0  0  0  0  0  0  0
  140.4970   75.5020  221.7670 C   0  0  0  0  0  0  0  0  0  0  0  0
  141.1070   74.2670  221.5530 C   0  0  0  0  0  0  0  0  0  0  0  0
  142.2210   74.2240  220.6960 C   0  0  0  0  0  0  0  0  0  0  0  0
  142.6980   75.4020  220.0820 C   0  0  0  0  0  0  0  0  0  0  0  0
  142.0630   76.6360  220.3170 C   0  0  0  0  0  0  0  0  0  0  0  0
  140.9570   76.6480  221.1690 C   0  0  0  0  0  0  0  0  0  0  0  0
  137.9724   79.7226  217.5987 H   0  0  0  0  0  0  0  0  0  0  0  0
  138.1981   81.2717  218.5006 H   0  0  0  0  0  0  0  0  0  0  0  0
  139.7339   78.0762  217.4833 H   0  0  0  0  0  0  0  0  0  0  0  0
  142.1799   77.7109  217.2331 H   0  0  0  0  0  0  0  0  0  0  0  0
  143.7887   79.4583  217.9816 H   0  0  0  0  0  0  0  0  0  0  0  0
  142.9588   81.5747  218.9872 H   0  0  0  0  0  0  0  0  0  0  0  0
  137.3533   80.7409  222.4653 H   0  0  0  0  0  0  0  0  0  0  0  0
  138.8544   81.4695  224.2149 H   0  0  0  0  0  0  0  0  0  0  0  0
  141.1843   81.8159  225.0229 H   0  0  0  0  0  0  0  0  0  0  0  0
  143.6341   81.3741  224.8569 H   0  0  0  0  0  0  0  0  0  0  0  0
  144.5262   79.9453  223.0174 H   0  0  0  0  0  0  0  0  0  0  0  0
  142.9720   78.9352  221.3514 H   0  0  0  0  0  0  0  0  0  0  0  0
  140.6666   79.2728  220.2504 H   0  0  0  0  0  0  0  0  0  0  0  0
  138.4162   77.6323  222.9857 H   0  0  0  0  0  0  0  0  0  0  0  0
  138.8970   75.0760  223.1280 H   0  0  0  0  0  0  0  0  0  0  0  0
  140.7291   73.3554  222.0389 H   0  0  0  0  0  0  0  0  0  0  0  0
  142.7244   73.2652  220.5027 H   0  0  0  0  0  0  0  0  0  0  0  0
  143.5718   75.3554  219.4154 H   0  0  0  0  0  0  0  0  0  0  0  0
  142.4263   77.5607  219.8448 H   0  0  0  0  0  0  0  0  0  0  0  0
  1  2  2  0
  2  3  2  0
  2  4  1  0
  4  5  1  0
  5  6  2  0
  6  7  1  0
  7  8  2  0
  8  9  1  0
  9 10  2  0
 10 11  1  0
 11 12  1  0
 11 13  1  0
 11 14  1  0
  2 15  1  0
 15 16  1  0
 16 17  2  0
 17 18  1  0
 18 19  2  0
 19 20  1  0
 20 21  2  0
 21 22  1  0
 22 23  2  0
 23 24  1  0
 24 25  1  0
 25 26  2  0
 26 27  1  0
 27 28  1  0
 28 29  2  0
 29 30  1  0
 30 31  2  0
 31 32  1  0
 32 33  2  0
 10  5  1  0
 24 15  1  0
 33 25  1  0
 23 18  1  0
 33 28  1  0
  4 34  1  0
  4 35  1  0
  6 36  1  0
  7 37  1  0
  8 38  1  0
  9 39  1  0
 16 40  1  0
 17 41  1  0
 19 42  1  0
 20 43  1  0
 21 44  1  0
 22 45  1  0
 24 46  1  6
 26 47  1  0
 27 48  1  0
 29 49  1  0
 30 50  1  0
 31 51  1  0
 32 52  1  0
M  END
>  <UniqueID>  (68) 
4

>  <SMILES>  (68) 
O=S(=O)(Cc1ccccc1C(F)(F)F)N1C=Cc2ccccc2[C@H]1c1c[nH]c2ccccc12

>  <Energy>  (68) 
90.73444200797094

>  <Genealogy>  (68) 
O=S(=O)(Cc1ccccc1C(F)(F)F)N1C=Cc2ccccc2[C@H]1c1c[nH]c2ccccc12 (3D coordinates assigned)
O=S(=O)(Cc1ccccc1C(F)(F)F)N1C=Cc2ccccc2[C@H]1c1c[nH]c2ccccc12 (nonaromatic ring conformer: 90.73444200797094 kcal/mol)

>  <smiles>  (68) 
O=S(=O)(Cc1ccccc1C(F)(F)F)N1C=Cc2ccccc2[C@H]1c1c[nH]c2ccccc12

>  <score_type>  (68) 
oracle

>  <origin>  (68) 
autodockgpu

>  <m_score__min__energy>  (68) 
-8.0899999999999999

>  <m_primary>  (68) 
energy

>  <meeko>  (68) 
{"free_energy": -6.69, "intermolecular_energy": -8.18, "internal_energy": -3.31, "cluster_size": 17, "cluster_id": 2, "rank_in_cluster": 3}

>  <energy>  (68) 
-6.68

>  <cluster_rmsd>  (68) 
0.04

>  <rmsd>  (68) 
269.61

>  <cluster>  (68) 
2

$$$$
CYEMMKKIRZZUDR-DEOSSOPVNA-N
     RDKit          3D

 52 56  0  0  0  0  0  0  0  0999 V2000
  137.7270   77.9430  219.7040 O   0  0  0  0  0  0  0  0  0  0  0  0
  137.8280   79.4260  219.9310 S   0  0  0  0  0  0  0  0  0  0  0  0
  136.4640   79.9550  220.2730 O   0  0  0  0  0  0  0  0  0  0  0  0
  138.4540   80.2040  218.4490 C   0  0  0  0  0  0  0  0  0  0  0  0
  139.9510   80.0240  218.3380 C   0  0  0  0  0  0  0  0  0  0  0  0
  140.4230   78.8270  217.7700 C   0  0  0  0  0  0  0  0  0  0  0  0
  141.7890   78.5990  217.6140 C   0  0  0  0  0  0  0  0  0  0  0  0
  142.7080   79.5610  218.0260 C   0  0  0  0  0  0  0  0  0  0  0  0
  142.2650   80.7560  218.5920 C   0  0  0  0  0  0  0  0  0  0  0  0
  140.8870   81.0180  218.7500 C   0  0  0  0  0  0  0  0  0  0  0  0
  140.4480   82.3160  219.4030 C   0  0  0  0  0  0  0  0  0  0  0  0
  141.3880   82.7300  220.3270 F   0  0  0  0  0  0  0  0  0  0  0  0
  140.2940   83.2910  218.4350 F   0  0  0  0  0  0  0  0  0  0  0  0
  139.2410   82.1750  220.0670 F   0  0  0  0  0  0  0  0  0  0  0  0
  138.9180   79.7490  221.2440 N   0  0  0  0  0  0  0  0  0  0  0  0
  138.4270   80.5020  222.3650 C   0  0  0  0  0  0  0  0  0  0  0  0
  139.2500   80.9120  223.3280 C   0  0  0  0  0  0  0  0  0  0  0  0
  140.6900   80.6210  223.2570 C   0  0  0  0  0  0  0  0  0  0  0  0
  141.5670   81.1780  224.1990 C   0  0  0  0  0  0  0  0  0  0  0  0
  142.9390   80.9260  224.1150 C   0  0  0  0  0  0  0  0  0  0  0  0
  143.4420   80.1190  223.0930 C   0  0  0  0  0  0  0  0  0  0  0  0
  142.5750   79.5560  222.1540 C   0  0  0  0  0  0  0  0  0  0  0  0
  141.1930   79.8020  222.2260 C   0  0  0  0  0  0  0  0  0  0  0  0
  140.2550   79.1320  221.2460 C   0  0  1  0  0  0  0  0  0  0  0  0
  140.1370   77.6700  221.5840 C   0  0  0  0  0  0  0  0  0  0  0  0
  139.2080   77.0880  222.4450 C   0  0  0  0  0  0  0  0  0  0  0  0
  139.4250   75.7580  222.5450 N   0  0  0  0  0  0  0  0  0  0  0  0
  140.4850   75.4930  221.7640 C   0  0  0  0  0  0  0  0  0  0  0  0
  141.0910   74.2540  221.5550 C   0  0  0  0  0  0  0  0  0  0  0  0
  142.2070   74.2040  220.7000 C   0  0  0  0  0  0  0  0  0  0  0  0
  142.6900   75.3790  220.0830 C   0  0  0  0  0  0  0  0  0  0  0  0
  142.0600   76.6150  220.3130 C   0  0  0  0  0  0  0  0  0  0  0  0
  140.9520   76.6340  221.1630 C   0  0  0  0  0  0  0  0  0  0  0  0
  137.9703   79.7498  217.5717 H   0  0  0  0  0  0  0  0  0  0  0  0
  138.2313   81.2802  218.4954 H   0  0  0  0  0  0  0  0  0  0  0  0
  139.7043   78.0605  217.4445 H   0  0  0  0  0  0  0  0  0  0  0  0
  142.1416   77.6586  217.1652 H   0  0  0  0  0  0  0  0  0  0  0  0
  143.7858   79.3777  217.9047 H   0  0  0  0  0  0  0  0  0  0  0  0
  143.0002   81.5055  218.9202 H   0  0  0  0  0  0  0  0  0  0  0  0
  137.3557   80.7432  222.4285 H   0  0  0  0  0  0  0  0  0  0  0  0
  138.8492   81.4736  224.1847 H   0  0  0  0  0  0  0  0  0  0  0  0
  141.1742   81.8145  225.0056 H   0  0  0  0  0  0  0  0  0  0  0  0
  143.6240   81.3644  224.8557 H   0  0  0  0  0  0  0  0  0  0  0  0
  144.5230   79.9262  223.0272 H   0  0  0  0  0  0  0  0  0  0  0  0
  142.9758   78.9166  221.3537 H   0  0  0  0  0  0  0  0  0  0  0  0
  140.6788   79.2586  220.2388 H   0  0  0  0  0  0  0  0  0  0  0  0
  138.4103   77.6346  222.9694 H   0  0  0  0  0  0  0  0  0  0  0  0
  138.8810   75.0770  223.1220 H   0  0  0  0  0  0  0  0  0  0  0  0
  140.7085   73.3454  222.0430 H   0  0  0  0  0  0  0  0  0  0  0  0
  142.7071   73.2427  220.5106 H   0  0  0  0  0  0  0  0  0  0  0  0
  143.5648   75.3270  219.4181 H   0  0  0  0  0  0  0  0  0  0  0  0
  142.4279   77.5369  219.8389 H   0  0  0  0  0  0  0  0  0  0  0  0
  1  2  2  0
  2  3  2  0
  2  4  1  0
  4  5  1  0
  5  6  2  0
  6  7  1  0
  7  8  2  0
  8  9  1  0
  9 10  2  0
 10 11  1  0
 11 12  1  0
 11 13  1  0
 11 14  1  0
  2 15  1  0
 15 16  1  0
 16 17  2  0
 17 18  1  0
 18 19  2  0
 19 20  1  0
 20 21  2  0
 21 22  1  0
 22 23  2  0
 23 24  1  0
 24 25  1  0
 25 26  2  0
 26 27  1  0
 27 28  1  0
 28 29  2  0
 29 30  1  0
 30 31  2  0
 31 32  1  0
 32 33  2  0
 10  5  1  0
 24 15  1  0
 33 25  1  0
 23 18  1  0
 33 28  1  0
  4 34  1  0
  4 35  1  0
  6 36  1  0
  7 37  1  0
  8 38  1  0
  9 39  1  0
 16 40  1  0
 17 41  1  0
 19 42  1  0
 20 43  1  0
 21 44  1  0
 22 45  1  0
 24 46  1  6
 26 47  1  0
 27 48  1  0
 29 49  1  0
 30 50  1  0
 31 51  1  0
 32 52  1  0
M  END
>  <UniqueID>  (69) 
4

>  <SMILES>  (69) 
O=S(=O)(Cc1ccccc1C(F)(F)F)N1C=Cc2ccccc2[C@H]1c1c[nH]c2ccccc12

>  <Energy>  (69) 
90.73444200797094

>  <Genealogy>  (69) 
O=S(=O)(Cc1ccccc1C(F)(F)F)N1C=Cc2ccccc2[C@H]1c1c[nH]c2ccccc12 (3D coordinates assigned)
O=S(=O)(Cc1ccccc1C(F)(F)F)N1C=Cc2ccccc2[C@H]1c1c[nH]c2ccccc12 (nonaromatic ring conformer: 90.73444200797094 kcal/mol)

>  <smiles>  (69) 
O=S(=O)(Cc1ccccc1C(F)(F)F)N1C=Cc2ccccc2[C@H]1c1c[nH]c2ccccc12

>  <score_type>  (69) 
oracle

>  <origin>  (69) 
autodockgpu

>  <m_score__min__energy>  (69) 
-8.0899999999999999

>  <m_primary>  (69) 
energy

>  <meeko>  (69) 
{"free_energy": -6.67, "intermolecular_energy": -8.16, "internal_energy": -3.32, "cluster_size": 17, "cluster_id": 2, "rank_in_cluster": 15}

>  <energy>  (69) 
-6.68

>  <cluster_rmsd>  (69) 
0.08

>  <rmsd>  (69) 
269.61

>  <cluster>  (69) 
2

$$$$
CYEMMKKIRZZUDR-DEOSSOPVNA-N
     RDKit          3D

 52 56  0  0  0  0  0  0  0  0999 V2000
  140.7680   74.0880  221.9690 O   0  0  0  0  0  0  0  0  0  0  0  0
  140.5310   74.9360  220.7500 S   0  0  0  0  0  0  0  0  0  0  0  0
  139.0820   74.8350  220.3670 O   0  0  0  0  0  0  0  0  0  0  0  0
  141.5780   74.3580  219.4220 C   0  0  0  0  0  0  0  0  0  0  0  0
  142.9260   73.9240  219.9500 C   0  0  0  0  0  0  0  0  0  0  0  0
  143.9190   74.9100  220.0920 C   0  0  0  0  0  0  0  0  0  0  0  0
  145.1790   74.5900  220.5930 C   0  0  0  0  0  0  0  0  0  0  0  0
  145.4710   73.2790  220.9580 C   0  0  0  0  0  0  0  0  0  0  0  0
  144.5040   72.2830  220.8260 C   0  0  0  0  0  0  0  0  0  0  0  0
  143.2160   72.5820  220.3330 C   0  0  0  0  0  0  0  0  0  0  0  0
  142.2040   71.4610  220.1720 C   0  0  0  0  0  0  0  0  0  0  0  0
  142.8480   70.2430  220.0810 F   0  0  0  0  0  0  0  0  0  0  0  0
  141.3500   71.4510  221.2590 F   0  0  0  0  0  0  0  0  0  0  0  0
  141.4410   71.6190  219.0270 F   0  0  0  0  0  0  0  0  0  0  0  0
  140.9220   76.5930  221.0980 N   0  0  0  0  0  0  0  0  0  0  0  0
  141.3180   77.4400  220.0080 C   0  0  0  0  0  0  0  0  0  0  0  0
  141.7740   78.6710  220.2290 C   0  0  0  0  0  0  0  0  0  0  0  0
  141.9030   79.1880  221.6000 C   0  0  0  0  0  0  0  0  0  0  0  0
  142.5170   80.4280  221.8300 C   0  0  0  0  0  0  0  0  0  0  0  0
  142.6670   80.9060  223.1330 C   0  0  0  0  0  0  0  0  0  0  0  0
  142.2070   80.1510  224.2140 C   0  0  0  0  0  0  0  0  0  0  0  0
  141.5890   78.9180  223.9940 C   0  0  0  0  0  0  0  0  0  0  0  0
  141.4330   78.4250  222.6870 C   0  0  0  0  0  0  0  0  0  0  0  0
  140.7010   77.1200  222.4550 C   0  0  1  0  0  0  0  0  0  0  0  0
  139.2270   77.3240  222.6860 C   0  0  0  0  0  0  0  0  0  0  0  0
  138.2640   76.3270  222.8340 C   0  0  0  0  0  0  0  0  0  0  0  0
  137.0370   76.8740  222.9820 N   0  0  0  0  0  0  0  0  0  0  0  0
  137.2120   78.2050  222.9200 C   0  0  0  0  0  0  0  0  0  0  0  0
  136.2300   79.1900  223.0090 C   0  0  0  0  0  0  0  0  0  0  0  0
  136.6340   80.5330  222.9050 C   0  0  0  0  0  0  0  0  0  0  0  0
  137.9940   80.8580  222.7120 C   0  0  0  0  0  0  0  0  0  0  0  0
  138.9650   79.8440  222.6240 C   0  0  0  0  0  0  0  0  0  0  0  0
  138.5340   78.5200  222.7340 C   0  0  0  0  0  0  0  0  0  0  0  0
  141.0931   73.5041  218.9263 H   0  0  0  0  0  0  0  0  0  0  0  0
  141.7279   75.1813  218.7080 H   0  0  0  0  0  0  0  0  0  0  0  0
  143.6977   75.9482  219.8035 H   0  0  0  0  0  0  0  0  0  0  0  0
  145.9434   75.3738  220.7002 H   0  0  0  0  0  0  0  0  0  0  0  0
  146.4670   73.0279  221.3515 H   0  0  0  0  0  0  0  0  0  0  0  0
  144.7488   71.2490  221.1104 H   0  0  0  0  0  0  0  0  0  0  0  0
  141.2435   77.0664  218.9761 H   0  0  0  0  0  0  0  0  0  0  0  0
  142.0571   79.3078  219.3780 H   0  0  0  0  0  0  0  0  0  0  0  0
  142.8813   81.0254  220.9813 H   0  0  0  0  0  0  0  0  0  0  0  0
  143.1485   81.8793  223.3086 H   0  0  0  0  0  0  0  0  0  0  0  0
  142.3315   80.5278  225.2399 H   0  0  0  0  0  0  0  0  0  0  0  0
  141.2224   78.3296  224.8481 H   0  0  0  0  0  0  0  0  0  0  0  0
  141.1000   76.3812  223.1656 H   0  0  0  0  0  0  0  0  0  0  0  0
  138.4733   75.2471  222.8308 H   0  0  0  0  0  0  0  0  0  0  0  0
  136.1350   76.3620  223.1080 H   0  0  0  0  0  0  0  0  0  0  0  0
  135.1725   78.9253  223.1559 H   0  0  0  0  0  0  0  0  0  0  0  0
  135.8851   81.3357  222.9745 H   0  0  0  0  0  0  0  0  0  0  0  0
  138.2969   81.9123  222.6298 H   0  0  0  0  0  0  0  0  0  0  0  0
  140.0276   80.0856  222.4737 H   0  0  0  0  0  0  0  0  0  0  0  0
  1  2  2  0
  2  3  2  0
  2  4  1  0
  4  5  1  0
  5  6  2  0
  6  7  1  0
  7  8  2  0
  8  9  1  0
  9 10  2  0
 10 11  1  0
 11 12  1  0
 11 13  1  0
 11 14  1  0
  2 15  1  0
 15 16  1  0
 16 17  2  0
 17 18  1  0
 18 19  2  0
 19 20  1  0
 20 21  2  0
 21 22  1  0
 22 23  2  0
 23 24  1  0
 24 25  1  0
 25 26  2  0
 26 27  1  0
 27 28  1  0
 28 29  2  0
 29 30  1  0
 30 31  2  0
 31 32  1  0
 32 33  2  0
 10  5  1  0
 24 15  1  0
 33 25  1  0
 23 18  1  0
 33 28  1  0
  4 34  1  0
  4 35  1  0
  6 36  1  0
  7 37  1  0
  8 38  1  0
  9 39  1  0
 16 40  1  0
 17 41  1  0
 19 42  1  0
 20 43  1  0
 21 44  1  0
 22 45  1  0
 24 46  1  1
 26 47  1  0
 27 48  1  0
 29 49  1  0
 30 50  1  0
 31 51  1  0
 32 52  1  0
M  END
>  <UniqueID>  (70) 
4

>  <SMILES>  (70) 
O=S(=O)(Cc1ccccc1C(F)(F)F)N1C=Cc2ccccc2[C@H]1c1c[nH]c2ccccc12

>  <Energy>  (70) 
90.73444200797094

>  <Genealogy>  (70) 
O=S(=O)(Cc1ccccc1C(F)(F)F)N1C=Cc2ccccc2[C@H]1c1c[nH]c2ccccc12 (3D coordinates assigned)
O=S(=O)(Cc1ccccc1C(F)(F)F)N1C=Cc2ccccc2[C@H]1c1c[nH]c2ccccc12 (nonaromatic ring conformer: 90.73444200797094 kcal/mol)

>  <smiles>  (70) 
O=S(=O)(Cc1ccccc1C(F)(F)F)N1C=Cc2ccccc2[C@H]1c1c[nH]c2ccccc12

>  <score_type>  (70) 
oracle

>  <origin>  (70) 
autodockgpu

>  <m_score__min__energy>  (70) 
-8.0899999999999999

>  <m_primary>  (70) 
energy

>  <meeko>  (70) 
{"free_energy": -8.09, "intermolecular_energy": -9.58, "internal_energy": -1.92, "cluster_size": 3, "cluster_id": 1, "rank_in_cluster": 1}

>  <energy>  (70) 
-6.68

>  <cluster_rmsd>  (70) 
0.02

>  <rmsd>  (70) 
269.61

>  <cluster>  (70) 
2

$$$$
CYEMMKKIRZZUDR-DEOSSOPVNA-N
     RDKit          3D

 52 56  0  0  0  0  0  0  0  0999 V2000
  137.6980   77.9330  219.7420 O   0  0  0  0  0  0  0  0  0  0  0  0
  137.8060   79.4180  219.9530 S   0  0  0  0  0  0  0  0  0  0  0  0
  136.4460   79.9570  220.2910 O   0  0  0  0  0  0  0  0  0  0  0  0
  138.4350   80.1770  218.4630 C   0  0  0  0  0  0  0  0  0  0  0  0
  139.9380   80.0420  218.3830 C   0  0  0  0  0  0  0  0  0  0  0  0
  140.4580   78.8550  217.8350 C   0  0  0  0  0  0  0  0  0  0  0  0
  141.8330   78.6670  217.7080 C   0  0  0  0  0  0  0  0  0  0  0  0
  142.7130   79.6590  218.1290 C   0  0  0  0  0  0  0  0  0  0  0  0
  142.2240   80.8450  218.6760 C   0  0  0  0  0  0  0  0  0  0  0  0
  140.8360   81.0660  218.8050 C   0  0  0  0  0  0  0  0  0  0  0  0
  140.3450   82.3560  219.4380 C   0  0  0  0  0  0  0  0  0  0  0  0
  141.2520   82.8040  220.3780 F   0  0  0  0  0  0  0  0  0  0  0  0
  140.1840   83.3190  218.4590 F   0  0  0  0  0  0  0  0  0  0  0  0
  139.1280   82.1840  220.0770 F   0  0  0  0  0  0  0  0  0  0  0  0
  138.8990   79.7500  221.2620 N   0  0  0  0  0  0  0  0  0  0  0  0
  138.4100   80.5080  222.3800 C   0  0  0  0  0  0  0  0  0  0  0  0
  139.2340   80.9230  223.3390 C   0  0  0  0  0  0  0  0  0  0  0  0
  140.6740   80.6340  223.2660 C   0  0  0  0  0  0  0  0  0  0  0  0
  141.5540   81.1970  224.2030 C   0  0  0  0  0  0  0  0  0  0  0  0
  142.9250   80.9470  224.1170 C   0  0  0  0  0  0  0  0  0  0  0  0
  143.4270   80.1360  223.0980 C   0  0  0  0  0  0  0  0  0  0  0  0
  142.5590   79.5660  222.1640 C   0  0  0  0  0  0  0  0  0  0  0  0
  141.1770   79.8110  222.2380 C   0  0  0  0  0  0  0  0  0  0  0  0
  140.2370   79.1350  221.2630 C   0  0  1  0  0  0  0  0  0  0  0  0
  140.1220   77.6730  221.6090 C   0  0  0  0  0  0  0  0  0  0  0  0
  139.2020   77.0960  222.4840 C   0  0  0  0  0  0  0  0  0  0  0  0
  139.4190   75.7660  222.5870 N   0  0  0  0  0  0  0  0  0  0  0  0
  140.4710   75.4970  221.7950 C   0  0  0  0  0  0  0  0  0  0  0  0
  141.0740   74.2580  221.5850 C   0  0  0  0  0  0  0  0  0  0  0  0
  142.1800   74.2030  220.7180 C   0  0  0  0  0  0  0  0  0  0  0  0
  142.6560   75.3740  220.0910 C   0  0  0  0  0  0  0  0  0  0  0  0
  142.0300   76.6130  220.3220 C   0  0  0  0  0  0  0  0  0  0  0  0
  140.9320   76.6360  221.1850 C   0  0  0  0  0  0  0  0  0  0  0  0
  137.9821   79.6854  217.5894 H   0  0  0  0  0  0  0  0  0  0  0  0
  138.1782   81.2465  218.4776 H   0  0  0  0  0  0  0  0  0  0  0  0
  139.7695   78.0643  217.5022 H   0  0  0  0  0  0  0  0  0  0  0  0
  142.2227   77.7340  217.2747 H   0  0  0  0  0  0  0  0  0  0  0  0
  143.7980   79.5073  218.0301 H   0  0  0  0  0  0  0  0  0  0  0  0
  142.9299   81.6190  219.0116 H   0  0  0  0  0  0  0  0  0  0  0  0
  137.3386   80.7489  222.4443 H   0  0  0  0  0  0  0  0  0  0  0  0
  138.8342   81.4875  224.1943 H   0  0  0  0  0  0  0  0  0  0  0  0
  141.1626   81.8370  225.0075 H   0  0  0  0  0  0  0  0  0  0  0  0
  143.6110   81.3902  224.8539 H   0  0  0  0  0  0  0  0  0  0  0  0
  144.5083   79.9454  223.0304 H   0  0  0  0  0  0  0  0  0  0  0  0
  142.9589   78.9223  221.3667 H   0  0  0  0  0  0  0  0  0  0  0  0
  140.6576   79.2576  220.2540 H   0  0  0  0  0  0  0  0  0  0  0  0
  138.4112   77.6458  223.0154 H   0  0  0  0  0  0  0  0  0  0  0  0
  138.8820   75.0890  223.1740 H   0  0  0  0  0  0  0  0  0  0  0  0
  140.6968   73.3519  222.0817 H   0  0  0  0  0  0  0  0  0  0  0  0
  142.6773   73.2405  220.5274 H   0  0  0  0  0  0  0  0  0  0  0  0
  143.5231   75.3180  219.4165 H   0  0  0  0  0  0  0  0  0  0  0  0
  142.3931   77.5323  219.8392 H   0  0  0  0  0  0  0  0  0  0  0  0
  1  2  2  0
  2  3  2  0
  2  4  1  0
  4  5  1  0
  5  6  2  0
  6  7  1  0
  7  8  2  0
  8  9  1  0
  9 10  2  0
 10 11  1  0
 11 12  1  0
 11 13  1  0
 11 14  1  0
  2 15  1  0
 15 16  1  0
 16 17  2  0
 17 18  1  0
 18 19  2  0
 19 20  1  0
 20 21  2  0
 21 22  1  0
 22 23  2  0
 23 24  1  0
 24 25  1  0
 25 26  2  0
 26 27  1  0
 27 28  1  0
 28 29  2  0
 29 30  1  0
 30 31  2  0
 31 32  1  0
 32 33  2  0
 10  5  1  0
 24 15  1  0
 33 25  1  0
 23 18  1  0
 33 28  1  0
  4 34  1  0
  4 35  1  0
  6 36  1  0
  7 37  1  0
  8 38  1  0
  9 39  1  0
 16 40  1  0
 17 41  1  0
 19 42  1  0
 20 43  1  0
 21 44  1  0
 22 45  1  0
 24 46  1  6
 26 47  1  0
 27 48  1  0
 29 49  1  0
 30 50  1  0
 31 51  1  0
 32 52  1  0
M  END
>  <UniqueID>  (71) 
4

>  <SMILES>  (71) 
O=S(=O)(Cc1ccccc1C(F)(F)F)N1C=Cc2ccccc2[C@H]1c1c[nH]c2ccccc12

>  <Energy>  (71) 
90.73444200797094

>  <Genealogy>  (71) 
O=S(=O)(Cc1ccccc1C(F)(F)F)N1C=Cc2ccccc2[C@H]1c1c[nH]c2ccccc12 (3D coordinates assigned)
O=S(=O)(Cc1ccccc1C(F)(F)F)N1C=Cc2ccccc2[C@H]1c1c[nH]c2ccccc12 (nonaromatic ring conformer: 90.73444200797094 kcal/mol)

>  <smiles>  (71) 
O=S(=O)(Cc1ccccc1C(F)(F)F)N1C=Cc2ccccc2[C@H]1c1c[nH]c2ccccc12

>  <score_type>  (71) 
oracle

>  <origin>  (71) 
autodockgpu

>  <m_score__min__energy>  (71) 
-8.0899999999999999

>  <m_primary>  (71) 
energy

>  <meeko>  (71) 
{"free_energy": -6.68, "intermolecular_energy": -8.17, "internal_energy": -3.31, "cluster_size": 17, "cluster_id": 2, "rank_in_cluster": 10}

>  <energy>  (71) 
-6.68

>  <cluster_rmsd>  (71) 
0.04

>  <rmsd>  (71) 
269.6

>  <cluster>  (71) 
2

$$$$
CYEMMKKIRZZUDR-DEOSSOPVNA-N
     RDKit          3D

 52 56  0  0  0  0  0  0  0  0999 V2000
  137.7490   77.9450  219.6740 O   0  0  0  0  0  0  0  0  0  0  0  0
  137.8460   79.4280  219.9020 S   0  0  0  0  0  0  0  0  0  0  0  0
  136.4790   79.9550  220.2330 O   0  0  0  0  0  0  0  0  0  0  0  0
  138.4840   80.2070  218.4260 C   0  0  0  0  0  0  0  0  0  0  0  0
  139.9800   80.0190  218.3220 C   0  0  0  0  0  0  0  0  0  0  0  0
  140.4490   78.8240  217.7470 C   0  0  0  0  0  0  0  0  0  0  0  0
  141.8140   78.5890  217.5970 C   0  0  0  0  0  0  0  0  0  0  0  0
  142.7360   79.5410  218.0210 C   0  0  0  0  0  0  0  0  0  0  0  0
  142.2970   80.7350  218.5940 C   0  0  0  0  0  0  0  0  0  0  0  0
  140.9200   81.0040  218.7470 C   0  0  0  0  0  0  0  0  0  0  0  0
  140.4850   82.3000  219.4080 C   0  0  0  0  0  0  0  0  0  0  0  0
  141.4150   82.6930  220.3500 F   0  0  0  0  0  0  0  0  0  0  0  0
  140.3570   83.2870  218.4490 F   0  0  0  0  0  0  0  0  0  0  0  0
  139.2660   82.1640  220.0520 F   0  0  0  0  0  0  0  0  0  0  0  0
  138.9240   79.7530  221.2240 N   0  0  0  0  0  0  0  0  0  0  0  0
  138.4210   80.5000  222.3440 C   0  0  0  0  0  0  0  0  0  0  0  0
  139.2340   80.9110  223.3140 C   0  0  0  0  0  0  0  0  0  0  0  0
  140.6750   80.6270  223.2540 C   0  0  0  0  0  0  0  0  0  0  0  0
  141.5430   81.1850  224.2040 C   0  0  0  0  0  0  0  0  0  0  0  0
  142.9160   80.9410  224.1310 C   0  0  0  0  0  0  0  0  0  0  0  0
  143.4320   80.1390  223.1100 C   0  0  0  0  0  0  0  0  0  0  0  0
  142.5750   79.5740  222.1630 C   0  0  0  0  0  0  0  0  0  0  0  0
  141.1910   79.8140  222.2250 C   0  0  0  0  0  0  0  0  0  0  0  0
  140.2640   79.1420  221.2350 C   0  0  1  0  0  0  0  0  0  0  0  0
  140.1500   77.6780  221.5680 C   0  0  0  0  0  0  0  0  0  0  0  0
  139.2210   77.0900  222.4260 C   0  0  0  0  0  0  0  0  0  0  0  0
  139.4420   75.7600  222.5210 N   0  0  0  0  0  0  0  0  0  0  0  0
  140.5060   75.5010  221.7410 C   0  0  0  0  0  0  0  0  0  0  0  0
  141.1160   74.2660  221.5290 C   0  0  0  0  0  0  0  0  0  0  0  0
  142.2340   74.2230  220.6770 C   0  0  0  0  0  0  0  0  0  0  0  0
  142.7140   75.4010  220.0660 C   0  0  0  0  0  0  0  0  0  0  0  0
  142.0800   76.6350  220.2980 C   0  0  0  0  0  0  0  0  0  0  0  0
  140.9700   76.6470  221.1460 C   0  0  0  0  0  0  0  0  0  0  0  0
  138.0023   79.7583  217.5447 H   0  0  0  0  0  0  0  0  0  0  0  0
  138.2672   81.2843  218.4748 H   0  0  0  0  0  0  0  0  0  0  0  0
  139.7279   78.0643  217.4110 H   0  0  0  0  0  0  0  0  0  0  0  0
  142.1632   77.6499  217.1429 H   0  0  0  0  0  0  0  0  0  0  0  0
  143.8133   79.3518  217.9042 H   0  0  0  0  0  0  0  0  0  0  0  0
  143.0350   81.4776  218.9315 H   0  0  0  0  0  0  0  0  0  0  0  0
  137.3480   80.7355  222.4002 H   0  0  0  0  0  0  0  0  0  0  0  0
  138.8238   81.4686  224.1689 H   0  0  0  0  0  0  0  0  0  0  0  0
  141.1408   81.8171  225.0094 H   0  0  0  0  0  0  0  0  0  0  0  0
  143.5924   81.3810  224.8786 H   0  0  0  0  0  0  0  0  0  0  0  0
  144.5145   79.9523  223.0519 H   0  0  0  0  0  0  0  0  0  0  0  0
  142.9848   78.9380  221.3645 H   0  0  0  0  0  0  0  0  0  0  0  0
  140.6954   79.2732  220.2317 H   0  0  0  0  0  0  0  0  0  0  0  0
  138.4211   77.6323  222.9514 H   0  0  0  0  0  0  0  0  0  0  0  0
  138.9000   75.0760  223.0950 H   0  0  0  0  0  0  0  0  0  0  0  0
  140.7353   73.3543  222.0125 H   0  0  0  0  0  0  0  0  0  0  0  0
  142.7380   73.2642  220.4855 H   0  0  0  0  0  0  0  0  0  0  0  0
  143.5907   75.3539  219.4032 H   0  0  0  0  0  0  0  0  0  0  0  0
  142.4460   77.5595  219.8275 H   0  0  0  0  0  0  0  0  0  0  0  0
  1  2  2  0
  2  3  2  0
  2  4  1  0
  4  5  1  0
  5  6  2  0
  6  7  1  0
  7  8  2  0
  8  9  1  0
  9 10  2  0
 10 11  1  0
 11 12  1  0
 11 13  1  0
 11 14  1  0
  2 15  1  0
 15 16  1  0
 16 17  2  0
 17 18  1  0
 18 19  2  0
 19 20  1  0
 20 21  2  0
 21 22  1  0
 22 23  2  0
 23 24  1  0
 24 25  1  0
 25 26  2  0
 26 27  1  0
 27 28  1  0
 28 29  2  0
 29 30  1  0
 30 31  2  0
 31 32  1  0
 32 33  2  0
 10  5  1  0
 24 15  1  0
 33 25  1  0
 23 18  1  0
 33 28  1  0
  4 34  1  0
  4 35  1  0
  6 36  1  0
  7 37  1  0
  8 38  1  0
  9 39  1  0
 16 40  1  0
 17 41  1  0
 19 42  1  0
 20 43  1  0
 21 44  1  0
 22 45  1  0
 24 46  1  6
 26 47  1  0
 27 48  1  0
 29 49  1  0
 30 50  1  0
 31 51  1  0
 32 52  1  0
M  END
>  <UniqueID>  (72) 
4

>  <SMILES>  (72) 
O=S(=O)(Cc1ccccc1C(F)(F)F)N1C=Cc2ccccc2[C@H]1c1c[nH]c2ccccc12

>  <Energy>  (72) 
90.73444200797094

>  <Genealogy>  (72) 
O=S(=O)(Cc1ccccc1C(F)(F)F)N1C=Cc2ccccc2[C@H]1c1c[nH]c2ccccc12 (3D coordinates assigned)
O=S(=O)(Cc1ccccc1C(F)(F)F)N1C=Cc2ccccc2[C@H]1c1c[nH]c2ccccc12 (nonaromatic ring conformer: 90.73444200797094 kcal/mol)

>  <smiles>  (72) 
O=S(=O)(Cc1ccccc1C(F)(F)F)N1C=Cc2ccccc2[C@H]1c1c[nH]c2ccccc12

>  <score_type>  (72) 
oracle

>  <origin>  (72) 
autodockgpu

>  <m_score__min__energy>  (72) 
-8.0899999999999999

>  <m_primary>  (72) 
energy

>  <meeko>  (72) 
{"free_energy": -6.68, "intermolecular_energy": -8.17, "internal_energy": -3.32, "cluster_size": 17, "cluster_id": 2, "rank_in_cluster": 8}

>  <energy>  (72) 
-6.68

>  <cluster_rmsd>  (72) 
0.03

>  <rmsd>  (72) 
269.62

>  <cluster>  (72) 
2

$$$$
CYEMMKKIRZZUDR-DEOSSOPVNA-N
     RDKit          3D

 52 56  0  0  0  0  0  0  0  0999 V2000
  140.7880   74.0740  221.9730 O   0  0  0  0  0  0  0  0  0  0  0  0
  140.5430   74.9230  220.7560 S   0  0  0  0  0  0  0  0  0  0  0  0
  139.0910   74.8210  220.3830 O   0  0  0  0  0  0  0  0  0  0  0  0
  141.5810   74.3470  219.4200 C   0  0  0  0  0  0  0  0  0  0  0  0
  142.9330   73.9130  219.9390 C   0  0  0  0  0  0  0  0  0  0  0  0
  143.9150   74.9050  220.1110 C   0  0  0  0  0  0  0  0  0  0  0  0
  145.1770   74.5850  220.6050 C   0  0  0  0  0  0  0  0  0  0  0  0
  145.4830   73.2680  220.9350 C   0  0  0  0  0  0  0  0  0  0  0  0
  144.5270   72.2650  220.7750 C   0  0  0  0  0  0  0  0  0  0  0  0
  143.2370   72.5630  220.2870 C   0  0  0  0  0  0  0  0  0  0  0  0
  142.2360   71.4380  220.0940 C   0  0  0  0  0  0  0  0  0  0  0  0
  141.5500   71.6050  218.9070 F   0  0  0  0  0  0  0  0  0  0  0  0
  142.9020   70.2270  220.0730 F   0  0  0  0  0  0  0  0  0  0  0  0
  141.3030   71.3990  221.1160 F   0  0  0  0  0  0  0  0  0  0  0  0
  140.9340   76.5790  221.1030 N   0  0  0  0  0  0  0  0  0  0  0  0
  141.3410   77.4230  220.0130 C   0  0  0  0  0  0  0  0  0  0  0  0
  141.7980   78.6540  220.2340 C   0  0  0  0  0  0  0  0  0  0  0  0
  141.9170   79.1740  221.6040 C   0  0  0  0  0  0  0  0  0  0  0  0
  142.5320   80.4130  221.8360 C   0  0  0  0  0  0  0  0  0  0  0  0
  142.6720   80.8950  223.1400 C   0  0  0  0  0  0  0  0  0  0  0  0
  142.2010   80.1440  224.2180 C   0  0  0  0  0  0  0  0  0  0  0  0
  141.5820   78.9120  223.9970 C   0  0  0  0  0  0  0  0  0  0  0  0
  141.4360   78.4150  222.6900 C   0  0  0  0  0  0  0  0  0  0  0  0
  140.7040   77.1110  222.4560 C   0  0  1  0  0  0  0  0  0  0  0  0
  139.2280   77.3190  222.6740 C   0  0  0  0  0  0  0  0  0  0  0  0
  138.2610   76.3240  222.8180 C   0  0  0  0  0  0  0  0  0  0  0  0
  137.0340   76.8740  222.9540 N   0  0  0  0  0  0  0  0  0  0  0  0
  137.2130   78.2050  222.8880 C   0  0  0  0  0  0  0  0  0  0  0  0
  136.2320   79.1930  222.9660 C   0  0  0  0  0  0  0  0  0  0  0  0
  136.6400   80.5350  222.8600 C   0  0  0  0  0  0  0  0  0  0  0  0
  138.0020   80.8560  222.6770 C   0  0  0  0  0  0  0  0  0  0  0  0
  138.9710   79.8390  222.6010 C   0  0  0  0  0  0  0  0  0  0  0  0
  138.5370   78.5160  222.7130 C   0  0  0  0  0  0  0  0  0  0  0  0
  141.0932   73.4934  218.9266 H   0  0  0  0  0  0  0  0  0  0  0  0
  141.7256   75.1709  218.7056 H   0  0  0  0  0  0  0  0  0  0  0  0
  143.6828   75.9485  219.8516 H   0  0  0  0  0  0  0  0  0  0  0  0
  145.9327   75.3738  220.7345 H   0  0  0  0  0  0  0  0  0  0  0  0
  146.4813   73.0174  221.3230 H   0  0  0  0  0  0  0  0  0  0  0  0
  144.7824   71.2266  221.0330 H   0  0  0  0  0  0  0  0  0  0  0  0
  141.2740   77.0466  218.9816 H   0  0  0  0  0  0  0  0  0  0  0  0
  142.0893   79.2879  219.3835 H   0  0  0  0  0  0  0  0  0  0  0  0
  142.9052   81.0071  220.9888 H   0  0  0  0  0  0  0  0  0  0  0  0
  143.1541   81.8677  223.3172 H   0  0  0  0  0  0  0  0  0  0  0  0
  142.3177   80.5234  225.2439 H   0  0  0  0  0  0  0  0  0  0  0  0
  141.2067   78.3274  224.8498 H   0  0  0  0  0  0  0  0  0  0  0  0
  141.0966   76.3739  223.1720 H   0  0  0  0  0  0  0  0  0  0  0  0
  138.4680   75.2437  222.8205 H   0  0  0  0  0  0  0  0  0  0  0  0
  136.1300   76.3650  223.0750 H   0  0  0  0  0  0  0  0  0  0  0  0
  135.1728   78.9312  223.1060 H   0  0  0  0  0  0  0  0  0  0  0  0
  135.8924   81.3397  222.9202 H   0  0  0  0  0  0  0  0  0  0  0  0
  138.3082   81.9092  222.5932 H   0  0  0  0  0  0  0  0  0  0  0  0
  140.0352   80.0777  222.4581 H   0  0  0  0  0  0  0  0  0  0  0  0
  1  2  2  0
  2  3  2  0
  2  4  1  0
  4  5  1  0
  5  6  2  0
  6  7  1  0
  7  8  2  0
  8  9  1  0
  9 10  2  0
 10 11  1  0
 11 12  1  0
 11 13  1  0
 11 14  1  0
  2 15  1  0
 15 16  1  0
 16 17  2  0
 17 18  1  0
 18 19  2  0
 19 20  1  0
 20 21  2  0
 21 22  1  0
 22 23  2  0
 23 24  1  0
 24 25  1  0
 25 26  2  0
 26 27  1  0
 27 28  1  0
 28 29  2  0
 29 30  1  0
 30 31  2  0
 31 32  1  0
 32 33  2  0
 10  5  1  0
 24 15  1  0
 33 25  1  0
 23 18  1  0
 33 28  1  0
  4 34  1  0
  4 35  1  0
  6 36  1  0
  7 37  1  0
  8 38  1  0
  9 39  1  0
 16 40  1  0
 17 41  1  0
 19 42  1  0
 20 43  1  0
 21 44  1  0
 22 45  1  0
 24 46  1  1
 26 47  1  0
 27 48  1  0
 29 49  1  0
 30 50  1  0
 31 51  1  0
 32 52  1  0
M  END
>  <UniqueID>  (73) 
4

>  <SMILES>  (73) 
O=S(=O)(Cc1ccccc1C(F)(F)F)N1C=Cc2ccccc2[C@H]1c1c[nH]c2ccccc12

>  <Energy>  (73) 
90.73444200797094

>  <Genealogy>  (73) 
O=S(=O)(Cc1ccccc1C(F)(F)F)N1C=Cc2ccccc2[C@H]1c1c[nH]c2ccccc12 (3D coordinates assigned)
O=S(=O)(Cc1ccccc1C(F)(F)F)N1C=Cc2ccccc2[C@H]1c1c[nH]c2ccccc12 (nonaromatic ring conformer: 90.73444200797094 kcal/mol)

>  <smiles>  (73) 
O=S(=O)(Cc1ccccc1C(F)(F)F)N1C=Cc2ccccc2[C@H]1c1c[nH]c2ccccc12

>  <score_type>  (73) 
oracle

>  <origin>  (73) 
autodockgpu

>  <m_score__min__energy>  (73) 
-8.0899999999999999

>  <m_primary>  (73) 
energy

>  <meeko>  (73) 
{"free_energy": -8.08, "intermolecular_energy": -9.57, "internal_energy": -1.92, "cluster_size": 3, "cluster_id": 1, "rank_in_cluster": 2}

>  <energy>  (73) 
-6.68

>  <cluster_rmsd>  (73) 
0.06

>  <rmsd>  (73) 
269.62

>  <cluster>  (73) 
2

$$$$
CYEMMKKIRZZUDR-DEOSSOPVNA-N
     RDKit          3D

 52 56  0  0  0  0  0  0  0  0999 V2000
  137.6870   77.9360  219.7390 O   0  0  0  0  0  0  0  0  0  0  0  0
  137.7890   79.4190  219.9630 S   0  0  0  0  0  0  0  0  0  0  0  0
  136.4270   79.9490  220.3110 O   0  0  0  0  0  0  0  0  0  0  0  0
  138.4090   80.1950  218.4770 C   0  0  0  0  0  0  0  0  0  0  0  0
  139.9120   80.0700  218.3920 C   0  0  0  0  0  0  0  0  0  0  0  0
  140.4380   78.8930  217.8300 C   0  0  0  0  0  0  0  0  0  0  0  0
  141.8140   78.7150  217.6980 C   0  0  0  0  0  0  0  0  0  0  0  0
  142.6890   79.7090  218.1270 C   0  0  0  0  0  0  0  0  0  0  0  0
  142.1930   80.8850  218.6870 C   0  0  0  0  0  0  0  0  0  0  0  0
  140.8040   81.0960  218.8220 C   0  0  0  0  0  0  0  0  0  0  0  0
  140.3070   82.3760  219.4700 C   0  0  0  0  0  0  0  0  0  0  0  0
  141.1980   82.8030  220.4360 F   0  0  0  0  0  0  0  0  0  0  0  0
  140.1680   83.3580  218.5070 F   0  0  0  0  0  0  0  0  0  0  0  0
  139.0780   82.1970  220.0830 F   0  0  0  0  0  0  0  0  0  0  0  0
  138.8850   79.7450  221.2710 N   0  0  0  0  0  0  0  0  0  0  0  0
  138.3970   80.4950  222.3950 C   0  0  0  0  0  0  0  0  0  0  0  0
  139.2230   80.9050  223.3550 C   0  0  0  0  0  0  0  0  0  0  0  0
  140.6640   80.6200  223.2760 C   0  0  0  0  0  0  0  0  0  0  0  0
  141.5450   81.1790  224.2130 C   0  0  0  0  0  0  0  0  0  0  0  0
  142.9170   80.9330  224.1220 C   0  0  0  0  0  0  0  0  0  0  0  0
  143.4170   80.1300  223.0960 C   0  0  0  0  0  0  0  0  0  0  0  0
  142.5470   79.5650  222.1610 C   0  0  0  0  0  0  0  0  0  0  0  0
  141.1650   79.8050  222.2410 C   0  0  0  0  0  0  0  0  0  0  0  0
  140.2240   79.1330  221.2640 C   0  0  1  0  0  0  0  0  0  0  0  0
  140.1140   77.6690  221.6010 C   0  0  0  0  0  0  0  0  0  0  0  0
  139.1890   77.0820  222.4640 C   0  0  0  0  0  0  0  0  0  0  0  0
  139.4120   75.7530  222.5610 N   0  0  0  0  0  0  0  0  0  0  0  0
  140.4730   75.4940  221.7770 C   0  0  0  0  0  0  0  0  0  0  0  0
  141.0840   74.2590  221.5660 C   0  0  0  0  0  0  0  0  0  0  0  0
  142.1980   74.2150  220.7090 C   0  0  0  0  0  0  0  0  0  0  0  0
  142.6740   75.3920  220.0930 C   0  0  0  0  0  0  0  0  0  0  0  0
  142.0390   76.6260  220.3250 C   0  0  0  0  0  0  0  0  0  0  0  0
  140.9330   76.6390  221.1780 C   0  0  0  0  0  0  0  0  0  0  0  0
  137.9567   79.7080  217.6005 H   0  0  0  0  0  0  0  0  0  0  0  0
  138.1454   81.2627  218.5012 H   0  0  0  0  0  0  0  0  0  0  0  0
  139.7538   78.1017  217.4898 H   0  0  0  0  0  0  0  0  0  0  0  0
  142.2086   77.7888  217.2547 H   0  0  0  0  0  0  0  0  0  0  0  0
  143.7748   79.5660  218.0238 H   0  0  0  0  0  0  0  0  0  0  0  0
  142.8945   81.6602  219.0288 H   0  0  0  0  0  0  0  0  0  0  0  0
  137.3254   80.7339  222.4633 H   0  0  0  0  0  0  0  0  0  0  0  0
  138.8243   81.4622  224.2155 H   0  0  0  0  0  0  0  0  0  0  0  0
  141.1543   81.8133  225.0223 H   0  0  0  0  0  0  0  0  0  0  0  0
  143.6041   81.3727  224.8599 H   0  0  0  0  0  0  0  0  0  0  0  0
  144.4984   79.9417  223.0236 H   0  0  0  0  0  0  0  0  0  0  0  0
  142.9460   78.9285  221.3574 H   0  0  0  0  0  0  0  0  0  0  0  0
  140.6410   79.2628  220.2544 H   0  0  0  0  0  0  0  0  0  0  0  0
  138.3905   77.6245  222.9913 H   0  0  0  0  0  0  0  0  0  0  0  0
  138.8730   75.0690  223.1390 H   0  0  0  0  0  0  0  0  0  0  0  0
  140.7069   73.3482  222.0541 H   0  0  0  0  0  0  0  0  0  0  0  0
  142.7020   73.2562  220.5174 H   0  0  0  0  0  0  0  0  0  0  0  0
  143.5479   75.3444  219.4266 H   0  0  0  0  0  0  0  0  0  0  0  0
  142.4015   77.5498  219.8504 H   0  0  0  0  0  0  0  0  0  0  0  0
  1  2  2  0
  2  3  2  0
  2  4  1  0
  4  5  1  0
  5  6  2  0
  6  7  1  0
  7  8  2  0
  8  9  1  0
  9 10  2  0
 10 11  1  0
 11 12  1  0
 11 13  1  0
 11 14  1  0
  2 15  1  0
 15 16  1  0
 16 17  2  0
 17 18  1  0
 18 19  2  0
 19 20  1  0
 20 21  2  0
 21 22  1  0
 22 23  2  0
 23 24  1  0
 24 25  1  0
 25 26  2  0
 26 27  1  0
 27 28  1  0
 28 29  2  0
 29 30  1  0
 30 31  2  0
 31 32  1  0
 32 33  2  0
 10  5  1  0
 24 15  1  0
 33 25  1  0
 23 18  1  0
 33 28  1  0
  4 34  1  0
  4 35  1  0
  6 36  1  0
  7 37  1  0
  8 38  1  0
  9 39  1  0
 16 40  1  0
 17 41  1  0
 19 42  1  0
 20 43  1  0
 21 44  1  0
 22 45  1  0
 24 46  1  6
 26 47  1  0
 27 48  1  0
 29 49  1  0
 30 50  1  0
 31 51  1  0
 32 52  1  0
M  END
>  <UniqueID>  (74) 
4

>  <SMILES>  (74) 
O=S(=O)(Cc1ccccc1C(F)(F)F)N1C=Cc2ccccc2[C@H]1c1c[nH]c2ccccc12

>  <Energy>  (74) 
90.73444200797094

>  <Genealogy>  (74) 
O=S(=O)(Cc1ccccc1C(F)(F)F)N1C=Cc2ccccc2[C@H]1c1c[nH]c2ccccc12 (3D coordinates assigned)
O=S(=O)(Cc1ccccc1C(F)(F)F)N1C=Cc2ccccc2[C@H]1c1c[nH]c2ccccc12 (nonaromatic ring conformer: 90.73444200797094 kcal/mol)

>  <smiles>  (74) 
O=S(=O)(Cc1ccccc1C(F)(F)F)N1C=Cc2ccccc2[C@H]1c1c[nH]c2ccccc12

>  <score_type>  (74) 
oracle

>  <origin>  (74) 
autodockgpu

>  <m_score__min__energy>  (74) 
-8.0899999999999999

>  <m_primary>  (74) 
energy

>  <meeko>  (74) 
{"free_energy": -6.68, "intermolecular_energy": -8.17, "internal_energy": -3.31, "cluster_size": 17, "cluster_id": 2, "rank_in_cluster": 6}

>  <energy>  (74) 
-6.68

>  <cluster_rmsd>  (74) 
0.05

>  <rmsd>  (74) 
269.62

>  <cluster>  (74) 
2

$$$$
CYEMMKKIRZZUDR-DEOSSOPVNA-N
     RDKit          3D

 52 56  0  0  0  0  0  0  0  0999 V2000
  137.6730   77.9570  219.7630 O   0  0  0  0  0  0  0  0  0  0  0  0
  137.7960   79.4400  219.9740 S   0  0  0  0  0  0  0  0  0  0  0  0
  136.4420   79.9920  220.3190 O   0  0  0  0  0  0  0  0  0  0  0  0
  138.4240   80.1940  218.4800 C   0  0  0  0  0  0  0  0  0  0  0  0
  139.9260   80.0540  218.3970 C   0  0  0  0  0  0  0  0  0  0  0  0
  140.4400   78.8660  217.8460 C   0  0  0  0  0  0  0  0  0  0  0  0
  141.8140   78.6730  217.7160 C   0  0  0  0  0  0  0  0  0  0  0  0
  142.6990   79.6610  218.1360 C   0  0  0  0  0  0  0  0  0  0  0  0
  142.2150   80.8480  218.6850 C   0  0  0  0  0  0  0  0  0  0  0  0
  140.8280   81.0750  218.8170 C   0  0  0  0  0  0  0  0  0  0  0  0
  140.3430   82.3660  219.4520 C   0  0  0  0  0  0  0  0  0  0  0  0
  141.2510   82.8070  220.3950 F   0  0  0  0  0  0  0  0  0  0  0  0
  140.1890   83.3310  218.4760 F   0  0  0  0  0  0  0  0  0  0  0  0
  139.1250   82.1990  220.0890 F   0  0  0  0  0  0  0  0  0  0  0  0
  138.8990   79.7620  221.2760 N   0  0  0  0  0  0  0  0  0  0  0  0
  138.4180   80.5130  222.4030 C   0  0  0  0  0  0  0  0  0  0  0  0
  139.2500   80.9210  223.3590 C   0  0  0  0  0  0  0  0  0  0  0  0
  140.6890   80.6310  223.2740 C   0  0  0  0  0  0  0  0  0  0  0  0
  141.5760   81.1880  224.2080 C   0  0  0  0  0  0  0  0  0  0  0  0
  142.9470   80.9370  224.1110 C   0  0  0  0  0  0  0  0  0  0  0  0
  143.4400   80.1320  223.0820 C   0  0  0  0  0  0  0  0  0  0  0  0
  142.5640   79.5700  222.1510 C   0  0  0  0  0  0  0  0  0  0  0  0
  141.1830   79.8150  222.2370 C   0  0  0  0  0  0  0  0  0  0  0  0
  140.2360   79.1460  221.2640 C   0  0  1  0  0  0  0  0  0  0  0  0
  140.1220   77.6830  221.6010 C   0  0  0  0  0  0  0  0  0  0  0  0
  139.2000   77.0990  222.4680 C   0  0  0  0  0  0  0  0  0  0  0  0
  139.4190   75.7680  222.5650 N   0  0  0  0  0  0  0  0  0  0  0  0
  140.4750   75.5060  221.7750 C   0  0  0  0  0  0  0  0  0  0  0  0
  141.0800   74.2690  221.5600 C   0  0  0  0  0  0  0  0  0  0  0  0
  142.1900   74.2220  220.6970 C   0  0  0  0  0  0  0  0  0  0  0  0
  142.6670   75.3980  220.0790 C   0  0  0  0  0  0  0  0  0  0  0  0
  142.0370   76.6330  220.3150 C   0  0  0  0  0  0  0  0  0  0  0  0
  140.9360   76.6490  221.1730 C   0  0  0  0  0  0  0  0  0  0  0  0
  137.9675   79.7018  217.6086 H   0  0  0  0  0  0  0  0  0  0  0  0
  138.1705   81.2643  218.4926 H   0  0  0  0  0  0  0  0  0  0  0  0
  139.7478   78.0786  217.5132 H   0  0  0  0  0  0  0  0  0  0  0  0
  142.1991   77.7389  217.2811 H   0  0  0  0  0  0  0  0  0  0  0  0
  143.7832   79.5054  218.0347 H   0  0  0  0  0  0  0  0  0  0  0  0
  142.9245   81.6189  219.0202 H   0  0  0  0  0  0  0  0  0  0  0  0
  137.3473   80.7541  222.4768 H   0  0  0  0  0  0  0  0  0  0  0  0
  138.8571   81.4804  224.2208 H   0  0  0  0  0  0  0  0  0  0  0  0
  141.1908   81.8240  225.0187 H   0  0  0  0  0  0  0  0  0  0  0  0
  143.6389   81.3740  224.8461 H   0  0  0  0  0  0  0  0  0  0  0  0
  144.5204   79.9402  223.0046 H   0  0  0  0  0  0  0  0  0  0  0  0
  142.9572   78.9320  221.3458 H   0  0  0  0  0  0  0  0  0  0  0  0
  140.6500   79.2746  220.2530 H   0  0  0  0  0  0  0  0  0  0  0  0
  138.4057   77.6442  222.9988 H   0  0  0  0  0  0  0  0  0  0  0  0
  138.8810   75.0860  223.1450 H   0  0  0  0  0  0  0  0  0  0  0  0
  140.7019   73.3592  222.0491 H   0  0  0  0  0  0  0  0  0  0  0  0
  142.6899   73.2617  220.5024 H   0  0  0  0  0  0  0  0  0  0  0  0
  143.5374   75.3481  219.4082 H   0  0  0  0  0  0  0  0  0  0  0  0
  142.3999   77.5560  219.8392 H   0  0  0  0  0  0  0  0  0  0  0  0
  1  2  2  0
  2  3  2  0
  2  4  1  0
  4  5  1  0
  5  6  2  0
  6  7  1  0
  7  8  2  0
  8  9  1  0
  9 10  2  0
 10 11  1  0
 11 12  1  0
 11 13  1  0
 11 14  1  0
  2 15  1  0
 15 16  1  0
 16 17  2  0
 17 18  1  0
 18 19  2  0
 19 20  1  0
 20 21  2  0
 21 22  1  0
 22 23  2  0
 23 24  1  0
 24 25  1  0
 25 26  2  0
 26 27  1  0
 27 28  1  0
 28 29  2  0
 29 30  1  0
 30 31  2  0
 31 32  1  0
 32 33  2  0
 10  5  1  0
 24 15  1  0
 33 25  1  0
 23 18  1  0
 33 28  1  0
  4 34  1  0
  4 35  1  0
  6 36  1  0
  7 37  1  0
  8 38  1  0
  9 39  1  0
 16 40  1  0
 17 41  1  0
 19 42  1  0
 20 43  1  0
 21 44  1  0
 22 45  1  0
 24 46  1  6
 26 47  1  0
 27 48  1  0
 29 49  1  0
 30 50  1  0
 31 51  1  0
 32 52  1  0
M  END
>  <UniqueID>  (75) 
4

>  <SMILES>  (75) 
O=S(=O)(Cc1ccccc1C(F)(F)F)N1C=Cc2ccccc2[C@H]1c1c[nH]c2ccccc12

>  <Energy>  (75) 
90.73444200797094

>  <Genealogy>  (75) 
O=S(=O)(Cc1ccccc1C(F)(F)F)N1C=Cc2ccccc2[C@H]1c1c[nH]c2ccccc12 (3D coordinates assigned)
O=S(=O)(Cc1ccccc1C(F)(F)F)N1C=Cc2ccccc2[C@H]1c1c[nH]c2ccccc12 (nonaromatic ring conformer: 90.73444200797094 kcal/mol)

>  <smiles>  (75) 
O=S(=O)(Cc1ccccc1C(F)(F)F)N1C=Cc2ccccc2[C@H]1c1c[nH]c2ccccc12

>  <score_type>  (75) 
oracle

>  <origin>  (75) 
autodockgpu

>  <m_score__min__energy>  (75) 
-8.0899999999999999

>  <m_primary>  (75) 
energy

>  <meeko>  (75) 
{"free_energy": -6.69, "intermolecular_energy": -8.18, "internal_energy": -3.3, "cluster_size": 17, "cluster_id": 2, "rank_in_cluster": 2}

>  <energy>  (75) 
-6.68

>  <cluster_rmsd>  (75) 
0.06

>  <rmsd>  (75) 
269.61

>  <cluster>  (75) 
2

$$$$
CYEMMKKIRZZUDR-DEOSSOPVNA-N
     RDKit          3D

 52 56  0  0  0  0  0  0  0  0999 V2000
  137.7010   77.9500  219.7140 O   0  0  0  0  0  0  0  0  0  0  0  0
  137.8190   79.4330  219.9290 S   0  0  0  0  0  0  0  0  0  0  0  0
  136.4620   79.9810  220.2660 O   0  0  0  0  0  0  0  0  0  0  0  0
  138.4570   80.1920  218.4420 C   0  0  0  0  0  0  0  0  0  0  0  0
  139.9530   80.0020  218.3400 C   0  0  0  0  0  0  0  0  0  0  0  0
  140.4200   78.8010  217.7770 C   0  0  0  0  0  0  0  0  0  0  0  0
  141.7850   78.5640  217.6290 C   0  0  0  0  0  0  0  0  0  0  0  0
  142.7080   79.5200  218.0430 C   0  0  0  0  0  0  0  0  0  0  0  0
  142.2700   80.7190  218.6050 C   0  0  0  0  0  0  0  0  0  0  0  0
  140.8930   80.9910  218.7550 C   0  0  0  0  0  0  0  0  0  0  0  0
  140.4590   82.2930  219.4030 C   0  0  0  0  0  0  0  0  0  0  0  0
  141.3970   82.7040  220.3290 F   0  0  0  0  0  0  0  0  0  0  0  0
  140.3150   83.2660  218.4320 F   0  0  0  0  0  0  0  0  0  0  0  0
  139.2480   82.1600  220.0630 F   0  0  0  0  0  0  0  0  0  0  0  0
  138.9120   79.7540  221.2410 N   0  0  0  0  0  0  0  0  0  0  0  0
  138.4220   80.5030  222.3650 C   0  0  0  0  0  0  0  0  0  0  0  0
  139.2450   80.9100  223.3280 C   0  0  0  0  0  0  0  0  0  0  0  0
  140.6850   80.6210  223.2540 C   0  0  0  0  0  0  0  0  0  0  0  0
  141.5640   81.1760  224.1960 C   0  0  0  0  0  0  0  0  0  0  0  0
  142.9360   80.9260  224.1090 C   0  0  0  0  0  0  0  0  0  0  0  0
  143.4380   80.1230  223.0840 C   0  0  0  0  0  0  0  0  0  0  0  0
  142.5700   79.5610  222.1450 C   0  0  0  0  0  0  0  0  0  0  0  0
  141.1880   79.8060  222.2200 C   0  0  0  0  0  0  0  0  0  0  0  0
  140.2490   79.1380  221.2390 C   0  0  1  0  0  0  0  0  0  0  0  0
  140.1330   77.6740  221.5730 C   0  0  0  0  0  0  0  0  0  0  0  0
  139.2080   77.0890  222.4380 C   0  0  0  0  0  0  0  0  0  0  0  0
  139.4260   75.7590  222.5320 N   0  0  0  0  0  0  0  0  0  0  0  0
  140.4820   75.4970  221.7440 C   0  0  0  0  0  0  0  0  0  0  0  0
  141.0870   74.2590  221.5280 C   0  0  0  0  0  0  0  0  0  0  0  0
  142.1990   74.2120  220.6670 C   0  0  0  0  0  0  0  0  0  0  0  0
  142.6780   75.3880  220.0520 C   0  0  0  0  0  0  0  0  0  0  0  0
  142.0490   76.6240  220.2890 C   0  0  0  0  0  0  0  0  0  0  0  0
  140.9460   76.6400  221.1450 C   0  0  0  0  0  0  0  0  0  0  0  0
  137.9748   79.7317  217.5670 H   0  0  0  0  0  0  0  0  0  0  0  0
  138.2407   81.2700  218.4764 H   0  0  0  0  0  0  0  0  0  0  0  0
  139.6981   78.0386  217.4491 H   0  0  0  0  0  0  0  0  0  0  0  0
  142.1336   77.6202  217.1844 H   0  0  0  0  0  0  0  0  0  0  0  0
  143.7851   79.3295  217.9267 H   0  0  0  0  0  0  0  0  0  0  0  0
  143.0086   81.4638  218.9363 H   0  0  0  0  0  0  0  0  0  0  0  0
  137.3506   80.7435  222.4303 H   0  0  0  0  0  0  0  0  0  0  0  0
  138.8446   81.4678  224.1874 H   0  0  0  0  0  0  0  0  0  0  0  0
  141.1721   81.8097  225.0053 H   0  0  0  0  0  0  0  0  0  0  0  0
  143.6217   81.3630  224.8499 H   0  0  0  0  0  0  0  0  0  0  0  0
  144.5192   79.9323  223.0154 H   0  0  0  0  0  0  0  0  0  0  0  0
  142.9700   78.9235  221.3428 H   0  0  0  0  0  0  0  0  0  0  0  0
  140.6708   79.2677  220.2314 H   0  0  0  0  0  0  0  0  0  0  0  0
  138.4132   77.6337  222.9687 H   0  0  0  0  0  0  0  0  0  0  0  0
  138.8850   75.0770  223.1100 H   0  0  0  0  0  0  0  0  0  0  0  0
  140.7071   73.3488  222.0150 H   0  0  0  0  0  0  0  0  0  0  0  0
  142.6984   73.2515  220.4720 H   0  0  0  0  0  0  0  0  0  0  0  0
  143.5494   75.3382  219.3825 H   0  0  0  0  0  0  0  0  0  0  0  0
  142.4141   77.5473  219.8155 H   0  0  0  0  0  0  0  0  0  0  0  0
  1  2  2  0
  2  3  2  0
  2  4  1  0
  4  5  1  0
  5  6  2  0
  6  7  1  0
  7  8  2  0
  8  9  1  0
  9 10  2  0
 10 11  1  0
 11 12  1  0
 11 13  1  0
 11 14  1  0
  2 15  1  0
 15 16  1  0
 16 17  2  0
 17 18  1  0
 18 19  2  0
 19 20  1  0
 20 21  2  0
 21 22  1  0
 22 23  2  0
 23 24  1  0
 24 25  1  0
 25 26  2  0
 26 27  1  0
 27 28  1  0
 28 29  2  0
 29 30  1  0
 30 31  2  0
 31 32  1  0
 32 33  2  0
 10  5  1  0
 24 15  1  0
 33 25  1  0
 23 18  1  0
 33 28  1  0
  4 34  1  0
  4 35  1  0
  6 36  1  0
  7 37  1  0
  8 38  1  0
  9 39  1  0
 16 40  1  0
 17 41  1  0
 19 42  1  0
 20 43  1  0
 21 44  1  0
 22 45  1  0
 24 46  1  6
 26 47  1  0
 27 48  1  0
 29 49  1  0
 30 50  1  0
 31 51  1  0
 32 52  1  0
M  END
>  <UniqueID>  (76) 
4

>  <SMILES>  (76) 
O=S(=O)(Cc1ccccc1C(F)(F)F)N1C=Cc2ccccc2[C@H]1c1c[nH]c2ccccc12

>  <Energy>  (76) 
90.73444200797094

>  <Genealogy>  (76) 
O=S(=O)(Cc1ccccc1C(F)(F)F)N1C=Cc2ccccc2[C@H]1c1c[nH]c2ccccc12 (3D coordinates assigned)
O=S(=O)(Cc1ccccc1C(F)(F)F)N1C=Cc2ccccc2[C@H]1c1c[nH]c2ccccc12 (nonaromatic ring conformer: 90.73444200797094 kcal/mol)

>  <smiles>  (76) 
O=S(=O)(Cc1ccccc1C(F)(F)F)N1C=Cc2ccccc2[C@H]1c1c[nH]c2ccccc12

>  <score_type>  (76) 
oracle

>  <origin>  (76) 
autodockgpu

>  <m_score__min__energy>  (76) 
-8.0899999999999999

>  <m_primary>  (76) 
energy

>  <meeko>  (76) 
{"free_energy": -6.67, "intermolecular_energy": -8.17, "internal_energy": -3.31, "cluster_size": 17, "cluster_id": 2, "rank_in_cluster": 13}

>  <energy>  (76) 
-6.67

>  <cluster_rmsd>  (76) 
0.04

>  <rmsd>  (76) 
269.59

>  <cluster>  (76) 
2

$$$$
CYEMMKKIRZZUDR-DEOSSOPVNA-N
     RDKit          3D

 52 56  0  0  0  0  0  0  0  0999 V2000
  137.7220   78.0080  219.7020 O   0  0  0  0  0  0  0  0  0  0  0  0
  137.8260   79.4910  219.9310 S   0  0  0  0  0  0  0  0  0  0  0  0
  136.4630   80.0230  220.2710 O   0  0  0  0  0  0  0  0  0  0  0  0
  138.4570   80.2690  218.4510 C   0  0  0  0  0  0  0  0  0  0  0  0
  139.9530   80.0820  218.3420 C   0  0  0  0  0  0  0  0  0  0  0  0
  140.4210   78.8880  217.7630 C   0  0  0  0  0  0  0  0  0  0  0  0
  141.7850   78.6540  217.6080 C   0  0  0  0  0  0  0  0  0  0  0  0
  142.7080   79.6070  218.0300 C   0  0  0  0  0  0  0  0  0  0  0  0
  142.2700   80.7990  218.6070 C   0  0  0  0  0  0  0  0  0  0  0  0
  140.8940   81.0670  218.7650 C   0  0  0  0  0  0  0  0  0  0  0  0
  140.4600   82.3610  219.4300 C   0  0  0  0  0  0  0  0  0  0  0  0
  141.3840   82.7440  220.3820 F   0  0  0  0  0  0  0  0  0  0  0  0
  140.3450   83.3540  218.4750 F   0  0  0  0  0  0  0  0  0  0  0  0
  139.2350   82.2280  220.0630 F   0  0  0  0  0  0  0  0  0  0  0  0
  138.9140   79.8100  221.2470 N   0  0  0  0  0  0  0  0  0  0  0  0
  138.4210   80.5610  222.3690 C   0  0  0  0  0  0  0  0  0  0  0  0
  139.2410   80.9670  223.3350 C   0  0  0  0  0  0  0  0  0  0  0  0
  140.6810   80.6760  223.2660 C   0  0  0  0  0  0  0  0  0  0  0  0
  141.5580   81.2300  224.2100 C   0  0  0  0  0  0  0  0  0  0  0  0
  142.9290   80.9790  224.1290 C   0  0  0  0  0  0  0  0  0  0  0  0
  143.4340   80.1750  223.1050 C   0  0  0  0  0  0  0  0  0  0  0  0
  142.5690   79.6140  222.1630 C   0  0  0  0  0  0  0  0  0  0  0  0
  141.1870   79.8600  222.2340 C   0  0  0  0  0  0  0  0  0  0  0  0
  140.2500   79.1930  221.2490 C   0  0  1  0  0  0  0  0  0  0  0  0
  140.1310   77.7290  221.5830 C   0  0  0  0  0  0  0  0  0  0  0  0
  139.2000   77.1450  222.4400 C   0  0  0  0  0  0  0  0  0  0  0  0
  139.4160   75.8150  222.5370 N   0  0  0  0  0  0  0  0  0  0  0  0
  140.4800   75.5520  221.7590 C   0  0  0  0  0  0  0  0  0  0  0  0
  141.0860   74.3150  221.5480 C   0  0  0  0  0  0  0  0  0  0  0  0
  142.2050   74.2670  220.6970 C   0  0  0  0  0  0  0  0  0  0  0  0
  142.6900   75.4430  220.0850 C   0  0  0  0  0  0  0  0  0  0  0  0
  142.0590   76.6790  220.3160 C   0  0  0  0  0  0  0  0  0  0  0  0
  140.9480   76.6960  221.1630 C   0  0  0  0  0  0  0  0  0  0  0  0
  137.9723   79.8186  217.5722 H   0  0  0  0  0  0  0  0  0  0  0  0
  138.2390   81.3461  218.4987 H   0  0  0  0  0  0  0  0  0  0  0  0
  139.6991   78.1286  217.4280 H   0  0  0  0  0  0  0  0  0  0  0  0
  142.1334   77.7156  217.1519 H   0  0  0  0  0  0  0  0  0  0  0  0
  143.7850   79.4196  217.9081 H   0  0  0  0  0  0  0  0  0  0  0  0
  143.0086   81.5412  218.9439 H   0  0  0  0  0  0  0  0  0  0  0  0
  137.3498   80.8037  222.4300 H   0  0  0  0  0  0  0  0  0  0  0  0
  138.8383   81.5253  224.1930 H   0  0  0  0  0  0  0  0  0  0  0  0
  141.1641   81.8648  225.0174 H   0  0  0  0  0  0  0  0  0  0  0  0
  143.6122   81.4151  224.8727 H   0  0  0  0  0  0  0  0  0  0  0  0
  144.5152   79.9832  223.0402 H   0  0  0  0  0  0  0  0  0  0  0  0
  142.9711   78.9766  221.3617 H   0  0  0  0  0  0  0  0  0  0  0  0
  140.6753   79.3226  220.2428 H   0  0  0  0  0  0  0  0  0  0  0  0
  138.4013   77.6905  222.9640 H   0  0  0  0  0  0  0  0  0  0  0  0
  138.8710   75.1330  223.1110 H   0  0  0  0  0  0  0  0  0  0  0  0
  140.7015   73.4049  222.0316 H   0  0  0  0  0  0  0  0  0  0  0  0
  142.7057   73.3062  220.5071 H   0  0  0  0  0  0  0  0  0  0  0  0
  143.5671   75.3926  219.4231 H   0  0  0  0  0  0  0  0  0  0  0  0
  142.4283   77.6020  219.8451 H   0  0  0  0  0  0  0  0  0  0  0  0
  1  2  2  0
  2  3  2  0
  2  4  1  0
  4  5  1  0
  5  6  2  0
  6  7  1  0
  7  8  2  0
  8  9  1  0
  9 10  2  0
 10 11  1  0
 11 12  1  0
 11 13  1  0
 11 14  1  0
  2 15  1  0
 15 16  1  0
 16 17  2  0
 17 18  1  0
 18 19  2  0
 19 20  1  0
 20 21  2  0
 21 22  1  0
 22 23  2  0
 23 24  1  0
 24 25  1  0
 25 26  2  0
 26 27  1  0
 27 28  1  0
 28 29  2  0
 29 30  1  0
 30 31  2  0
 31 32  1  0
 32 33  2  0
 10  5  1  0
 24 15  1  0
 33 25  1  0
 23 18  1  0
 33 28  1  0
  4 34  1  0
  4 35  1  0
  6 36  1  0
  7 37  1  0
  8 38  1  0
  9 39  1  0
 16 40  1  0
 17 41  1  0
 19 42  1  0
 20 43  1  0
 21 44  1  0
 22 45  1  0
 24 46  1  6
 26 47  1  0
 27 48  1  0
 29 49  1  0
 30 50  1  0
 31 51  1  0
 32 52  1  0
M  END
>  <UniqueID>  (77) 
4

>  <SMILES>  (77) 
O=S(=O)(Cc1ccccc1C(F)(F)F)N1C=Cc2ccccc2[C@H]1c1c[nH]c2ccccc12

>  <Energy>  (77) 
90.73444200797094

>  <Genealogy>  (77) 
O=S(=O)(Cc1ccccc1C(F)(F)F)N1C=Cc2ccccc2[C@H]1c1c[nH]c2ccccc12 (3D coordinates assigned)
O=S(=O)(Cc1ccccc1C(F)(F)F)N1C=Cc2ccccc2[C@H]1c1c[nH]c2ccccc12 (nonaromatic ring conformer: 90.73444200797094 kcal/mol)

>  <smiles>  (77) 
O=S(=O)(Cc1ccccc1C(F)(F)F)N1C=Cc2ccccc2[C@H]1c1c[nH]c2ccccc12

>  <score_type>  (77) 
oracle

>  <origin>  (77) 
autodockgpu

>  <m_score__min__energy>  (77) 
-8.0899999999999999

>  <m_primary>  (77) 
energy

>  <meeko>  (77) 
{"free_energy": -6.68, "intermolecular_energy": -8.17, "internal_energy": -3.31, "cluster_size": 17, "cluster_id": 2, "rank_in_cluster": 11}

>  <energy>  (77) 
-6.67

>  <cluster_rmsd>  (77) 
0.04

>  <rmsd>  (77) 
269.61

>  <cluster>  (77) 
2

$$$$
CYEMMKKIRZZUDR-DEOSSOPVNA-N
     RDKit          3D

 52 56  0  0  0  0  0  0  0  0999 V2000
  137.7690   77.9330  219.6550 O   0  0  0  0  0  0  0  0  0  0  0  0
  137.8490   79.4160  219.8910 S   0  0  0  0  0  0  0  0  0  0  0  0
  136.4760   79.9240  220.2270 O   0  0  0  0  0  0  0  0  0  0  0  0
  138.4750   80.2110  218.4180 C   0  0  0  0  0  0  0  0  0  0  0  0
  139.9730   80.0390  218.3100 C   0  0  0  0  0  0  0  0  0  0  0  0
  140.4530   78.8230  217.7920 C   0  0  0  0  0  0  0  0  0  0  0  0
  141.8200   78.5990  217.6410 C   0  0  0  0  0  0  0  0  0  0  0  0
  142.7320   79.5850  218.0070 C   0  0  0  0  0  0  0  0  0  0  0  0
  142.2810   80.8000  218.5230 C   0  0  0  0  0  0  0  0  0  0  0  0
  140.9020   81.0570  218.6750 C   0  0  0  0  0  0  0  0  0  0  0  0
  140.4540   82.3790  219.2730 C   0  0  0  0  0  0  0  0  0  0  0  0
  140.2030   82.2330  220.6240 F   0  0  0  0  0  0  0  0  0  0  0  0
  141.4420   83.3280  219.0890 F   0  0  0  0  0  0  0  0  0  0  0  0
  139.2930   82.8440  218.6780 F   0  0  0  0  0  0  0  0  0  0  0  0
  138.9250   79.7460  221.2140 N   0  0  0  0  0  0  0  0  0  0  0  0
  138.4220   80.5020  222.3270 C   0  0  0  0  0  0  0  0  0  0  0  0
  139.2330   80.9160  223.2970 C   0  0  0  0  0  0  0  0  0  0  0  0
  140.6750   80.6270  223.2420 C   0  0  0  0  0  0  0  0  0  0  0  0
  141.5420   81.1890  224.1900 C   0  0  0  0  0  0  0  0  0  0  0  0
  142.9150   80.9390  224.1220 C   0  0  0  0  0  0  0  0  0  0  0  0
  143.4290   80.1290  223.1070 C   0  0  0  0  0  0  0  0  0  0  0  0
  142.5730   79.5610  222.1620 C   0  0  0  0  0  0  0  0  0  0  0  0
  141.1900   79.8060  222.2190 C   0  0  0  0  0  0  0  0  0  0  0  0
  140.2620   79.1310  221.2310 C   0  0  1  0  0  0  0  0  0  0  0  0
  140.1430   77.6690  221.5740 C   0  0  0  0  0  0  0  0  0  0  0  0
  139.2160   77.0910  222.4390 C   0  0  0  0  0  0  0  0  0  0  0  0
  139.4310   75.7600  222.5420 N   0  0  0  0  0  0  0  0  0  0  0  0
  140.4890   75.4920  221.7590 C   0  0  0  0  0  0  0  0  0  0  0  0
  141.0920   74.2520  221.5520 C   0  0  0  0  0  0  0  0  0  0  0  0
  142.2070   74.1980  220.6940 C   0  0  0  0  0  0  0  0  0  0  0  0
  142.6890   75.3700  220.0730 C   0  0  0  0  0  0  0  0  0  0  0  0
  142.0620   76.6090  220.3010 C   0  0  0  0  0  0  0  0  0  0  0  0
  140.9560   76.6310  221.1540 C   0  0  0  0  0  0  0  0  0  0  0  0
  137.9960   79.7627  217.5351 H   0  0  0  0  0  0  0  0  0  0  0  0
  138.2468   81.2856  218.4735 H   0  0  0  0  0  0  0  0  0  0  0  0
  139.7394   78.0377  217.5020 H   0  0  0  0  0  0  0  0  0  0  0  0
  142.1786   77.6427  217.2325 H   0  0  0  0  0  0  0  0  0  0  0  0
  143.8108   79.4056  217.8890 H   0  0  0  0  0  0  0  0  0  0  0  0
  143.0111   81.5690  218.8156 H   0  0  0  0  0  0  0  0  0  0  0  0
  137.3498   80.7423  222.3781 H   0  0  0  0  0  0  0  0  0  0  0  0
  138.8221   81.4794  224.1477 H   0  0  0  0  0  0  0  0  0  0  0  0
  141.1400   81.8286  224.9896 H   0  0  0  0  0  0  0  0  0  0  0  0
  143.5916   81.3805  224.8685 H   0  0  0  0  0  0  0  0  0  0  0  0
  144.5109   79.9382  223.0521 H   0  0  0  0  0  0  0  0  0  0  0  0
  142.9827   78.9184  221.3687 H   0  0  0  0  0  0  0  0  0  0  0  0
  140.6948   79.2545  220.2273 H   0  0  0  0  0  0  0  0  0  0  0  0
  138.4209   77.6404  222.9643 H   0  0  0  0  0  0  0  0  0  0  0  0
  138.8880   75.0820  223.1230 H   0  0  0  0  0  0  0  0  0  0  0  0
  140.7090   73.3453  222.0431 H   0  0  0  0  0  0  0  0  0  0  0  0
  142.7058   73.2357  220.5064 H   0  0  0  0  0  0  0  0  0  0  0  0
  143.5616   75.3146  219.4055 H   0  0  0  0  0  0  0  0  0  0  0  0
  142.4303   77.5290  219.8237 H   0  0  0  0  0  0  0  0  0  0  0  0
  1  2  2  0
  2  3  2  0
  2  4  1  0
  4  5  1  0
  5  6  2  0
  6  7  1  0
  7  8  2  0
  8  9  1  0
  9 10  2  0
 10 11  1  0
 11 12  1  0
 11 13  1  0
 11 14  1  0
  2 15  1  0
 15 16  1  0
 16 17  2  0
 17 18  1  0
 18 19  2  0
 19 20  1  0
 20 21  2  0
 21 22  1  0
 22 23  2  0
 23 24  1  0
 24 25  1  0
 25 26  2  0
 26 27  1  0
 27 28  1  0
 28 29  2  0
 29 30  1  0
 30 31  2  0
 31 32  1  0
 32 33  2  0
 10  5  1  0
 24 15  1  0
 33 25  1  0
 23 18  1  0
 33 28  1  0
  4 34  1  0
  4 35  1  0
  6 36  1  0
  7 37  1  0
  8 38  1  0
  9 39  1  0
 16 40  1  0
 17 41  1  0
 19 42  1  0
 20 43  1  0
 21 44  1  0
 22 45  1  0
 24 46  1  6
 26 47  1  0
 27 48  1  0
 29 49  1  0
 30 50  1  0
 31 51  1  0
 32 52  1  0
M  END
>  <UniqueID>  (78) 
4

>  <SMILES>  (78) 
O=S(=O)(Cc1ccccc1C(F)(F)F)N1C=Cc2ccccc2[C@H]1c1c[nH]c2ccccc12

>  <Energy>  (78) 
90.73444200797094

>  <Genealogy>  (78) 
O=S(=O)(Cc1ccccc1C(F)(F)F)N1C=Cc2ccccc2[C@H]1c1c[nH]c2ccccc12 (3D coordinates assigned)
O=S(=O)(Cc1ccccc1C(F)(F)F)N1C=Cc2ccccc2[C@H]1c1c[nH]c2ccccc12 (nonaromatic ring conformer: 90.73444200797094 kcal/mol)

>  <smiles>  (78) 
O=S(=O)(Cc1ccccc1C(F)(F)F)N1C=Cc2ccccc2[C@H]1c1c[nH]c2ccccc12

>  <score_type>  (78) 
oracle

>  <origin>  (78) 
autodockgpu

>  <m_score__min__energy>  (78) 
-8.0899999999999999

>  <m_primary>  (78) 
energy

>  <meeko>  (78) 
{"free_energy": -6.65, "intermolecular_energy": -8.14, "internal_energy": -3.32, "cluster_size": 17, "cluster_id": 2, "rank_in_cluster": 17}

>  <energy>  (78) 
-6.67

>  <cluster_rmsd>  (78) 
0.03

>  <rmsd>  (78) 
269.6

>  <cluster>  (78) 
2

$$$$
CYEMMKKIRZZUDR-DEOSSOPVNA-N
     RDKit          3D

 52 56  0  0  0  0  0  0  0  0999 V2000
  137.9280   77.7840  219.4240 O   0  0  0  0  0  0  0  0  0  0  0  0
  137.9870   79.2750  219.6110 S   0  0  0  0  0  0  0  0  0  0  0  0
  136.5950   79.7860  219.8510 O   0  0  0  0  0  0  0  0  0  0  0  0
  138.6900   80.0210  218.1470 C   0  0  0  0  0  0  0  0  0  0  0  0
  140.1790   79.7660  218.0760 C   0  0  0  0  0  0  0  0  0  0  0  0
  140.6030   78.5100  217.6080 C   0  0  0  0  0  0  0  0  0  0  0  0
  141.9590   78.2090  217.4930 C   0  0  0  0  0  0  0  0  0  0  0  0
  142.9150   79.1560  217.8460 C   0  0  0  0  0  0  0  0  0  0  0  0
  142.5200   80.4100  218.3130 C   0  0  0  0  0  0  0  0  0  0  0  0
  141.1540   80.7450  218.4280 C   0  0  0  0  0  0  0  0  0  0  0  0
  140.7660   82.1080  218.9740 C   0  0  0  0  0  0  0  0  0  0  0  0
  141.8540   82.9590  218.9540 F   0  0  0  0  0  0  0  0  0  0  0  0
  139.7510   82.6420  218.2030 F   0  0  0  0  0  0  0  0  0  0  0  0
  140.3180   82.0290  220.2820 F   0  0  0  0  0  0  0  0  0  0  0  0
  138.9860   79.6600  220.9780 N   0  0  0  0  0  0  0  0  0  0  0  0
  138.4160   80.4500  222.0350 C   0  0  0  0  0  0  0  0  0  0  0  0
  139.1710   80.9040  223.0330 C   0  0  0  0  0  0  0  0  0  0  0  0
  140.6150   80.6260  223.0680 C   0  0  0  0  0  0  0  0  0  0  0  0
  141.4240   81.2280  224.0420 C   0  0  0  0  0  0  0  0  0  0  0  0
  142.8000   80.9880  224.0580 C   0  0  0  0  0  0  0  0  0  0  0  0
  143.3760   80.1480  223.1030 C   0  0  0  0  0  0  0  0  0  0  0  0
  142.5770   79.5400  222.1320 C   0  0  0  0  0  0  0  0  0  0  0  0
  141.1910   79.7740  222.1050 C   0  0  0  0  0  0  0  0  0  0  0  0
  140.3250   79.0570  221.0910 C   0  0  1  0  0  0  0  0  0  0  0  0
  140.1960   77.6070  221.4780 C   0  0  0  0  0  0  0  0  0  0  0  0
  139.2640   77.0610  222.3580 C   0  0  0  0  0  0  0  0  0  0  0  0
  139.4710   75.7330  222.5020 N   0  0  0  0  0  0  0  0  0  0  0  0
  140.5300   75.4350  221.7290 C   0  0  0  0  0  0  0  0  0  0  0  0
  141.1260   74.1870  221.5610 C   0  0  0  0  0  0  0  0  0  0  0  0
  142.2410   74.1000  220.7080 C   0  0  0  0  0  0  0  0  0  0  0  0
  142.7320   75.2500  220.0530 C   0  0  0  0  0  0  0  0  0  0  0  0
  142.1110   76.4990  220.2420 C   0  0  0  0  0  0  0  0  0  0  0  0
  141.0040   76.5530  221.0910 C   0  0  0  0  0  0  0  0  0  0  0  0
  138.2078   79.5916  217.2565 H   0  0  0  0  0  0  0  0  0  0  0  0
  138.5200   81.1070  218.1886 H   0  0  0  0  0  0  0  0  0  0  0  0
  139.8541   77.7543  217.3287 H   0  0  0  0  0  0  0  0  0  0  0  0
  142.2735   77.2220  217.1229 H   0  0  0  0  0  0  0  0  0  0  0  0
  143.9847   78.9156  217.7567 H   0  0  0  0  0  0  0  0  0  0  0  0
  143.2847   81.1485  218.5957 H   0  0  0  0  0  0  0  0  0  0  0  0
  137.3410   80.6826  222.0190 H   0  0  0  0  0  0  0  0  0  0  0  0
  138.7103   81.4930  223.8397 H   0  0  0  0  0  0  0  0  0  0  0  0
  140.9740   81.8910  224.7956 H   0  0  0  0  0  0  0  0  0  0  0  0
  143.4310   81.4617  224.8245 H   0  0  0  0  0  0  0  0  0  0  0  0
  144.4606   79.9648  223.1153 H   0  0  0  0  0  0  0  0  0  0  0  0
  143.0344   78.8748  221.3848 H   0  0  0  0  0  0  0  0  0  0  0  0
  140.8132   79.1490  220.1096 H   0  0  0  0  0  0  0  0  0  0  0  0
  138.4710   77.6307  222.8645 H   0  0  0  0  0  0  0  0  0  0  0  0
  138.9230   75.0760  223.1020 H   0  0  0  0  0  0  0  0  0  0  0  0
  140.7370   73.2980  222.0790 H   0  0  0  0  0  0  0  0  0  0  0  0
  142.7337   73.1292  220.5502 H   0  0  0  0  0  0  0  0  0  0  0  0
  143.6061   75.1695  219.3901 H   0  0  0  0  0  0  0  0  0  0  0  0
  142.4853   77.4021  219.7378 H   0  0  0  0  0  0  0  0  0  0  0  0
  1  2  2  0
  2  3  2  0
  2  4  1  0
  4  5  1  0
  5  6  2  0
  6  7  1  0
  7  8  2  0
  8  9  1  0
  9 10  2  0
 10 11  1  0
 11 12  1  0
 11 13  1  0
 11 14  1  0
  2 15  1  0
 15 16  1  0
 16 17  2  0
 17 18  1  0
 18 19  2  0
 19 20  1  0
 20 21  2  0
 21 22  1  0
 22 23  2  0
 23 24  1  0
 24 25  1  0
 25 26  2  0
 26 27  1  0
 27 28  1  0
 28 29  2  0
 29 30  1  0
 30 31  2  0
 31 32  1  0
 32 33  2  0
 10  5  1  0
 24 15  1  0
 33 25  1  0
 23 18  1  0
 33 28  1  0
  4 34  1  0
  4 35  1  0
  6 36  1  0
  7 37  1  0
  8 38  1  0
  9 39  1  0
 16 40  1  0
 17 41  1  0
 19 42  1  0
 20 43  1  0
 21 44  1  0
 22 45  1  0
 24 46  1  6
 26 47  1  0
 27 48  1  0
 29 49  1  0
 30 50  1  0
 31 51  1  0
 32 52  1  0
M  END
>  <UniqueID>  (79) 
4

>  <SMILES>  (79) 
O=S(=O)(Cc1ccccc1C(F)(F)F)N1C=Cc2ccccc2[C@H]1c1c[nH]c2ccccc12

>  <Energy>  (79) 
90.73444200797094

>  <Genealogy>  (79) 
O=S(=O)(Cc1ccccc1C(F)(F)F)N1C=Cc2ccccc2[C@H]1c1c[nH]c2ccccc12 (3D coordinates assigned)
O=S(=O)(Cc1ccccc1C(F)(F)F)N1C=Cc2ccccc2[C@H]1c1c[nH]c2ccccc12 (nonaromatic ring conformer: 90.73444200797094 kcal/mol)

>  <smiles>  (79) 
O=S(=O)(Cc1ccccc1C(F)(F)F)N1C=Cc2ccccc2[C@H]1c1c[nH]c2ccccc12

>  <score_type>  (79) 
oracle

>  <origin>  (79) 
autodockgpu

>  <m_score__min__energy>  (79) 
-8.0899999999999999

>  <m_primary>  (79) 
energy

>  <meeko>  (79) 
{"free_energy": -6.65, "intermolecular_energy": -8.14, "internal_energy": -3.32, "cluster_size": 17, "cluster_id": 2, "rank_in_cluster": 16}

>  <energy>  (79) 
-6.65

>  <cluster_rmsd>  (79) 
0.47

>  <rmsd>  (79) 
269.46

>  <cluster>  (79) 
2

$$$$
CYEMMKKIRZZUDR-DEOSSOPVNA-N
     RDKit          3D

 52 56  0  0  0  0  0  0  0  0999 V2000
  137.7040   77.9500  219.7500 O   0  0  0  0  0  0  0  0  0  0  0  0
  137.8160   79.4330  219.9690 S   0  0  0  0  0  0  0  0  0  0  0  0
  136.4570   79.9720  220.3160 O   0  0  0  0  0  0  0  0  0  0  0  0
  138.4390   80.2000  218.4800 C   0  0  0  0  0  0  0  0  0  0  0  0
  139.9400   80.0530  218.3860 C   0  0  0  0  0  0  0  0  0  0  0  0
  140.4450   78.8670  217.8220 C   0  0  0  0  0  0  0  0  0  0  0  0
  141.8170   78.6680  217.6820 C   0  0  0  0  0  0  0  0  0  0  0  0
  142.7090   79.6490  218.1060 C   0  0  0  0  0  0  0  0  0  0  0  0
  142.2340   80.8330  218.6690 C   0  0  0  0  0  0  0  0  0  0  0  0
  140.8500   81.0650  218.8110 C   0  0  0  0  0  0  0  0  0  0  0  0
  140.3750   82.3530  219.4610 C   0  0  0  0  0  0  0  0  0  0  0  0
  141.2930   82.7830  220.3990 F   0  0  0  0  0  0  0  0  0  0  0  0
  140.2160   83.3270  218.4930 F   0  0  0  0  0  0  0  0  0  0  0  0
  139.1610   82.1850  220.1070 F   0  0  0  0  0  0  0  0  0  0  0  0
  138.9150   79.7560  221.2740 N   0  0  0  0  0  0  0  0  0  0  0  0
  138.4300   80.5040  222.4010 C   0  0  0  0  0  0  0  0  0  0  0  0
  139.2580   80.9130  223.3590 C   0  0  0  0  0  0  0  0  0  0  0  0
  140.6990   80.6280  223.2770 C   0  0  0  0  0  0  0  0  0  0  0  0
  141.5820   81.1850  224.2130 C   0  0  0  0  0  0  0  0  0  0  0  0
  142.9530   80.9390  224.1190 C   0  0  0  0  0  0  0  0  0  0  0  0
  143.4510   80.1370  223.0900 C   0  0  0  0  0  0  0  0  0  0  0  0
  142.5790   79.5730  222.1560 C   0  0  0  0  0  0  0  0  0  0  0  0
  141.1970   79.8140  222.2400 C   0  0  0  0  0  0  0  0  0  0  0  0
  140.2530   79.1440  221.2640 C   0  0  1  0  0  0  0  0  0  0  0  0
  140.1430   77.6800  221.5990 C   0  0  0  0  0  0  0  0  0  0  0  0
  139.2220   77.0920  222.4650 C   0  0  0  0  0  0  0  0  0  0  0  0
  139.4440   75.7620  222.5590 N   0  0  0  0  0  0  0  0  0  0  0  0
  140.5010   75.5030  221.7700 C   0  0  0  0  0  0  0  0  0  0  0  0
  141.1100   74.2680  221.5530 C   0  0  0  0  0  0  0  0  0  0  0  0
  142.2200   74.2250  220.6910 C   0  0  0  0  0  0  0  0  0  0  0  0
  142.6940   75.4030  220.0750 C   0  0  0  0  0  0  0  0  0  0  0  0
  142.0620   76.6370  220.3120 C   0  0  0  0  0  0  0  0  0  0  0  0
  140.9600   76.6490  221.1700 C   0  0  0  0  0  0  0  0  0  0  0  0
  137.9746   79.7200  217.6060 H   0  0  0  0  0  0  0  0  0  0  0  0
  138.1914   81.2715  218.5062 H   0  0  0  0  0  0  0  0  0  0  0  0
  139.7468   78.0858  217.4869 H   0  0  0  0  0  0  0  0  0  0  0  0
  142.1951   77.7360  217.2366 H   0  0  0  0  0  0  0  0  0  0  0  0
  143.7919   79.4897  217.9966 H   0  0  0  0  0  0  0  0  0  0  0  0
  142.9491   81.5973  219.0074 H   0  0  0  0  0  0  0  0  0  0  0  0
  137.3585   80.7420  222.4728 H   0  0  0  0  0  0  0  0  0  0  0  0
  138.8611   81.4697  224.2207 H   0  0  0  0  0  0  0  0  0  0  0  0
  141.1931   81.8180  225.0242 H   0  0  0  0  0  0  0  0  0  0  0  0
  143.6417   81.3774  224.8563 H   0  0  0  0  0  0  0  0  0  0  0  0
  144.5322   79.9491  223.0149 H   0  0  0  0  0  0  0  0  0  0  0  0
  142.9758   78.9372  221.3509 H   0  0  0  0  0  0  0  0  0  0  0  0
  140.6680   79.2755  220.2538 H   0  0  0  0  0  0  0  0  0  0  0  0
  138.4265   77.6343  222.9970 H   0  0  0  0  0  0  0  0  0  0  0  0
  138.9070   75.0780  223.1380 H   0  0  0  0  0  0  0  0  0  0  0  0
  140.7342   73.3563  222.0405 H   0  0  0  0  0  0  0  0  0  0  0  0
  142.7226   73.2663  220.4953 H   0  0  0  0  0  0  0  0  0  0  0  0
  143.5646   75.3557  219.4043 H   0  0  0  0  0  0  0  0  0  0  0  0
  142.4234   77.5613  219.8376 H   0  0  0  0  0  0  0  0  0  0  0  0
  1  2  2  0
  2  3  2  0
  2  4  1  0
  4  5  1  0
  5  6  2  0
  6  7  1  0
  7  8  2  0
  8  9  1  0
  9 10  2  0
 10 11  1  0
 11 12  1  0
 11 13  1  0
 11 14  1  0
  2 15  1  0
 15 16  1  0
 16 17  2  0
 17 18  1  0
 18 19  2  0
 19 20  1  0
 20 21  2  0
 21 22  1  0
 22 23  2  0
 23 24  1  0
 24 25  1  0
 25 26  2  0
 26 27  1  0
 27 28  1  0
 28 29  2  0
 29 30  1  0
 30 31  2  0
 31 32  1  0
 32 33  2  0
 10  5  1  0
 24 15  1  0
 33 25  1  0
 23 18  1  0
 33 28  1  0
  4 34  1  0
  4 35  1  0
  6 36  1  0
  7 37  1  0
  8 38  1  0
  9 39  1  0
 16 40  1  0
 17 41  1  0
 19 42  1  0
 20 43  1  0
 21 44  1  0
 22 45  1  0
 24 46  1  6
 26 47  1  0
 27 48  1  0
 29 49  1  0
 30 50  1  0
 31 51  1  0
 32 52  1  0
M  END
>  <UniqueID>  (80) 
4

>  <SMILES>  (80) 
O=S(=O)(Cc1ccccc1C(F)(F)F)N1C=Cc2ccccc2[C@H]1c1c[nH]c2ccccc12

>  <Energy>  (80) 
90.73444200797094

>  <Genealogy>  (80) 
O=S(=O)(Cc1ccccc1C(F)(F)F)N1C=Cc2ccccc2[C@H]1c1c[nH]c2ccccc12 (3D coordinates assigned)
O=S(=O)(Cc1ccccc1C(F)(F)F)N1C=Cc2ccccc2[C@H]1c1c[nH]c2ccccc12 (nonaromatic ring conformer: 90.73444200797094 kcal/mol)

>  <smiles>  (80) 
O=S(=O)(Cc1ccccc1C(F)(F)F)N1C=Cc2ccccc2[C@H]1c1c[nH]c2ccccc12

>  <score_type>  (80) 
oracle

>  <origin>  (80) 
autodockgpu

>  <m_score__min__energy>  (80) 
-8.0899999999999999

>  <m_primary>  (80) 
energy

>  <meeko>  (80) 
{"free_energy": -6.68, "intermolecular_energy": -8.18, "internal_energy": -3.31, "cluster_size": 17, "cluster_id": 2, "rank_in_cluster": 4}

>  <energy>  (80) 
-6.65

>  <cluster_rmsd>  (80) 
0.36

>  <rmsd>  (80) 
269.58

>  <cluster>  (80) 
2

$$$$
