
     RDKit          3D

 65 68  0  0  0  0  0  0  0  0999 V2000
  138.5120   75.4540  221.4520 O   0  0  0  0  0  0  0  0  0  0  0  0
  139.7170   75.6930  221.8010 C   0  0  0  0  0  0  0  0  0  0  0  0
  140.7460   74.7140  221.6850 N   0  0  0  0  0  0  0  0  0  0  0  0
  140.4620   73.4290  221.1680 C   0  0  0  0  0  0  0  0  0  0  0  0
  141.5570   72.6050  220.6600 C   0  0  0  0  0  0  0  0  0  0  0  0
  141.1780   71.4520  220.1920 O   0  0  0  0  0  0  0  0  0  0  0  0
  142.9390   72.8970  220.6200 N   0  0  0  0  0  0  0  0  0  0  0  0
  144.1050   72.0430  220.5620 C   0  0  0  0  0  0  0  0  0  0  0  0
  145.0900   72.9290  219.7740 C   0  0  2  0  0  0  0  0  0  0  0  0
  146.3660   72.4420  220.0430 O   0  0  0  0  0  0  0  0  0  0  0  0
  144.9210   74.2110  220.5680 C   0  0  0  0  0  0  0  0  0  0  0  0
  143.4190   74.2890  220.6470 C   0  0  1  0  0  0  0  0  0  0  0  0
  142.8520   75.0820  219.5150 C   0  0  0  0  0  0  0  0  0  0  0  0
  142.8280   74.6490  218.3310 O   0  0  0  0  0  0  0  0  0  0  0  0
  142.3340   76.3600  219.8250 N   0  0  0  0  0  0  0  0  0  0  0  0
  141.7510   77.2530  218.8440 C   0  0  0  0  0  0  0  0  0  0  0  0
  142.4230   78.6000  218.8340 C   0  0  0  0  0  0  0  0  0  0  0  0
  141.4500   79.7180  219.1340 C   0  0  0  0  0  0  0  0  0  0  0  0
  140.1120   79.1870  219.5960 C   0  0  0  0  0  0  0  0  0  0  0  0
  139.3110   80.3610  220.1170 C   0  0  0  0  0  0  0  0  0  0  0  0
  139.8480   81.6700  219.5960 C   0  0  0  0  0  0  0  0  0  0  0  0
  141.2280   81.9280  220.1700 C   0  0  0  0  0  0  0  0  0  0  0  0
  141.9690   80.6170  220.2270 C   0  0  0  0  0  0  0  0  0  0  0  0
  140.0210   77.0200  222.3310 C   0  0  0  0  0  0  0  0  0  0  0  0
  139.0290   77.8580  222.7830 C   0  0  0  0  0  0  0  0  0  0  0  0
  139.3290   79.1030  223.2810 C   0  0  0  0  0  0  0  0  0  0  0  0
  140.6320   79.5260  223.3330 C   0  0  0  0  0  0  0  0  0  0  0  0
  140.9470   80.7670  223.8300 C   0  0  0  0  0  0  0  0  0  0  0  0
  142.2600   81.1600  223.8710 C   0  0  0  0  0  0  0  0  0  0  0  0
  142.5520   82.3920  224.3660 F   0  0  0  0  0  0  0  0  0  0  0  0
  143.2740   80.3380  223.4230 C   0  0  0  0  0  0  0  0  0  0  0  0
  142.9440   79.0810  222.9220 C   0  0  0  0  0  0  0  0  0  0  0  0
  141.6160   78.6730  222.8760 C   0  0  0  0  0  0  0  0  0  0  0  0
  141.2790   77.4560  222.3930 N   0  0  0  0  0  0  0  0  0  0  0  0
  141.6990   75.0200  222.0060 H   0  0  0  0  0  0  0  0  0  0  0  0
  139.9781   72.8583  221.9743 H   0  0  0  0  0  0  0  0  0  0  0  0
  139.8549   73.6358  220.2743 H   0  0  0  0  0  0  0  0  0  0  0  0
  144.4863   71.8133  221.5679 H   0  0  0  0  0  0  0  0  0  0  0  0
  143.9204   71.0592  220.1059 H   0  0  0  0  0  0  0  0  0  0  0  0
  144.9427   72.9997  218.6862 H   0  0  0  0  0  0  0  0  0  0  0  0
  146.3680   71.8660  220.8470 H   0  0  0  0  0  0  0  0  0  0  0  0
  145.3767   74.1335  221.5662 H   0  0  0  0  0  0  0  0  0  0  0  0
  145.4030   75.0934  220.1218 H   0  0  0  0  0  0  0  0  0  0  0  0
  143.0962   74.8047  221.5635 H   0  0  0  0  0  0  0  0  0  0  0  0
  142.3660   76.7030  220.8330 H   0  0  0  0  0  0  0  0  0  0  0  0
  141.8517   76.7990  217.8471 H   0  0  0  0  0  0  0  0  0  0  0  0
  140.6941   77.4038  219.1092 H   0  0  0  0  0  0  0  0  0  0  0  0
  143.2177   78.6066  219.5945 H   0  0  0  0  0  0  0  0  0  0  0  0
  142.8353   78.7677  217.8281 H   0  0  0  0  0  0  0  0  0  0  0  0
  141.3339   80.2765  218.1934 H   0  0  0  0  0  0  0  0  0  0  0  0
  139.5838   78.7163  218.7537 H   0  0  0  0  0  0  0  0  0  0  0  0
  140.2466   78.4304  220.3831 H   0  0  0  0  0  0  0  0  0  0  0  0
  138.2647   80.2506  219.7960 H   0  0  0  0  0  0  0  0  0  0  0  0
  139.3847   80.3697  221.2145 H   0  0  0  0  0  0  0  0  0  0  0  0
  139.9118   81.6270  218.4987 H   0  0  0  0  0  0  0  0  0  0  0  0
  139.1726   82.4840  219.8980 H   0  0  0  0  0  0  0  0  0  0  0  0
  141.7722   82.6353  219.5268 H   0  0  0  0  0  0  0  0  0  0  0  0
  141.1446   82.3605  221.1779 H   0  0  0  0  0  0  0  0  0  0  0  0
  143.0448   80.7937  220.0808 H   0  0  0  0  0  0  0  0  0  0  0  0
  141.8137   80.1421  221.2070 H   0  0  0  0  0  0  0  0  0  0  0  0
  137.9806   77.5271  222.7454 H   0  0  0  0  0  0  0  0  0  0  0  0
  138.5230   79.7608  223.6383 H   0  0  0  0  0  0  0  0  0  0  0  0
  140.1543   81.4386  224.1914 H   0  0  0  0  0  0  0  0  0  0  0  0
  144.3223   80.6691  223.4609 H   0  0  0  0  0  0  0  0  0  0  0  0
  143.7368   78.4090  222.5616 H   0  0  0  0  0  0  0  0  0  0  0  0
  1  2  2  0
  2  3  1  0
  3  4  1  0
  4  5  1  0
  5  6  2  0
  5  7  1  0
  7  8  1  0
  8  9  1  0
  9 10  1  0
  9 11  1  0
 11 12  1  0
 12 13  1  0
 13 14  2  0
 13 15  1  0
 15 16  1  0
 16 17  1  0
 17 18  1  0
 18 19  1  0
 19 20  1  0
 20 21  1  0
 21 22  1  0
 22 23  1  0
  2 24  1  0
 24 25  2  0
 25 26  1  0
 26 27  2  0
 27 28  1  0
 28 29  2  0
 29 30  1  0
 29 31  1  0
 31 32  2  0
 32 33  1  0
 33 34  2  0
 12  7  1  0
 23 18  1  0
 34 24  1  0
 33 27  1  0
  3 35  1  0
  4 36  1  0
  4 37  1  0
  8 38  1  0
  8 39  1  0
  9 40  1  6
 10 41  1  0
 11 42  1  0
 11 43  1  0
 12 44  1  1
 15 45  1  0
 16 46  1  0
 16 47  1  0
 17 48  1  0
 17 49  1  0
 18 50  1  0
 19 51  1  0
 19 52  1  0
 20 53  1  0
 20 54  1  0
 21 55  1  0
 21 56  1  0
 22 57  1  0
 22 58  1  0
 23 59  1  0
 23 60  1  0
 25 61  1  0
 26 62  1  0
 28 63  1  0
 31 64  1  0
 32 65  1  0
M  END
>  <smiles>  (1) 
O=C(NCC(=O)N1C[C@H](O)C[C@H]1C(=O)NCCC1CCCCC1)c1ccc2cc(F)ccc2n1

>  <score_type>  (1) 
oracle

>  <origin>  (1) 
autodockgpu

>  <m_score__min__energy>  (1) 
-10.029999999999999

>  <m_primary>  (1) 
energy

>  <meeko>  (1) 
{"free_energy": -7.19, "intermolecular_energy": -9.88, "internal_energy": -4.42, "cluster_size": 2, "cluster_id": 5, "rank_in_cluster": 2}

>  <energy>  (1) 
-10.03

>  <cluster_rmsd>  (1) 
0.0

>  <rmsd>  (1) 
272.46

>  <cluster>  (1) 
1

$$$$

     RDKit          3D

 65 68  0  0  0  0  0  0  0  0999 V2000
  137.5330   74.2910  220.4530 O   0  0  0  0  0  0  0  0  0  0  0  0
  137.6280   74.6600  221.6710 C   0  0  0  0  0  0  0  0  0  0  0  0
  136.7790   74.1340  222.6880 N   0  0  0  0  0  0  0  0  0  0  0  0
  135.7930   73.1700  222.3760 C   0  0  0  0  0  0  0  0  0  0  0  0
  136.1560   71.7530  222.3720 C   0  0  0  0  0  0  0  0  0  0  0  0
  137.0510   71.4400  221.4810 O   0  0  0  0  0  0  0  0  0  0  0  0
  135.6640   70.7120  223.1910 N   0  0  0  0  0  0  0  0  0  0  0  0
  134.5690   69.7830  223.0190 C   0  0  0  0  0  0  0  0  0  0  0  0
  135.0930   68.5530  223.7860 C   0  0  2  0  0  0  0  0  0  0  0  0
  133.9810   67.7730  224.0930 O   0  0  0  0  0  0  0  0  0  0  0  0
  135.5200   69.2520  225.0630 C   0  0  0  0  0  0  0  0  0  0  0  0
  136.2830   70.4190  224.4960 C   0  0  1  0  0  0  0  0  0  0  0  0
  137.7350   70.1050  224.3490 C   0  0  0  0  0  0  0  0  0  0  0  0
  138.2390   69.0240  224.7590 O   0  0  0  0  0  0  0  0  0  0  0  0
  138.5420   71.0830  223.7230 N   0  0  0  0  0  0  0  0  0  0  0  0
  139.9670   70.9330  223.5050 C   0  0  0  0  0  0  0  0  0  0  0  0
  140.7780   71.5770  224.5980 C   0  0  0  0  0  0  0  0  0  0  0  0
  140.4410   71.0100  225.9600 C   0  0  0  0  0  0  0  0  0  0  0  0
  140.9410   69.5920  226.1140 C   0  0  0  0  0  0  0  0  0  0  0  0
  140.7950   69.2140  227.5730 C   0  0  0  0  0  0  0  0  0  0  0  0
  139.8090   70.1100  228.2790 C   0  0  0  0  0  0  0  0  0  0  0  0
  140.3570   71.5230  228.3550 C   0  0  0  0  0  0  0  0  0  0  0  0
  141.0710   71.8220  227.0620 C   0  0  0  0  0  0  0  0  0  0  0  0
  138.6470   75.6520  222.0040 C   0  0  0  0  0  0  0  0  0  0  0  0
  139.9870   75.3810  221.8620 C   0  0  0  0  0  0  0  0  0  0  0  0
  140.9350   76.3240  222.1760 C   0  0  0  0  0  0  0  0  0  0  0  0
  140.5520   77.5560  222.6400 C   0  0  0  0  0  0  0  0  0  0  0  0
  141.4890   78.5090  222.9570 C   0  0  0  0  0  0  0  0  0  0  0  0
  141.0730   79.7330  223.4160 C   0  0  0  0  0  0  0  0  0  0  0  0
  142.0150   80.6620  223.7250 F   0  0  0  0  0  0  0  0  0  0  0  0
  139.7330   80.0290  223.5680 C   0  0  0  0  0  0  0  0  0  0  0  0
  138.7920   79.0560  223.2430 C   0  0  0  0  0  0  0  0  0  0  0  0
  139.2030   77.8120  222.7770 C   0  0  0  0  0  0  0  0  0  0  0  0
  138.3010   76.8580  222.4570 N   0  0  0  0  0  0  0  0  0  0  0  0
  136.9440   74.5140  223.6550 H   0  0  0  0  0  0  0  0  0  0  0  0
  134.9815   73.2917  223.1085 H   0  0  0  0  0  0  0  0  0  0  0  0
  135.5458   73.3796  221.3248 H   0  0  0  0  0  0  0  0  0  0  0  0
  133.6398   70.1690  223.4636 H   0  0  0  0  0  0  0  0  0  0  0  0
  134.3094   69.5822  221.9691 H   0  0  0  0  0  0  0  0  0  0  0  0
  135.8524   67.9340  223.2858 H   0  0  0  0  0  0  0  0  0  0  0  0
  134.2310   66.8230  224.2100 H   0  0  0  0  0  0  0  0  0  0  0  0
  134.6533   69.5824  225.6543 H   0  0  0  0  0  0  0  0  0  0  0  0
  136.0949   68.6235  225.7590 H   0  0  0  0  0  0  0  0  0  0  0  0
  136.2324   71.2889  225.1673 H   0  0  0  0  0  0  0  0  0  0  0  0
  138.0940   71.9870  223.3860 H   0  0  0  0  0  0  0  0  0  0  0  0
  140.2093   69.8606  223.4684 H   0  0  0  0  0  0  0  0  0  0  0  0
  140.2191   71.4316  222.5575 H   0  0  0  0  0  0  0  0  0  0  0  0
  141.8458   71.4063  224.3961 H   0  0  0  0  0  0  0  0  0  0  0  0
  140.5430   72.6516  224.6086 H   0  0  0  0  0  0  0  0  0  0  0  0
  139.3439   71.0378  226.0354 H   0  0  0  0  0  0  0  0  0  0  0  0
  140.3431   68.9129  225.4884 H   0  0  0  0  0  0  0  0  0  0  0  0
  141.9915   69.5150  225.7970 H   0  0  0  0  0  0  0  0  0  0  0  0
  140.4440   68.1736  227.6395 H   0  0  0  0  0  0  0  0  0  0  0  0
  141.7751   69.3280  228.0592 H   0  0  0  0  0  0  0  0  0  0  0  0
  138.8596   70.1165  227.7236 H   0  0  0  0  0  0  0  0  0  0  0  0
  139.6413   69.7315  229.2981 H   0  0  0  0  0  0  0  0  0  0  0  0
  139.5311   72.2354  228.4975 H   0  0  0  0  0  0  0  0  0  0  0  0
  141.0519   71.6157  229.2027 H   0  0  0  0  0  0  0  0  0  0  0  0
  140.9812   72.8934  226.8293 H   0  0  0  0  0  0  0  0  0  0  0  0
  142.1360   71.5630  227.1548 H   0  0  0  0  0  0  0  0  0  0  0  0
  140.3046   74.3951  221.4917 H   0  0  0  0  0  0  0  0  0  0  0  0
  142.0031   76.0904  222.0550 H   0  0  0  0  0  0  0  0  0  0  0  0
  142.5617   78.2930  222.8440 H   0  0  0  0  0  0  0  0  0  0  0  0
  139.4151   81.0146  223.9387 H   0  0  0  0  0  0  0  0  0  0  0  0
  137.7193   79.2720  223.3552 H   0  0  0  0  0  0  0  0  0  0  0  0
  1  2  2  0
  2  3  1  0
  3  4  1  0
  4  5  1  0
  5  6  2  0
  5  7  1  0
  7  8  1  0
  8  9  1  0
  9 10  1  0
  9 11  1  0
 11 12  1  0
 12 13  1  0
 13 14  2  0
 13 15  1  0
 15 16  1  0
 16 17  1  0
 17 18  1  0
 18 19  1  0
 19 20  1  0
 20 21  1  0
 21 22  1  0
 22 23  1  0
  2 24  1  0
 24 25  2  0
 25 26  1  0
 26 27  2  0
 27 28  1  0
 28 29  2  0
 29 30  1  0
 29 31  1  0
 31 32  2  0
 32 33  1  0
 33 34  2  0
 12  7  1  0
 23 18  1  0
 34 24  1  0
 33 27  1  0
  3 35  1  0
  4 36  1  0
  4 37  1  0
  8 38  1  0
  8 39  1  0
  9 40  1  6
 10 41  1  0
 11 42  1  0
 11 43  1  0
 12 44  1  1
 15 45  1  0
 16 46  1  0
 16 47  1  0
 17 48  1  0
 17 49  1  0
 18 50  1  0
 19 51  1  0
 19 52  1  0
 20 53  1  0
 20 54  1  0
 21 55  1  0
 21 56  1  0
 22 57  1  0
 22 58  1  0
 23 59  1  0
 23 60  1  0
 25 61  1  0
 26 62  1  0
 28 63  1  0
 31 64  1  0
 32 65  1  0
M  END
>  <smiles>  (2) 
O=C(NCC(=O)N1C[C@H](O)C[C@H]1C(=O)NCCC1CCCCC1)c1ccc2cc(F)ccc2n1

>  <score_type>  (2) 
oracle

>  <origin>  (2) 
autodockgpu

>  <m_score__min__energy>  (2) 
-10.029999999999999

>  <m_primary>  (2) 
energy

>  <meeko>  (2) 
{"free_energy": -8.06, "intermolecular_energy": -10.75, "internal_energy": -2.53, "cluster_size": 4, "cluster_id": 3, "rank_in_cluster": 1}

>  <energy>  (2) 
-9.73

>  <cluster_rmsd>  (2) 
1.6

>  <rmsd>  (2) 
272.43

>  <cluster>  (2) 
1

$$$$

     RDKit          3D

 65 68  0  0  0  0  0  0  0  0999 V2000
  140.6950   71.1290  221.2910 O   0  0  0  0  0  0  0  0  0  0  0  0
  140.3510   71.7900  222.3280 C   0  0  0  0  0  0  0  0  0  0  0  0
  140.1750   73.2040  222.2980 N   0  0  0  0  0  0  0  0  0  0  0  0
  140.3750   73.9300  221.1010 C   0  0  0  0  0  0  0  0  0  0  0  0
  141.3250   73.4270  220.1100 C   0  0  0  0  0  0  0  0  0  0  0  0
  140.7670   72.9610  219.0320 O   0  0  0  0  0  0  0  0  0  0  0  0
  142.7360   73.3830  220.1800 N   0  0  0  0  0  0  0  0  0  0  0  0
  143.6800   72.3060  219.9720 C   0  0  0  0  0  0  0  0  0  0  0  0
  144.9020   73.0750  219.4330 C   0  0  2  0  0  0  0  0  0  0  0  0
  146.0070   72.2520  219.6280 O   0  0  0  0  0  0  0  0  0  0  0  0
  144.9610   74.1660  220.4850 C   0  0  0  0  0  0  0  0  0  0  0  0
  143.5140   74.5830  220.5310 C   0  0  1  0  0  0  0  0  0  0  0  0
  143.2380   75.7050  219.5850 C   0  0  0  0  0  0  0  0  0  0  0  0
  143.5830   75.6700  218.3730 O   0  0  0  0  0  0  0  0  0  0  0  0
  142.5610   76.8310  220.1090 N   0  0  0  0  0  0  0  0  0  0  0  0
  142.2190   78.0010  219.3260 C   0  0  0  0  0  0  0  0  0  0  0  0
  141.2160   78.8790  220.0270 C   0  0  0  0  0  0  0  0  0  0  0  0
  141.7380   79.3830  221.3540 C   0  0  0  0  0  0  0  0  0  0  0  0
  141.5340   80.8730  221.5050 C   0  0  0  0  0  0  0  0  0  0  0  0
  141.8390   81.2310  222.9440 C   0  0  0  0  0  0  0  0  0  0  0  0
  142.6710   80.1680  223.6130 C   0  0  0  0  0  0  0  0  0  0  0  0
  141.8640   78.8900  223.7510 C   0  0  0  0  0  0  0  0  0  0  0  0
  141.0290   78.7220  222.5080 C   0  0  0  0  0  0  0  0  0  0  0  0
  140.1370   71.0480  223.5670 C   0  0  0  0  0  0  0  0  0  0  0  0
  139.5480   69.8060  223.5680 C   0  0  0  0  0  0  0  0  0  0  0  0
  139.3550   69.1170  224.7420 C   0  0  0  0  0  0  0  0  0  0  0  0
  139.7500   69.6670  225.9340 C   0  0  0  0  0  0  0  0  0  0  0  0
  139.5640   68.9900  227.1150 C   0  0  0  0  0  0  0  0  0  0  0  0
  139.9720   69.5660  228.2900 C   0  0  0  0  0  0  0  0  0  0  0  0
  139.7790   68.8810  229.4480 F   0  0  0  0  0  0  0  0  0  0  0  0
  140.5650   70.8130  228.3160 C   0  0  0  0  0  0  0  0  0  0  0  0
  140.7490   71.4900  227.1130 C   0  0  0  0  0  0  0  0  0  0  0  0
  140.3380   70.9150  225.9160 C   0  0  0  0  0  0  0  0  0  0  0  0
  140.5110   71.5600  224.7400 N   0  0  0  0  0  0  0  0  0  0  0  0
  139.8950   73.6430  223.2110 H   0  0  0  0  0  0  0  0  0  0  0  0
  139.3975   74.0010  220.6015 H   0  0  0  0  0  0  0  0  0  0  0  0
  140.8275   74.8733  221.4407 H   0  0  0  0  0  0  0  0  0  0  0  0
  143.9136   71.7879  220.9138 H   0  0  0  0  0  0  0  0  0  0  0  0
  143.3169   71.5117  219.3032 H   0  0  0  0  0  0  0  0  0  0  0  0
  144.8665   73.4039  218.3839 H   0  0  0  0  0  0  0  0  0  0  0  0
  145.9530   71.7780  220.4940 H   0  0  0  0  0  0  0  0  0  0  0  0
  145.3022   73.7762  221.4554 H   0  0  0  0  0  0  0  0  0  0  0  0
  145.6655   74.9806  220.2610 H   0  0  0  0  0  0  0  0  0  0  0  0
  143.2408   74.9590  221.5280 H   0  0  0  0  0  0  0  0  0  0  0  0
  142.2800   76.8370  221.1350 H   0  0  0  0  0  0  0  0  0  0  0  0
  143.1333   78.5842  219.1419 H   0  0  0  0  0  0  0  0  0  0  0  0
  141.7679   77.6575  218.3834 H   0  0  0  0  0  0  0  0  0  0  0  0
  140.9876   79.7417  219.3838 H   0  0  0  0  0  0  0  0  0  0  0  0
  140.3145   78.2793  220.2208 H   0  0  0  0  0  0  0  0  0  0  0  0
  142.8111   79.1415  221.3673 H   0  0  0  0  0  0  0  0  0  0  0  0
  142.2135   81.4152  220.8310 H   0  0  0  0  0  0  0  0  0  0  0  0
  140.5012   81.1505  221.2475 H   0  0  0  0  0  0  0  0  0  0  0  0
  142.3899   82.1829  222.9665 H   0  0  0  0  0  0  0  0  0  0  0  0
  140.8866   81.3168  223.4876 H   0  0  0  0  0  0  0  0  0  0  0  0
  143.5665   79.9699  223.0057 H   0  0  0  0  0  0  0  0  0  0  0  0
  142.9690   80.5175  224.6125 H   0  0  0  0  0  0  0  0  0  0  0  0
  142.5427   78.0315  223.8621 H   0  0  0  0  0  0  0  0  0  0  0  0
  141.2164   78.9443  224.6385 H   0  0  0  0  0  0  0  0  0  0  0  0
  140.8944   77.6513  222.2949 H   0  0  0  0  0  0  0  0  0  0  0  0
  140.0421   79.1850  222.6551 H   0  0  0  0  0  0  0  0  0  0  0  0
  139.2267   69.3572  222.6165 H   0  0  0  0  0  0  0  0  0  0  0  0
  138.8832   68.1235  224.7248 H   0  0  0  0  0  0  0  0  0  0  0  0
  139.0926   67.9961  227.1176 H   0  0  0  0  0  0  0  0  0  0  0  0
  140.8855   71.2623  229.2675 H   0  0  0  0  0  0  0  0  0  0  0  0
  141.2213   72.4834  227.1100 H   0  0  0  0  0  0  0  0  0  0  0  0
  1  2  2  0
  2  3  1  0
  3  4  1  0
  4  5  1  0
  5  6  2  0
  5  7  1  0
  7  8  1  0
  8  9  1  0
  9 10  1  0
  9 11  1  0
 11 12  1  0
 12 13  1  0
 13 14  2  0
 13 15  1  0
 15 16  1  0
 16 17  1  0
 17 18  1  0
 18 19  1  0
 19 20  1  0
 20 21  1  0
 21 22  1  0
 22 23  1  0
  2 24  1  0
 24 25  2  0
 25 26  1  0
 26 27  2  0
 27 28  1  0
 28 29  2  0
 29 30  1  0
 29 31  1  0
 31 32  2  0
 32 33  1  0
 33 34  2  0
 12  7  1  0
 23 18  1  0
 34 24  1  0
 33 27  1  0
  3 35  1  0
  4 36  1  0
  4 37  1  0
  8 38  1  0
  8 39  1  0
  9 40  1  6
 10 41  1  0
 11 42  1  0
 11 43  1  0
 12 44  1  1
 15 45  1  0
 16 46  1  0
 16 47  1  0
 17 48  1  0
 17 49  1  0
 18 50  1  0
 19 51  1  0
 19 52  1  0
 20 53  1  0
 20 54  1  0
 21 55  1  0
 21 56  1  0
 22 57  1  0
 22 58  1  0
 23 59  1  0
 23 60  1  0
 25 61  1  0
 26 62  1  0
 28 63  1  0
 31 64  1  0
 32 65  1  0
M  END
>  <smiles>  (3) 
O=C(NCC(=O)N1C[C@H](O)C[C@H]1C(=O)NCCC1CCCCC1)c1ccc2cc(F)ccc2n1

>  <score_type>  (3) 
oracle

>  <origin>  (3) 
autodockgpu

>  <m_score__min__energy>  (3) 
-10.029999999999999

>  <m_primary>  (3) 
energy

>  <meeko>  (3) 
{"free_energy": -10.03, "intermolecular_energy": -12.71, "internal_energy": -1.72, "cluster_size": 7, "cluster_id": 1, "rank_in_cluster": 1}

>  <energy>  (3) 
-9.69

>  <cluster_rmsd>  (3) 
1.25

>  <rmsd>  (3) 
272.31

>  <cluster>  (3) 
1

$$$$

     RDKit          3D

 65 68  0  0  0  0  0  0  0  0999 V2000
  139.9620   73.0300  222.6690 O   0  0  0  0  0  0  0  0  0  0  0  0
  139.2750   72.0570  223.1300 C   0  0  0  0  0  0  0  0  0  0  0  0
  138.0500   71.6450  222.5270 N   0  0  0  0  0  0  0  0  0  0  0  0
  137.5530   72.3060  221.3810 C   0  0  0  0  0  0  0  0  0  0  0  0
  137.2580   73.7360  221.4520 C   0  0  0  0  0  0  0  0  0  0  0  0
  137.8140   74.4380  220.5080 O   0  0  0  0  0  0  0  0  0  0  0  0
  136.4680   74.4300  222.3960 N   0  0  0  0  0  0  0  0  0  0  0  0
  135.7050   73.9750  223.5380 C   0  0  0  0  0  0  0  0  0  0  0  0
  135.8050   75.1950  224.4740 C   0  0  2  0  0  0  0  0  0  0  0  0
  134.7580   75.0840  225.3850 O   0  0  0  0  0  0  0  0  0  0  0  0
  135.4230   76.2730  223.4770 C   0  0  0  0  0  0  0  0  0  0  0  0
  136.2950   75.8910  222.3110 C   0  0  1  0  0  0  0  0  0  0  0  0
  137.6100   76.5970  222.3570 C   0  0  0  0  0  0  0  0  0  0  0  0
  137.7150   77.8450  222.2130 O   0  0  0  0  0  0  0  0  0  0  0  0
  138.7580   75.7990  222.5700 N   0  0  0  0  0  0  0  0  0  0  0  0
  140.1050   76.3280  222.6400 C   0  0  0  0  0  0  0  0  0  0  0  0
  140.4080   77.2590  221.4970 C   0  0  0  0  0  0  0  0  0  0  0  0
  141.2900   78.4110  221.9250 C   0  0  0  0  0  0  0  0  0  0  0  0
  141.1130   79.6150  221.0300 C   0  0  0  0  0  0  0  0  0  0  0  0
  141.8230   80.7800  221.6850 C   0  0  0  0  0  0  0  0  0  0  0  0
  142.8360   80.3090  222.6980 C   0  0  0  0  0  0  0  0  0  0  0  0
  142.1300   79.6490  223.8670 C   0  0  0  0  0  0  0  0  0  0  0  0
  140.9670   78.8550  223.3300 C   0  0  0  0  0  0  0  0  0  0  0  0
  139.7830   71.3640  224.3100 C   0  0  0  0  0  0  0  0  0  0  0  0
  140.7870   71.9000  225.0810 C   0  0  0  0  0  0  0  0  0  0  0  0
  141.2550   71.2380  226.1910 C   0  0  0  0  0  0  0  0  0  0  0  0
  140.7210   70.0270  226.5450 C   0  0  0  0  0  0  0  0  0  0  0  0
  141.1770   69.3550  227.6520 C   0  0  0  0  0  0  0  0  0  0  0  0
  140.6200   68.1450  227.9800 C   0  0  0  0  0  0  0  0  0  0  0  0
  141.0850   67.4950  229.0790 F   0  0  0  0  0  0  0  0  0  0  0  0
  139.6110   67.5860  227.2220 C   0  0  0  0  0  0  0  0  0  0  0  0
  139.1550   68.2750  226.1020 C   0  0  0  0  0  0  0  0  0  0  0  0
  139.7130   69.5020  225.7600 C   0  0  0  0  0  0  0  0  0  0  0  0
  139.2810   70.1850  224.6760 N   0  0  0  0  0  0  0  0  0  0  0  0
  137.5680   70.8360  222.9930 H   0  0  0  0  0  0  0  0  0  0  0  0
  138.2990   72.1714  220.5839 H   0  0  0  0  0  0  0  0  0  0  0  0
  136.5676   71.8442  221.2205 H   0  0  0  0  0  0  0  0  0  0  0  0
  134.6610   73.7612  223.2654 H   0  0  0  0  0  0  0  0  0  0  0  0
  136.0721   73.0370  223.9800 H   0  0  0  0  0  0  0  0  0  0  0  0
  136.7522   75.3376  225.0148 H   0  0  0  0  0  0  0  0  0  0  0  0
  133.8870   75.0080  224.9230 H   0  0  0  0  0  0  0  0  0  0  0  0
  134.3550   76.2261  223.2177 H   0  0  0  0  0  0  0  0  0  0  0  0
  135.5659   77.3022  223.8380 H   0  0  0  0  0  0  0  0  0  0  0  0
  135.8322   76.1837  221.3570 H   0  0  0  0  0  0  0  0  0  0  0  0
  138.6450   74.7470  222.6890 H   0  0  0  0  0  0  0  0  0  0  0  0
  140.2214   76.8778  223.5856 H   0  0  0  0  0  0  0  0  0  0  0  0
  140.8048   75.4813  222.5817 H   0  0  0  0  0  0  0  0  0  0  0  0
  140.9209   76.6940  220.7047 H   0  0  0  0  0  0  0  0  0  0  0  0
  139.4561   77.6751  221.1353 H   0  0  0  0  0  0  0  0  0  0  0  0
  142.3230   78.0384  221.8618 H   0  0  0  0  0  0  0  0  0  0  0  0
  141.5526   79.4155  220.0416 H   0  0  0  0  0  0  0  0  0  0  0  0
  140.0452   79.8409  220.8928 H   0  0  0  0  0  0  0  0  0  0  0  0
  142.3382   81.3665  220.9100 H   0  0  0  0  0  0  0  0  0  0  0  0
  141.0730   81.3937  222.2055 H   0  0  0  0  0  0  0  0  0  0  0  0
  143.5143   79.5836  222.2251 H   0  0  0  0  0  0  0  0  0  0  0  0
  143.4108   81.1728  223.0634 H   0  0  0  0  0  0  0  0  0  0  0  0
  142.8268   78.9792  224.3923 H   0  0  0  0  0  0  0  0  0  0  0  0
  141.7736   80.4122  224.5745 H   0  0  0  0  0  0  0  0  0  0  0  0
  140.7954   77.9741  223.9660 H   0  0  0  0  0  0  0  0  0  0  0  0
  140.0594   79.4766  223.3266 H   0  0  0  0  0  0  0  0  0  0  0  0
  141.2219   72.8722  224.8058 H   0  0  0  0  0  0  0  0  0  0  0  0
  142.0596   71.6813  226.7961 H   0  0  0  0  0  0  0  0  0  0  0  0
  141.9807   69.7824  228.2695 H   0  0  0  0  0  0  0  0  0  0  0  0
  139.1755   66.6143  227.4979 H   0  0  0  0  0  0  0  0  0  0  0  0
  138.3506   67.8476  225.4853 H   0  0  0  0  0  0  0  0  0  0  0  0
  1  2  2  0
  2  3  1  0
  3  4  1  0
  4  5  1  0
  5  6  2  0
  5  7  1  0
  7  8  1  0
  8  9  1  0
  9 10  1  0
  9 11  1  0
 11 12  1  0
 12 13  1  0
 13 14  2  0
 13 15  1  0
 15 16  1  0
 16 17  1  0
 17 18  1  0
 18 19  1  0
 19 20  1  0
 20 21  1  0
 21 22  1  0
 22 23  1  0
  2 24  1  0
 24 25  2  0
 25 26  1  0
 26 27  2  0
 27 28  1  0
 28 29  2  0
 29 30  1  0
 29 31  1  0
 31 32  2  0
 32 33  1  0
 33 34  2  0
 12  7  1  0
 23 18  1  0
 34 24  1  0
 33 27  1  0
  3 35  1  0
  4 36  1  0
  4 37  1  0
  8 38  1  0
  8 39  1  0
  9 40  1  1
 10 41  1  0
 11 42  1  0
 11 43  1  0
 12 44  1  6
 15 45  1  0
 16 46  1  0
 16 47  1  0
 17 48  1  0
 17 49  1  0
 18 50  1  0
 19 51  1  0
 19 52  1  0
 20 53  1  0
 20 54  1  0
 21 55  1  0
 21 56  1  0
 22 57  1  0
 22 58  1  0
 23 59  1  0
 23 60  1  0
 25 61  1  0
 26 62  1  0
 28 63  1  0
 31 64  1  0
 32 65  1  0
M  END
>  <smiles>  (4) 
O=C(NCC(=O)N1C[C@H](O)C[C@H]1C(=O)NCCC1CCCCC1)c1ccc2cc(F)ccc2n1

>  <score_type>  (4) 
oracle

>  <origin>  (4) 
autodockgpu

>  <m_score__min__energy>  (4) 
-10.029999999999999

>  <m_primary>  (4) 
energy

>  <meeko>  (4) 
{"free_energy": -8.02, "intermolecular_energy": -10.7, "internal_energy": -3.07, "cluster_size": 1, "cluster_id": 4, "rank_in_cluster": 1}

>  <energy>  (4) 
-9.66

>  <cluster_rmsd>  (4) 
0.66

>  <rmsd>  (4) 
272.46

>  <cluster>  (4) 
1

$$$$

     RDKit          3D

 65 68  0  0  0  0  0  0  0  0999 V2000
  138.5960   75.5470  221.4350 O   0  0  0  0  0  0  0  0  0  0  0  0
  139.8130   75.8210  221.7080 C   0  0  0  0  0  0  0  0  0  0  0  0
  140.8660   74.8860  221.4870 N   0  0  0  0  0  0  0  0  0  0  0  0
  140.5930   73.6080  220.9480 C   0  0  0  0  0  0  0  0  0  0  0  0
  141.5970   72.9580  220.1060 C   0  0  0  0  0  0  0  0  0  0  0  0
  141.0950   72.2550  219.1340 O   0  0  0  0  0  0  0  0  0  0  0  0
  143.0050   72.9970  220.2180 N   0  0  0  0  0  0  0  0  0  0  0  0
  144.0080   71.9570  220.1520 C   0  0  0  0  0  0  0  0  0  0  0  0
  145.2060   72.7290  219.5660 C   0  0  2  0  0  0  0  0  0  0  0  0
  146.3450   71.9920  219.8780 O   0  0  0  0  0  0  0  0  0  0  0  0
  145.1760   73.9270  220.4980 C   0  0  0  0  0  0  0  0  0  0  0  0
  143.7100   74.2680  220.4600 C   0  0  1  0  0  0  0  0  0  0  0  0
  143.4080   75.2680  219.3930 C   0  0  0  0  0  0  0  0  0  0  0  0
  143.6300   75.0440  218.1730 O   0  0  0  0  0  0  0  0  0  0  0  0
  142.8530   76.5000  219.8100 N   0  0  0  0  0  0  0  0  0  0  0  0
  142.5050   77.5740  218.9020 C   0  0  0  0  0  0  0  0  0  0  0  0
  141.1330   78.1290  219.1810 C   0  0  0  0  0  0  0  0  0  0  0  0
  141.1890   79.5670  219.6440 C   0  0  0  0  0  0  0  0  0  0  0  0
  141.9860   80.4310  218.6930 C   0  0  0  0  0  0  0  0  0  0  0  0
  141.7640   81.8740  219.0930 C   0  0  0  0  0  0  0  0  0  0  0  0
  141.2620   81.9830  220.5100 C   0  0  0  0  0  0  0  0  0  0  0  0
  139.8680   81.3910  220.6120 C   0  0  0  0  0  0  0  0  0  0  0  0
  139.8090   80.1680  219.7340 C   0  0  0  0  0  0  0  0  0  0  0  0
  140.1050   77.1410  222.2600 C   0  0  0  0  0  0  0  0  0  0  0  0
  139.1130   77.9380  222.7810 C   0  0  0  0  0  0  0  0  0  0  0  0
  139.4030   79.1770  223.3000 C   0  0  0  0  0  0  0  0  0  0  0  0
  140.6940   79.6360  223.3030 C   0  0  0  0  0  0  0  0  0  0  0  0
  140.9980   80.8720  223.8200 C   0  0  0  0  0  0  0  0  0  0  0  0
  142.3000   81.3010  223.8110 C   0  0  0  0  0  0  0  0  0  0  0  0
  142.5810   82.5270  224.3260 F   0  0  0  0  0  0  0  0  0  0  0  0
  143.3150   80.5200  223.2930 C   0  0  0  0  0  0  0  0  0  0  0  0
  142.9950   79.2690  222.7720 C   0  0  0  0  0  0  0  0  0  0  0  0
  141.6780   78.8240  222.7770 C   0  0  0  0  0  0  0  0  0  0  0  0
  141.3530   77.6120  222.2760 N   0  0  0  0  0  0  0  0  0  0  0  0
  141.8270   75.2180  221.7520 H   0  0  0  0  0  0  0  0  0  0  0  0
  140.4020   72.9355  221.7972 H   0  0  0  0  0  0  0  0  0  0  0  0
  139.7533   73.7885  220.2608 H   0  0  0  0  0  0  0  0  0  0  0  0
  144.2373   71.5549  221.1499 H   0  0  0  0  0  0  0  0  0  0  0  0
  143.7071   71.0780  219.5631 H   0  0  0  0  0  0  0  0  0  0  0  0
  145.1874   72.9427  218.4871 H   0  0  0  0  0  0  0  0  0  0  0  0
  146.2770   71.5910  220.7790 H   0  0  0  0  0  0  0  0  0  0  0  0
  145.5046   73.6600  221.5132 H   0  0  0  0  0  0  0  0  0  0  0  0
  145.8456   74.7501  220.2080 H   0  0  0  0  0  0  0  0  0  0  0  0
  143.3862   74.7316  221.4035 H   0  0  0  0  0  0  0  0  0  0  0  0
  142.6750   76.6660  220.8460 H   0  0  0  0  0  0  0  0  0  0  0  0
  143.2433   78.3824  219.0092 H   0  0  0  0  0  0  0  0  0  0  0  0
  142.5046   77.1671  217.8800 H   0  0  0  0  0  0  0  0  0  0  0  0
  140.5338   78.0752  218.2601 H   0  0  0  0  0  0  0  0  0  0  0  0
  140.6803   77.5299  219.9848 H   0  0  0  0  0  0  0  0  0  0  0  0
  141.6694   79.5458  220.6333 H   0  0  0  0  0  0  0  0  0  0  0  0
  143.0549   80.1816  218.7653 H   0  0  0  0  0  0  0  0  0  0  0  0
  141.6634   80.2631  217.6548 H   0  0  0  0  0  0  0  0  0  0  0  0
  142.7157   82.4190  219.0080 H   0  0  0  0  0  0  0  0  0  0  0  0
  141.0050   82.3050  218.4236 H   0  0  0  0  0  0  0  0  0  0  0  0
  141.9407   81.4353  221.1804 H   0  0  0  0  0  0  0  0  0  0  0  0
  141.2270   83.0433  220.8009 H   0  0  0  0  0  0  0  0  0  0  0  0
  139.6581   81.1109  221.6548 H   0  0  0  0  0  0  0  0  0  0  0  0
  139.1183   82.1276  220.2874 H   0  0  0  0  0  0  0  0  0  0  0  0
  139.1139   79.4344  220.1683 H   0  0  0  0  0  0  0  0  0  0  0  0
  139.4562   80.4457  218.7298 H   0  0  0  0  0  0  0  0  0  0  0  0
  138.0732   77.5790  222.7824 H   0  0  0  0  0  0  0  0  0  0  0  0
  138.5973   79.8013  223.7137 H   0  0  0  0  0  0  0  0  0  0  0  0
  140.2052   81.5106  224.2367 H   0  0  0  0  0  0  0  0  0  0  0  0
  144.3547   80.8791  223.2921 H   0  0  0  0  0  0  0  0  0  0  0  0
  143.7875   78.6303  222.3548 H   0  0  0  0  0  0  0  0  0  0  0  0
  1  2  2  0
  2  3  1  0
  3  4  1  0
  4  5  1  0
  5  6  2  0
  5  7  1  0
  7  8  1  0
  8  9  1  0
  9 10  1  0
  9 11  1  0
 11 12  1  0
 12 13  1  0
 13 14  2  0
 13 15  1  0
 15 16  1  0
 16 17  1  0
 17 18  1  0
 18 19  1  0
 19 20  1  0
 20 21  1  0
 21 22  1  0
 22 23  1  0
  2 24  1  0
 24 25  2  0
 25 26  1  0
 26 27  2  0
 27 28  1  0
 28 29  2  0
 29 30  1  0
 29 31  1  0
 31 32  2  0
 32 33  1  0
 33 34  2  0
 12  7  1  0
 23 18  1  0
 34 24  1  0
 33 27  1  0
  3 35  1  0
  4 36  1  0
  4 37  1  0
  8 38  1  0
  8 39  1  0
  9 40  1  6
 10 41  1  0
 11 42  1  0
 11 43  1  0
 12 44  1  1
 15 45  1  0
 16 46  1  0
 16 47  1  0
 17 48  1  0
 17 49  1  0
 18 50  1  0
 19 51  1  0
 19 52  1  0
 20 53  1  0
 20 54  1  0
 21 55  1  0
 21 56  1  0
 22 57  1  0
 22 58  1  0
 23 59  1  0
 23 60  1  0
 25 61  1  0
 26 62  1  0
 28 63  1  0
 31 64  1  0
 32 65  1  0
M  END
>  <smiles>  (5) 
O=C(NCC(=O)N1C[C@H](O)C[C@H]1C(=O)NCCC1CCCCC1)c1ccc2cc(F)ccc2n1

>  <score_type>  (5) 
oracle

>  <origin>  (5) 
autodockgpu

>  <m_score__min__energy>  (5) 
-10.029999999999999

>  <m_primary>  (5) 
energy

>  <meeko>  (5) 
{"free_energy": -7.74, "intermolecular_energy": -10.42, "internal_energy": -4.43, "cluster_size": 2, "cluster_id": 5, "rank_in_cluster": 1}

>  <energy>  (5) 
-9.64

>  <cluster_rmsd>  (5) 
1.17

>  <rmsd>  (5) 
272.27

>  <cluster>  (5) 
1

$$$$

     RDKit          3D

 65 68  0  0  0  0  0  0  0  0999 V2000
  140.2220   73.3850  222.5670 O   0  0  0  0  0  0  0  0  0  0  0  0
  139.4710   72.3540  222.6100 C   0  0  0  0  0  0  0  0  0  0  0  0
  138.4770   72.1010  221.6200 N   0  0  0  0  0  0  0  0  0  0  0  0
  138.2910   72.9960  220.5420 C   0  0  0  0  0  0  0  0  0  0  0  0
  137.9350   74.3860  220.8190 C   0  0  0  0  0  0  0  0  0  0  0  0
  138.5440   75.2490  220.0590 O   0  0  0  0  0  0  0  0  0  0  0  0
  137.0390   74.8940  221.7860 N   0  0  0  0  0  0  0  0  0  0  0  0
  136.1800   74.2350  222.7470 C   0  0  0  0  0  0  0  0  0  0  0  0
  136.1560   75.2690  223.8900 C   0  0  2  0  0  0  0  0  0  0  0  0
  135.0280   74.9880  224.6560 O   0  0  0  0  0  0  0  0  0  0  0  0
  135.8450   76.5050  223.0660 C   0  0  0  0  0  0  0  0  0  0  0  0
  136.8370   76.3440  221.9440 C   0  0  1  0  0  0  0  0  0  0  0  0
  138.1220   77.0420  222.2460 C   0  0  0  0  0  0  0  0  0  0  0  0
  138.1930   78.2900  222.4110 O   0  0  0  0  0  0  0  0  0  0  0  0
  139.2810   76.2360  222.3420 N   0  0  0  0  0  0  0  0  0  0  0  0
  140.6020   76.7560  222.6280 C   0  0  0  0  0  0  0  0  0  0  0  0
  141.1050   77.6590  221.5320 C   0  0  0  0  0  0  0  0  0  0  0  0
  141.4900   79.0240  222.0570 C   0  0  0  0  0  0  0  0  0  0  0  0
  140.4030   80.0450  221.8090 C   0  0  0  0  0  0  0  0  0  0  0  0
  140.7610   81.2900  222.5910 C   0  0  0  0  0  0  0  0  0  0  0  0
  142.2250   81.3150  222.9490 C   0  0  0  0  0  0  0  0  0  0  0  0
  142.5360   80.2040  223.9330 C   0  0  0  0  0  0  0  0  0  0  0  0
  141.7310   78.9900  223.5450 C   0  0  0  0  0  0  0  0  0  0  0  0
  139.6600   71.4210  223.7180 C   0  0  0  0  0  0  0  0  0  0  0  0
  139.3300   70.0910  223.6020 C   0  0  0  0  0  0  0  0  0  0  0  0
  139.5150   69.2240  224.6520 C   0  0  0  0  0  0  0  0  0  0  0  0
  140.0340   69.6790  225.8360 C   0  0  0  0  0  0  0  0  0  0  0  0
  140.2260   68.8230  226.8930 C   0  0  0  0  0  0  0  0  0  0  0  0
  140.7490   69.3090  228.0630 C   0  0  0  0  0  0  0  0  0  0  0  0
  140.9300   68.4470  229.0980 F   0  0  0  0  0  0  0  0  0  0  0  0
  141.0870   70.6400  228.2060 C   0  0  0  0  0  0  0  0  0  0  0  0
  140.8890   71.4990  227.1280 C   0  0  0  0  0  0  0  0  0  0  0  0
  140.3590   71.0160  225.9360 C   0  0  0  0  0  0  0  0  0  0  0  0
  140.1630   71.8370  224.8810 N   0  0  0  0  0  0  0  0  0  0  0  0
  137.9150   71.2240  221.7590 H   0  0  0  0  0  0  0  0  0  0  0  0
  139.2324   73.0132  219.9733 H   0  0  0  0  0  0  0  0  0  0  0  0
  137.4056   72.5989  220.0239 H   0  0  0  0  0  0  0  0  0  0  0  0
  135.1736   74.0646  222.3370 H   0  0  0  0  0  0  0  0  0  0  0  0
  136.5267   73.2362  223.0505 H   0  0  0  0  0  0  0  0  0  0  0  0
  137.0416   75.3206  224.5404 H   0  0  0  0  0  0  0  0  0  0  0  0
  135.2280   74.3220  225.3580 H   0  0  0  0  0  0  0  0  0  0  0  0
  134.8090   76.4965  222.6964 H   0  0  0  0  0  0  0  0  0  0  0  0
  135.9250   77.4544  223.6158 H   0  0  0  0  0  0  0  0  0  0  0  0
  136.4618   76.7980  221.0150 H   0  0  0  0  0  0  0  0  0  0  0  0
  139.1950   75.1850  222.1980 H   0  0  0  0  0  0  0  0  0  0  0  0
  140.5628   77.3265  223.5677 H   0  0  0  0  0  0  0  0  0  0  0  0
  141.2920   75.9030  222.7075 H   0  0  0  0  0  0  0  0  0  0  0  0
  141.9872   77.1954  221.0663 H   0  0  0  0  0  0  0  0  0  0  0  0
  140.2938   77.7917  220.8010 H   0  0  0  0  0  0  0  0  0  0  0  0
  142.4080   79.3058  221.5204 H   0  0  0  0  0  0  0  0  0  0  0  0
  140.3456   80.2792  220.7358 H   0  0  0  0  0  0  0  0  0  0  0  0
  139.4252   79.6550  222.1281 H   0  0  0  0  0  0  0  0  0  0  0  0
  140.5269   82.1750  221.9810 H   0  0  0  0  0  0  0  0  0  0  0  0
  140.1774   81.2919  223.5234 H   0  0  0  0  0  0  0  0  0  0  0  0
  142.8254   81.1739  222.0382 H   0  0  0  0  0  0  0  0  0  0  0  0
  142.4683   82.2841  223.4090 H   0  0  0  0  0  0  0  0  0  0  0  0
  143.6093   79.9655  223.8979 H   0  0  0  0  0  0  0  0  0  0  0  0
  142.2783   80.5192  224.9549 H   0  0  0  0  0  0  0  0  0  0  0  0
  142.2863   78.0779  223.8091 H   0  0  0  0  0  0  0  0  0  0  0  0
  140.7699   78.9914  224.0801 H   0  0  0  0  0  0  0  0  0  0  0  0
  138.9123   69.7161  222.6560 H   0  0  0  0  0  0  0  0  0  0  0  0
  139.2461   68.1631  224.5420 H   0  0  0  0  0  0  0  0  0  0  0  0
  139.9628   67.7589  226.8014 H   0  0  0  0  0  0  0  0  0  0  0  0
  141.5043   71.0143  229.1524 H   0  0  0  0  0  0  0  0  0  0  0  0
  141.1526   72.5630  227.2194 H   0  0  0  0  0  0  0  0  0  0  0  0
  1  2  2  0
  2  3  1  0
  3  4  1  0
  4  5  1  0
  5  6  2  0
  5  7  1  0
  7  8  1  0
  8  9  1  0
  9 10  1  0
  9 11  1  0
 11 12  1  0
 12 13  1  0
 13 14  2  0
 13 15  1  0
 15 16  1  0
 16 17  1  0
 17 18  1  0
 18 19  1  0
 19 20  1  0
 20 21  1  0
 21 22  1  0
 22 23  1  0
  2 24  1  0
 24 25  2  0
 25 26  1  0
 26 27  2  0
 27 28  1  0
 28 29  2  0
 29 30  1  0
 29 31  1  0
 31 32  2  0
 32 33  1  0
 33 34  2  0
 12  7  1  0
 23 18  1  0
 34 24  1  0
 33 27  1  0
  3 35  1  0
  4 36  1  0
  4 37  1  0
  8 38  1  0
  8 39  1  0
  9 40  1  1
 10 41  1  0
 11 42  1  0
 11 43  1  0
 12 44  1  6
 15 45  1  0
 16 46  1  0
 16 47  1  0
 17 48  1  0
 17 49  1  0
 18 50  1  0
 19 51  1  0
 19 52  1  0
 20 53  1  0
 20 54  1  0
 21 55  1  0
 21 56  1  0
 22 57  1  0
 22 58  1  0
 23 59  1  0
 23 60  1  0
 25 61  1  0
 26 62  1  0
 28 63  1  0
 31 64  1  0
 32 65  1  0
M  END
>  <smiles>  (6) 
O=C(NCC(=O)N1C[C@H](O)C[C@H]1C(=O)NCCC1CCCCC1)c1ccc2cc(F)ccc2n1

>  <score_type>  (6) 
oracle

>  <origin>  (6) 
autodockgpu

>  <m_score__min__energy>  (6) 
-10.029999999999999

>  <m_primary>  (6) 
energy

>  <meeko>  (6) 
{"free_energy": -7.99, "intermolecular_energy": -10.68, "internal_energy": -2.87, "cluster_size": 4, "cluster_id": 2, "rank_in_cluster": 2}

>  <energy>  (6) 
-9.02

>  <cluster_rmsd>  (6) 
1.64

>  <rmsd>  (6) 
272.38

>  <cluster>  (6) 
1

$$$$

     RDKit          3D

 65 68  0  0  0  0  0  0  0  0999 V2000
  140.3790   73.1490  222.7190 O   0  0  0  0  0  0  0  0  0  0  0  0
  140.5000   71.8820  222.8170 C   0  0  0  0  0  0  0  0  0  0  0  0
  140.5770   71.0390  221.6700 N   0  0  0  0  0  0  0  0  0  0  0  0
  140.5250   71.5880  220.3680 C   0  0  0  0  0  0  0  0  0  0  0  0
  141.7320   71.5850  219.5430 C   0  0  0  0  0  0  0  0  0  0  0  0
  141.6190   70.8940  218.4460 O   0  0  0  0  0  0  0  0  0  0  0  0
  142.9710   72.2190  219.7850 N   0  0  0  0  0  0  0  0  0  0  0  0
  144.3010   71.9650  219.2760 C   0  0  0  0  0  0  0  0  0  0  0  0
  144.9060   73.3820  219.2910 C   0  0  2  0  0  0  0  0  0  0  0  0
  146.2890   73.2250  219.2720 O   0  0  0  0  0  0  0  0  0  0  0  0
  144.5160   73.7770  220.7030 C   0  0  0  0  0  0  0  0  0  0  0  0
  143.0710   73.3550  220.7170 C   0  0  1  0  0  0  0  0  0  0  0  0
  142.1700   74.4740  220.3070 C   0  0  0  0  0  0  0  0  0  0  0  0
  141.7580   74.6120  219.1230 O   0  0  0  0  0  0  0  0  0  0  0  0
  141.7900   75.3920  221.3130 N   0  0  0  0  0  0  0  0  0  0  0  0
  140.9250   76.5300  221.0800 C   0  0  0  0  0  0  0  0  0  0  0  0
  140.4260   77.1350  222.3650 C   0  0  0  0  0  0  0  0  0  0  0  0
  140.9380   78.5450  222.5610 C   0  0  0  0  0  0  0  0  0  0  0  0
  141.7820   78.6650  223.8090 C   0  0  0  0  0  0  0  0  0  0  0  0
  142.4540   80.0210  223.7760 C   0  0  0  0  0  0  0  0  0  0  0  0
  141.7450   80.9660  222.8390 C   0  0  0  0  0  0  0  0  0  0  0  0
  141.8940   80.4850  221.4080 C   0  0  0  0  0  0  0  0  0  0  0  0
  141.7990   78.9810  221.4030 C   0  0  0  0  0  0  0  0  0  0  0  0
  140.5600   71.3060  224.1580 C   0  0  0  0  0  0  0  0  0  0  0  0
  140.9500   72.0530  225.2440 C   0  0  0  0  0  0  0  0  0  0  0  0
  141.0000   71.5000  226.5010 C   0  0  0  0  0  0  0  0  0  0  0  0
  140.6580   70.1860  226.6870 C   0  0  0  0  0  0  0  0  0  0  0  0
  140.7010   69.6190  227.9370 C   0  0  0  0  0  0  0  0  0  0  0  0
  140.3500   68.3020  228.0900 C   0  0  0  0  0  0  0  0  0  0  0  0
  140.4000   67.7600  229.3350 F   0  0  0  0  0  0  0  0  0  0  0  0
  139.9550   67.5310  227.0160 C   0  0  0  0  0  0  0  0  0  0  0  0
  139.9140   68.1150  225.7520 C   0  0  0  0  0  0  0  0  0  0  0  0
  140.2680   69.4490  225.5860 C   0  0  0  0  0  0  0  0  0  0  0  0
  140.2320   70.0310  224.3670 N   0  0  0  0  0  0  0  0  0  0  0  0
  140.6710   70.0120  221.8700 H   0  0  0  0  0  0  0  0  0  0  0  0
  139.7561   71.0292  219.8143 H   0  0  0  0  0  0  0  0  0  0  0  0
  140.3307   72.6565  220.5427 H   0  0  0  0  0  0  0  0  0  0  0  0
  144.8597   71.2817  219.9325 H   0  0  0  0  0  0  0  0  0  0  0  0
  144.3204   71.4774  218.2902 H   0  0  0  0  0  0  0  0  0  0  0  0
  144.6010   74.0669  218.4861 H   0  0  0  0  0  0  0  0  0  0  0  0
  146.7470   74.0900  219.1330 H   0  0  0  0  0  0  0  0  0  0  0  0
  145.1056   73.2317  221.4547 H   0  0  0  0  0  0  0  0  0  0  0  0
  144.6865   74.8361  220.9462 H   0  0  0  0  0  0  0  0  0  0  0  0
  142.7516   73.0698  221.7302 H   0  0  0  0  0  0  0  0  0  0  0  0
  142.1520   75.2540  222.3050 H   0  0  0  0  0  0  0  0  0  0  0  0
  141.4868   77.2942  220.5229 H   0  0  0  0  0  0  0  0  0  0  0  0
  140.0522   76.1805  220.5090 H   0  0  0  0  0  0  0  0  0  0  0  0
  139.3264   77.1556  222.3449 H   0  0  0  0  0  0  0  0  0  0  0  0
  140.7960   76.5191  223.1980 H   0  0  0  0  0  0  0  0  0  0  0  0
  140.0444   79.1813  222.6423 H   0  0  0  0  0  0  0  0  0  0  0  0
  141.1452   78.5832  224.7022 H   0  0  0  0  0  0  0  0  0  0  0  0
  142.5326   77.8618  223.8475 H   0  0  0  0  0  0  0  0  0  0  0  0
  142.4456   80.4489  224.7893 H   0  0  0  0  0  0  0  0  0  0  0  0
  143.4849   79.8869  223.4164 H   0  0  0  0  0  0  0  0  0  0  0  0
  140.6773   81.0061  223.1007 H   0  0  0  0  0  0  0  0  0  0  0  0
  142.1891   81.9681  222.9317 H   0  0  0  0  0  0  0  0  0  0  0  0
  141.0920   80.9106  220.7870 H   0  0  0  0  0  0  0  0  0  0  0  0
  142.8637   80.8052  220.9992 H   0  0  0  0  0  0  0  0  0  0  0  0
  141.3479   78.6422  220.4587 H   0  0  0  0  0  0  0  0  0  0  0  0
  142.8034   78.5427  221.4981 H   0  0  0  0  0  0  0  0  0  0  0  0
  141.2260   73.1087  225.1048 H   0  0  0  0  0  0  0  0  0  0  0  0
  141.3148   72.1126  227.3587 H   0  0  0  0  0  0  0  0  0  0  0  0
  141.0138   70.2152  228.8069 H   0  0  0  0  0  0  0  0  0  0  0  0
  139.6778   66.4756  227.1553 H   0  0  0  0  0  0  0  0  0  0  0  0
  139.6005   67.5187  224.8825 H   0  0  0  0  0  0  0  0  0  0  0  0
  1  2  2  0
  2  3  1  0
  3  4  1  0
  4  5  1  0
  5  6  2  0
  5  7  1  0
  7  8  1  0
  8  9  1  0
  9 10  1  0
  9 11  1  0
 11 12  1  0
 12 13  1  0
 13 14  2  0
 13 15  1  0
 15 16  1  0
 16 17  1  0
 17 18  1  0
 18 19  1  0
 19 20  1  0
 20 21  1  0
 21 22  1  0
 22 23  1  0
  2 24  1  0
 24 25  2  0
 25 26  1  0
 26 27  2  0
 27 28  1  0
 28 29  2  0
 29 30  1  0
 29 31  1  0
 31 32  2  0
 32 33  1  0
 33 34  2  0
 12  7  1  0
 23 18  1  0
 34 24  1  0
 33 27  1  0
  3 35  1  0
  4 36  1  0
  4 37  1  0
  8 38  1  0
  8 39  1  0
  9 40  1  6
 10 41  1  0
 11 42  1  0
 11 43  1  0
 12 44  1  1
 15 45  1  0
 16 46  1  0
 16 47  1  0
 17 48  1  0
 17 49  1  0
 18 50  1  0
 19 51  1  0
 19 52  1  0
 20 53  1  0
 20 54  1  0
 21 55  1  0
 21 56  1  0
 22 57  1  0
 22 58  1  0
 23 59  1  0
 23 60  1  0
 25 61  1  0
 26 62  1  0
 28 63  1  0
 31 64  1  0
 32 65  1  0
M  END
>  <smiles>  (7) 
O=C(NCC(=O)N1C[C@H](O)C[C@H]1C(=O)NCCC1CCCCC1)c1ccc2cc(F)ccc2n1

>  <score_type>  (7) 
oracle

>  <origin>  (7) 
autodockgpu

>  <m_score__min__energy>  (7) 
-10.029999999999999

>  <m_primary>  (7) 
energy

>  <meeko>  (7) 
{"free_energy": -9.73, "intermolecular_energy": -12.42, "internal_energy": -2.21, "cluster_size": 7, "cluster_id": 1, "rank_in_cluster": 2}

>  <energy>  (7) 
-7.8

>  <cluster_rmsd>  (7) 
1.94

>  <rmsd>  (7) 
272.18

>  <cluster>  (7) 
1

$$$$

     RDKit          3D

 65 68  0  0  0  0  0  0  0  0999 V2000
  139.0950   70.6730  221.2830 O   0  0  0  0  0  0  0  0  0  0  0  0
  139.0140   71.4990  222.2520 C   0  0  0  0  0  0  0  0  0  0  0  0
  138.4300   72.7900  222.0980 N   0  0  0  0  0  0  0  0  0  0  0  0
  137.9090   73.2000  220.8500 C   0  0  0  0  0  0  0  0  0  0  0  0
  138.7540   73.9740  219.9420 C   0  0  0  0  0  0  0  0  0  0  0  0
  138.3790   73.9220  218.6970 O   0  0  0  0  0  0  0  0  0  0  0  0
  139.8990   74.7460  220.2420 N   0  0  0  0  0  0  0  0  0  0  0  0
  140.9850   75.2240  219.4140 C   0  0  0  0  0  0  0  0  0  0  0  0
  141.3530   76.5390  220.1280 C   0  0  2  0  0  0  0  0  0  0  0  0
  142.6480   76.8590  219.7300 O   0  0  0  0  0  0  0  0  0  0  0  0
  141.4360   76.0070  221.5460 C   0  0  0  0  0  0  0  0  0  0  0  0
  140.1620   75.2080  221.6150 C   0  0  1  0  0  0  0  0  0  0  0  0
  139.0300   76.0270  222.1400 C   0  0  0  0  0  0  0  0  0  0  0  0
  138.0330   75.5140  222.7170 O   0  0  0  0  0  0  0  0  0  0  0  0
  139.1160   77.4270  221.9620 N   0  0  0  0  0  0  0  0  0  0  0  0
  138.1040   78.3610  222.4110 C   0  0  0  0  0  0  0  0  0  0  0  0
  138.6710   79.4190  223.3200 C   0  0  0  0  0  0  0  0  0  0  0  0
  140.0810   79.8020  222.9280 C   0  0  0  0  0  0  0  0  0  0  0  0
  140.3070   81.2920  223.0430 C   0  0  0  0  0  0  0  0  0  0  0  0
  141.7930   81.5400  222.8910 C   0  0  0  0  0  0  0  0  0  0  0  0
  142.4810   80.3770  222.2230 C   0  0  0  0  0  0  0  0  0  0  0  0
  142.4380   79.1610  223.1290 C   0  0  0  0  0  0  0  0  0  0  0  0
  141.0980   79.1320  223.8180 C   0  0  0  0  0  0  0  0  0  0  0  0
  139.5450   71.0820  223.5470 C   0  0  0  0  0  0  0  0  0  0  0  0
  140.3670   71.9010  224.2850 C   0  0  0  0  0  0  0  0  0  0  0  0
  140.8570   71.4960  225.5030 C   0  0  0  0  0  0  0  0  0  0  0  0
  140.5290   70.2620  226.0010 C   0  0  0  0  0  0  0  0  0  0  0  0
  141.0110   69.8450  227.2180 C   0  0  0  0  0  0  0  0  0  0  0  0
  140.6620   68.6050  227.6880 C   0  0  0  0  0  0  0  0  0  0  0  0
  141.1490   68.2100  228.8940 F   0  0  0  0  0  0  0  0  0  0  0  0
  139.8390   67.7640  226.9670 C   0  0  0  0  0  0  0  0  0  0  0  0
  139.3560   68.1960  225.7340 C   0  0  0  0  0  0  0  0  0  0  0  0
  139.7030   69.4520  225.2480 C   0  0  0  0  0  0  0  0  0  0  0  0
  139.2410   69.8860  224.0540 N   0  0  0  0  0  0  0  0  0  0  0  0
  138.4210   73.3870  222.9630 H   0  0  0  0  0  0  0  0  0  0  0  0
  137.6102   72.2884  220.3118 H   0  0  0  0  0  0  0  0  0  0  0  0
  137.1059   73.9014  221.1204 H   0  0  0  0  0  0  0  0  0  0  0  0
  141.8288   74.5183  219.4097 H   0  0  0  0  0  0  0  0  0  0  0  0
  140.7224   75.3459  218.3528 H   0  0  0  0  0  0  0  0  0  0  0  0
  140.6917   77.4025  219.9635 H   0  0  0  0  0  0  0  0  0  0  0  0
  143.0630   77.5110  220.3460 H   0  0  0  0  0  0  0  0  0  0  0  0
  142.3222   75.3714  221.6899 H   0  0  0  0  0  0  0  0  0  0  0  0
  141.5335   76.7816  222.3209 H   0  0  0  0  0  0  0  0  0  0  0  0
  140.2625   74.3603  222.3088 H   0  0  0  0  0  0  0  0  0  0  0  0
  139.9680   77.8370  221.4720 H   0  0  0  0  0  0  0  0  0  0  0  0
  137.6585   78.8503  221.5323 H   0  0  0  0  0  0  0  0  0  0  0  0
  137.3504   77.7958  222.9789 H   0  0  0  0  0  0  0  0  0  0  0  0
  138.0320   80.3128  223.2676 H   0  0  0  0  0  0  0  0  0  0  0  0
  138.6996   79.0117  224.3414 H   0  0  0  0  0  0  0  0  0  0  0  0
  140.2032   79.4766  221.8843 H   0  0  0  0  0  0  0  0  0  0  0  0
  139.7554   81.8179  222.2498 H   0  0  0  0  0  0  0  0  0  0  0  0
  139.9495   81.6643  224.0144 H   0  0  0  0  0  0  0  0  0  0  0  0
  141.9443   82.4431  222.2814 H   0  0  0  0  0  0  0  0  0  0  0  0
  142.2262   81.6679  223.8940 H   0  0  0  0  0  0  0  0  0  0  0  0
  141.9696   80.1452  221.2771 H   0  0  0  0  0  0  0  0  0  0  0  0
  143.5296   80.6428  222.0237 H   0  0  0  0  0  0  0  0  0  0  0  0
  142.5689   78.2469  222.5313 H   0  0  0  0  0  0  0  0  0  0  0  0
  143.2461   79.2140  223.8734 H   0  0  0  0  0  0  0  0  0  0  0  0
  140.7990   78.0895  224.0019 H   0  0  0  0  0  0  0  0  0  0  0  0
  141.1602   79.6615  224.7802 H   0  0  0  0  0  0  0  0  0  0  0  0
  140.6358   72.8937  223.8949 H   0  0  0  0  0  0  0  0  0  0  0  0
  141.5140   72.1636  226.0797 H   0  0  0  0  0  0  0  0  0  0  0  0
  141.6696   70.4986  227.8089 H   0  0  0  0  0  0  0  0  0  0  0  0
  139.5697   66.7719  227.3584 H   0  0  0  0  0  0  0  0  0  0  0  0
  138.6982   67.5418  225.1430 H   0  0  0  0  0  0  0  0  0  0  0  0
  1  2  2  0
  2  3  1  0
  3  4  1  0
  4  5  1  0
  5  6  2  0
  5  7  1  0
  7  8  1  0
  8  9  1  0
  9 10  1  0
  9 11  1  0
 11 12  1  0
 12 13  1  0
 13 14  2  0
 13 15  1  0
 15 16  1  0
 16 17  1  0
 17 18  1  0
 18 19  1  0
 19 20  1  0
 20 21  1  0
 21 22  1  0
 22 23  1  0
  2 24  1  0
 24 25  2  0
 25 26  1  0
 26 27  2  0
 27 28  1  0
 28 29  2  0
 29 30  1  0
 29 31  1  0
 31 32  2  0
 32 33  1  0
 33 34  2  0
 12  7  1  0
 23 18  1  0
 34 24  1  0
 33 27  1  0
  3 35  1  0
  4 36  1  0
  4 37  1  0
  8 38  1  0
  8 39  1  0
  9 40  1  1
 10 41  1  0
 11 42  1  0
 11 43  1  0
 12 44  1  1
 15 45  1  0
 16 46  1  0
 16 47  1  0
 17 48  1  0
 17 49  1  0
 18 50  1  0
 19 51  1  0
 19 52  1  0
 20 53  1  0
 20 54  1  0
 21 55  1  0
 21 56  1  0
 22 57  1  0
 22 58  1  0
 23 59  1  0
 23 60  1  0
 25 61  1  0
 26 62  1  0
 28 63  1  0
 31 64  1  0
 32 65  1  0
M  END
>  <smiles>  (8) 
O=C(NCC(=O)N1C[C@H](O)C[C@H]1C(=O)NCCC1CCCCC1)c1ccc2cc(F)ccc2n1

>  <score_type>  (8) 
oracle

>  <origin>  (8) 
autodockgpu

>  <m_score__min__energy>  (8) 
-10.029999999999999

>  <m_primary>  (8) 
energy

>  <meeko>  (8) 
{"free_energy": -8.15, "intermolecular_energy": -10.83, "internal_energy": -2.69, "cluster_size": 4, "cluster_id": 2, "rank_in_cluster": 1}

>  <energy>  (8) 
-8.15

>  <cluster_rmsd>  (8) 
0.0

>  <rmsd>  (8) 
272.16

>  <cluster>  (8) 
2

$$$$

     RDKit          3D

 65 68  0  0  0  0  0  0  0  0999 V2000
  135.3640   76.2790  222.2140 O   0  0  0  0  0  0  0  0  0  0  0  0
  136.5940   76.0340  222.4500 C   0  0  0  0  0  0  0  0  0  0  0  0
  137.0990   74.7020  222.5220 N   0  0  0  0  0  0  0  0  0  0  0  0
  136.2410   73.5960  222.3280 C   0  0  0  0  0  0  0  0  0  0  0  0
  136.8040   72.2460  222.3330 C   0  0  0  0  0  0  0  0  0  0  0  0
  137.9440   72.1470  221.7150 O   0  0  0  0  0  0  0  0  0  0  0  0
  136.2740   71.0690  222.9080 N   0  0  0  0  0  0  0  0  0  0  0  0
  135.2670   70.1380  222.4470 C   0  0  0  0  0  0  0  0  0  0  0  0
  135.7600   68.8220  223.0790 C   0  0  2  0  0  0  0  0  0  0  0  0
  134.6660   67.9610  223.1090 O   0  0  0  0  0  0  0  0  0  0  0  0
  135.9770   69.3230  224.4950 C   0  0  0  0  0  0  0  0  0  0  0  0
  136.7360   70.5950  224.2230 C   0  0  1  0  0  0  0  0  0  0  0  0
  138.2110   70.3630  224.2290 C   0  0  0  0  0  0  0  0  0  0  0  0
  138.7180   69.2290  224.4440 O   0  0  0  0  0  0  0  0  0  0  0  0
  139.0360   71.4850  223.9820 N   0  0  0  0  0  0  0  0  0  0  0  0
  140.4840   71.4300  223.9540 C   0  0  0  0  0  0  0  0  0  0  0  0
  141.0790   71.4850  225.3350 C   0  0  0  0  0  0  0  0  0  0  0  0
  140.5790   70.3590  226.2120 C   0  0  0  0  0  0  0  0  0  0  0  0
  141.4640   69.1370  226.1120 C   0  0  0  0  0  0  0  0  0  0  0  0
  141.0430   68.1780  227.2040 C   0  0  0  0  0  0  0  0  0  0  0  0
  139.6540   68.4850  227.7020 C   0  0  0  0  0  0  0  0  0  0  0  0
  139.6420   69.8250  228.4130 C   0  0  0  0  0  0  0  0  0  0  0  0
  140.5520   70.7650  227.6630 C   0  0  0  0  0  0  0  0  0  0  0  0
  137.4890   77.1710  222.6460 C   0  0  0  0  0  0  0  0  0  0  0  0
  137.0030   78.4330  222.8960 C   0  0  0  0  0  0  0  0  0  0  0  0
  137.8570   79.4940  223.0820 C   0  0  0  0  0  0  0  0  0  0  0  0
  139.2120   79.3050  223.0180 C   0  0  0  0  0  0  0  0  0  0  0  0
  140.0770   80.3560  223.2030 C   0  0  0  0  0  0  0  0  0  0  0  0
  141.4290   80.1320  223.1350 C   0  0  0  0  0  0  0  0  0  0  0  0
  142.2680   81.1850  223.3200 F   0  0  0  0  0  0  0  0  0  0  0  0
  141.9420   78.8750  222.8850 C   0  0  0  0  0  0  0  0  0  0  0  0
  141.0560   77.8170  222.7000 C   0  0  0  0  0  0  0  0  0  0  0  0
  139.6840   78.0320  222.7660 C   0  0  0  0  0  0  0  0  0  0  0  0
  138.8120   77.0150  222.5900 N   0  0  0  0  0  0  0  0  0  0  0  0
  138.1270   74.6200  222.7260 H   0  0  0  0  0  0  0  0  0  0  0  0
  135.4851   73.6318  223.1264 H   0  0  0  0  0  0  0  0  0  0  0  0
  135.8783   73.7241  221.2974 H   0  0  0  0  0  0  0  0  0  0  0  0
  134.2671   70.4116  222.8150 H   0  0  0  0  0  0  0  0  0  0  0  0
  135.1570   70.0988  221.3532 H   0  0  0  0  0  0  0  0  0  0  0  0
  136.6124   68.3209  222.5969 H   0  0  0  0  0  0  0  0  0  0  0  0
  134.0280   68.1670  222.3820 H   0  0  0  0  0  0  0  0  0  0  0  0
  135.0234   69.5206  225.0064 H   0  0  0  0  0  0  0  0  0  0  0  0
  136.4940   68.6136  225.1579 H   0  0  0  0  0  0  0  0  0  0  0  0
  136.5481   71.3443  225.0061 H   0  0  0  0  0  0  0  0  0  0  0  0
  138.5850   72.4320  223.8030 H   0  0  0  0  0  0  0  0  0  0  0  0
  140.7941   70.4915  223.4712 H   0  0  0  0  0  0  0  0  0  0  0  0
  140.8456   72.3051  223.3941 H   0  0  0  0  0  0  0  0  0  0  0  0
  142.1736   71.4125  225.2534 H   0  0  0  0  0  0  0  0  0  0  0  0
  140.7769   72.4361  225.7977 H   0  0  0  0  0  0  0  0  0  0  0  0
  139.5651   70.1266  225.8543 H   0  0  0  0  0  0  0  0  0  0  0  0
  141.3391   68.6628  225.1274 H   0  0  0  0  0  0  0  0  0  0  0  0
  142.5219   69.4151  226.2282 H   0  0  0  0  0  0  0  0  0  0  0  0
  141.0618   67.1526  226.8063 H   0  0  0  0  0  0  0  0  0  0  0  0
  141.7432   68.2839  228.0457 H   0  0  0  0  0  0  0  0  0  0  0  0
  138.9604   68.5191  226.8489 H   0  0  0  0  0  0  0  0  0  0  0  0
  139.3412   67.6999  228.4061 H   0  0  0  0  0  0  0  0  0  0  0  0
  138.6192   70.2295  228.4276 H   0  0  0  0  0  0  0  0  0  0  0  0
  139.9887   69.7077  229.4503 H   0  0  0  0  0  0  0  0  0  0  0  0
  140.1749   71.7945  227.7520 H   0  0  0  0  0  0  0  0  0  0  0  0
  141.5673   70.7178  228.0836 H   0  0  0  0  0  0  0  0  0  0  0  0
  135.9163   78.5956  222.9478 H   0  0  0  0  0  0  0  0  0  0  0  0
  137.4514   80.4966  223.2826 H   0  0  0  0  0  0  0  0  0  0  0  0
  139.6901   81.3660  223.4034 H   0  0  0  0  0  0  0  0  0  0  0  0
  143.0287   78.7126  222.8330 H   0  0  0  0  0  0  0  0  0  0  0  0
  141.4431   76.8068  222.5008 H   0  0  0  0  0  0  0  0  0  0  0  0
  1  2  2  0
  2  3  1  0
  3  4  1  0
  4  5  1  0
  5  6  2  0
  5  7  1  0
  7  8  1  0
  8  9  1  0
  9 10  1  0
  9 11  1  0
 11 12  1  0
 12 13  1  0
 13 14  2  0
 13 15  1  0
 15 16  1  0
 16 17  1  0
 17 18  1  0
 18 19  1  0
 19 20  1  0
 20 21  1  0
 21 22  1  0
 22 23  1  0
  2 24  1  0
 24 25  2  0
 25 26  1  0
 26 27  2  0
 27 28  1  0
 28 29  2  0
 29 30  1  0
 29 31  1  0
 31 32  2  0
 32 33  1  0
 33 34  2  0
 12  7  1  0
 23 18  1  0
 34 24  1  0
 33 27  1  0
  3 35  1  0
  4 36  1  0
  4 37  1  0
  8 38  1  0
  8 39  1  0
  9 40  1  6
 10 41  1  0
 11 42  1  0
 11 43  1  0
 12 44  1  1
 15 45  1  0
 16 46  1  0
 16 47  1  0
 17 48  1  0
 17 49  1  0
 18 50  1  0
 19 51  1  0
 19 52  1  0
 20 53  1  0
 20 54  1  0
 21 55  1  0
 21 56  1  0
 22 57  1  0
 22 58  1  0
 23 59  1  0
 23 60  1  0
 25 61  1  0
 26 62  1  0
 28 63  1  0
 31 64  1  0
 32 65  1  0
M  END
>  <smiles>  (9) 
O=C(NCC(=O)N1C[C@H](O)C[C@H]1C(=O)NCCC1CCCCC1)c1ccc2cc(F)ccc2n1

>  <score_type>  (9) 
oracle

>  <origin>  (9) 
autodockgpu

>  <m_score__min__energy>  (9) 
-10.029999999999999

>  <m_primary>  (9) 
energy

>  <meeko>  (9) 
{"free_energy": -8.05, "intermolecular_energy": -10.73, "internal_energy": -2.6, "cluster_size": 4, "cluster_id": 3, "rank_in_cluster": 2}

>  <energy>  (9) 
-7.99

>  <cluster_rmsd>  (9) 
1.9

>  <rmsd>  (9) 
272.24

>  <cluster>  (9) 
2

$$$$

     RDKit          3D

 65 68  0  0  0  0  0  0  0  0999 V2000
  139.9910   74.0850  222.3210 O   0  0  0  0  0  0  0  0  0  0  0  0
  139.1660   74.9710  221.9130 C   0  0  0  0  0  0  0  0  0  0  0  0
  138.0310   74.6370  221.1180 N   0  0  0  0  0  0  0  0  0  0  0  0
  137.7760   73.2950  220.7540 C   0  0  0  0  0  0  0  0  0  0  0  0
  137.2200   72.3780  221.7480 C   0  0  0  0  0  0  0  0  0  0  0  0
  136.8890   72.9510  222.8680 O   0  0  0  0  0  0  0  0  0  0  0  0
  137.0060   70.9850  221.6440 N   0  0  0  0  0  0  0  0  0  0  0  0
  136.5100   70.1620  220.5640 C   0  0  0  0  0  0  0  0  0  0  0  0
  137.2640   68.8420  220.8180 C   0  0  2  0  0  0  0  0  0  0  0  0
  136.5530   67.8440  220.1570 O   0  0  0  0  0  0  0  0  0  0  0  0
  136.9690   68.6990  222.2990 C   0  0  0  0  0  0  0  0  0  0  0  0
  137.2900   70.0900  222.7790 C   0  0  1  0  0  0  0  0  0  0  0  0
  138.7140   70.2030  223.2170 C   0  0  0  0  0  0  0  0  0  0  0  0
  139.5810   69.3330  222.9330 O   0  0  0  0  0  0  0  0  0  0  0  0
  139.0610   71.3430  223.9770 N   0  0  0  0  0  0  0  0  0  0  0  0
  140.3950   71.6020  224.4780 C   0  0  0  0  0  0  0  0  0  0  0  0
  140.4550   71.5560  225.9820 C   0  0  0  0  0  0  0  0  0  0  0  0
  140.6690   70.1490  226.4960 C   0  0  0  0  0  0  0  0  0  0  0  0
  140.9930   70.1360  227.9720 C   0  0  0  0  0  0  0  0  0  0  0  0
  140.9280   68.6980  228.4400 C   0  0  0  0  0  0  0  0  0  0  0  0
  141.0450   67.7360  227.2860 C   0  0  0  0  0  0  0  0  0  0  0  0
  139.8250   67.8500  226.3910 C   0  0  0  0  0  0  0  0  0  0  0  0
  139.4350   69.3040  226.3080 C   0  0  0  0  0  0  0  0  0  0  0  0
  139.4180   76.3590  222.2890 C   0  0  0  0  0  0  0  0  0  0  0  0
  138.4110   77.1730  222.7510 C   0  0  0  0  0  0  0  0  0  0  0  0
  138.6630   78.4770  223.1030 C   0  0  0  0  0  0  0  0  0  0  0  0
  139.9310   78.9850  222.9980 C   0  0  0  0  0  0  0  0  0  0  0  0
  140.1980   80.2860  223.3480 C   0  0  0  0  0  0  0  0  0  0  0  0
  141.4780   80.7630  223.2330 C   0  0  0  0  0  0  0  0  0  0  0  0
  141.7220   82.0530  223.5840 F   0  0  0  0  0  0  0  0  0  0  0  0
  142.5070   79.9670  222.7720 C   0  0  0  0  0  0  0  0  0  0  0  0
  142.2260   78.6490  222.4200 C   0  0  0  0  0  0  0  0  0  0  0  0
  140.9310   78.1550  222.5330 C   0  0  0  0  0  0  0  0  0  0  0  0
  140.6430   76.8780  222.1970 N   0  0  0  0  0  0  0  0  0  0  0  0
  137.4240   75.4470  220.8370 H   0  0  0  0  0  0  0  0  0  0  0  0
  137.0709   73.3197  219.9101 H   0  0  0  0  0  0  0  0  0  0  0  0
  138.7765   72.8850  220.5516 H   0  0  0  0  0  0  0  0  0  0  0  0
  135.4209   70.0229  220.6314 H   0  0  0  0  0  0  0  0  0  0  0  0
  136.6723   70.5876  219.5627 H   0  0  0  0  0  0  0  0  0  0  0  0
  138.3220   68.8018  220.5196 H   0  0  0  0  0  0  0  0  0  0  0  0
  137.1560   67.2600  219.6350 H   0  0  0  0  0  0  0  0  0  0  0  0
  135.9153   68.4401  222.4799 H   0  0  0  0  0  0  0  0  0  0  0  0
  137.5314   67.8992  222.8030 H   0  0  0  0  0  0  0  0  0  0  0  0
  136.6854   70.3556  223.6587 H   0  0  0  0  0  0  0  0  0  0  0  0
  138.3110   72.0640  224.2040 H   0  0  0  0  0  0  0  0  0  0  0  0
  141.0797   70.8425  224.0725 H   0  0  0  0  0  0  0  0  0  0  0  0
  140.6860   72.6136  224.1585 H   0  0  0  0  0  0  0  0  0  0  0  0
  141.2864   72.1898  226.3242 H   0  0  0  0  0  0  0  0  0  0  0  0
  139.4927   71.9186  226.3725 H   0  0  0  0  0  0  0  0  0  0  0  0
  141.5112   69.7417  225.9174 H   0  0  0  0  0  0  0  0  0  0  0  0
  142.0026   70.5397  228.1384 H   0  0  0  0  0  0  0  0  0  0  0  0
  140.2781   70.7578  228.5308 H   0  0  0  0  0  0  0  0  0  0  0  0
  141.7527   68.5136  229.1441 H   0  0  0  0  0  0  0  0  0  0  0  0
  139.9546   68.5369  228.9264 H   0  0  0  0  0  0  0  0  0  0  0  0
  141.9476   67.9733  226.7038 H   0  0  0  0  0  0  0  0  0  0  0  0
  141.1125   66.7098  227.6762 H   0  0  0  0  0  0  0  0  0  0  0  0
  140.0635   67.4706  225.3864 H   0  0  0  0  0  0  0  0  0  0  0  0
  138.9951   67.2572  226.8031 H   0  0  0  0  0  0  0  0  0  0  0  0
  138.9908   69.5121  225.3234 H   0  0  0  0  0  0  0  0  0  0  0  0
  138.6983   69.5388  227.0904 H   0  0  0  0  0  0  0  0  0  0  0  0
  137.3895   76.7748  222.8401 H   0  0  0  0  0  0  0  0  0  0  0  0
  137.8450   79.1144  223.4698 H   0  0  0  0  0  0  0  0  0  0  0  0
  139.3929   80.9386  223.7168 H   0  0  0  0  0  0  0  0  0  0  0  0
  143.5285   80.3655  222.6844 H   0  0  0  0  0  0  0  0  0  0  0  0
  143.0312   77.9966  222.0513 H   0  0  0  0  0  0  0  0  0  0  0  0
  1  2  2  0
  2  3  1  0
  3  4  1  0
  4  5  1  0
  5  6  2  0
  5  7  1  0
  7  8  1  0
  8  9  1  0
  9 10  1  0
  9 11  1  0
 11 12  1  0
 12 13  1  0
 13 14  2  0
 13 15  1  0
 15 16  1  0
 16 17  1  0
 17 18  1  0
 18 19  1  0
 19 20  1  0
 20 21  1  0
 21 22  1  0
 22 23  1  0
  2 24  1  0
 24 25  2  0
 25 26  1  0
 26 27  2  0
 27 28  1  0
 28 29  2  0
 29 30  1  0
 29 31  1  0
 31 32  2  0
 32 33  1  0
 33 34  2  0
 12  7  1  0
 23 18  1  0
 34 24  1  0
 33 27  1  0
  3 35  1  0
  4 36  1  0
  4 37  1  0
  8 38  1  0
  8 39  1  0
  9 40  1  1
 10 41  1  0
 11 42  1  0
 11 43  1  0
 12 44  1  1
 15 45  1  0
 16 46  1  0
 16 47  1  0
 17 48  1  0
 17 49  1  0
 18 50  1  0
 19 51  1  0
 19 52  1  0
 20 53  1  0
 20 54  1  0
 21 55  1  0
 21 56  1  0
 22 57  1  0
 22 58  1  0
 23 59  1  0
 23 60  1  0
 25 61  1  0
 26 62  1  0
 28 63  1  0
 31 64  1  0
 32 65  1  0
M  END
>  <smiles>  (10) 
O=C(NCC(=O)N1C[C@H](O)C[C@H]1C(=O)NCCC1CCCCC1)c1ccc2cc(F)ccc2n1

>  <score_type>  (10) 
oracle

>  <origin>  (10) 
autodockgpu

>  <m_score__min__energy>  (10) 
-10.029999999999999

>  <m_primary>  (10) 
energy

>  <meeko>  (10) 
{"free_energy": -7.86, "intermolecular_energy": -10.55, "internal_energy": -2.63, "cluster_size": 4, "cluster_id": 3, "rank_in_cluster": 3}

>  <energy>  (10) 
-7.42

>  <cluster_rmsd>  (10) 
1.71

>  <rmsd>  (10) 
271.77

>  <cluster>  (10) 
2

$$$$

     RDKit          3D

 65 68  0  0  0  0  0  0  0  0999 V2000
  139.1690   71.0260  221.6200 O   0  0  0  0  0  0  0  0  0  0  0  0
  139.8100   71.4340  222.6460 C   0  0  0  0  0  0  0  0  0  0  0  0
  140.4930   72.6850  222.6610 N   0  0  0  0  0  0  0  0  0  0  0  0
  140.4800   73.5270  221.5260 C   0  0  0  0  0  0  0  0  0  0  0  0
  141.3790   73.2370  220.4100 C   0  0  0  0  0  0  0  0  0  0  0  0
  140.7670   72.9250  219.3050 O   0  0  0  0  0  0  0  0  0  0  0  0
  142.7920   73.2520  220.3860 N   0  0  0  0  0  0  0  0  0  0  0  0
  143.7660   72.1950  220.2250 C   0  0  0  0  0  0  0  0  0  0  0  0
  144.9150   72.9460  219.5260 C   0  0  2  0  0  0  0  0  0  0  0  0
  146.0660   72.1880  219.7270 O   0  0  0  0  0  0  0  0  0  0  0  0
  144.9960   74.1430  220.4540 C   0  0  0  0  0  0  0  0  0  0  0  0
  143.5390   74.5100  220.5570 C   0  0  1  0  0  0  0  0  0  0  0  0
  143.1530   75.5150  219.5230 C   0  0  0  0  0  0  0  0  0  0  0  0
  143.1020   75.2380  218.2940 O   0  0  0  0  0  0  0  0  0  0  0  0
  142.8410   76.8170  219.9800 N   0  0  0  0  0  0  0  0  0  0  0  0
  142.4500   77.9050  219.1080 C   0  0  0  0  0  0  0  0  0  0  0  0
  141.4080   78.7900  219.7380 C   0  0  0  0  0  0  0  0  0  0  0  0
  141.8200   79.2530  221.1170 C   0  0  0  0  0  0  0  0  0  0  0  0
  141.5900   80.7350  221.3020 C   0  0  0  0  0  0  0  0  0  0  0  0
  141.7780   81.0470  222.7710 C   0  0  0  0  0  0  0  0  0  0  0  0
  142.5660   79.9670  223.4670 C   0  0  0  0  0  0  0  0  0  0  0  0
  141.7630   78.6800  223.5000 C   0  0  0  0  0  0  0  0  0  0  0  0
  141.0290   78.5480  222.1910 C   0  0  0  0  0  0  0  0  0  0  0  0
  139.8240   70.5740  223.8250 C   0  0  0  0  0  0  0  0  0  0  0  0
  139.2500   69.3250  223.8110 C   0  0  0  0  0  0  0  0  0  0  0  0
  139.2730   68.5240  224.9280 C   0  0  0  0  0  0  0  0  0  0  0  0
  139.8740   68.9660  226.0780 C   0  0  0  0  0  0  0  0  0  0  0  0
  139.9060   68.1760  227.2010 C   0  0  0  0  0  0  0  0  0  0  0  0
  140.5170   68.6460  228.3350 C   0  0  0  0  0  0  0  0  0  0  0  0
  140.5380   67.8500  229.4360 F   0  0  0  0  0  0  0  0  0  0  0  0
  141.1010   69.8960  228.3750 C   0  0  0  0  0  0  0  0  0  0  0  0
  141.0630   70.6890  227.2310 C   0  0  0  0  0  0  0  0  0  0  0  0
  140.4460   70.2220  226.0760 C   0  0  0  0  0  0  0  0  0  0  0  0
  140.4030   70.9790  224.9570 N   0  0  0  0  0  0  0  0  0  0  0  0
  140.9900   72.9170  223.5580 H   0  0  0  0  0  0  0  0  0  0  0  0
  139.4556   73.5102  221.1256 H   0  0  0  0  0  0  0  0  0  0  0  0
  140.8456   74.4901  221.9117 H   0  0  0  0  0  0  0  0  0  0  0  0
  144.0832   71.7885  221.1967 H   0  0  0  0  0  0  0  0  0  0  0  0
  143.3948   71.3217  219.6686 H   0  0  0  0  0  0  0  0  0  0  0  0
  144.7963   73.1610  218.4538 H   0  0  0  0  0  0  0  0  0  0  0  0
  146.0200   71.6860  220.5770 H   0  0  0  0  0  0  0  0  0  0  0  0
  145.4161   73.8699  221.4332 H   0  0  0  0  0  0  0  0  0  0  0  0
  145.6489   74.9542  220.0996 H   0  0  0  0  0  0  0  0  0  0  0  0
  143.3160   74.9792  221.5266 H   0  0  0  0  0  0  0  0  0  0  0  0
  142.8910   77.0270  221.0230 H   0  0  0  0  0  0  0  0  0  0  0  0
  143.3383   78.5116  218.8778 H   0  0  0  0  0  0  0  0  0  0  0  0
  142.0169   77.4687  218.1958 H   0  0  0  0  0  0  0  0  0  0  0  0
  141.2559   79.6714  219.0977 H   0  0  0  0  0  0  0  0  0  0  0  0
  140.4806   78.2069  219.8373 H   0  0  0  0  0  0  0  0  0  0  0  0
  142.8913   79.0191  221.2049 H   0  0  0  0  0  0  0  0  0  0  0  0
  142.3145   81.3049  220.7017 H   0  0  0  0  0  0  0  0  0  0  0  0
  140.5773   81.0128  220.9744 H   0  0  0  0  0  0  0  0  0  0  0  0
  142.3162   82.0014  222.8680 H   0  0  0  0  0  0  0  0  0  0  0  0
  140.7855   81.1085  223.2412 H   0  0  0  0  0  0  0  0  0  0  0  0
  143.5074   79.7955  222.9244 H   0  0  0  0  0  0  0  0  0  0  0  0
  142.7827   80.2846  224.4976 H   0  0  0  0  0  0  0  0  0  0  0  0
  142.4390   77.8229  223.6357 H   0  0  0  0  0  0  0  0  0  0  0  0
  141.0479   78.7002  224.3356 H   0  0  0  0  0  0  0  0  0  0  0  0
  140.9217   77.4841  221.9329 H   0  0  0  0  0  0  0  0  0  0  0  0
  140.0293   78.9990  222.2759 H   0  0  0  0  0  0  0  0  0  0  0  0
  138.7654   68.9613  222.8929 H   0  0  0  0  0  0  0  0  0  0  0  0
  138.8086   67.5273  224.8989 H   0  0  0  0  0  0  0  0  0  0  0  0
  139.4463   67.1767  227.1908 H   0  0  0  0  0  0  0  0  0  0  0  0
  141.5870   70.2587  229.2927 H   0  0  0  0  0  0  0  0  0  0  0  0
  141.5227   71.6883  227.2412 H   0  0  0  0  0  0  0  0  0  0  0  0
  1  2  2  0
  2  3  1  0
  3  4  1  0
  4  5  1  0
  5  6  2  0
  5  7  1  0
  7  8  1  0
  8  9  1  0
  9 10  1  0
  9 11  1  0
 11 12  1  0
 12 13  1  0
 13 14  2  0
 13 15  1  0
 15 16  1  0
 16 17  1  0
 17 18  1  0
 18 19  1  0
 19 20  1  0
 20 21  1  0
 21 22  1  0
 22 23  1  0
  2 24  1  0
 24 25  2  0
 25 26  1  0
 26 27  2  0
 27 28  1  0
 28 29  2  0
 29 30  1  0
 29 31  1  0
 31 32  2  0
 32 33  1  0
 33 34  2  0
 12  7  1  0
 23 18  1  0
 34 24  1  0
 33 27  1  0
  3 35  1  0
  4 36  1  0
  4 37  1  0
  8 38  1  0
  8 39  1  0
  9 40  1  6
 10 41  1  0
 11 42  1  0
 11 43  1  0
 12 44  1  1
 15 45  1  0
 16 46  1  0
 16 47  1  0
 17 48  1  0
 17 49  1  0
 18 50  1  0
 19 51  1  0
 19 52  1  0
 20 53  1  0
 20 54  1  0
 21 55  1  0
 21 56  1  0
 22 57  1  0
 22 58  1  0
 23 59  1  0
 23 60  1  0
 25 61  1  0
 26 62  1  0
 28 63  1  0
 31 64  1  0
 32 65  1  0
M  END
>  <smiles>  (11) 
O=C(NCC(=O)N1C[C@H](O)C[C@H]1C(=O)NCCC1CCCCC1)c1ccc2cc(F)ccc2n1

>  <score_type>  (11) 
oracle

>  <origin>  (11) 
autodockgpu

>  <m_score__min__energy>  (11) 
-10.029999999999999

>  <m_primary>  (11) 
energy

>  <meeko>  (11) 
{"free_energy": -9.66, "intermolecular_energy": -12.34, "internal_energy": -1.95, "cluster_size": 7, "cluster_id": 1, "rank_in_cluster": 4}

>  <energy>  (11) 
-7.07

>  <cluster_rmsd>  (11) 
1.72

>  <rmsd>  (11) 
272.18

>  <cluster>  (11) 
2

$$$$

     RDKit          3D

 65 68  0  0  0  0  0  0  0  0999 V2000
  139.4010   71.0390  221.2330 O   0  0  0  0  0  0  0  0  0  0  0  0
  139.5240   71.6080  222.3690 C   0  0  0  0  0  0  0  0  0  0  0  0
  139.5610   73.0260  222.5030 N   0  0  0  0  0  0  0  0  0  0  0  0
  139.4570   73.8600  221.3670 C   0  0  0  0  0  0  0  0  0  0  0  0
  139.2990   75.3020  221.5500 C   0  0  0  0  0  0  0  0  0  0  0  0
  139.2830   75.6780  222.7950 O   0  0  0  0  0  0  0  0  0  0  0  0
  139.1620   76.3090  220.5680 N   0  0  0  0  0  0  0  0  0  0  0  0
  138.0040   77.0080  220.0560 C   0  0  0  0  0  0  0  0  0  0  0  0
  138.6120   78.3760  219.6920 C   0  0  2  0  0  0  0  0  0  0  0  0
  137.7410   78.9690  218.7830 O   0  0  0  0  0  0  0  0  0  0  0  0
  139.8150   77.8840  218.9090 C   0  0  0  0  0  0  0  0  0  0  0  0
  140.3370   76.8250  219.8440 C   0  0  1  0  0  0  0  0  0  0  0  0
  141.3540   77.3800  220.7860 C   0  0  0  0  0  0  0  0  0  0  0  0
  142.5670   77.5150  220.4700 O   0  0  0  0  0  0  0  0  0  0  0  0
  140.8990   77.7550  222.0710 N   0  0  0  0  0  0  0  0  0  0  0  0
  141.7570   78.3070  223.1000 C   0  0  0  0  0  0  0  0  0  0  0  0
  141.1020   79.4490  223.8310 C   0  0  0  0  0  0  0  0  0  0  0  0
  140.8790   80.6430  222.9290 C   0  0  0  0  0  0  0  0  0  0  0  0
  141.8860   80.6890  221.8030 C   0  0  0  0  0  0  0  0  0  0  0  0
  141.4250   81.7460  220.8220 C   0  0  0  0  0  0  0  0  0  0  0  0
  140.4530   82.7050  221.4620 C   0  0  0  0  0  0  0  0  0  0  0  0
  139.1630   81.9840  221.8040 C   0  0  0  0  0  0  0  0  0  0  0  0
  139.5110   80.6020  222.2960 C   0  0  0  0  0  0  0  0  0  0  0  0
  139.6270   70.7540  223.5500 C   0  0  0  0  0  0  0  0  0  0  0  0
  139.2040   69.4460  223.5300 C   0  0  0  0  0  0  0  0  0  0  0  0
  139.3090   68.6540  224.6480 C   0  0  0  0  0  0  0  0  0  0  0  0
  139.8400   69.1630  225.8040 C   0  0  0  0  0  0  0  0  0  0  0  0
  139.9520   68.3820  226.9290 C   0  0  0  0  0  0  0  0  0  0  0  0
  140.4890   68.9210  228.0690 C   0  0  0  0  0  0  0  0  0  0  0  0
  140.5910   68.1320  229.1720 F   0  0  0  0  0  0  0  0  0  0  0  0
  140.9200   70.2320  228.1150 C   0  0  0  0  0  0  0  0  0  0  0  0
  140.8020   71.0150  226.9700 C   0  0  0  0  0  0  0  0  0  0  0  0
  140.2590   70.4780  225.8080 C   0  0  0  0  0  0  0  0  0  0  0  0
  140.1390   71.2250  224.6880 N   0  0  0  0  0  0  0  0  0  0  0  0
  139.6690   73.3840  223.4860 H   0  0  0  0  0  0  0  0  0  0  0  0
  140.3713   73.7101  220.7741 H   0  0  0  0  0  0  0  0  0  0  0  0
  138.5088   73.5509  220.9028 H   0  0  0  0  0  0  0  0  0  0  0  0
  137.5884   76.5040  219.1710 H   0  0  0  0  0  0  0  0  0  0  0  0
  137.1628   77.0631  220.7627 H   0  0  0  0  0  0  0  0  0  0  0  0
  138.8138   79.0727  220.5189 H   0  0  0  0  0  0  0  0  0  0  0  0
  137.4260   78.3170  218.1090 H   0  0  0  0  0  0  0  0  0  0  0  0
  139.5213   77.4592  217.9378 H   0  0  0  0  0  0  0  0  0  0  0  0
  140.5439   78.6659  218.6495 H   0  0  0  0  0  0  0  0  0  0  0  0
  140.8486   76.0242  219.2899 H   0  0  0  0  0  0  0  0  0  0  0  0
  139.8700   77.6320  222.3140 H   0  0  0  0  0  0  0  0  0  0  0  0
  141.9982   77.5144  223.8236 H   0  0  0  0  0  0  0  0  0  0  0  0
  142.6649   78.6926  222.6132 H   0  0  0  0  0  0  0  0  0  0  0  0
  140.1303   79.1112  224.2204 H   0  0  0  0  0  0  0  0  0  0  0  0
  141.7707   79.7591  224.6476 H   0  0  0  0  0  0  0  0  0  0  0  0
  140.9845   81.5301  223.5708 H   0  0  0  0  0  0  0  0  0  0  0  0
  142.8788   80.9506  222.1977 H   0  0  0  0  0  0  0  0  0  0  0  0
  141.9598   79.7087  221.3094 H   0  0  0  0  0  0  0  0  0  0  0  0
  142.3001   82.3087  220.4649 H   0  0  0  0  0  0  0  0  0  0  0  0
  140.9159   81.2438  219.9862 H   0  0  0  0  0  0  0  0  0  0  0  0
  140.8967   83.1140  222.3817 H   0  0  0  0  0  0  0  0  0  0  0  0
  140.2348   83.5218  220.7582 H   0  0  0  0  0  0  0  0  0  0  0  0
  138.6259   82.5348  222.5903 H   0  0  0  0  0  0  0  0  0  0  0  0
  138.5173   81.9194  220.9158 H   0  0  0  0  0  0  0  0  0  0  0  0
  138.7689   80.2763  223.0398 H   0  0  0  0  0  0  0  0  0  0  0  0
  139.5091   79.8936  221.4544 H   0  0  0  0  0  0  0  0  0  0  0  0
  138.7759   69.0280  222.6069 H   0  0  0  0  0  0  0  0  0  0  0  0
  138.9661   67.6093  224.6148 H   0  0  0  0  0  0  0  0  0  0  0  0
  139.6142   67.3352  226.9148 H   0  0  0  0  0  0  0  0  0  0  0  0
  141.3482   70.6495  229.0382 H   0  0  0  0  0  0  0  0  0  0  0  0
  141.1394   72.0619  226.9846 H   0  0  0  0  0  0  0  0  0  0  0  0
  1  2  2  0
  2  3  1  0
  3  4  1  0
  4  5  1  0
  5  6  2  0
  5  7  1  0
  7  8  1  0
  8  9  1  0
  9 10  1  0
  9 11  1  0
 11 12  1  0
 12 13  1  0
 13 14  2  0
 13 15  1  0
 15 16  1  0
 16 17  1  0
 17 18  1  0
 18 19  1  0
 19 20  1  0
 20 21  1  0
 21 22  1  0
 22 23  1  0
  2 24  1  0
 24 25  2  0
 25 26  1  0
 26 27  2  0
 27 28  1  0
 28 29  2  0
 29 30  1  0
 29 31  1  0
 31 32  2  0
 32 33  1  0
 33 34  2  0
 12  7  1  0
 23 18  1  0
 34 24  1  0
 33 27  1  0
  3 35  1  0
  4 36  1  0
  4 37  1  0
  8 38  1  0
  8 39  1  0
  9 40  1  1
 10 41  1  0
 11 42  1  0
 11 43  1  0
 12 44  1  6
 15 45  1  0
 16 46  1  0
 16 47  1  0
 17 48  1  0
 17 49  1  0
 18 50  1  0
 19 51  1  0
 19 52  1  0
 20 53  1  0
 20 54  1  0
 21 55  1  0
 21 56  1  0
 22 57  1  0
 22 58  1  0
 23 59  1  0
 23 60  1  0
 25 61  1  0
 26 62  1  0
 28 63  1  0
 31 64  1  0
 32 65  1  0
M  END
>  <smiles>  (12) 
O=C(NCC(=O)N1C[C@H](O)C[C@H]1C(=O)NCCC1CCCCC1)c1ccc2cc(F)ccc2n1

>  <score_type>  (12) 
oracle

>  <origin>  (12) 
autodockgpu

>  <m_score__min__energy>  (12) 
-10.029999999999999

>  <m_primary>  (12) 
energy

>  <meeko>  (12) 
{"free_energy": -7.07, "intermolecular_energy": -9.75, "internal_energy": -3.33, "cluster_size": 4, "cluster_id": 2, "rank_in_cluster": 4}

>  <energy>  (12) 
-8.06

>  <cluster_rmsd>  (12) 
0.0

>  <rmsd>  (12) 
271.66

>  <cluster>  (12) 
3

$$$$

     RDKit          3D

 65 68  0  0  0  0  0  0  0  0999 V2000
  140.6930   75.8200  221.6260 O   0  0  0  0  0  0  0  0  0  0  0  0
  139.6450   75.2630  222.0960 C   0  0  0  0  0  0  0  0  0  0  0  0
  139.5730   73.8570  222.3210 N   0  0  0  0  0  0  0  0  0  0  0  0
  140.6770   73.0240  222.0310 C   0  0  0  0  0  0  0  0  0  0  0  0
  141.4560   73.2660  220.8170 C   0  0  0  0  0  0  0  0  0  0  0  0
  140.7310   73.5140  219.7660 O   0  0  0  0  0  0  0  0  0  0  0  0
  142.8590   73.2600  220.6510 N   0  0  0  0  0  0  0  0  0  0  0  0
  143.8010   72.1830  220.4370 C   0  0  0  0  0  0  0  0  0  0  0  0
  144.8820   72.8900  219.5950 C   0  0  2  0  0  0  0  0  0  0  0  0
  146.0390   72.1250  219.7120 O   0  0  0  0  0  0  0  0  0  0  0  0
  145.0670   74.1230  220.4590 C   0  0  0  0  0  0  0  0  0  0  0  0
  143.6310   74.5130  220.6930 C   0  0  1  0  0  0  0  0  0  0  0  0
  143.1530   75.4810  219.6610 C   0  0  0  0  0  0  0  0  0  0  0  0
  143.2310   75.2470  218.4250 O   0  0  0  0  0  0  0  0  0  0  0  0
  142.5980   76.6940  220.1300 N   0  0  0  0  0  0  0  0  0  0  0  0
  142.0890   77.7360  219.2620 C   0  0  0  0  0  0  0  0  0  0  0  0
  141.1310   78.6520  219.9760 C   0  0  0  0  0  0  0  0  0  0  0  0
  141.7610   79.2860  221.1960 C   0  0  0  0  0  0  0  0  0  0  0  0
  141.4780   80.7700  221.2640 C   0  0  0  0  0  0  0  0  0  0  0  0
  141.9140   81.2550  222.6310 C   0  0  0  0  0  0  0  0  0  0  0  0
  142.8810   80.2950  223.2740 C   0  0  0  0  0  0  0  0  0  0  0  0
  142.1790   78.9880  223.5930 C   0  0  0  0  0  0  0  0  0  0  0  0
  141.2260   78.6780  222.4680 C   0  0  0  0  0  0  0  0  0  0  0  0
  138.5010   76.1170  222.4050 C   0  0  0  0  0  0  0  0  0  0  0  0
  138.4750   77.4430  222.0410 C   0  0  0  0  0  0  0  0  0  0  0  0
  137.3910   78.2340  222.3350 C   0  0  0  0  0  0  0  0  0  0  0  0
  136.3150   77.7070  223.0010 C   0  0  0  0  0  0  0  0  0  0  0  0
  135.2240   78.4860  223.3000 C   0  0  0  0  0  0  0  0  0  0  0  0
  134.1630   77.9270  223.9650 C   0  0  0  0  0  0  0  0  0  0  0  0
  133.0930   78.7140  224.2530 F   0  0  0  0  0  0  0  0  0  0  0  0
  134.1650   76.5990  224.3410 C   0  0  0  0  0  0  0  0  0  0  0  0
  135.2750   75.8180  224.0320 C   0  0  0  0  0  0  0  0  0  0  0  0
  136.3570   76.3740  223.3590 C   0  0  0  0  0  0  0  0  0  0  0  0
  137.4410   75.6290  223.0500 N   0  0  0  0  0  0  0  0  0  0  0  0
  138.6590   73.5090  222.7080 H   0  0  0  0  0  0  0  0  0  0  0  0
  141.3719   73.1049  222.8798 H   0  0  0  0  0  0  0  0  0  0  0  0
  140.2212   72.0383  221.8563 H   0  0  0  0  0  0  0  0  0  0  0  0
  144.2104   71.8112  221.3879 H   0  0  0  0  0  0  0  0  0  0  0  0
  143.3668   71.2934  219.9574 H   0  0  0  0  0  0  0  0  0  0  0  0
  144.6587   73.0630  218.5319 H   0  0  0  0  0  0  0  0  0  0  0  0
  146.0170   71.5620  220.5240 H   0  0  0  0  0  0  0  0  0  0  0  0
  145.5818   73.8848  221.4015 H   0  0  0  0  0  0  0  0  0  0  0  0
  145.6877   74.9105  220.0067 H   0  0  0  0  0  0  0  0  0  0  0  0
  143.5106   75.0234  221.6599 H   0  0  0  0  0  0  0  0  0  0  0  0
  142.5430   76.8690  221.1790 H   0  0  0  0  0  0  0  0  0  0  0  0
  142.9355   78.3305  218.8878 H   0  0  0  0  0  0  0  0  0  0  0  0
  141.5441   77.2530  218.4375 H   0  0  0  0  0  0  0  0  0  0  0  0
  140.8167   79.4473  219.2841 H   0  0  0  0  0  0  0  0  0  0  0  0
  140.2704   78.0532  220.3087 H   0  0  0  0  0  0  0  0  0  0  0  0
  142.8424   79.1067  221.1037 H   0  0  0  0  0  0  0  0  0  0  0  0
  142.0434   81.2963  220.4809 H   0  0  0  0  0  0  0  0  0  0  0  0
  140.4074   80.9676  221.1063 H   0  0  0  0  0  0  0  0  0  0  0  0
  142.4013   82.2354  222.5240 H   0  0  0  0  0  0  0  0  0  0  0  0
  141.0230   81.3289  223.2718 H   0  0  0  0  0  0  0  0  0  0  0  0
  143.7155   80.1015  222.5839 H   0  0  0  0  0  0  0  0  0  0  0  0
  143.2629   80.7369  224.2061 H   0  0  0  0  0  0  0  0  0  0  0  0
  142.9201   78.1805  223.6862 H   0  0  0  0  0  0  0  0  0  0  0  0
  141.6305   79.0735  224.5426 H   0  0  0  0  0  0  0  0  0  0  0  0
  141.1377   77.5881  222.3481 H   0  0  0  0  0  0  0  0  0  0  0  0
  140.2336   79.0958  222.6932 H   0  0  0  0  0  0  0  0  0  0  0  0
  139.3338   77.8760  221.5072 H   0  0  0  0  0  0  0  0  0  0  0  0
  137.3865   79.2924  222.0354 H   0  0  0  0  0  0  0  0  0  0  0  0
  135.2016   79.5466  223.0092 H   0  0  0  0  0  0  0  0  0  0  0  0
  133.3060   76.1661  224.8746 H   0  0  0  0  0  0  0  0  0  0  0  0
  135.2961   74.7570  224.3214 H   0  0  0  0  0  0  0  0  0  0  0  0
  1  2  2  0
  2  3  1  0
  3  4  1  0
  4  5  1  0
  5  6  2  0
  5  7  1  0
  7  8  1  0
  8  9  1  0
  9 10  1  0
  9 11  1  0
 11 12  1  0
 12 13  1  0
 13 14  2  0
 13 15  1  0
 15 16  1  0
 16 17  1  0
 17 18  1  0
 18 19  1  0
 19 20  1  0
 20 21  1  0
 21 22  1  0
 22 23  1  0
  2 24  1  0
 24 25  2  0
 25 26  1  0
 26 27  2  0
 27 28  1  0
 28 29  2  0
 29 30  1  0
 29 31  1  0
 31 32  2  0
 32 33  1  0
 33 34  2  0
 12  7  1  0
 23 18  1  0
 34 24  1  0
 33 27  1  0
  3 35  1  0
  4 36  1  0
  4 37  1  0
  8 38  1  0
  8 39  1  0
  9 40  1  6
 10 41  1  0
 11 42  1  0
 11 43  1  0
 12 44  1  1
 15 45  1  0
 16 46  1  0
 16 47  1  0
 17 48  1  0
 17 49  1  0
 18 50  1  0
 19 51  1  0
 19 52  1  0
 20 53  1  0
 20 54  1  0
 21 55  1  0
 21 56  1  0
 22 57  1  0
 22 58  1  0
 23 59  1  0
 23 60  1  0
 25 61  1  0
 26 62  1  0
 28 63  1  0
 31 64  1  0
 32 65  1  0
M  END
>  <smiles>  (13) 
O=C(NCC(=O)N1C[C@H](O)C[C@H]1C(=O)NCCC1CCCCC1)c1ccc2cc(F)ccc2n1

>  <score_type>  (13) 
oracle

>  <origin>  (13) 
autodockgpu

>  <m_score__min__energy>  (13) 
-10.029999999999999

>  <m_primary>  (13) 
energy

>  <meeko>  (13) 
{"free_energy": -7.6, "intermolecular_energy": -10.28, "internal_energy": -3.35, "cluster_size": 1, "cluster_id": 6, "rank_in_cluster": 1}

>  <energy>  (13) 
-8.05

>  <cluster_rmsd>  (13) 
1.16

>  <rmsd>  (13) 
271.77

>  <cluster>  (13) 
3

$$$$

     RDKit          3D

 65 68  0  0  0  0  0  0  0  0999 V2000
  140.4710   72.9360  222.4600 O   0  0  0  0  0  0  0  0  0  0  0  0
  140.1650   71.7100  222.6430 C   0  0  0  0  0  0  0  0  0  0  0  0
  139.7150   70.8770  221.5770 N   0  0  0  0  0  0  0  0  0  0  0  0
  139.5960   71.3880  220.2650 C   0  0  0  0  0  0  0  0  0  0  0  0
  138.8290   72.6130  220.0410 C   0  0  0  0  0  0  0  0  0  0  0  0
  139.1550   73.2500  218.9550 O   0  0  0  0  0  0  0  0  0  0  0  0
  137.8070   73.1750  220.8400 N   0  0  0  0  0  0  0  0  0  0  0  0
  136.7560   72.5710  221.6280 C   0  0  0  0  0  0  0  0  0  0  0  0
  136.5920   73.6070  222.7580 C   0  0  2  0  0  0  0  0  0  0  0  0
  135.3320   73.3960  223.3110 O   0  0  0  0  0  0  0  0  0  0  0  0
  136.5050   74.8570  221.9030 C   0  0  0  0  0  0  0  0  0  0  0  0
  137.6670   74.6350  220.9720 C   0  0  1  0  0  0  0  0  0  0  0  0
  138.9190   75.2550  221.5020 C   0  0  0  0  0  0  0  0  0  0  0  0
  139.0610   75.5620  222.7170 O   0  0  0  0  0  0  0  0  0  0  0  0
  139.9590   75.4920  220.5740 N   0  0  0  0  0  0  0  0  0  0  0  0
  141.2330   76.0850  220.9250 C   0  0  0  0  0  0  0  0  0  0  0  0
  141.3630   77.4940  220.4090 C   0  0  0  0  0  0  0  0  0  0  0  0
  141.7900   78.4560  221.4960 C   0  0  0  0  0  0  0  0  0  0  0  0
  141.6120   79.8950  221.0700 C   0  0  0  0  0  0  0  0  0  0  0  0
  141.8090   80.7610  222.2960 C   0  0  0  0  0  0  0  0  0  0  0  0
  142.5580   80.0240  223.3770 C   0  0  0  0  0  0  0  0  0  0  0  0
  141.7110   78.8830  223.9080 C   0  0  0  0  0  0  0  0  0  0  0  0
  140.9740   78.2630  222.7490 C   0  0  0  0  0  0  0  0  0  0  0  0
  140.2900   71.1720  223.9940 C   0  0  0  0  0  0  0  0  0  0  0  0
  140.7640   71.9390  225.0320 C   0  0  0  0  0  0  0  0  0  0  0  0
  140.8750   71.4200  226.3000 C   0  0  0  0  0  0  0  0  0  0  0  0
  140.5120   70.1220  226.5460 C   0  0  0  0  0  0  0  0  0  0  0  0
  140.6150   69.5900  227.8080 C   0  0  0  0  0  0  0  0  0  0  0  0
  140.2410   68.2880  228.0210 C   0  0  0  0  0  0  0  0  0  0  0  0
  140.3520   67.7800  229.2770 F   0  0  0  0  0  0  0  0  0  0  0  0
  139.7630   67.4970  226.9960 C   0  0  0  0  0  0  0  0  0  0  0  0
  139.6610   68.0460  225.7200 C   0  0  0  0  0  0  0  0  0  0  0  0
  140.0380   69.3650  225.4930 C   0  0  0  0  0  0  0  0  0  0  0  0
  139.9430   69.9120  224.2610 N   0  0  0  0  0  0  0  0  0  0  0  0
  139.4880   69.8860  221.8440 H   0  0  0  0  0  0  0  0  0  0  0  0
  140.6165   71.5771  219.9004 H   0  0  0  0  0  0  0  0  0  0  0  0
  139.0159   70.6171  219.7367 H   0  0  0  0  0  0  0  0  0  0  0  0
  135.8293   72.4601  221.0458 H   0  0  0  0  0  0  0  0  0  0  0  0
  136.9842   71.5538  221.9791 H   0  0  0  0  0  0  0  0  0  0  0  0
  137.3504   73.6066  223.5547 H   0  0  0  0  0  0  0  0  0  0  0  0
  135.2620   73.8000  224.2110 H   0  0  0  0  0  0  0  0  0  0  0  0
  135.5516   74.9098  221.3569 H   0  0  0  0  0  0  0  0  0  0  0  0
  136.5433   75.8010  222.4665 H   0  0  0  0  0  0  0  0  0  0  0  0
  137.4890   75.1092  219.9955 H   0  0  0  0  0  0  0  0  0  0  0  0
  139.8150   75.2240  219.5530 H   0  0  0  0  0  0  0  0  0  0  0  0
  141.3283   76.0983  222.0208 H   0  0  0  0  0  0  0  0  0  0  0  0
  142.0271   75.4802  220.4629 H   0  0  0  0  0  0  0  0  0  0  0  0
  142.1134   77.5104  219.6048 H   0  0  0  0  0  0  0  0  0  0  0  0
  140.3777   77.8136  220.0387 H   0  0  0  0  0  0  0  0  0  0  0  0
  142.8522   78.2434  221.6870 H   0  0  0  0  0  0  0  0  0  0  0  0
  142.3570   80.1545  220.3034 H   0  0  0  0  0  0  0  0  0  0  0  0
  140.6105   80.0511  220.6426 H   0  0  0  0  0  0  0  0  0  0  0  0
  142.3801   81.6574  222.0127 H   0  0  0  0  0  0  0  0  0  0  0  0
  140.8186   81.0360  222.6877 H   0  0  0  0  0  0  0  0  0  0  0  0
  143.4937   79.6209  222.9622 H   0  0  0  0  0  0  0  0  0  0  0  0
  142.7839   80.7194  224.1988 H   0  0  0  0  0  0  0  0  0  0  0  0
  142.3568   78.1303  224.3839 H   0  0  0  0  0  0  0  0  0  0  0  0
  140.9962   79.2571  224.6557 H   0  0  0  0  0  0  0  0  0  0  0  0
  140.8299   77.1884  222.9346 H   0  0  0  0  0  0  0  0  0  0  0  0
  139.9904   78.7415  222.6322 H   0  0  0  0  0  0  0  0  0  0  0  0
  141.0585   72.9823  224.8452 H   0  0  0  0  0  0  0  0  0  0  0  0
  141.2560   72.0480  227.1188 H   0  0  0  0  0  0  0  0  0  0  0  0
  140.9938   70.2023  228.6397 H   0  0  0  0  0  0  0  0  0  0  0  0
  139.4685   66.4538  227.1831 H   0  0  0  0  0  0  0  0  0  0  0  0
  139.2808   67.4339  224.8889 H   0  0  0  0  0  0  0  0  0  0  0  0
  1  2  2  0
  2  3  1  0
  3  4  1  0
  4  5  1  0
  5  6  2  0
  5  7  1  0
  7  8  1  0
  8  9  1  0
  9 10  1  0
  9 11  1  0
 11 12  1  0
 12 13  1  0
 13 14  2  0
 13 15  1  0
 15 16  1  0
 16 17  1  0
 17 18  1  0
 18 19  1  0
 19 20  1  0
 20 21  1  0
 21 22  1  0
 22 23  1  0
  2 24  1  0
 24 25  2  0
 25 26  1  0
 26 27  2  0
 27 28  1  0
 28 29  2  0
 29 30  1  0
 29 31  1  0
 31 32  2  0
 32 33  1  0
 33 34  2  0
 12  7  1  0
 23 18  1  0
 34 24  1  0
 33 27  1  0
  3 35  1  0
  4 36  1  0
  4 37  1  0
  8 38  1  0
  8 39  1  0
  9 40  1  1
 10 41  1  0
 11 42  1  0
 11 43  1  0
 12 44  1  6
 15 45  1  0
 16 46  1  0
 16 47  1  0
 17 48  1  0
 17 49  1  0
 18 50  1  0
 19 51  1  0
 19 52  1  0
 20 53  1  0
 20 54  1  0
 21 55  1  0
 21 56  1  0
 22 57  1  0
 22 58  1  0
 23 59  1  0
 23 60  1  0
 25 61  1  0
 26 62  1  0
 28 63  1  0
 31 64  1  0
 32 65  1  0
M  END
>  <smiles>  (14) 
O=C(NCC(=O)N1C[C@H](O)C[C@H]1C(=O)NCCC1CCCCC1)c1ccc2cc(F)ccc2n1

>  <score_type>  (14) 
oracle

>  <origin>  (14) 
autodockgpu

>  <m_score__min__energy>  (14) 
-10.029999999999999

>  <m_primary>  (14) 
energy

>  <meeko>  (14) 
{"free_energy": -7.42, "intermolecular_energy": -10.1, "internal_energy": -3.15, "cluster_size": 4, "cluster_id": 2, "rank_in_cluster": 3}

>  <energy>  (14) 
-7.86

>  <cluster_rmsd>  (14) 
1.99

>  <rmsd>  (14) 
271.62

>  <cluster>  (14) 
3

$$$$

     RDKit          3D

 65 68  0  0  0  0  0  0  0  0999 V2000
  138.7820   71.0900  220.9900 O   0  0  0  0  0  0  0  0  0  0  0  0
  138.9380   71.7910  222.0460 C   0  0  0  0  0  0  0  0  0  0  0  0
  138.7800   73.2070  222.0430 N   0  0  0  0  0  0  0  0  0  0  0  0
  138.4380   73.8910  220.8540 C   0  0  0  0  0  0  0  0  0  0  0  0
  139.4860   74.2110  219.8860 C   0  0  0  0  0  0  0  0  0  0  0  0
  139.5570   73.3770  218.8910 O   0  0  0  0  0  0  0  0  0  0  0  0
  140.4070   75.2830  219.9010 N   0  0  0  0  0  0  0  0  0  0  0  0
  141.0540   76.0140  218.8350 C   0  0  0  0  0  0  0  0  0  0  0  0
  141.2190   77.4050  219.4780 C   0  0  2  0  0  0  0  0  0  0  0  0
  142.2180   78.0590  218.7620 O   0  0  0  0  0  0  0  0  0  0  0  0
  141.8240   76.9680  220.7990 C   0  0  0  0  0  0  0  0  0  0  0  0
  140.8900   75.8480  221.1730 C   0  0  1  0  0  0  0  0  0  0  0  0
  139.7570   76.3370  222.0140 C   0  0  0  0  0  0  0  0  0  0  0  0
  139.3290   75.6970  223.0120 O   0  0  0  0  0  0  0  0  0  0  0  0
  139.1700   77.5690  221.6440 N   0  0  0  0  0  0  0  0  0  0  0  0
  138.0650   78.1800  222.3540 C   0  0  0  0  0  0  0  0  0  0  0  0
  138.4380   79.5150  222.9430 C   0  0  0  0  0  0  0  0  0  0  0  0
  139.9150   79.8040  222.7930 C   0  0  0  0  0  0  0  0  0  0  0  0
  140.2110   81.2810  222.9150 C   0  0  0  0  0  0  0  0  0  0  0  0
  141.7130   81.4390  223.0170 C   0  0  0  0  0  0  0  0  0  0  0  0
  142.4310   80.2180  222.5020 C   0  0  0  0  0  0  0  0  0  0  0  0
  142.1590   79.0350  223.4120 C   0  0  0  0  0  0  0  0  0  0  0  0
  140.7210   79.1040  223.8580 C   0  0  0  0  0  0  0  0  0  0  0  0
  139.2860   71.0920  223.2810 C   0  0  0  0  0  0  0  0  0  0  0  0
  139.0760   69.7410  223.4250 C   0  0  0  0  0  0  0  0  0  0  0  0
  139.4110   69.0960  224.5910 C   0  0  0  0  0  0  0  0  0  0  0  0
  139.9610   69.7980  225.6320 C   0  0  0  0  0  0  0  0  0  0  0  0
  140.3020   69.1650  226.8030 C   0  0  0  0  0  0  0  0  0  0  0  0
  140.8530   69.8960  227.8240 C   0  0  0  0  0  0  0  0  0  0  0  0
  141.1830   69.2530  228.9750 F   0  0  0  0  0  0  0  0  0  0  0  0
  141.0730   71.2540  227.7040 C   0  0  0  0  0  0  0  0  0  0  0  0
  140.7250   71.8850  226.5130 C   0  0  0  0  0  0  0  0  0  0  0  0
  140.1650   71.1530  225.4710 C   0  0  0  0  0  0  0  0  0  0  0  0
  139.8230   71.7510  224.3080 N   0  0  0  0  0  0  0  0  0  0  0  0
  138.9360   73.6800  222.9690 H   0  0  0  0  0  0  0  0  0  0  0  0
  137.6952   73.2717  220.3298 H   0  0  0  0  0  0  0  0  0  0  0  0
  138.1007   74.8763  221.2081 H   0  0  0  0  0  0  0  0  0  0  0  0
  142.0276   75.5718  218.5769 H   0  0  0  0  0  0  0  0  0  0  0  0
  140.4938   76.0194  217.8884 H   0  0  0  0  0  0  0  0  0  0  0  0
  140.3249   78.0435  219.5319 H   0  0  0  0  0  0  0  0  0  0  0  0
  142.9910   78.2740  219.3390 H   0  0  0  0  0  0  0  0  0  0  0  0
  142.8568   76.6106  220.6739 H   0  0  0  0  0  0  0  0  0  0  0  0
  141.9061   77.7663  221.5514 H   0  0  0  0  0  0  0  0  0  0  0  0
  141.4050   75.0881  221.7791 H   0  0  0  0  0  0  0  0  0  0  0  0
  139.5490   78.0910  220.7980 H   0  0  0  0  0  0  0  0  0  0  0  0
  137.2290   78.3226  221.6535 H   0  0  0  0  0  0  0  0  0  0  0  0
  137.7835   77.5119  223.1813 H   0  0  0  0  0  0  0  0  0  0  0  0
  137.8674   80.3025  222.4290 H   0  0  0  0  0  0  0  0  0  0  0  0
  138.2022   79.4919  224.0172 H   0  0  0  0  0  0  0  0  0  0  0  0
  140.1929   79.4405  221.7927 H   0  0  0  0  0  0  0  0  0  0  0  0
  139.8371   81.8132  222.0279 H   0  0  0  0  0  0  0  0  0  0  0  0
  139.7167   81.7024  223.8027 H   0  0  0  0  0  0  0  0  0  0  0  0
  142.0220   82.3125  222.4241 H   0  0  0  0  0  0  0  0  0  0  0  0
  141.9756   81.5736  224.0767 H   0  0  0  0  0  0  0  0  0  0  0  0
  142.0749   79.9867  221.4873 H   0  0  0  0  0  0  0  0  0  0  0  0
  143.5127   80.4167  222.4810 H   0  0  0  0  0  0  0  0  0  0  0  0
  142.3346   78.0967  222.8653 H   0  0  0  0  0  0  0  0  0  0  0  0
  142.8288   79.0648  224.2840 H   0  0  0  0  0  0  0  0  0  0  0  0
  140.3311   78.0864  224.0077 H   0  0  0  0  0  0  0  0  0  0  0  0
  140.6497   79.6583  224.8055 H   0  0  0  0  0  0  0  0  0  0  0  0
  138.6340   69.1689  222.5959 H   0  0  0  0  0  0  0  0  0  0  0  0
  139.2375   68.0142  224.6893 H   0  0  0  0  0  0  0  0  0  0  0  0
  140.1349   68.0841  226.9200 H   0  0  0  0  0  0  0  0  0  0  0  0
  141.5146   71.8259  228.5334 H   0  0  0  0  0  0  0  0  0  0  0  0
  140.8933   72.9657  226.3955 H   0  0  0  0  0  0  0  0  0  0  0  0
  1  2  2  0
  2  3  1  0
  3  4  1  0
  4  5  1  0
  5  6  2  0
  5  7  1  0
  7  8  1  0
  8  9  1  0
  9 10  1  0
  9 11  1  0
 11 12  1  0
 12 13  1  0
 13 14  2  0
 13 15  1  0
 15 16  1  0
 16 17  1  0
 17 18  1  0
 18 19  1  0
 19 20  1  0
 20 21  1  0
 21 22  1  0
 22 23  1  0
  2 24  1  0
 24 25  2  0
 25 26  1  0
 26 27  2  0
 27 28  1  0
 28 29  2  0
 29 30  1  0
 29 31  1  0
 31 32  2  0
 32 33  1  0
 33 34  2  0
 12  7  1  0
 23 18  1  0
 34 24  1  0
 33 27  1  0
  3 35  1  0
  4 36  1  0
  4 37  1  0
  8 38  1  0
  8 39  1  0
  9 40  1  1
 10 41  1  0
 11 42  1  0
 11 43  1  0
 12 44  1  1
 15 45  1  0
 16 46  1  0
 16 47  1  0
 17 48  1  0
 17 49  1  0
 18 50  1  0
 19 51  1  0
 19 52  1  0
 20 53  1  0
 20 54  1  0
 21 55  1  0
 21 56  1  0
 22 57  1  0
 22 58  1  0
 23 59  1  0
 23 60  1  0
 25 61  1  0
 26 62  1  0
 28 63  1  0
 31 64  1  0
 32 65  1  0
M  END
>  <smiles>  (15) 
O=C(NCC(=O)N1C[C@H](O)C[C@H]1C(=O)NCCC1CCCCC1)c1ccc2cc(F)ccc2n1

>  <score_type>  (15) 
oracle

>  <origin>  (15) 
autodockgpu

>  <m_score__min__energy>  (15) 
-10.029999999999999

>  <m_primary>  (15) 
energy

>  <meeko>  (15) 
{"free_energy": -7.8, "intermolecular_energy": -10.49, "internal_energy": -2.93, "cluster_size": 7, "cluster_id": 1, "rank_in_cluster": 7}

>  <energy>  (15) 
-7.78

>  <cluster_rmsd>  (15) 
1.76

>  <rmsd>  (15) 
271.57

>  <cluster>  (15) 
3

$$$$

     RDKit          3D

 65 68  0  0  0  0  0  0  0  0999 V2000
  137.5160   76.0540  222.2770 O   0  0  0  0  0  0  0  0  0  0  0  0
  138.0710   74.9220  222.0790 C   0  0  0  0  0  0  0  0  0  0  0  0
  137.3700   73.6940  222.2640 N   0  0  0  0  0  0  0  0  0  0  0  0
  136.0170   73.6920  222.6750 C   0  0  0  0  0  0  0  0  0  0  0  0
  135.2190   72.4800  222.4990 C   0  0  0  0  0  0  0  0  0  0  0  0
  134.3760   72.5410  221.5100 O   0  0  0  0  0  0  0  0  0  0  0  0
  135.2470   71.2850  223.2530 N   0  0  0  0  0  0  0  0  0  0  0  0
  134.3440   70.1570  223.3080 C   0  0  0  0  0  0  0  0  0  0  0  0
  135.3150   69.0070  223.6410 C   0  0  2  0  0  0  0  0  0  0  0  0
  134.5440   67.9760  224.1710 O   0  0  0  0  0  0  0  0  0  0  0  0
  136.0470   69.6630  224.7980 C   0  0  0  0  0  0  0  0  0  0  0  0
  136.3370   71.0180  224.2070 C   0  0  1  0  0  0  0  0  0  0  0  0
  137.6690   71.0470  223.5320 C   0  0  0  0  0  0  0  0  0  0  0  0
  137.8310   70.6730  222.3390 O   0  0  0  0  0  0  0  0  0  0  0  0
  138.7630   71.5160  224.2950 N   0  0  0  0  0  0  0  0  0  0  0  0
  140.1180   71.6060  223.7890 C   0  0  0  0  0  0  0  0  0  0  0  0
  141.0970   70.8650  224.6600 C   0  0  0  0  0  0  0  0  0  0  0  0
  140.5270   70.5750  226.0310 C   0  0  0  0  0  0  0  0  0  0  0  0
  140.8550   69.1720  226.4870 C   0  0  0  0  0  0  0  0  0  0  0  0
  140.4790   69.0690  227.9500 C   0  0  0  0  0  0  0  0  0  0  0  0
  139.5060   70.1500  228.3470 C   0  0  0  0  0  0  0  0  0  0  0  0
  140.1800   71.5070  228.2710 C   0  0  0  0  0  0  0  0  0  0  0  0
  141.0860   71.5170  227.0660 C   0  0  0  0  0  0  0  0  0  0  0  0
  139.4660   74.9140  221.6480 C   0  0  0  0  0  0  0  0  0  0  0  0
  140.1060   76.0690  221.2630 C   0  0  0  0  0  0  0  0  0  0  0  0
  141.4200   76.0470  220.8620 C   0  0  0  0  0  0  0  0  0  0  0  0
  142.1130   74.8660  220.8420 C   0  0  0  0  0  0  0  0  0  0  0  0
  143.4280   74.8300  220.4450 C   0  0  0  0  0  0  0  0  0  0  0  0
  144.0940   73.6310  220.4380 C   0  0  0  0  0  0  0  0  0  0  0  0
  145.3940   73.6160  220.0420 F   0  0  0  0  0  0  0  0  0  0  0  0
  143.4750   72.4580  220.8200 C   0  0  0  0  0  0  0  0  0  0  0  0
  142.1420   72.5060  221.2210 C   0  0  0  0  0  0  0  0  0  0  0  0
  141.4570   73.7150  221.2310 C   0  0  0  0  0  0  0  0  0  0  0  0
  140.1640   73.7780  221.6190 N   0  0  0  0  0  0  0  0  0  0  0  0
  137.9280   72.8230  222.0750 H   0  0  0  0  0  0  0  0  0  0  0  0
  136.0072   73.9298  223.7489 H   0  0  0  0  0  0  0  0  0  0  0  0
  135.5388   74.4194  222.0026 H   0  0  0  0  0  0  0  0  0  0  0  0
  133.5870   70.2854  224.0957 H   0  0  0  0  0  0  0  0  0  0  0  0
  133.7613   70.0018  222.3880 H   0  0  0  0  0  0  0  0  0  0  0  0
  135.9363   68.6194  222.8202 H   0  0  0  0  0  0  0  0  0  0  0  0
  134.1760   67.4000  223.4570 H   0  0  0  0  0  0  0  0  0  0  0  0
  135.4098   69.7377  225.6916 H   0  0  0  0  0  0  0  0  0  0  0  0
  136.9350   69.1160  225.1476 H   0  0  0  0  0  0  0  0  0  0  0  0
  136.3820   71.7904  224.9889 H   0  0  0  0  0  0  0  0  0  0  0  0
  138.6000   71.8260  225.3000 H   0  0  0  0  0  0  0  0  0  0  0  0
  140.1480   71.1767  222.7767 H   0  0  0  0  0  0  0  0  0  0  0  0
  140.4072   72.6673  223.7806 H   0  0  0  0  0  0  0  0  0  0  0  0
  141.3553   69.9127  224.1738 H   0  0  0  0  0  0  0  0  0  0  0  0
  141.9864   71.4994  224.7884 H   0  0  0  0  0  0  0  0  0  0  0  0
  139.4382   70.7009  225.9382 H   0  0  0  0  0  0  0  0  0  0  0  0
  140.2794   68.4419  225.8991 H   0  0  0  0  0  0  0  0  0  0  0  0
  141.9250   68.9592  226.3462 H   0  0  0  0  0  0  0  0  0  0  0  0
  140.0170   68.0875  228.1322 H   0  0  0  0  0  0  0  0  0  0  0  0
  141.3926   69.1889  228.5508 H   0  0  0  0  0  0  0  0  0  0  0  0
  138.6436   70.1327  227.6644 H   0  0  0  0  0  0  0  0  0  0  0  0
  139.1684   69.9714  229.3786 H   0  0  0  0  0  0  0  0  0  0  0  0
  139.4194   72.2954  228.1713 H   0  0  0  0  0  0  0  0  0  0  0  0
  140.7624   71.6934  229.1854 H   0  0  0  0  0  0  0  0  0  0  0  0
  141.1377   72.5343  226.6506 H   0  0  0  0  0  0  0  0  0  0  0  0
  142.0975   71.1965  227.3560 H   0  0  0  0  0  0  0  0  0  0  0  0
  139.5586   77.0230  221.2763 H   0  0  0  0  0  0  0  0  0  0  0  0
  141.9163   76.9799  220.5564 H   0  0  0  0  0  0  0  0  0  0  0  0
  143.9410   75.7528  220.1362 H   0  0  0  0  0  0  0  0  0  0  0  0
  144.0234   71.5045  220.8080 H   0  0  0  0  0  0  0  0  0  0  0  0
  141.6295   71.5833  221.5309 H   0  0  0  0  0  0  0  0  0  0  0  0
  1  2  2  0
  2  3  1  0
  3  4  1  0
  4  5  1  0
  5  6  2  0
  5  7  1  0
  7  8  1  0
  8  9  1  0
  9 10  1  0
  9 11  1  0
 11 12  1  0
 12 13  1  0
 13 14  2  0
 13 15  1  0
 15 16  1  0
 16 17  1  0
 17 18  1  0
 18 19  1  0
 19 20  1  0
 20 21  1  0
 21 22  1  0
 22 23  1  0
  2 24  1  0
 24 25  2  0
 25 26  1  0
 26 27  2  0
 27 28  1  0
 28 29  2  0
 29 30  1  0
 29 31  1  0
 31 32  2  0
 32 33  1  0
 33 34  2  0
 12  7  1  0
 23 18  1  0
 34 24  1  0
 33 27  1  0
  3 35  1  0
  4 36  1  0
  4 37  1  0
  8 38  1  0
  8 39  1  0
  9 40  1  6
 10 41  1  0
 11 42  1  0
 11 43  1  0
 12 44  1  1
 15 45  1  0
 16 46  1  0
 16 47  1  0
 17 48  1  0
 17 49  1  0
 18 50  1  0
 19 51  1  0
 19 52  1  0
 20 53  1  0
 20 54  1  0
 21 55  1  0
 21 56  1  0
 22 57  1  0
 22 58  1  0
 23 59  1  0
 23 60  1  0
 25 61  1  0
 26 62  1  0
 28 63  1  0
 31 64  1  0
 32 65  1  0
M  END
>  <smiles>  (16) 
O=C(NCC(=O)N1C[C@H](O)C[C@H]1C(=O)NCCC1CCCCC1)c1ccc2cc(F)ccc2n1

>  <score_type>  (16) 
oracle

>  <origin>  (16) 
autodockgpu

>  <m_score__min__energy>  (16) 
-10.029999999999999

>  <m_primary>  (16) 
energy

>  <meeko>  (16) 
{"free_energy": -7.02, "intermolecular_energy": -9.7, "internal_energy": -3.24, "cluster_size": 1, "cluster_id": 7, "rank_in_cluster": 1}

>  <energy>  (16) 
-8.02

>  <cluster_rmsd>  (16) 
0.0

>  <rmsd>  (16) 
272.18

>  <cluster>  (16) 
4

$$$$

     RDKit          3D

 65 68  0  0  0  0  0  0  0  0999 V2000
  140.5690   73.5730  222.3350 O   0  0  0  0  0  0  0  0  0  0  0  0
  140.2560   72.3460  222.1740 C   0  0  0  0  0  0  0  0  0  0  0  0
  140.0790   71.7750  220.8800 N   0  0  0  0  0  0  0  0  0  0  0  0
  140.2500   72.5600  219.7170 C   0  0  0  0  0  0  0  0  0  0  0  0
  141.5230   72.5080  219.0000 C   0  0  0  0  0  0  0  0  0  0  0  0
  141.4000   72.3290  217.7170 O   0  0  0  0  0  0  0  0  0  0  0  0
  142.8340   72.6220  219.5150 N   0  0  0  0  0  0  0  0  0  0  0  0
  144.0470   71.8860  219.2390 C   0  0  0  0  0  0  0  0  0  0  0  0
  145.1190   72.9670  219.4790 C   0  0  2  0  0  0  0  0  0  0  0  0
  146.3190   72.2960  219.7010 O   0  0  0  0  0  0  0  0  0  0  0  0
  144.6300   73.4710  220.8230 C   0  0  0  0  0  0  0  0  0  0  0  0
  143.1600   73.6300  220.5390 C   0  0  1  0  0  0  0  0  0  0  0  0
  142.8400   75.0100  220.0630 C   0  0  0  0  0  0  0  0  0  0  0  0
  143.2830   75.4710  218.9770 O   0  0  0  0  0  0  0  0  0  0  0  0
  142.0080   75.7960  220.8930 N   0  0  0  0  0  0  0  0  0  0  0  0
  141.6050   77.1520  220.5770 C   0  0  0  0  0  0  0  0  0  0  0  0
  140.5540   77.6660  221.5250 C   0  0  0  0  0  0  0  0  0  0  0  0
  140.9840   78.9470  222.2040 C   0  0  0  0  0  0  0  0  0  0  0  0
  141.8340   78.6750  223.4240 C   0  0  0  0  0  0  0  0  0  0  0  0
  142.4260   79.9940  223.8710 C   0  0  0  0  0  0  0  0  0  0  0  0
  141.6520   81.1620  223.3150 C   0  0  0  0  0  0  0  0  0  0  0  0
  141.8130   81.2190  221.8070 C   0  0  0  0  0  0  0  0  0  0  0  0
  141.8060   79.8080  221.2780 C   0  0  0  0  0  0  0  0  0  0  0  0
  140.0830   71.5260  223.3700 C   0  0  0  0  0  0  0  0  0  0  0  0
  139.3640   70.3540  223.3390 C   0  0  0  0  0  0  0  0  0  0  0  0
  139.2110   69.5900  224.4710 C   0  0  0  0  0  0  0  0  0  0  0  0
  139.7780   69.9920  225.6530 C   0  0  0  0  0  0  0  0  0  0  0  0
  139.6340   69.2380  226.7920 C   0  0  0  0  0  0  0  0  0  0  0  0
  140.2150   69.6660  227.9580 C   0  0  0  0  0  0  0  0  0  0  0  0
  140.0620   68.9070  229.0750 F   0  0  0  0  0  0  0  0  0  0  0  0
  140.9410   70.8390  228.0150 C   0  0  0  0  0  0  0  0  0  0  0  0
  141.0810   71.5960  226.8540 C   0  0  0  0  0  0  0  0  0  0  0  0
  140.4960   71.1700  225.6670 C   0  0  0  0  0  0  0  0  0  0  0  0
  140.6240   71.8930  224.5320 N   0  0  0  0  0  0  0  0  0  0  0  0
  139.8190   70.7570  220.8680 H   0  0  0  0  0  0  0  0  0  0  0  0
  139.4683   72.2546  219.0058 H   0  0  0  0  0  0  0  0  0  0  0  0
  140.2034   73.5935  220.0908 H   0  0  0  0  0  0  0  0  0  0  0  0
  144.1690   71.0380  219.9289 H   0  0  0  0  0  0  0  0  0  0  0  0
  144.0807   71.4336  218.2369 H   0  0  0  0  0  0  0  0  0  0  0  0
  145.2576   73.7211  218.6902 H   0  0  0  0  0  0  0  0  0  0  0  0
  146.2730   71.7400  220.5180 H   0  0  0  0  0  0  0  0  0  0  0  0
  144.8120   72.7376  221.6223 H   0  0  0  0  0  0  0  0  0  0  0  0
  145.1292   74.3843  221.1790 H   0  0  0  0  0  0  0  0  0  0  0  0
  142.5622   73.4823  221.4505 H   0  0  0  0  0  0  0  0  0  0  0  0
  141.6470   75.3840  221.8060 H   0  0  0  0  0  0  0  0  0  0  0  0
  142.4868   77.8070  220.6360 H   0  0  0  0  0  0  0  0  0  0  0  0
  141.1760   77.1506  219.5641 H   0  0  0  0  0  0  0  0  0  0  0  0
  139.6288   77.8558  220.9611 H   0  0  0  0  0  0  0  0  0  0  0  0
  140.3955   76.9047  222.3030 H   0  0  0  0  0  0  0  0  0  0  0  0
  140.0556   79.4615  222.4927 H   0  0  0  0  0  0  0  0  0  0  0  0
  141.2132   78.2509  224.2270 H   0  0  0  0  0  0  0  0  0  0  0  0
  142.6303   77.9539  223.1877 H   0  0  0  0  0  0  0  0  0  0  0  0
  142.4050   80.0415  224.9698 H   0  0  0  0  0  0  0  0  0  0  0  0
  143.4587   80.0540  223.4969 H   0  0  0  0  0  0  0  0  0  0  0  0
  140.5869   81.0450  223.5637 H   0  0  0  0  0  0  0  0  0  0  0  0
  142.0371   82.0936  223.7553 H   0  0  0  0  0  0  0  0  0  0  0  0
  140.9807   81.7863  221.3650 H   0  0  0  0  0  0  0  0  0  0  0  0
  142.7576   81.7179  221.5448 H   0  0  0  0  0  0  0  0  0  0  0  0
  141.3652   79.7930  220.2703 H   0  0  0  0  0  0  0  0  0  0  0  0
  142.8352   79.4233  221.2245 H   0  0  0  0  0  0  0  0  0  0  0  0
  138.9052   70.0237  222.3954 H   0  0  0  0  0  0  0  0  0  0  0  0
  138.6331   68.6550  224.4288 H   0  0  0  0  0  0  0  0  0  0  0  0
  139.0587   68.3007  226.7691 H   0  0  0  0  0  0  0  0  0  0  0  0
  141.3998   71.1693  228.9586 H   0  0  0  0  0  0  0  0  0  0  0  0
  141.6560   72.5335  226.8765 H   0  0  0  0  0  0  0  0  0  0  0  0
  1  2  2  0
  2  3  1  0
  3  4  1  0
  4  5  1  0
  5  6  2  0
  5  7  1  0
  7  8  1  0
  8  9  1  0
  9 10  1  0
  9 11  1  0
 11 12  1  0
 12 13  1  0
 13 14  2  0
 13 15  1  0
 15 16  1  0
 16 17  1  0
 17 18  1  0
 18 19  1  0
 19 20  1  0
 20 21  1  0
 21 22  1  0
 22 23  1  0
  2 24  1  0
 24 25  2  0
 25 26  1  0
 26 27  2  0
 27 28  1  0
 28 29  2  0
 29 30  1  0
 29 31  1  0
 31 32  2  0
 32 33  1  0
 33 34  2  0
 12  7  1  0
 23 18  1  0
 34 24  1  0
 33 27  1  0
  3 35  1  0
  4 36  1  0
  4 37  1  0
  8 38  1  0
  8 39  1  0
  9 40  1  6
 10 41  1  0
 11 42  1  0
 11 43  1  0
 12 44  1  1
 15 45  1  0
 16 46  1  0
 16 47  1  0
 17 48  1  0
 17 49  1  0
 18 50  1  0
 19 51  1  0
 19 52  1  0
 20 53  1  0
 20 54  1  0
 21 55  1  0
 21 56  1  0
 22 57  1  0
 22 58  1  0
 23 59  1  0
 23 60  1  0
 25 61  1  0
 26 62  1  0
 28 63  1  0
 31 64  1  0
 32 65  1  0
M  END
>  <smiles>  (17) 
O=C(NCC(=O)N1C[C@H](O)C[C@H]1C(=O)NCCC1CCCCC1)c1ccc2cc(F)ccc2n1

>  <score_type>  (17) 
oracle

>  <origin>  (17) 
autodockgpu

>  <m_score__min__energy>  (17) 
-10.029999999999999

>  <m_primary>  (17) 
energy

>  <meeko>  (17) 
{"free_energy": -9.64, "intermolecular_energy": -12.33, "internal_energy": -2.46, "cluster_size": 7, "cluster_id": 1, "rank_in_cluster": 5}

>  <energy>  (17) 
-7.74

>  <cluster_rmsd>  (17) 
0.0

>  <rmsd>  (17) 
272.28

>  <cluster>  (17) 
5

$$$$

     RDKit          3D

 65 68  0  0  0  0  0  0  0  0999 V2000
  139.9510   73.6900  222.5950 O   0  0  0  0  0  0  0  0  0  0  0  0
  139.6180   74.4680  221.6400 C   0  0  0  0  0  0  0  0  0  0  0  0
  138.6830   74.0750  220.6370 N   0  0  0  0  0  0  0  0  0  0  0  0
  138.0840   72.7960  220.6730 C   0  0  0  0  0  0  0  0  0  0  0  0
  137.2740   72.4180  221.8300 C   0  0  0  0  0  0  0  0  0  0  0  0
  137.0800   73.3850  222.6780 O   0  0  0  0  0  0  0  0  0  0  0  0
  136.6960   71.1640  222.1340 N   0  0  0  0  0  0  0  0  0  0  0  0
  135.8670   70.2690  221.3560 C   0  0  0  0  0  0  0  0  0  0  0  0
  136.2800   68.9000  221.9290 C   0  0  2  0  0  0  0  0  0  0  0  0
  135.2560   68.0120  221.6150 O   0  0  0  0  0  0  0  0  0  0  0  0
  136.1550   69.2280  223.4050 C   0  0  0  0  0  0  0  0  0  0  0  0
  136.8840   70.5450  223.4570 C   0  0  1  0  0  0  0  0  0  0  0  0
  138.3330   70.3550  223.7670 C   0  0  0  0  0  0  0  0  0  0  0  0
  138.8570   69.2150  223.8850 O   0  0  0  0  0  0  0  0  0  0  0  0
  139.1110   71.5250  223.9270 N   0  0  0  0  0  0  0  0  0  0  0  0
  140.5280   71.5150  224.2310 C   0  0  0  0  0  0  0  0  0  0  0  0
  140.7910   71.5740  225.7120 C   0  0  0  0  0  0  0  0  0  0  0  0
  140.3840   70.2940  226.4090 C   0  0  0  0  0  0  0  0  0  0  0  0
  141.3320   69.1600  226.0920 C   0  0  0  0  0  0  0  0  0  0  0  0
  141.0020   68.0160  227.0270 C   0  0  0  0  0  0  0  0  0  0  0  0
  139.6160   68.1560  227.6020 C   0  0  0  0  0  0  0  0  0  0  0  0
  139.5540   69.3630  228.5190 C   0  0  0  0  0  0  0  0  0  0  0  0
  140.3840   70.4630  227.9070 C   0  0  0  0  0  0  0  0  0  0  0  0
  140.2270   75.7940  221.5980 C   0  0  0  0  0  0  0  0  0  0  0  0
  141.1540   76.1290  220.6390 C   0  0  0  0  0  0  0  0  0  0  0  0
  141.7180   77.3820  220.6090 C   0  0  0  0  0  0  0  0  0  0  0  0
  141.3600   78.3190  221.5430 C   0  0  0  0  0  0  0  0  0  0  0  0
  141.9150   79.5760  221.5250 C   0  0  0  0  0  0  0  0  0  0  0  0
  141.5330   80.4910  222.4730 C   0  0  0  0  0  0  0  0  0  0  0  0
  142.0940   81.7290  222.4390 F   0  0  0  0  0  0  0  0  0  0  0  0
  140.6050   80.1790  223.4460 C   0  0  0  0  0  0  0  0  0  0  0  0
  140.0490   78.9030  223.4550 C   0  0  0  0  0  0  0  0  0  0  0  0
  140.4290   77.9670  222.4990 C   0  0  0  0  0  0  0  0  0  0  0  0
  139.8970   76.7240  222.4940 N   0  0  0  0  0  0  0  0  0  0  0  0
  138.4870   74.7950  219.8970 H   0  0  0  0  0  0  0  0  0  0  0  0
  137.4348   72.7206  219.7882 H   0  0  0  0  0  0  0  0  0  0  0  0
  138.9410   72.1080  220.7188 H   0  0  0  0  0  0  0  0  0  0  0  0
  134.7973   70.4675  221.5186 H   0  0  0  0  0  0  0  0  0  0  0  0
  136.0021   70.3613  220.2682 H   0  0  0  0  0  0  0  0  0  0  0  0
  137.2434   68.4862  221.5963 H   0  0  0  0  0  0  0  0  0  0  0  0
  134.3940   68.4840  221.5010 H   0  0  0  0  0  0  0  0  0  0  0  0
  135.1034   69.3338  223.7097 H   0  0  0  0  0  0  0  0  0  0  0  0
  136.5533   68.4570  224.0809 H   0  0  0  0  0  0  0  0  0  0  0  0
  136.4884   71.1868  224.2580 H   0  0  0  0  0  0  0  0  0  0  0  0
  138.6460   72.4770  223.8230 H   0  0  0  0  0  0  0  0  0  0  0  0
  140.9703   70.5916  223.8289 H   0  0  0  0  0  0  0  0  0  0  0  0
  140.9788   72.4071  223.7716 H   0  0  0  0  0  0  0  0  0  0  0  0
  141.8657   71.7419  225.8759 H   0  0  0  0  0  0  0  0  0  0  0  0
  140.1925   72.3959  226.1320 H   0  0  0  0  0  0  0  0  0  0  0  0
  139.3731   70.0595  226.0442 H   0  0  0  0  0  0  0  0  0  0  0  0
  141.2003   68.8413  225.0475 H   0  0  0  0  0  0  0  0  0  0  0  0
  142.3762   69.4796  226.2243 H   0  0  0  0  0  0  0  0  0  0  0  0
  141.0641   67.0695  226.4699 H   0  0  0  0  0  0  0  0  0  0  0  0
  141.7235   68.0292  227.8572 H   0  0  0  0  0  0  0  0  0  0  0  0
  138.8930   68.2834  226.7829 H   0  0  0  0  0  0  0  0  0  0  0  0
  139.3713   67.2517  228.1785 H   0  0  0  0  0  0  0  0  0  0  0  0
  138.5114   69.6977  228.6239 H   0  0  0  0  0  0  0  0  0  0  0  0
  139.9421   69.1037  229.5151 H   0  0  0  0  0  0  0  0  0  0  0  0
  139.9533   71.4407  228.1689 H   0  0  0  0  0  0  0  0  0  0  0  0
  141.4141   70.4114  228.2894 H   0  0  0  0  0  0  0  0  0  0  0  0
  141.4482   75.3837  219.8854 H   0  0  0  0  0  0  0  0  0  0  0  0
  142.4576   77.6331  219.8344 H   0  0  0  0  0  0  0  0  0  0  0  0
  142.6571   79.8454  220.7591 H   0  0  0  0  0  0  0  0  0  0  0  0
  140.3106   80.9243  224.1996 H   0  0  0  0  0  0  0  0  0  0  0  0
  139.3066   78.6340  224.2208 H   0  0  0  0  0  0  0  0  0  0  0  0
  1  2  2  0
  2  3  1  0
  3  4  1  0
  4  5  1  0
  5  6  2  0
  5  7  1  0
  7  8  1  0
  8  9  1  0
  9 10  1  0
  9 11  1  0
 11 12  1  0
 12 13  1  0
 13 14  2  0
 13 15  1  0
 15 16  1  0
 16 17  1  0
 17 18  1  0
 18 19  1  0
 19 20  1  0
 20 21  1  0
 21 22  1  0
 22 23  1  0
  2 24  1  0
 24 25  2  0
 25 26  1  0
 26 27  2  0
 27 28  1  0
 28 29  2  0
 29 30  1  0
 29 31  1  0
 31 32  2  0
 32 33  1  0
 33 34  2  0
 12  7  1  0
 23 18  1  0
 34 24  1  0
 33 27  1  0
  3 35  1  0
  4 36  1  0
  4 37  1  0
  8 38  1  0
  8 39  1  0
  9 40  1  1
 10 41  1  0
 11 42  1  0
 11 43  1  0
 12 44  1  1
 15 45  1  0
 16 46  1  0
 16 47  1  0
 17 48  1  0
 17 49  1  0
 18 50  1  0
 19 51  1  0
 19 52  1  0
 20 53  1  0
 20 54  1  0
 21 55  1  0
 21 56  1  0
 22 57  1  0
 22 58  1  0
 23 59  1  0
 23 60  1  0
 25 61  1  0
 26 62  1  0
 28 63  1  0
 31 64  1  0
 32 65  1  0
M  END
>  <smiles>  (18) 
O=C(NCC(=O)N1C[C@H](O)C[C@H]1C(=O)NCCC1CCCCC1)c1ccc2cc(F)ccc2n1

>  <score_type>  (18) 
oracle

>  <origin>  (18) 
autodockgpu

>  <m_score__min__energy>  (18) 
-10.029999999999999

>  <m_primary>  (18) 
energy

>  <meeko>  (18) 
{"free_energy": -7.78, "intermolecular_energy": -10.46, "internal_energy": -3.16, "cluster_size": 4, "cluster_id": 3, "rank_in_cluster": 4}

>  <energy>  (18) 
-7.19

>  <cluster_rmsd>  (18) 
0.58

>  <rmsd>  (18) 
272.28

>  <cluster>  (18) 
5

$$$$

     RDKit          3D

 65 68  0  0  0  0  0  0  0  0999 V2000
  140.3450   73.6080  222.3440 O   0  0  0  0  0  0  0  0  0  0  0  0
  140.2280   72.3470  222.1770 C   0  0  0  0  0  0  0  0  0  0  0  0
  140.1860   71.7580  220.8800 N   0  0  0  0  0  0  0  0  0  0  0  0
  140.2800   72.5620  219.7200 C   0  0  0  0  0  0  0  0  0  0  0  0
  141.5490   72.6280  218.9970 C   0  0  0  0  0  0  0  0  0  0  0  0
  141.4160   72.7250  217.7060 O   0  0  0  0  0  0  0  0  0  0  0  0
  142.8640   72.5970  219.5130 N   0  0  0  0  0  0  0  0  0  0  0  0
  144.0370   71.8480  219.1210 C   0  0  0  0  0  0  0  0  0  0  0  0
  145.1640   72.8260  219.5090 C   0  0  2  0  0  0  0  0  0  0  0  0
  146.3270   72.0690  219.6200 O   0  0  0  0  0  0  0  0  0  0  0  0
  144.7020   73.1510  220.9170 C   0  0  0  0  0  0  0  0  0  0  0  0
  143.2420   73.4260  220.6710 C   0  0  1  0  0  0  0  0  0  0  0  0
  142.9940   74.8740  220.4060 C   0  0  0  0  0  0  0  0  0  0  0  0
  143.7720   75.5780  219.7060 O   0  0  0  0  0  0  0  0  0  0  0  0
  141.8340   75.4410  220.9810 N   0  0  0  0  0  0  0  0  0  0  0  0
  141.4510   76.8290  220.8220 C   0  0  0  0  0  0  0  0  0  0  0  0
  140.6290   77.3270  221.9810 C   0  0  0  0  0  0  0  0  0  0  0  0
  141.0200   78.7300  222.3890 C   0  0  0  0  0  0  0  0  0  0  0  0
  141.8720   78.7320  223.6370 C   0  0  0  0  0  0  0  0  0  0  0  0
  142.4240   80.1310  223.8100 C   0  0  0  0  0  0  0  0  0  0  0  0
  141.6210   81.1410  223.0320 C   0  0  0  0  0  0  0  0  0  0  0  0
  141.7870   80.8990  221.5440 C   0  0  0  0  0  0  0  0  0  0  0  0
  141.8210   79.4110  221.3080 C   0  0  0  0  0  0  0  0  0  0  0  0
  140.1360   71.5090  223.3690 C   0  0  0  0  0  0  0  0  0  0  0  0
  139.5530   70.2640  223.3290 C   0  0  0  0  0  0  0  0  0  0  0  0
  139.4760   69.4850  224.4580 C   0  0  0  0  0  0  0  0  0  0  0  0
  139.9830   69.9430  225.6460 C   0  0  0  0  0  0  0  0  0  0  0  0
  139.9150   69.1730  226.7820 C   0  0  0  0  0  0  0  0  0  0  0  0
  140.4340   69.6600  227.9540 C   0  0  0  0  0  0  0  0  0  0  0  0
  140.3560   68.8840  229.0670 F   0  0  0  0  0  0  0  0  0  0  0  0
  141.0240   70.9060  228.0200 C   0  0  0  0  0  0  0  0  0  0  0  0
  141.0890   71.6780  226.8630 C   0  0  0  0  0  0  0  0  0  0  0  0
  140.5660   71.1940  225.6690 C   0  0  0  0  0  0  0  0  0  0  0  0
  140.6220   71.9300  224.5370 N   0  0  0  0  0  0  0  0  0  0  0  0
  140.0840   70.7120  220.8620 H   0  0  0  0  0  0  0  0  0  0  0  0
  139.5252   72.1916  219.0107 H   0  0  0  0  0  0  0  0  0  0  0  0
  140.1427   73.5851  220.0999 H   0  0  0  0  0  0  0  0  0  0  0  0
  144.1153   70.9023  219.6773 H   0  0  0  0  0  0  0  0  0  0  0  0
  144.0464   71.5470  218.0630 H   0  0  0  0  0  0  0  0  0  0  0  0
  145.3413   73.6801  218.8389 H   0  0  0  0  0  0  0  0  0  0  0  0
  146.3540   71.5770  220.4770 H   0  0  0  0  0  0  0  0  0  0  0  0
  144.8455   72.2993  221.5981 H   0  0  0  0  0  0  0  0  0  0  0  0
  145.2483   73.9747  221.3997 H   0  0  0  0  0  0  0  0  0  0  0  0
  142.6373   73.1775  221.5557 H   0  0  0  0  0  0  0  0  0  0  0  0
  141.1920   74.8270  221.5690 H   0  0  0  0  0  0  0  0  0  0  0  0
  142.3615   77.4413  220.7441 H   0  0  0  0  0  0  0  0  0  0  0  0
  140.8370   76.9085  219.9128 H   0  0  0  0  0  0  0  0  0  0  0  0
  139.5678   77.3237  221.6916 H   0  0  0  0  0  0  0  0  0  0  0  0
  140.8089   76.6606  222.8375 H   0  0  0  0  0  0  0  0  0  0  0  0
  140.0764   79.2654  222.5703 H   0  0  0  0  0  0  0  0  0  0  0  0
  141.2603   78.4592  224.5096 H   0  0  0  0  0  0  0  0  0  0  0  0
  142.6896   78.0015  223.5486 H   0  0  0  0  0  0  0  0  0  0  0  0
  142.3958   80.3971  224.8770 H   0  0  0  0  0  0  0  0  0  0  0  0
  143.4564   80.1443  223.4305 H   0  0  0  0  0  0  0  0  0  0  0  0
  140.5584   81.0466  223.3003 H   0  0  0  0  0  0  0  0  0  0  0  0
  141.9784   82.1523  223.2759 H   0  0  0  0  0  0  0  0  0  0  0  0
  140.9414   81.3430  220.9983 H   0  0  0  0  0  0  0  0  0  0  0  0
  142.7190   81.3611  221.1863 H   0  0  0  0  0  0  0  0  0  0  0  0
  141.3844   79.1824  220.3246 H   0  0  0  0  0  0  0  0  0  0  0  0
  142.8606   79.0523  221.3305 H   0  0  0  0  0  0  0  0  0  0  0  0
  139.1429   69.8870  222.3805 H   0  0  0  0  0  0  0  0  0  0  0  0
  139.0064   68.4915  224.4083 H   0  0  0  0  0  0  0  0  0  0  0  0
  139.4493   68.1769  226.7515 H   0  0  0  0  0  0  0  0  0  0  0  0
  141.4350   71.2820  228.9685 H   0  0  0  0  0  0  0  0  0  0  0  0
  141.5555   72.6737  226.8937 H   0  0  0  0  0  0  0  0  0  0  0  0
  1  2  2  0
  2  3  1  0
  3  4  1  0
  4  5  1  0
  5  6  2  0
  5  7  1  0
  7  8  1  0
  8  9  1  0
  9 10  1  0
  9 11  1  0
 11 12  1  0
 12 13  1  0
 13 14  2  0
 13 15  1  0
 15 16  1  0
 16 17  1  0
 17 18  1  0
 18 19  1  0
 19 20  1  0
 20 21  1  0
 21 22  1  0
 22 23  1  0
  2 24  1  0
 24 25  2  0
 25 26  1  0
 26 27  2  0
 27 28  1  0
 28 29  2  0
 29 30  1  0
 29 31  1  0
 31 32  2  0
 32 33  1  0
 33 34  2  0
 12  7  1  0
 23 18  1  0
 34 24  1  0
 33 27  1  0
  3 35  1  0
  4 36  1  0
  4 37  1  0
  8 38  1  0
  8 39  1  0
  9 40  1  6
 10 41  1  0
 11 42  1  0
 11 43  1  0
 12 44  1  1
 15 45  1  0
 16 46  1  0
 16 47  1  0
 17 48  1  0
 17 49  1  0
 18 50  1  0
 19 51  1  0
 19 52  1  0
 20 53  1  0
 20 54  1  0
 21 55  1  0
 21 56  1  0
 22 57  1  0
 22 58  1  0
 23 59  1  0
 23 60  1  0
 25 61  1  0
 26 62  1  0
 28 63  1  0
 31 64  1  0
 32 65  1  0
M  END
>  <smiles>  (19) 
O=C(NCC(=O)N1C[C@H](O)C[C@H]1C(=O)NCCC1CCCCC1)c1ccc2cc(F)ccc2n1

>  <score_type>  (19) 
oracle

>  <origin>  (19) 
autodockgpu

>  <m_score__min__energy>  (19) 
-10.029999999999999

>  <m_primary>  (19) 
energy

>  <meeko>  (19) 
{"free_energy": -9.69, "intermolecular_energy": -12.37, "internal_energy": -2.56, "cluster_size": 7, "cluster_id": 1, "rank_in_cluster": 3}

>  <energy>  (19) 
-7.6

>  <cluster_rmsd>  (19) 
0.0

>  <rmsd>  (19) 
271.74

>  <cluster>  (19) 
6

$$$$

     RDKit          3D

 65 68  0  0  0  0  0  0  0  0999 V2000
  140.0400   73.1590  222.7290 O   0  0  0  0  0  0  0  0  0  0  0  0
  140.2980   71.9110  222.8050 C   0  0  0  0  0  0  0  0  0  0  0  0
  140.4170   71.0930  221.6440 N   0  0  0  0  0  0  0  0  0  0  0  0
  140.2530   71.6450  220.3530 C   0  0  0  0  0  0  0  0  0  0  0  0
  141.4140   71.7570  219.4710 C   0  0  0  0  0  0  0  0  0  0  0  0
  141.2090   71.3040  218.2680 O   0  0  0  0  0  0  0  0  0  0  0  0
  142.6960   72.2780  219.7570 N   0  0  0  0  0  0  0  0  0  0  0  0
  144.0120   71.9250  219.2720 C   0  0  0  0  0  0  0  0  0  0  0  0
  144.7330   73.2860  219.3360 C   0  0  2  0  0  0  0  0  0  0  0  0
  146.0980   73.0120  219.3450 O   0  0  0  0  0  0  0  0  0  0  0  0
  144.3430   73.6780  220.7490 C   0  0  0  0  0  0  0  0  0  0  0  0
  142.8670   73.3790  220.7200 C   0  0  1  0  0  0  0  0  0  0  0  0
  142.0740   74.5790  220.3190 C   0  0  0  0  0  0  0  0  0  0  0  0
  142.0570   75.0160  219.1360 O   0  0  0  0  0  0  0  0  0  0  0  0
  141.3280   75.2230  221.3340 N   0  0  0  0  0  0  0  0  0  0  0  0
  140.5090   76.3970  221.1110 C   0  0  0  0  0  0  0  0  0  0  0  0
  140.1030   77.0570  222.4010 C   0  0  0  0  0  0  0  0  0  0  0  0
  140.6500   78.4630  222.5120 C   0  0  0  0  0  0  0  0  0  0  0  0
  139.6120   79.4280  223.0370 C   0  0  0  0  0  0  0  0  0  0  0  0
  140.3180   80.7270  223.3600 C   0  0  0  0  0  0  0  0  0  0  0  0
  141.6430   80.8260  222.6470 C   0  0  0  0  0  0  0  0  0  0  0  0
  142.6020   79.7830  223.1890 C   0  0  0  0  0  0  0  0  0  0  0  0
  141.8230   78.5210  223.4580 C   0  0  0  0  0  0  0  0  0  0  0  0
  140.4750   71.3330  224.1340 C   0  0  0  0  0  0  0  0  0  0  0  0
  140.8940   72.0940  225.1990 C   0  0  0  0  0  0  0  0  0  0  0  0
  141.0540   71.5370  226.4450 C   0  0  0  0  0  0  0  0  0  0  0  0
  140.7940   70.2060  226.6420 C   0  0  0  0  0  0  0  0  0  0  0  0
  140.9470   69.6370  227.8820 C   0  0  0  0  0  0  0  0  0  0  0  0
  140.6770   68.3020  228.0460 C   0  0  0  0  0  0  0  0  0  0  0  0
  140.8360   67.7570  229.2800 F   0  0  0  0  0  0  0  0  0  0  0  0
  140.2550   67.5160  226.9920 C   0  0  0  0  0  0  0  0  0  0  0  0
  140.1020   68.1040  225.7390 C   0  0  0  0  0  0  0  0  0  0  0  0
  140.3740   69.4560  225.5620 C   0  0  0  0  0  0  0  0  0  0  0  0
  140.2290   70.0410  224.3520 N   0  0  0  0  0  0  0  0  0  0  0  0
  140.6280   70.0790  221.8260 H   0  0  0  0  0  0  0  0  0  0  0  0
  139.5111   71.0237  219.8300 H   0  0  0  0  0  0  0  0  0  0  0  0
  139.9728   72.6904  220.5497 H   0  0  0  0  0  0  0  0  0  0  0  0
  144.4954   71.1823  219.9236 H   0  0  0  0  0  0  0  0  0  0  0  0
  144.0148   71.4603  218.2750 H   0  0  0  0  0  0  0  0  0  0  0  0
  144.5066   74.0133  218.5424 H   0  0  0  0  0  0  0  0  0  0  0  0
  146.6190   73.7780  218.9990 H   0  0  0  0  0  0  0  0  0  0  0  0
  144.8664   73.0668  221.4990 H   0  0  0  0  0  0  0  0  0  0  0  0
  144.5955   74.7128  221.0236 H   0  0  0  0  0  0  0  0  0  0  0  0
  142.4994   73.0978  221.7179 H   0  0  0  0  0  0  0  0  0  0  0  0
  141.3590   74.8350  222.3250 H   0  0  0  0  0  0  0  0  0  0  0  0
  141.0798   77.1183  220.5078 H   0  0  0  0  0  0  0  0  0  0  0  0
  139.5938   76.0779  220.5909 H   0  0  0  0  0  0  0  0  0  0  0  0
  139.0048   77.0978  222.4493 H   0  0  0  0  0  0  0  0  0  0  0  0
  140.5148   76.4645  223.2313 H   0  0  0  0  0  0  0  0  0  0  0  0
  140.9554   78.7481  221.4944 H   0  0  0  0  0  0  0  0  0  0  0  0
  138.8397   79.6006  222.2730 H   0  0  0  0  0  0  0  0  0  0  0  0
  139.1234   79.0200  223.9341 H   0  0  0  0  0  0  0  0  0  0  0  0
  139.6805   81.5677  223.0487 H   0  0  0  0  0  0  0  0  0  0  0  0
  140.5051   80.7588  224.4435 H   0  0  0  0  0  0  0  0  0  0  0  0
  141.4912   80.6572  221.5707 H   0  0  0  0  0  0  0  0  0  0  0  0
  142.0677   81.8274  222.8109 H   0  0  0  0  0  0  0  0  0  0  0  0
  143.3912   79.5828  222.4494 H   0  0  0  0  0  0  0  0  0  0  0  0
  143.0718   80.1441  224.1157 H   0  0  0  0  0  0  0  0  0  0  0  0
  142.4702   77.6460  223.2985 H   0  0  0  0  0  0  0  0  0  0  0  0
  141.4649   78.5174  224.4981 H   0  0  0  0  0  0  0  0  0  0  0  0
  141.1042   73.1637  225.0520 H   0  0  0  0  0  0  0  0  0  0  0  0
  141.3914   72.1607  227.2859 H   0  0  0  0  0  0  0  0  0  0  0  0
  141.2825   70.2451  228.7350 H   0  0  0  0  0  0  0  0  0  0  0  0
  140.0439   66.4465  227.1393 H   0  0  0  0  0  0  0  0  0  0  0  0
  139.7647   67.4966  224.8861 H   0  0  0  0  0  0  0  0  0  0  0  0
  1  2  2  0
  2  3  1  0
  3  4  1  0
  4  5  1  0
  5  6  2  0
  5  7  1  0
  7  8  1  0
  8  9  1  0
  9 10  1  0
  9 11  1  0
 11 12  1  0
 12 13  1  0
 13 14  2  0
 13 15  1  0
 15 16  1  0
 16 17  1  0
 17 18  1  0
 18 19  1  0
 19 20  1  0
 20 21  1  0
 21 22  1  0
 22 23  1  0
  2 24  1  0
 24 25  2  0
 25 26  1  0
 26 27  2  0
 27 28  1  0
 28 29  2  0
 29 30  1  0
 29 31  1  0
 31 32  2  0
 32 33  1  0
 33 34  2  0
 12  7  1  0
 23 18  1  0
 34 24  1  0
 33 27  1  0
  3 35  1  0
  4 36  1  0
  4 37  1  0
  8 38  1  0
  8 39  1  0
  9 40  1  6
 10 41  1  0
 11 42  1  0
 11 43  1  0
 12 44  1  1
 15 45  1  0
 16 46  1  0
 16 47  1  0
 17 48  1  0
 17 49  1  0
 18 50  1  0
 19 51  1  0
 19 52  1  0
 20 53  1  0
 20 54  1  0
 21 55  1  0
 21 56  1  0
 22 57  1  0
 22 58  1  0
 23 59  1  0
 23 60  1  0
 25 61  1  0
 26 62  1  0
 28 63  1  0
 31 64  1  0
 32 65  1  0
M  END
>  <smiles>  (20) 
O=C(NCC(=O)N1C[C@H](O)C[C@H]1C(=O)NCCC1CCCCC1)c1ccc2cc(F)ccc2n1

>  <score_type>  (20) 
oracle

>  <origin>  (20) 
autodockgpu

>  <m_score__min__energy>  (20) 
-10.029999999999999

>  <m_primary>  (20) 
energy

>  <meeko>  (20) 
{"free_energy": -9.02, "intermolecular_energy": -11.71, "internal_energy": -2.68, "cluster_size": 7, "cluster_id": 1, "rank_in_cluster": 6}

>  <energy>  (20) 
-7.02

>  <cluster_rmsd>  (20) 
0.0

>  <rmsd>  (20) 
271.27

>  <cluster>  (20) 
7

$$$$
