
     RDKit          3D

 42 43  0  0  0  0  0  0  0  0999 V2000
  135.2470   74.3270  222.7460 O   0  0  0  0  0  0  0  0  0  0  0  0
  136.2690   75.0590  222.7670 C   0  0  0  0  0  0  0  0  0  0  0  0
  136.0750   76.4520  223.2640 C   0  0  0  0  0  0  0  0  0  0  0  0
  136.0380   77.3870  222.0710 C   0  0  0  0  0  0  0  0  0  0  0  0
  137.4340   77.6830  221.5600 C   0  0  0  0  0  0  0  0  0  0  0  0
  138.3020   77.4960  222.6580 O   0  0  0  0  0  0  0  0  0  0  0  0
  139.4390   78.2150  222.9190 C   0  0  0  0  0  0  0  0  0  0  0  0
  140.7240   77.7520  222.7190 C   0  0  0  0  0  0  0  0  0  0  0  0
  141.8200   78.5580  223.0130 C   0  0  0  0  0  0  0  0  0  0  0  0
  141.6290   79.8280  223.5100 C   0  0  0  0  0  0  0  0  0  0  0  0
  142.9600   80.9030  223.9050 Cl  0  0  0  0  0  0  0  0  0  0  0  0
  140.3590   80.3010  223.7140 C   0  0  0  0  0  0  0  0  0  0  0  0
  139.2690   79.5080  223.4240 C   0  0  0  0  0  0  0  0  0  0  0  0
  137.6530   80.1350  223.6950 Cl  0  0  0  0  0  0  0  0  0  0  0  0
  137.5510   74.6040  222.3440 N   0  0  0  0  0  0  0  0  0  0  0  0
  137.7930   73.2620  221.8520 C   0  0  0  0  0  0  0  0  0  0  0  0
  139.2470   72.9280  221.9900 C   0  0  0  0  0  0  0  0  0  0  0  0
  140.0770   73.9970  222.3240 O   0  0  0  0  0  0  0  0  0  0  0  0
  140.4710   74.8970  221.3520 C   0  0  0  0  0  0  0  0  0  0  0  0
  141.8250   74.9240  221.0440 C   0  0  0  0  0  0  0  0  0  0  0  0
  142.3260   75.7860  220.0870 C   0  0  0  0  0  0  0  0  0  0  0  0
  141.4170   76.6280  219.4430 C   0  0  0  0  0  0  0  0  0  0  0  0
  140.0620   76.5950  219.7590 C   0  0  0  0  0  0  0  0  0  0  0  0
  139.6520   75.7270  220.7020 N   0  0  0  0  0  0  0  0  0  0  0  0
  135.1272   76.5197  223.8182 H   0  0  0  0  0  0  0  0  0  0  0  0
  136.8998   76.7309  223.9363 H   0  0  0  0  0  0  0  0  0  0  0  0
  135.4537   76.9176  221.2658 H   0  0  0  0  0  0  0  0  0  0  0  0
  135.5755   78.3340  222.3862 H   0  0  0  0  0  0  0  0  0  0  0  0
  137.6961   76.9928  220.7445 H   0  0  0  0  0  0  0  0  0  0  0  0
  137.5068   78.7053  221.1604 H   0  0  0  0  0  0  0  0  0  0  0  0
  140.8831   76.7378  222.3240 H   0  0  0  0  0  0  0  0  0  0  0  0
  142.8398   78.1801  222.8482 H   0  0  0  0  0  0  0  0  0  0  0  0
  140.2088   81.3161  224.1102 H   0  0  0  0  0  0  0  0  0  0  0  0
  138.3250   75.3300  222.4170 H   0  0  0  0  0  0  0  0  0  0  0  0
  137.1963   72.5455  222.4356 H   0  0  0  0  0  0  0  0  0  0  0  0
  137.5053   73.2053  220.7918 H   0  0  0  0  0  0  0  0  0  0  0  0
  139.3465   72.1631  222.7743 H   0  0  0  0  0  0  0  0  0  0  0  0
  139.5755   72.5881  220.9967 H   0  0  0  0  0  0  0  0  0  0  0  0
  142.5119   74.2462  221.5720 H   0  0  0  0  0  0  0  0  0  0  0  0
  143.3982   75.8080  219.8423 H   0  0  0  0  0  0  0  0  0  0  0  0
  141.7773   77.3277  218.6745 H   0  0  0  0  0  0  0  0  0  0  0  0
  139.3466   77.2595  219.2524 H   0  0  0  0  0  0  0  0  0  0  0  0
  1  2  2  0
  2  3  1  0
  3  4  1  0
  4  5  1  0
  5  6  1  0
  6  7  1  0
  7  8  2  0
  8  9  1  0
  9 10  2  0
 10 11  1  0
 10 12  1  0
 12 13  2  0
 13 14  1  0
  2 15  1  0
 15 16  1  0
 16 17  1  0
 17 18  1  0
 18 19  1  0
 19 20  2  0
 20 21  1  0
 21 22  2  0
 22 23  1  0
 23 24  2  0
 13  7  1  0
 24 19  1  0
  3 25  1  0
  3 26  1  0
  4 27  1  0
  4 28  1  0
  5 29  1  0
  5 30  1  0
  8 31  1  0
  9 32  1  0
 12 33  1  0
 15 34  1  0
 16 35  1  0
 16 36  1  0
 17 37  1  0
 17 38  1  0
 20 39  1  0
 21 40  1  0
 22 41  1  0
 23 42  1  0
M  END
>  <smiles>  (1) 
O=C(CCCOc1ccc(Cl)cc1Cl)NCCOc1ccccn1

>  <score_type>  (1) 
oracle

>  <origin>  (1) 
autodockgpu

>  <m_score__min__energy>  (1) 
-6.2800000000000002

>  <m_primary>  (1) 
energy

>  <meeko>  (1) 
{"free_energy": -4.02, "intermolecular_energy": -6.71, "internal_energy": -3.68, "cluster_size": 1, "cluster_id": 6, "rank_in_cluster": 1}

>  <energy>  (1) 
-6.28

>  <cluster_rmsd>  (1) 
0.0

>  <rmsd>  (1) 
271.44

>  <cluster>  (1) 
1

$$$$

     RDKit          3D

 42 43  0  0  0  0  0  0  0  0999 V2000
  139.9470   74.4330  221.9710 O   0  0  0  0  0  0  0  0  0  0  0  0
  139.6610   75.6570  221.9510 C   0  0  0  0  0  0  0  0  0  0  0  0
  138.4600   76.0700  222.7320 C   0  0  0  0  0  0  0  0  0  0  0  0
  137.3120   76.2910  221.7670 C   0  0  0  0  0  0  0  0  0  0  0  0
  137.4780   77.5900  221.0030 C   0  0  0  0  0  0  0  0  0  0  0  0
  138.1660   78.4690  221.8680 O   0  0  0  0  0  0  0  0  0  0  0  0
  138.6890   79.6890  221.5280 C   0  0  0  0  0  0  0  0  0  0  0  0
  139.0350   80.0650  220.2460 C   0  0  0  0  0  0  0  0  0  0  0  0
  139.5600   81.3310  219.9970 C   0  0  0  0  0  0  0  0  0  0  0  0
  139.7390   82.2190  221.0340 C   0  0  0  0  0  0  0  0  0  0  0  0
  140.3950   83.8310  220.8000 Cl  0  0  0  0  0  0  0  0  0  0  0  0
  139.4000   81.8590  222.3130 C   0  0  0  0  0  0  0  0  0  0  0  0
  138.8800   80.6080  222.5660 C   0  0  0  0  0  0  0  0  0  0  0  0
  138.4540   80.1700  224.2100 Cl  0  0  0  0  0  0  0  0  0  0  0  0
  140.4290   76.6160  221.2280 N   0  0  0  0  0  0  0  0  0  0  0  0
  141.6050   76.2670  220.4540 C   0  0  0  0  0  0  0  0  0  0  0  0
  142.2700   77.5140  219.9580 C   0  0  0  0  0  0  0  0  0  0  0  0
  141.6930   78.7100  220.3840 O   0  0  0  0  0  0  0  0  0  0  0  0
  141.8790   79.1420  221.6830 C   0  0  0  0  0  0  0  0  0  0  0  0
  142.5620   80.3400  221.8470 C   0  0  0  0  0  0  0  0  0  0  0  0
  142.8030   80.8640  223.1040 C   0  0  0  0  0  0  0  0  0  0  0  0
  142.3330   80.1390  224.2010 C   0  0  0  0  0  0  0  0  0  0  0  0
  141.6510   78.9380  224.0280 C   0  0  0  0  0  0  0  0  0  0  0  0
  141.4550   78.4950  222.7720 N   0  0  0  0  0  0  0  0  0  0  0  0
  138.1945   75.2801  223.4500 H   0  0  0  0  0  0  0  0  0  0  0  0
  138.6707   76.9967  223.2859 H   0  0  0  0  0  0  0  0  0  0  0  0
  137.2792   75.4560  221.0516 H   0  0  0  0  0  0  0  0  0  0  0  0
  136.3776   76.3446  222.3449 H   0  0  0  0  0  0  0  0  0  0  0  0
  138.0623   77.4216  220.0864 H   0  0  0  0  0  0  0  0  0  0  0  0
  136.5052   78.0046  220.7000 H   0  0  0  0  0  0  0  0  0  0  0  0
  138.8951   79.3592  219.4140 H   0  0  0  0  0  0  0  0  0  0  0  0
  139.8317   81.6215  218.9714 H   0  0  0  0  0  0  0  0  0  0  0  0
  139.5435   82.5707  223.1394 H   0  0  0  0  0  0  0  0  0  0  0  0
  140.0730   77.6150  221.3010 H   0  0  0  0  0  0  0  0  0  0  0  0
  142.3069   75.7055  221.0881 H   0  0  0  0  0  0  0  0  0  0  0  0
  141.3061   75.6470  219.5959 H   0  0  0  0  0  0  0  0  0  0  0  0
  143.3151   77.5005  220.3008 H   0  0  0  0  0  0  0  0  0  0  0  0
  142.1634   77.4993  218.8633 H   0  0  0  0  0  0  0  0  0  0  0  0
  142.9185   80.8830  220.9593 H   0  0  0  0  0  0  0  0  0  0  0  0
  143.3430   81.8134  223.2343 H   0  0  0  0  0  0  0  0  0  0  0  0
  142.5043   80.5229  225.2175 H   0  0  0  0  0  0  0  0  0  0  0  0
  141.2826   78.3671  224.8931 H   0  0  0  0  0  0  0  0  0  0  0  0
  1  2  2  0
  2  3  1  0
  3  4  1  0
  4  5  1  0
  5  6  1  0
  6  7  1  0
  7  8  2  0
  8  9  1  0
  9 10  2  0
 10 11  1  0
 10 12  1  0
 12 13  2  0
 13 14  1  0
  2 15  1  0
 15 16  1  0
 16 17  1  0
 17 18  1  0
 18 19  1  0
 19 20  2  0
 20 21  1  0
 21 22  2  0
 22 23  1  0
 23 24  2  0
 13  7  1  0
 24 19  1  0
  3 25  1  0
  3 26  1  0
  4 27  1  0
  4 28  1  0
  5 29  1  0
  5 30  1  0
  8 31  1  0
  9 32  1  0
 12 33  1  0
 15 34  1  0
 16 35  1  0
 16 36  1  0
 17 37  1  0
 17 38  1  0
 20 39  1  0
 21 40  1  0
 22 41  1  0
 23 42  1  0
M  END
>  <smiles>  (2) 
O=C(CCCOc1ccc(Cl)cc1Cl)NCCOc1ccccn1

>  <score_type>  (2) 
oracle

>  <origin>  (2) 
autodockgpu

>  <m_score__min__energy>  (2) 
-6.2800000000000002

>  <m_primary>  (2) 
energy

>  <meeko>  (2) 
{"free_energy": -3.57, "intermolecular_energy": -6.25, "internal_energy": -4.36, "cluster_size": 8, "cluster_id": 5, "rank_in_cluster": 5}

>  <energy>  (2) 
-5.71

>  <cluster_rmsd>  (2) 
0.0

>  <rmsd>  (2) 
271.21

>  <cluster>  (2) 
2

$$$$

     RDKit          3D

 42 43  0  0  0  0  0  0  0  0999 V2000
  141.0850   73.9680  219.7500 O   0  0  0  0  0  0  0  0  0  0  0  0
  141.1020   74.7000  220.7730 C   0  0  0  0  0  0  0  0  0  0  0  0
  140.3020   74.2280  221.9380 C   0  0  0  0  0  0  0  0  0  0  0  0
  139.9610   72.7650  221.7270 C   0  0  0  0  0  0  0  0  0  0  0  0
  140.6890   71.8810  222.7200 C   0  0  0  0  0  0  0  0  0  0  0  0
  139.9120   71.8920  223.8980 O   0  0  0  0  0  0  0  0  0  0  0  0
  140.1720   71.1820  225.0420 C   0  0  0  0  0  0  0  0  0  0  0  0
  140.8590   71.6760  226.1320 C   0  0  0  0  0  0  0  0  0  0  0  0
  141.0750   70.8770  227.2530 C   0  0  0  0  0  0  0  0  0  0  0  0
  140.6040   69.5840  227.2790 C   0  0  0  0  0  0  0  0  0  0  0  0
  140.8360   68.5170  228.6540 Cl  0  0  0  0  0  0  0  0  0  0  0  0
  139.9200   69.0800  226.2030 C   0  0  0  0  0  0  0  0  0  0  0  0
  139.7030   69.8650  225.0910 C   0  0  0  0  0  0  0  0  0  0  0  0
  138.8260   69.1990  223.7250 Cl  0  0  0  0  0  0  0  0  0  0  0  0
  141.8400   75.9170  220.8350 N   0  0  0  0  0  0  0  0  0  0  0  0
  142.6330   76.4210  219.7310 C   0  0  0  0  0  0  0  0  0  0  0  0
  142.1980   77.8130  219.3900 C   0  0  0  0  0  0  0  0  0  0  0  0
  141.2250   78.3570  220.2270 O   0  0  0  0  0  0  0  0  0  0  0  0
  141.5830   78.8770  221.4570 C   0  0  0  0  0  0  0  0  0  0  0  0
  142.1370   80.1500  221.4550 C   0  0  0  0  0  0  0  0  0  0  0  0
  142.5310   80.7640  222.6290 C   0  0  0  0  0  0  0  0  0  0  0  0
  142.3500   80.0520  223.8170 C   0  0  0  0  0  0  0  0  0  0  0  0
  141.7960   78.7760  223.8090 C   0  0  0  0  0  0  0  0  0  0  0  0
  141.4370   78.2470  222.6260 N   0  0  0  0  0  0  0  0  0  0  0  0
  140.8883   74.3428  222.8616 H   0  0  0  0  0  0  0  0  0  0  0  0
  139.3797   74.8209  222.0268 H   0  0  0  0  0  0  0  0  0  0  0  0
  138.8769   72.6280  221.8529 H   0  0  0  0  0  0  0  0  0  0  0  0
  140.2742   72.4784  220.7123 H   0  0  0  0  0  0  0  0  0  0  0  0
  140.7738   70.8566  222.3284 H   0  0  0  0  0  0  0  0  0  0  0  0
  141.7097   72.2451  222.9088 H   0  0  0  0  0  0  0  0  0  0  0  0
  141.2389   72.7082  226.1159 H   0  0  0  0  0  0  0  0  0  0  0  0
  141.6224   71.2800  228.1179 H   0  0  0  0  0  0  0  0  0  0  0  0
  139.5435   68.0467  226.2272 H   0  0  0  0  0  0  0  0  0  0  0  0
  141.7650   76.4330  221.7620 H   0  0  0  0  0  0  0  0  0  0  0  0
  143.6949   76.4299  220.0179 H   0  0  0  0  0  0  0  0  0  0  0  0
  142.4920   75.7708  218.8550 H   0  0  0  0  0  0  0  0  0  0  0  0
  143.0833   78.4647  219.4302 H   0  0  0  0  0  0  0  0  0  0  0  0
  141.7395   77.7515  218.3920 H   0  0  0  0  0  0  0  0  0  0  0  0
  142.2649   80.6806  220.5000 H   0  0  0  0  0  0  0  0  0  0  0  0
  142.9695   81.7728  222.6278 H   0  0  0  0  0  0  0  0  0  0  0  0
  142.6498   80.5068  224.7726 H   0  0  0  0  0  0  0  0  0  0  0  0
  141.6555   78.2151  224.7448 H   0  0  0  0  0  0  0  0  0  0  0  0
  1  2  2  0
  2  3  1  0
  3  4  1  0
  4  5  1  0
  5  6  1  0
  6  7  1  0
  7  8  2  0
  8  9  1  0
  9 10  2  0
 10 11  1  0
 10 12  1  0
 12 13  2  0
 13 14  1  0
  2 15  1  0
 15 16  1  0
 16 17  1  0
 17 18  1  0
 18 19  1  0
 19 20  2  0
 20 21  1  0
 21 22  2  0
 22 23  1  0
 23 24  2  0
 13  7  1  0
 24 19  1  0
  3 25  1  0
  3 26  1  0
  4 27  1  0
  4 28  1  0
  5 29  1  0
  5 30  1  0
  8 31  1  0
  9 32  1  0
 12 33  1  0
 15 34  1  0
 16 35  1  0
 16 36  1  0
 17 37  1  0
 17 38  1  0
 20 39  1  0
 21 40  1  0
 22 41  1  0
 23 42  1  0
M  END
>  <smiles>  (3) 
O=C(CCCOc1ccc(Cl)cc1Cl)NCCOc1ccccn1

>  <score_type>  (3) 
oracle

>  <origin>  (3) 
autodockgpu

>  <m_score__min__energy>  (3) 
-6.2800000000000002

>  <m_primary>  (3) 
energy

>  <meeko>  (3) 
{"free_energy": -6.28, "intermolecular_energy": -8.97, "internal_energy": -1.83, "cluster_size": 1, "cluster_id": 1, "rank_in_cluster": 1}

>  <energy>  (3) 
-5.68

>  <cluster_rmsd>  (3) 
1.62

>  <rmsd>  (3) 
271.38

>  <cluster>  (3) 
2

$$$$

     RDKit          3D

 42 43  0  0  0  0  0  0  0  0999 V2000
  138.2530   72.4340  221.5070 O   0  0  0  0  0  0  0  0  0  0  0  0
  139.2600   72.1120  222.1870 C   0  0  0  0  0  0  0  0  0  0  0  0
  140.5150   72.8680  221.9110 C   0  0  0  0  0  0  0  0  0  0  0  0
  140.1510   74.3090  221.6090 C   0  0  0  0  0  0  0  0  0  0  0  0
  141.3540   75.0880  221.1150 C   0  0  0  0  0  0  0  0  0  0  0  0
  140.9010   76.4070  220.8890 O   0  0  0  0  0  0  0  0  0  0  0  0
  141.2000   77.5040  221.6530 C   0  0  0  0  0  0  0  0  0  0  0  0
  141.0920   77.5550  223.0280 C   0  0  0  0  0  0  0  0  0  0  0  0
  141.4200   78.7180  223.7210 C   0  0  0  0  0  0  0  0  0  0  0  0
  141.8540   79.8300  223.0340 C   0  0  0  0  0  0  0  0  0  0  0  0
  142.2850   81.3320  223.8360 Cl  0  0  0  0  0  0  0  0  0  0  0  0
  141.9650   79.7940  221.6680 C   0  0  0  0  0  0  0  0  0  0  0  0
  141.6430   78.6460  220.9770 C   0  0  0  0  0  0  0  0  0  0  0  0
  141.7930   78.6230  219.2300 Cl  0  0  0  0  0  0  0  0  0  0  0  0
  139.2270   71.0820  223.1720 N   0  0  0  0  0  0  0  0  0  0  0  0
  138.0340   70.3170  223.4780 C   0  0  0  0  0  0  0  0  0  0  0  0
  138.3000   69.4120  224.6410 C   0  0  0  0  0  0  0  0  0  0  0  0
  139.6350   69.3110  225.0280 O   0  0  0  0  0  0  0  0  0  0  0  0
  140.1540   70.1940  225.9560 C   0  0  0  0  0  0  0  0  0  0  0  0
  139.8350   69.9540  227.2870 C   0  0  0  0  0  0  0  0  0  0  0  0
  140.3010   70.7760  228.2960 C   0  0  0  0  0  0  0  0  0  0  0  0
  141.1040   71.8570  227.9250 C   0  0  0  0  0  0  0  0  0  0  0  0
  141.4170   72.0900  226.5890 C   0  0  0  0  0  0  0  0  0  0  0  0
  140.9260   71.2450  225.6650 N   0  0  0  0  0  0  0  0  0  0  0  0
  141.1736   72.8281  222.7911 H   0  0  0  0  0  0  0  0  0  0  0  0
  141.0420   72.4243  221.0534 H   0  0  0  0  0  0  0  0  0  0  0  0
  139.3698   74.3267  220.8348 H   0  0  0  0  0  0  0  0  0  0  0  0
  139.7900   74.7780  222.5362 H   0  0  0  0  0  0  0  0  0  0  0  0
  142.1502   75.0826  221.8740 H   0  0  0  0  0  0  0  0  0  0  0  0
  141.7717   74.6442  220.1993 H   0  0  0  0  0  0  0  0  0  0  0  0
  140.7441   76.6701  223.5811 H   0  0  0  0  0  0  0  0  0  0  0  0
  141.3324   78.7483  224.8171 H   0  0  0  0  0  0  0  0  0  0  0  0
  142.3120   80.6838  221.1222 H   0  0  0  0  0  0  0  0  0  0  0  0
  140.1510   70.9170  223.6710 H   0  0  0  0  0  0  0  0  0  0  0  0
  137.2132   71.0046  223.7299 H   0  0  0  0  0  0  0  0  0  0  0  0
  137.7538   69.7128  222.6025 H   0  0  0  0  0  0  0  0  0  0  0  0
  137.7251   69.7867  225.5007 H   0  0  0  0  0  0  0  0  0  0  0  0
  138.0025   68.4045  224.3147 H   0  0  0  0  0  0  0  0  0  0  0  0
  139.1994   69.0934  227.5426 H   0  0  0  0  0  0  0  0  0  0  0  0
  140.0493   70.5862  229.3499 H   0  0  0  0  0  0  0  0  0  0  0  0
  141.4944   72.5336  228.6995 H   0  0  0  0  0  0  0  0  0  0  0  0
  142.0486   72.9419  226.2969 H   0  0  0  0  0  0  0  0  0  0  0  0
  1  2  2  0
  2  3  1  0
  3  4  1  0
  4  5  1  0
  5  6  1  0
  6  7  1  0
  7  8  2  0
  8  9  1  0
  9 10  2  0
 10 11  1  0
 10 12  1  0
 12 13  2  0
 13 14  1  0
  2 15  1  0
 15 16  1  0
 16 17  1  0
 17 18  1  0
 18 19  1  0
 19 20  2  0
 20 21  1  0
 21 22  2  0
 22 23  1  0
 23 24  2  0
 13  7  1  0
 24 19  1  0
  3 25  1  0
  3 26  1  0
  4 27  1  0
  4 28  1  0
  5 29  1  0
  5 30  1  0
  8 31  1  0
  9 32  1  0
 12 33  1  0
 15 34  1  0
 16 35  1  0
 16 36  1  0
 17 37  1  0
 17 38  1  0
 20 39  1  0
 21 40  1  0
 22 41  1  0
 23 42  1  0
M  END
>  <smiles>  (4) 
O=C(CCCOc1ccc(Cl)cc1Cl)NCCOc1ccccn1

>  <score_type>  (4) 
oracle

>  <origin>  (4) 
autodockgpu

>  <m_score__min__energy>  (4) 
-6.2800000000000002

>  <m_primary>  (4) 
energy

>  <meeko>  (4) 
{"free_energy": -5.68, "intermolecular_energy": -8.36, "internal_energy": -2.19, "cluster_size": 2, "cluster_id": 2, "rank_in_cluster": 2}

>  <energy>  (4) 
-5.52

>  <cluster_rmsd>  (4) 
0.0

>  <rmsd>  (4) 
270.3

>  <cluster>  (4) 
3

$$$$

     RDKit          3D

 42 43  0  0  0  0  0  0  0  0999 V2000
  139.8850   74.4090  221.9690 O   0  0  0  0  0  0  0  0  0  0  0  0
  139.6050   75.6350  221.9540 C   0  0  0  0  0  0  0  0  0  0  0  0
  138.3960   76.0460  222.7240 C   0  0  0  0  0  0  0  0  0  0  0  0
  137.2820   76.3520  221.7420 C   0  0  0  0  0  0  0  0  0  0  0  0
  137.5930   77.5930  220.9280 C   0  0  0  0  0  0  0  0  0  0  0  0
  138.1420   78.5290  221.8320 O   0  0  0  0  0  0  0  0  0  0  0  0
  138.6540   79.7580  221.5080 C   0  0  0  0  0  0  0  0  0  0  0  0
  138.9940   80.1540  220.2310 C   0  0  0  0  0  0  0  0  0  0  0  0
  139.5090   81.4270  219.9990 C   0  0  0  0  0  0  0  0  0  0  0  0
  139.6840   82.3020  221.0480 C   0  0  0  0  0  0  0  0  0  0  0  0
  140.3270   83.9220  220.8350 Cl  0  0  0  0  0  0  0  0  0  0  0  0
  139.3510   81.9210  222.3220 C   0  0  0  0  0  0  0  0  0  0  0  0
  138.8410   80.6630  222.5580 C   0  0  0  0  0  0  0  0  0  0  0  0
  138.4230   80.1980  224.1970 Cl  0  0  0  0  0  0  0  0  0  0  0  0
  140.3850   76.5950  221.2480 N   0  0  0  0  0  0  0  0  0  0  0  0
  141.5680   76.2480  220.4840 C   0  0  0  0  0  0  0  0  0  0  0  0
  142.2000   77.4920  219.9400 C   0  0  0  0  0  0  0  0  0  0  0  0
  141.6270   78.6900  220.3650 O   0  0  0  0  0  0  0  0  0  0  0  0
  141.8290   79.1310  221.6590 C   0  0  0  0  0  0  0  0  0  0  0  0
  142.5040   80.3360  221.8060 C   0  0  0  0  0  0  0  0  0  0  0  0
  142.7590   80.8690  223.0560 C   0  0  0  0  0  0  0  0  0  0  0  0
  142.3110   80.1470  224.1650 C   0  0  0  0  0  0  0  0  0  0  0  0
  141.6370   78.9390  224.0080 C   0  0  0  0  0  0  0  0  0  0  0  0
  141.4270   78.4870  222.7580 N   0  0  0  0  0  0  0  0  0  0  0  0
  138.0869   75.2296  223.3933 H   0  0  0  0  0  0  0  0  0  0  0  0
  138.6195   76.9363  223.3302 H   0  0  0  0  0  0  0  0  0  0  0  0
  137.1599   75.4973  221.0604 H   0  0  0  0  0  0  0  0  0  0  0  0
  136.3570   76.5310  222.3098 H   0  0  0  0  0  0  0  0  0  0  0  0
  138.3185   77.3574  220.1354 H   0  0  0  0  0  0  0  0  0  0  0  0
  136.6904   77.9889  220.4395 H   0  0  0  0  0  0  0  0  0  0  0  0
  138.8573   79.4589  219.3895 H   0  0  0  0  0  0  0  0  0  0  0  0
  139.7762   81.7338  218.9770 H   0  0  0  0  0  0  0  0  0  0  0  0
  139.4913   82.6216  223.1583 H   0  0  0  0  0  0  0  0  0  0  0  0
  140.0310   77.5950  221.3240 H   0  0  0  0  0  0  0  0  0  0  0  0
  142.2853   75.7286  221.1364 H   0  0  0  0  0  0  0  0  0  0  0  0
  141.2832   75.5894  219.6503 H   0  0  0  0  0  0  0  0  0  0  0  0
  143.2575   77.4956  220.2429 H   0  0  0  0  0  0  0  0  0  0  0  0
  142.0518   77.4553  218.8507 H   0  0  0  0  0  0  0  0  0  0  0  0
  142.8424   80.8770  220.9100 H   0  0  0  0  0  0  0  0  0  0  0  0
  143.2933   81.8234  223.1727 H   0  0  0  0  0  0  0  0  0  0  0  0
  142.4934   80.5386  225.1766 H   0  0  0  0  0  0  0  0  0  0  0  0
  141.2859   78.3699  224.8814 H   0  0  0  0  0  0  0  0  0  0  0  0
  1  2  2  0
  2  3  1  0
  3  4  1  0
  4  5  1  0
  5  6  1  0
  6  7  1  0
  7  8  2  0
  8  9  1  0
  9 10  2  0
 10 11  1  0
 10 12  1  0
 12 13  2  0
 13 14  1  0
  2 15  1  0
 15 16  1  0
 16 17  1  0
 17 18  1  0
 18 19  1  0
 19 20  2  0
 20 21  1  0
 21 22  2  0
 22 23  1  0
 23 24  2  0
 13  7  1  0
 24 19  1  0
  3 25  1  0
  3 26  1  0
  4 27  1  0
  4 28  1  0
  5 29  1  0
  5 30  1  0
  8 31  1  0
  9 32  1  0
 12 33  1  0
 15 34  1  0
 16 35  1  0
 16 36  1  0
 17 37  1  0
 17 38  1  0
 20 39  1  0
 21 40  1  0
 22 41  1  0
 23 42  1  0
M  END
>  <smiles>  (5) 
O=C(CCCOc1ccc(Cl)cc1Cl)NCCOc1ccccn1

>  <score_type>  (5) 
oracle

>  <origin>  (5) 
autodockgpu

>  <m_score__min__energy>  (5) 
-6.2800000000000002

>  <m_primary>  (5) 
energy

>  <meeko>  (5) 
{"free_energy": -3.57, "intermolecular_energy": -6.26, "internal_energy": -4.34, "cluster_size": 8, "cluster_id": 5, "rank_in_cluster": 4}

>  <energy>  (5) 
-4.36

>  <cluster_rmsd>  (5) 
0.0

>  <rmsd>  (5) 
270.83

>  <cluster>  (5) 
4

$$$$

     RDKit          3D

 42 43  0  0  0  0  0  0  0  0999 V2000
  139.9370   74.4550  221.9830 O   0  0  0  0  0  0  0  0  0  0  0  0
  139.6480   75.6780  221.9500 C   0  0  0  0  0  0  0  0  0  0  0  0
  138.4410   76.0940  222.7200 C   0  0  0  0  0  0  0  0  0  0  0  0
  137.2910   76.2740  221.7500 C   0  0  0  0  0  0  0  0  0  0  0  0
  137.3710   77.6120  221.0420 C   0  0  0  0  0  0  0  0  0  0  0  0
  138.1430   78.4510  221.8760 O   0  0  0  0  0  0  0  0  0  0  0  0
  138.6570   79.6750  221.5340 C   0  0  0  0  0  0  0  0  0  0  0  0
  138.9890   80.0560  220.2500 C   0  0  0  0  0  0  0  0  0  0  0  0
  139.5060   81.3250  220.0000 C   0  0  0  0  0  0  0  0  0  0  0  0
  139.6910   82.2110  221.0370 C   0  0  0  0  0  0  0  0  0  0  0  0
  140.3370   83.8260  220.8010 Cl  0  0  0  0  0  0  0  0  0  0  0  0
  139.3660   81.8460  222.3180 C   0  0  0  0  0  0  0  0  0  0  0  0
  138.8540   80.5910  222.5720 C   0  0  0  0  0  0  0  0  0  0  0  0
  138.4460   80.1470  224.2190 Cl  0  0  0  0  0  0  0  0  0  0  0  0
  140.4190   76.6320  221.2240 N   0  0  0  0  0  0  0  0  0  0  0  0
  141.5990   76.2790  220.4590 C   0  0  0  0  0  0  0  0  0  0  0  0
  142.2560   77.5230  219.9430 C   0  0  0  0  0  0  0  0  0  0  0  0
  141.6860   78.7220  220.3690 O   0  0  0  0  0  0  0  0  0  0  0  0
  141.8680   79.1500  221.6700 C   0  0  0  0  0  0  0  0  0  0  0  0
  142.5450   80.3510  221.8390 C   0  0  0  0  0  0  0  0  0  0  0  0
  142.7820   80.8710  223.0970 C   0  0  0  0  0  0  0  0  0  0  0  0
  142.3150   80.1400  224.1920 C   0  0  0  0  0  0  0  0  0  0  0  0
  141.6390   78.9370  224.0130 C   0  0  0  0  0  0  0  0  0  0  0  0
  141.4470   78.4970  222.7560 N   0  0  0  0  0  0  0  0  0  0  0  0
  138.1862   75.3191  223.4580 H   0  0  0  0  0  0  0  0  0  0  0  0
  138.6385   77.0374  223.2500 H   0  0  0  0  0  0  0  0  0  0  0  0
  137.3253   75.4696  221.0005 H   0  0  0  0  0  0  0  0  0  0  0  0
  136.3495   76.2376  222.3176 H   0  0  0  0  0  0  0  0  0  0  0  0
  137.8566   77.4968  220.0618 H   0  0  0  0  0  0  0  0  0  0  0  0
  136.3704   78.0330  220.8641 H   0  0  0  0  0  0  0  0  0  0  0  0
  138.8442   79.3520  219.4173 H   0  0  0  0  0  0  0  0  0  0  0  0
  139.7667   81.6194  218.9727 H   0  0  0  0  0  0  0  0  0  0  0  0
  139.5140   82.5559  223.1451 H   0  0  0  0  0  0  0  0  0  0  0  0
  140.0600   77.6310  221.2850 H   0  0  0  0  0  0  0  0  0  0  0  0
  142.3037   75.7338  221.1041 H   0  0  0  0  0  0  0  0  0  0  0  0
  141.3068   75.6422  219.6110 H   0  0  0  0  0  0  0  0  0  0  0  0
  143.3065   77.5121  220.2691 H   0  0  0  0  0  0  0  0  0  0  0  0
  142.1316   77.5001  218.8503 H   0  0  0  0  0  0  0  0  0  0  0  0
  142.8996   80.8991  220.9536 H   0  0  0  0  0  0  0  0  0  0  0  0
  143.3171   81.8227  223.2309 H   0  0  0  0  0  0  0  0  0  0  0  0
  142.4840   80.5207  225.2101 H   0  0  0  0  0  0  0  0  0  0  0  0
  141.2717   78.3615  224.8755 H   0  0  0  0  0  0  0  0  0  0  0  0
  1  2  2  0
  2  3  1  0
  3  4  1  0
  4  5  1  0
  5  6  1  0
  6  7  1  0
  7  8  2  0
  8  9  1  0
  9 10  2  0
 10 11  1  0
 10 12  1  0
 12 13  2  0
 13 14  1  0
  2 15  1  0
 15 16  1  0
 16 17  1  0
 17 18  1  0
 18 19  1  0
 19 20  2  0
 20 21  1  0
 21 22  2  0
 22 23  1  0
 23 24  2  0
 13  7  1  0
 24 19  1  0
  3 25  1  0
  3 26  1  0
  4 27  1  0
  4 28  1  0
  5 29  1  0
  5 30  1  0
  8 31  1  0
  9 32  1  0
 12 33  1  0
 15 34  1  0
 16 35  1  0
 16 36  1  0
 17 37  1  0
 17 38  1  0
 20 39  1  0
 21 40  1  0
 22 41  1  0
 23 42  1  0
M  END
>  <smiles>  (6) 
O=C(CCCOc1ccc(Cl)cc1Cl)NCCOc1ccccn1

>  <score_type>  (6) 
oracle

>  <origin>  (6) 
autodockgpu

>  <m_score__min__energy>  (6) 
-6.2800000000000002

>  <m_primary>  (6) 
energy

>  <meeko>  (6) 
{"free_energy": -3.57, "intermolecular_energy": -6.26, "internal_energy": -4.35, "cluster_size": 8, "cluster_id": 5, "rank_in_cluster": 3}

>  <energy>  (6) 
-4.35

>  <cluster_rmsd>  (6) 
0.27

>  <rmsd>  (6) 
270.76

>  <cluster>  (6) 
4

$$$$

     RDKit          3D

 42 43  0  0  0  0  0  0  0  0999 V2000
  142.0750   74.5160  221.2320 O   0  0  0  0  0  0  0  0  0  0  0  0
  142.2480   73.4560  220.5780 C   0  0  0  0  0  0  0  0  0  0  0  0
  141.0170   72.7030  220.2010 C   0  0  0  0  0  0  0  0  0  0  0  0
  140.7520   71.6540  221.2620 C   0  0  0  0  0  0  0  0  0  0  0  0
  140.4750   72.2910  222.6100 C   0  0  0  0  0  0  0  0  0  0  0  0
  139.6820   71.3670  223.3260 O   0  0  0  0  0  0  0  0  0  0  0  0
  140.0060   70.7850  224.5230 C   0  0  0  0  0  0  0  0  0  0  0  0
  140.7550   71.3890  225.5120 C   0  0  0  0  0  0  0  0  0  0  0  0
  141.0330   70.7160  226.6990 C   0  0  0  0  0  0  0  0  0  0  0  0
  140.5620   69.4360  226.8930 C   0  0  0  0  0  0  0  0  0  0  0  0
  140.8720   68.5240  228.3610 Cl  0  0  0  0  0  0  0  0  0  0  0  0
  139.8180   68.8240  225.9190 C   0  0  0  0  0  0  0  0  0  0  0  0
  139.5380   69.4850  224.7420 C   0  0  0  0  0  0  0  0  0  0  0  0
  138.5840   68.6800  223.5090 Cl  0  0  0  0  0  0  0  0  0  0  0  0
  143.5390   72.9810  220.2080 N   0  0  0  0  0  0  0  0  0  0  0  0
  144.7660   73.6740  220.5500 C   0  0  0  0  0  0  0  0  0  0  0  0
  145.9370   72.9420  219.9720 C   0  0  0  0  0  0  0  0  0  0  0  0
  145.6440   72.0870  218.9100 O   0  0  0  0  0  0  0  0  0  0  0  0
  145.3210   70.7660  219.1560 C   0  0  0  0  0  0  0  0  0  0  0  0
  146.3520   69.8430  219.0430 C   0  0  0  0  0  0  0  0  0  0  0  0
  146.1390   68.4960  219.2670 C   0  0  0  0  0  0  0  0  0  0  0  0
  144.8440   68.1000  219.6120 C   0  0  0  0  0  0  0  0  0  0  0  0
  143.8160   69.0320  219.7210 C   0  0  0  0  0  0  0  0  0  0  0  0
  144.1040   70.3250  219.4880 N   0  0  0  0  0  0  0  0  0  0  0  0
  140.1632   73.3939  220.1407 H   0  0  0  0  0  0  0  0  0  0  0  0
  141.1542   72.2222  219.2212 H   0  0  0  0  0  0  0  0  0  0  0  0
  139.8796   71.0545  220.9630 H   0  0  0  0  0  0  0  0  0  0  0  0
  141.6465   71.0205  221.3547 H   0  0  0  0  0  0  0  0  0  0  0  0
  141.4181   72.4788  223.1442 H   0  0  0  0  0  0  0  0  0  0  0  0
  139.9627   73.2581  222.4991 H   0  0  0  0  0  0  0  0  0  0  0  0
  141.1355   72.4101  225.3616 H   0  0  0  0  0  0  0  0  0  0  0  0
  141.6292   71.2068  227.4824 H   0  0  0  0  0  0  0  0  0  0  0  0
  139.4428   67.8020  226.0765 H   0  0  0  0  0  0  0  0  0  0  0  0
  143.5350   72.0720  219.6560 H   0  0  0  0  0  0  0  0  0  0  0  0
  144.7353   74.6950  220.1417 H   0  0  0  0  0  0  0  0  0  0  0  0
  144.8673   73.7167  221.6445 H   0  0  0  0  0  0  0  0  0  0  0  0
  146.6619   73.6889  219.6161 H   0  0  0  0  0  0  0  0  0  0  0  0
  146.3219   72.3013  220.7791 H   0  0  0  0  0  0  0  0  0  0  0  0
  147.3590   70.1910  218.7696 H   0  0  0  0  0  0  0  0  0  0  0  0
  146.9560   67.7649  219.1773 H   0  0  0  0  0  0  0  0  0  0  0  0
  144.6341   67.0367  219.8001 H   0  0  0  0  0  0  0  0  0  0  0  0
  142.7962   68.7197  219.9902 H   0  0  0  0  0  0  0  0  0  0  0  0
  1  2  2  0
  2  3  1  0
  3  4  1  0
  4  5  1  0
  5  6  1  0
  6  7  1  0
  7  8  2  0
  8  9  1  0
  9 10  2  0
 10 11  1  0
 10 12  1  0
 12 13  2  0
 13 14  1  0
  2 15  1  0
 15 16  1  0
 16 17  1  0
 17 18  1  0
 18 19  1  0
 19 20  2  0
 20 21  1  0
 21 22  2  0
 22 23  1  0
 23 24  2  0
 13  7  1  0
 24 19  1  0
  3 25  1  0
  3 26  1  0
  4 27  1  0
  4 28  1  0
  5 29  1  0
  5 30  1  0
  8 31  1  0
  9 32  1  0
 12 33  1  0
 15 34  1  0
 16 35  1  0
 16 36  1  0
 17 37  1  0
 17 38  1  0
 20 39  1  0
 21 40  1  0
 22 41  1  0
 23 42  1  0
M  END
>  <smiles>  (7) 
O=C(CCCOc1ccc(Cl)cc1Cl)NCCOc1ccccn1

>  <score_type>  (7) 
oracle

>  <origin>  (7) 
autodockgpu

>  <m_score__min__energy>  (7) 
-6.2800000000000002

>  <m_primary>  (7) 
energy

>  <meeko>  (7) 
{"free_energy": -5.52, "intermolecular_energy": -8.2, "internal_energy": -2.27, "cluster_size": 1, "cluster_id": 3, "rank_in_cluster": 1}

>  <energy>  (7) 
-4.32

>  <cluster_rmsd>  (7) 
0.41

>  <rmsd>  (7) 
270.68

>  <cluster>  (7) 
4

$$$$

     RDKit          3D

 42 43  0  0  0  0  0  0  0  0999 V2000
  140.0150   73.7420  222.3460 O   0  0  0  0  0  0  0  0  0  0  0  0
  139.9870   74.6370  221.4630 C   0  0  0  0  0  0  0  0  0  0  0  0
  140.8400   74.4070  220.2610 C   0  0  0  0  0  0  0  0  0  0  0  0
  142.1870   75.0610  220.4970 C   0  0  0  0  0  0  0  0  0  0  0  0
  142.2700   76.4120  219.8140 C   0  0  0  0  0  0  0  0  0  0  0  0
  141.2790   77.2180  220.4160 O   0  0  0  0  0  0  0  0  0  0  0  0
  141.4910   78.1780  221.3700 C   0  0  0  0  0  0  0  0  0  0  0  0
  141.4400   77.9560  222.7320 C   0  0  0  0  0  0  0  0  0  0  0  0
  141.6710   78.9970  223.6270 C   0  0  0  0  0  0  0  0  0  0  0  0
  141.9500   80.2610  223.1580 C   0  0  0  0  0  0  0  0  0  0  0  0
  142.2510   81.6240  224.2230 Cl  0  0  0  0  0  0  0  0  0  0  0  0
  142.0020   80.4970  221.8080 C   0  0  0  0  0  0  0  0  0  0  0  0
  141.7760   79.4700  220.9170 C   0  0  0  0  0  0  0  0  0  0  0  0
  141.8480   79.7950  219.1950 Cl  0  0  0  0  0  0  0  0  0  0  0  0
  139.1920   75.8130  221.5830 N   0  0  0  0  0  0  0  0  0  0  0  0
  138.3470   76.0840  222.7300 C   0  0  0  0  0  0  0  0  0  0  0  0
  137.4610   77.2550  222.4380 C   0  0  0  0  0  0  0  0  0  0  0  0
  137.9060   78.1060  221.4270 O   0  0  0  0  0  0  0  0  0  0  0  0
  138.2460   79.4120  221.7230 C   0  0  0  0  0  0  0  0  0  0  0  0
  138.2800   79.7550  223.0680 C   0  0  0  0  0  0  0  0  0  0  0  0
  138.6080   81.0350  223.4750 C   0  0  0  0  0  0  0  0  0  0  0  0
  138.9040   81.9680  222.4790 C   0  0  0  0  0  0  0  0  0  0  0  0
  138.8670   81.6160  221.1330 C   0  0  0  0  0  0  0  0  0  0  0  0
  138.5390   80.3500  220.8180 N   0  0  0  0  0  0  0  0  0  0  0  0
  140.9743   73.3269  220.1021 H   0  0  0  0  0  0  0  0  0  0  0  0
  140.3613   74.8392  219.3699 H   0  0  0  0  0  0  0  0  0  0  0  0
  142.3351   75.1964  221.5785 H   0  0  0  0  0  0  0  0  0  0  0  0
  142.9677   74.4103  220.0760 H   0  0  0  0  0  0  0  0  0  0  0  0
  143.2655   76.8551  219.9645 H   0  0  0  0  0  0  0  0  0  0  0  0
  142.1111   76.3237  218.7291 H   0  0  0  0  0  0  0  0  0  0  0  0
  141.2151   76.9488  223.1127 H   0  0  0  0  0  0  0  0  0  0  0  0
  141.6306   78.8094  224.7101 H   0  0  0  0  0  0  0  0  0  0  0  0
  142.2245   81.5078  221.4356 H   0  0  0  0  0  0  0  0  0  0  0  0
  139.2660   76.4830  220.7610 H   0  0  0  0  0  0  0  0  0  0  0  0
  137.7272   75.2009  222.9444 H   0  0  0  0  0  0  0  0  0  0  0  0
  138.9779   76.3127  223.6016 H   0  0  0  0  0  0  0  0  0  0  0  0
  136.4735   76.8685  222.1457 H   0  0  0  0  0  0  0  0  0  0  0  0
  137.4457   77.8593  223.3570 H   0  0  0  0  0  0  0  0  0  0  0  0
  138.0412   78.9932  223.8248 H   0  0  0  0  0  0  0  0  0  0  0  0
  138.6347   81.3074  224.5404 H   0  0  0  0  0  0  0  0  0  0  0  0
  139.1705   82.9969  222.7626 H   0  0  0  0  0  0  0  0  0  0  0  0
  139.0993   82.3520  220.3492 H   0  0  0  0  0  0  0  0  0  0  0  0
  1  2  2  0
  2  3  1  0
  3  4  1  0
  4  5  1  0
  5  6  1  0
  6  7  1  0
  7  8  2  0
  8  9  1  0
  9 10  2  0
 10 11  1  0
 10 12  1  0
 12 13  2  0
 13 14  1  0
  2 15  1  0
 15 16  1  0
 16 17  1  0
 17 18  1  0
 18 19  1  0
 19 20  2  0
 20 21  1  0
 21 22  2  0
 22 23  1  0
 23 24  2  0
 13  7  1  0
 24 19  1  0
  3 25  1  0
  3 26  1  0
  4 27  1  0
  4 28  1  0
  5 29  1  0
  5 30  1  0
  8 31  1  0
  9 32  1  0
 12 33  1  0
 15 34  1  0
 16 35  1  0
 16 36  1  0
 17 37  1  0
 17 38  1  0
 20 39  1  0
 21 40  1  0
 22 41  1  0
 23 42  1  0
M  END
>  <smiles>  (8) 
O=C(CCCOc1ccc(Cl)cc1Cl)NCCOc1ccccn1

>  <score_type>  (8) 
oracle

>  <origin>  (8) 
autodockgpu

>  <m_score__min__energy>  (8) 
-6.2800000000000002

>  <m_primary>  (8) 
energy

>  <meeko>  (8) 
{"free_energy": -4.08, "intermolecular_energy": -6.77, "internal_energy": -3.73, "cluster_size": 8, "cluster_id": 5, "rank_in_cluster": 1}

>  <energy>  (8) 
-3.49

>  <cluster_rmsd>  (8) 
1.65

>  <rmsd>  (8) 
270.94

>  <cluster>  (8) 
4

$$$$

     RDKit          3D

 42 43  0  0  0  0  0  0  0  0999 V2000
  139.9320   74.4120  221.9970 O   0  0  0  0  0  0  0  0  0  0  0  0
  139.6540   75.6370  221.9440 C   0  0  0  0  0  0  0  0  0  0  0  0
  138.4590   76.0790  222.7190 C   0  0  0  0  0  0  0  0  0  0  0  0
  137.3010   76.2570  221.7560 C   0  0  0  0  0  0  0  0  0  0  0  0
  137.3530   77.6120  221.0780 C   0  0  0  0  0  0  0  0  0  0  0  0
  138.1930   78.4190  221.8770 O   0  0  0  0  0  0  0  0  0  0  0  0
  138.6940   79.6470  221.5340 C   0  0  0  0  0  0  0  0  0  0  0  0
  139.0550   80.0180  220.2540 C   0  0  0  0  0  0  0  0  0  0  0  0
  139.5570   81.2930  220.0020 C   0  0  0  0  0  0  0  0  0  0  0  0
  139.6990   82.1940  221.0330 C   0  0  0  0  0  0  0  0  0  0  0  0
  140.3230   83.8180  220.7940 Cl  0  0  0  0  0  0  0  0  0  0  0  0
  139.3450   81.8400  222.3090 C   0  0  0  0  0  0  0  0  0  0  0  0
  138.8470   80.5800  222.5650 C   0  0  0  0  0  0  0  0  0  0  0  0
  138.4020   80.1490  224.2060 Cl  0  0  0  0  0  0  0  0  0  0  0  0
  140.4250   76.5700  221.1910 N   0  0  0  0  0  0  0  0  0  0  0  0
  141.5940   76.1920  220.4210 C   0  0  0  0  0  0  0  0  0  0  0  0
  142.3260   77.4220  219.9800 C   0  0  0  0  0  0  0  0  0  0  0  0
  141.7480   78.6320  220.3610 O   0  0  0  0  0  0  0  0  0  0  0  0
  141.8800   79.0820  221.6610 C   0  0  0  0  0  0  0  0  0  0  0  0
  142.5140   80.3060  221.8330 C   0  0  0  0  0  0  0  0  0  0  0  0
  142.6990   80.8490  223.0900 C   0  0  0  0  0  0  0  0  0  0  0  0
  142.2220   80.1170  224.1810 C   0  0  0  0  0  0  0  0  0  0  0  0
  141.5890   78.8910  223.9990 C   0  0  0  0  0  0  0  0  0  0  0  0
  141.4470   78.4310  222.7440 N   0  0  0  0  0  0  0  0  0  0  0  0
  138.2025   75.3187  223.4715 H   0  0  0  0  0  0  0  0  0  0  0  0
  138.6722   77.0282  223.2323 H   0  0  0  0  0  0  0  0  0  0  0  0
  137.3486   75.4702  220.9888 H   0  0  0  0  0  0  0  0  0  0  0  0
  136.3621   76.1888  222.3250 H   0  0  0  0  0  0  0  0  0  0  0  0
  137.7684   77.5156  220.0640 H   0  0  0  0  0  0  0  0  0  0  0  0
  136.3491   78.0509  220.9805 H   0  0  0  0  0  0  0  0  0  0  0  0
  138.9454   79.3013  219.4267 H   0  0  0  0  0  0  0  0  0  0  0  0
  139.8401   81.5799  218.9785 H   0  0  0  0  0  0  0  0  0  0  0  0
  139.4585   82.5627  223.1305 H   0  0  0  0  0  0  0  0  0  0  0  0
  140.0750   77.5730  221.2380 H   0  0  0  0  0  0  0  0  0  0  0  0
  142.2581   75.5745  221.0436 H   0  0  0  0  0  0  0  0  0  0  0  0
  141.2786   75.6185  219.5369 H   0  0  0  0  0  0  0  0  0  0  0  0
  143.3407   77.3828  220.4030 H   0  0  0  0  0  0  0  0  0  0  0  0
  142.3040   77.4092  218.8803 H   0  0  0  0  0  0  0  0  0  0  0  0
  142.8761   80.8540  220.9506 H   0  0  0  0  0  0  0  0  0  0  0  0
  143.2013   81.8180  223.2266 H   0  0  0  0  0  0  0  0  0  0  0  0
  142.3488   80.5158  225.1983 H   0  0  0  0  0  0  0  0  0  0  0  0
  141.2154   78.3146  224.8581 H   0  0  0  0  0  0  0  0  0  0  0  0
  1  2  2  0
  2  3  1  0
  3  4  1  0
  4  5  1  0
  5  6  1  0
  6  7  1  0
  7  8  2  0
  8  9  1  0
  9 10  2  0
 10 11  1  0
 10 12  1  0
 12 13  2  0
 13 14  1  0
  2 15  1  0
 15 16  1  0
 16 17  1  0
 17 18  1  0
 18 19  1  0
 19 20  2  0
 20 21  1  0
 21 22  2  0
 22 23  1  0
 23 24  2  0
 13  7  1  0
 24 19  1  0
  3 25  1  0
  3 26  1  0
  4 27  1  0
  4 28  1  0
  5 29  1  0
  5 30  1  0
  8 31  1  0
  9 32  1  0
 12 33  1  0
 15 34  1  0
 16 35  1  0
 16 36  1  0
 17 37  1  0
 17 38  1  0
 20 39  1  0
 21 40  1  0
 22 41  1  0
 23 42  1  0
M  END
>  <smiles>  (9) 
O=C(CCCOc1ccc(Cl)cc1Cl)NCCOc1ccccn1

>  <score_type>  (9) 
oracle

>  <origin>  (9) 
autodockgpu

>  <m_score__min__energy>  (9) 
-6.2800000000000002

>  <m_primary>  (9) 
energy

>  <meeko>  (9) 
{"free_energy": -3.56, "intermolecular_energy": -6.24, "internal_energy": -4.34, "cluster_size": 8, "cluster_id": 5, "rank_in_cluster": 8}

>  <energy>  (9) 
-3.47

>  <cluster_rmsd>  (9) 
1.58

>  <rmsd>  (9) 
271.01

>  <cluster>  (9) 
4

$$$$

     RDKit          3D

 42 43  0  0  0  0  0  0  0  0999 V2000
  142.9630   78.2960  217.3930 O   0  0  0  0  0  0  0  0  0  0  0  0
  142.3180   78.3230  218.4720 C   0  0  0  0  0  0  0  0  0  0  0  0
  142.1360   77.0170  219.1680 C   0  0  0  0  0  0  0  0  0  0  0  0
  141.8210   77.2890  220.6260 C   0  0  0  0  0  0  0  0  0  0  0  0
  140.3680   76.9890  220.9400 C   0  0  0  0  0  0  0  0  0  0  0  0
  139.6810   78.2180  220.8270 O   0  0  0  0  0  0  0  0  0  0  0  0
  139.2040   78.9730  221.8660 C   0  0  0  0  0  0  0  0  0  0  0  0
  139.6290   78.8660  223.1740 C   0  0  0  0  0  0  0  0  0  0  0  0
  139.0840   79.6790  224.1640 C   0  0  0  0  0  0  0  0  0  0  0  0
  138.1110   80.5980  223.8430 C   0  0  0  0  0  0  0  0  0  0  0  0
  137.3760   81.6580  225.0350 Cl  0  0  0  0  0  0  0  0  0  0  0  0
  137.6780   80.7160  222.5480 C   0  0  0  0  0  0  0  0  0  0  0  0
  138.2140   79.9140  221.5630 C   0  0  0  0  0  0  0  0  0  0  0  0
  137.6440   80.0820  219.9130 Cl  0  0  0  0  0  0  0  0  0  0  0  0
  141.7810   79.5250  219.0180 N   0  0  0  0  0  0  0  0  0  0  0  0
  141.9290   80.8190  218.3810 C   0  0  0  0  0  0  0  0  0  0  0  0
  141.4870   81.8970  219.3230 C   0  0  0  0  0  0  0  0  0  0  0  0
  140.8340   81.4570  220.4730 O   0  0  0  0  0  0  0  0  0  0  0  0
  141.5670   81.1090  221.5920 C   0  0  0  0  0  0  0  0  0  0  0  0
  141.4020   81.9090  222.7160 C   0  0  0  0  0  0  0  0  0  0  0  0
  142.0860   81.6510  223.8880 C   0  0  0  0  0  0  0  0  0  0  0  0
  142.9510   80.5540  223.8980 C   0  0  0  0  0  0  0  0  0  0  0  0
  143.1110   79.7580  222.7670 C   0  0  0  0  0  0  0  0  0  0  0  0
  142.4090   80.0750  221.6640 N   0  0  0  0  0  0  0  0  0  0  0  0
  141.3056   76.4628  218.7060 H   0  0  0  0  0  0  0  0  0  0  0  0
  143.0532   76.4152  219.0863 H   0  0  0  0  0  0  0  0  0  0  0  0
  142.4622   76.6547  221.2557 H   0  0  0  0  0  0  0  0  0  0  0  0
  142.0079   78.3538  220.8293 H   0  0  0  0  0  0  0  0  0  0  0  0
  139.9652   76.2591  220.2224 H   0  0  0  0  0  0  0  0  0  0  0  0
  140.2551   76.5564  221.9450 H   0  0  0  0  0  0  0  0  0  0  0  0
  140.4051   78.1321  223.4370 H   0  0  0  0  0  0  0  0  0  0  0  0
  139.4313   79.5868  225.2037 H   0  0  0  0  0  0  0  0  0  0  0  0
  136.9011   81.4522  222.2940 H   0  0  0  0  0  0  0  0  0  0  0  0
  141.2590   79.4000  219.9360 H   0  0  0  0  0  0  0  0  0  0  0  0
  142.9843   80.9767  218.1135 H   0  0  0  0  0  0  0  0  0  0  0  0
  141.3098   80.8516  217.4724 H   0  0  0  0  0  0  0  0  0  0  0  0
  142.3782   82.4618  219.6342 H   0  0  0  0  0  0  0  0  0  0  0  0
  140.7518   82.4996  218.7695 H   0  0  0  0  0  0  0  0  0  0  0  0
  140.7127   82.7651  222.6716 H   0  0  0  0  0  0  0  0  0  0  0  0
  141.9549   82.2841  224.7780 H   0  0  0  0  0  0  0  0  0  0  0  0
  143.5138   80.3157  224.8126 H   0  0  0  0  0  0  0  0  0  0  0  0
  143.7921   78.8943  222.7750 H   0  0  0  0  0  0  0  0  0  0  0  0
  1  2  2  0
  2  3  1  0
  3  4  1  0
  4  5  1  0
  5  6  1  0
  6  7  1  0
  7  8  2  0
  8  9  1  0
  9 10  2  0
 10 11  1  0
 10 12  1  0
 12 13  2  0
 13 14  1  0
  2 15  1  0
 15 16  1  0
 16 17  1  0
 17 18  1  0
 18 19  1  0
 19 20  2  0
 20 21  1  0
 21 22  2  0
 22 23  1  0
 23 24  2  0
 13  7  1  0
 24 19  1  0
  3 25  1  0
  3 26  1  0
  4 27  1  0
  4 28  1  0
  5 29  1  0
  5 30  1  0
  8 31  1  0
  9 32  1  0
 12 33  1  0
 15 34  1  0
 16 35  1  0
 16 36  1  0
 17 37  1  0
 17 38  1  0
 20 39  1  0
 21 40  1  0
 22 41  1  0
 23 42  1  0
M  END
>  <smiles>  (10) 
O=C(CCCOc1ccc(Cl)cc1Cl)NCCOc1ccccn1

>  <score_type>  (10) 
oracle

>  <origin>  (10) 
autodockgpu

>  <m_score__min__energy>  (10) 
-6.2800000000000002

>  <m_primary>  (10) 
energy

>  <meeko>  (10) 
{"free_energy": -3.36, "intermolecular_energy": -6.05, "internal_energy": -4.34, "cluster_size": 2, "cluster_id": 7, "rank_in_cluster": 2}

>  <energy>  (10) 
-4.08

>  <cluster_rmsd>  (10) 
0.0

>  <rmsd>  (10) 
270.91

>  <cluster>  (10) 
5

$$$$

     RDKit          3D

 42 43  0  0  0  0  0  0  0  0999 V2000
  138.3860   71.7380  222.5460 O   0  0  0  0  0  0  0  0  0  0  0  0
  139.5020   71.3600  222.9860 C   0  0  0  0  0  0  0  0  0  0  0  0
  140.6670   72.2350  222.6710 C   0  0  0  0  0  0  0  0  0  0  0  0
  140.5590   72.6780  221.2250 C   0  0  0  0  0  0  0  0  0  0  0  0
  140.8320   74.1630  221.0830 C   0  0  0  0  0  0  0  0  0  0  0  0
  139.9350   74.8120  221.9600 O   0  0  0  0  0  0  0  0  0  0  0  0
  139.9370   76.1470  222.2710 C   0  0  0  0  0  0  0  0  0  0  0  0
  141.0720   76.9240  222.3880 C   0  0  0  0  0  0  0  0  0  0  0  0
  140.9740   78.2750  222.7080 C   0  0  0  0  0  0  0  0  0  0  0  0
  139.7380   78.8480  222.9140 C   0  0  0  0  0  0  0  0  0  0  0  0
  139.5340   80.5430  223.3210 Cl  0  0  0  0  0  0  0  0  0  0  0  0
  138.6030   78.0880  222.8020 C   0  0  0  0  0  0  0  0  0  0  0  0
  138.6930   76.7500  222.4840 C   0  0  0  0  0  0  0  0  0  0  0  0
  137.2260   75.7980  222.3460 Cl  0  0  0  0  0  0  0  0  0  0  0  0
  139.6660   70.1660  223.7450 N   0  0  0  0  0  0  0  0  0  0  0  0
  138.5660   69.2810  224.0780 C   0  0  0  0  0  0  0  0  0  0  0  0
  138.9720   68.3690  225.1950 C   0  0  0  0  0  0  0  0  0  0  0  0
  140.2290   68.6180  225.7440 O   0  0  0  0  0  0  0  0  0  0  0  0
  140.4720   69.8080  226.4030 C   0  0  0  0  0  0  0  0  0  0  0  0
  139.8310   69.9850  227.6220 C   0  0  0  0  0  0  0  0  0  0  0  0
  140.0030   71.1380  228.3650 C   0  0  0  0  0  0  0  0  0  0  0  0
  140.8480   72.1180  227.8390 C   0  0  0  0  0  0  0  0  0  0  0  0
  141.4850   71.9340  226.6160 C   0  0  0  0  0  0  0  0  0  0  0  0
  141.2670   70.7840  225.9540 N   0  0  0  0  0  0  0  0  0  0  0  0
  140.6588   73.1154  223.3304 H   0  0  0  0  0  0  0  0  0  0  0  0
  141.6058   71.6833  222.8270 H   0  0  0  0  0  0  0  0  0  0  0  0
  141.2913   72.1197  220.6233 H   0  0  0  0  0  0  0  0  0  0  0  0
  139.5354   72.4777  220.8755 H   0  0  0  0  0  0  0  0  0  0  0  0
  141.8712   74.3887  221.3642 H   0  0  0  0  0  0  0  0  0  0  0  0
  140.6933   74.4996  220.0450 H   0  0  0  0  0  0  0  0  0  0  0  0
  142.0618   76.4718  222.2271 H   0  0  0  0  0  0  0  0  0  0  0  0
  141.8844   78.8860  222.7965 H   0  0  0  0  0  0  0  0  0  0  0  0
  137.6171   78.5474  222.9664 H   0  0  0  0  0  0  0  0  0  0  0  0
  140.6650   69.9700  224.0530 H   0  0  0  0  0  0  0  0  0  0  0  0
  137.6976   69.8790  224.3915 H   0  0  0  0  0  0  0  0  0  0  0  0
  138.3016   68.6804  223.1952 H   0  0  0  0  0  0  0  0  0  0  0  0
  138.2263   68.4634  225.9981 H   0  0  0  0  0  0  0  0  0  0  0  0
  139.0266   67.3609  224.7583 H   0  0  0  0  0  0  0  0  0  0  0  0
  139.1726   69.1911  228.0044 H   0  0  0  0  0  0  0  0  0  0  0  0
  139.4953   71.2779  229.3307 H   0  0  0  0  0  0  0  0  0  0  0  0
  141.0123   73.0496  228.4004 H   0  0  0  0  0  0  0  0  0  0  0  0
  142.1485   72.7076  226.2021 H   0  0  0  0  0  0  0  0  0  0  0  0
  1  2  2  0
  2  3  1  0
  3  4  1  0
  4  5  1  0
  5  6  1  0
  6  7  1  0
  7  8  2  0
  8  9  1  0
  9 10  2  0
 10 11  1  0
 10 12  1  0
 12 13  2  0
 13 14  1  0
  2 15  1  0
 15 16  1  0
 16 17  1  0
 17 18  1  0
 18 19  1  0
 19 20  2  0
 20 21  1  0
 21 22  2  0
 22 23  1  0
 23 24  2  0
 13  7  1  0
 24 19  1  0
  3 25  1  0
  3 26  1  0
  4 27  1  0
  4 28  1  0
  5 29  1  0
  5 30  1  0
  8 31  1  0
  9 32  1  0
 12 33  1  0
 15 34  1  0
 16 35  1  0
 16 36  1  0
 17 37  1  0
 17 38  1  0
 20 39  1  0
 21 40  1  0
 22 41  1  0
 23 42  1  0
M  END
>  <smiles>  (11) 
O=C(CCCOc1ccc(Cl)cc1Cl)NCCOc1ccccn1

>  <score_type>  (11) 
oracle

>  <origin>  (11) 
autodockgpu

>  <m_score__min__energy>  (11) 
-6.2800000000000002

>  <m_primary>  (11) 
energy

>  <meeko>  (11) 
{"free_energy": -5.71, "intermolecular_energy": -8.39, "internal_energy": -2.28, "cluster_size": 2, "cluster_id": 2, "rank_in_cluster": 1}

>  <energy>  (11) 
-3.57

>  <cluster_rmsd>  (11) 
1.75

>  <rmsd>  (11) 
271.09

>  <cluster>  (11) 
5

$$$$

     RDKit          3D

 42 43  0  0  0  0  0  0  0  0999 V2000
  140.0010   74.1410  222.1030 O   0  0  0  0  0  0  0  0  0  0  0  0
  140.4820   75.2020  221.6290 C   0  0  0  0  0  0  0  0  0  0  0  0
  141.7940   75.0800  220.9310 C   0  0  0  0  0  0  0  0  0  0  0  0
  141.7870   76.0090  219.7320 C   0  0  0  0  0  0  0  0  0  0  0  0
  142.3800   77.3610  220.0810 C   0  0  0  0  0  0  0  0  0  0  0  0
  141.4310   78.3230  219.6690 O   0  0  0  0  0  0  0  0  0  0  0  0
  141.7110   79.5670  219.1690 C   0  0  0  0  0  0  0  0  0  0  0  0
  141.4860   80.7520  219.8410 C   0  0  0  0  0  0  0  0  0  0  0  0
  141.8040   81.9720  219.2500 C   0  0  0  0  0  0  0  0  0  0  0  0
  142.3460   82.0050  217.9850 C   0  0  0  0  0  0  0  0  0  0  0  0
  142.7730   83.5030  217.1750 Cl  0  0  0  0  0  0  0  0  0  0  0  0
  142.5750   80.8370  217.3050 C   0  0  0  0  0  0  0  0  0  0  0  0
  142.2630   79.6260  217.8850 C   0  0  0  0  0  0  0  0  0  0  0  0
  142.5650   78.1440  216.9960 Cl  0  0  0  0  0  0  0  0  0  0  0  0
  139.8260   76.4620  221.7430 N   0  0  0  0  0  0  0  0  0  0  0  0
  138.5510   76.6340  222.4120 C   0  0  0  0  0  0  0  0  0  0  0  0
  138.3140   78.0890  222.6800 C   0  0  0  0  0  0  0  0  0  0  0  0
  139.1290   78.9690  221.9680 O   0  0  0  0  0  0  0  0  0  0  0  0
  140.3270   79.3940  222.5100 C   0  0  0  0  0  0  0  0  0  0  0  0
  140.3660   80.6990  222.9830 C   0  0  0  0  0  0  0  0  0  0  0  0
  141.5140   81.2260  223.5440 C   0  0  0  0  0  0  0  0  0  0  0  0
  142.6320   80.3920  223.6170 C   0  0  0  0  0  0  0  0  0  0  0  0
  142.5850   79.0860  223.1400 C   0  0  0  0  0  0  0  0  0  0  0  0
  141.4300   78.6470  222.6080 N   0  0  0  0  0  0  0  0  0  0  0  0
  142.6068   75.3635  221.6158 H   0  0  0  0  0  0  0  0  0  0  0  0
  141.9527   74.0419  220.6037 H   0  0  0  0  0  0  0  0  0  0  0  0
  142.3792   75.5555  218.9235 H   0  0  0  0  0  0  0  0  0  0  0  0
  140.7448   76.1580  219.4133 H   0  0  0  0  0  0  0  0  0  0  0  0
  142.5519   77.4342  221.1650 H   0  0  0  0  0  0  0  0  0  0  0  0
  143.3496   77.5148  219.5848 H   0  0  0  0  0  0  0  0  0  0  0  0
  141.0519   80.7321  220.8516 H   0  0  0  0  0  0  0  0  0  0  0  0
  141.6220   82.9103  219.7944 H   0  0  0  0  0  0  0  0  0  0  0  0
  143.0086   80.8661  216.2945 H   0  0  0  0  0  0  0  0  0  0  0  0
  140.3470   77.2740  221.2960 H   0  0  0  0  0  0  0  0  0  0  0  0
  137.7463   76.2443  221.7712 H   0  0  0  0  0  0  0  0  0  0  0  0
  138.5626   76.0850  223.3651 H   0  0  0  0  0  0  0  0  0  0  0  0
  137.2677   78.3148  222.4263 H   0  0  0  0  0  0  0  0  0  0  0  0
  138.5549   78.2447  223.7419 H   0  0  0  0  0  0  0  0  0  0  0  0
  139.4651   81.3259  222.9097 H   0  0  0  0  0  0  0  0  0  0  0  0
  141.5459   82.2601  223.9177 H   0  0  0  0  0  0  0  0  0  0  0  0
  143.5643   80.7738  224.0586 H   0  0  0  0  0  0  0  0  0  0  0  0
  143.4670   78.4311  223.1962 H   0  0  0  0  0  0  0  0  0  0  0  0
  1  2  2  0
  2  3  1  0
  3  4  1  0
  4  5  1  0
  5  6  1  0
  6  7  1  0
  7  8  2  0
  8  9  1  0
  9 10  2  0
 10 11  1  0
 10 12  1  0
 12 13  2  0
 13 14  1  0
  2 15  1  0
 15 16  1  0
 16 17  1  0
 17 18  1  0
 18 19  1  0
 19 20  2  0
 20 21  1  0
 21 22  2  0
 22 23  1  0
 23 24  2  0
 13  7  1  0
 24 19  1  0
  3 25  1  0
  3 26  1  0
  4 27  1  0
  4 28  1  0
  5 29  1  0
  5 30  1  0
  8 31  1  0
  9 32  1  0
 12 33  1  0
 15 34  1  0
 16 35  1  0
 16 36  1  0
 17 37  1  0
 17 38  1  0
 20 39  1  0
 21 40  1  0
 22 41  1  0
 23 42  1  0
M  END
>  <smiles>  (12) 
O=C(CCCOc1ccc(Cl)cc1Cl)NCCOc1ccccn1

>  <score_type>  (12) 
oracle

>  <origin>  (12) 
autodockgpu

>  <m_score__min__energy>  (12) 
-6.2800000000000002

>  <m_primary>  (12) 
energy

>  <meeko>  (12) 
{"free_energy": -4.35, "intermolecular_energy": -7.03, "internal_energy": -3.56, "cluster_size": 5, "cluster_id": 4, "rank_in_cluster": 2}

>  <energy>  (12) 
-3.57

>  <cluster_rmsd>  (12) 
1.77

>  <rmsd>  (12) 
271.12

>  <cluster>  (12) 
5

$$$$

     RDKit          3D

 42 43  0  0  0  0  0  0  0  0999 V2000
  139.9340   74.3180  222.1990 O   0  0  0  0  0  0  0  0  0  0  0  0
  140.5030   75.3370  221.7340 C   0  0  0  0  0  0  0  0  0  0  0  0
  141.8160   75.1140  221.0640 C   0  0  0  0  0  0  0  0  0  0  0  0
  141.8260   75.8820  219.7570 C   0  0  0  0  0  0  0  0  0  0  0  0
  142.4890   77.2360  219.9190 C   0  0  0  0  0  0  0  0  0  0  0  0
  141.5130   78.1960  219.5730 O   0  0  0  0  0  0  0  0  0  0  0  0
  141.7550   79.4520  219.0820 C   0  0  0  0  0  0  0  0  0  0  0  0
  141.5430   80.6220  219.7820 C   0  0  0  0  0  0  0  0  0  0  0  0
  141.8200   81.8560  219.1980 C   0  0  0  0  0  0  0  0  0  0  0  0
  142.3090   81.9160  217.9120 C   0  0  0  0  0  0  0  0  0  0  0  0
  142.6820   83.4310  217.1080 Cl  0  0  0  0  0  0  0  0  0  0  0  0
  142.5240   80.7610  217.2050 C   0  0  0  0  0  0  0  0  0  0  0  0
  142.2520   79.5370  217.7770 C   0  0  0  0  0  0  0  0  0  0  0  0
  142.5350   78.0740  216.8530 Cl  0  0  0  0  0  0  0  0  0  0  0  0
  139.9420   76.6440  221.8300 N   0  0  0  0  0  0  0  0  0  0  0  0
  138.6700   76.9140  222.4710 C   0  0  0  0  0  0  0  0  0  0  0  0
  138.5400   78.3840  222.7320 C   0  0  0  0  0  0  0  0  0  0  0  0
  139.4030   79.2010  222.0040 O   0  0  0  0  0  0  0  0  0  0  0  0
  140.6100   79.5920  222.5510 C   0  0  0  0  0  0  0  0  0  0  0  0
  140.6080   80.7750  223.2780 C   0  0  0  0  0  0  0  0  0  0  0  0
  141.7610   81.2590  223.8670 C   0  0  0  0  0  0  0  0  0  0  0  0
  142.9280   80.5090  223.7020 C   0  0  0  0  0  0  0  0  0  0  0  0
  142.9220   79.3250  222.9700 C   0  0  0  0  0  0  0  0  0  0  0  0
  141.7590   78.9210  222.4280 N   0  0  0  0  0  0  0  0  0  0  0  0
  142.6289   75.4737  221.7119 H   0  0  0  0  0  0  0  0  0  0  0  0
  141.9634   74.0410  220.8716 H   0  0  0  0  0  0  0  0  0  0  0  0
  142.3780   75.3005  219.0039 H   0  0  0  0  0  0  0  0  0  0  0  0
  140.7849   76.0409  219.4395 H   0  0  0  0  0  0  0  0  0  0  0  0
  142.8131   77.3798  220.9603 H   0  0  0  0  0  0  0  0  0  0  0  0
  143.3816   77.3242  219.2823 H   0  0  0  0  0  0  0  0  0  0  0  0
  141.1521   80.5800  220.8094 H   0  0  0  0  0  0  0  0  0  0  0  0
  141.6480   82.7831  219.7644 H   0  0  0  0  0  0  0  0  0  0  0  0
  142.9148   80.8115  216.1780 H   0  0  0  0  0  0  0  0  0  0  0  0
  140.5320   77.4120  221.3910 H   0  0  0  0  0  0  0  0  0  0  0  0
  137.8517   76.5853  221.8134 H   0  0  0  0  0  0  0  0  0  0  0  0
  138.6185   76.3680  223.4245 H   0  0  0  0  0  0  0  0  0  0  0  0
  137.5085   78.6810  222.4915 H   0  0  0  0  0  0  0  0  0  0  0  0
  138.8076   78.5280  223.7892 H   0  0  0  0  0  0  0  0  0  0  0  0
  139.6697   81.3385  223.3874 H   0  0  0  0  0  0  0  0  0  0  0  0
  141.7597   82.1966  224.4423 H   0  0  0  0  0  0  0  0  0  0  0  0
  143.8659   80.8594  224.1575 H   0  0  0  0  0  0  0  0  0  0  0  0
  143.8420   78.7365  222.8385 H   0  0  0  0  0  0  0  0  0  0  0  0
  1  2  2  0
  2  3  1  0
  3  4  1  0
  4  5  1  0
  5  6  1  0
  6  7  1  0
  7  8  2  0
  8  9  1  0
  9 10  2  0
 10 11  1  0
 10 12  1  0
 12 13  2  0
 13 14  1  0
  2 15  1  0
 15 16  1  0
 16 17  1  0
 17 18  1  0
 18 19  1  0
 19 20  2  0
 20 21  1  0
 21 22  2  0
 22 23  1  0
 23 24  2  0
 13  7  1  0
 24 19  1  0
  3 25  1  0
  3 26  1  0
  4 27  1  0
  4 28  1  0
  5 29  1  0
  5 30  1  0
  8 31  1  0
  9 32  1  0
 12 33  1  0
 15 34  1  0
 16 35  1  0
 16 36  1  0
 17 37  1  0
 17 38  1  0
 20 39  1  0
 21 40  1  0
 22 41  1  0
 23 42  1  0
M  END
>  <smiles>  (13) 
O=C(CCCOc1ccc(Cl)cc1Cl)NCCOc1ccccn1

>  <score_type>  (13) 
oracle

>  <origin>  (13) 
autodockgpu

>  <m_score__min__energy>  (13) 
-6.2800000000000002

>  <m_primary>  (13) 
energy

>  <meeko>  (13) 
{"free_energy": -4.36, "intermolecular_energy": -7.05, "internal_energy": -3.55, "cluster_size": 5, "cluster_id": 4, "rank_in_cluster": 1}

>  <energy>  (13) 
-3.57

>  <cluster_rmsd>  (13) 
1.77

>  <rmsd>  (13) 
271.11

>  <cluster>  (13) 
5

$$$$

     RDKit          3D

 42 43  0  0  0  0  0  0  0  0999 V2000
  140.1510   74.5200  222.0750 O   0  0  0  0  0  0  0  0  0  0  0  0
  140.5840   75.6110  221.6230 C   0  0  0  0  0  0  0  0  0  0  0  0
  141.8260   75.5390  220.8020 C   0  0  0  0  0  0  0  0  0  0  0  0
  141.5080   76.0360  219.4050 C   0  0  0  0  0  0  0  0  0  0  0  0
  141.9540   77.4730  219.2170 C   0  0  0  0  0  0  0  0  0  0  0  0
  140.7930   78.2650  219.3530 O   0  0  0  0  0  0  0  0  0  0  0  0
  140.7620   79.6130  219.5950 C   0  0  0  0  0  0  0  0  0  0  0  0
  141.8770   80.4000  219.8010 C   0  0  0  0  0  0  0  0  0  0  0  0
  141.7450   81.7660  220.0410 C   0  0  0  0  0  0  0  0  0  0  0  0
  140.4960   82.3420  220.0750 C   0  0  0  0  0  0  0  0  0  0  0  0
  140.2490   84.0550  220.3710 Cl  0  0  0  0  0  0  0  0  0  0  0  0
  139.3790   81.5730  219.8730 C   0  0  0  0  0  0  0  0  0  0  0  0
  139.5020   80.2210  219.6350 C   0  0  0  0  0  0  0  0  0  0  0  0
  138.0590   79.2580  219.3790 Cl  0  0  0  0  0  0  0  0  0  0  0  0
  139.9400   76.8570  221.8710 N   0  0  0  0  0  0  0  0  0  0  0  0
  138.7310   76.9810  222.6620 C   0  0  0  0  0  0  0  0  0  0  0  0
  138.5480   78.4070  223.0840 C   0  0  0  0  0  0  0  0  0  0  0  0
  139.2860   79.3440  222.3620 O   0  0  0  0  0  0  0  0  0  0  0  0
  140.5410   79.7220  222.8000 C   0  0  0  0  0  0  0  0  0  0  0  0
  140.6310   80.9510  223.4410 C   0  0  0  0  0  0  0  0  0  0  0  0
  141.8380   81.4250  223.9190 C   0  0  0  0  0  0  0  0  0  0  0  0
  142.9640   80.6190  223.7310 C   0  0  0  0  0  0  0  0  0  0  0  0
  142.8650   79.3890  223.0860 C   0  0  0  0  0  0  0  0  0  0  0  0
  141.6540   78.9980  222.6500 N   0  0  0  0  0  0  0  0  0  0  0  0
  142.6057   76.1709  221.2522 H   0  0  0  0  0  0  0  0  0  0  0  0
  142.1905   74.5020  220.7596 H   0  0  0  0  0  0  0  0  0  0  0  0
  142.0268   75.4009  218.6719 H   0  0  0  0  0  0  0  0  0  0  0  0
  140.4188   75.9885  219.2590 H   0  0  0  0  0  0  0  0  0  0  0  0
  142.6943   77.7462  219.9834 H   0  0  0  0  0  0  0  0  0  0  0  0
  142.4285   77.6211  218.2357 H   0  0  0  0  0  0  0  0  0  0  0  0
  142.8781   79.9449  219.7755 H   0  0  0  0  0  0  0  0  0  0  0  0
  142.6400   82.3845  220.2034 H   0  0  0  0  0  0  0  0  0  0  0  0
  138.3818   82.0364  219.9010 H   0  0  0  0  0  0  0  0  0  0  0  0
  140.4160   77.6980  221.4260 H   0  0  0  0  0  0  0  0  0  0  0  0
  137.8663   76.6638  222.0606 H   0  0  0  0  0  0  0  0  0  0  0  0
  138.8130   76.3443  223.5552 H   0  0  0  0  0  0  0  0  0  0  0  0
  137.4825   78.6586  222.9766 H   0  0  0  0  0  0  0  0  0  0  0  0
  138.9141   78.4658  224.1196 H   0  0  0  0  0  0  0  0  0  0  0  0
  139.7236   81.5591  223.5707 H   0  0  0  0  0  0  0  0  0  0  0  0
  141.9095   82.3979  224.4272 H   0  0  0  0  0  0  0  0  0  0  0  0
  143.9429   80.9613  224.0979 H   0  0  0  0  0  0  0  0  0  0  0  0
  143.7517   78.7552  222.9372 H   0  0  0  0  0  0  0  0  0  0  0  0
  1  2  2  0
  2  3  1  0
  3  4  1  0
  4  5  1  0
  5  6  1  0
  6  7  1  0
  7  8  2  0
  8  9  1  0
  9 10  2  0
 10 11  1  0
 10 12  1  0
 12 13  2  0
 13 14  1  0
  2 15  1  0
 15 16  1  0
 16 17  1  0
 17 18  1  0
 18 19  1  0
 19 20  2  0
 20 21  1  0
 21 22  2  0
 22 23  1  0
 23 24  2  0
 13  7  1  0
 24 19  1  0
  3 25  1  0
  3 26  1  0
  4 27  1  0
  4 28  1  0
  5 29  1  0
  5 30  1  0
  8 31  1  0
  9 32  1  0
 12 33  1  0
 15 34  1  0
 16 35  1  0
 16 36  1  0
 17 37  1  0
 17 38  1  0
 20 39  1  0
 21 40  1  0
 22 41  1  0
 23 42  1  0
M  END
>  <smiles>  (14) 
O=C(CCCOc1ccc(Cl)cc1Cl)NCCOc1ccccn1

>  <score_type>  (14) 
oracle

>  <origin>  (14) 
autodockgpu

>  <m_score__min__energy>  (14) 
-6.2800000000000002

>  <m_primary>  (14) 
energy

>  <meeko>  (14) 
{"free_energy": -3.47, "intermolecular_energy": -6.15, "internal_energy": -4.39, "cluster_size": 5, "cluster_id": 4, "rank_in_cluster": 5}

>  <energy>  (14) 
-3.57

>  <cluster_rmsd>  (14) 
1.78

>  <rmsd>  (14) 
271.13

>  <cluster>  (14) 
5

$$$$

     RDKit          3D

 42 43  0  0  0  0  0  0  0  0999 V2000
  139.9420   74.4230  221.9730 O   0  0  0  0  0  0  0  0  0  0  0  0
  139.6580   75.6480  221.9430 C   0  0  0  0  0  0  0  0  0  0  0  0
  138.4600   76.0690  222.7240 C   0  0  0  0  0  0  0  0  0  0  0  0
  137.3080   76.2790  221.7610 C   0  0  0  0  0  0  0  0  0  0  0  0
  137.4470   77.5910  221.0150 C   0  0  0  0  0  0  0  0  0  0  0  0
  138.1700   78.4540  221.8680 O   0  0  0  0  0  0  0  0  0  0  0  0
  138.6790   79.6800  221.5310 C   0  0  0  0  0  0  0  0  0  0  0  0
  139.0200   80.0630  220.2500 C   0  0  0  0  0  0  0  0  0  0  0  0
  139.5310   81.3350  220.0040 C   0  0  0  0  0  0  0  0  0  0  0  0
  139.7030   82.2220  221.0430 C   0  0  0  0  0  0  0  0  0  0  0  0
  140.3420   83.8410  220.8130 Cl  0  0  0  0  0  0  0  0  0  0  0  0
  139.3700   81.8550  222.3210 C   0  0  0  0  0  0  0  0  0  0  0  0
  138.8630   80.5980  222.5710 C   0  0  0  0  0  0  0  0  0  0  0  0
  138.4440   80.1510  224.2140 Cl  0  0  0  0  0  0  0  0  0  0  0  0
  140.4250   76.5980  221.2080 N   0  0  0  0  0  0  0  0  0  0  0  0
  141.5970   76.2400  220.4320 C   0  0  0  0  0  0  0  0  0  0  0  0
  142.2740   77.4830  219.9400 C   0  0  0  0  0  0  0  0  0  0  0  0
  141.6960   78.6830  220.3520 O   0  0  0  0  0  0  0  0  0  0  0  0
  141.8710   79.1240  221.6500 C   0  0  0  0  0  0  0  0  0  0  0  0
  142.5400   80.3310  221.8100 C   0  0  0  0  0  0  0  0  0  0  0  0
  142.7690   80.8640  223.0650 C   0  0  0  0  0  0  0  0  0  0  0  0
  142.3020   80.1400  224.1640 C   0  0  0  0  0  0  0  0  0  0  0  0
  141.6340   78.9300  223.9940 C   0  0  0  0  0  0  0  0  0  0  0  0
  141.4500   78.4780  222.7410 N   0  0  0  0  0  0  0  0  0  0  0  0
  138.1976   75.2868  223.4516 H   0  0  0  0  0  0  0  0  0  0  0  0
  138.6725   77.0018  223.2669 H   0  0  0  0  0  0  0  0  0  0  0  0
  137.2932   75.4533  221.0344 H   0  0  0  0  0  0  0  0  0  0  0  0
  136.3724   76.3052  222.3389 H   0  0  0  0  0  0  0  0  0  0  0  0
  137.9950   77.4382  220.0735 H   0  0  0  0  0  0  0  0  0  0  0  0
  136.4639   78.0123  220.7579 H   0  0  0  0  0  0  0  0  0  0  0  0
  138.8872   79.3579  219.4162 H   0  0  0  0  0  0  0  0  0  0  0  0
  139.7974   81.6313  218.9787 H   0  0  0  0  0  0  0  0  0  0  0  0
  139.5078   82.5656  223.1493 H   0  0  0  0  0  0  0  0  0  0  0  0
  140.0700   77.5980  221.2730 H   0  0  0  0  0  0  0  0  0  0  0  0
  142.2938   75.6693  221.0636 H   0  0  0  0  0  0  0  0  0  0  0  0
  141.2917   75.6259  219.5720 H   0  0  0  0  0  0  0  0  0  0  0  0
  143.3140   77.4671  220.2979 H   0  0  0  0  0  0  0  0  0  0  0  0
  142.1826   77.4637  218.8440 H   0  0  0  0  0  0  0  0  0  0  0  0
  142.8944   80.8732  220.9209 H   0  0  0  0  0  0  0  0  0  0  0  0
  143.2979   81.8200  223.1927 H   0  0  0  0  0  0  0  0  0  0  0  0
  142.4642   80.5313  225.1792 H   0  0  0  0  0  0  0  0  0  0  0  0
  141.2672   78.3600  224.8603 H   0  0  0  0  0  0  0  0  0  0  0  0
  1  2  2  0
  2  3  1  0
  3  4  1  0
  4  5  1  0
  5  6  1  0
  6  7  1  0
  7  8  2  0
  8  9  1  0
  9 10  2  0
 10 11  1  0
 10 12  1  0
 12 13  2  0
 13 14  1  0
  2 15  1  0
 15 16  1  0
 16 17  1  0
 17 18  1  0
 18 19  1  0
 19 20  2  0
 20 21  1  0
 21 22  2  0
 22 23  1  0
 23 24  2  0
 13  7  1  0
 24 19  1  0
  3 25  1  0
  3 26  1  0
  4 27  1  0
  4 28  1  0
  5 29  1  0
  5 30  1  0
  8 31  1  0
  9 32  1  0
 12 33  1  0
 15 34  1  0
 16 35  1  0
 16 36  1  0
 17 37  1  0
 17 38  1  0
 20 39  1  0
 21 40  1  0
 22 41  1  0
 23 42  1  0
M  END
>  <smiles>  (15) 
O=C(CCCOc1ccc(Cl)cc1Cl)NCCOc1ccccn1

>  <score_type>  (15) 
oracle

>  <origin>  (15) 
autodockgpu

>  <m_score__min__energy>  (15) 
-6.2800000000000002

>  <m_primary>  (15) 
energy

>  <meeko>  (15) 
{"free_energy": -3.56, "intermolecular_energy": -6.25, "internal_energy": -4.34, "cluster_size": 8, "cluster_id": 5, "rank_in_cluster": 6}

>  <energy>  (15) 
-3.56

>  <cluster_rmsd>  (15) 
1.77

>  <rmsd>  (15) 
271.11

>  <cluster>  (15) 
5

$$$$

     RDKit          3D

 42 43  0  0  0  0  0  0  0  0999 V2000
  139.9410   74.4440  221.9840 O   0  0  0  0  0  0  0  0  0  0  0  0
  139.6560   75.6680  221.9440 C   0  0  0  0  0  0  0  0  0  0  0  0
  138.4580   76.0950  222.7230 C   0  0  0  0  0  0  0  0  0  0  0  0
  137.3130   76.3230  221.7550 C   0  0  0  0  0  0  0  0  0  0  0  0
  137.4920   77.6170  220.9860 C   0  0  0  0  0  0  0  0  0  0  0  0
  138.1810   78.4950  221.8500 O   0  0  0  0  0  0  0  0  0  0  0  0
  138.6850   79.7250  221.5160 C   0  0  0  0  0  0  0  0  0  0  0  0
  139.0350   80.1080  220.2370 C   0  0  0  0  0  0  0  0  0  0  0  0
  139.5410   81.3820  219.9940 C   0  0  0  0  0  0  0  0  0  0  0  0
  139.6960   82.2720  221.0320 C   0  0  0  0  0  0  0  0  0  0  0  0
  140.3260   83.8950  220.8050 Cl  0  0  0  0  0  0  0  0  0  0  0  0
  139.3540   81.9060  222.3080 C   0  0  0  0  0  0  0  0  0  0  0  0
  138.8520   80.6450  222.5560 C   0  0  0  0  0  0  0  0  0  0  0  0
  138.4210   80.1990  224.1960 Cl  0  0  0  0  0  0  0  0  0  0  0  0
  140.4220   76.6140  221.2020 N   0  0  0  0  0  0  0  0  0  0  0  0
  141.5940   76.2510  220.4290 C   0  0  0  0  0  0  0  0  0  0  0  0
  142.2840   77.4910  219.9490 C   0  0  0  0  0  0  0  0  0  0  0  0
  141.7070   78.6930  220.3550 O   0  0  0  0  0  0  0  0  0  0  0  0
  141.8710   79.1340  221.6550 C   0  0  0  0  0  0  0  0  0  0  0  0
  142.5150   80.3540  221.8200 C   0  0  0  0  0  0  0  0  0  0  0  0
  142.7320   80.8880  223.0760 C   0  0  0  0  0  0  0  0  0  0  0  0
  142.2770   80.1510  224.1730 C   0  0  0  0  0  0  0  0  0  0  0  0
  141.6350   78.9290  223.9980 C   0  0  0  0  0  0  0  0  0  0  0  0
  141.4610   78.4770  222.7430 N   0  0  0  0  0  0  0  0  0  0  0  0
  138.1844   75.3102  223.4436 H   0  0  0  0  0  0  0  0  0  0  0  0
  138.6766   77.0214  223.2744 H   0  0  0  0  0  0  0  0  0  0  0  0
  137.2734   75.4855  221.0430 H   0  0  0  0  0  0  0  0  0  0  0  0
  136.3784   76.3879  222.3315 H   0  0  0  0  0  0  0  0  0  0  0  0
  138.0801   77.4402  220.0734 H   0  0  0  0  0  0  0  0  0  0  0  0
  136.5237   78.0368  220.6758 H   0  0  0  0  0  0  0  0  0  0  0  0
  138.9132   79.4010  219.4031 H   0  0  0  0  0  0  0  0  0  0  0  0
  139.8172   81.6775  218.9711 H   0  0  0  0  0  0  0  0  0  0  0  0
  139.4801   82.6192  223.1360 H   0  0  0  0  0  0  0  0  0  0  0  0
  140.0660   77.6140  221.2600 H   0  0  0  0  0  0  0  0  0  0  0  0
  142.2828   75.6697  221.0597 H   0  0  0  0  0  0  0  0  0  0  0  0
  141.2872   75.6456  219.5633 H   0  0  0  0  0  0  0  0  0  0  0  0
  143.3189   77.4689  220.3212 H   0  0  0  0  0  0  0  0  0  0  0  0
  142.2075   77.4742  218.8518 H   0  0  0  0  0  0  0  0  0  0  0  0
  142.8591   80.9060  220.9330 H   0  0  0  0  0  0  0  0  0  0  0  0
  143.2420   81.8538  223.2071 H   0  0  0  0  0  0  0  0  0  0  0  0
  142.4287   80.5428  225.1896 H   0  0  0  0  0  0  0  0  0  0  0  0
  141.2795   78.3485  224.8621 H   0  0  0  0  0  0  0  0  0  0  0  0
  1  2  2  0
  2  3  1  0
  3  4  1  0
  4  5  1  0
  5  6  1  0
  6  7  1  0
  7  8  2  0
  8  9  1  0
  9 10  2  0
 10 11  1  0
 10 12  1  0
 12 13  2  0
 13 14  1  0
  2 15  1  0
 15 16  1  0
 16 17  1  0
 17 18  1  0
 18 19  1  0
 19 20  2  0
 20 21  1  0
 21 22  2  0
 22 23  1  0
 23 24  2  0
 13  7  1  0
 24 19  1  0
  3 25  1  0
  3 26  1  0
  4 27  1  0
  4 28  1  0
  5 29  1  0
  5 30  1  0
  8 31  1  0
  9 32  1  0
 12 33  1  0
 15 34  1  0
 16 35  1  0
 16 36  1  0
 17 37  1  0
 17 38  1  0
 20 39  1  0
 21 40  1  0
 22 41  1  0
 23 42  1  0
M  END
>  <smiles>  (16) 
O=C(CCCOc1ccc(Cl)cc1Cl)NCCOc1ccccn1

>  <score_type>  (16) 
oracle

>  <origin>  (16) 
autodockgpu

>  <m_score__min__energy>  (16) 
-6.2800000000000002

>  <m_primary>  (16) 
energy

>  <meeko>  (16) 
{"free_energy": -3.56, "intermolecular_energy": -6.25, "internal_energy": -4.34, "cluster_size": 8, "cluster_id": 5, "rank_in_cluster": 7}

>  <energy>  (16) 
-3.56

>  <cluster_rmsd>  (16) 
1.78

>  <rmsd>  (16) 
271.12

>  <cluster>  (16) 
5

$$$$

     RDKit          3D

 42 43  0  0  0  0  0  0  0  0999 V2000
  140.3080   74.4840  221.9730 O   0  0  0  0  0  0  0  0  0  0  0  0
  140.6710   75.5860  221.4870 C   0  0  0  0  0  0  0  0  0  0  0  0
  141.8670   75.5540  220.5970 C   0  0  0  0  0  0  0  0  0  0  0  0
  142.1640   76.9690  220.1410 C   0  0  0  0  0  0  0  0  0  0  0  0
  141.4710   77.2830  218.8300 C   0  0  0  0  0  0  0  0  0  0  0  0
  140.4100   78.1590  219.1460 O   0  0  0  0  0  0  0  0  0  0  0  0
  140.5250   79.4940  219.4300 C   0  0  0  0  0  0  0  0  0  0  0  0
  141.7210   80.1740  219.5360 C   0  0  0  0  0  0  0  0  0  0  0  0
  141.7380   81.5360  219.8290 C   0  0  0  0  0  0  0  0  0  0  0  0
  140.5550   82.2150  220.0170 C   0  0  0  0  0  0  0  0  0  0  0  0
  140.4950   83.9300  220.3890 Cl  0  0  0  0  0  0  0  0  0  0  0  0
  139.3590   81.5530  219.9160 C   0  0  0  0  0  0  0  0  0  0  0  0
  139.3360   80.2050  219.6260 C   0  0  0  0  0  0  0  0  0  0  0  0
  137.7940   79.3790  219.5010 Cl  0  0  0  0  0  0  0  0  0  0  0  0
  139.9930   76.8090  221.7590 N   0  0  0  0  0  0  0  0  0  0  0  0
  138.8270   76.8940  222.6180 C   0  0  0  0  0  0  0  0  0  0  0  0
  138.6240   78.3120  223.0540 C   0  0  0  0  0  0  0  0  0  0  0  0
  139.3210   79.2700  222.3180 O   0  0  0  0  0  0  0  0  0  0  0  0
  140.5890   79.6560  222.7110 C   0  0  0  0  0  0  0  0  0  0  0  0
  140.6850   80.8510  223.4120 C   0  0  0  0  0  0  0  0  0  0  0  0
  141.9040   81.3300  223.8520 C   0  0  0  0  0  0  0  0  0  0  0  0
  143.0360   80.5630  223.5630 C   0  0  0  0  0  0  0  0  0  0  0  0
  142.9310   79.3680  222.8590 C   0  0  0  0  0  0  0  0  0  0  0  0
  141.7080   78.9690  222.4650 N   0  0  0  0  0  0  0  0  0  0  0  0
  142.7299   75.1530  221.1490 H   0  0  0  0  0  0  0  0  0  0  0  0
  141.6725   74.9101  219.7266 H   0  0  0  0  0  0  0  0  0  0  0  0
  141.8134   77.6739  220.9093 H   0  0  0  0  0  0  0  0  0  0  0  0
  143.2495   77.0644  219.9910 H   0  0  0  0  0  0  0  0  0  0  0  0
  142.1719   77.7680  218.1347 H   0  0  0  0  0  0  0  0  0  0  0  0
  141.1040   76.3685  218.3412 H   0  0  0  0  0  0  0  0  0  0  0  0
  142.6691   79.6362  219.3879 H   0  0  0  0  0  0  0  0  0  0  0  0
  142.6968   82.0690  219.9102 H   0  0  0  0  0  0  0  0  0  0  0  0
  138.4155   82.0982  220.0666 H   0  0  0  0  0  0  0  0  0  0  0  0
  140.4090   77.6620  221.2800 H   0  0  0  0  0  0  0  0  0  0  0  0
  137.9399   76.5507  222.0655 H   0  0  0  0  0  0  0  0  0  0  0  0
  138.9794   76.2589  223.5031 H   0  0  0  0  0  0  0  0  0  0  0  0
  137.5506   78.5402  222.9775 H   0  0  0  0  0  0  0  0  0  0  0  0
  139.0170   78.3729  224.0796 H   0  0  0  0  0  0  0  0  0  0  0  0
  139.7720   81.4279  223.6212 H   0  0  0  0  0  0  0  0  0  0  0  0
  141.9804   82.2765  224.4072 H   0  0  0  0  0  0  0  0  0  0  0  0
  144.0250   80.9096  223.8974 H   0  0  0  0  0  0  0  0  0  0  0  0
  143.8229   78.7660  222.6308 H   0  0  0  0  0  0  0  0  0  0  0  0
  1  2  2  0
  2  3  1  0
  3  4  1  0
  4  5  1  0
  5  6  1  0
  6  7  1  0
  7  8  2  0
  8  9  1  0
  9 10  2  0
 10 11  1  0
 10 12  1  0
 12 13  2  0
 13 14  1  0
  2 15  1  0
 15 16  1  0
 16 17  1  0
 17 18  1  0
 18 19  1  0
 19 20  2  0
 20 21  1  0
 21 22  2  0
 22 23  1  0
 23 24  2  0
 13  7  1  0
 24 19  1  0
  3 25  1  0
  3 26  1  0
  4 27  1  0
  4 28  1  0
  5 29  1  0
  5 30  1  0
  8 31  1  0
  9 32  1  0
 12 33  1  0
 15 34  1  0
 16 35  1  0
 16 36  1  0
 17 37  1  0
 17 38  1  0
 20 39  1  0
 21 40  1  0
 22 41  1  0
 23 42  1  0
M  END
>  <smiles>  (17) 
O=C(CCCOc1ccc(Cl)cc1Cl)NCCOc1ccccn1

>  <score_type>  (17) 
oracle

>  <origin>  (17) 
autodockgpu

>  <m_score__min__energy>  (17) 
-6.2800000000000002

>  <m_primary>  (17) 
energy

>  <meeko>  (17) 
{"free_energy": -3.49, "intermolecular_energy": -6.18, "internal_energy": -4.4, "cluster_size": 5, "cluster_id": 4, "rank_in_cluster": 4}

>  <energy>  (17) 
-3.56

>  <cluster_rmsd>  (17) 
1.77

>  <rmsd>  (17) 
271.1

>  <cluster>  (17) 
5

$$$$

     RDKit          3D

 42 43  0  0  0  0  0  0  0  0999 V2000
  140.2500   73.8830  222.0350 O   0  0  0  0  0  0  0  0  0  0  0  0
  140.6970   74.9600  221.5640 C   0  0  0  0  0  0  0  0  0  0  0  0
  142.0050   74.8790  220.8530 C   0  0  0  0  0  0  0  0  0  0  0  0
  141.9350   75.7530  219.6160 C   0  0  0  0  0  0  0  0  0  0  0  0
  142.5810   77.1030  219.8580 C   0  0  0  0  0  0  0  0  0  0  0  0
  141.5830   78.0680  219.5980 O   0  0  0  0  0  0  0  0  0  0  0  0
  141.7940   79.3410  219.1370 C   0  0  0  0  0  0  0  0  0  0  0  0
  141.5750   80.4880  219.8730 C   0  0  0  0  0  0  0  0  0  0  0  0
  141.8190   81.7420  219.3170 C   0  0  0  0  0  0  0  0  0  0  0  0
  142.2800   81.8450  218.0240 C   0  0  0  0  0  0  0  0  0  0  0  0
  142.6100   83.3890  217.2550 Cl  0  0  0  0  0  0  0  0  0  0  0  0
  142.5010   80.7140  217.2820 C   0  0  0  0  0  0  0  0  0  0  0  0
  142.2620   79.4700  217.8260 C   0  0  0  0  0  0  0  0  0  0  0  0
  142.5520   78.0380  216.8560 Cl  0  0  0  0  0  0  0  0  0  0  0  0
  140.0080   76.2010  221.6920 N   0  0  0  0  0  0  0  0  0  0  0  0
  138.7340   76.3330  222.3730 C   0  0  0  0  0  0  0  0  0  0  0  0
  138.3530   77.7790  222.4520 C   0  0  0  0  0  0  0  0  0  0  0  0
  139.1990   78.6590  221.7780 O   0  0  0  0  0  0  0  0  0  0  0  0
  140.3260   79.1510  222.4080 C   0  0  0  0  0  0  0  0  0  0  0  0
  140.2110   80.4040  222.9970 C   0  0  0  0  0  0  0  0  0  0  0  0
  141.2780   80.9900  223.6530 C   0  0  0  0  0  0  0  0  0  0  0  0
  142.4750   80.2720  223.6980 C   0  0  0  0  0  0  0  0  0  0  0  0
  142.5820   79.0180  223.1040 C   0  0  0  0  0  0  0  0  0  0  0  0
  141.4980   78.5150  222.4850 N   0  0  0  0  0  0  0  0  0  0  0  0
  142.8092   75.2349  221.5138 H   0  0  0  0  0  0  0  0  0  0  0  0
  142.2149   73.8377  220.5674 H   0  0  0  0  0  0  0  0  0  0  0  0
  142.4583   75.2482  218.7905 H   0  0  0  0  0  0  0  0  0  0  0  0
  140.8764   75.9148  219.3647 H   0  0  0  0  0  0  0  0  0  0  0  0
  142.9244   77.1804  220.9002 H   0  0  0  0  0  0  0  0  0  0  0  0
  143.4591   77.2495  219.2119 H   0  0  0  0  0  0  0  0  0  0  0  0
  141.2051   80.4115  220.9061 H   0  0  0  0  0  0  0  0  0  0  0  0
  141.6431   82.6505  219.9117 H   0  0  0  0  0  0  0  0  0  0  0  0
  142.8702   80.7991  216.2493 H   0  0  0  0  0  0  0  0  0  0  0  0
  140.5010   77.0300  221.2450 H   0  0  0  0  0  0  0  0  0  0  0  0
  137.9625   75.7812  221.8160 H   0  0  0  0  0  0  0  0  0  0  0  0
  138.8195   75.9221  223.3898 H   0  0  0  0  0  0  0  0  0  0  0  0
  137.3437   77.8874  222.0284 H   0  0  0  0  0  0  0  0  0  0  0  0
  138.4182   78.0515  223.5157 H   0  0  0  0  0  0  0  0  0  0  0  0
  139.2524   80.9405  222.9404 H   0  0  0  0  0  0  0  0  0  0  0  0
  141.1876   81.9816  224.1205 H   0  0  0  0  0  0  0  0  0  0  0  0
  143.3468   80.7044  224.2109 H   0  0  0  0  0  0  0  0  0  0  0  0
  143.5257   78.4540  223.1394 H   0  0  0  0  0  0  0  0  0  0  0  0
  1  2  2  0
  2  3  1  0
  3  4  1  0
  4  5  1  0
  5  6  1  0
  6  7  1  0
  7  8  2  0
  8  9  1  0
  9 10  2  0
 10 11  1  0
 10 12  1  0
 12 13  2  0
 13 14  1  0
  2 15  1  0
 15 16  1  0
 16 17  1  0
 17 18  1  0
 18 19  1  0
 19 20  2  0
 20 21  1  0
 21 22  2  0
 22 23  1  0
 23 24  2  0
 13  7  1  0
 24 19  1  0
  3 25  1  0
  3 26  1  0
  4 27  1  0
  4 28  1  0
  5 29  1  0
  5 30  1  0
  8 31  1  0
  9 32  1  0
 12 33  1  0
 15 34  1  0
 16 35  1  0
 16 36  1  0
 17 37  1  0
 17 38  1  0
 20 39  1  0
 21 40  1  0
 22 41  1  0
 23 42  1  0
M  END
>  <smiles>  (18) 
O=C(CCCOc1ccc(Cl)cc1Cl)NCCOc1ccccn1

>  <score_type>  (18) 
oracle

>  <origin>  (18) 
autodockgpu

>  <m_score__min__energy>  (18) 
-6.2800000000000002

>  <m_primary>  (18) 
energy

>  <meeko>  (18) 
{"free_energy": -4.32, "intermolecular_energy": -7.01, "internal_energy": -3.56, "cluster_size": 5, "cluster_id": 4, "rank_in_cluster": 3}

>  <energy>  (18) 
-4.02

>  <cluster_rmsd>  (18) 
0.0

>  <rmsd>  (18) 
270.4

>  <cluster>  (18) 
6

$$$$

     RDKit          3D

 42 43  0  0  0  0  0  0  0  0999 V2000
  139.9030   74.3490  222.0140 O   0  0  0  0  0  0  0  0  0  0  0  0
  139.6410   75.5780  221.9630 C   0  0  0  0  0  0  0  0  0  0  0  0
  138.4400   76.0300  222.7230 C   0  0  0  0  0  0  0  0  0  0  0  0
  137.3110   76.2700  221.7400 C   0  0  0  0  0  0  0  0  0  0  0  0
  137.0990   77.7510  221.4960 C   0  0  0  0  0  0  0  0  0  0  0  0
  138.2600   78.3980  221.9750 O   0  0  0  0  0  0  0  0  0  0  0  0
  138.7300   79.6180  221.5650 C   0  0  0  0  0  0  0  0  0  0  0  0
  139.0700   79.9310  220.2650 C   0  0  0  0  0  0  0  0  0  0  0  0
  139.5400   81.2020  219.9440 C   0  0  0  0  0  0  0  0  0  0  0  0
  139.6700   82.1580  220.9260 C   0  0  0  0  0  0  0  0  0  0  0  0
  140.2550   83.7810  220.5990 Cl  0  0  0  0  0  0  0  0  0  0  0  0
  139.3360   81.8610  222.2220 C   0  0  0  0  0  0  0  0  0  0  0  0
  138.8700   80.6050  222.5470 C   0  0  0  0  0  0  0  0  0  0  0  0
  138.4500   80.2480  224.2110 Cl  0  0  0  0  0  0  0  0  0  0  0  0
  140.4330   76.5040  221.2260 N   0  0  0  0  0  0  0  0  0  0  0  0
  141.6080   76.1160  220.4700 C   0  0  0  0  0  0  0  0  0  0  0  0
  142.3290   77.3400  219.9950 C   0  0  0  0  0  0  0  0  0  0  0  0
  141.7430   78.5550  220.3470 O   0  0  0  0  0  0  0  0  0  0  0  0
  141.8770   79.0380  221.6350 C   0  0  0  0  0  0  0  0  0  0  0  0
  142.4790   80.2830  221.7710 C   0  0  0  0  0  0  0  0  0  0  0  0
  142.6620   80.8600  223.0140 C   0  0  0  0  0  0  0  0  0  0  0  0
  142.2180   80.1410  224.1260 C   0  0  0  0  0  0  0  0  0  0  0  0
  141.6170   78.8950  223.9810 C   0  0  0  0  0  0  0  0  0  0  0  0
  141.4740   78.4010  222.7370 N   0  0  0  0  0  0  0  0  0  0  0  0
  138.1446   75.2548  223.4454 H   0  0  0  0  0  0  0  0  0  0  0  0
  138.6669   76.9570  223.2700 H   0  0  0  0  0  0  0  0  0  0  0  0
  137.5567   75.7811  220.7857 H   0  0  0  0  0  0  0  0  0  0  0  0
  136.3862   75.8521  222.1644 H   0  0  0  0  0  0  0  0  0  0  0  0
  136.9694   77.9460  220.4212 H   0  0  0  0  0  0  0  0  0  0  0  0
  136.1959   78.1168  222.0066 H   0  0  0  0  0  0  0  0  0  0  0  0
  138.9691   79.1710  219.4762 H   0  0  0  0  0  0  0  0  0  0  0  0
  139.8077   81.4424  218.9045 H   0  0  0  0  0  0  0  0  0  0  0  0
  139.4401   82.6269  223.0046 H   0  0  0  0  0  0  0  0  0  0  0  0
  140.0950   77.5110  221.2720 H   0  0  0  0  0  0  0  0  0  0  0  0
  142.2767   75.5236  221.1118 H   0  0  0  0  0  0  0  0  0  0  0  0
  141.3007   75.5142  219.6021 H   0  0  0  0  0  0  0  0  0  0  0  0
  143.3454   77.3194  220.4152 H   0  0  0  0  0  0  0  0  0  0  0  0
  142.3033   77.2989  218.8961 H   0  0  0  0  0  0  0  0  0  0  0  0
  142.8165   80.8199  220.8722 H   0  0  0  0  0  0  0  0  0  0  0  0
  143.1381   81.8456  223.1228 H   0  0  0  0  0  0  0  0  0  0  0  0
  142.3456   80.5667  225.1322 H   0  0  0  0  0  0  0  0  0  0  0  0
  141.2685   78.3295  224.8578 H   0  0  0  0  0  0  0  0  0  0  0  0
  1  2  2  0
  2  3  1  0
  3  4  1  0
  4  5  1  0
  5  6  1  0
  6  7  1  0
  7  8  2  0
  8  9  1  0
  9 10  2  0
 10 11  1  0
 10 12  1  0
 12 13  2  0
 13 14  1  0
  2 15  1  0
 15 16  1  0
 16 17  1  0
 17 18  1  0
 18 19  1  0
 19 20  2  0
 20 21  1  0
 21 22  2  0
 22 23  1  0
 23 24  2  0
 13  7  1  0
 24 19  1  0
  3 25  1  0
  3 26  1  0
  4 27  1  0
  4 28  1  0
  5 29  1  0
  5 30  1  0
  8 31  1  0
  9 32  1  0
 12 33  1  0
 15 34  1  0
 16 35  1  0
 16 36  1  0
 17 37  1  0
 17 38  1  0
 20 39  1  0
 21 40  1  0
 22 41  1  0
 23 42  1  0
M  END
>  <smiles>  (19) 
O=C(CCCOc1ccc(Cl)cc1Cl)NCCOc1ccccn1

>  <score_type>  (19) 
oracle

>  <origin>  (19) 
autodockgpu

>  <m_score__min__energy>  (19) 
-6.2800000000000002

>  <m_primary>  (19) 
energy

>  <meeko>  (19) 
{"free_energy": -3.57, "intermolecular_energy": -6.26, "internal_energy": -4.3, "cluster_size": 8, "cluster_id": 5, "rank_in_cluster": 2}

>  <energy>  (19) 
-3.38

>  <cluster_rmsd>  (19) 
0.0

>  <rmsd>  (19) 
271.24

>  <cluster>  (19) 
7

$$$$

     RDKit          3D

 42 43  0  0  0  0  0  0  0  0999 V2000
  142.4260   78.4900  216.8320 O   0  0  0  0  0  0  0  0  0  0  0  0
  142.0720   78.4490  218.0380 C   0  0  0  0  0  0  0  0  0  0  0  0
  141.8540   77.0930  218.6170 C   0  0  0  0  0  0  0  0  0  0  0  0
  142.2780   77.1190  220.0730 C   0  0  0  0  0  0  0  0  0  0  0  0
  141.0940   76.9030  220.9950 C   0  0  0  0  0  0  0  0  0  0  0  0
  140.2650   78.0360  220.8410 O   0  0  0  0  0  0  0  0  0  0  0  0
  139.6770   78.7470  221.8540 C   0  0  0  0  0  0  0  0  0  0  0  0
  140.0490   78.6770  223.1810 C   0  0  0  0  0  0  0  0  0  0  0  0
  139.3890   79.4400  224.1420 C   0  0  0  0  0  0  0  0  0  0  0  0
  138.3560   80.2710  223.7720 C   0  0  0  0  0  0  0  0  0  0  0  0
  137.4770   81.2630  224.9240 Cl  0  0  0  0  0  0  0  0  0  0  0  0
  137.9750   80.3500  222.4570 C   0  0  0  0  0  0  0  0  0  0  0  0
  138.6240   79.5980  221.5010 C   0  0  0  0  0  0  0  0  0  0  0  0
  138.1190   79.7160  219.8260 Cl  0  0  0  0  0  0  0  0  0  0  0  0
  141.8840   79.6220  218.8250 N   0  0  0  0  0  0  0  0  0  0  0  0
  142.0810   80.9620  218.3100 C   0  0  0  0  0  0  0  0  0  0  0  0
  141.6120   81.9650  219.3190 C   0  0  0  0  0  0  0  0  0  0  0  0
  140.9530   81.4350  220.4280 O   0  0  0  0  0  0  0  0  0  0  0  0
  141.6680   81.1040  221.5630 C   0  0  0  0  0  0  0  0  0  0  0  0
  141.4450   81.8870  222.6880 C   0  0  0  0  0  0  0  0  0  0  0  0
  142.1070   81.6430  223.8760 C   0  0  0  0  0  0  0  0  0  0  0  0
  143.0110   80.5780  223.9000 C   0  0  0  0  0  0  0  0  0  0  0  0
  143.2300   79.8000  222.7670 C   0  0  0  0  0  0  0  0  0  0  0  0
  142.5460   80.1000  221.6490 N   0  0  0  0  0  0  0  0  0  0  0  0
  140.7895   76.8253  218.5450 H   0  0  0  0  0  0  0  0  0  0  0  0
  142.4451   76.3474  218.0650 H   0  0  0  0  0  0  0  0  0  0  0  0
  143.0166   76.3223  220.2455 H   0  0  0  0  0  0  0  0  0  0  0  0
  142.7124   78.1059  220.2908 H   0  0  0  0  0  0  0  0  0  0  0  0
  140.5499   75.9904  220.7100 H   0  0  0  0  0  0  0  0  0  0  0  0
  141.4157   76.7798  222.0397 H   0  0  0  0  0  0  0  0  0  0  0  0
  140.8730   78.0136  223.4825 H   0  0  0  0  0  0  0  0  0  0  0  0
  139.6937   79.3782  225.1971 H   0  0  0  0  0  0  0  0  0  0  0  0
  137.1493   81.0152  222.1642 H   0  0  0  0  0  0  0  0  0  0  0  0
  141.5850   79.4370  219.8290 H   0  0  0  0  0  0  0  0  0  0  0  0
  143.1500   81.1216  218.1055 H   0  0  0  0  0  0  0  0  0  0  0  0
  141.5048   81.0834  217.3809 H   0  0  0  0  0  0  0  0  0  0  0  0
  142.4907   82.5199  219.6796 H   0  0  0  0  0  0  0  0  0  0  0  0
  140.8739   82.5943  218.8002 H   0  0  0  0  0  0  0  0  0  0  0  0
  140.7268   82.7183  222.6322 H   0  0  0  0  0  0  0  0  0  0  0  0
  141.9293   82.2626  224.7674 H   0  0  0  0  0  0  0  0  0  0  0  0
  143.5573   80.3512  224.8274 H   0  0  0  0  0  0  0  0  0  0  0  0
  143.9431   78.9627  222.7857 H   0  0  0  0  0  0  0  0  0  0  0  0
  1  2  2  0
  2  3  1  0
  3  4  1  0
  4  5  1  0
  5  6  1  0
  6  7  1  0
  7  8  2  0
  8  9  1  0
  9 10  2  0
 10 11  1  0
 10 12  1  0
 12 13  2  0
 13 14  1  0
  2 15  1  0
 15 16  1  0
 16 17  1  0
 17 18  1  0
 18 19  1  0
 19 20  2  0
 20 21  1  0
 21 22  2  0
 22 23  1  0
 23 24  2  0
 13  7  1  0
 24 19  1  0
  3 25  1  0
  3 26  1  0
  4 27  1  0
  4 28  1  0
  5 29  1  0
  5 30  1  0
  8 31  1  0
  9 32  1  0
 12 33  1  0
 15 34  1  0
 16 35  1  0
 16 36  1  0
 17 37  1  0
 17 38  1  0
 20 39  1  0
 21 40  1  0
 22 41  1  0
 23 42  1  0
M  END
>  <smiles>  (20) 
O=C(CCCOc1ccc(Cl)cc1Cl)NCCOc1ccccn1

>  <score_type>  (20) 
oracle

>  <origin>  (20) 
autodockgpu

>  <m_score__min__energy>  (20) 
-6.2800000000000002

>  <m_primary>  (20) 
energy

>  <meeko>  (20) 
{"free_energy": -3.38, "intermolecular_energy": -6.06, "internal_energy": -4.41, "cluster_size": 2, "cluster_id": 7, "rank_in_cluster": 1}

>  <energy>  (20) 
-3.36

>  <cluster_rmsd>  (20) 
0.44

>  <rmsd>  (20) 
271.27

>  <cluster>  (20) 
7

$$$$
