VDMKUDNKZWHZNN-SANMLTNENA-N
     RDKit          3D

 59 64  0  0  0  0  0  0  0  0999 V2000
  139.0180   75.6930  219.8230 O   0  0  0  0  0  0  0  0  0  0  0  0
  139.8930   75.5870  220.7260 C   0  0  0  0  0  0  0  0  0  0  0  0
  140.5120   76.8040  221.2760 C   0  0  0  0  0  0  0  0  0  0  0  0
  140.8150   77.0030  222.6220 C   0  0  0  0  0  0  0  0  0  0  0  0
  141.3450   78.2720  222.6830 C   0  0  0  0  0  0  0  0  0  0  0  0
  141.8230   79.0050  223.7680 C   0  0  0  0  0  0  0  0  0  0  0  0
  142.3050   80.3050  223.5220 C   0  0  0  0  0  0  0  0  0  0  0  0
  142.7800   81.0530  224.5480 F   0  0  0  0  0  0  0  0  0  0  0  0
  142.2900   80.8360  222.2120 C   0  0  0  0  0  0  0  0  0  0  0  0
  141.7990   80.0710  221.1380 C   0  0  0  0  0  0  0  0  0  0  0  0
  141.3330   78.7860  221.4120 C   0  0  0  0  0  0  0  0  0  0  0  0
  140.8230   77.9000  220.5420 N   0  0  0  0  0  0  0  0  0  0  0  0
  140.2500   74.2870  221.2210 N   0  0  0  0  0  0  0  0  0  0  0  0
  139.5650   73.6400  222.3440 C   0  0  0  0  0  0  0  0  0  0  0  0
  139.9520   72.1210  222.2800 C   0  0  2  0  0  0  0  0  0  0  0  0
  138.7310   71.2040  222.1820 C   0  0  0  0  0  0  0  0  0  0  0  0
  139.1090   69.9630  222.9660 C   0  0  0  0  0  0  0  0  0  0  0  0
  140.1180   70.3520  223.9640 N   0  0  0  0  0  0  0  0  0  0  0  0
  139.6010   70.3500  225.3600 C   0  0  0  0  0  0  0  0  0  0  0  0
  139.1470   68.9240  225.7890 C   0  0  0  0  0  0  0  0  0  0  0  0
  139.9570   68.3560  226.9630 C   0  0  0  0  0  0  0  0  0  0  0  0
  139.9460   69.2970  228.1800 C   0  0  0  0  0  0  0  0  0  0  0  0
  140.0530   70.7930  227.8140 C   0  0  0  0  0  0  0  0  0  0  0  0
  140.5590   71.0200  226.3860 C   0  0  0  0  0  0  0  0  0  0  0  0
  140.7240   71.6220  223.5190 C   0  0  0  0  0  0  0  0  0  0  0  0
  140.8010   72.0500  221.0370 C   0  0  0  0  0  0  0  0  0  0  0  0
  141.4380   70.9370  220.4740 C   0  0  0  0  0  0  0  0  0  0  0  0
  142.2160   71.1140  219.3200 C   0  0  0  0  0  0  0  0  0  0  0  0
  142.3580   72.3920  218.7520 C   0  0  0  0  0  0  0  0  0  0  0  0
  141.7210   73.4980  219.3340 C   0  0  0  0  0  0  0  0  0  0  0  0
  140.9380   73.2940  220.4760 C   0  0  0  0  0  0  0  0  0  0  0  0
  140.6636   76.2995  223.4539 H   0  0  0  0  0  0  0  0  0  0  0  0
  141.8237   78.5817  224.7833 H   0  0  0  0  0  0  0  0  0  0  0  0
  142.6647   81.8542  222.0310 H   0  0  0  0  0  0  0  0  0  0  0  0
  141.7833   80.4741  220.1146 H   0  0  0  0  0  0  0  0  0  0  0  0
  140.6630   78.0510  219.5210 H   0  0  0  0  0  0  0  0  0  0  0  0
  139.8979   74.0780  223.2965 H   0  0  0  0  0  0  0  0  0  0  0  0
  138.4755   73.7779  222.2807 H   0  0  0  0  0  0  0  0  0  0  0  0
  137.8479   71.6873  222.6252 H   0  0  0  0  0  0  0  0  0  0  0  0
  138.4719   70.9708  221.1387 H   0  0  0  0  0  0  0  0  0  0  0  0
  138.2212   69.5544  223.4709 H   0  0  0  0  0  0  0  0  0  0  0  0
  139.5112   69.1910  222.2934 H   0  0  0  0  0  0  0  0  0  0  0  0
  138.7085   70.9930  225.3634 H   0  0  0  0  0  0  0  0  0  0  0  0
  138.0884   68.9689  226.0846 H   0  0  0  0  0  0  0  0  0  0  0  0
  139.3095   68.2580  224.9288 H   0  0  0  0  0  0  0  0  0  0  0  0
  139.5240   67.3888  227.2581 H   0  0  0  0  0  0  0  0  0  0  0  0
  140.9997   68.2410  226.6320 H   0  0  0  0  0  0  0  0  0  0  0  0
  139.0062   69.1412  228.7300 H   0  0  0  0  0  0  0  0  0  0  0  0
  140.8330   69.0510  228.7822 H   0  0  0  0  0  0  0  0  0  0  0  0
  139.0574   71.2506  227.9110 H   0  0  0  0  0  0  0  0  0  0  0  0
  140.7810   71.2506  228.5000 H   0  0  0  0  0  0  0  0  0  0  0  0
  140.6069   72.1005  226.1856 H   0  0  0  0  0  0  0  0  0  0  0  0
  141.5591   70.5731  226.2859 H   0  0  0  0  0  0  0  0  0  0  0  0
  140.6566   72.3683  224.3243 H   0  0  0  0  0  0  0  0  0  0  0  0
  141.7838   71.4679  223.2677 H   0  0  0  0  0  0  0  0  0  0  0  0
  141.3302   69.9412  220.9288 H   0  0  0  0  0  0  0  0  0  0  0  0
  142.7164   70.2501  218.8583 H   0  0  0  0  0  0  0  0  0  0  0  0
  142.9707   72.5252  217.8482 H   0  0  0  0  0  0  0  0  0  0  0  0
  141.8344   74.5034  218.9024 H   0  0  0  0  0  0  0  0  0  0  0  0
  1  2  2  0
  2  3  1  0
  3  4  2  0
  4  5  1  0
  5  6  2  0
  6  7  1  0
  7  8  1  0
  7  9  2  0
  9 10  1  0
 10 11  2  0
 11 12  1  0
  2 13  1  0
 13 14  1  0
 15 14  1  1
 15 16  1  0
 16 17  1  0
 17 18  1  0
 18 19  1  0
 19 20  1  0
 20 21  1  0
 21 22  1  0
 22 23  1  0
 23 24  1  0
 18 25  1  0
 15 26  1  0
 26 27  2  0
 27 28  1  0
 28 29  2  0
 29 30  1  0
 30 31  2  0
 12  3  1  0
 31 13  1  0
 11  5  1  0
 25 15  1  0
 31 26  1  0
 24 19  1  0
  4 32  1  0
  6 33  1  0
  9 34  1  0
 10 35  1  0
 12 36  1  0
 14 37  1  0
 14 38  1  0
 16 39  1  0
 16 40  1  0
 17 41  1  0
 17 42  1  0
 19 43  1  0
 20 44  1  0
 20 45  1  0
 21 46  1  0
 21 47  1  0
 22 48  1  0
 22 49  1  0
 23 50  1  0
 23 51  1  0
 24 52  1  0
 24 53  1  0
 25 54  1  0
 25 55  1  0
 27 56  1  0
 28 57  1  0
 29 58  1  0
 30 59  1  0
M  END
>  <UniqueID>  (1) 
177

>  <SMILES>  (1) 
O=C(c1cc2cc(F)ccc2[nH]1)N1C[C@@]2(CCN(C3CCCCC3)C2)c2ccccc21

>  <Energy>  (1) 
128.1936475649388

>  <Genealogy>  (1) 
O=C(c1cc2cc(F)ccc2[nH]1)N1C[C@@]2(CCN(C3CCCCC3)C2)c2ccccc21 (3D coordinates assigned)
O=C(c1cc2cc(F)ccc2[nH]1)N1C[C@@]2(CCN(C3CCCCC3)C2)c2ccccc21 (nonaromatic ring conformer: 128.1936475649388 kcal/mol)

>  <smiles>  (1) 
O=C(c1cc2cc(F)ccc2[nH]1)N1C[C@@]2(CCN(C3CCCCC3)C2)c2ccccc21

>  <score_type>  (1) 
oracle

>  <origin>  (1) 
autodockgpu

>  <m_score__min__energy>  (1) 
-8.3499999999999996

>  <m_primary>  (1) 
energy

>  <meeko>  (1) 
{"free_energy": -8.35, "intermolecular_energy": -9.24, "internal_energy": -1.15, "cluster_size": 11, "cluster_id": 1, "rank_in_cluster": 5}

>  <energy>  (1) 
-8.35

>  <cluster_rmsd>  (1) 
0.0

>  <rmsd>  (1) 
272.17

>  <cluster>  (1) 
1

$$$$
VDMKUDNKZWHZNN-SANMLTNENA-N
     RDKit          3D

 59 64  0  0  0  0  0  0  0  0999 V2000
  139.9670   74.2480  222.0080 O   0  0  0  0  0  0  0  0  0  0  0  0
  140.9060   74.8250  221.3960 C   0  0  0  0  0  0  0  0  0  0  0  0
  142.0590   74.0330  220.9320 C   0  0  0  0  0  0  0  0  0  0  0  0
  142.0040   72.6890  220.5680 C   0  0  0  0  0  0  0  0  0  0  0  0
  143.2990   72.3580  220.2360 C   0  0  0  0  0  0  0  0  0  0  0  0
  143.8440   71.1520  219.8000 C   0  0  0  0  0  0  0  0  0  0  0  0
  145.2270   71.1110  219.5420 C   0  0  0  0  0  0  0  0  0  0  0  0
  145.7990   69.9580  219.1140 F   0  0  0  0  0  0  0  0  0  0  0  0
  146.0230   72.2640  219.7310 C   0  0  0  0  0  0  0  0  0  0  0  0
  145.4430   73.4660  220.1750 C   0  0  0  0  0  0  0  0  0  0  0  0
  144.0690   73.4760  220.4170 C   0  0  0  0  0  0  0  0  0  0  0  0
  143.3240   74.5080  220.8460 N   0  0  0  0  0  0  0  0  0  0  0  0
  140.8270   76.2350  221.1370 N   0  0  0  0  0  0  0  0  0  0  0  0
  140.4690   77.2200  222.1610 C   0  0  0  0  0  0  0  0  0  0  0  0
  140.9110   78.6180  221.6030 C   0  0  2  0  0  0  0  0  0  0  0  0
  141.8840   79.3440  222.5330 C   0  0  0  0  0  0  0  0  0  0  0  0
  141.5400   80.8130  222.3900 C   0  0  0  0  0  0  0  0  0  0  0  0
  140.1300   80.9070  221.9800 N   0  0  0  0  0  0  0  0  0  0  0  0
  139.2340   81.4150  223.0550 C   0  0  0  0  0  0  0  0  0  0  0  0
  138.0430   82.2210  222.4600 C   0  0  0  0  0  0  0  0  0  0  0  0
  136.6750   81.5900  222.7550 C   0  0  0  0  0  0  0  0  0  0  0  0
  136.4550   81.3670  224.2610 C   0  0  0  0  0  0  0  0  0  0  0  0
  137.7130   80.8790  225.0100 C   0  0  0  0  0  0  0  0  0  0  0  0
  138.7870   80.3240  224.0690 C   0  0  0  0  0  0  0  0  0  0  0  0
  139.7430   79.6060  221.4010 C   0  0  0  0  0  0  0  0  0  0  0  0
  141.5600   78.2570  220.2910 C   0  0  0  0  0  0  0  0  0  0  0  0
  142.1410   79.1050  219.3400 C   0  0  0  0  0  0  0  0  0  0  0  0
  142.6580   78.5470  218.1610 C   0  0  0  0  0  0  0  0  0  0  0  0
  142.5780   77.1600  217.9410 C   0  0  0  0  0  0  0  0  0  0  0  0
  141.9830   76.3260  218.9000 C   0  0  0  0  0  0  0  0  0  0  0  0
  141.4890   76.9050  220.0750 C   0  0  0  0  0  0  0  0  0  0  0  0
  141.1195   72.0353  220.5498 H   0  0  0  0  0  0  0  0  0  0  0  0
  143.2139   70.2610  219.6619 H   0  0  0  0  0  0  0  0  0  0  0  0
  147.1035   72.2208  219.5294 H   0  0  0  0  0  0  0  0  0  0  0  0
  146.0529   74.3688  220.3265 H   0  0  0  0  0  0  0  0  0  0  0  0
  143.6680   75.4610  221.0990 H   0  0  0  0  0  0  0  0  0  0  0  0
  139.3835   77.2070  222.3387 H   0  0  0  0  0  0  0  0  0  0  0  0
  140.9630   76.9980  223.1185 H   0  0  0  0  0  0  0  0  0  0  0  0
  141.7445   79.0136  223.5729 H   0  0  0  0  0  0  0  0  0  0  0  0
  142.9335   79.1382  222.2756 H   0  0  0  0  0  0  0  0  0  0  0  0
  141.6850   81.3266  223.3519 H   0  0  0  0  0  0  0  0  0  0  0  0
  142.1904   81.2888  221.6412 H   0  0  0  0  0  0  0  0  0  0  0  0
  139.8339   82.1135  223.6568 H   0  0  0  0  0  0  0  0  0  0  0  0
  138.0594   83.2346  222.8871 H   0  0  0  0  0  0  0  0  0  0  0  0
  138.1690   82.2295  221.3673 H   0  0  0  0  0  0  0  0  0  0  0  0
  135.8871   82.2575  222.3762 H   0  0  0  0  0  0  0  0  0  0  0  0
  136.6393   80.6094  222.2579 H   0  0  0  0  0  0  0  0  0  0  0  0
  136.1324   82.3185  224.7088 H   0  0  0  0  0  0  0  0  0  0  0  0
  135.6970   80.5760  224.3598 H   0  0  0  0  0  0  0  0  0  0  0  0
  138.1391   81.7249  225.5694 H   0  0  0  0  0  0  0  0  0  0  0  0
  137.4041   80.0617  225.6782 H   0  0  0  0  0  0  0  0  0  0  0  0
  139.6561   80.0012  224.6610 H   0  0  0  0  0  0  0  0  0  0  0  0
  138.3698   79.4704  223.5146 H   0  0  0  0  0  0  0  0  0  0  0  0
  138.8433   79.2266  221.9075 H   0  0  0  0  0  0  0  0  0  0  0  0
  139.5237   79.7189  220.3290 H   0  0  0  0  0  0  0  0  0  0  0  0
  142.1912   80.1899  219.5143 H   0  0  0  0  0  0  0  0  0  0  0  0
  143.1271   79.1959  217.4068 H   0  0  0  0  0  0  0  0  0  0  0  0
  142.9832   76.7277  217.0142 H   0  0  0  0  0  0  0  0  0  0  0  0
  141.9065   75.2416  218.7322 H   0  0  0  0  0  0  0  0  0  0  0  0
  1  2  2  0
  2  3  1  0
  3  4  2  0
  4  5  1  0
  5  6  2  0
  6  7  1  0
  7  8  1  0
  7  9  2  0
  9 10  1  0
 10 11  2  0
 11 12  1  0
  2 13  1  0
 13 14  1  0
 15 14  1  1
 15 16  1  0
 16 17  1  0
 17 18  1  0
 18 19  1  0
 19 20  1  0
 20 21  1  0
 21 22  1  0
 22 23  1  0
 23 24  1  0
 18 25  1  0
 15 26  1  0
 26 27  2  0
 27 28  1  0
 28 29  2  0
 29 30  1  0
 30 31  2  0
 12  3  1  0
 31 13  1  0
 11  5  1  0
 25 15  1  0
 31 26  1  0
 24 19  1  0
  4 32  1  0
  6 33  1  0
  9 34  1  0
 10 35  1  0
 12 36  1  0
 14 37  1  0
 14 38  1  0
 16 39  1  0
 16 40  1  0
 17 41  1  0
 17 42  1  0
 19 43  1  0
 20 44  1  0
 20 45  1  0
 21 46  1  0
 21 47  1  0
 22 48  1  0
 22 49  1  0
 23 50  1  0
 23 51  1  0
 24 52  1  0
 24 53  1  0
 25 54  1  0
 25 55  1  0
 27 56  1  0
 28 57  1  0
 29 58  1  0
 30 59  1  0
M  END
>  <UniqueID>  (2) 
177

>  <SMILES>  (2) 
O=C(c1cc2cc(F)ccc2[nH]1)N1C[C@@]2(CCN(C3CCCCC3)C2)c2ccccc21

>  <Energy>  (2) 
128.1936475649388

>  <Genealogy>  (2) 
O=C(c1cc2cc(F)ccc2[nH]1)N1C[C@@]2(CCN(C3CCCCC3)C2)c2ccccc21 (3D coordinates assigned)
O=C(c1cc2cc(F)ccc2[nH]1)N1C[C@@]2(CCN(C3CCCCC3)C2)c2ccccc21 (nonaromatic ring conformer: 128.1936475649388 kcal/mol)

>  <smiles>  (2) 
O=C(c1cc2cc(F)ccc2[nH]1)N1C[C@@]2(CCN(C3CCCCC3)C2)c2ccccc21

>  <score_type>  (2) 
oracle

>  <origin>  (2) 
autodockgpu

>  <m_score__min__energy>  (2) 
-8.3499999999999996

>  <m_primary>  (2) 
energy

>  <meeko>  (2) 
{"free_energy": -8.19, "intermolecular_energy": -9.09, "internal_energy": -1.27, "cluster_size": 3, "cluster_id": 2, "rank_in_cluster": 1}

>  <energy>  (2) 
-8.35

>  <cluster_rmsd>  (2) 
0.02

>  <rmsd>  (2) 
272.17

>  <cluster>  (2) 
1

$$$$
VDMKUDNKZWHZNN-SANMLTNENA-N
     RDKit          3D

 59 64  0  0  0  0  0  0  0  0999 V2000
  137.8810   81.8420  221.8430 O   0  0  0  0  0  0  0  0  0  0  0  0
  138.1980   81.2330  222.9010 C   0  0  0  0  0  0  0  0  0  0  0  0
  137.5690   81.6240  224.1740 C   0  0  0  0  0  0  0  0  0  0  0  0
  137.6090   80.8690  225.3440 C   0  0  0  0  0  0  0  0  0  0  0  0
  136.8750   81.5910  226.2580 C   0  0  0  0  0  0  0  0  0  0  0  0
  136.5730   81.3270  227.5930 C   0  0  0  0  0  0  0  0  0  0  0  0
  135.7800   82.2610  228.2850 C   0  0  0  0  0  0  0  0  0  0  0  0
  135.4640   82.0440  229.5860 F   0  0  0  0  0  0  0  0  0  0  0  0
  135.3090   83.4220  227.6300 C   0  0  0  0  0  0  0  0  0  0  0  0
  135.6290   83.6590  226.2810 C   0  0  0  0  0  0  0  0  0  0  0  0
  136.4210   82.7180  225.6240 C   0  0  0  0  0  0  0  0  0  0  0  0
  136.8340   82.7480  224.3470 N   0  0  0  0  0  0  0  0  0  0  0  0
  139.1440   80.1530  222.8450 N   0  0  0  0  0  0  0  0  0  0  0  0
  138.9080   78.9180  222.0930 C   0  0  0  0  0  0  0  0  0  0  0  0
  140.3060   78.2230  221.9360 C   0  0  2  0  0  0  0  0  0  0  0  0
  140.6800   77.9730  220.4740 C   0  0  0  0  0  0  0  0  0  0  0  0
  141.4500   76.6670  220.4850 C   0  0  0  0  0  0  0  0  0  0  0  0
  141.0080   75.8950  221.6570 N   0  0  0  0  0  0  0  0  0  0  0  0
  140.1760   74.7110  221.3060 C   0  0  0  0  0  0  0  0  0  0  0  0
  140.9510   73.3840  221.5550 C   0  0  0  0  0  0  0  0  0  0  0  0
  140.3010   72.4930  222.6220 C   0  0  0  0  0  0  0  0  0  0  0  0
  138.8290   72.1850  222.2990 C   0  0  0  0  0  0  0  0  0  0  0  0
  138.0550   73.3850  221.7130 C   0  0  0  0  0  0  0  0  0  0  0  0
  138.7620   74.7220  221.9540 C   0  0  0  0  0  0  0  0  0  0  0  0
  140.3910   76.8370  222.6100 C   0  0  0  0  0  0  0  0  0  0  0  0
  141.2390   79.2110  222.5890 C   0  0  0  0  0  0  0  0  0  0  0  0
  142.6260   79.1250  222.7560 C   0  0  0  0  0  0  0  0  0  0  0  0
  143.2910   80.1580  223.4330 C   0  0  0  0  0  0  0  0  0  0  0  0
  142.5670   81.2500  223.9430 C   0  0  0  0  0  0  0  0  0  0  0  0
  141.1760   81.3160  223.7750 C   0  0  0  0  0  0  0  0  0  0  0  0
  140.5370   80.2810  223.0830 C   0  0  0  0  0  0  0  0  0  0  0  0
  138.1163   79.9060  225.5029 H   0  0  0  0  0  0  0  0  0  0  0  0
  136.9427   80.4178  228.0896 H   0  0  0  0  0  0  0  0  0  0  0  0
  134.6880   84.1450  228.1792 H   0  0  0  0  0  0  0  0  0  0  0  0
  135.2661   84.5578  225.7610 H   0  0  0  0  0  0  0  0  0  0  0  0
  136.5960   83.4730  223.6320 H   0  0  0  0  0  0  0  0  0  0  0  0
  138.2169   78.2630  222.6438 H   0  0  0  0  0  0  0  0  0  0  0  0
  138.4538   79.1275  221.1133 H   0  0  0  0  0  0  0  0  0  0  0  0
  139.7762   77.8840  219.8533 H   0  0  0  0  0  0  0  0  0  0  0  0
  141.2716   78.7985  220.0514 H   0  0  0  0  0  0  0  0  0  0  0  0
  141.2419   76.1020  219.5644 H   0  0  0  0  0  0  0  0  0  0  0  0
  142.5319   76.8589  220.5367 H   0  0  0  0  0  0  0  0  0  0  0  0
  139.9798   74.7778  220.2257 H   0  0  0  0  0  0  0  0  0  0  0  0
  140.9944   72.8224  220.6102 H   0  0  0  0  0  0  0  0  0  0  0  0
  141.9519   73.6550  221.9222 H   0  0  0  0  0  0  0  0  0  0  0  0
  140.8572   71.5458  222.6802 H   0  0  0  0  0  0  0  0  0  0  0  0
  140.3322   73.0331  223.5797 H   0  0  0  0  0  0  0  0  0  0  0  0
  138.7990   71.3630  221.5686 H   0  0  0  0  0  0  0  0  0  0  0  0
  138.3409   71.9224  223.2492 H   0  0  0  0  0  0  0  0  0  0  0  0
  137.9445   73.2363  220.6287 H   0  0  0  0  0  0  0  0  0  0  0  0
  137.0799   73.4298  222.2202 H   0  0  0  0  0  0  0  0  0  0  0  0
  138.1658   75.5327  221.5098 H   0  0  0  0  0  0  0  0  0  0  0  0
  138.8668   74.8805  223.0375 H   0  0  0  0  0  0  0  0  0  0  0  0
  139.3814   76.4899  222.8751 H   0  0  0  0  0  0  0  0  0  0  0  0
  140.9953   76.8982  223.5271 H   0  0  0  0  0  0  0  0  0  0  0  0
  143.1847   78.2626  222.3633 H   0  0  0  0  0  0  0  0  0  0  0  0
  144.3821   80.1136  223.5653 H   0  0  0  0  0  0  0  0  0  0  0  0
  143.0934   82.0556  224.4758 H   0  0  0  0  0  0  0  0  0  0  0  0
  140.6004   82.1623  224.1781 H   0  0  0  0  0  0  0  0  0  0  0  0
  1  2  2  0
  2  3  1  0
  3  4  2  0
  4  5  1  0
  5  6  2  0
  6  7  1  0
  7  8  1  0
  7  9  2  0
  9 10  1  0
 10 11  2  0
 11 12  1  0
  2 13  1  0
 13 14  1  0
 15 14  1  6
 15 16  1  0
 16 17  1  0
 17 18  1  0
 18 19  1  0
 19 20  1  0
 20 21  1  0
 21 22  1  0
 22 23  1  0
 23 24  1  0
 18 25  1  0
 15 26  1  0
 26 27  2  0
 27 28  1  0
 28 29  2  0
 29 30  1  0
 30 31  2  0
 12  3  1  0
 31 13  1  0
 11  5  1  0
 25 15  1  0
 31 26  1  0
 24 19  1  0
  4 32  1  0
  6 33  1  0
  9 34  1  0
 10 35  1  0
 12 36  1  0
 14 37  1  0
 14 38  1  0
 16 39  1  0
 16 40  1  0
 17 41  1  0
 17 42  1  0
 19 43  1  0
 20 44  1  0
 20 45  1  0
 21 46  1  0
 21 47  1  0
 22 48  1  0
 22 49  1  0
 23 50  1  0
 23 51  1  0
 24 52  1  0
 24 53  1  0
 25 54  1  0
 25 55  1  0
 27 56  1  0
 28 57  1  0
 29 58  1  0
 30 59  1  0
M  END
>  <UniqueID>  (3) 
177

>  <SMILES>  (3) 
O=C(c1cc2cc(F)ccc2[nH]1)N1C[C@@]2(CCN(C3CCCCC3)C2)c2ccccc21

>  <Energy>  (3) 
128.1936475649388

>  <Genealogy>  (3) 
O=C(c1cc2cc(F)ccc2[nH]1)N1C[C@@]2(CCN(C3CCCCC3)C2)c2ccccc21 (3D coordinates assigned)
O=C(c1cc2cc(F)ccc2[nH]1)N1C[C@@]2(CCN(C3CCCCC3)C2)c2ccccc21 (nonaromatic ring conformer: 128.1936475649388 kcal/mol)

>  <smiles>  (3) 
O=C(c1cc2cc(F)ccc2[nH]1)N1C[C@@]2(CCN(C3CCCCC3)C2)c2ccccc21

>  <score_type>  (3) 
oracle

>  <origin>  (3) 
autodockgpu

>  <m_score__min__energy>  (3) 
-8.3499999999999996

>  <m_primary>  (3) 
energy

>  <meeko>  (3) 
{"free_energy": -8.12, "intermolecular_energy": -9.01, "internal_energy": -1.31, "cluster_size": 5, "cluster_id": 3, "rank_in_cluster": 5}

>  <energy>  (3) 
-8.35

>  <cluster_rmsd>  (3) 
0.03

>  <rmsd>  (3) 
272.17

>  <cluster>  (3) 
1

$$$$
VDMKUDNKZWHZNN-SANMLTNENA-N
     RDKit          3D

 59 64  0  0  0  0  0  0  0  0999 V2000
  139.0020   75.7530  219.8890 O   0  0  0  0  0  0  0  0  0  0  0  0
  139.8920   75.6450  220.7760 C   0  0  0  0  0  0  0  0  0  0  0  0
  140.5140   76.8610  221.3250 C   0  0  0  0  0  0  0  0  0  0  0  0
  140.8250   77.0570  222.6690 C   0  0  0  0  0  0  0  0  0  0  0  0
  141.3540   78.3270  222.7310 C   0  0  0  0  0  0  0  0  0  0  0  0
  141.8380   79.0570  223.8150 C   0  0  0  0  0  0  0  0  0  0  0  0
  142.3170   80.3580  223.5700 C   0  0  0  0  0  0  0  0  0  0  0  0
  142.7980   81.1040  224.5940 F   0  0  0  0  0  0  0  0  0  0  0  0
  142.2930   80.8920  222.2610 C   0  0  0  0  0  0  0  0  0  0  0  0
  141.7960   80.1310  221.1880 C   0  0  0  0  0  0  0  0  0  0  0  0
  141.3340   78.8430  221.4620 C   0  0  0  0  0  0  0  0  0  0  0  0
  140.8180   77.9590  220.5930 N   0  0  0  0  0  0  0  0  0  0  0  0
  140.2660   74.3430  221.2540 N   0  0  0  0  0  0  0  0  0  0  0  0
  139.5710   73.6610  222.3480 C   0  0  0  0  0  0  0  0  0  0  0  0
  139.9910   72.1510  222.2640 C   0  0  2  0  0  0  0  0  0  0  0  0
  138.7910   71.2120  222.1220 C   0  0  0  0  0  0  0  0  0  0  0  0
  139.1790   69.9640  222.8900 C   0  0  0  0  0  0  0  0  0  0  0  0
  140.1580   70.3530  223.9170 N   0  0  0  0  0  0  0  0  0  0  0  0
  139.6100   70.3130  225.3010 C   0  0  0  0  0  0  0  0  0  0  0  0
  139.1810   68.8690  225.6940 C   0  0  0  0  0  0  0  0  0  0  0  0
  139.9790   68.2990  226.8750 C   0  0  0  0  0  0  0  0  0  0  0  0
  139.9180   69.2170  228.1080 C   0  0  0  0  0  0  0  0  0  0  0  0
  139.9980   70.7210  227.7720 C   0  0  0  0  0  0  0  0  0  0  0  0
  140.5290   70.9860  226.3600 C   0  0  0  0  0  0  0  0  0  0  0  0
  140.7460   71.6440  223.5100 C   0  0  0  0  0  0  0  0  0  0  0  0
  140.8680   72.1220  221.0390 C   0  0  0  0  0  0  0  0  0  0  0  0
  141.5400   71.0330  220.4690 C   0  0  0  0  0  0  0  0  0  0  0  0
  142.3390   71.2490  219.3360 C   0  0  0  0  0  0  0  0  0  0  0  0
  142.4670   72.5410  218.7960 C   0  0  0  0  0  0  0  0  0  0  0  0
  141.7940   73.6220  219.3850 C   0  0  0  0  0  0  0  0  0  0  0  0
  140.9910   73.3800  220.5050 C   0  0  0  0  0  0  0  0  0  0  0  0
  140.6796   76.3509  223.4998 H   0  0  0  0  0  0  0  0  0  0  0  0
  141.8455   78.6306  224.8290 H   0  0  0  0  0  0  0  0  0  0  0  0
  142.6661   81.9109  222.0805 H   0  0  0  0  0  0  0  0  0  0  0  0
  141.7722   80.5376  220.1662 H   0  0  0  0  0  0  0  0  0  0  0  0
  140.6530   78.1130  219.5730 H   0  0  0  0  0  0  0  0  0  0  0  0
  139.8738   74.0872  223.3158 H   0  0  0  0  0  0  0  0  0  0  0  0
  138.4805   73.7778  222.2630 H   0  0  0  0  0  0  0  0  0  0  0  0
  137.8890   71.6685  222.5556 H   0  0  0  0  0  0  0  0  0  0  0  0
  138.5578   70.9945  221.0692 H   0  0  0  0  0  0  0  0  0  0  0  0
  138.2896   69.5270  223.3675 H   0  0  0  0  0  0  0  0  0  0  0  0
  139.6121   69.2146  222.2111 H   0  0  0  0  0  0  0  0  0  0  0  0
  138.7024   70.9345  225.2958 H   0  0  0  0  0  0  0  0  0  0  0  0
  138.1155   68.8834  225.9670 H   0  0  0  0  0  0  0  0  0  0  0  0
  139.3776   68.2229  224.8257 H   0  0  0  0  0  0  0  0  0  0  0  0
  139.5638   67.3163  227.1430 H   0  0  0  0  0  0  0  0  0  0  0  0
  141.0312   68.2152  226.5654 H   0  0  0  0  0  0  0  0  0  0  0  0
  138.9698   69.0293  228.6330 H   0  0  0  0  0  0  0  0  0  0  0  0
  140.7967   68.9806  228.7260 H   0  0  0  0  0  0  0  0  0  0  0  0
  138.9902   71.1539  227.8556 H   0  0  0  0  0  0  0  0  0  0  0  0
  140.7002   71.1822  228.4820 H   0  0  0  0  0  0  0  0  0  0  0  0
  140.5554   72.0709  226.1802 H   0  0  0  0  0  0  0  0  0  0  0  0
  141.5413   70.5643  226.2741 H   0  0  0  0  0  0  0  0  0  0  0  0
  140.6449   72.3727  224.3278 H   0  0  0  0  0  0  0  0  0  0  0  0
  141.8141   71.5172  223.2794 H   0  0  0  0  0  0  0  0  0  0  0  0
  141.4430   70.0264  220.9019 H   0  0  0  0  0  0  0  0  0  0  0  0
  142.8671   70.4048  218.8686 H   0  0  0  0  0  0  0  0  0  0  0  0
  143.0967   72.7047  217.9091 H   0  0  0  0  0  0  0  0  0  0  0  0
  141.8954   74.6378  218.9752 H   0  0  0  0  0  0  0  0  0  0  0  0
  1  2  2  0
  2  3  1  0
  3  4  2  0
  4  5  1  0
  5  6  2  0
  6  7  1  0
  7  8  1  0
  7  9  2  0
  9 10  1  0
 10 11  2  0
 11 12  1  0
  2 13  1  0
 13 14  1  0
 15 14  1  1
 15 16  1  0
 16 17  1  0
 17 18  1  0
 18 19  1  0
 19 20  1  0
 20 21  1  0
 21 22  1  0
 22 23  1  0
 23 24  1  0
 18 25  1  0
 15 26  1  0
 26 27  2  0
 27 28  1  0
 28 29  2  0
 29 30  1  0
 30 31  2  0
 12  3  1  0
 31 13  1  0
 11  5  1  0
 25 15  1  0
 31 26  1  0
 24 19  1  0
  4 32  1  0
  6 33  1  0
  9 34  1  0
 10 35  1  0
 12 36  1  0
 14 37  1  0
 14 38  1  0
 16 39  1  0
 16 40  1  0
 17 41  1  0
 17 42  1  0
 19 43  1  0
 20 44  1  0
 20 45  1  0
 21 46  1  0
 21 47  1  0
 22 48  1  0
 22 49  1  0
 23 50  1  0
 23 51  1  0
 24 52  1  0
 24 53  1  0
 25 54  1  0
 25 55  1  0
 27 56  1  0
 28 57  1  0
 29 58  1  0
 30 59  1  0
M  END
>  <UniqueID>  (4) 
177

>  <SMILES>  (4) 
O=C(c1cc2cc(F)ccc2[nH]1)N1C[C@@]2(CCN(C3CCCCC3)C2)c2ccccc21

>  <Energy>  (4) 
128.1936475649388

>  <Genealogy>  (4) 
O=C(c1cc2cc(F)ccc2[nH]1)N1C[C@@]2(CCN(C3CCCCC3)C2)c2ccccc21 (3D coordinates assigned)
O=C(c1cc2cc(F)ccc2[nH]1)N1C[C@@]2(CCN(C3CCCCC3)C2)c2ccccc21 (nonaromatic ring conformer: 128.1936475649388 kcal/mol)

>  <smiles>  (4) 
O=C(c1cc2cc(F)ccc2[nH]1)N1C[C@@]2(CCN(C3CCCCC3)C2)c2ccccc21

>  <score_type>  (4) 
oracle

>  <origin>  (4) 
autodockgpu

>  <m_score__min__energy>  (4) 
-8.3499999999999996

>  <m_primary>  (4) 
energy

>  <meeko>  (4) 
{"free_energy": -8.34, "intermolecular_energy": -9.24, "internal_energy": -1.15, "cluster_size": 11, "cluster_id": 1, "rank_in_cluster": 8}

>  <energy>  (4) 
-8.35

>  <cluster_rmsd>  (4) 
0.03

>  <rmsd>  (4) 
272.18

>  <cluster>  (4) 
1

$$$$
VDMKUDNKZWHZNN-SANMLTNENA-N
     RDKit          3D

 59 64  0  0  0  0  0  0  0  0999 V2000
  139.0620   75.7060  219.7970 O   0  0  0  0  0  0  0  0  0  0  0  0
  139.9230   75.5960  220.7120 C   0  0  0  0  0  0  0  0  0  0  0  0
  140.5390   76.8110  221.2720 C   0  0  0  0  0  0  0  0  0  0  0  0
  140.8380   77.0020  222.6190 C   0  0  0  0  0  0  0  0  0  0  0  0
  141.3640   78.2720  222.6910 C   0  0  0  0  0  0  0  0  0  0  0  0
  141.8380   78.9990  223.7820 C   0  0  0  0  0  0  0  0  0  0  0  0
  142.3170   80.3010  223.5460 C   0  0  0  0  0  0  0  0  0  0  0  0
  142.7890   81.0430  224.5780 F   0  0  0  0  0  0  0  0  0  0  0  0
  142.3050   80.8410  222.2390 C   0  0  0  0  0  0  0  0  0  0  0  0
  141.8190   80.0820  221.1590 C   0  0  0  0  0  0  0  0  0  0  0  0
  141.3550   78.7940  221.4240 C   0  0  0  0  0  0  0  0  0  0  0  0
  140.8490   77.9120  220.5460 N   0  0  0  0  0  0  0  0  0  0  0  0
  140.2710   74.2950  221.2110 N   0  0  0  0  0  0  0  0  0  0  0  0
  139.5840   73.6590  222.3380 C   0  0  0  0  0  0  0  0  0  0  0  0
  139.9560   72.1360  222.2780 C   0  0  2  0  0  0  0  0  0  0  0  0
  138.7260   71.2300  222.1890 C   0  0  0  0  0  0  0  0  0  0  0  0
  139.0960   69.9890  222.9760 C   0  0  0  0  0  0  0  0  0  0  0  0
  140.1130   70.3710  223.9680 N   0  0  0  0  0  0  0  0  0  0  0  0
  139.6010   70.3790  225.3660 C   0  0  0  0  0  0  0  0  0  0  0  0
  139.1380   68.9580  225.8030 C   0  0  0  0  0  0  0  0  0  0  0  0
  139.9480   68.3900  226.9770 C   0  0  0  0  0  0  0  0  0  0  0  0
  139.9490   69.3360  228.1890 C   0  0  0  0  0  0  0  0  0  0  0  0
  140.0650   70.8300  227.8170 C   0  0  0  0  0  0  0  0  0  0  0  0
  140.5670   71.0460  226.3860 C   0  0  0  0  0  0  0  0  0  0  0  0
  140.7290   71.6340  223.5160 C   0  0  0  0  0  0  0  0  0  0  0  0
  140.8000   72.0520  221.0320 C   0  0  0  0  0  0  0  0  0  0  0  0
  141.4240   70.9310  220.4710 C   0  0  0  0  0  0  0  0  0  0  0  0
  142.1990   71.0970  219.3130 C   0  0  0  0  0  0  0  0  0  0  0  0
  142.3510   72.3720  218.7400 C   0  0  0  0  0  0  0  0  0  0  0  0
  141.7270   73.4860  219.3210 C   0  0  0  0  0  0  0  0  0  0  0  0
  140.9460   73.2930  220.4660 C   0  0  0  0  0  0  0  0  0  0  0  0
  140.6867   76.2922  223.4456 H   0  0  0  0  0  0  0  0  0  0  0  0
  141.8376   78.5689  224.7944 H   0  0  0  0  0  0  0  0  0  0  0  0
  142.6781   81.8612  222.0658 H   0  0  0  0  0  0  0  0  0  0  0  0
  141.8054   80.4914  220.1381 H   0  0  0  0  0  0  0  0  0  0  0  0
  140.6920   78.0700  219.5250 H   0  0  0  0  0  0  0  0  0  0  0  0
  139.9244   74.0971  223.2878 H   0  0  0  0  0  0  0  0  0  0  0  0
  138.4957   73.8073  222.2779 H   0  0  0  0  0  0  0  0  0  0  0  0
  137.8494   71.7232  222.6342 H   0  0  0  0  0  0  0  0  0  0  0  0
  138.4599   70.9952  221.1478 H   0  0  0  0  0  0  0  0  0  0  0  0
  138.2066   69.5908  223.4864 H   0  0  0  0  0  0  0  0  0  0  0  0
  139.4882   69.2112  222.3042 H   0  0  0  0  0  0  0  0  0  0  0  0
  138.7136   71.0290  225.3693 H   0  0  0  0  0  0  0  0  0  0  0  0
  138.0807   69.0117  226.1018 H   0  0  0  0  0  0  0  0  0  0  0  0
  139.2926   68.2867  224.9454 H   0  0  0  0  0  0  0  0  0  0  0  0
  139.5089   67.4275  227.2784 H   0  0  0  0  0  0  0  0  0  0  0  0
  140.9886   68.2661  226.6426 H   0  0  0  0  0  0  0  0  0  0  0  0
  139.0105   69.1891  228.7437 H   0  0  0  0  0  0  0  0  0  0  0  0
  140.8373   69.0864  228.7879 H   0  0  0  0  0  0  0  0  0  0  0  0
  139.0732   71.2953  227.9159 H   0  0  0  0  0  0  0  0  0  0  0  0
  140.7982   71.2860  228.4985 H   0  0  0  0  0  0  0  0  0  0  0  0
  140.6224   72.1252  226.1804 H   0  0  0  0  0  0  0  0  0  0  0  0
  141.5630   70.5902  226.2847 H   0  0  0  0  0  0  0  0  0  0  0  0
  140.6719   72.3836  224.3190 H   0  0  0  0  0  0  0  0  0  0  0  0
  141.7863   71.4693  223.2609 H   0  0  0  0  0  0  0  0  0  0  0  0
  141.3087   69.9379  220.9298 H   0  0  0  0  0  0  0  0  0  0  0  0
  142.6892   70.2268  218.8520 H   0  0  0  0  0  0  0  0  0  0  0  0
  142.9612   72.4963  217.8332 H   0  0  0  0  0  0  0  0  0  0  0  0
  141.8489   74.4890  218.8862 H   0  0  0  0  0  0  0  0  0  0  0  0
  1  2  2  0
  2  3  1  0
  3  4  2  0
  4  5  1  0
  5  6  2  0
  6  7  1  0
  7  8  1  0
  7  9  2  0
  9 10  1  0
 10 11  2  0
 11 12  1  0
  2 13  1  0
 13 14  1  0
 15 14  1  1
 15 16  1  0
 16 17  1  0
 17 18  1  0
 18 19  1  0
 19 20  1  0
 20 21  1  0
 21 22  1  0
 22 23  1  0
 23 24  1  0
 18 25  1  0
 15 26  1  0
 26 27  2  0
 27 28  1  0
 28 29  2  0
 29 30  1  0
 30 31  2  0
 12  3  1  0
 31 13  1  0
 11  5  1  0
 25 15  1  0
 31 26  1  0
 24 19  1  0
  4 32  1  0
  6 33  1  0
  9 34  1  0
 10 35  1  0
 12 36  1  0
 14 37  1  0
 14 38  1  0
 16 39  1  0
 16 40  1  0
 17 41  1  0
 17 42  1  0
 19 43  1  0
 20 44  1  0
 20 45  1  0
 21 46  1  0
 21 47  1  0
 22 48  1  0
 22 49  1  0
 23 50  1  0
 23 51  1  0
 24 52  1  0
 24 53  1  0
 25 54  1  0
 25 55  1  0
 27 56  1  0
 28 57  1  0
 29 58  1  0
 30 59  1  0
M  END
>  <UniqueID>  (5) 
177

>  <SMILES>  (5) 
O=C(c1cc2cc(F)ccc2[nH]1)N1C[C@@]2(CCN(C3CCCCC3)C2)c2ccccc21

>  <Energy>  (5) 
128.1936475649388

>  <Genealogy>  (5) 
O=C(c1cc2cc(F)ccc2[nH]1)N1C[C@@]2(CCN(C3CCCCC3)C2)c2ccccc21 (3D coordinates assigned)
O=C(c1cc2cc(F)ccc2[nH]1)N1C[C@@]2(CCN(C3CCCCC3)C2)c2ccccc21 (nonaromatic ring conformer: 128.1936475649388 kcal/mol)

>  <smiles>  (5) 
O=C(c1cc2cc(F)ccc2[nH]1)N1C[C@@]2(CCN(C3CCCCC3)C2)c2ccccc21

>  <score_type>  (5) 
oracle

>  <origin>  (5) 
autodockgpu

>  <m_score__min__energy>  (5) 
-8.3499999999999996

>  <m_primary>  (5) 
energy

>  <meeko>  (5) 
{"free_energy": -8.34, "intermolecular_energy": -9.24, "internal_energy": -1.15, "cluster_size": 11, "cluster_id": 1, "rank_in_cluster": 9}

>  <energy>  (5) 
-8.35

>  <cluster_rmsd>  (5) 
0.03

>  <rmsd>  (5) 
272.16

>  <cluster>  (5) 
1

$$$$
VDMKUDNKZWHZNN-SANMLTNENA-N
     RDKit          3D

 59 64  0  0  0  0  0  0  0  0999 V2000
  139.9320   74.3000  222.0120 O   0  0  0  0  0  0  0  0  0  0  0  0
  140.8700   74.8970  221.4170 C   0  0  0  0  0  0  0  0  0  0  0  0
  142.0430   74.1280  220.9670 C   0  0  0  0  0  0  0  0  0  0  0  0
  142.0270   72.7740  220.6400 C   0  0  0  0  0  0  0  0  0  0  0  0
  143.3280   72.4720  220.3080 C   0  0  0  0  0  0  0  0  0  0  0  0
  143.9070   71.2720  219.9000 C   0  0  0  0  0  0  0  0  0  0  0  0
  145.2890   71.2650  219.6330 C   0  0  0  0  0  0  0  0  0  0  0  0
  145.8930   70.1190  219.2330 F   0  0  0  0  0  0  0  0  0  0  0  0
  146.0510   72.4460  219.7840 C   0  0  0  0  0  0  0  0  0  0  0  0
  145.4380   73.6430  220.1990 C   0  0  0  0  0  0  0  0  0  0  0  0
  144.0660   73.6180  220.4510 C   0  0  0  0  0  0  0  0  0  0  0  0
  143.2930   74.6380  220.8580 N   0  0  0  0  0  0  0  0  0  0  0  0
  140.7710   76.3070  221.1650 N   0  0  0  0  0  0  0  0  0  0  0  0
  140.3830   77.2800  222.1900 C   0  0  0  0  0  0  0  0  0  0  0  0
  140.8090   78.6880  221.6450 C   0  0  2  0  0  0  0  0  0  0  0  0
  141.7580   79.4260  222.5920 C   0  0  0  0  0  0  0  0  0  0  0  0
  141.3900   80.8900  222.4530 C   0  0  0  0  0  0  0  0  0  0  0  0
  139.9850   80.9620  222.0250 N   0  0  0  0  0  0  0  0  0  0  0  0
  139.0670   81.4490  223.0910 C   0  0  0  0  0  0  0  0  0  0  0  0
  137.7680   82.0540  222.4820 C   0  0  0  0  0  0  0  0  0  0  0  0
  136.4970   81.2910  222.8820 C   0  0  0  0  0  0  0  0  0  0  0  0
  136.3520   81.1720  224.4080 C   0  0  0  0  0  0  0  0  0  0  0  0
  137.6820   80.9030  225.1430 C   0  0  0  0  0  0  0  0  0  0  0  0
  138.7870   80.4020  224.2070 C   0  0  0  0  0  0  0  0  0  0  0  0
  139.6270   79.6580  221.4340 C   0  0  0  0  0  0  0  0  0  0  0  0
  141.4800   78.3470  220.3400 C   0  0  0  0  0  0  0  0  0  0  0  0
  142.0600   79.2100  219.4020 C   0  0  0  0  0  0  0  0  0  0  0  0
  142.6010   78.6660  218.2270 C   0  0  0  0  0  0  0  0  0  0  0  0
  142.5470   77.2800  217.9980 C   0  0  0  0  0  0  0  0  0  0  0  0
  141.9540   76.4310  218.9440 C   0  0  0  0  0  0  0  0  0  0  0  0
  141.4350   76.9940  220.1160 C   0  0  0  0  0  0  0  0  0  0  0  0
  141.1624   72.0940  220.6459 H   0  0  0  0  0  0  0  0  0  0  0  0
  143.3032   70.3591  219.7901 H   0  0  0  0  0  0  0  0  0  0  0  0
  147.1309   72.4293  219.5756 H   0  0  0  0  0  0  0  0  0  0  0  0
  146.0213   74.5676  220.3207 H   0  0  0  0  0  0  0  0  0  0  0  0
  143.6090   75.6080  221.0820 H   0  0  0  0  0  0  0  0  0  0  0  0
  139.2957   77.2479  222.3533 H   0  0  0  0  0  0  0  0  0  0  0  0
  140.8677   77.0608  223.1529 H   0  0  0  0  0  0  0  0  0  0  0  0
  141.6112   79.0871  223.6281 H   0  0  0  0  0  0  0  0  0  0  0  0
  142.8140   79.2401  222.3467 H   0  0  0  0  0  0  0  0  0  0  0  0
  141.5132   81.4002  223.4197 H   0  0  0  0  0  0  0  0  0  0  0  0
  142.0418   81.3815  221.7157 H   0  0  0  0  0  0  0  0  0  0  0  0
  139.5958   82.2624  223.6094 H   0  0  0  0  0  0  0  0  0  0  0  0
  137.6732   83.0947  222.8255 H   0  0  0  0  0  0  0  0  0  0  0  0
  137.8585   81.9852  221.3879 H   0  0  0  0  0  0  0  0  0  0  0  0
  135.6220   81.8249  222.4828 H   0  0  0  0  0  0  0  0  0  0  0  0
  136.5666   80.2745  222.4673 H   0  0  0  0  0  0  0  0  0  0  0  0
  135.9291   82.1128  224.7902 H   0  0  0  0  0  0  0  0  0  0  0  0
  135.7000   80.3072  224.6005 H   0  0  0  0  0  0  0  0  0  0  0  0
  138.0182   81.8381  225.6148 H   0  0  0  0  0  0  0  0  0  0  0  0
  137.4956   80.1146  225.8871 H   0  0  0  0  0  0  0  0  0  0  0  0
  139.7065   80.2361  224.7876 H   0  0  0  0  0  0  0  0  0  0  0  0
  138.4604   79.4610  223.7402 H   0  0  0  0  0  0  0  0  0  0  0  0
  138.7275   79.2608  221.9271 H   0  0  0  0  0  0  0  0  0  0  0  0
  139.4192   79.7735  220.3600 H   0  0  0  0  0  0  0  0  0  0  0  0
  142.0910   80.2946  219.5829 H   0  0  0  0  0  0  0  0  0  0  0  0
  143.0691   79.3266  217.4823 H   0  0  0  0  0  0  0  0  0  0  0  0
  142.9711   76.8600  217.0740 H   0  0  0  0  0  0  0  0  0  0  0  0
  141.8980   75.3465  218.7688 H   0  0  0  0  0  0  0  0  0  0  0  0
  1  2  2  0
  2  3  1  0
  3  4  2  0
  4  5  1  0
  5  6  2  0
  6  7  1  0
  7  8  1  0
  7  9  2  0
  9 10  1  0
 10 11  2  0
 11 12  1  0
  2 13  1  0
 13 14  1  0
 15 14  1  1
 15 16  1  0
 16 17  1  0
 17 18  1  0
 18 19  1  0
 19 20  1  0
 20 21  1  0
 21 22  1  0
 22 23  1  0
 23 24  1  0
 18 25  1  0
 15 26  1  0
 26 27  2  0
 27 28  1  0
 28 29  2  0
 29 30  1  0
 30 31  2  0
 12  3  1  0
 31 13  1  0
 11  5  1  0
 25 15  1  0
 31 26  1  0
 24 19  1  0
  4 32  1  0
  6 33  1  0
  9 34  1  0
 10 35  1  0
 12 36  1  0
 14 37  1  0
 14 38  1  0
 16 39  1  0
 16 40  1  0
 17 41  1  0
 17 42  1  0
 19 43  1  0
 20 44  1  0
 20 45  1  0
 21 46  1  0
 21 47  1  0
 22 48  1  0
 22 49  1  0
 23 50  1  0
 23 51  1  0
 24 52  1  0
 24 53  1  0
 25 54  1  0
 25 55  1  0
 27 56  1  0
 28 57  1  0
 29 58  1  0
 30 59  1  0
M  END
>  <UniqueID>  (6) 
177

>  <SMILES>  (6) 
O=C(c1cc2cc(F)ccc2[nH]1)N1C[C@@]2(CCN(C3CCCCC3)C2)c2ccccc21

>  <Energy>  (6) 
128.1936475649388

>  <Genealogy>  (6) 
O=C(c1cc2cc(F)ccc2[nH]1)N1C[C@@]2(CCN(C3CCCCC3)C2)c2ccccc21 (3D coordinates assigned)
O=C(c1cc2cc(F)ccc2[nH]1)N1C[C@@]2(CCN(C3CCCCC3)C2)c2ccccc21 (nonaromatic ring conformer: 128.1936475649388 kcal/mol)

>  <smiles>  (6) 
O=C(c1cc2cc(F)ccc2[nH]1)N1C[C@@]2(CCN(C3CCCCC3)C2)c2ccccc21

>  <score_type>  (6) 
oracle

>  <origin>  (6) 
autodockgpu

>  <m_score__min__energy>  (6) 
-8.3499999999999996

>  <m_primary>  (6) 
energy

>  <meeko>  (6) 
{"free_energy": -8.18, "intermolecular_energy": -9.08, "internal_energy": -1.27, "cluster_size": 3, "cluster_id": 2, "rank_in_cluster": 2}

>  <energy>  (6) 
-8.35

>  <cluster_rmsd>  (6) 
0.05

>  <rmsd>  (6) 
272.18

>  <cluster>  (6) 
1

$$$$
VDMKUDNKZWHZNN-SANMLTNENA-N
     RDKit          3D

 59 64  0  0  0  0  0  0  0  0999 V2000
  138.9890   75.7430  219.8710 O   0  0  0  0  0  0  0  0  0  0  0  0
  139.8760   75.6360  220.7610 C   0  0  0  0  0  0  0  0  0  0  0  0
  140.4960   76.8540  221.3100 C   0  0  0  0  0  0  0  0  0  0  0  0
  140.7940   77.0560  222.6560 C   0  0  0  0  0  0  0  0  0  0  0  0
  141.3260   78.3250  222.7170 C   0  0  0  0  0  0  0  0  0  0  0  0
  141.8010   79.0590  223.8010 C   0  0  0  0  0  0  0  0  0  0  0  0
  142.2860   80.3570  223.5550 C   0  0  0  0  0  0  0  0  0  0  0  0
  142.7590   81.1070  224.5800 F   0  0  0  0  0  0  0  0  0  0  0  0
  142.2780   80.8850  222.2430 C   0  0  0  0  0  0  0  0  0  0  0  0
  141.7890   80.1190  221.1690 C   0  0  0  0  0  0  0  0  0  0  0  0
  141.3210   78.8340  221.4450 C   0  0  0  0  0  0  0  0  0  0  0  0
  140.8120   77.9470  220.5750 N   0  0  0  0  0  0  0  0  0  0  0  0
  140.2490   74.3360  221.2420 N   0  0  0  0  0  0  0  0  0  0  0  0
  139.5580   73.6610  222.3440 C   0  0  0  0  0  0  0  0  0  0  0  0
  139.9730   72.1490  222.2630 C   0  0  2  0  0  0  0  0  0  0  0  0
  138.7690   71.2130  222.1330 C   0  0  0  0  0  0  0  0  0  0  0  0
  139.1570   69.9670  222.9040 C   0  0  0  0  0  0  0  0  0  0  0  0
  140.1440   70.3580  223.9230 N   0  0  0  0  0  0  0  0  0  0  0  0
  139.6060   70.3260  225.3110 C   0  0  0  0  0  0  0  0  0  0  0  0
  139.1900   68.8820  225.7200 C   0  0  0  0  0  0  0  0  0  0  0  0
  140.0000   68.3290  226.9010 C   0  0  0  0  0  0  0  0  0  0  0  0
  139.9400   69.2570  228.1260 C   0  0  0  0  0  0  0  0  0  0  0  0
  140.0050   70.7590  227.7760 C   0  0  0  0  0  0  0  0  0  0  0  0
  140.5260   71.0150  226.3590 C   0  0  0  0  0  0  0  0  0  0  0  0
  140.7350   71.6450  223.5070 C   0  0  0  0  0  0  0  0  0  0  0  0
  140.8420   72.1120  221.0330 C   0  0  0  0  0  0  0  0  0  0  0  0
  141.5070   71.0180  220.4640 C   0  0  0  0  0  0  0  0  0  0  0  0
  142.2990   71.2260  219.3250 C   0  0  0  0  0  0  0  0  0  0  0  0
  142.4270   72.5150  218.7780 C   0  0  0  0  0  0  0  0  0  0  0  0
  141.7620   73.6010  219.3660 C   0  0  0  0  0  0  0  0  0  0  0  0
  140.9650   73.3670  220.4930 C   0  0  0  0  0  0  0  0  0  0  0  0
  140.6383   76.3545  223.4889 H   0  0  0  0  0  0  0  0  0  0  0  0
  141.7972   78.6376  224.8171 H   0  0  0  0  0  0  0  0  0  0  0  0
  142.6567   81.9016  222.0610 H   0  0  0  0  0  0  0  0  0  0  0  0
  141.7761   80.5202  220.1449 H   0  0  0  0  0  0  0  0  0  0  0  0
  140.6570   78.0960  219.5520 H   0  0  0  0  0  0  0  0  0  0  0  0
  139.8683   74.0902  223.3081 H   0  0  0  0  0  0  0  0  0  0  0  0
  138.4674   73.7813  222.2659 H   0  0  0  0  0  0  0  0  0  0  0  0
  137.8713   71.6745  222.5702 H   0  0  0  0  0  0  0  0  0  0  0  0
  138.5289   70.9914  221.0826 H   0  0  0  0  0  0  0  0  0  0  0  0
  138.2691   69.5355  223.3892 H   0  0  0  0  0  0  0  0  0  0  0  0
  139.5827   69.2126  222.2261 H   0  0  0  0  0  0  0  0  0  0  0  0
  138.6942   70.9413  225.3054 H   0  0  0  0  0  0  0  0  0  0  0  0
  138.1262   68.8910  225.9998 H   0  0  0  0  0  0  0  0  0  0  0  0
  139.3855   68.2294  224.8564 H   0  0  0  0  0  0  0  0  0  0  0  0
  139.5942   67.3455  227.1804 H   0  0  0  0  0  0  0  0  0  0  0  0
  141.0508   68.2509  226.5852 H   0  0  0  0  0  0  0  0  0  0  0  0
  138.9971   69.0661  228.6594 H   0  0  0  0  0  0  0  0  0  0  0  0
  140.8250   69.0334  228.7399 H   0  0  0  0  0  0  0  0  0  0  0  0
  138.9940   71.1840  227.8611 H   0  0  0  0  0  0  0  0  0  0  0  0
  140.7067   71.2331  228.4780 H   0  0  0  0  0  0  0  0  0  0  0  0
  140.5436   72.0984  226.1694 H   0  0  0  0  0  0  0  0  0  0  0  0
  141.5408   70.5997  226.2712 H   0  0  0  0  0  0  0  0  0  0  0  0
  140.6421   72.3777  224.3222 H   0  0  0  0  0  0  0  0  0  0  0  0
  141.8012   71.5135  223.2707 H   0  0  0  0  0  0  0  0  0  0  0  0
  141.4098   70.0139  220.9026 H   0  0  0  0  0  0  0  0  0  0  0  0
  142.8216   70.3780  218.8583 H   0  0  0  0  0  0  0  0  0  0  0  0
  143.0509   72.6723  217.8858 H   0  0  0  0  0  0  0  0  0  0  0  0
  141.8644   74.6144  218.9507 H   0  0  0  0  0  0  0  0  0  0  0  0
  1  2  2  0
  2  3  1  0
  3  4  2  0
  4  5  1  0
  5  6  2  0
  6  7  1  0
  7  8  1  0
  7  9  2  0
  9 10  1  0
 10 11  2  0
 11 12  1  0
  2 13  1  0
 13 14  1  0
 15 14  1  1
 15 16  1  0
 16 17  1  0
 17 18  1  0
 18 19  1  0
 19 20  1  0
 20 21  1  0
 21 22  1  0
 22 23  1  0
 23 24  1  0
 18 25  1  0
 15 26  1  0
 26 27  2  0
 27 28  1  0
 28 29  2  0
 29 30  1  0
 30 31  2  0
 12  3  1  0
 31 13  1  0
 11  5  1  0
 25 15  1  0
 31 26  1  0
 24 19  1  0
  4 32  1  0
  6 33  1  0
  9 34  1  0
 10 35  1  0
 12 36  1  0
 14 37  1  0
 14 38  1  0
 16 39  1  0
 16 40  1  0
 17 41  1  0
 17 42  1  0
 19 43  1  0
 20 44  1  0
 20 45  1  0
 21 46  1  0
 21 47  1  0
 22 48  1  0
 22 49  1  0
 23 50  1  0
 23 51  1  0
 24 52  1  0
 24 53  1  0
 25 54  1  0
 25 55  1  0
 27 56  1  0
 28 57  1  0
 29 58  1  0
 30 59  1  0
M  END
>  <UniqueID>  (7) 
177

>  <SMILES>  (7) 
O=C(c1cc2cc(F)ccc2[nH]1)N1C[C@@]2(CCN(C3CCCCC3)C2)c2ccccc21

>  <Energy>  (7) 
128.1936475649388

>  <Genealogy>  (7) 
O=C(c1cc2cc(F)ccc2[nH]1)N1C[C@@]2(CCN(C3CCCCC3)C2)c2ccccc21 (3D coordinates assigned)
O=C(c1cc2cc(F)ccc2[nH]1)N1C[C@@]2(CCN(C3CCCCC3)C2)c2ccccc21 (nonaromatic ring conformer: 128.1936475649388 kcal/mol)

>  <smiles>  (7) 
O=C(c1cc2cc(F)ccc2[nH]1)N1C[C@@]2(CCN(C3CCCCC3)C2)c2ccccc21

>  <score_type>  (7) 
oracle

>  <origin>  (7) 
autodockgpu

>  <m_score__min__energy>  (7) 
-8.3499999999999996

>  <m_primary>  (7) 
energy

>  <meeko>  (7) 
{"free_energy": -8.35, "intermolecular_energy": -9.24, "internal_energy": -1.15, "cluster_size": 11, "cluster_id": 1, "rank_in_cluster": 7}

>  <energy>  (7) 
-8.35

>  <cluster_rmsd>  (7) 
0.05

>  <rmsd>  (7) 
272.18

>  <cluster>  (7) 
1

$$$$
VDMKUDNKZWHZNN-SANMLTNENA-N
     RDKit          3D

 59 64  0  0  0  0  0  0  0  0999 V2000
  139.0020   75.7380  219.8640 O   0  0  0  0  0  0  0  0  0  0  0  0
  139.8880   75.6310  220.7560 C   0  0  0  0  0  0  0  0  0  0  0  0
  140.5110   76.8490  221.3020 C   0  0  0  0  0  0  0  0  0  0  0  0
  140.8180   77.0500  222.6460 C   0  0  0  0  0  0  0  0  0  0  0  0
  141.3500   78.3180  222.7040 C   0  0  0  0  0  0  0  0  0  0  0  0
  141.8320   79.0520  223.7860 C   0  0  0  0  0  0  0  0  0  0  0  0
  142.3160   80.3500  223.5370 C   0  0  0  0  0  0  0  0  0  0  0  0
  142.7960   81.0990  224.5600 F   0  0  0  0  0  0  0  0  0  0  0  0
  142.2990   80.8790  222.2250 C   0  0  0  0  0  0  0  0  0  0  0  0
  141.8040   80.1130  221.1540 C   0  0  0  0  0  0  0  0  0  0  0  0
  141.3370   78.8290  221.4320 C   0  0  0  0  0  0  0  0  0  0  0  0
  140.8220   77.9420  220.5650 N   0  0  0  0  0  0  0  0  0  0  0  0
  140.2550   74.3310  221.2430 N   0  0  0  0  0  0  0  0  0  0  0  0
  139.5600   73.6620  222.3450 C   0  0  0  0  0  0  0  0  0  0  0  0
  139.9690   72.1490  222.2700 C   0  0  2  0  0  0  0  0  0  0  0  0
  138.7630   71.2170  222.1410 C   0  0  0  0  0  0  0  0  0  0  0  0
  139.1450   69.9720  222.9170 C   0  0  0  0  0  0  0  0  0  0  0  0
  140.1300   70.3630  223.9370 N   0  0  0  0  0  0  0  0  0  0  0  0
  139.5890   70.3370  225.3230 C   0  0  0  0  0  0  0  0  0  0  0  0
  139.1420   68.9010  225.7270 C   0  0  0  0  0  0  0  0  0  0  0  0
  139.9380   68.3270  226.9080 C   0  0  0  0  0  0  0  0  0  0  0  0
  139.8950   69.2530  228.1360 C   0  0  0  0  0  0  0  0  0  0  0  0
  139.9920   70.7540  227.7910 C   0  0  0  0  0  0  0  0  0  0  0  0
  140.5210   71.0040  226.3750 C   0  0  0  0  0  0  0  0  0  0  0  0
  140.7260   71.6460  223.5180 C   0  0  0  0  0  0  0  0  0  0  0  0
  140.8410   72.1040  221.0420 C   0  0  0  0  0  0  0  0  0  0  0  0
  141.5030   71.0060  220.4790 C   0  0  0  0  0  0  0  0  0  0  0  0
  142.2990   71.2080  219.3410 C   0  0  0  0  0  0  0  0  0  0  0  0
  142.4330   72.4950  218.7900 C   0  0  0  0  0  0  0  0  0  0  0  0
  141.7700   73.5850  219.3730 C   0  0  0  0  0  0  0  0  0  0  0  0
  140.9700   73.3570  220.4980 C   0  0  0  0  0  0  0  0  0  0  0  0
  140.6678   76.3480  223.4795 H   0  0  0  0  0  0  0  0  0  0  0  0
  141.8342   78.6305  224.8020 H   0  0  0  0  0  0  0  0  0  0  0  0
  142.6754   81.8961  222.0411 H   0  0  0  0  0  0  0  0  0  0  0  0
  141.7859   80.5142  220.1299 H   0  0  0  0  0  0  0  0  0  0  0  0
  140.6610   78.0910  219.5440 H   0  0  0  0  0  0  0  0  0  0  0  0
  139.8701   74.0930  223.3084 H   0  0  0  0  0  0  0  0  0  0  0  0
  138.4700   73.7859  222.2640 H   0  0  0  0  0  0  0  0  0  0  0  0
  137.8660   71.6830  222.5748 H   0  0  0  0  0  0  0  0  0  0  0  0
  138.5245   70.9926  221.0909 H   0  0  0  0  0  0  0  0  0  0  0  0
  138.2544   69.5448  223.4011 H   0  0  0  0  0  0  0  0  0  0  0  0
  139.5702   69.2141  222.2426 H   0  0  0  0  0  0  0  0  0  0  0  0
  138.6897   70.9705  225.3173 H   0  0  0  0  0  0  0  0  0  0  0  0
  138.0781   68.9317  226.0050 H   0  0  0  0  0  0  0  0  0  0  0  0
  139.3255   68.2470  224.8618 H   0  0  0  0  0  0  0  0  0  0  0  0
  139.5109   67.3515  227.1836 H   0  0  0  0  0  0  0  0  0  0  0  0
  140.9875   68.2273  226.5941 H   0  0  0  0  0  0  0  0  0  0  0  0
  138.9473   69.0802  228.6670 H   0  0  0  0  0  0  0  0  0  0  0  0
  140.7741   69.0092  228.7507 H   0  0  0  0  0  0  0  0  0  0  0  0
  138.9899   71.1997  227.8758 H   0  0  0  0  0  0  0  0  0  0  0  0
  140.7024   71.2109  228.4957 H   0  0  0  0  0  0  0  0  0  0  0  0
  140.5609   72.0874  226.1889 H   0  0  0  0  0  0  0  0  0  0  0  0
  141.5273   70.5685  226.2877 H   0  0  0  0  0  0  0  0  0  0  0  0
  140.6335   72.3818  224.3305 H   0  0  0  0  0  0  0  0  0  0  0  0
  141.7922   71.5097  223.2845 H   0  0  0  0  0  0  0  0  0  0  0  0
  141.4010   70.0037  220.9206 H   0  0  0  0  0  0  0  0  0  0  0  0
  142.8199   70.3568  218.8784 H   0  0  0  0  0  0  0  0  0  0  0  0
  143.0598   72.6473  217.8989 H   0  0  0  0  0  0  0  0  0  0  0  0
  141.8767   74.5968  218.9549 H   0  0  0  0  0  0  0  0  0  0  0  0
  1  2  2  0
  2  3  1  0
  3  4  2  0
  4  5  1  0
  5  6  2  0
  6  7  1  0
  7  8  1  0
  7  9  2  0
  9 10  1  0
 10 11  2  0
 11 12  1  0
  2 13  1  0
 13 14  1  0
 15 14  1  1
 15 16  1  0
 16 17  1  0
 17 18  1  0
 18 19  1  0
 19 20  1  0
 20 21  1  0
 21 22  1  0
 22 23  1  0
 23 24  1  0
 18 25  1  0
 15 26  1  0
 26 27  2  0
 27 28  1  0
 28 29  2  0
 29 30  1  0
 30 31  2  0
 12  3  1  0
 31 13  1  0
 11  5  1  0
 25 15  1  0
 31 26  1  0
 24 19  1  0
  4 32  1  0
  6 33  1  0
  9 34  1  0
 10 35  1  0
 12 36  1  0
 14 37  1  0
 14 38  1  0
 16 39  1  0
 16 40  1  0
 17 41  1  0
 17 42  1  0
 19 43  1  0
 20 44  1  0
 20 45  1  0
 21 46  1  0
 21 47  1  0
 22 48  1  0
 22 49  1  0
 23 50  1  0
 23 51  1  0
 24 52  1  0
 24 53  1  0
 25 54  1  0
 25 55  1  0
 27 56  1  0
 28 57  1  0
 29 58  1  0
 30 59  1  0
M  END
>  <UniqueID>  (8) 
177

>  <SMILES>  (8) 
O=C(c1cc2cc(F)ccc2[nH]1)N1C[C@@]2(CCN(C3CCCCC3)C2)c2ccccc21

>  <Energy>  (8) 
128.1936475649388

>  <Genealogy>  (8) 
O=C(c1cc2cc(F)ccc2[nH]1)N1C[C@@]2(CCN(C3CCCCC3)C2)c2ccccc21 (3D coordinates assigned)
O=C(c1cc2cc(F)ccc2[nH]1)N1C[C@@]2(CCN(C3CCCCC3)C2)c2ccccc21 (nonaromatic ring conformer: 128.1936475649388 kcal/mol)

>  <smiles>  (8) 
O=C(c1cc2cc(F)ccc2[nH]1)N1C[C@@]2(CCN(C3CCCCC3)C2)c2ccccc21

>  <score_type>  (8) 
oracle

>  <origin>  (8) 
autodockgpu

>  <m_score__min__energy>  (8) 
-8.3499999999999996

>  <m_primary>  (8) 
energy

>  <meeko>  (8) 
{"free_energy": -8.35, "intermolecular_energy": -9.24, "internal_energy": -1.15, "cluster_size": 11, "cluster_id": 1, "rank_in_cluster": 6}

>  <energy>  (8) 
-8.34

>  <cluster_rmsd>  (8) 
0.08

>  <rmsd>  (8) 
272.19

>  <cluster>  (8) 
1

$$$$
VDMKUDNKZWHZNN-SANMLTNENA-N
     RDKit          3D

 59 64  0  0  0  0  0  0  0  0999 V2000
  139.0490   75.7010  219.8070 O   0  0  0  0  0  0  0  0  0  0  0  0
  139.9140   75.5930  220.7190 C   0  0  0  0  0  0  0  0  0  0  0  0
  140.5300   76.8100  221.2750 C   0  0  0  0  0  0  0  0  0  0  0  0
  140.8210   77.0080  222.6230 C   0  0  0  0  0  0  0  0  0  0  0  0
  141.3510   78.2770  222.6900 C   0  0  0  0  0  0  0  0  0  0  0  0
  141.8200   79.0090  223.7790 C   0  0  0  0  0  0  0  0  0  0  0  0
  142.3040   80.3090  223.5390 C   0  0  0  0  0  0  0  0  0  0  0  0
  142.7720   81.0560  224.5690 F   0  0  0  0  0  0  0  0  0  0  0  0
  142.3010   80.8410  222.2290 C   0  0  0  0  0  0  0  0  0  0  0  0
  141.8180   80.0770  221.1500 C   0  0  0  0  0  0  0  0  0  0  0  0
  141.3500   78.7910  221.4200 C   0  0  0  0  0  0  0  0  0  0  0  0
  140.8470   77.9060  220.5450 N   0  0  0  0  0  0  0  0  0  0  0  0
  140.2650   74.2940  221.2180 N   0  0  0  0  0  0  0  0  0  0  0  0
  139.5780   73.6540  222.3430 C   0  0  0  0  0  0  0  0  0  0  0  0
  139.9560   72.1320  222.2830 C   0  0  2  0  0  0  0  0  0  0  0  0
  138.7300   71.2220  222.1900 C   0  0  0  0  0  0  0  0  0  0  0  0
  139.1020   69.9820  222.9770 C   0  0  0  0  0  0  0  0  0  0  0  0
  140.1140   70.3680  223.9730 N   0  0  0  0  0  0  0  0  0  0  0  0
  139.5980   70.3730  225.3690 C   0  0  0  0  0  0  0  0  0  0  0  0
  139.1480   68.9480  225.8080 C   0  0  0  0  0  0  0  0  0  0  0  0
  139.9600   68.3900  226.9850 C   0  0  0  0  0  0  0  0  0  0  0  0
  139.9480   69.3380  228.1960 C   0  0  0  0  0  0  0  0  0  0  0  0
  140.0510   70.8320  227.8210 C   0  0  0  0  0  0  0  0  0  0  0  0
  140.5550   71.0510  226.3910 C   0  0  0  0  0  0  0  0  0  0  0  0
  140.7270   71.6330  223.5240 C   0  0  0  0  0  0  0  0  0  0  0  0
  140.8040   72.0530  221.0400 C   0  0  0  0  0  0  0  0  0  0  0  0
  141.4340   70.9340  220.4800 C   0  0  0  0  0  0  0  0  0  0  0  0
  142.2120   71.1040  219.3250 C   0  0  0  0  0  0  0  0  0  0  0  0
  142.3610   72.3800  218.7530 C   0  0  0  0  0  0  0  0  0  0  0  0
  141.7300   73.4910  219.3320 C   0  0  0  0  0  0  0  0  0  0  0  0
  140.9470   73.2950  220.4750 C   0  0  0  0  0  0  0  0  0  0  0  0
  140.6620   76.3039  223.4530 H   0  0  0  0  0  0  0  0  0  0  0  0
  141.8123   78.5846  224.7938 H   0  0  0  0  0  0  0  0  0  0  0  0
  142.6787   81.8588  222.0519 H   0  0  0  0  0  0  0  0  0  0  0  0
  141.8098   80.4810  220.1269 H   0  0  0  0  0  0  0  0  0  0  0  0
  140.6960   78.0580  219.5220 H   0  0  0  0  0  0  0  0  0  0  0  0
  139.9146   74.0927  223.2940 H   0  0  0  0  0  0  0  0  0  0  0  0
  138.4893   73.7979  222.2803 H   0  0  0  0  0  0  0  0  0  0  0  0
  137.8504   71.7118  222.6331 H   0  0  0  0  0  0  0  0  0  0  0  0
  138.4678   70.9870  221.1479 H   0  0  0  0  0  0  0  0  0  0  0  0
  138.2125   69.5797  223.4839 H   0  0  0  0  0  0  0  0  0  0  0  0
  139.4996   69.2062  222.3062 H   0  0  0  0  0  0  0  0  0  0  0  0
  138.7040   71.0139  225.3679 H   0  0  0  0  0  0  0  0  0  0  0  0
  138.0895   68.9919  226.1039 H   0  0  0  0  0  0  0  0  0  0  0  0
  139.3119   68.2767  224.9521 H   0  0  0  0  0  0  0  0  0  0  0  0
  139.5296   67.4236  227.2865 H   0  0  0  0  0  0  0  0  0  0  0  0
  141.0028   68.2761  226.6538 H   0  0  0  0  0  0  0  0  0  0  0  0
  139.0091   69.1832  228.7479 H   0  0  0  0  0  0  0  0  0  0  0  0
  140.8363   69.0978  228.7987 H   0  0  0  0  0  0  0  0  0  0  0  0
  139.0545   71.2879  227.9163 H   0  0  0  0  0  0  0  0  0  0  0  0
  140.7784   71.2957  228.5035 H   0  0  0  0  0  0  0  0  0  0  0  0
  140.6005   72.1304  226.1840 H   0  0  0  0  0  0  0  0  0  0  0  0
  141.5557   70.6049  226.2931 H   0  0  0  0  0  0  0  0  0  0  0  0
  140.6642   72.3822  224.3269 H   0  0  0  0  0  0  0  0  0  0  0  0
  141.7859   71.4727  223.2730 H   0  0  0  0  0  0  0  0  0  0  0  0
  141.3207   69.9401  220.9376 H   0  0  0  0  0  0  0  0  0  0  0  0
  142.7072   70.2361  218.8652 H   0  0  0  0  0  0  0  0  0  0  0  0
  142.9743   72.5073  217.8487 H   0  0  0  0  0  0  0  0  0  0  0  0
  141.8481   74.4944  218.8970 H   0  0  0  0  0  0  0  0  0  0  0  0
  1  2  2  0
  2  3  1  0
  3  4  2  0
  4  5  1  0
  5  6  2  0
  6  7  1  0
  7  8  1  0
  7  9  2  0
  9 10  1  0
 10 11  2  0
 11 12  1  0
  2 13  1  0
 13 14  1  0
 15 14  1  1
 15 16  1  0
 16 17  1  0
 17 18  1  0
 18 19  1  0
 19 20  1  0
 20 21  1  0
 21 22  1  0
 22 23  1  0
 23 24  1  0
 18 25  1  0
 15 26  1  0
 26 27  2  0
 27 28  1  0
 28 29  2  0
 29 30  1  0
 30 31  2  0
 12  3  1  0
 31 13  1  0
 11  5  1  0
 25 15  1  0
 31 26  1  0
 24 19  1  0
  4 32  1  0
  6 33  1  0
  9 34  1  0
 10 35  1  0
 12 36  1  0
 14 37  1  0
 14 38  1  0
 16 39  1  0
 16 40  1  0
 17 41  1  0
 17 42  1  0
 19 43  1  0
 20 44  1  0
 20 45  1  0
 21 46  1  0
 21 47  1  0
 22 48  1  0
 22 49  1  0
 23 50  1  0
 23 51  1  0
 24 52  1  0
 24 53  1  0
 25 54  1  0
 25 55  1  0
 27 56  1  0
 28 57  1  0
 29 58  1  0
 30 59  1  0
M  END
>  <UniqueID>  (9) 
177

>  <SMILES>  (9) 
O=C(c1cc2cc(F)ccc2[nH]1)N1C[C@@]2(CCN(C3CCCCC3)C2)c2ccccc21

>  <Energy>  (9) 
128.1936475649388

>  <Genealogy>  (9) 
O=C(c1cc2cc(F)ccc2[nH]1)N1C[C@@]2(CCN(C3CCCCC3)C2)c2ccccc21 (3D coordinates assigned)
O=C(c1cc2cc(F)ccc2[nH]1)N1C[C@@]2(CCN(C3CCCCC3)C2)c2ccccc21 (nonaromatic ring conformer: 128.1936475649388 kcal/mol)

>  <smiles>  (9) 
O=C(c1cc2cc(F)ccc2[nH]1)N1C[C@@]2(CCN(C3CCCCC3)C2)c2ccccc21

>  <score_type>  (9) 
oracle

>  <origin>  (9) 
autodockgpu

>  <m_score__min__energy>  (9) 
-8.3499999999999996

>  <m_primary>  (9) 
energy

>  <meeko>  (9) 
{"free_energy": -8.35, "intermolecular_energy": -9.25, "internal_energy": -1.15, "cluster_size": 11, "cluster_id": 1, "rank_in_cluster": 3}

>  <energy>  (9) 
-8.34

>  <cluster_rmsd>  (9) 
0.04

>  <rmsd>  (9) 
272.17

>  <cluster>  (9) 
1

$$$$
VDMKUDNKZWHZNN-SANMLTNENA-N
     RDKit          3D

 59 64  0  0  0  0  0  0  0  0999 V2000
  137.8760   81.8130  221.8340 O   0  0  0  0  0  0  0  0  0  0  0  0
  138.2120   81.2290  222.9010 C   0  0  0  0  0  0  0  0  0  0  0  0
  137.6010   81.6470  224.1740 C   0  0  0  0  0  0  0  0  0  0  0  0
  137.5750   80.8750  225.3340 C   0  0  0  0  0  0  0  0  0  0  0  0
  136.8870   81.6350  226.2520 C   0  0  0  0  0  0  0  0  0  0  0  0
  136.5550   81.3750  227.5800 C   0  0  0  0  0  0  0  0  0  0  0  0
  135.8250   82.3540  228.2800 C   0  0  0  0  0  0  0  0  0  0  0  0
  135.4810   82.1430  229.5740 F   0  0  0  0  0  0  0  0  0  0  0  0
  135.4450   83.5550  227.6390 C   0  0  0  0  0  0  0  0  0  0  0  0
  135.7950   83.7880  226.2960 C   0  0  0  0  0  0  0  0  0  0  0  0
  136.5220   82.8010  225.6310 C   0  0  0  0  0  0  0  0  0  0  0  0
  136.9480   82.8200  224.3580 N   0  0  0  0  0  0  0  0  0  0  0  0
  139.1600   80.1520  222.8550 N   0  0  0  0  0  0  0  0  0  0  0  0
  138.9330   78.9150  222.1030 C   0  0  0  0  0  0  0  0  0  0  0  0
  140.3340   78.2230  221.9590 C   0  0  2  0  0  0  0  0  0  0  0  0
  140.7210   77.9710  220.5010 C   0  0  0  0  0  0  0  0  0  0  0  0
  141.4930   76.6670  220.5210 C   0  0  0  0  0  0  0  0  0  0  0  0
  141.0440   75.8960  221.6910 N   0  0  0  0  0  0  0  0  0  0  0  0
  140.2170   74.7100  221.3350 C   0  0  0  0  0  0  0  0  0  0  0  0
  140.9890   73.3840  221.6050 C   0  0  0  0  0  0  0  0  0  0  0  0
  140.3230   72.5000  222.6680 C   0  0  0  0  0  0  0  0  0  0  0  0
  138.8560   72.1900  222.3250 C   0  0  0  0  0  0  0  0  0  0  0  0
  138.0900   73.3850  221.7190 C   0  0  0  0  0  0  0  0  0  0  0  0
  138.7940   74.7250  221.9620 C   0  0  0  0  0  0  0  0  0  0  0  0
  140.4170   76.8390  222.6370 C   0  0  0  0  0  0  0  0  0  0  0  0
  141.2600   79.2140  222.6170 C   0  0  0  0  0  0  0  0  0  0  0  0
  142.6460   79.1320  222.7960 C   0  0  0  0  0  0  0  0  0  0  0  0
  143.3030   80.1680  223.4770 C   0  0  0  0  0  0  0  0  0  0  0  0
  142.5730   81.2590  223.9780 C   0  0  0  0  0  0  0  0  0  0  0  0
  141.1830   81.3210  223.7990 C   0  0  0  0  0  0  0  0  0  0  0  0
  140.5510   80.2830  223.1030 C   0  0  0  0  0  0  0  0  0  0  0  0
  138.0098   79.8757  225.4833 H   0  0  0  0  0  0  0  0  0  0  0  0
  136.8539   80.4345  228.0660 H   0  0  0  0  0  0  0  0  0  0  0  0
  134.8719   84.3126  228.1936 H   0  0  0  0  0  0  0  0  0  0  0  0
  135.5044   84.7189  225.7870 H   0  0  0  0  0  0  0  0  0  0  0  0
  136.7710   83.5700  223.6530 H   0  0  0  0  0  0  0  0  0  0  0  0
  138.2388   78.2594  222.6491 H   0  0  0  0  0  0  0  0  0  0  0  0
  138.4864   79.1217  221.1192 H   0  0  0  0  0  0  0  0  0  0  0  0
  139.8228   77.8791  219.8727 H   0  0  0  0  0  0  0  0  0  0  0  0
  141.3147   78.7968  220.0820 H   0  0  0  0  0  0  0  0  0  0  0  0
  141.2931   76.0997  219.6000 H   0  0  0  0  0  0  0  0  0  0  0  0
  142.5740   76.8615  220.5810 H   0  0  0  0  0  0  0  0  0  0  0  0
  140.0365   74.7698  220.2516 H   0  0  0  0  0  0  0  0  0  0  0  0
  141.0469   72.8160  220.6648 H   0  0  0  0  0  0  0  0  0  0  0  0
  141.9841   73.6578  221.9856 H   0  0  0  0  0  0  0  0  0  0  0  0
  140.8782   71.5532  222.7407 H   0  0  0  0  0  0  0  0  0  0  0  0
  140.3399   73.0464  223.6226 H   0  0  0  0  0  0  0  0  0  0  0  0
  138.8370   71.3628  221.6001 H   0  0  0  0  0  0  0  0  0  0  0  0
  138.3540   71.9347  223.2699 H   0  0  0  0  0  0  0  0  0  0  0  0
  137.9959   73.2288  220.6342 H   0  0  0  0  0  0  0  0  0  0  0  0
  137.1071   73.4327  222.2105 H   0  0  0  0  0  0  0  0  0  0  0  0
  138.2044   75.5328  221.5039 H   0  0  0  0  0  0  0  0  0  0  0  0
  138.8829   74.8905  223.0458 H   0  0  0  0  0  0  0  0  0  0  0  0
  139.4062   76.4900  222.8949 H   0  0  0  0  0  0  0  0  0  0  0  0
  141.0139   76.9039  223.5587 H   0  0  0  0  0  0  0  0  0  0  0  0
  143.2102   78.2704  222.4095 H   0  0  0  0  0  0  0  0  0  0  0  0
  144.3930   80.1259  223.6191 H   0  0  0  0  0  0  0  0  0  0  0  0
  143.0933   82.0674  224.5125 H   0  0  0  0  0  0  0  0  0  0  0  0
  140.6022   82.1664  224.1966 H   0  0  0  0  0  0  0  0  0  0  0  0
  1  2  2  0
  2  3  1  0
  3  4  2  0
  4  5  1  0
  5  6  2  0
  6  7  1  0
  7  8  1  0
  7  9  2  0
  9 10  1  0
 10 11  2  0
 11 12  1  0
  2 13  1  0
 13 14  1  0
 15 14  1  6
 15 16  1  0
 16 17  1  0
 17 18  1  0
 18 19  1  0
 19 20  1  0
 20 21  1  0
 21 22  1  0
 22 23  1  0
 23 24  1  0
 18 25  1  0
 15 26  1  0
 26 27  2  0
 27 28  1  0
 28 29  2  0
 29 30  1  0
 30 31  2  0
 12  3  1  0
 31 13  1  0
 11  5  1  0
 25 15  1  0
 31 26  1  0
 24 19  1  0
  4 32  1  0
  6 33  1  0
  9 34  1  0
 10 35  1  0
 12 36  1  0
 14 37  1  0
 14 38  1  0
 16 39  1  0
 16 40  1  0
 17 41  1  0
 17 42  1  0
 19 43  1  0
 20 44  1  0
 20 45  1  0
 21 46  1  0
 21 47  1  0
 22 48  1  0
 22 49  1  0
 23 50  1  0
 23 51  1  0
 24 52  1  0
 24 53  1  0
 25 54  1  0
 25 55  1  0
 27 56  1  0
 28 57  1  0
 29 58  1  0
 30 59  1  0
M  END
>  <UniqueID>  (10) 
177

>  <SMILES>  (10) 
O=C(c1cc2cc(F)ccc2[nH]1)N1C[C@@]2(CCN(C3CCCCC3)C2)c2ccccc21

>  <Energy>  (10) 
128.1936475649388

>  <Genealogy>  (10) 
O=C(c1cc2cc(F)ccc2[nH]1)N1C[C@@]2(CCN(C3CCCCC3)C2)c2ccccc21 (3D coordinates assigned)
O=C(c1cc2cc(F)ccc2[nH]1)N1C[C@@]2(CCN(C3CCCCC3)C2)c2ccccc21 (nonaromatic ring conformer: 128.1936475649388 kcal/mol)

>  <smiles>  (10) 
O=C(c1cc2cc(F)ccc2[nH]1)N1C[C@@]2(CCN(C3CCCCC3)C2)c2ccccc21

>  <score_type>  (10) 
oracle

>  <origin>  (10) 
autodockgpu

>  <m_score__min__energy>  (10) 
-8.3499999999999996

>  <m_primary>  (10) 
energy

>  <meeko>  (10) 
{"free_energy": -8.14, "intermolecular_energy": -9.04, "internal_energy": -1.3, "cluster_size": 5, "cluster_id": 3, "rank_in_cluster": 2}

>  <energy>  (10) 
-8.33

>  <cluster_rmsd>  (10) 
0.21

>  <rmsd>  (10) 
272.13

>  <cluster>  (10) 
1

$$$$
VDMKUDNKZWHZNN-SANMLTNENA-N
     RDKit          3D

 59 64  0  0  0  0  0  0  0  0999 V2000
  139.0250   75.7470  219.8380 O   0  0  0  0  0  0  0  0  0  0  0  0
  139.9000   75.6340  220.7400 C   0  0  0  0  0  0  0  0  0  0  0  0
  140.5240   76.8460  221.2960 C   0  0  0  0  0  0  0  0  0  0  0  0
  140.8220   77.0400  222.6430 C   0  0  0  0  0  0  0  0  0  0  0  0
  141.3580   78.3060  222.7100 C   0  0  0  0  0  0  0  0  0  0  0  0
  141.8360   79.0340  223.7990 C   0  0  0  0  0  0  0  0  0  0  0  0
  142.3250   80.3310  223.5590 C   0  0  0  0  0  0  0  0  0  0  0  0
  142.8010   81.0740  224.5880 F   0  0  0  0  0  0  0  0  0  0  0  0
  142.3190   80.8660  222.2500 C   0  0  0  0  0  0  0  0  0  0  0  0
  141.8280   80.1070  221.1720 C   0  0  0  0  0  0  0  0  0  0  0  0
  141.3550   78.8230  221.4410 C   0  0  0  0  0  0  0  0  0  0  0  0
  140.8430   77.9420  220.5660 N   0  0  0  0  0  0  0  0  0  0  0  0
  140.2540   74.3300  221.2280 N   0  0  0  0  0  0  0  0  0  0  0  0
  139.5640   73.6770  222.3430 C   0  0  0  0  0  0  0  0  0  0  0  0
  139.9490   72.1570  222.2700 C   0  0  2  0  0  0  0  0  0  0  0  0
  138.7280   71.2430  222.1610 C   0  0  0  0  0  0  0  0  0  0  0  0
  139.1010   69.9960  222.9380 C   0  0  0  0  0  0  0  0  0  0  0  0
  140.1060   70.3770  223.9430 N   0  0  0  0  0  0  0  0  0  0  0  0
  139.5830   70.3660  225.3360 C   0  0  0  0  0  0  0  0  0  0  0  0
  139.1380   68.9350  225.7590 C   0  0  0  0  0  0  0  0  0  0  0  0
  139.9470   68.3700  226.9350 C   0  0  0  0  0  0  0  0  0  0  0  0
  139.9230   69.3060  228.1550 C   0  0  0  0  0  0  0  0  0  0  0  0
  140.0200   70.8040  227.7950 C   0  0  0  0  0  0  0  0  0  0  0  0
  140.5300   71.0400  226.3700 C   0  0  0  0  0  0  0  0  0  0  0  0
  140.7160   71.6500  223.5100 C   0  0  0  0  0  0  0  0  0  0  0  0
  140.8040   72.0940  221.0300 C   0  0  0  0  0  0  0  0  0  0  0  0
  141.4420   70.9840  220.4630 C   0  0  0  0  0  0  0  0  0  0  0  0
  142.2260   71.1680  219.3140 C   0  0  0  0  0  0  0  0  0  0  0  0
  142.3720   72.4500  218.7550 C   0  0  0  0  0  0  0  0  0  0  0  0
  141.7330   73.5530  219.3420 C   0  0  0  0  0  0  0  0  0  0  0  0
  140.9440   73.3420  220.4790 C   0  0  0  0  0  0  0  0  0  0  0  0
  140.6635   76.3350  223.4724 H   0  0  0  0  0  0  0  0  0  0  0  0
  141.8309   78.6078  224.8131 H   0  0  0  0  0  0  0  0  0  0  0  0
  142.7008   81.8824  222.0735 H   0  0  0  0  0  0  0  0  0  0  0  0
  141.8175   80.5133  220.1498 H   0  0  0  0  0  0  0  0  0  0  0  0
  140.6890   78.0970  219.5440 H   0  0  0  0  0  0  0  0  0  0  0  0
  139.8938   74.1079  223.2998 H   0  0  0  0  0  0  0  0  0  0  0  0
  138.4750   73.8172  222.2764 H   0  0  0  0  0  0  0  0  0  0  0  0
  137.8438   71.7246  222.6040 H   0  0  0  0  0  0  0  0  0  0  0  0
  138.4728   71.0173  221.1151 H   0  0  0  0  0  0  0  0  0  0  0  0
  138.2105   69.5850  223.4362 H   0  0  0  0  0  0  0  0  0  0  0  0
  139.5051   69.2281  222.2619 H   0  0  0  0  0  0  0  0  0  0  0  0
  138.6858   71.0024  225.3358 H   0  0  0  0  0  0  0  0  0  0  0  0
  138.0778   68.9708  226.0499 H   0  0  0  0  0  0  0  0  0  0  0  0
  139.3095   68.2727  224.8977 H   0  0  0  0  0  0  0  0  0  0  0  0
  139.5206   67.3983  227.2248 H   0  0  0  0  0  0  0  0  0  0  0  0
  140.9922   68.2652  226.6084 H   0  0  0  0  0  0  0  0  0  0  0  0
  138.9819   69.1408  228.7000 H   0  0  0  0  0  0  0  0  0  0  0  0
  140.8091   69.0647  228.7605 H   0  0  0  0  0  0  0  0  0  0  0  0
  139.0206   71.2537  227.8896 H   0  0  0  0  0  0  0  0  0  0  0  0
  140.7417   71.2646  228.4857 H   0  0  0  0  0  0  0  0  0  0  0  0
  140.5697   72.1216  226.1738 H   0  0  0  0  0  0  0  0  0  0  0  0
  141.5339   70.6010  226.2732 H   0  0  0  0  0  0  0  0  0  0  0  0
  140.6453   72.3910  224.3199 H   0  0  0  0  0  0  0  0  0  0  0  0
  141.7772   71.4977  223.2635 H   0  0  0  0  0  0  0  0  0  0  0  0
  141.3305   69.9853  220.9105 H   0  0  0  0  0  0  0  0  0  0  0  0
  142.7280   70.3067  218.8490 H   0  0  0  0  0  0  0  0  0  0  0  0
  142.9889   72.5887  217.8549 H   0  0  0  0  0  0  0  0  0  0  0  0
  141.8496   74.5613  218.9180 H   0  0  0  0  0  0  0  0  0  0  0  0
  1  2  2  0
  2  3  1  0
  3  4  2  0
  4  5  1  0
  5  6  2  0
  6  7  1  0
  7  8  1  0
  7  9  2  0
  9 10  1  0
 10 11  2  0
 11 12  1  0
  2 13  1  0
 13 14  1  0
 15 14  1  1
 15 16  1  0
 16 17  1  0
 17 18  1  0
 18 19  1  0
 19 20  1  0
 20 21  1  0
 21 22  1  0
 22 23  1  0
 23 24  1  0
 18 25  1  0
 15 26  1  0
 26 27  2  0
 27 28  1  0
 28 29  2  0
 29 30  1  0
 30 31  2  0
 12  3  1  0
 31 13  1  0
 11  5  1  0
 25 15  1  0
 31 26  1  0
 24 19  1  0
  4 32  1  0
  6 33  1  0
  9 34  1  0
 10 35  1  0
 12 36  1  0
 14 37  1  0
 14 38  1  0
 16 39  1  0
 16 40  1  0
 17 41  1  0
 17 42  1  0
 19 43  1  0
 20 44  1  0
 20 45  1  0
 21 46  1  0
 21 47  1  0
 22 48  1  0
 22 49  1  0
 23 50  1  0
 23 51  1  0
 24 52  1  0
 24 53  1  0
 25 54  1  0
 25 55  1  0
 27 56  1  0
 28 57  1  0
 29 58  1  0
 30 59  1  0
M  END
>  <UniqueID>  (11) 
177

>  <SMILES>  (11) 
O=C(c1cc2cc(F)ccc2[nH]1)N1C[C@@]2(CCN(C3CCCCC3)C2)c2ccccc21

>  <Energy>  (11) 
128.1936475649388

>  <Genealogy>  (11) 
O=C(c1cc2cc(F)ccc2[nH]1)N1C[C@@]2(CCN(C3CCCCC3)C2)c2ccccc21 (3D coordinates assigned)
O=C(c1cc2cc(F)ccc2[nH]1)N1C[C@@]2(CCN(C3CCCCC3)C2)c2ccccc21 (nonaromatic ring conformer: 128.1936475649388 kcal/mol)

>  <smiles>  (11) 
O=C(c1cc2cc(F)ccc2[nH]1)N1C[C@@]2(CCN(C3CCCCC3)C2)c2ccccc21

>  <score_type>  (11) 
oracle

>  <origin>  (11) 
autodockgpu

>  <m_score__min__energy>  (11) 
-8.3499999999999996

>  <m_primary>  (11) 
energy

>  <meeko>  (11) 
{"free_energy": -8.35, "intermolecular_energy": -9.25, "internal_energy": -1.15, "cluster_size": 11, "cluster_id": 1, "rank_in_cluster": 2}

>  <energy>  (11) 
-8.33

>  <cluster_rmsd>  (11) 
0.23

>  <rmsd>  (11) 
272.13

>  <cluster>  (11) 
1

$$$$
VDMKUDNKZWHZNN-SANMLTNENA-N
     RDKit          3D

 59 64  0  0  0  0  0  0  0  0999 V2000
  139.0720   75.6510  219.6950 O   0  0  0  0  0  0  0  0  0  0  0  0
  139.8980   75.5330  220.6400 C   0  0  0  0  0  0  0  0  0  0  0  0
  140.5070   76.7420  221.2200 C   0  0  0  0  0  0  0  0  0  0  0  0
  140.7940   76.9170  222.5730 C   0  0  0  0  0  0  0  0  0  0  0  0
  141.3180   78.1860  222.6650 C   0  0  0  0  0  0  0  0  0  0  0  0
  141.7810   78.9000  223.7680 C   0  0  0  0  0  0  0  0  0  0  0  0
  142.2610   80.2060  223.5530 C   0  0  0  0  0  0  0  0  0  0  0  0
  142.7220   80.9360  224.5980 F   0  0  0  0  0  0  0  0  0  0  0  0
  142.2600   80.7610  222.2530 C   0  0  0  0  0  0  0  0  0  0  0  0
  141.7830   80.0160  221.1590 C   0  0  0  0  0  0  0  0  0  0  0  0
  141.3200   78.7240  221.4040 C   0  0  0  0  0  0  0  0  0  0  0  0
  140.8220   77.8530  220.5110 N   0  0  0  0  0  0  0  0  0  0  0  0
  140.2120   74.2290  221.1530 N   0  0  0  0  0  0  0  0  0  0  0  0
  139.5750   73.6610  222.3440 C   0  0  0  0  0  0  0  0  0  0  0  0
  139.8630   72.1190  222.3040 C   0  0  2  0  0  0  0  0  0  0  0  0
  138.5850   71.2790  222.3280 C   0  0  0  0  0  0  0  0  0  0  0  0
  138.9440   70.0410  223.1250 C   0  0  0  0  0  0  0  0  0  0  0  0
  140.0470   70.3940  224.0320 N   0  0  0  0  0  0  0  0  0  0  0  0
  139.6370   70.4670  225.4610 C   0  0  0  0  0  0  0  0  0  0  0  0
  139.1970   69.0700  225.9910 C   0  0  0  0  0  0  0  0  0  0  0  0
  140.0850   68.5450  227.1270 C   0  0  0  0  0  0  0  0  0  0  0  0
  140.1790   69.5420  228.2950 C   0  0  0  0  0  0  0  0  0  0  0  0
  140.2790   71.0160  227.8510 C   0  0  0  0  0  0  0  0  0  0  0  0
  140.6790   71.1670  226.3800 C   0  0  0  0  0  0  0  0  0  0  0  0
  140.6940   71.6100  223.5010 C   0  0  0  0  0  0  0  0  0  0  0  0
  140.6110   71.9570  221.0060 C   0  0  0  0  0  0  0  0  0  0  0  0
  141.1350   70.7890  220.4370 C   0  0  0  0  0  0  0  0  0  0  0  0
  141.8330   70.8820  219.2240 C   0  0  0  0  0  0  0  0  0  0  0  0
  142.0100   72.1310  218.6030 C   0  0  0  0  0  0  0  0  0  0  0  0
  141.4870   73.2930  219.1920 C   0  0  0  0  0  0  0  0  0  0  0  0
  140.7800   73.1730  220.3940 C   0  0  0  0  0  0  0  0  0  0  0  0
  140.6359   76.1971  223.3895 H   0  0  0  0  0  0  0  0  0  0  0  0
  141.7719   78.4574  224.7750 H   0  0  0  0  0  0  0  0  0  0  0  0
  142.6350   81.7831  222.0955 H   0  0  0  0  0  0  0  0  0  0  0  0
  141.7756   80.4390  220.1436 H   0  0  0  0  0  0  0  0  0  0  0  0
  140.6740   78.0220  219.4910 H   0  0  0  0  0  0  0  0  0  0  0  0
  140.0043   74.1052  223.2541 H   0  0  0  0  0  0  0  0  0  0  0  0
  138.4943   73.8659  222.3557 H   0  0  0  0  0  0  0  0  0  0  0  0
  137.7689   71.8307  222.8175 H   0  0  0  0  0  0  0  0  0  0  0  0
  138.2346   71.0311  221.3152 H   0  0  0  0  0  0  0  0  0  0  0  0
  138.0733   69.7056  223.7076 H   0  0  0  0  0  0  0  0  0  0  0  0
  139.2463   69.2251  222.4519 H   0  0  0  0  0  0  0  0  0  0  0  0
  138.7569   71.1257  225.4996 H   0  0  0  0  0  0  0  0  0  0  0  0
  138.1643   69.1466  226.3620 H   0  0  0  0  0  0  0  0  0  0  0  0
  139.2851   68.3614  225.1543 H   0  0  0  0  0  0  0  0  0  0  0  0
  139.6625   67.6003  227.5000 H   0  0  0  0  0  0  0  0  0  0  0  0
  141.0982   68.3974  226.7248 H   0  0  0  0  0  0  0  0  0  0  0  0
  139.2812   69.4287  228.9204 H   0  0  0  0  0  0  0  0  0  0  0  0
  141.1053   69.3089  228.8405 H   0  0  0  0  0  0  0  0  0  0  0  0
  139.3001   71.4951  228.0000 H   0  0  0  0  0  0  0  0  0  0  0  0
  141.0630   71.4923  228.4580 H   0  0  0  0  0  0  0  0  0  0  0  0
  140.7270   72.2360  226.1252 H   0  0  0  0  0  0  0  0  0  0  0  0
  141.6622   70.6979  226.2272 H   0  0  0  0  0  0  0  0  0  0  0  0
  140.7316   72.3828  224.2829 H   0  0  0  0  0  0  0  0  0  0  0  0
  141.7211   71.3827  223.1795 H   0  0  0  0  0  0  0  0  0  0  0  0
  141.0014   69.8162  220.9328 H   0  0  0  0  0  0  0  0  0  0  0  0
  142.2434   69.9746  218.7569 H   0  0  0  0  0  0  0  0  0  0  0  0
  142.5600   72.1978  217.6527 H   0  0  0  0  0  0  0  0  0  0  0  0
  141.6297   74.2760  218.7194 H   0  0  0  0  0  0  0  0  0  0  0  0
  1  2  2  0
  2  3  1  0
  3  4  2  0
  4  5  1  0
  5  6  2  0
  6  7  1  0
  7  8  1  0
  7  9  2  0
  9 10  1  0
 10 11  2  0
 11 12  1  0
  2 13  1  0
 13 14  1  0
 15 14  1  1
 15 16  1  0
 16 17  1  0
 17 18  1  0
 18 19  1  0
 19 20  1  0
 20 21  1  0
 21 22  1  0
 22 23  1  0
 23 24  1  0
 18 25  1  0
 15 26  1  0
 26 27  2  0
 27 28  1  0
 28 29  2  0
 29 30  1  0
 30 31  2  0
 12  3  1  0
 31 13  1  0
 11  5  1  0
 25 15  1  0
 31 26  1  0
 24 19  1  0
  4 32  1  0
  6 33  1  0
  9 34  1  0
 10 35  1  0
 12 36  1  0
 14 37  1  0
 14 38  1  0
 16 39  1  0
 16 40  1  0
 17 41  1  0
 17 42  1  0
 19 43  1  0
 20 44  1  0
 20 45  1  0
 21 46  1  0
 21 47  1  0
 22 48  1  0
 22 49  1  0
 23 50  1  0
 23 51  1  0
 24 52  1  0
 24 53  1  0
 25 54  1  0
 25 55  1  0
 27 56  1  0
 28 57  1  0
 29 58  1  0
 30 59  1  0
M  END
>  <UniqueID>  (12) 
177

>  <SMILES>  (12) 
O=C(c1cc2cc(F)ccc2[nH]1)N1C[C@@]2(CCN(C3CCCCC3)C2)c2ccccc21

>  <Energy>  (12) 
128.1936475649388

>  <Genealogy>  (12) 
O=C(c1cc2cc(F)ccc2[nH]1)N1C[C@@]2(CCN(C3CCCCC3)C2)c2ccccc21 (3D coordinates assigned)
O=C(c1cc2cc(F)ccc2[nH]1)N1C[C@@]2(CCN(C3CCCCC3)C2)c2ccccc21 (nonaromatic ring conformer: 128.1936475649388 kcal/mol)

>  <smiles>  (12) 
O=C(c1cc2cc(F)ccc2[nH]1)N1C[C@@]2(CCN(C3CCCCC3)C2)c2ccccc21

>  <score_type>  (12) 
oracle

>  <origin>  (12) 
autodockgpu

>  <m_score__min__energy>  (12) 
-8.3499999999999996

>  <m_primary>  (12) 
energy

>  <meeko>  (12) 
{"free_energy": -8.33, "intermolecular_energy": -9.22, "internal_energy": -1.15, "cluster_size": 11, "cluster_id": 1, "rank_in_cluster": 11}

>  <energy>  (12) 
-8.19

>  <cluster_rmsd>  (12) 
0.0

>  <rmsd>  (12) 
272.06

>  <cluster>  (12) 
2

$$$$
VDMKUDNKZWHZNN-SANMLTNENA-N
     RDKit          3D

 59 64  0  0  0  0  0  0  0  0999 V2000
  137.8780   81.8260  221.8400 O   0  0  0  0  0  0  0  0  0  0  0  0
  138.2120   81.2360  222.9040 C   0  0  0  0  0  0  0  0  0  0  0  0
  137.5980   81.6460  224.1780 C   0  0  0  0  0  0  0  0  0  0  0  0
  137.5710   80.8670  225.3340 C   0  0  0  0  0  0  0  0  0  0  0  0
  136.8800   81.6220  226.2550 C   0  0  0  0  0  0  0  0  0  0  0  0
  136.5450   81.3530  227.5810 C   0  0  0  0  0  0  0  0  0  0  0  0
  135.8130   82.3280  228.2850 C   0  0  0  0  0  0  0  0  0  0  0  0
  135.4670   82.1090  229.5770 F   0  0  0  0  0  0  0  0  0  0  0  0
  135.4330   83.5320  227.6490 C   0  0  0  0  0  0  0  0  0  0  0  0
  135.7840   83.7730  226.3080 C   0  0  0  0  0  0  0  0  0  0  0  0
  136.5140   82.7900  225.6390 C   0  0  0  0  0  0  0  0  0  0  0  0
  136.9430   82.8160  224.3670 N   0  0  0  0  0  0  0  0  0  0  0  0
  139.1610   80.1600  222.8530 N   0  0  0  0  0  0  0  0  0  0  0  0
  138.9350   78.9250  222.0970 C   0  0  0  0  0  0  0  0  0  0  0  0
  140.3360   78.2350  221.9510 C   0  0  2  0  0  0  0  0  0  0  0  0
  140.7230   77.9880  220.4910 C   0  0  0  0  0  0  0  0  0  0  0  0
  141.4960   76.6840  220.5060 C   0  0  0  0  0  0  0  0  0  0  0  0
  141.0480   75.9090  221.6730 N   0  0  0  0  0  0  0  0  0  0  0  0
  140.2220   74.7240  221.3130 C   0  0  0  0  0  0  0  0  0  0  0  0
  140.9930   73.3980  221.5850 C   0  0  0  0  0  0  0  0  0  0  0  0
  140.3220   72.5130  222.6450 C   0  0  0  0  0  0  0  0  0  0  0  0
  138.8570   72.2040  222.2960 C   0  0  0  0  0  0  0  0  0  0  0  0
  138.0930   73.4000  221.6880 C   0  0  0  0  0  0  0  0  0  0  0  0
  138.7960   74.7390  221.9340 C   0  0  0  0  0  0  0  0  0  0  0  0
  140.4200   76.8480  222.6230 C   0  0  0  0  0  0  0  0  0  0  0  0
  141.2610   79.2240  222.6120 C   0  0  0  0  0  0  0  0  0  0  0  0
  142.6480   79.1420  222.7900 C   0  0  0  0  0  0  0  0  0  0  0  0
  143.3040   80.1760  223.4740 C   0  0  0  0  0  0  0  0  0  0  0  0
  142.5730   81.2650  223.9800 C   0  0  0  0  0  0  0  0  0  0  0  0
  141.1830   81.3260  223.8020 C   0  0  0  0  0  0  0  0  0  0  0  0
  140.5520   80.2910  223.1020 C   0  0  0  0  0  0  0  0  0  0  0  0
  138.0067   79.8674  225.4787 H   0  0  0  0  0  0  0  0  0  0  0  0
  136.8429   80.4095  228.0618 H   0  0  0  0  0  0  0  0  0  0  0  0
  134.8585   84.2862  228.2068 H   0  0  0  0  0  0  0  0  0  0  0  0
  135.4924   84.7060  225.8035 H   0  0  0  0  0  0  0  0  0  0  0  0
  136.7660   83.5700  223.6660 H   0  0  0  0  0  0  0  0  0  0  0  0
  138.2413   78.2671  222.6410 H   0  0  0  0  0  0  0  0  0  0  0  0
  138.4883   79.1344  221.1138 H   0  0  0  0  0  0  0  0  0  0  0  0
  139.8246   77.8978  219.8627 H   0  0  0  0  0  0  0  0  0  0  0  0
  141.3162   78.8156  220.0748 H   0  0  0  0  0  0  0  0  0  0  0  0
  141.2961   76.1199  219.5831 H   0  0  0  0  0  0  0  0  0  0  0  0
  142.5769   76.8788  220.5662 H   0  0  0  0  0  0  0  0  0  0  0  0
  140.0452   74.7845  220.2290 H   0  0  0  0  0  0  0  0  0  0  0  0
  141.0549   72.8307  220.6446 H   0  0  0  0  0  0  0  0  0  0  0  0
  141.9866   73.6714  221.9697 H   0  0  0  0  0  0  0  0  0  0  0  0
  140.8765   71.5659  222.7192 H   0  0  0  0  0  0  0  0  0  0  0  0
  140.3353   73.0586  223.6001 H   0  0  0  0  0  0  0  0  0  0  0  0
  138.8408   71.3776  221.5702 H   0  0  0  0  0  0  0  0  0  0  0  0
  138.3513   71.9481  223.2388 H   0  0  0  0  0  0  0  0  0  0  0  0
  138.0024   73.2445  220.6028 H   0  0  0  0  0  0  0  0  0  0  0  0
  137.1085   73.4476  222.1763 H   0  0  0  0  0  0  0  0  0  0  0  0
  138.2085   75.5470  221.4735 H   0  0  0  0  0  0  0  0  0  0  0  0
  138.8804   74.9042  223.0183 H   0  0  0  0  0  0  0  0  0  0  0  0
  139.4094   76.4972  222.8793 H   0  0  0  0  0  0  0  0  0  0  0  0
  141.0168   76.9095  223.5450 H   0  0  0  0  0  0  0  0  0  0  0  0
  143.2126   78.2821  222.4003 H   0  0  0  0  0  0  0  0  0  0  0  0
  144.3941   80.1347  223.6150 H   0  0  0  0  0  0  0  0  0  0  0  0
  143.0928   82.0719  224.5173 H   0  0  0  0  0  0  0  0  0  0  0  0
  140.6015   82.1688  224.2038 H   0  0  0  0  0  0  0  0  0  0  0  0
  1  2  2  0
  2  3  1  0
  3  4  2  0
  4  5  1  0
  5  6  2  0
  6  7  1  0
  7  8  1  0
  7  9  2  0
  9 10  1  0
 10 11  2  0
 11 12  1  0
  2 13  1  0
 13 14  1  0
 15 14  1  6
 15 16  1  0
 16 17  1  0
 17 18  1  0
 18 19  1  0
 19 20  1  0
 20 21  1  0
 21 22  1  0
 22 23  1  0
 23 24  1  0
 18 25  1  0
 15 26  1  0
 26 27  2  0
 27 28  1  0
 28 29  2  0
 29 30  1  0
 30 31  2  0
 12  3  1  0
 31 13  1  0
 11  5  1  0
 25 15  1  0
 31 26  1  0
 24 19  1  0
  4 32  1  0
  6 33  1  0
  9 34  1  0
 10 35  1  0
 12 36  1  0
 14 37  1  0
 14 38  1  0
 16 39  1  0
 16 40  1  0
 17 41  1  0
 17 42  1  0
 19 43  1  0
 20 44  1  0
 20 45  1  0
 21 46  1  0
 21 47  1  0
 22 48  1  0
 22 49  1  0
 23 50  1  0
 23 51  1  0
 24 52  1  0
 24 53  1  0
 25 54  1  0
 25 55  1  0
 27 56  1  0
 28 57  1  0
 29 58  1  0
 30 59  1  0
M  END
>  <UniqueID>  (13) 
177

>  <SMILES>  (13) 
O=C(c1cc2cc(F)ccc2[nH]1)N1C[C@@]2(CCN(C3CCCCC3)C2)c2ccccc21

>  <Energy>  (13) 
128.1936475649388

>  <Genealogy>  (13) 
O=C(c1cc2cc(F)ccc2[nH]1)N1C[C@@]2(CCN(C3CCCCC3)C2)c2ccccc21 (3D coordinates assigned)
O=C(c1cc2cc(F)ccc2[nH]1)N1C[C@@]2(CCN(C3CCCCC3)C2)c2ccccc21 (nonaromatic ring conformer: 128.1936475649388 kcal/mol)

>  <smiles>  (13) 
O=C(c1cc2cc(F)ccc2[nH]1)N1C[C@@]2(CCN(C3CCCCC3)C2)c2ccccc21

>  <score_type>  (13) 
oracle

>  <origin>  (13) 
autodockgpu

>  <m_score__min__energy>  (13) 
-8.3499999999999996

>  <m_primary>  (13) 
energy

>  <meeko>  (13) 
{"free_energy": -8.14, "intermolecular_energy": -9.04, "internal_energy": -1.3, "cluster_size": 5, "cluster_id": 3, "rank_in_cluster": 4}

>  <energy>  (13) 
-8.18

>  <cluster_rmsd>  (13) 
0.17

>  <rmsd>  (13) 
272.1

>  <cluster>  (13) 
2

$$$$
VDMKUDNKZWHZNN-SANMLTNENA-N
     RDKit          3D

 59 64  0  0  0  0  0  0  0  0999 V2000
  139.0130   75.7340  219.8610 O   0  0  0  0  0  0  0  0  0  0  0  0
  139.8930   75.6210  220.7580 C   0  0  0  0  0  0  0  0  0  0  0  0
  140.5190   76.8350  221.3110 C   0  0  0  0  0  0  0  0  0  0  0  0
  140.8170   77.0320  222.6570 C   0  0  0  0  0  0  0  0  0  0  0  0
  141.3550   78.2970  222.7210 C   0  0  0  0  0  0  0  0  0  0  0  0
  141.8330   79.0270  223.8080 C   0  0  0  0  0  0  0  0  0  0  0  0
  142.3250   80.3230  223.5650 C   0  0  0  0  0  0  0  0  0  0  0  0
  142.8010   81.0680  224.5930 F   0  0  0  0  0  0  0  0  0  0  0  0
  142.3200   80.8540  222.2550 C   0  0  0  0  0  0  0  0  0  0  0  0
  141.8280   80.0930  221.1780 C   0  0  0  0  0  0  0  0  0  0  0  0
  141.3530   78.8110  221.4510 C   0  0  0  0  0  0  0  0  0  0  0  0
  140.8400   77.9280  220.5780 N   0  0  0  0  0  0  0  0  0  0  0  0
  140.2520   74.3180  221.2430 N   0  0  0  0  0  0  0  0  0  0  0  0
  139.5560   73.6550  222.3490 C   0  0  0  0  0  0  0  0  0  0  0  0
  139.9520   72.1390  222.2730 C   0  0  2  0  0  0  0  0  0  0  0  0
  138.7380   71.2170  222.1510 C   0  0  0  0  0  0  0  0  0  0  0  0
  139.1130   69.9690  222.9260 C   0  0  0  0  0  0  0  0  0  0  0  0
  140.1080   70.3520  223.9400 N   0  0  0  0  0  0  0  0  0  0  0  0
  139.5730   70.3320  225.3290 C   0  0  0  0  0  0  0  0  0  0  0  0
  139.1410   68.8950  225.7450 C   0  0  0  0  0  0  0  0  0  0  0  0
  139.9470   68.3360  226.9260 C   0  0  0  0  0  0  0  0  0  0  0  0
  139.9020   69.2690  228.1470 C   0  0  0  0  0  0  0  0  0  0  0  0
  139.9850   70.7690  227.7920 C   0  0  0  0  0  0  0  0  0  0  0  0
  140.5050   71.0140  226.3720 C   0  0  0  0  0  0  0  0  0  0  0  0
  140.7120   71.6310  223.5170 C   0  0  0  0  0  0  0  0  0  0  0  0
  140.8180   72.0860  221.0410 C   0  0  0  0  0  0  0  0  0  0  0  0
  141.4680   70.9830  220.4740 C   0  0  0  0  0  0  0  0  0  0  0  0
  142.2590   71.1780  219.3320 C   0  0  0  0  0  0  0  0  0  0  0  0
  142.4010   72.4630  218.7800 C   0  0  0  0  0  0  0  0  0  0  0  0
  141.7510   73.5590  219.3660 C   0  0  0  0  0  0  0  0  0  0  0  0
  140.9540   73.3380  220.4960 C   0  0  0  0  0  0  0  0  0  0  0  0
  140.6571   76.3294  223.4881 H   0  0  0  0  0  0  0  0  0  0  0  0
  141.8259   78.6037  224.8233 H   0  0  0  0  0  0  0  0  0  0  0  0
  142.7034   81.8693  222.0760 H   0  0  0  0  0  0  0  0  0  0  0  0
  141.8186   80.4965  220.1547 H   0  0  0  0  0  0  0  0  0  0  0  0
  140.6860   78.0800  219.5560 H   0  0  0  0  0  0  0  0  0  0  0  0
  139.8739   74.0839  223.3108 H   0  0  0  0  0  0  0  0  0  0  0  0
  138.4667   73.7879  222.2728 H   0  0  0  0  0  0  0  0  0  0  0  0
  137.8472   71.6909  222.5890 H   0  0  0  0  0  0  0  0  0  0  0  0
  138.4927   70.9937  221.1022 H   0  0  0  0  0  0  0  0  0  0  0  0
  138.2214   69.5505  223.4158 H   0  0  0  0  0  0  0  0  0  0  0  0
  139.5270   69.2064  222.2499 H   0  0  0  0  0  0  0  0  0  0  0  0
  138.6685   70.9579  225.3233 H   0  0  0  0  0  0  0  0  0  0  0  0
  138.0782   68.9181  226.0276 H   0  0  0  0  0  0  0  0  0  0  0  0
  139.3269   68.2369  224.8834 H   0  0  0  0  0  0  0  0  0  0  0  0
  139.5294   67.3588  227.2101 H   0  0  0  0  0  0  0  0  0  0  0  0
  140.9959   68.2431  226.6079 H   0  0  0  0  0  0  0  0  0  0  0  0
  138.9582   69.0919  228.6835 H   0  0  0  0  0  0  0  0  0  0  0  0
  140.7860   69.0365  228.7590 H   0  0  0  0  0  0  0  0  0  0  0  0
  138.9797   71.2071  227.8788 H   0  0  0  0  0  0  0  0  0  0  0  0
  140.6949   71.2363  228.4904 H   0  0  0  0  0  0  0  0  0  0  0  0
  140.5350   72.0964  226.1785 H   0  0  0  0  0  0  0  0  0  0  0  0
  141.5146   70.5865  226.2825 H   0  0  0  0  0  0  0  0  0  0  0  0
  140.6296   72.3678  224.3296 H   0  0  0  0  0  0  0  0  0  0  0  0
  141.7759   71.4865  223.2779 H   0  0  0  0  0  0  0  0  0  0  0  0
  141.3603   69.9815  220.9161 H   0  0  0  0  0  0  0  0  0  0  0  0
  142.7700   70.3222  218.8667 H   0  0  0  0  0  0  0  0  0  0  0  0
  143.0241   72.6094  217.8854 H   0  0  0  0  0  0  0  0  0  0  0  0
  141.8648   74.5698  218.9472 H   0  0  0  0  0  0  0  0  0  0  0  0
  1  2  2  0
  2  3  1  0
  3  4  2  0
  4  5  1  0
  5  6  2  0
  6  7  1  0
  7  8  1  0
  7  9  2  0
  9 10  1  0
 10 11  2  0
 11 12  1  0
  2 13  1  0
 13 14  1  0
 15 14  1  1
 15 16  1  0
 16 17  1  0
 17 18  1  0
 18 19  1  0
 19 20  1  0
 20 21  1  0
 21 22  1  0
 22 23  1  0
 23 24  1  0
 18 25  1  0
 15 26  1  0
 26 27  2  0
 27 28  1  0
 28 29  2  0
 29 30  1  0
 30 31  2  0
 12  3  1  0
 31 13  1  0
 11  5  1  0
 25 15  1  0
 31 26  1  0
 24 19  1  0
  4 32  1  0
  6 33  1  0
  9 34  1  0
 10 35  1  0
 12 36  1  0
 14 37  1  0
 14 38  1  0
 16 39  1  0
 16 40  1  0
 17 41  1  0
 17 42  1  0
 19 43  1  0
 20 44  1  0
 20 45  1  0
 21 46  1  0
 21 47  1  0
 22 48  1  0
 22 49  1  0
 23 50  1  0
 23 51  1  0
 24 52  1  0
 24 53  1  0
 25 54  1  0
 25 55  1  0
 27 56  1  0
 28 57  1  0
 29 58  1  0
 30 59  1  0
M  END
>  <UniqueID>  (14) 
177

>  <SMILES>  (14) 
O=C(c1cc2cc(F)ccc2[nH]1)N1C[C@@]2(CCN(C3CCCCC3)C2)c2ccccc21

>  <Energy>  (14) 
128.1936475649388

>  <Genealogy>  (14) 
O=C(c1cc2cc(F)ccc2[nH]1)N1C[C@@]2(CCN(C3CCCCC3)C2)c2ccccc21 (3D coordinates assigned)
O=C(c1cc2cc(F)ccc2[nH]1)N1C[C@@]2(CCN(C3CCCCC3)C2)c2ccccc21 (nonaromatic ring conformer: 128.1936475649388 kcal/mol)

>  <smiles>  (14) 
O=C(c1cc2cc(F)ccc2[nH]1)N1C[C@@]2(CCN(C3CCCCC3)C2)c2ccccc21

>  <score_type>  (14) 
oracle

>  <origin>  (14) 
autodockgpu

>  <m_score__min__energy>  (14) 
-8.3499999999999996

>  <m_primary>  (14) 
energy

>  <meeko>  (14) 
{"free_energy": -8.35, "intermolecular_energy": -9.24, "internal_energy": -1.15, "cluster_size": 11, "cluster_id": 1, "rank_in_cluster": 4}

>  <energy>  (14) 
-8.14

>  <cluster_rmsd>  (14) 
0.15

>  <rmsd>  (14) 
272.11

>  <cluster>  (14) 
2

$$$$
VDMKUDNKZWHZNN-SANMLTNENA-N
     RDKit          3D

 59 64  0  0  0  0  0  0  0  0999 V2000
  139.0800   75.6240  219.7060 O   0  0  0  0  0  0  0  0  0  0  0  0
  139.9140   75.5110  220.6450 C   0  0  0  0  0  0  0  0  0  0  0  0
  140.5250   76.7230  221.2160 C   0  0  0  0  0  0  0  0  0  0  0  0
  140.8080   76.9080  222.5680 C   0  0  0  0  0  0  0  0  0  0  0  0
  141.3360   78.1770  222.6500 C   0  0  0  0  0  0  0  0  0  0  0  0
  141.7980   78.8990  223.7490 C   0  0  0  0  0  0  0  0  0  0  0  0
  142.2820   80.2020  223.5240 C   0  0  0  0  0  0  0  0  0  0  0  0
  142.7420   80.9390  224.5640 F   0  0  0  0  0  0  0  0  0  0  0  0
  142.2860   80.7460  222.2190 C   0  0  0  0  0  0  0  0  0  0  0  0
  141.8100   79.9930  221.1300 C   0  0  0  0  0  0  0  0  0  0  0  0
  141.3420   78.7040  221.3850 C   0  0  0  0  0  0  0  0  0  0  0  0
  140.8450   77.8270  220.4980 N   0  0  0  0  0  0  0  0  0  0  0  0
  140.2350   74.2090  221.1590 N   0  0  0  0  0  0  0  0  0  0  0  0
  139.5920   73.6340  222.3430 C   0  0  0  0  0  0  0  0  0  0  0  0
  139.8940   72.0940  222.3050 C   0  0  2  0  0  0  0  0  0  0  0  0
  138.6230   71.2430  222.3150 C   0  0  0  0  0  0  0  0  0  0  0  0
  138.9860   70.0070  223.1140 C   0  0  0  0  0  0  0  0  0  0  0  0
  140.0770   70.3700  224.0320 N   0  0  0  0  0  0  0  0  0  0  0  0
  139.6520   70.4370  225.4570 C   0  0  0  0  0  0  0  0  0  0  0  0
  139.1990   69.0400  225.9760 C   0  0  0  0  0  0  0  0  0  0  0  0
  140.0720   68.5040  227.1180 C   0  0  0  0  0  0  0  0  0  0  0  0
  140.1590   69.4940  228.2920 C   0  0  0  0  0  0  0  0  0  0  0  0
  140.2710   70.9700  227.8570 C   0  0  0  0  0  0  0  0  0  0  0  0
  140.6880   71.1270  226.3910 C   0  0  0  0  0  0  0  0  0  0  0  0
  140.7180   71.5920  223.5090 C   0  0  0  0  0  0  0  0  0  0  0  0
  140.6560   71.9410  221.0130 C   0  0  0  0  0  0  0  0  0  0  0  0
  141.1960   70.7790  220.4490 C   0  0  0  0  0  0  0  0  0  0  0  0
  141.9060   70.8800  219.2430 C   0  0  0  0  0  0  0  0  0  0  0  0
  142.0770   72.1310  218.6250 C   0  0  0  0  0  0  0  0  0  0  0  0
  141.5370   73.2870  219.2100 C   0  0  0  0  0  0  0  0  0  0  0  0
  140.8200   73.1590  220.4050 C   0  0  0  0  0  0  0  0  0  0  0  0
  140.6451   76.1957  223.3902 H   0  0  0  0  0  0  0  0  0  0  0  0
  141.7850   78.4649  224.7596 H   0  0  0  0  0  0  0  0  0  0  0  0
  142.6641   81.7657  222.0538 H   0  0  0  0  0  0  0  0  0  0  0  0
  141.8070   80.4072  220.1110 H   0  0  0  0  0  0  0  0  0  0  0  0
  140.7000   77.9880  219.4760 H   0  0  0  0  0  0  0  0  0  0  0  0
  140.0086   74.0813  223.2576 H   0  0  0  0  0  0  0  0  0  0  0  0
  138.5094   73.8290  222.3441 H   0  0  0  0  0  0  0  0  0  0  0  0
  137.7973   71.7867  222.7973 H   0  0  0  0  0  0  0  0  0  0  0  0
  138.2841   70.9937  221.2986 H   0  0  0  0  0  0  0  0  0  0  0  0
  138.1130   69.6625  223.6878 H   0  0  0  0  0  0  0  0  0  0  0  0
  139.3022   69.1947  222.4431 H   0  0  0  0  0  0  0  0  0  0  0  0
  138.7744   71.0994  225.4888 H   0  0  0  0  0  0  0  0  0  0  0  0
  138.1631   69.1208  226.3370 H   0  0  0  0  0  0  0  0  0  0  0  0
  139.2920   68.3351  225.1367 H   0  0  0  0  0  0  0  0  0  0  0  0
  139.6405   67.5596  227.4813 H   0  0  0  0  0  0  0  0  0  0  0  0
  141.0885   68.3529  226.7257 H   0  0  0  0  0  0  0  0  0  0  0  0
  139.2543   69.3819  228.9076 H   0  0  0  0  0  0  0  0  0  0  0  0
  141.0785   69.2533  228.8457 H   0  0  0  0  0  0  0  0  0  0  0  0
  139.2928   71.4531  227.9978 H   0  0  0  0  0  0  0  0  0  0  0  0
  141.0506   71.4392  228.4751 H   0  0  0  0  0  0  0  0  0  0  0  0
  140.7442   72.1971  226.1425 H   0  0  0  0  0  0  0  0  0  0  0  0
  141.6705   70.6540  226.2462 H   0  0  0  0  0  0  0  0  0  0  0  0
  140.7409   72.3643  224.2920 H   0  0  0  0  0  0  0  0  0  0  0  0
  141.7504   71.3748  223.1976 H   0  0  0  0  0  0  0  0  0  0  0  0
  141.0660   69.8045  220.9424 H   0  0  0  0  0  0  0  0  0  0  0  0
  142.3303   69.9771  218.7795 H   0  0  0  0  0  0  0  0  0  0  0  0
  142.6356   72.2042  217.6802 H   0  0  0  0  0  0  0  0  0  0  0  0
  141.6744   74.2718  218.7396 H   0  0  0  0  0  0  0  0  0  0  0  0
  1  2  2  0
  2  3  1  0
  3  4  2  0
  4  5  1  0
  5  6  2  0
  6  7  1  0
  7  8  1  0
  7  9  2  0
  9 10  1  0
 10 11  2  0
 11 12  1  0
  2 13  1  0
 13 14  1  0
 15 14  1  1
 15 16  1  0
 16 17  1  0
 17 18  1  0
 18 19  1  0
 19 20  1  0
 20 21  1  0
 21 22  1  0
 22 23  1  0
 23 24  1  0
 18 25  1  0
 15 26  1  0
 26 27  2  0
 27 28  1  0
 28 29  2  0
 29 30  1  0
 30 31  2  0
 12  3  1  0
 31 13  1  0
 11  5  1  0
 25 15  1  0
 31 26  1  0
 24 19  1  0
  4 32  1  0
  6 33  1  0
  9 34  1  0
 10 35  1  0
 12 36  1  0
 14 37  1  0
 14 38  1  0
 16 39  1  0
 16 40  1  0
 17 41  1  0
 17 42  1  0
 19 43  1  0
 20 44  1  0
 20 45  1  0
 21 46  1  0
 21 47  1  0
 22 48  1  0
 22 49  1  0
 23 50  1  0
 23 51  1  0
 24 52  1  0
 24 53  1  0
 25 54  1  0
 25 55  1  0
 27 56  1  0
 28 57  1  0
 29 58  1  0
 30 59  1  0
M  END
>  <UniqueID>  (15) 
177

>  <SMILES>  (15) 
O=C(c1cc2cc(F)ccc2[nH]1)N1C[C@@]2(CCN(C3CCCCC3)C2)c2ccccc21

>  <Energy>  (15) 
128.1936475649388

>  <Genealogy>  (15) 
O=C(c1cc2cc(F)ccc2[nH]1)N1C[C@@]2(CCN(C3CCCCC3)C2)c2ccccc21 (3D coordinates assigned)
O=C(c1cc2cc(F)ccc2[nH]1)N1C[C@@]2(CCN(C3CCCCC3)C2)c2ccccc21 (nonaromatic ring conformer: 128.1936475649388 kcal/mol)

>  <smiles>  (15) 
O=C(c1cc2cc(F)ccc2[nH]1)N1C[C@@]2(CCN(C3CCCCC3)C2)c2ccccc21

>  <score_type>  (15) 
oracle

>  <origin>  (15) 
autodockgpu

>  <m_score__min__energy>  (15) 
-8.3499999999999996

>  <m_primary>  (15) 
energy

>  <meeko>  (15) 
{"free_energy": -8.33, "intermolecular_energy": -9.23, "internal_energy": -1.15, "cluster_size": 11, "cluster_id": 1, "rank_in_cluster": 10}

>  <energy>  (15) 
-8.14

>  <cluster_rmsd>  (15) 
0.0

>  <rmsd>  (15) 
273.64

>  <cluster>  (15) 
3

$$$$
VDMKUDNKZWHZNN-SANMLTNENA-N
     RDKit          3D

 59 64  0  0  0  0  0  0  0  0999 V2000
  140.0110   74.2800  221.9410 O   0  0  0  0  0  0  0  0  0  0  0  0
  140.9550   74.8850  221.3620 C   0  0  0  0  0  0  0  0  0  0  0  0
  142.1400   74.1240  220.9300 C   0  0  0  0  0  0  0  0  0  0  0  0
  142.1400   72.7690  220.6060 C   0  0  0  0  0  0  0  0  0  0  0  0
  143.4490   72.4780  220.2940 C   0  0  0  0  0  0  0  0  0  0  0  0
  144.0430   71.2810  219.8970 C   0  0  0  0  0  0  0  0  0  0  0  0
  145.4290   71.2860  219.6500 C   0  0  0  0  0  0  0  0  0  0  0  0
  146.0480   70.1440  219.2610 F   0  0  0  0  0  0  0  0  0  0  0  0
  146.1790   72.4730  219.8110 C   0  0  0  0  0  0  0  0  0  0  0  0
  145.5500   73.6650  220.2150 C   0  0  0  0  0  0  0  0  0  0  0  0
  144.1750   73.6300  220.4460 C   0  0  0  0  0  0  0  0  0  0  0  0
  143.3880   74.6440  220.8400 N   0  0  0  0  0  0  0  0  0  0  0  0
  140.8490   76.2940  221.1100 N   0  0  0  0  0  0  0  0  0  0  0  0
  140.4890   77.2690  222.1420 C   0  0  0  0  0  0  0  0  0  0  0  0
  140.9010   78.6760  221.5840 C   0  0  2  0  0  0  0  0  0  0  0  0
  141.8750   79.4150  222.5040 C   0  0  0  0  0  0  0  0  0  0  0  0
  141.5050   80.8790  222.3710 C   0  0  0  0  0  0  0  0  0  0  0  0
  140.0880   80.9510  221.9800 N   0  0  0  0  0  0  0  0  0  0  0  0
  139.1990   81.4410  223.0690 C   0  0  0  0  0  0  0  0  0  0  0  0
  137.9890   82.2340  222.4930 C   0  0  0  0  0  0  0  0  0  0  0  0
  136.6340   81.5820  222.8010 C   0  0  0  0  0  0  0  0  0  0  0  0
  136.4360   81.3470  224.3080 C   0  0  0  0  0  0  0  0  0  0  0  0
  137.7090   80.8720  225.0390 C   0  0  0  0  0  0  0  0  0  0  0  0
  138.7790   80.3380  224.0820 C   0  0  0  0  0  0  0  0  0  0  0  0
  139.7150   79.6460  221.4010 C   0  0  0  0  0  0  0  0  0  0  0  0
  141.5380   78.3310  220.2620 C   0  0  0  0  0  0  0  0  0  0  0  0
  142.0930   79.1920  219.3070 C   0  0  0  0  0  0  0  0  0  0  0  0
  142.6030   78.6460  218.1190 C   0  0  0  0  0  0  0  0  0  0  0  0
  142.5430   77.2590  217.8950 C   0  0  0  0  0  0  0  0  0  0  0  0
  141.9740   76.4130  218.8580 C   0  0  0  0  0  0  0  0  0  0  0  0
  141.4860   76.9790  220.0420 C   0  0  0  0  0  0  0  0  0  0  0  0
  141.2813   72.0815  220.6006 H   0  0  0  0  0  0  0  0  0  0  0  0
  143.4484   70.3629  219.7806 H   0  0  0  0  0  0  0  0  0  0  0  0
  147.2621   72.4649  219.6191 H   0  0  0  0  0  0  0  0  0  0  0  0
  146.1241   74.5943  220.3444 H   0  0  0  0  0  0  0  0  0  0  0  0
  143.6930   75.6170  221.0670 H   0  0  0  0  0  0  0  0  0  0  0  0
  139.4063   77.2378  222.3339 H   0  0  0  0  0  0  0  0  0  0  0  0
  140.9992   77.0514  223.0919 H   0  0  0  0  0  0  0  0  0  0  0  0
  141.7549   79.0787  223.5444 H   0  0  0  0  0  0  0  0  0  0  0  0
  142.9241   79.2273  222.2318 H   0  0  0  0  0  0  0  0  0  0  0  0
  141.6543   81.3916  223.3327 H   0  0  0  0  0  0  0  0  0  0  0  0
  142.1375   81.3681  221.6155 H   0  0  0  0  0  0  0  0  0  0  0  0
  139.7970   82.1442  223.6673 H   0  0  0  0  0  0  0  0  0  0  0  0
  137.9963   83.2452  222.9258 H   0  0  0  0  0  0  0  0  0  0  0  0
  138.1014   82.2507  221.3989 H   0  0  0  0  0  0  0  0  0  0  0  0
  135.8321   82.2405  222.4360 H   0  0  0  0  0  0  0  0  0  0  0  0
  136.6059   80.6039  222.2984 H   0  0  0  0  0  0  0  0  0  0  0  0
  136.1059   82.2914  224.7654 H   0  0  0  0  0  0  0  0  0  0  0  0
  135.6905   80.5448  224.4109 H   0  0  0  0  0  0  0  0  0  0  0  0
  138.1300   81.7202  225.5988 H   0  0  0  0  0  0  0  0  0  0  0  0
  137.4193   80.0464  225.7057 H   0  0  0  0  0  0  0  0  0  0  0  0
  139.6595   80.0238  224.6616 H   0  0  0  0  0  0  0  0  0  0  0  0
  138.3668   79.4822  223.5273 H   0  0  0  0  0  0  0  0  0  0  0  0
  138.8281   79.2502  221.9174 H   0  0  0  0  0  0  0  0  0  0  0  0
  139.4805   79.7595  220.3323 H   0  0  0  0  0  0  0  0  0  0  0  0
  142.1286   80.2769  219.4849 H   0  0  0  0  0  0  0  0  0  0  0  0
  143.0510   79.3050  217.3607 H   0  0  0  0  0  0  0  0  0  0  0  0
  142.9435   76.8364  216.9617 H   0  0  0  0  0  0  0  0  0  0  0  0
  141.9124   75.3282  218.6868 H   0  0  0  0  0  0  0  0  0  0  0  0
  1  2  2  0
  2  3  1  0
  3  4  2  0
  4  5  1  0
  5  6  2  0
  6  7  1  0
  7  8  1  0
  7  9  2  0
  9 10  1  0
 10 11  2  0
 11 12  1  0
  2 13  1  0
 13 14  1  0
 15 14  1  1
 15 16  1  0
 16 17  1  0
 17 18  1  0
 18 19  1  0
 19 20  1  0
 20 21  1  0
 21 22  1  0
 22 23  1  0
 23 24  1  0
 18 25  1  0
 15 26  1  0
 26 27  2  0
 27 28  1  0
 28 29  2  0
 29 30  1  0
 30 31  2  0
 12  3  1  0
 31 13  1  0
 11  5  1  0
 25 15  1  0
 31 26  1  0
 24 19  1  0
  4 32  1  0
  6 33  1  0
  9 34  1  0
 10 35  1  0
 12 36  1  0
 14 37  1  0
 14 38  1  0
 16 39  1  0
 16 40  1  0
 17 41  1  0
 17 42  1  0
 19 43  1  0
 20 44  1  0
 20 45  1  0
 21 46  1  0
 21 47  1  0
 22 48  1  0
 22 49  1  0
 23 50  1  0
 23 51  1  0
 24 52  1  0
 24 53  1  0
 25 54  1  0
 25 55  1  0
 27 56  1  0
 28 57  1  0
 29 58  1  0
 30 59  1  0
M  END
>  <UniqueID>  (16) 
177

>  <SMILES>  (16) 
O=C(c1cc2cc(F)ccc2[nH]1)N1C[C@@]2(CCN(C3CCCCC3)C2)c2ccccc21

>  <Energy>  (16) 
128.1936475649388

>  <Genealogy>  (16) 
O=C(c1cc2cc(F)ccc2[nH]1)N1C[C@@]2(CCN(C3CCCCC3)C2)c2ccccc21 (3D coordinates assigned)
O=C(c1cc2cc(F)ccc2[nH]1)N1C[C@@]2(CCN(C3CCCCC3)C2)c2ccccc21 (nonaromatic ring conformer: 128.1936475649388 kcal/mol)

>  <smiles>  (16) 
O=C(c1cc2cc(F)ccc2[nH]1)N1C[C@@]2(CCN(C3CCCCC3)C2)c2ccccc21

>  <score_type>  (16) 
oracle

>  <origin>  (16) 
autodockgpu

>  <m_score__min__energy>  (16) 
-8.3499999999999996

>  <m_primary>  (16) 
energy

>  <meeko>  (16) 
{"free_energy": -8.14, "intermolecular_energy": -9.03, "internal_energy": -1.29, "cluster_size": 3, "cluster_id": 2, "rank_in_cluster": 3}

>  <energy>  (16) 
-8.14

>  <cluster_rmsd>  (16) 
0.04

>  <rmsd>  (16) 
273.67

>  <cluster>  (16) 
3

$$$$
VDMKUDNKZWHZNN-SANMLTNENA-N
     RDKit          3D

 59 64  0  0  0  0  0  0  0  0999 V2000
  137.8890   81.8260  221.8370 O   0  0  0  0  0  0  0  0  0  0  0  0
  138.2210   81.2350  222.9010 C   0  0  0  0  0  0  0  0  0  0  0  0
  137.6060   81.6430  224.1750 C   0  0  0  0  0  0  0  0  0  0  0  0
  137.5860   80.8680  225.3320 C   0  0  0  0  0  0  0  0  0  0  0  0
  136.8910   81.6190  226.2530 C   0  0  0  0  0  0  0  0  0  0  0  0
  136.5590   81.3520  227.5790 C   0  0  0  0  0  0  0  0  0  0  0  0
  135.8210   82.3230  228.2820 C   0  0  0  0  0  0  0  0  0  0  0  0
  135.4780   82.1050  229.5750 F   0  0  0  0  0  0  0  0  0  0  0  0
  135.4310   83.5230  227.6430 C   0  0  0  0  0  0  0  0  0  0  0  0
  135.7790   83.7620  226.3010 C   0  0  0  0  0  0  0  0  0  0  0  0
  136.5160   82.7840  225.6340 C   0  0  0  0  0  0  0  0  0  0  0  0
  136.9430   82.8090  224.3620 N   0  0  0  0  0  0  0  0  0  0  0  0
  139.1700   80.1580  222.8500 N   0  0  0  0  0  0  0  0  0  0  0  0
  138.9390   78.9210  222.1000 C   0  0  0  0  0  0  0  0  0  0  0  0
  140.3400   78.2290  221.9500 C   0  0  2  0  0  0  0  0  0  0  0  0
  140.7200   77.9770  220.4890 C   0  0  0  0  0  0  0  0  0  0  0  0
  141.4930   76.6730  220.5060 C   0  0  0  0  0  0  0  0  0  0  0  0
  141.0490   75.9020  221.6780 N   0  0  0  0  0  0  0  0  0  0  0  0
  140.2210   74.7150  221.3260 C   0  0  0  0  0  0  0  0  0  0  0  0
  140.9950   73.3910  221.5920 C   0  0  0  0  0  0  0  0  0  0  0  0
  140.3350   72.5050  222.6580 C   0  0  0  0  0  0  0  0  0  0  0  0
  138.8670   72.1950  222.3220 C   0  0  0  0  0  0  0  0  0  0  0  0
  138.0970   73.3900  221.7210 C   0  0  0  0  0  0  0  0  0  0  0  0
  138.8010   74.7300  221.9600 C   0  0  0  0  0  0  0  0  0  0  0  0
  140.4260   76.8450  222.6270 C   0  0  0  0  0  0  0  0  0  0  0  0
  141.2680   79.2200  222.6030 C   0  0  0  0  0  0  0  0  0  0  0  0
  142.6550   79.1380  222.7750 C   0  0  0  0  0  0  0  0  0  0  0  0
  143.3150   80.1750  223.4530 C   0  0  0  0  0  0  0  0  0  0  0  0
  142.5870   81.2660  223.9580 C   0  0  0  0  0  0  0  0  0  0  0  0
  141.1960   81.3270  223.7850 C   0  0  0  0  0  0  0  0  0  0  0  0
  140.5620   80.2890  223.0920 C   0  0  0  0  0  0  0  0  0  0  0  0
  138.0293   79.8720  225.4782 H   0  0  0  0  0  0  0  0  0  0  0  0
  136.8639   80.4118  228.0618 H   0  0  0  0  0  0  0  0  0  0  0  0
  134.8516   84.2746  228.1992 H   0  0  0  0  0  0  0  0  0  0  0  0
  135.4792   84.6910  225.7939 H   0  0  0  0  0  0  0  0  0  0  0  0
  136.7590   83.5600  223.6580 H   0  0  0  0  0  0  0  0  0  0  0  0
  138.2474   78.2657  222.6498 H   0  0  0  0  0  0  0  0  0  0  0  0
  138.4874   79.1269  221.1183 H   0  0  0  0  0  0  0  0  0  0  0  0
  139.8187   77.8845  219.8652 H   0  0  0  0  0  0  0  0  0  0  0  0
  141.3109   78.8030  220.0666 H   0  0  0  0  0  0  0  0  0  0  0  0
  141.2897   76.1055  219.5859 H   0  0  0  0  0  0  0  0  0  0  0  0
  142.5741   76.8680  220.5615 H   0  0  0  0  0  0  0  0  0  0  0  0
  140.0349   74.7735  220.2434 H   0  0  0  0  0  0  0  0  0  0  0  0
  141.0494   72.8235  220.6513 H   0  0  0  0  0  0  0  0  0  0  0  0
  141.9912   73.6662  221.9685 H   0  0  0  0  0  0  0  0  0  0  0  0
  140.8910   71.5583  222.7267 H   0  0  0  0  0  0  0  0  0  0  0  0
  140.3568   73.0499  223.6133 H   0  0  0  0  0  0  0  0  0  0  0  0
  138.8449   71.3685  221.5964 H   0  0  0  0  0  0  0  0  0  0  0  0
  138.3700   71.9389  223.2693 H   0  0  0  0  0  0  0  0  0  0  0  0
  137.9966   73.2341  220.6367 H   0  0  0  0  0  0  0  0  0  0  0  0
  137.1171   73.4370  222.2186 H   0  0  0  0  0  0  0  0  0  0  0  0
  138.2088   75.5373  221.5044 H   0  0  0  0  0  0  0  0  0  0  0  0
  138.8948   74.8964  223.0433 H   0  0  0  0  0  0  0  0  0  0  0  0
  139.4163   76.4960  222.8892 H   0  0  0  0  0  0  0  0  0  0  0  0
  141.0269   76.9097  223.5461 H   0  0  0  0  0  0  0  0  0  0  0  0
  143.2175   78.2765  222.3859 H   0  0  0  0  0  0  0  0  0  0  0  0
  144.4057   80.1335  223.5895 H   0  0  0  0  0  0  0  0  0  0  0  0
  143.1093   82.0745  224.4905 H   0  0  0  0  0  0  0  0  0  0  0  0
  140.6164   82.1719  224.1851 H   0  0  0  0  0  0  0  0  0  0  0  0
  1  2  2  0
  2  3  1  0
  3  4  2  0
  4  5  1  0
  5  6  2  0
  6  7  1  0
  7  8  1  0
  7  9  2  0
  9 10  1  0
 10 11  2  0
 11 12  1  0
  2 13  1  0
 13 14  1  0
 15 14  1  6
 15 16  1  0
 16 17  1  0
 17 18  1  0
 18 19  1  0
 19 20  1  0
 20 21  1  0
 21 22  1  0
 22 23  1  0
 23 24  1  0
 18 25  1  0
 15 26  1  0
 26 27  2  0
 27 28  1  0
 28 29  2  0
 29 30  1  0
 30 31  2  0
 12  3  1  0
 31 13  1  0
 11  5  1  0
 25 15  1  0
 31 26  1  0
 24 19  1  0
  4 32  1  0
  6 33  1  0
  9 34  1  0
 10 35  1  0
 12 36  1  0
 14 37  1  0
 14 38  1  0
 16 39  1  0
 16 40  1  0
 17 41  1  0
 17 42  1  0
 19 43  1  0
 20 44  1  0
 20 45  1  0
 21 46  1  0
 21 47  1  0
 22 48  1  0
 22 49  1  0
 23 50  1  0
 23 51  1  0
 24 52  1  0
 24 53  1  0
 25 54  1  0
 25 55  1  0
 27 56  1  0
 28 57  1  0
 29 58  1  0
 30 59  1  0
M  END
>  <UniqueID>  (17) 
177

>  <SMILES>  (17) 
O=C(c1cc2cc(F)ccc2[nH]1)N1C[C@@]2(CCN(C3CCCCC3)C2)c2ccccc21

>  <Energy>  (17) 
128.1936475649388

>  <Genealogy>  (17) 
O=C(c1cc2cc(F)ccc2[nH]1)N1C[C@@]2(CCN(C3CCCCC3)C2)c2ccccc21 (3D coordinates assigned)
O=C(c1cc2cc(F)ccc2[nH]1)N1C[C@@]2(CCN(C3CCCCC3)C2)c2ccccc21 (nonaromatic ring conformer: 128.1936475649388 kcal/mol)

>  <smiles>  (17) 
O=C(c1cc2cc(F)ccc2[nH]1)N1C[C@@]2(CCN(C3CCCCC3)C2)c2ccccc21

>  <score_type>  (17) 
oracle

>  <origin>  (17) 
autodockgpu

>  <m_score__min__energy>  (17) 
-8.3499999999999996

>  <m_primary>  (17) 
energy

>  <meeko>  (17) 
{"free_energy": -8.14, "intermolecular_energy": -9.04, "internal_energy": -1.3, "cluster_size": 5, "cluster_id": 3, "rank_in_cluster": 3}

>  <energy>  (17) 
-8.14

>  <cluster_rmsd>  (17) 
0.05

>  <rmsd>  (17) 
273.66

>  <cluster>  (17) 
3

$$$$
VDMKUDNKZWHZNN-SANMLTNENA-N
     RDKit          3D

 59 64  0  0  0  0  0  0  0  0999 V2000
  137.8470   81.7710  221.8140 O   0  0  0  0  0  0  0  0  0  0  0  0
  138.1880   81.1930  222.8820 C   0  0  0  0  0  0  0  0  0  0  0  0
  137.5810   81.6170  224.1560 C   0  0  0  0  0  0  0  0  0  0  0  0
  137.5470   80.8450  225.3150 C   0  0  0  0  0  0  0  0  0  0  0  0
  136.8670   81.6120  226.2340 C   0  0  0  0  0  0  0  0  0  0  0  0
  136.5310   81.3540  227.5620 C   0  0  0  0  0  0  0  0  0  0  0  0
  135.8130   82.3420  228.2620 C   0  0  0  0  0  0  0  0  0  0  0  0
  135.4670   82.1340  229.5560 F   0  0  0  0  0  0  0  0  0  0  0  0
  135.4470   83.5470  227.6210 C   0  0  0  0  0  0  0  0  0  0  0  0
  135.7980   83.7770  226.2780 C   0  0  0  0  0  0  0  0  0  0  0  0
  136.5150   82.7820  225.6130 C   0  0  0  0  0  0  0  0  0  0  0  0
  136.9410   82.7970  224.3400 N   0  0  0  0  0  0  0  0  0  0  0  0
  139.1380   80.1170  222.8380 N   0  0  0  0  0  0  0  0  0  0  0  0
  138.9130   78.8790  222.0880 C   0  0  0  0  0  0  0  0  0  0  0  0
  140.3150   78.1890  221.9460 C   0  0  2  0  0  0  0  0  0  0  0  0
  140.7030   77.9350  220.4890 C   0  0  0  0  0  0  0  0  0  0  0  0
  141.4770   76.6320  220.5110 C   0  0  0  0  0  0  0  0  0  0  0  0
  141.0280   75.8620  221.6810 N   0  0  0  0  0  0  0  0  0  0  0  0
  140.2030   74.6740  221.3260 C   0  0  0  0  0  0  0  0  0  0  0  0
  140.9810   73.3510  221.5880 C   0  0  0  0  0  0  0  0  0  0  0  0
  140.3230   72.4610  222.6530 C   0  0  0  0  0  0  0  0  0  0  0  0
  138.8550   72.1480  222.3160 C   0  0  0  0  0  0  0  0  0  0  0  0
  138.0820   73.3420  221.7170 C   0  0  0  0  0  0  0  0  0  0  0  0
  138.7830   74.6830  221.9600 C   0  0  0  0  0  0  0  0  0  0  0  0
  140.3990   76.8050  222.6260 C   0  0  0  0  0  0  0  0  0  0  0  0
  141.2380   79.1820  222.6040 C   0  0  0  0  0  0  0  0  0  0  0  0
  142.6250   79.1010  222.7830 C   0  0  0  0  0  0  0  0  0  0  0  0
  143.2800   80.1390  223.4630 C   0  0  0  0  0  0  0  0  0  0  0  0
  142.5480   81.2300  223.9630 C   0  0  0  0  0  0  0  0  0  0  0  0
  141.1580   81.2900  223.7830 C   0  0  0  0  0  0  0  0  0  0  0  0
  140.5280   80.2510  223.0880 C   0  0  0  0  0  0  0  0  0  0  0  0
  137.9712   79.8410  225.4636 H   0  0  0  0  0  0  0  0  0  0  0  0
  136.8175   80.4092  228.0471 H   0  0  0  0  0  0  0  0  0  0  0  0
  134.8833   84.3111  228.1763 H   0  0  0  0  0  0  0  0  0  0  0  0
  135.5163   84.7107  225.7691 H   0  0  0  0  0  0  0  0  0  0  0  0
  136.7730   83.5490  223.6350 H   0  0  0  0  0  0  0  0  0  0  0  0
  138.2194   78.2232  222.6347 H   0  0  0  0  0  0  0  0  0  0  0  0
  138.4665   79.0834  221.1037 H   0  0  0  0  0  0  0  0  0  0  0  0
  139.8051   77.8409  219.8605 H   0  0  0  0  0  0  0  0  0  0  0  0
  141.2959   78.7609  220.0691 H   0  0  0  0  0  0  0  0  0  0  0  0
  141.2789   76.0635  219.5904 H   0  0  0  0  0  0  0  0  0  0  0  0
  142.5577   76.8280  220.5717 H   0  0  0  0  0  0  0  0  0  0  0  0
  140.0162   74.7355  220.2437 H   0  0  0  0  0  0  0  0  0  0  0  0
  141.0361   72.7858  220.6459 H   0  0  0  0  0  0  0  0  0  0  0  0
  141.9771   73.6273  221.9639 H   0  0  0  0  0  0  0  0  0  0  0  0
  140.8813   71.5156  222.7200 H   0  0  0  0  0  0  0  0  0  0  0  0
  140.3436   73.0040  223.6094 H   0  0  0  0  0  0  0  0  0  0  0  0
  138.8350   71.3228  221.5889 H   0  0  0  0  0  0  0  0  0  0  0  0
  138.3585   71.8892  223.2628 H   0  0  0  0  0  0  0  0  0  0  0  0
  137.9828   73.1884  220.6323 H   0  0  0  0  0  0  0  0  0  0  0  0
  137.1013   73.3853  222.2134 H   0  0  0  0  0  0  0  0  0  0  0  0
  138.1887   75.4902  221.5070 H   0  0  0  0  0  0  0  0  0  0  0  0
  138.8767   74.8459  223.0438 H   0  0  0  0  0  0  0  0  0  0  0  0
  139.3884   76.4551  222.8834 H   0  0  0  0  0  0  0  0  0  0  0  0
  140.9948   76.8713  223.5483 H   0  0  0  0  0  0  0  0  0  0  0  0
  143.1902   78.2396  222.3976 H   0  0  0  0  0  0  0  0  0  0  0  0
  144.3700   80.0989  223.6053 H   0  0  0  0  0  0  0  0  0  0  0  0
  143.0669   82.0395  224.4973 H   0  0  0  0  0  0  0  0  0  0  0  0
  140.5759   82.1350  224.1794 H   0  0  0  0  0  0  0  0  0  0  0  0
  1  2  2  0
  2  3  1  0
  3  4  2  0
  4  5  1  0
  5  6  2  0
  6  7  1  0
  7  8  1  0
  7  9  2  0
  9 10  1  0
 10 11  2  0
 11 12  1  0
  2 13  1  0
 13 14  1  0
 15 14  1  6
 15 16  1  0
 16 17  1  0
 17 18  1  0
 18 19  1  0
 19 20  1  0
 20 21  1  0
 21 22  1  0
 22 23  1  0
 23 24  1  0
 18 25  1  0
 15 26  1  0
 26 27  2  0
 27 28  1  0
 28 29  2  0
 29 30  1  0
 30 31  2  0
 12  3  1  0
 31 13  1  0
 11  5  1  0
 25 15  1  0
 31 26  1  0
 24 19  1  0
  4 32  1  0
  6 33  1  0
  9 34  1  0
 10 35  1  0
 12 36  1  0
 14 37  1  0
 14 38  1  0
 16 39  1  0
 16 40  1  0
 17 41  1  0
 17 42  1  0
 19 43  1  0
 20 44  1  0
 20 45  1  0
 21 46  1  0
 21 47  1  0
 22 48  1  0
 22 49  1  0
 23 50  1  0
 23 51  1  0
 24 52  1  0
 24 53  1  0
 25 54  1  0
 25 55  1  0
 27 56  1  0
 28 57  1  0
 29 58  1  0
 30 59  1  0
M  END
>  <UniqueID>  (18) 
177

>  <SMILES>  (18) 
O=C(c1cc2cc(F)ccc2[nH]1)N1C[C@@]2(CCN(C3CCCCC3)C2)c2ccccc21

>  <Energy>  (18) 
128.1936475649388

>  <Genealogy>  (18) 
O=C(c1cc2cc(F)ccc2[nH]1)N1C[C@@]2(CCN(C3CCCCC3)C2)c2ccccc21 (3D coordinates assigned)
O=C(c1cc2cc(F)ccc2[nH]1)N1C[C@@]2(CCN(C3CCCCC3)C2)c2ccccc21 (nonaromatic ring conformer: 128.1936475649388 kcal/mol)

>  <smiles>  (18) 
O=C(c1cc2cc(F)ccc2[nH]1)N1C[C@@]2(CCN(C3CCCCC3)C2)c2ccccc21

>  <score_type>  (18) 
oracle

>  <origin>  (18) 
autodockgpu

>  <m_score__min__energy>  (18) 
-8.3499999999999996

>  <m_primary>  (18) 
energy

>  <meeko>  (18) 
{"free_energy": -8.14, "intermolecular_energy": -9.04, "internal_energy": -1.3, "cluster_size": 5, "cluster_id": 3, "rank_in_cluster": 1}

>  <energy>  (18) 
-8.14

>  <cluster_rmsd>  (18) 
0.05

>  <rmsd>  (18) 
273.66

>  <cluster>  (18) 
3

$$$$
VDMKUDNKZWHZNN-SANMLTNENA-N
     RDKit          3D

 59 64  0  0  0  0  0  0  0  0999 V2000
  142.1240   73.4960  220.3620 O   0  0  0  0  0  0  0  0  0  0  0  0
  141.1850   73.5340  221.2030 C   0  0  0  0  0  0  0  0  0  0  0  0
  140.6810   74.8400  221.6620 C   0  0  0  0  0  0  0  0  0  0  0  0
  139.3510   75.1110  221.9800 C   0  0  0  0  0  0  0  0  0  0  0  0
  139.3320   76.4430  222.3250 C   0  0  0  0  0  0  0  0  0  0  0  0
  138.2800   77.2610  222.7320 C   0  0  0  0  0  0  0  0  0  0  0  0
  138.5670   78.6100  223.0150 C   0  0  0  0  0  0  0  0  0  0  0  0
  137.5730   79.4410  223.4150 F   0  0  0  0  0  0  0  0  0  0  0  0
  139.8850   79.1030  222.8790 C   0  0  0  0  0  0  0  0  0  0  0  0
  140.9260   78.2520  222.4640 C   0  0  0  0  0  0  0  0  0  0  0  0
  140.6110   76.9200  222.1970 C   0  0  0  0  0  0  0  0  0  0  0  0
  141.4450   75.9510  221.7870 N   0  0  0  0  0  0  0  0  0  0  0  0
  140.6050   72.3100  221.6780 N   0  0  0  0  0  0  0  0  0  0  0  0
  140.2270   72.0910  223.0770 C   0  0  0  0  0  0  0  0  0  0  0  0
  139.2680   70.8500  223.0860 C   0  0  2  0  0  0  0  0  0  0  0  0
  137.9060   71.1610  223.7110 C   0  0  0  0  0  0  0  0  0  0  0  0
  137.5000   69.8840  224.4190 C   0  0  0  0  0  0  0  0  0  0  0  0
  138.7280   69.1490  224.7620 N   0  0  0  0  0  0  0  0  0  0  0  0
  139.0320   69.1550  226.2200 C   0  0  0  0  0  0  0  0  0  0  0  0
  139.5440   67.7630  226.6930 C   0  0  0  0  0  0  0  0  0  0  0  0
  140.9820   67.7960  227.2310 C   0  0  0  0  0  0  0  0  0  0  0  0
  141.1520   68.8270  228.3590 C   0  0  0  0  0  0  0  0  0  0  0  0
  140.3810   70.1430  228.1250 C   0  0  0  0  0  0  0  0  0  0  0  0
  139.9520   70.3280  226.6650 C   0  0  0  0  0  0  0  0  0  0  0  0
  139.8090   69.6500  223.8920 C   0  0  0  0  0  0  0  0  0  0  0  0
  139.1450   70.5180  221.6210 C   0  0  0  0  0  0  0  0  0  0  0  0
  138.4140   69.4900  221.0150 C   0  0  0  0  0  0  0  0  0  0  0  0
  138.4760   69.3470  219.6200 C   0  0  0  0  0  0  0  0  0  0  0  0
  139.2700   70.2180  218.8540 C   0  0  0  0  0  0  0  0  0  0  0  0
  140.0040   71.2370  219.4790 C   0  0  0  0  0  0  0  0  0  0  0  0
  139.9150   71.3700  220.8700 C   0  0  0  0  0  0  0  0  0  0  0  0
  138.5017   74.4122  221.9596 H   0  0  0  0  0  0  0  0  0  0  0  0
  137.2581   76.8655  222.8291 H   0  0  0  0  0  0  0  0  0  0  0  0
  140.0983   80.1594  223.0992 H   0  0  0  0  0  0  0  0  0  0  0  0
  141.9548   78.6253  222.3538 H   0  0  0  0  0  0  0  0  0  0  0  0
  142.4620   76.0540  221.5730 H   0  0  0  0  0  0  0  0  0  0  0  0
  141.1204   71.8861  223.6851 H   0  0  0  0  0  0  0  0  0  0  0  0
  139.7353   72.9787  223.5015 H   0  0  0  0  0  0  0  0  0  0  0  0
  137.9899   71.9910  224.4280 H   0  0  0  0  0  0  0  0  0  0  0  0
  137.1660   71.4697  222.9579 H   0  0  0  0  0  0  0  0  0  0  0  0
  136.9406   70.1257  225.3348 H   0  0  0  0  0  0  0  0  0  0  0  0
  136.8557   69.2732  223.7696 H   0  0  0  0  0  0  0  0  0  0  0  0
  138.0802   69.3467  226.7371 H   0  0  0  0  0  0  0  0  0  0  0  0
  138.8806   67.3998  227.4917 H   0  0  0  0  0  0  0  0  0  0  0  0
  139.5391   67.0987  225.8163 H   0  0  0  0  0  0  0  0  0  0  0  0
  141.2388   66.7994  227.6193 H   0  0  0  0  0  0  0  0  0  0  0  0
  141.6474   68.0847  226.4040 H   0  0  0  0  0  0  0  0  0  0  0  0
  140.7928   68.3772  229.2963 H   0  0  0  0  0  0  0  0  0  0  0  0
  142.2205   69.0855  228.3968 H   0  0  0  0  0  0  0  0  0  0  0  0
  139.4815   70.1408  228.7581 H   0  0  0  0  0  0  0  0  0  0  0  0
  141.0568   70.9728  228.3795 H   0  0  0  0  0  0  0  0  0  0  0  0
  139.4044   71.2767  226.5651 H   0  0  0  0  0  0  0  0  0  0  0  0
  140.8484   70.3415  226.0275 H   0  0  0  0  0  0  0  0  0  0  0  0
  140.6629   69.9701  224.5071 H   0  0  0  0  0  0  0  0  0  0  0  0
  140.1436   68.8555  223.2088 H   0  0  0  0  0  0  0  0  0  0  0  0
  137.8017   68.8061  221.6211 H   0  0  0  0  0  0  0  0  0  0  0  0
  137.9013   68.5506  219.1245 H   0  0  0  0  0  0  0  0  0  0  0  0
  139.3159   70.1002  217.7613 H   0  0  0  0  0  0  0  0  0  0  0  0
  140.6360   71.9170  218.8889 H   0  0  0  0  0  0  0  0  0  0  0  0
  1  2  2  0
  2  3  1  0
  3  4  2  0
  4  5  1  0
  5  6  2  0
  6  7  1  0
  7  8  1  0
  7  9  2  0
  9 10  1  0
 10 11  2  0
 11 12  1  0
  2 13  1  0
 13 14  1  0
 15 14  1  6
 15 16  1  0
 16 17  1  0
 17 18  1  0
 18 19  1  0
 19 20  1  0
 20 21  1  0
 21 22  1  0
 22 23  1  0
 23 24  1  0
 18 25  1  0
 15 26  1  0
 26 27  2  0
 27 28  1  0
 28 29  2  0
 29 30  1  0
 30 31  2  0
 12  3  1  0
 31 13  1  0
 11  5  1  0
 25 15  1  0
 31 26  1  0
 24 19  1  0
  4 32  1  0
  6 33  1  0
  9 34  1  0
 10 35  1  0
 12 36  1  0
 14 37  1  0
 14 38  1  0
 16 39  1  0
 16 40  1  0
 17 41  1  0
 17 42  1  0
 19 43  1  0
 20 44  1  0
 20 45  1  0
 21 46  1  0
 21 47  1  0
 22 48  1  0
 22 49  1  0
 23 50  1  0
 23 51  1  0
 24 52  1  0
 24 53  1  0
 25 54  1  0
 25 55  1  0
 27 56  1  0
 28 57  1  0
 29 58  1  0
 30 59  1  0
M  END
>  <UniqueID>  (19) 
177

>  <SMILES>  (19) 
O=C(c1cc2cc(F)ccc2[nH]1)N1C[C@@]2(CCN(C3CCCCC3)C2)c2ccccc21

>  <Energy>  (19) 
128.1936475649388

>  <Genealogy>  (19) 
O=C(c1cc2cc(F)ccc2[nH]1)N1C[C@@]2(CCN(C3CCCCC3)C2)c2ccccc21 (3D coordinates assigned)
O=C(c1cc2cc(F)ccc2[nH]1)N1C[C@@]2(CCN(C3CCCCC3)C2)c2ccccc21 (nonaromatic ring conformer: 128.1936475649388 kcal/mol)

>  <smiles>  (19) 
O=C(c1cc2cc(F)ccc2[nH]1)N1C[C@@]2(CCN(C3CCCCC3)C2)c2ccccc21

>  <score_type>  (19) 
oracle

>  <origin>  (19) 
autodockgpu

>  <m_score__min__energy>  (19) 
-8.3499999999999996

>  <m_primary>  (19) 
energy

>  <meeko>  (19) 
{"free_energy": -8.13, "intermolecular_energy": -9.02, "internal_energy": -1.34, "cluster_size": 1, "cluster_id": 4, "rank_in_cluster": 1}

>  <energy>  (19) 
-8.12

>  <cluster_rmsd>  (19) 
0.08

>  <rmsd>  (19) 
273.63

>  <cluster>  (19) 
3

$$$$
VDMKUDNKZWHZNN-SANMLTNENA-N
     RDKit          3D

 59 64  0  0  0  0  0  0  0  0999 V2000
  139.0310   75.7200  219.8290 O   0  0  0  0  0  0  0  0  0  0  0  0
  139.9010   75.6100  220.7360 C   0  0  0  0  0  0  0  0  0  0  0  0
  140.5160   76.8260  221.2950 C   0  0  0  0  0  0  0  0  0  0  0  0
  140.8120   77.0190  222.6430 C   0  0  0  0  0  0  0  0  0  0  0  0
  141.3400   78.2890  222.7130 C   0  0  0  0  0  0  0  0  0  0  0  0
  141.8120   79.0170  223.8030 C   0  0  0  0  0  0  0  0  0  0  0  0
  142.2940   80.3180  223.5650 C   0  0  0  0  0  0  0  0  0  0  0  0
  142.7640   81.0620  224.5970 F   0  0  0  0  0  0  0  0  0  0  0  0
  142.2860   80.8550  222.2570 C   0  0  0  0  0  0  0  0  0  0  0  0
  141.8000   80.0950  221.1770 C   0  0  0  0  0  0  0  0  0  0  0  0
  141.3350   78.8080  221.4440 C   0  0  0  0  0  0  0  0  0  0  0  0
  140.8290   77.9250  220.5670 N   0  0  0  0  0  0  0  0  0  0  0  0
  140.2560   74.3090  221.2290 N   0  0  0  0  0  0  0  0  0  0  0  0
  139.5640   73.6570  222.3440 C   0  0  0  0  0  0  0  0  0  0  0  0
  139.9530   72.1380  222.2760 C   0  0  2  0  0  0  0  0  0  0  0  0
  138.7330   71.2210  222.1660 C   0  0  0  0  0  0  0  0  0  0  0  0
  139.1080   69.9770  222.9480 C   0  0  0  0  0  0  0  0  0  0  0  0
  140.1100   70.3620  223.9540 N   0  0  0  0  0  0  0  0  0  0  0  0
  139.5840   70.3540  225.3460 C   0  0  0  0  0  0  0  0  0  0  0  0
  139.1430   68.9230  225.7720 C   0  0  0  0  0  0  0  0  0  0  0  0
  139.9510   68.3640  226.9510 C   0  0  0  0  0  0  0  0  0  0  0  0
  139.9220   69.3040  228.1680 C   0  0  0  0  0  0  0  0  0  0  0  0
  140.0140   70.8010  227.8040 C   0  0  0  0  0  0  0  0  0  0  0  0
  140.5270   71.0340  226.3790 C   0  0  0  0  0  0  0  0  0  0  0  0
  140.7180   71.6350  223.5180 C   0  0  0  0  0  0  0  0  0  0  0  0
  140.8100   72.0730  221.0380 C   0  0  0  0  0  0  0  0  0  0  0  0
  141.4520   70.9630  220.4750 C   0  0  0  0  0  0  0  0  0  0  0  0
  142.2370   71.1460  219.3270 C   0  0  0  0  0  0  0  0  0  0  0  0
  142.3820   72.4260  218.7650 C   0  0  0  0  0  0  0  0  0  0  0  0
  141.7400   73.5290  219.3480 C   0  0  0  0  0  0  0  0  0  0  0  0
  140.9500   73.3200  220.4840 C   0  0  0  0  0  0  0  0  0  0  0  0
  140.6576   76.3112  223.4708 H   0  0  0  0  0  0  0  0  0  0  0  0
  141.8082   78.5892  224.8164 H   0  0  0  0  0  0  0  0  0  0  0  0
  142.6622   81.8738  222.0825 H   0  0  0  0  0  0  0  0  0  0  0  0
  141.7874   80.5030  220.1555 H   0  0  0  0  0  0  0  0  0  0  0  0
  140.6750   78.0800  219.5460 H   0  0  0  0  0  0  0  0  0  0  0  0
  139.8899   74.0912  223.3007 H   0  0  0  0  0  0  0  0  0  0  0  0
  138.4749   73.7943  222.2738 H   0  0  0  0  0  0  0  0  0  0  0  0
  137.8466   71.7018  222.6055 H   0  0  0  0  0  0  0  0  0  0  0  0
  138.4800   70.9921  221.1202 H   0  0  0  0  0  0  0  0  0  0  0  0
  138.2175   69.5654  223.4456 H   0  0  0  0  0  0  0  0  0  0  0  0
  139.5158   69.2088  222.2746 H   0  0  0  0  0  0  0  0  0  0  0  0
  138.6847   70.9875  225.3428 H   0  0  0  0  0  0  0  0  0  0  0  0
  138.0820   68.9561  226.0605 H   0  0  0  0  0  0  0  0  0  0  0  0
  139.3187   68.2589  224.9129 H   0  0  0  0  0  0  0  0  0  0  0  0
  139.5266   67.3921  227.2430 H   0  0  0  0  0  0  0  0  0  0  0  0
  140.9971   68.2608  226.6268 H   0  0  0  0  0  0  0  0  0  0  0  0
  138.9808   69.1371  228.7122 H   0  0  0  0  0  0  0  0  0  0  0  0
  140.8084   69.0679  228.7751 H   0  0  0  0  0  0  0  0  0  0  0  0
  139.0126   71.2471  227.8946 H   0  0  0  0  0  0  0  0  0  0  0  0
  140.7317   71.2669  228.4952 H   0  0  0  0  0  0  0  0  0  0  0  0
  140.5641   72.1151  226.1793 H   0  0  0  0  0  0  0  0  0  0  0  0
  141.5325   70.5979  226.2857 H   0  0  0  0  0  0  0  0  0  0  0  0
  140.6447   72.3779  224.3259 H   0  0  0  0  0  0  0  0  0  0  0  0
  141.7796   71.4833  223.2730 H   0  0  0  0  0  0  0  0  0  0  0  0
  141.3426   69.9653  220.9251 H   0  0  0  0  0  0  0  0  0  0  0  0
  142.7410   70.2844  218.8648 H   0  0  0  0  0  0  0  0  0  0  0  0
  143.0004   72.5634  217.8657 H   0  0  0  0  0  0  0  0  0  0  0  0
  141.8552   74.5363  218.9213 H   0  0  0  0  0  0  0  0  0  0  0  0
  1  2  2  0
  2  3  1  0
  3  4  2  0
  4  5  1  0
  5  6  2  0
  6  7  1  0
  7  8  1  0
  7  9  2  0
  9 10  1  0
 10 11  2  0
 11 12  1  0
  2 13  1  0
 13 14  1  0
 15 14  1  1
 15 16  1  0
 16 17  1  0
 17 18  1  0
 18 19  1  0
 19 20  1  0
 20 21  1  0
 21 22  1  0
 22 23  1  0
 23 24  1  0
 18 25  1  0
 15 26  1  0
 26 27  2  0
 27 28  1  0
 28 29  2  0
 29 30  1  0
 30 31  2  0
 12  3  1  0
 31 13  1  0
 11  5  1  0
 25 15  1  0
 31 26  1  0
 24 19  1  0
  4 32  1  0
  6 33  1  0
  9 34  1  0
 10 35  1  0
 12 36  1  0
 14 37  1  0
 14 38  1  0
 16 39  1  0
 16 40  1  0
 17 41  1  0
 17 42  1  0
 19 43  1  0
 20 44  1  0
 20 45  1  0
 21 46  1  0
 21 47  1  0
 22 48  1  0
 22 49  1  0
 23 50  1  0
 23 51  1  0
 24 52  1  0
 24 53  1  0
 25 54  1  0
 25 55  1  0
 27 56  1  0
 28 57  1  0
 29 58  1  0
 30 59  1  0
M  END
>  <UniqueID>  (20) 
177

>  <SMILES>  (20) 
O=C(c1cc2cc(F)ccc2[nH]1)N1C[C@@]2(CCN(C3CCCCC3)C2)c2ccccc21

>  <Energy>  (20) 
128.1936475649388

>  <Genealogy>  (20) 
O=C(c1cc2cc(F)ccc2[nH]1)N1C[C@@]2(CCN(C3CCCCC3)C2)c2ccccc21 (3D coordinates assigned)
O=C(c1cc2cc(F)ccc2[nH]1)N1C[C@@]2(CCN(C3CCCCC3)C2)c2ccccc21 (nonaromatic ring conformer: 128.1936475649388 kcal/mol)

>  <smiles>  (20) 
O=C(c1cc2cc(F)ccc2[nH]1)N1C[C@@]2(CCN(C3CCCCC3)C2)c2ccccc21

>  <score_type>  (20) 
oracle

>  <origin>  (20) 
autodockgpu

>  <m_score__min__energy>  (20) 
-8.3499999999999996

>  <m_primary>  (20) 
energy

>  <meeko>  (20) 
{"free_energy": -8.35, "intermolecular_energy": -9.25, "internal_energy": -1.15, "cluster_size": 11, "cluster_id": 1, "rank_in_cluster": 1}

>  <energy>  (20) 
-8.13

>  <cluster_rmsd>  (20) 
0.0

>  <rmsd>  (20) 
271.66

>  <cluster>  (20) 
4

$$$$
VDMKUDNKZWHZNN-SANMLTNENA-N
     RDKit          3D

 59 64  0  0  0  0  0  0  0  0999 V2000
  139.0180   75.6930  219.8230 O   0  0  0  0  0  0  0  0  0  0  0  0
  139.8930   75.5870  220.7260 C   0  0  0  0  0  0  0  0  0  0  0  0
  140.5120   76.8040  221.2760 C   0  0  0  0  0  0  0  0  0  0  0  0
  140.8150   77.0030  222.6220 C   0  0  0  0  0  0  0  0  0  0  0  0
  141.3450   78.2720  222.6830 C   0  0  0  0  0  0  0  0  0  0  0  0
  141.8230   79.0050  223.7680 C   0  0  0  0  0  0  0  0  0  0  0  0
  142.3050   80.3050  223.5220 C   0  0  0  0  0  0  0  0  0  0  0  0
  142.7800   81.0530  224.5480 F   0  0  0  0  0  0  0  0  0  0  0  0
  142.2900   80.8360  222.2120 C   0  0  0  0  0  0  0  0  0  0  0  0
  141.7990   80.0710  221.1380 C   0  0  0  0  0  0  0  0  0  0  0  0
  141.3330   78.7860  221.4120 C   0  0  0  0  0  0  0  0  0  0  0  0
  140.8230   77.9000  220.5420 N   0  0  0  0  0  0  0  0  0  0  0  0
  140.2500   74.2870  221.2210 N   0  0  0  0  0  0  0  0  0  0  0  0
  139.5650   73.6400  222.3440 C   0  0  0  0  0  0  0  0  0  0  0  0
  139.9520   72.1210  222.2800 C   0  0  2  0  0  0  0  0  0  0  0  0
  138.7310   71.2040  222.1820 C   0  0  0  0  0  0  0  0  0  0  0  0
  139.1090   69.9630  222.9660 C   0  0  0  0  0  0  0  0  0  0  0  0
  140.1180   70.3520  223.9640 N   0  0  0  0  0  0  0  0  0  0  0  0
  139.6010   70.3500  225.3600 C   0  0  0  0  0  0  0  0  0  0  0  0
  139.1470   68.9240  225.7890 C   0  0  0  0  0  0  0  0  0  0  0  0
  139.9570   68.3560  226.9630 C   0  0  0  0  0  0  0  0  0  0  0  0
  139.9460   69.2970  228.1800 C   0  0  0  0  0  0  0  0  0  0  0  0
  140.0530   70.7930  227.8140 C   0  0  0  0  0  0  0  0  0  0  0  0
  140.5590   71.0200  226.3860 C   0  0  0  0  0  0  0  0  0  0  0  0
  140.7240   71.6220  223.5190 C   0  0  0  0  0  0  0  0  0  0  0  0
  140.8010   72.0500  221.0370 C   0  0  0  0  0  0  0  0  0  0  0  0
  141.4380   70.9370  220.4740 C   0  0  0  0  0  0  0  0  0  0  0  0
  142.2160   71.1140  219.3200 C   0  0  0  0  0  0  0  0  0  0  0  0
  142.3580   72.3920  218.7520 C   0  0  0  0  0  0  0  0  0  0  0  0
  141.7210   73.4980  219.3340 C   0  0  0  0  0  0  0  0  0  0  0  0
  140.9380   73.2940  220.4760 C   0  0  0  0  0  0  0  0  0  0  0  0
  140.6636   76.2995  223.4539 H   0  0  0  0  0  0  0  0  0  0  0  0
  141.8237   78.5817  224.7833 H   0  0  0  0  0  0  0  0  0  0  0  0
  142.6647   81.8542  222.0310 H   0  0  0  0  0  0  0  0  0  0  0  0
  141.7833   80.4741  220.1146 H   0  0  0  0  0  0  0  0  0  0  0  0
  140.6630   78.0510  219.5210 H   0  0  0  0  0  0  0  0  0  0  0  0
  139.8979   74.0780  223.2965 H   0  0  0  0  0  0  0  0  0  0  0  0
  138.4755   73.7779  222.2807 H   0  0  0  0  0  0  0  0  0  0  0  0
  137.8479   71.6873  222.6252 H   0  0  0  0  0  0  0  0  0  0  0  0
  138.4719   70.9708  221.1387 H   0  0  0  0  0  0  0  0  0  0  0  0
  138.2212   69.5544  223.4709 H   0  0  0  0  0  0  0  0  0  0  0  0
  139.5112   69.1910  222.2934 H   0  0  0  0  0  0  0  0  0  0  0  0
  138.7085   70.9930  225.3634 H   0  0  0  0  0  0  0  0  0  0  0  0
  138.0884   68.9689  226.0846 H   0  0  0  0  0  0  0  0  0  0  0  0
  139.3095   68.2580  224.9288 H   0  0  0  0  0  0  0  0  0  0  0  0
  139.5240   67.3888  227.2581 H   0  0  0  0  0  0  0  0  0  0  0  0
  140.9997   68.2410  226.6320 H   0  0  0  0  0  0  0  0  0  0  0  0
  139.0062   69.1412  228.7300 H   0  0  0  0  0  0  0  0  0  0  0  0
  140.8330   69.0510  228.7822 H   0  0  0  0  0  0  0  0  0  0  0  0
  139.0574   71.2506  227.9110 H   0  0  0  0  0  0  0  0  0  0  0  0
  140.7810   71.2506  228.5000 H   0  0  0  0  0  0  0  0  0  0  0  0
  140.6069   72.1005  226.1856 H   0  0  0  0  0  0  0  0  0  0  0  0
  141.5591   70.5731  226.2859 H   0  0  0  0  0  0  0  0  0  0  0  0
  140.6566   72.3683  224.3243 H   0  0  0  0  0  0  0  0  0  0  0  0
  141.7838   71.4679  223.2677 H   0  0  0  0  0  0  0  0  0  0  0  0
  141.3302   69.9412  220.9288 H   0  0  0  0  0  0  0  0  0  0  0  0
  142.7164   70.2501  218.8583 H   0  0  0  0  0  0  0  0  0  0  0  0
  142.9707   72.5252  217.8482 H   0  0  0  0  0  0  0  0  0  0  0  0
  141.8344   74.5034  218.9024 H   0  0  0  0  0  0  0  0  0  0  0  0
  1  2  2  0
  2  3  1  0
  3  4  2  0
  4  5  1  0
  5  6  2  0
  6  7  1  0
  7  8  1  0
  7  9  2  0
  9 10  1  0
 10 11  2  0
 11 12  1  0
  2 13  1  0
 13 14  1  0
 15 14  1  1
 15 16  1  0
 16 17  1  0
 17 18  1  0
 18 19  1  0
 19 20  1  0
 20 21  1  0
 21 22  1  0
 22 23  1  0
 23 24  1  0
 18 25  1  0
 15 26  1  0
 26 27  2  0
 27 28  1  0
 28 29  2  0
 29 30  1  0
 30 31  2  0
 12  3  1  0
 31 13  1  0
 11  5  1  0
 25 15  1  0
 31 26  1  0
 24 19  1  0
  4 32  1  0
  6 33  1  0
  9 34  1  0
 10 35  1  0
 12 36  1  0
 14 37  1  0
 14 38  1  0
 16 39  1  0
 16 40  1  0
 17 41  1  0
 17 42  1  0
 19 43  1  0
 20 44  1  0
 20 45  1  0
 21 46  1  0
 21 47  1  0
 22 48  1  0
 22 49  1  0
 23 50  1  0
 23 51  1  0
 24 52  1  0
 24 53  1  0
 25 54  1  0
 25 55  1  0
 27 56  1  0
 28 57  1  0
 29 58  1  0
 30 59  1  0
M  END
>  <UniqueID>  (21) 
178

>  <SMILES>  (21) 
O=C(c1cc2cc(F)ccc2[nH]1)N1C[C@@]2(CCN(C3CCCCC3)C2)c2ccccc21

>  <Energy>  (21) 
130.49395143905497

>  <Genealogy>  (21) 
O=C(c1cc2cc(F)ccc2[nH]1)N1C[C@@]2(CCN(C3CCCCC3)C2)c2ccccc21 (3D coordinates assigned)
O=C(c1cc2cc(F)ccc2[nH]1)N1C[C@@]2(CCN(C3CCCCC3)C2)c2ccccc21 (nonaromatic ring conformer: 130.49395143905497 kcal/mol)

>  <smiles>  (21) 
O=C(c1cc2cc(F)ccc2[nH]1)N1C[C@@]2(CCN(C3CCCCC3)C2)c2ccccc21

>  <score_type>  (21) 
oracle

>  <origin>  (21) 
autodockgpu

>  <m_score__min__energy>  (21) 
-8.3499999999999996

>  <m_primary>  (21) 
energy

>  <meeko>  (21) 
{"free_energy": -8.35, "intermolecular_energy": -9.24, "internal_energy": -1.15, "cluster_size": 11, "cluster_id": 1, "rank_in_cluster": 5}

>  <energy>  (21) 
-8.35

>  <cluster_rmsd>  (21) 
0.0

>  <rmsd>  (21) 
272.17

>  <cluster>  (21) 
1

$$$$
VDMKUDNKZWHZNN-SANMLTNENA-N
     RDKit          3D

 59 64  0  0  0  0  0  0  0  0999 V2000
  139.9670   74.2480  222.0080 O   0  0  0  0  0  0  0  0  0  0  0  0
  140.9060   74.8250  221.3960 C   0  0  0  0  0  0  0  0  0  0  0  0
  142.0590   74.0330  220.9320 C   0  0  0  0  0  0  0  0  0  0  0  0
  142.0040   72.6890  220.5680 C   0  0  0  0  0  0  0  0  0  0  0  0
  143.2990   72.3580  220.2360 C   0  0  0  0  0  0  0  0  0  0  0  0
  143.8440   71.1520  219.8000 C   0  0  0  0  0  0  0  0  0  0  0  0
  145.2270   71.1110  219.5420 C   0  0  0  0  0  0  0  0  0  0  0  0
  145.7990   69.9580  219.1140 F   0  0  0  0  0  0  0  0  0  0  0  0
  146.0230   72.2640  219.7310 C   0  0  0  0  0  0  0  0  0  0  0  0
  145.4430   73.4660  220.1750 C   0  0  0  0  0  0  0  0  0  0  0  0
  144.0690   73.4760  220.4170 C   0  0  0  0  0  0  0  0  0  0  0  0
  143.3240   74.5080  220.8460 N   0  0  0  0  0  0  0  0  0  0  0  0
  140.8270   76.2350  221.1370 N   0  0  0  0  0  0  0  0  0  0  0  0
  140.4690   77.2200  222.1610 C   0  0  0  0  0  0  0  0  0  0  0  0
  140.9110   78.6180  221.6030 C   0  0  2  0  0  0  0  0  0  0  0  0
  141.8840   79.3440  222.5330 C   0  0  0  0  0  0  0  0  0  0  0  0
  141.5400   80.8130  222.3900 C   0  0  0  0  0  0  0  0  0  0  0  0
  140.1300   80.9070  221.9800 N   0  0  0  0  0  0  0  0  0  0  0  0
  139.2340   81.4150  223.0550 C   0  0  0  0  0  0  0  0  0  0  0  0
  138.0430   82.2210  222.4600 C   0  0  0  0  0  0  0  0  0  0  0  0
  136.6750   81.5900  222.7550 C   0  0  0  0  0  0  0  0  0  0  0  0
  136.4550   81.3670  224.2610 C   0  0  0  0  0  0  0  0  0  0  0  0
  137.7130   80.8790  225.0100 C   0  0  0  0  0  0  0  0  0  0  0  0
  138.7870   80.3240  224.0690 C   0  0  0  0  0  0  0  0  0  0  0  0
  139.7430   79.6060  221.4010 C   0  0  0  0  0  0  0  0  0  0  0  0
  141.5600   78.2570  220.2910 C   0  0  0  0  0  0  0  0  0  0  0  0
  142.1410   79.1050  219.3400 C   0  0  0  0  0  0  0  0  0  0  0  0
  142.6580   78.5470  218.1610 C   0  0  0  0  0  0  0  0  0  0  0  0
  142.5780   77.1600  217.9410 C   0  0  0  0  0  0  0  0  0  0  0  0
  141.9830   76.3260  218.9000 C   0  0  0  0  0  0  0  0  0  0  0  0
  141.4890   76.9050  220.0750 C   0  0  0  0  0  0  0  0  0  0  0  0
  141.1195   72.0353  220.5498 H   0  0  0  0  0  0  0  0  0  0  0  0
  143.2139   70.2610  219.6619 H   0  0  0  0  0  0  0  0  0  0  0  0
  147.1035   72.2208  219.5294 H   0  0  0  0  0  0  0  0  0  0  0  0
  146.0529   74.3688  220.3265 H   0  0  0  0  0  0  0  0  0  0  0  0
  143.6680   75.4610  221.0990 H   0  0  0  0  0  0  0  0  0  0  0  0
  139.3835   77.2070  222.3387 H   0  0  0  0  0  0  0  0  0  0  0  0
  140.9630   76.9980  223.1185 H   0  0  0  0  0  0  0  0  0  0  0  0
  141.7445   79.0136  223.5729 H   0  0  0  0  0  0  0  0  0  0  0  0
  142.9335   79.1382  222.2756 H   0  0  0  0  0  0  0  0  0  0  0  0
  141.6850   81.3266  223.3519 H   0  0  0  0  0  0  0  0  0  0  0  0
  142.1904   81.2888  221.6412 H   0  0  0  0  0  0  0  0  0  0  0  0
  139.8339   82.1135  223.6568 H   0  0  0  0  0  0  0  0  0  0  0  0
  138.0594   83.2346  222.8871 H   0  0  0  0  0  0  0  0  0  0  0  0
  138.1690   82.2295  221.3673 H   0  0  0  0  0  0  0  0  0  0  0  0
  135.8871   82.2575  222.3762 H   0  0  0  0  0  0  0  0  0  0  0  0
  136.6393   80.6094  222.2579 H   0  0  0  0  0  0  0  0  0  0  0  0
  136.1324   82.3185  224.7088 H   0  0  0  0  0  0  0  0  0  0  0  0
  135.6970   80.5760  224.3598 H   0  0  0  0  0  0  0  0  0  0  0  0
  138.1391   81.7249  225.5694 H   0  0  0  0  0  0  0  0  0  0  0  0
  137.4041   80.0617  225.6782 H   0  0  0  0  0  0  0  0  0  0  0  0
  139.6561   80.0012  224.6610 H   0  0  0  0  0  0  0  0  0  0  0  0
  138.3698   79.4704  223.5146 H   0  0  0  0  0  0  0  0  0  0  0  0
  138.8433   79.2266  221.9075 H   0  0  0  0  0  0  0  0  0  0  0  0
  139.5237   79.7189  220.3290 H   0  0  0  0  0  0  0  0  0  0  0  0
  142.1912   80.1899  219.5143 H   0  0  0  0  0  0  0  0  0  0  0  0
  143.1271   79.1959  217.4068 H   0  0  0  0  0  0  0  0  0  0  0  0
  142.9832   76.7277  217.0142 H   0  0  0  0  0  0  0  0  0  0  0  0
  141.9065   75.2416  218.7322 H   0  0  0  0  0  0  0  0  0  0  0  0
  1  2  2  0
  2  3  1  0
  3  4  2  0
  4  5  1  0
  5  6  2  0
  6  7  1  0
  7  8  1  0
  7  9  2  0
  9 10  1  0
 10 11  2  0
 11 12  1  0
  2 13  1  0
 13 14  1  0
 15 14  1  1
 15 16  1  0
 16 17  1  0
 17 18  1  0
 18 19  1  0
 19 20  1  0
 20 21  1  0
 21 22  1  0
 22 23  1  0
 23 24  1  0
 18 25  1  0
 15 26  1  0
 26 27  2  0
 27 28  1  0
 28 29  2  0
 29 30  1  0
 30 31  2  0
 12  3  1  0
 31 13  1  0
 11  5  1  0
 25 15  1  0
 31 26  1  0
 24 19  1  0
  4 32  1  0
  6 33  1  0
  9 34  1  0
 10 35  1  0
 12 36  1  0
 14 37  1  0
 14 38  1  0
 16 39  1  0
 16 40  1  0
 17 41  1  0
 17 42  1  0
 19 43  1  0
 20 44  1  0
 20 45  1  0
 21 46  1  0
 21 47  1  0
 22 48  1  0
 22 49  1  0
 23 50  1  0
 23 51  1  0
 24 52  1  0
 24 53  1  0
 25 54  1  0
 25 55  1  0
 27 56  1  0
 28 57  1  0
 29 58  1  0
 30 59  1  0
M  END
>  <UniqueID>  (22) 
178

>  <SMILES>  (22) 
O=C(c1cc2cc(F)ccc2[nH]1)N1C[C@@]2(CCN(C3CCCCC3)C2)c2ccccc21

>  <Energy>  (22) 
130.49395143905497

>  <Genealogy>  (22) 
O=C(c1cc2cc(F)ccc2[nH]1)N1C[C@@]2(CCN(C3CCCCC3)C2)c2ccccc21 (3D coordinates assigned)
O=C(c1cc2cc(F)ccc2[nH]1)N1C[C@@]2(CCN(C3CCCCC3)C2)c2ccccc21 (nonaromatic ring conformer: 130.49395143905497 kcal/mol)

>  <smiles>  (22) 
O=C(c1cc2cc(F)ccc2[nH]1)N1C[C@@]2(CCN(C3CCCCC3)C2)c2ccccc21

>  <score_type>  (22) 
oracle

>  <origin>  (22) 
autodockgpu

>  <m_score__min__energy>  (22) 
-8.3499999999999996

>  <m_primary>  (22) 
energy

>  <meeko>  (22) 
{"free_energy": -8.19, "intermolecular_energy": -9.09, "internal_energy": -1.27, "cluster_size": 3, "cluster_id": 2, "rank_in_cluster": 1}

>  <energy>  (22) 
-8.35

>  <cluster_rmsd>  (22) 
0.02

>  <rmsd>  (22) 
272.17

>  <cluster>  (22) 
1

$$$$
VDMKUDNKZWHZNN-SANMLTNENA-N
     RDKit          3D

 59 64  0  0  0  0  0  0  0  0999 V2000
  137.8810   81.8420  221.8430 O   0  0  0  0  0  0  0  0  0  0  0  0
  138.1980   81.2330  222.9010 C   0  0  0  0  0  0  0  0  0  0  0  0
  137.5690   81.6240  224.1740 C   0  0  0  0  0  0  0  0  0  0  0  0
  137.6090   80.8690  225.3440 C   0  0  0  0  0  0  0  0  0  0  0  0
  136.8750   81.5910  226.2580 C   0  0  0  0  0  0  0  0  0  0  0  0
  136.5730   81.3270  227.5930 C   0  0  0  0  0  0  0  0  0  0  0  0
  135.7800   82.2610  228.2850 C   0  0  0  0  0  0  0  0  0  0  0  0
  135.4640   82.0440  229.5860 F   0  0  0  0  0  0  0  0  0  0  0  0
  135.3090   83.4220  227.6300 C   0  0  0  0  0  0  0  0  0  0  0  0
  135.6290   83.6590  226.2810 C   0  0  0  0  0  0  0  0  0  0  0  0
  136.4210   82.7180  225.6240 C   0  0  0  0  0  0  0  0  0  0  0  0
  136.8340   82.7480  224.3470 N   0  0  0  0  0  0  0  0  0  0  0  0
  139.1440   80.1530  222.8450 N   0  0  0  0  0  0  0  0  0  0  0  0
  138.9080   78.9180  222.0930 C   0  0  0  0  0  0  0  0  0  0  0  0
  140.3060   78.2230  221.9360 C   0  0  2  0  0  0  0  0  0  0  0  0
  140.6800   77.9730  220.4740 C   0  0  0  0  0  0  0  0  0  0  0  0
  141.4500   76.6670  220.4850 C   0  0  0  0  0  0  0  0  0  0  0  0
  141.0080   75.8950  221.6570 N   0  0  0  0  0  0  0  0  0  0  0  0
  140.1760   74.7110  221.3060 C   0  0  0  0  0  0  0  0  0  0  0  0
  140.9510   73.3840  221.5550 C   0  0  0  0  0  0  0  0  0  0  0  0
  140.3010   72.4930  222.6220 C   0  0  0  0  0  0  0  0  0  0  0  0
  138.8290   72.1850  222.2990 C   0  0  0  0  0  0  0  0  0  0  0  0
  138.0550   73.3850  221.7130 C   0  0  0  0  0  0  0  0  0  0  0  0
  138.7620   74.7220  221.9540 C   0  0  0  0  0  0  0  0  0  0  0  0
  140.3910   76.8370  222.6100 C   0  0  0  0  0  0  0  0  0  0  0  0
  141.2390   79.2110  222.5890 C   0  0  0  0  0  0  0  0  0  0  0  0
  142.6260   79.1250  222.7560 C   0  0  0  0  0  0  0  0  0  0  0  0
  143.2910   80.1580  223.4330 C   0  0  0  0  0  0  0  0  0  0  0  0
  142.5670   81.2500  223.9430 C   0  0  0  0  0  0  0  0  0  0  0  0
  141.1760   81.3160  223.7750 C   0  0  0  0  0  0  0  0  0  0  0  0
  140.5370   80.2810  223.0830 C   0  0  0  0  0  0  0  0  0  0  0  0
  138.1163   79.9060  225.5029 H   0  0  0  0  0  0  0  0  0  0  0  0
  136.9427   80.4178  228.0896 H   0  0  0  0  0  0  0  0  0  0  0  0
  134.6880   84.1450  228.1792 H   0  0  0  0  0  0  0  0  0  0  0  0
  135.2661   84.5578  225.7610 H   0  0  0  0  0  0  0  0  0  0  0  0
  136.5960   83.4730  223.6320 H   0  0  0  0  0  0  0  0  0  0  0  0
  138.2169   78.2630  222.6438 H   0  0  0  0  0  0  0  0  0  0  0  0
  138.4538   79.1275  221.1133 H   0  0  0  0  0  0  0  0  0  0  0  0
  139.7762   77.8840  219.8533 H   0  0  0  0  0  0  0  0  0  0  0  0
  141.2716   78.7985  220.0514 H   0  0  0  0  0  0  0  0  0  0  0  0
  141.2419   76.1020  219.5644 H   0  0  0  0  0  0  0  0  0  0  0  0
  142.5319   76.8589  220.5367 H   0  0  0  0  0  0  0  0  0  0  0  0
  139.9798   74.7778  220.2257 H   0  0  0  0  0  0  0  0  0  0  0  0
  140.9944   72.8224  220.6102 H   0  0  0  0  0  0  0  0  0  0  0  0
  141.9519   73.6550  221.9222 H   0  0  0  0  0  0  0  0  0  0  0  0
  140.8572   71.5458  222.6802 H   0  0  0  0  0  0  0  0  0  0  0  0
  140.3322   73.0331  223.5797 H   0  0  0  0  0  0  0  0  0  0  0  0
  138.7990   71.3630  221.5686 H   0  0  0  0  0  0  0  0  0  0  0  0
  138.3409   71.9224  223.2492 H   0  0  0  0  0  0  0  0  0  0  0  0
  137.9445   73.2363  220.6287 H   0  0  0  0  0  0  0  0  0  0  0  0
  137.0799   73.4298  222.2202 H   0  0  0  0  0  0  0  0  0  0  0  0
  138.1658   75.5327  221.5098 H   0  0  0  0  0  0  0  0  0  0  0  0
  138.8668   74.8805  223.0375 H   0  0  0  0  0  0  0  0  0  0  0  0
  139.3814   76.4899  222.8751 H   0  0  0  0  0  0  0  0  0  0  0  0
  140.9953   76.8982  223.5271 H   0  0  0  0  0  0  0  0  0  0  0  0
  143.1847   78.2626  222.3633 H   0  0  0  0  0  0  0  0  0  0  0  0
  144.3821   80.1136  223.5653 H   0  0  0  0  0  0  0  0  0  0  0  0
  143.0934   82.0556  224.4758 H   0  0  0  0  0  0  0  0  0  0  0  0
  140.6004   82.1623  224.1781 H   0  0  0  0  0  0  0  0  0  0  0  0
  1  2  2  0
  2  3  1  0
  3  4  2  0
  4  5  1  0
  5  6  2  0
  6  7  1  0
  7  8  1  0
  7  9  2  0
  9 10  1  0
 10 11  2  0
 11 12  1  0
  2 13  1  0
 13 14  1  0
 15 14  1  6
 15 16  1  0
 16 17  1  0
 17 18  1  0
 18 19  1  0
 19 20  1  0
 20 21  1  0
 21 22  1  0
 22 23  1  0
 23 24  1  0
 18 25  1  0
 15 26  1  0
 26 27  2  0
 27 28  1  0
 28 29  2  0
 29 30  1  0
 30 31  2  0
 12  3  1  0
 31 13  1  0
 11  5  1  0
 25 15  1  0
 31 26  1  0
 24 19  1  0
  4 32  1  0
  6 33  1  0
  9 34  1  0
 10 35  1  0
 12 36  1  0
 14 37  1  0
 14 38  1  0
 16 39  1  0
 16 40  1  0
 17 41  1  0
 17 42  1  0
 19 43  1  0
 20 44  1  0
 20 45  1  0
 21 46  1  0
 21 47  1  0
 22 48  1  0
 22 49  1  0
 23 50  1  0
 23 51  1  0
 24 52  1  0
 24 53  1  0
 25 54  1  0
 25 55  1  0
 27 56  1  0
 28 57  1  0
 29 58  1  0
 30 59  1  0
M  END
>  <UniqueID>  (23) 
178

>  <SMILES>  (23) 
O=C(c1cc2cc(F)ccc2[nH]1)N1C[C@@]2(CCN(C3CCCCC3)C2)c2ccccc21

>  <Energy>  (23) 
130.49395143905497

>  <Genealogy>  (23) 
O=C(c1cc2cc(F)ccc2[nH]1)N1C[C@@]2(CCN(C3CCCCC3)C2)c2ccccc21 (3D coordinates assigned)
O=C(c1cc2cc(F)ccc2[nH]1)N1C[C@@]2(CCN(C3CCCCC3)C2)c2ccccc21 (nonaromatic ring conformer: 130.49395143905497 kcal/mol)

>  <smiles>  (23) 
O=C(c1cc2cc(F)ccc2[nH]1)N1C[C@@]2(CCN(C3CCCCC3)C2)c2ccccc21

>  <score_type>  (23) 
oracle

>  <origin>  (23) 
autodockgpu

>  <m_score__min__energy>  (23) 
-8.3499999999999996

>  <m_primary>  (23) 
energy

>  <meeko>  (23) 
{"free_energy": -8.12, "intermolecular_energy": -9.01, "internal_energy": -1.31, "cluster_size": 5, "cluster_id": 3, "rank_in_cluster": 5}

>  <energy>  (23) 
-8.35

>  <cluster_rmsd>  (23) 
0.03

>  <rmsd>  (23) 
272.17

>  <cluster>  (23) 
1

$$$$
VDMKUDNKZWHZNN-SANMLTNENA-N
     RDKit          3D

 59 64  0  0  0  0  0  0  0  0999 V2000
  139.0020   75.7530  219.8890 O   0  0  0  0  0  0  0  0  0  0  0  0
  139.8920   75.6450  220.7760 C   0  0  0  0  0  0  0  0  0  0  0  0
  140.5140   76.8610  221.3250 C   0  0  0  0  0  0  0  0  0  0  0  0
  140.8250   77.0570  222.6690 C   0  0  0  0  0  0  0  0  0  0  0  0
  141.3540   78.3270  222.7310 C   0  0  0  0  0  0  0  0  0  0  0  0
  141.8380   79.0570  223.8150 C   0  0  0  0  0  0  0  0  0  0  0  0
  142.3170   80.3580  223.5700 C   0  0  0  0  0  0  0  0  0  0  0  0
  142.7980   81.1040  224.5940 F   0  0  0  0  0  0  0  0  0  0  0  0
  142.2930   80.8920  222.2610 C   0  0  0  0  0  0  0  0  0  0  0  0
  141.7960   80.1310  221.1880 C   0  0  0  0  0  0  0  0  0  0  0  0
  141.3340   78.8430  221.4620 C   0  0  0  0  0  0  0  0  0  0  0  0
  140.8180   77.9590  220.5930 N   0  0  0  0  0  0  0  0  0  0  0  0
  140.2660   74.3430  221.2540 N   0  0  0  0  0  0  0  0  0  0  0  0
  139.5710   73.6610  222.3480 C   0  0  0  0  0  0  0  0  0  0  0  0
  139.9910   72.1510  222.2640 C   0  0  2  0  0  0  0  0  0  0  0  0
  138.7910   71.2120  222.1220 C   0  0  0  0  0  0  0  0  0  0  0  0
  139.1790   69.9640  222.8900 C   0  0  0  0  0  0  0  0  0  0  0  0
  140.1580   70.3530  223.9170 N   0  0  0  0  0  0  0  0  0  0  0  0
  139.6100   70.3130  225.3010 C   0  0  0  0  0  0  0  0  0  0  0  0
  139.1810   68.8690  225.6940 C   0  0  0  0  0  0  0  0  0  0  0  0
  139.9790   68.2990  226.8750 C   0  0  0  0  0  0  0  0  0  0  0  0
  139.9180   69.2170  228.1080 C   0  0  0  0  0  0  0  0  0  0  0  0
  139.9980   70.7210  227.7720 C   0  0  0  0  0  0  0  0  0  0  0  0
  140.5290   70.9860  226.3600 C   0  0  0  0  0  0  0  0  0  0  0  0
  140.7460   71.6440  223.5100 C   0  0  0  0  0  0  0  0  0  0  0  0
  140.8680   72.1220  221.0390 C   0  0  0  0  0  0  0  0  0  0  0  0
  141.5400   71.0330  220.4690 C   0  0  0  0  0  0  0  0  0  0  0  0
  142.3390   71.2490  219.3360 C   0  0  0  0  0  0  0  0  0  0  0  0
  142.4670   72.5410  218.7960 C   0  0  0  0  0  0  0  0  0  0  0  0
  141.7940   73.6220  219.3850 C   0  0  0  0  0  0  0  0  0  0  0  0
  140.9910   73.3800  220.5050 C   0  0  0  0  0  0  0  0  0  0  0  0
  140.6796   76.3509  223.4998 H   0  0  0  0  0  0  0  0  0  0  0  0
  141.8455   78.6306  224.8290 H   0  0  0  0  0  0  0  0  0  0  0  0
  142.6661   81.9109  222.0805 H   0  0  0  0  0  0  0  0  0  0  0  0
  141.7722   80.5376  220.1662 H   0  0  0  0  0  0  0  0  0  0  0  0
  140.6530   78.1130  219.5730 H   0  0  0  0  0  0  0  0  0  0  0  0
  139.8738   74.0872  223.3158 H   0  0  0  0  0  0  0  0  0  0  0  0
  138.4805   73.7778  222.2630 H   0  0  0  0  0  0  0  0  0  0  0  0
  137.8890   71.6685  222.5556 H   0  0  0  0  0  0  0  0  0  0  0  0
  138.5578   70.9945  221.0692 H   0  0  0  0  0  0  0  0  0  0  0  0
  138.2896   69.5270  223.3675 H   0  0  0  0  0  0  0  0  0  0  0  0
  139.6121   69.2146  222.2111 H   0  0  0  0  0  0  0  0  0  0  0  0
  138.7024   70.9345  225.2958 H   0  0  0  0  0  0  0  0  0  0  0  0
  138.1155   68.8834  225.9670 H   0  0  0  0  0  0  0  0  0  0  0  0
  139.3776   68.2229  224.8257 H   0  0  0  0  0  0  0  0  0  0  0  0
  139.5638   67.3163  227.1430 H   0  0  0  0  0  0  0  0  0  0  0  0
  141.0312   68.2152  226.5654 H   0  0  0  0  0  0  0  0  0  0  0  0
  138.9698   69.0293  228.6330 H   0  0  0  0  0  0  0  0  0  0  0  0
  140.7967   68.9806  228.7260 H   0  0  0  0  0  0  0  0  0  0  0  0
  138.9902   71.1539  227.8556 H   0  0  0  0  0  0  0  0  0  0  0  0
  140.7002   71.1822  228.4820 H   0  0  0  0  0  0  0  0  0  0  0  0
  140.5554   72.0709  226.1802 H   0  0  0  0  0  0  0  0  0  0  0  0
  141.5413   70.5643  226.2741 H   0  0  0  0  0  0  0  0  0  0  0  0
  140.6449   72.3727  224.3278 H   0  0  0  0  0  0  0  0  0  0  0  0
  141.8141   71.5172  223.2794 H   0  0  0  0  0  0  0  0  0  0  0  0
  141.4430   70.0264  220.9019 H   0  0  0  0  0  0  0  0  0  0  0  0
  142.8671   70.4048  218.8686 H   0  0  0  0  0  0  0  0  0  0  0  0
  143.0967   72.7047  217.9091 H   0  0  0  0  0  0  0  0  0  0  0  0
  141.8954   74.6378  218.9752 H   0  0  0  0  0  0  0  0  0  0  0  0
  1  2  2  0
  2  3  1  0
  3  4  2  0
  4  5  1  0
  5  6  2  0
  6  7  1  0
  7  8  1  0
  7  9  2  0
  9 10  1  0
 10 11  2  0
 11 12  1  0
  2 13  1  0
 13 14  1  0
 15 14  1  1
 15 16  1  0
 16 17  1  0
 17 18  1  0
 18 19  1  0
 19 20  1  0
 20 21  1  0
 21 22  1  0
 22 23  1  0
 23 24  1  0
 18 25  1  0
 15 26  1  0
 26 27  2  0
 27 28  1  0
 28 29  2  0
 29 30  1  0
 30 31  2  0
 12  3  1  0
 31 13  1  0
 11  5  1  0
 25 15  1  0
 31 26  1  0
 24 19  1  0
  4 32  1  0
  6 33  1  0
  9 34  1  0
 10 35  1  0
 12 36  1  0
 14 37  1  0
 14 38  1  0
 16 39  1  0
 16 40  1  0
 17 41  1  0
 17 42  1  0
 19 43  1  0
 20 44  1  0
 20 45  1  0
 21 46  1  0
 21 47  1  0
 22 48  1  0
 22 49  1  0
 23 50  1  0
 23 51  1  0
 24 52  1  0
 24 53  1  0
 25 54  1  0
 25 55  1  0
 27 56  1  0
 28 57  1  0
 29 58  1  0
 30 59  1  0
M  END
>  <UniqueID>  (24) 
178

>  <SMILES>  (24) 
O=C(c1cc2cc(F)ccc2[nH]1)N1C[C@@]2(CCN(C3CCCCC3)C2)c2ccccc21

>  <Energy>  (24) 
130.49395143905497

>  <Genealogy>  (24) 
O=C(c1cc2cc(F)ccc2[nH]1)N1C[C@@]2(CCN(C3CCCCC3)C2)c2ccccc21 (3D coordinates assigned)
O=C(c1cc2cc(F)ccc2[nH]1)N1C[C@@]2(CCN(C3CCCCC3)C2)c2ccccc21 (nonaromatic ring conformer: 130.49395143905497 kcal/mol)

>  <smiles>  (24) 
O=C(c1cc2cc(F)ccc2[nH]1)N1C[C@@]2(CCN(C3CCCCC3)C2)c2ccccc21

>  <score_type>  (24) 
oracle

>  <origin>  (24) 
autodockgpu

>  <m_score__min__energy>  (24) 
-8.3499999999999996

>  <m_primary>  (24) 
energy

>  <meeko>  (24) 
{"free_energy": -8.34, "intermolecular_energy": -9.24, "internal_energy": -1.15, "cluster_size": 11, "cluster_id": 1, "rank_in_cluster": 8}

>  <energy>  (24) 
-8.35

>  <cluster_rmsd>  (24) 
0.03

>  <rmsd>  (24) 
272.18

>  <cluster>  (24) 
1

$$$$
VDMKUDNKZWHZNN-SANMLTNENA-N
     RDKit          3D

 59 64  0  0  0  0  0  0  0  0999 V2000
  139.0620   75.7060  219.7970 O   0  0  0  0  0  0  0  0  0  0  0  0
  139.9230   75.5960  220.7120 C   0  0  0  0  0  0  0  0  0  0  0  0
  140.5390   76.8110  221.2720 C   0  0  0  0  0  0  0  0  0  0  0  0
  140.8380   77.0020  222.6190 C   0  0  0  0  0  0  0  0  0  0  0  0
  141.3640   78.2720  222.6910 C   0  0  0  0  0  0  0  0  0  0  0  0
  141.8380   78.9990  223.7820 C   0  0  0  0  0  0  0  0  0  0  0  0
  142.3170   80.3010  223.5460 C   0  0  0  0  0  0  0  0  0  0  0  0
  142.7890   81.0430  224.5780 F   0  0  0  0  0  0  0  0  0  0  0  0
  142.3050   80.8410  222.2390 C   0  0  0  0  0  0  0  0  0  0  0  0
  141.8190   80.0820  221.1590 C   0  0  0  0  0  0  0  0  0  0  0  0
  141.3550   78.7940  221.4240 C   0  0  0  0  0  0  0  0  0  0  0  0
  140.8490   77.9120  220.5460 N   0  0  0  0  0  0  0  0  0  0  0  0
  140.2710   74.2950  221.2110 N   0  0  0  0  0  0  0  0  0  0  0  0
  139.5840   73.6590  222.3380 C   0  0  0  0  0  0  0  0  0  0  0  0
  139.9560   72.1360  222.2780 C   0  0  2  0  0  0  0  0  0  0  0  0
  138.7260   71.2300  222.1890 C   0  0  0  0  0  0  0  0  0  0  0  0
  139.0960   69.9890  222.9760 C   0  0  0  0  0  0  0  0  0  0  0  0
  140.1130   70.3710  223.9680 N   0  0  0  0  0  0  0  0  0  0  0  0
  139.6010   70.3790  225.3660 C   0  0  0  0  0  0  0  0  0  0  0  0
  139.1380   68.9580  225.8030 C   0  0  0  0  0  0  0  0  0  0  0  0
  139.9480   68.3900  226.9770 C   0  0  0  0  0  0  0  0  0  0  0  0
  139.9490   69.3360  228.1890 C   0  0  0  0  0  0  0  0  0  0  0  0
  140.0650   70.8300  227.8170 C   0  0  0  0  0  0  0  0  0  0  0  0
  140.5670   71.0460  226.3860 C   0  0  0  0  0  0  0  0  0  0  0  0
  140.7290   71.6340  223.5160 C   0  0  0  0  0  0  0  0  0  0  0  0
  140.8000   72.0520  221.0320 C   0  0  0  0  0  0  0  0  0  0  0  0
  141.4240   70.9310  220.4710 C   0  0  0  0  0  0  0  0  0  0  0  0
  142.1990   71.0970  219.3130 C   0  0  0  0  0  0  0  0  0  0  0  0
  142.3510   72.3720  218.7400 C   0  0  0  0  0  0  0  0  0  0  0  0
  141.7270   73.4860  219.3210 C   0  0  0  0  0  0  0  0  0  0  0  0
  140.9460   73.2930  220.4660 C   0  0  0  0  0  0  0  0  0  0  0  0
  140.6867   76.2922  223.4456 H   0  0  0  0  0  0  0  0  0  0  0  0
  141.8376   78.5689  224.7944 H   0  0  0  0  0  0  0  0  0  0  0  0
  142.6781   81.8612  222.0658 H   0  0  0  0  0  0  0  0  0  0  0  0
  141.8054   80.4914  220.1381 H   0  0  0  0  0  0  0  0  0  0  0  0
  140.6920   78.0700  219.5250 H   0  0  0  0  0  0  0  0  0  0  0  0
  139.9244   74.0971  223.2878 H   0  0  0  0  0  0  0  0  0  0  0  0
  138.4957   73.8073  222.2779 H   0  0  0  0  0  0  0  0  0  0  0  0
  137.8494   71.7232  222.6342 H   0  0  0  0  0  0  0  0  0  0  0  0
  138.4599   70.9952  221.1478 H   0  0  0  0  0  0  0  0  0  0  0  0
  138.2066   69.5908  223.4864 H   0  0  0  0  0  0  0  0  0  0  0  0
  139.4882   69.2112  222.3042 H   0  0  0  0  0  0  0  0  0  0  0  0
  138.7136   71.0290  225.3693 H   0  0  0  0  0  0  0  0  0  0  0  0
  138.0807   69.0117  226.1018 H   0  0  0  0  0  0  0  0  0  0  0  0
  139.2926   68.2867  224.9454 H   0  0  0  0  0  0  0  0  0  0  0  0
  139.5089   67.4275  227.2784 H   0  0  0  0  0  0  0  0  0  0  0  0
  140.9886   68.2661  226.6426 H   0  0  0  0  0  0  0  0  0  0  0  0
  139.0105   69.1891  228.7437 H   0  0  0  0  0  0  0  0  0  0  0  0
  140.8373   69.0864  228.7879 H   0  0  0  0  0  0  0  0  0  0  0  0
  139.0732   71.2953  227.9159 H   0  0  0  0  0  0  0  0  0  0  0  0
  140.7982   71.2860  228.4985 H   0  0  0  0  0  0  0  0  0  0  0  0
  140.6224   72.1252  226.1804 H   0  0  0  0  0  0  0  0  0  0  0  0
  141.5630   70.5902  226.2847 H   0  0  0  0  0  0  0  0  0  0  0  0
  140.6719   72.3836  224.3190 H   0  0  0  0  0  0  0  0  0  0  0  0
  141.7863   71.4693  223.2609 H   0  0  0  0  0  0  0  0  0  0  0  0
  141.3087   69.9379  220.9298 H   0  0  0  0  0  0  0  0  0  0  0  0
  142.6892   70.2268  218.8520 H   0  0  0  0  0  0  0  0  0  0  0  0
  142.9612   72.4963  217.8332 H   0  0  0  0  0  0  0  0  0  0  0  0
  141.8489   74.4890  218.8862 H   0  0  0  0  0  0  0  0  0  0  0  0
  1  2  2  0
  2  3  1  0
  3  4  2  0
  4  5  1  0
  5  6  2  0
  6  7  1  0
  7  8  1  0
  7  9  2  0
  9 10  1  0
 10 11  2  0
 11 12  1  0
  2 13  1  0
 13 14  1  0
 15 14  1  1
 15 16  1  0
 16 17  1  0
 17 18  1  0
 18 19  1  0
 19 20  1  0
 20 21  1  0
 21 22  1  0
 22 23  1  0
 23 24  1  0
 18 25  1  0
 15 26  1  0
 26 27  2  0
 27 28  1  0
 28 29  2  0
 29 30  1  0
 30 31  2  0
 12  3  1  0
 31 13  1  0
 11  5  1  0
 25 15  1  0
 31 26  1  0
 24 19  1  0
  4 32  1  0
  6 33  1  0
  9 34  1  0
 10 35  1  0
 12 36  1  0
 14 37  1  0
 14 38  1  0
 16 39  1  0
 16 40  1  0
 17 41  1  0
 17 42  1  0
 19 43  1  0
 20 44  1  0
 20 45  1  0
 21 46  1  0
 21 47  1  0
 22 48  1  0
 22 49  1  0
 23 50  1  0
 23 51  1  0
 24 52  1  0
 24 53  1  0
 25 54  1  0
 25 55  1  0
 27 56  1  0
 28 57  1  0
 29 58  1  0
 30 59  1  0
M  END
>  <UniqueID>  (25) 
178

>  <SMILES>  (25) 
O=C(c1cc2cc(F)ccc2[nH]1)N1C[C@@]2(CCN(C3CCCCC3)C2)c2ccccc21

>  <Energy>  (25) 
130.49395143905497

>  <Genealogy>  (25) 
O=C(c1cc2cc(F)ccc2[nH]1)N1C[C@@]2(CCN(C3CCCCC3)C2)c2ccccc21 (3D coordinates assigned)
O=C(c1cc2cc(F)ccc2[nH]1)N1C[C@@]2(CCN(C3CCCCC3)C2)c2ccccc21 (nonaromatic ring conformer: 130.49395143905497 kcal/mol)

>  <smiles>  (25) 
O=C(c1cc2cc(F)ccc2[nH]1)N1C[C@@]2(CCN(C3CCCCC3)C2)c2ccccc21

>  <score_type>  (25) 
oracle

>  <origin>  (25) 
autodockgpu

>  <m_score__min__energy>  (25) 
-8.3499999999999996

>  <m_primary>  (25) 
energy

>  <meeko>  (25) 
{"free_energy": -8.34, "intermolecular_energy": -9.24, "internal_energy": -1.15, "cluster_size": 11, "cluster_id": 1, "rank_in_cluster": 9}

>  <energy>  (25) 
-8.35

>  <cluster_rmsd>  (25) 
0.03

>  <rmsd>  (25) 
272.16

>  <cluster>  (25) 
1

$$$$
VDMKUDNKZWHZNN-SANMLTNENA-N
     RDKit          3D

 59 64  0  0  0  0  0  0  0  0999 V2000
  139.9320   74.3000  222.0120 O   0  0  0  0  0  0  0  0  0  0  0  0
  140.8700   74.8970  221.4170 C   0  0  0  0  0  0  0  0  0  0  0  0
  142.0430   74.1280  220.9670 C   0  0  0  0  0  0  0  0  0  0  0  0
  142.0270   72.7740  220.6400 C   0  0  0  0  0  0  0  0  0  0  0  0
  143.3280   72.4720  220.3080 C   0  0  0  0  0  0  0  0  0  0  0  0
  143.9070   71.2720  219.9000 C   0  0  0  0  0  0  0  0  0  0  0  0
  145.2890   71.2650  219.6330 C   0  0  0  0  0  0  0  0  0  0  0  0
  145.8930   70.1190  219.2330 F   0  0  0  0  0  0  0  0  0  0  0  0
  146.0510   72.4460  219.7840 C   0  0  0  0  0  0  0  0  0  0  0  0
  145.4380   73.6430  220.1990 C   0  0  0  0  0  0  0  0  0  0  0  0
  144.0660   73.6180  220.4510 C   0  0  0  0  0  0  0  0  0  0  0  0
  143.2930   74.6380  220.8580 N   0  0  0  0  0  0  0  0  0  0  0  0
  140.7710   76.3070  221.1650 N   0  0  0  0  0  0  0  0  0  0  0  0
  140.3830   77.2800  222.1900 C   0  0  0  0  0  0  0  0  0  0  0  0
  140.8090   78.6880  221.6450 C   0  0  2  0  0  0  0  0  0  0  0  0
  141.7580   79.4260  222.5920 C   0  0  0  0  0  0  0  0  0  0  0  0
  141.3900   80.8900  222.4530 C   0  0  0  0  0  0  0  0  0  0  0  0
  139.9850   80.9620  222.0250 N   0  0  0  0  0  0  0  0  0  0  0  0
  139.0670   81.4490  223.0910 C   0  0  0  0  0  0  0  0  0  0  0  0
  137.7680   82.0540  222.4820 C   0  0  0  0  0  0  0  0  0  0  0  0
  136.4970   81.2910  222.8820 C   0  0  0  0  0  0  0  0  0  0  0  0
  136.3520   81.1720  224.4080 C   0  0  0  0  0  0  0  0  0  0  0  0
  137.6820   80.9030  225.1430 C   0  0  0  0  0  0  0  0  0  0  0  0
  138.7870   80.4020  224.2070 C   0  0  0  0  0  0  0  0  0  0  0  0
  139.6270   79.6580  221.4340 C   0  0  0  0  0  0  0  0  0  0  0  0
  141.4800   78.3470  220.3400 C   0  0  0  0  0  0  0  0  0  0  0  0
  142.0600   79.2100  219.4020 C   0  0  0  0  0  0  0  0  0  0  0  0
  142.6010   78.6660  218.2270 C   0  0  0  0  0  0  0  0  0  0  0  0
  142.5470   77.2800  217.9980 C   0  0  0  0  0  0  0  0  0  0  0  0
  141.9540   76.4310  218.9440 C   0  0  0  0  0  0  0  0  0  0  0  0
  141.4350   76.9940  220.1160 C   0  0  0  0  0  0  0  0  0  0  0  0
  141.1624   72.0940  220.6459 H   0  0  0  0  0  0  0  0  0  0  0  0
  143.3032   70.3591  219.7901 H   0  0  0  0  0  0  0  0  0  0  0  0
  147.1309   72.4293  219.5756 H   0  0  0  0  0  0  0  0  0  0  0  0
  146.0213   74.5676  220.3207 H   0  0  0  0  0  0  0  0  0  0  0  0
  143.6090   75.6080  221.0820 H   0  0  0  0  0  0  0  0  0  0  0  0
  139.2957   77.2479  222.3533 H   0  0  0  0  0  0  0  0  0  0  0  0
  140.8677   77.0608  223.1529 H   0  0  0  0  0  0  0  0  0  0  0  0
  141.6112   79.0871  223.6281 H   0  0  0  0  0  0  0  0  0  0  0  0
  142.8140   79.2401  222.3467 H   0  0  0  0  0  0  0  0  0  0  0  0
  141.5132   81.4002  223.4197 H   0  0  0  0  0  0  0  0  0  0  0  0
  142.0418   81.3815  221.7157 H   0  0  0  0  0  0  0  0  0  0  0  0
  139.5958   82.2624  223.6094 H   0  0  0  0  0  0  0  0  0  0  0  0
  137.6732   83.0947  222.8255 H   0  0  0  0  0  0  0  0  0  0  0  0
  137.8585   81.9852  221.3879 H   0  0  0  0  0  0  0  0  0  0  0  0
  135.6220   81.8249  222.4828 H   0  0  0  0  0  0  0  0  0  0  0  0
  136.5666   80.2745  222.4673 H   0  0  0  0  0  0  0  0  0  0  0  0
  135.9291   82.1128  224.7902 H   0  0  0  0  0  0  0  0  0  0  0  0
  135.7000   80.3072  224.6005 H   0  0  0  0  0  0  0  0  0  0  0  0
  138.0182   81.8381  225.6148 H   0  0  0  0  0  0  0  0  0  0  0  0
  137.4956   80.1146  225.8871 H   0  0  0  0  0  0  0  0  0  0  0  0
  139.7065   80.2361  224.7876 H   0  0  0  0  0  0  0  0  0  0  0  0
  138.4604   79.4610  223.7402 H   0  0  0  0  0  0  0  0  0  0  0  0
  138.7275   79.2608  221.9271 H   0  0  0  0  0  0  0  0  0  0  0  0
  139.4192   79.7735  220.3600 H   0  0  0  0  0  0  0  0  0  0  0  0
  142.0910   80.2946  219.5829 H   0  0  0  0  0  0  0  0  0  0  0  0
  143.0691   79.3266  217.4823 H   0  0  0  0  0  0  0  0  0  0  0  0
  142.9711   76.8600  217.0740 H   0  0  0  0  0  0  0  0  0  0  0  0
  141.8980   75.3465  218.7688 H   0  0  0  0  0  0  0  0  0  0  0  0
  1  2  2  0
  2  3  1  0
  3  4  2  0
  4  5  1  0
  5  6  2  0
  6  7  1  0
  7  8  1  0
  7  9  2  0
  9 10  1  0
 10 11  2  0
 11 12  1  0
  2 13  1  0
 13 14  1  0
 15 14  1  1
 15 16  1  0
 16 17  1  0
 17 18  1  0
 18 19  1  0
 19 20  1  0
 20 21  1  0
 21 22  1  0
 22 23  1  0
 23 24  1  0
 18 25  1  0
 15 26  1  0
 26 27  2  0
 27 28  1  0
 28 29  2  0
 29 30  1  0
 30 31  2  0
 12  3  1  0
 31 13  1  0
 11  5  1  0
 25 15  1  0
 31 26  1  0
 24 19  1  0
  4 32  1  0
  6 33  1  0
  9 34  1  0
 10 35  1  0
 12 36  1  0
 14 37  1  0
 14 38  1  0
 16 39  1  0
 16 40  1  0
 17 41  1  0
 17 42  1  0
 19 43  1  0
 20 44  1  0
 20 45  1  0
 21 46  1  0
 21 47  1  0
 22 48  1  0
 22 49  1  0
 23 50  1  0
 23 51  1  0
 24 52  1  0
 24 53  1  0
 25 54  1  0
 25 55  1  0
 27 56  1  0
 28 57  1  0
 29 58  1  0
 30 59  1  0
M  END
>  <UniqueID>  (26) 
178

>  <SMILES>  (26) 
O=C(c1cc2cc(F)ccc2[nH]1)N1C[C@@]2(CCN(C3CCCCC3)C2)c2ccccc21

>  <Energy>  (26) 
130.49395143905497

>  <Genealogy>  (26) 
O=C(c1cc2cc(F)ccc2[nH]1)N1C[C@@]2(CCN(C3CCCCC3)C2)c2ccccc21 (3D coordinates assigned)
O=C(c1cc2cc(F)ccc2[nH]1)N1C[C@@]2(CCN(C3CCCCC3)C2)c2ccccc21 (nonaromatic ring conformer: 130.49395143905497 kcal/mol)

>  <smiles>  (26) 
O=C(c1cc2cc(F)ccc2[nH]1)N1C[C@@]2(CCN(C3CCCCC3)C2)c2ccccc21

>  <score_type>  (26) 
oracle

>  <origin>  (26) 
autodockgpu

>  <m_score__min__energy>  (26) 
-8.3499999999999996

>  <m_primary>  (26) 
energy

>  <meeko>  (26) 
{"free_energy": -8.18, "intermolecular_energy": -9.08, "internal_energy": -1.27, "cluster_size": 3, "cluster_id": 2, "rank_in_cluster": 2}

>  <energy>  (26) 
-8.35

>  <cluster_rmsd>  (26) 
0.05

>  <rmsd>  (26) 
272.18

>  <cluster>  (26) 
1

$$$$
VDMKUDNKZWHZNN-SANMLTNENA-N
     RDKit          3D

 59 64  0  0  0  0  0  0  0  0999 V2000
  138.9890   75.7430  219.8710 O   0  0  0  0  0  0  0  0  0  0  0  0
  139.8760   75.6360  220.7610 C   0  0  0  0  0  0  0  0  0  0  0  0
  140.4960   76.8540  221.3100 C   0  0  0  0  0  0  0  0  0  0  0  0
  140.7940   77.0560  222.6560 C   0  0  0  0  0  0  0  0  0  0  0  0
  141.3260   78.3250  222.7170 C   0  0  0  0  0  0  0  0  0  0  0  0
  141.8010   79.0590  223.8010 C   0  0  0  0  0  0  0  0  0  0  0  0
  142.2860   80.3570  223.5550 C   0  0  0  0  0  0  0  0  0  0  0  0
  142.7590   81.1070  224.5800 F   0  0  0  0  0  0  0  0  0  0  0  0
  142.2780   80.8850  222.2430 C   0  0  0  0  0  0  0  0  0  0  0  0
  141.7890   80.1190  221.1690 C   0  0  0  0  0  0  0  0  0  0  0  0
  141.3210   78.8340  221.4450 C   0  0  0  0  0  0  0  0  0  0  0  0
  140.8120   77.9470  220.5750 N   0  0  0  0  0  0  0  0  0  0  0  0
  140.2490   74.3360  221.2420 N   0  0  0  0  0  0  0  0  0  0  0  0
  139.5580   73.6610  222.3440 C   0  0  0  0  0  0  0  0  0  0  0  0
  139.9730   72.1490  222.2630 C   0  0  2  0  0  0  0  0  0  0  0  0
  138.7690   71.2130  222.1330 C   0  0  0  0  0  0  0  0  0  0  0  0
  139.1570   69.9670  222.9040 C   0  0  0  0  0  0  0  0  0  0  0  0
  140.1440   70.3580  223.9230 N   0  0  0  0  0  0  0  0  0  0  0  0
  139.6060   70.3260  225.3110 C   0  0  0  0  0  0  0  0  0  0  0  0
  139.1900   68.8820  225.7200 C   0  0  0  0  0  0  0  0  0  0  0  0
  140.0000   68.3290  226.9010 C   0  0  0  0  0  0  0  0  0  0  0  0
  139.9400   69.2570  228.1260 C   0  0  0  0  0  0  0  0  0  0  0  0
  140.0050   70.7590  227.7760 C   0  0  0  0  0  0  0  0  0  0  0  0
  140.5260   71.0150  226.3590 C   0  0  0  0  0  0  0  0  0  0  0  0
  140.7350   71.6450  223.5070 C   0  0  0  0  0  0  0  0  0  0  0  0
  140.8420   72.1120  221.0330 C   0  0  0  0  0  0  0  0  0  0  0  0
  141.5070   71.0180  220.4640 C   0  0  0  0  0  0  0  0  0  0  0  0
  142.2990   71.2260  219.3250 C   0  0  0  0  0  0  0  0  0  0  0  0
  142.4270   72.5150  218.7780 C   0  0  0  0  0  0  0  0  0  0  0  0
  141.7620   73.6010  219.3660 C   0  0  0  0  0  0  0  0  0  0  0  0
  140.9650   73.3670  220.4930 C   0  0  0  0  0  0  0  0  0  0  0  0
  140.6383   76.3545  223.4889 H   0  0  0  0  0  0  0  0  0  0  0  0
  141.7972   78.6376  224.8171 H   0  0  0  0  0  0  0  0  0  0  0  0
  142.6567   81.9016  222.0610 H   0  0  0  0  0  0  0  0  0  0  0  0
  141.7761   80.5202  220.1449 H   0  0  0  0  0  0  0  0  0  0  0  0
  140.6570   78.0960  219.5520 H   0  0  0  0  0  0  0  0  0  0  0  0
  139.8683   74.0902  223.3081 H   0  0  0  0  0  0  0  0  0  0  0  0
  138.4674   73.7813  222.2659 H   0  0  0  0  0  0  0  0  0  0  0  0
  137.8713   71.6745  222.5702 H   0  0  0  0  0  0  0  0  0  0  0  0
  138.5289   70.9914  221.0826 H   0  0  0  0  0  0  0  0  0  0  0  0
  138.2691   69.5355  223.3892 H   0  0  0  0  0  0  0  0  0  0  0  0
  139.5827   69.2126  222.2261 H   0  0  0  0  0  0  0  0  0  0  0  0
  138.6942   70.9413  225.3054 H   0  0  0  0  0  0  0  0  0  0  0  0
  138.1262   68.8910  225.9998 H   0  0  0  0  0  0  0  0  0  0  0  0
  139.3855   68.2294  224.8564 H   0  0  0  0  0  0  0  0  0  0  0  0
  139.5942   67.3455  227.1804 H   0  0  0  0  0  0  0  0  0  0  0  0
  141.0508   68.2509  226.5852 H   0  0  0  0  0  0  0  0  0  0  0  0
  138.9971   69.0661  228.6594 H   0  0  0  0  0  0  0  0  0  0  0  0
  140.8250   69.0334  228.7399 H   0  0  0  0  0  0  0  0  0  0  0  0
  138.9940   71.1840  227.8611 H   0  0  0  0  0  0  0  0  0  0  0  0
  140.7067   71.2331  228.4780 H   0  0  0  0  0  0  0  0  0  0  0  0
  140.5436   72.0984  226.1694 H   0  0  0  0  0  0  0  0  0  0  0  0
  141.5408   70.5997  226.2712 H   0  0  0  0  0  0  0  0  0  0  0  0
  140.6421   72.3777  224.3222 H   0  0  0  0  0  0  0  0  0  0  0  0
  141.8012   71.5135  223.2707 H   0  0  0  0  0  0  0  0  0  0  0  0
  141.4098   70.0139  220.9026 H   0  0  0  0  0  0  0  0  0  0  0  0
  142.8216   70.3780  218.8583 H   0  0  0  0  0  0  0  0  0  0  0  0
  143.0509   72.6723  217.8858 H   0  0  0  0  0  0  0  0  0  0  0  0
  141.8644   74.6144  218.9507 H   0  0  0  0  0  0  0  0  0  0  0  0
  1  2  2  0
  2  3  1  0
  3  4  2  0
  4  5  1  0
  5  6  2  0
  6  7  1  0
  7  8  1  0
  7  9  2  0
  9 10  1  0
 10 11  2  0
 11 12  1  0
  2 13  1  0
 13 14  1  0
 15 14  1  1
 15 16  1  0
 16 17  1  0
 17 18  1  0
 18 19  1  0
 19 20  1  0
 20 21  1  0
 21 22  1  0
 22 23  1  0
 23 24  1  0
 18 25  1  0
 15 26  1  0
 26 27  2  0
 27 28  1  0
 28 29  2  0
 29 30  1  0
 30 31  2  0
 12  3  1  0
 31 13  1  0
 11  5  1  0
 25 15  1  0
 31 26  1  0
 24 19  1  0
  4 32  1  0
  6 33  1  0
  9 34  1  0
 10 35  1  0
 12 36  1  0
 14 37  1  0
 14 38  1  0
 16 39  1  0
 16 40  1  0
 17 41  1  0
 17 42  1  0
 19 43  1  0
 20 44  1  0
 20 45  1  0
 21 46  1  0
 21 47  1  0
 22 48  1  0
 22 49  1  0
 23 50  1  0
 23 51  1  0
 24 52  1  0
 24 53  1  0
 25 54  1  0
 25 55  1  0
 27 56  1  0
 28 57  1  0
 29 58  1  0
 30 59  1  0
M  END
>  <UniqueID>  (27) 
178

>  <SMILES>  (27) 
O=C(c1cc2cc(F)ccc2[nH]1)N1C[C@@]2(CCN(C3CCCCC3)C2)c2ccccc21

>  <Energy>  (27) 
130.49395143905497

>  <Genealogy>  (27) 
O=C(c1cc2cc(F)ccc2[nH]1)N1C[C@@]2(CCN(C3CCCCC3)C2)c2ccccc21 (3D coordinates assigned)
O=C(c1cc2cc(F)ccc2[nH]1)N1C[C@@]2(CCN(C3CCCCC3)C2)c2ccccc21 (nonaromatic ring conformer: 130.49395143905497 kcal/mol)

>  <smiles>  (27) 
O=C(c1cc2cc(F)ccc2[nH]1)N1C[C@@]2(CCN(C3CCCCC3)C2)c2ccccc21

>  <score_type>  (27) 
oracle

>  <origin>  (27) 
autodockgpu

>  <m_score__min__energy>  (27) 
-8.3499999999999996

>  <m_primary>  (27) 
energy

>  <meeko>  (27) 
{"free_energy": -8.35, "intermolecular_energy": -9.24, "internal_energy": -1.15, "cluster_size": 11, "cluster_id": 1, "rank_in_cluster": 7}

>  <energy>  (27) 
-8.35

>  <cluster_rmsd>  (27) 
0.05

>  <rmsd>  (27) 
272.18

>  <cluster>  (27) 
1

$$$$
VDMKUDNKZWHZNN-SANMLTNENA-N
     RDKit          3D

 59 64  0  0  0  0  0  0  0  0999 V2000
  139.0020   75.7380  219.8640 O   0  0  0  0  0  0  0  0  0  0  0  0
  139.8880   75.6310  220.7560 C   0  0  0  0  0  0  0  0  0  0  0  0
  140.5110   76.8490  221.3020 C   0  0  0  0  0  0  0  0  0  0  0  0
  140.8180   77.0500  222.6460 C   0  0  0  0  0  0  0  0  0  0  0  0
  141.3500   78.3180  222.7040 C   0  0  0  0  0  0  0  0  0  0  0  0
  141.8320   79.0520  223.7860 C   0  0  0  0  0  0  0  0  0  0  0  0
  142.3160   80.3500  223.5370 C   0  0  0  0  0  0  0  0  0  0  0  0
  142.7960   81.0990  224.5600 F   0  0  0  0  0  0  0  0  0  0  0  0
  142.2990   80.8790  222.2250 C   0  0  0  0  0  0  0  0  0  0  0  0
  141.8040   80.1130  221.1540 C   0  0  0  0  0  0  0  0  0  0  0  0
  141.3370   78.8290  221.4320 C   0  0  0  0  0  0  0  0  0  0  0  0
  140.8220   77.9420  220.5650 N   0  0  0  0  0  0  0  0  0  0  0  0
  140.2550   74.3310  221.2430 N   0  0  0  0  0  0  0  0  0  0  0  0
  139.5600   73.6620  222.3450 C   0  0  0  0  0  0  0  0  0  0  0  0
  139.9690   72.1490  222.2700 C   0  0  2  0  0  0  0  0  0  0  0  0
  138.7630   71.2170  222.1410 C   0  0  0  0  0  0  0  0  0  0  0  0
  139.1450   69.9720  222.9170 C   0  0  0  0  0  0  0  0  0  0  0  0
  140.1300   70.3630  223.9370 N   0  0  0  0  0  0  0  0  0  0  0  0
  139.5890   70.3370  225.3230 C   0  0  0  0  0  0  0  0  0  0  0  0
  139.1420   68.9010  225.7270 C   0  0  0  0  0  0  0  0  0  0  0  0
  139.9380   68.3270  226.9080 C   0  0  0  0  0  0  0  0  0  0  0  0
  139.8950   69.2530  228.1360 C   0  0  0  0  0  0  0  0  0  0  0  0
  139.9920   70.7540  227.7910 C   0  0  0  0  0  0  0  0  0  0  0  0
  140.5210   71.0040  226.3750 C   0  0  0  0  0  0  0  0  0  0  0  0
  140.7260   71.6460  223.5180 C   0  0  0  0  0  0  0  0  0  0  0  0
  140.8410   72.1040  221.0420 C   0  0  0  0  0  0  0  0  0  0  0  0
  141.5030   71.0060  220.4790 C   0  0  0  0  0  0  0  0  0  0  0  0
  142.2990   71.2080  219.3410 C   0  0  0  0  0  0  0  0  0  0  0  0
  142.4330   72.4950  218.7900 C   0  0  0  0  0  0  0  0  0  0  0  0
  141.7700   73.5850  219.3730 C   0  0  0  0  0  0  0  0  0  0  0  0
  140.9700   73.3570  220.4980 C   0  0  0  0  0  0  0  0  0  0  0  0
  140.6678   76.3480  223.4795 H   0  0  0  0  0  0  0  0  0  0  0  0
  141.8342   78.6305  224.8020 H   0  0  0  0  0  0  0  0  0  0  0  0
  142.6754   81.8961  222.0411 H   0  0  0  0  0  0  0  0  0  0  0  0
  141.7859   80.5142  220.1299 H   0  0  0  0  0  0  0  0  0  0  0  0
  140.6610   78.0910  219.5440 H   0  0  0  0  0  0  0  0  0  0  0  0
  139.8701   74.0930  223.3084 H   0  0  0  0  0  0  0  0  0  0  0  0
  138.4700   73.7859  222.2640 H   0  0  0  0  0  0  0  0  0  0  0  0
  137.8660   71.6830  222.5748 H   0  0  0  0  0  0  0  0  0  0  0  0
  138.5245   70.9926  221.0909 H   0  0  0  0  0  0  0  0  0  0  0  0
  138.2544   69.5448  223.4011 H   0  0  0  0  0  0  0  0  0  0  0  0
  139.5702   69.2141  222.2426 H   0  0  0  0  0  0  0  0  0  0  0  0
  138.6897   70.9705  225.3173 H   0  0  0  0  0  0  0  0  0  0  0  0
  138.0781   68.9317  226.0050 H   0  0  0  0  0  0  0  0  0  0  0  0
  139.3255   68.2470  224.8618 H   0  0  0  0  0  0  0  0  0  0  0  0
  139.5109   67.3515  227.1836 H   0  0  0  0  0  0  0  0  0  0  0  0
  140.9875   68.2273  226.5941 H   0  0  0  0  0  0  0  0  0  0  0  0
  138.9473   69.0802  228.6670 H   0  0  0  0  0  0  0  0  0  0  0  0
  140.7741   69.0092  228.7507 H   0  0  0  0  0  0  0  0  0  0  0  0
  138.9899   71.1997  227.8758 H   0  0  0  0  0  0  0  0  0  0  0  0
  140.7024   71.2109  228.4957 H   0  0  0  0  0  0  0  0  0  0  0  0
  140.5609   72.0874  226.1889 H   0  0  0  0  0  0  0  0  0  0  0  0
  141.5273   70.5685  226.2877 H   0  0  0  0  0  0  0  0  0  0  0  0
  140.6335   72.3818  224.3305 H   0  0  0  0  0  0  0  0  0  0  0  0
  141.7922   71.5097  223.2845 H   0  0  0  0  0  0  0  0  0  0  0  0
  141.4010   70.0037  220.9206 H   0  0  0  0  0  0  0  0  0  0  0  0
  142.8199   70.3568  218.8784 H   0  0  0  0  0  0  0  0  0  0  0  0
  143.0598   72.6473  217.8989 H   0  0  0  0  0  0  0  0  0  0  0  0
  141.8767   74.5968  218.9549 H   0  0  0  0  0  0  0  0  0  0  0  0
  1  2  2  0
  2  3  1  0
  3  4  2  0
  4  5  1  0
  5  6  2  0
  6  7  1  0
  7  8  1  0
  7  9  2  0
  9 10  1  0
 10 11  2  0
 11 12  1  0
  2 13  1  0
 13 14  1  0
 15 14  1  1
 15 16  1  0
 16 17  1  0
 17 18  1  0
 18 19  1  0
 19 20  1  0
 20 21  1  0
 21 22  1  0
 22 23  1  0
 23 24  1  0
 18 25  1  0
 15 26  1  0
 26 27  2  0
 27 28  1  0
 28 29  2  0
 29 30  1  0
 30 31  2  0
 12  3  1  0
 31 13  1  0
 11  5  1  0
 25 15  1  0
 31 26  1  0
 24 19  1  0
  4 32  1  0
  6 33  1  0
  9 34  1  0
 10 35  1  0
 12 36  1  0
 14 37  1  0
 14 38  1  0
 16 39  1  0
 16 40  1  0
 17 41  1  0
 17 42  1  0
 19 43  1  0
 20 44  1  0
 20 45  1  0
 21 46  1  0
 21 47  1  0
 22 48  1  0
 22 49  1  0
 23 50  1  0
 23 51  1  0
 24 52  1  0
 24 53  1  0
 25 54  1  0
 25 55  1  0
 27 56  1  0
 28 57  1  0
 29 58  1  0
 30 59  1  0
M  END
>  <UniqueID>  (28) 
178

>  <SMILES>  (28) 
O=C(c1cc2cc(F)ccc2[nH]1)N1C[C@@]2(CCN(C3CCCCC3)C2)c2ccccc21

>  <Energy>  (28) 
130.49395143905497

>  <Genealogy>  (28) 
O=C(c1cc2cc(F)ccc2[nH]1)N1C[C@@]2(CCN(C3CCCCC3)C2)c2ccccc21 (3D coordinates assigned)
O=C(c1cc2cc(F)ccc2[nH]1)N1C[C@@]2(CCN(C3CCCCC3)C2)c2ccccc21 (nonaromatic ring conformer: 130.49395143905497 kcal/mol)

>  <smiles>  (28) 
O=C(c1cc2cc(F)ccc2[nH]1)N1C[C@@]2(CCN(C3CCCCC3)C2)c2ccccc21

>  <score_type>  (28) 
oracle

>  <origin>  (28) 
autodockgpu

>  <m_score__min__energy>  (28) 
-8.3499999999999996

>  <m_primary>  (28) 
energy

>  <meeko>  (28) 
{"free_energy": -8.35, "intermolecular_energy": -9.24, "internal_energy": -1.15, "cluster_size": 11, "cluster_id": 1, "rank_in_cluster": 6}

>  <energy>  (28) 
-8.34

>  <cluster_rmsd>  (28) 
0.08

>  <rmsd>  (28) 
272.19

>  <cluster>  (28) 
1

$$$$
VDMKUDNKZWHZNN-SANMLTNENA-N
     RDKit          3D

 59 64  0  0  0  0  0  0  0  0999 V2000
  139.0490   75.7010  219.8070 O   0  0  0  0  0  0  0  0  0  0  0  0
  139.9140   75.5930  220.7190 C   0  0  0  0  0  0  0  0  0  0  0  0
  140.5300   76.8100  221.2750 C   0  0  0  0  0  0  0  0  0  0  0  0
  140.8210   77.0080  222.6230 C   0  0  0  0  0  0  0  0  0  0  0  0
  141.3510   78.2770  222.6900 C   0  0  0  0  0  0  0  0  0  0  0  0
  141.8200   79.0090  223.7790 C   0  0  0  0  0  0  0  0  0  0  0  0
  142.3040   80.3090  223.5390 C   0  0  0  0  0  0  0  0  0  0  0  0
  142.7720   81.0560  224.5690 F   0  0  0  0  0  0  0  0  0  0  0  0
  142.3010   80.8410  222.2290 C   0  0  0  0  0  0  0  0  0  0  0  0
  141.8180   80.0770  221.1500 C   0  0  0  0  0  0  0  0  0  0  0  0
  141.3500   78.7910  221.4200 C   0  0  0  0  0  0  0  0  0  0  0  0
  140.8470   77.9060  220.5450 N   0  0  0  0  0  0  0  0  0  0  0  0
  140.2650   74.2940  221.2180 N   0  0  0  0  0  0  0  0  0  0  0  0
  139.5780   73.6540  222.3430 C   0  0  0  0  0  0  0  0  0  0  0  0
  139.9560   72.1320  222.2830 C   0  0  2  0  0  0  0  0  0  0  0  0
  138.7300   71.2220  222.1900 C   0  0  0  0  0  0  0  0  0  0  0  0
  139.1020   69.9820  222.9770 C   0  0  0  0  0  0  0  0  0  0  0  0
  140.1140   70.3680  223.9730 N   0  0  0  0  0  0  0  0  0  0  0  0
  139.5980   70.3730  225.3690 C   0  0  0  0  0  0  0  0  0  0  0  0
  139.1480   68.9480  225.8080 C   0  0  0  0  0  0  0  0  0  0  0  0
  139.9600   68.3900  226.9850 C   0  0  0  0  0  0  0  0  0  0  0  0
  139.9480   69.3380  228.1960 C   0  0  0  0  0  0  0  0  0  0  0  0
  140.0510   70.8320  227.8210 C   0  0  0  0  0  0  0  0  0  0  0  0
  140.5550   71.0510  226.3910 C   0  0  0  0  0  0  0  0  0  0  0  0
  140.7270   71.6330  223.5240 C   0  0  0  0  0  0  0  0  0  0  0  0
  140.8040   72.0530  221.0400 C   0  0  0  0  0  0  0  0  0  0  0  0
  141.4340   70.9340  220.4800 C   0  0  0  0  0  0  0  0  0  0  0  0
  142.2120   71.1040  219.3250 C   0  0  0  0  0  0  0  0  0  0  0  0
  142.3610   72.3800  218.7530 C   0  0  0  0  0  0  0  0  0  0  0  0
  141.7300   73.4910  219.3320 C   0  0  0  0  0  0  0  0  0  0  0  0
  140.9470   73.2950  220.4750 C   0  0  0  0  0  0  0  0  0  0  0  0
  140.6620   76.3039  223.4530 H   0  0  0  0  0  0  0  0  0  0  0  0
  141.8123   78.5846  224.7938 H   0  0  0  0  0  0  0  0  0  0  0  0
  142.6787   81.8588  222.0519 H   0  0  0  0  0  0  0  0  0  0  0  0
  141.8098   80.4810  220.1269 H   0  0  0  0  0  0  0  0  0  0  0  0
  140.6960   78.0580  219.5220 H   0  0  0  0  0  0  0  0  0  0  0  0
  139.9146   74.0927  223.2940 H   0  0  0  0  0  0  0  0  0  0  0  0
  138.4893   73.7979  222.2803 H   0  0  0  0  0  0  0  0  0  0  0  0
  137.8504   71.7118  222.6331 H   0  0  0  0  0  0  0  0  0  0  0  0
  138.4678   70.9870  221.1479 H   0  0  0  0  0  0  0  0  0  0  0  0
  138.2125   69.5797  223.4839 H   0  0  0  0  0  0  0  0  0  0  0  0
  139.4996   69.2062  222.3062 H   0  0  0  0  0  0  0  0  0  0  0  0
  138.7040   71.0139  225.3679 H   0  0  0  0  0  0  0  0  0  0  0  0
  138.0895   68.9919  226.1039 H   0  0  0  0  0  0  0  0  0  0  0  0
  139.3119   68.2767  224.9521 H   0  0  0  0  0  0  0  0  0  0  0  0
  139.5296   67.4236  227.2865 H   0  0  0  0  0  0  0  0  0  0  0  0
  141.0028   68.2761  226.6538 H   0  0  0  0  0  0  0  0  0  0  0  0
  139.0091   69.1832  228.7479 H   0  0  0  0  0  0  0  0  0  0  0  0
  140.8363   69.0978  228.7987 H   0  0  0  0  0  0  0  0  0  0  0  0
  139.0545   71.2879  227.9163 H   0  0  0  0  0  0  0  0  0  0  0  0
  140.7784   71.2957  228.5035 H   0  0  0  0  0  0  0  0  0  0  0  0
  140.6005   72.1304  226.1840 H   0  0  0  0  0  0  0  0  0  0  0  0
  141.5557   70.6049  226.2931 H   0  0  0  0  0  0  0  0  0  0  0  0
  140.6642   72.3822  224.3269 H   0  0  0  0  0  0  0  0  0  0  0  0
  141.7859   71.4727  223.2730 H   0  0  0  0  0  0  0  0  0  0  0  0
  141.3207   69.9401  220.9376 H   0  0  0  0  0  0  0  0  0  0  0  0
  142.7072   70.2361  218.8652 H   0  0  0  0  0  0  0  0  0  0  0  0
  142.9743   72.5073  217.8487 H   0  0  0  0  0  0  0  0  0  0  0  0
  141.8481   74.4944  218.8970 H   0  0  0  0  0  0  0  0  0  0  0  0
  1  2  2  0
  2  3  1  0
  3  4  2  0
  4  5  1  0
  5  6  2  0
  6  7  1  0
  7  8  1  0
  7  9  2  0
  9 10  1  0
 10 11  2  0
 11 12  1  0
  2 13  1  0
 13 14  1  0
 15 14  1  1
 15 16  1  0
 16 17  1  0
 17 18  1  0
 18 19  1  0
 19 20  1  0
 20 21  1  0
 21 22  1  0
 22 23  1  0
 23 24  1  0
 18 25  1  0
 15 26  1  0
 26 27  2  0
 27 28  1  0
 28 29  2  0
 29 30  1  0
 30 31  2  0
 12  3  1  0
 31 13  1  0
 11  5  1  0
 25 15  1  0
 31 26  1  0
 24 19  1  0
  4 32  1  0
  6 33  1  0
  9 34  1  0
 10 35  1  0
 12 36  1  0
 14 37  1  0
 14 38  1  0
 16 39  1  0
 16 40  1  0
 17 41  1  0
 17 42  1  0
 19 43  1  0
 20 44  1  0
 20 45  1  0
 21 46  1  0
 21 47  1  0
 22 48  1  0
 22 49  1  0
 23 50  1  0
 23 51  1  0
 24 52  1  0
 24 53  1  0
 25 54  1  0
 25 55  1  0
 27 56  1  0
 28 57  1  0
 29 58  1  0
 30 59  1  0
M  END
>  <UniqueID>  (29) 
178

>  <SMILES>  (29) 
O=C(c1cc2cc(F)ccc2[nH]1)N1C[C@@]2(CCN(C3CCCCC3)C2)c2ccccc21

>  <Energy>  (29) 
130.49395143905497

>  <Genealogy>  (29) 
O=C(c1cc2cc(F)ccc2[nH]1)N1C[C@@]2(CCN(C3CCCCC3)C2)c2ccccc21 (3D coordinates assigned)
O=C(c1cc2cc(F)ccc2[nH]1)N1C[C@@]2(CCN(C3CCCCC3)C2)c2ccccc21 (nonaromatic ring conformer: 130.49395143905497 kcal/mol)

>  <smiles>  (29) 
O=C(c1cc2cc(F)ccc2[nH]1)N1C[C@@]2(CCN(C3CCCCC3)C2)c2ccccc21

>  <score_type>  (29) 
oracle

>  <origin>  (29) 
autodockgpu

>  <m_score__min__energy>  (29) 
-8.3499999999999996

>  <m_primary>  (29) 
energy

>  <meeko>  (29) 
{"free_energy": -8.35, "intermolecular_energy": -9.25, "internal_energy": -1.15, "cluster_size": 11, "cluster_id": 1, "rank_in_cluster": 3}

>  <energy>  (29) 
-8.34

>  <cluster_rmsd>  (29) 
0.04

>  <rmsd>  (29) 
272.17

>  <cluster>  (29) 
1

$$$$
VDMKUDNKZWHZNN-SANMLTNENA-N
     RDKit          3D

 59 64  0  0  0  0  0  0  0  0999 V2000
  137.8760   81.8130  221.8340 O   0  0  0  0  0  0  0  0  0  0  0  0
  138.2120   81.2290  222.9010 C   0  0  0  0  0  0  0  0  0  0  0  0
  137.6010   81.6470  224.1740 C   0  0  0  0  0  0  0  0  0  0  0  0
  137.5750   80.8750  225.3340 C   0  0  0  0  0  0  0  0  0  0  0  0
  136.8870   81.6350  226.2520 C   0  0  0  0  0  0  0  0  0  0  0  0
  136.5550   81.3750  227.5800 C   0  0  0  0  0  0  0  0  0  0  0  0
  135.8250   82.3540  228.2800 C   0  0  0  0  0  0  0  0  0  0  0  0
  135.4810   82.1430  229.5740 F   0  0  0  0  0  0  0  0  0  0  0  0
  135.4450   83.5550  227.6390 C   0  0  0  0  0  0  0  0  0  0  0  0
  135.7950   83.7880  226.2960 C   0  0  0  0  0  0  0  0  0  0  0  0
  136.5220   82.8010  225.6310 C   0  0  0  0  0  0  0  0  0  0  0  0
  136.9480   82.8200  224.3580 N   0  0  0  0  0  0  0  0  0  0  0  0
  139.1600   80.1520  222.8550 N   0  0  0  0  0  0  0  0  0  0  0  0
  138.9330   78.9150  222.1030 C   0  0  0  0  0  0  0  0  0  0  0  0
  140.3340   78.2230  221.9590 C   0  0  2  0  0  0  0  0  0  0  0  0
  140.7210   77.9710  220.5010 C   0  0  0  0  0  0  0  0  0  0  0  0
  141.4930   76.6670  220.5210 C   0  0  0  0  0  0  0  0  0  0  0  0
  141.0440   75.8960  221.6910 N   0  0  0  0  0  0  0  0  0  0  0  0
  140.2170   74.7100  221.3350 C   0  0  0  0  0  0  0  0  0  0  0  0
  140.9890   73.3840  221.6050 C   0  0  0  0  0  0  0  0  0  0  0  0
  140.3230   72.5000  222.6680 C   0  0  0  0  0  0  0  0  0  0  0  0
  138.8560   72.1900  222.3250 C   0  0  0  0  0  0  0  0  0  0  0  0
  138.0900   73.3850  221.7190 C   0  0  0  0  0  0  0  0  0  0  0  0
  138.7940   74.7250  221.9620 C   0  0  0  0  0  0  0  0  0  0  0  0
  140.4170   76.8390  222.6370 C   0  0  0  0  0  0  0  0  0  0  0  0
  141.2600   79.2140  222.6170 C   0  0  0  0  0  0  0  0  0  0  0  0
  142.6460   79.1320  222.7960 C   0  0  0  0  0  0  0  0  0  0  0  0
  143.3030   80.1680  223.4770 C   0  0  0  0  0  0  0  0  0  0  0  0
  142.5730   81.2590  223.9780 C   0  0  0  0  0  0  0  0  0  0  0  0
  141.1830   81.3210  223.7990 C   0  0  0  0  0  0  0  0  0  0  0  0
  140.5510   80.2830  223.1030 C   0  0  0  0  0  0  0  0  0  0  0  0
  138.0098   79.8757  225.4833 H   0  0  0  0  0  0  0  0  0  0  0  0
  136.8539   80.4345  228.0660 H   0  0  0  0  0  0  0  0  0  0  0  0
  134.8719   84.3126  228.1936 H   0  0  0  0  0  0  0  0  0  0  0  0
  135.5044   84.7189  225.7870 H   0  0  0  0  0  0  0  0  0  0  0  0
  136.7710   83.5700  223.6530 H   0  0  0  0  0  0  0  0  0  0  0  0
  138.2388   78.2594  222.6491 H   0  0  0  0  0  0  0  0  0  0  0  0
  138.4864   79.1217  221.1192 H   0  0  0  0  0  0  0  0  0  0  0  0
  139.8228   77.8791  219.8727 H   0  0  0  0  0  0  0  0  0  0  0  0
  141.3147   78.7968  220.0820 H   0  0  0  0  0  0  0  0  0  0  0  0
  141.2931   76.0997  219.6000 H   0  0  0  0  0  0  0  0  0  0  0  0
  142.5740   76.8615  220.5810 H   0  0  0  0  0  0  0  0  0  0  0  0
  140.0365   74.7698  220.2516 H   0  0  0  0  0  0  0  0  0  0  0  0
  141.0469   72.8160  220.6648 H   0  0  0  0  0  0  0  0  0  0  0  0
  141.9841   73.6578  221.9856 H   0  0  0  0  0  0  0  0  0  0  0  0
  140.8782   71.5532  222.7407 H   0  0  0  0  0  0  0  0  0  0  0  0
  140.3399   73.0464  223.6226 H   0  0  0  0  0  0  0  0  0  0  0  0
  138.8370   71.3628  221.6001 H   0  0  0  0  0  0  0  0  0  0  0  0
  138.3540   71.9347  223.2699 H   0  0  0  0  0  0  0  0  0  0  0  0
  137.9959   73.2288  220.6342 H   0  0  0  0  0  0  0  0  0  0  0  0
  137.1071   73.4327  222.2105 H   0  0  0  0  0  0  0  0  0  0  0  0
  138.2044   75.5328  221.5039 H   0  0  0  0  0  0  0  0  0  0  0  0
  138.8829   74.8905  223.0458 H   0  0  0  0  0  0  0  0  0  0  0  0
  139.4062   76.4900  222.8949 H   0  0  0  0  0  0  0  0  0  0  0  0
  141.0139   76.9039  223.5587 H   0  0  0  0  0  0  0  0  0  0  0  0
  143.2102   78.2704  222.4095 H   0  0  0  0  0  0  0  0  0  0  0  0
  144.3930   80.1259  223.6191 H   0  0  0  0  0  0  0  0  0  0  0  0
  143.0933   82.0674  224.5125 H   0  0  0  0  0  0  0  0  0  0  0  0
  140.6022   82.1664  224.1966 H   0  0  0  0  0  0  0  0  0  0  0  0
  1  2  2  0
  2  3  1  0
  3  4  2  0
  4  5  1  0
  5  6  2  0
  6  7  1  0
  7  8  1  0
  7  9  2  0
  9 10  1  0
 10 11  2  0
 11 12  1  0
  2 13  1  0
 13 14  1  0
 15 14  1  6
 15 16  1  0
 16 17  1  0
 17 18  1  0
 18 19  1  0
 19 20  1  0
 20 21  1  0
 21 22  1  0
 22 23  1  0
 23 24  1  0
 18 25  1  0
 15 26  1  0
 26 27  2  0
 27 28  1  0
 28 29  2  0
 29 30  1  0
 30 31  2  0
 12  3  1  0
 31 13  1  0
 11  5  1  0
 25 15  1  0
 31 26  1  0
 24 19  1  0
  4 32  1  0
  6 33  1  0
  9 34  1  0
 10 35  1  0
 12 36  1  0
 14 37  1  0
 14 38  1  0
 16 39  1  0
 16 40  1  0
 17 41  1  0
 17 42  1  0
 19 43  1  0
 20 44  1  0
 20 45  1  0
 21 46  1  0
 21 47  1  0
 22 48  1  0
 22 49  1  0
 23 50  1  0
 23 51  1  0
 24 52  1  0
 24 53  1  0
 25 54  1  0
 25 55  1  0
 27 56  1  0
 28 57  1  0
 29 58  1  0
 30 59  1  0
M  END
>  <UniqueID>  (30) 
178

>  <SMILES>  (30) 
O=C(c1cc2cc(F)ccc2[nH]1)N1C[C@@]2(CCN(C3CCCCC3)C2)c2ccccc21

>  <Energy>  (30) 
130.49395143905497

>  <Genealogy>  (30) 
O=C(c1cc2cc(F)ccc2[nH]1)N1C[C@@]2(CCN(C3CCCCC3)C2)c2ccccc21 (3D coordinates assigned)
O=C(c1cc2cc(F)ccc2[nH]1)N1C[C@@]2(CCN(C3CCCCC3)C2)c2ccccc21 (nonaromatic ring conformer: 130.49395143905497 kcal/mol)

>  <smiles>  (30) 
O=C(c1cc2cc(F)ccc2[nH]1)N1C[C@@]2(CCN(C3CCCCC3)C2)c2ccccc21

>  <score_type>  (30) 
oracle

>  <origin>  (30) 
autodockgpu

>  <m_score__min__energy>  (30) 
-8.3499999999999996

>  <m_primary>  (30) 
energy

>  <meeko>  (30) 
{"free_energy": -8.14, "intermolecular_energy": -9.04, "internal_energy": -1.3, "cluster_size": 5, "cluster_id": 3, "rank_in_cluster": 2}

>  <energy>  (30) 
-8.33

>  <cluster_rmsd>  (30) 
0.21

>  <rmsd>  (30) 
272.13

>  <cluster>  (30) 
1

$$$$
VDMKUDNKZWHZNN-SANMLTNENA-N
     RDKit          3D

 59 64  0  0  0  0  0  0  0  0999 V2000
  139.0250   75.7470  219.8380 O   0  0  0  0  0  0  0  0  0  0  0  0
  139.9000   75.6340  220.7400 C   0  0  0  0  0  0  0  0  0  0  0  0
  140.5240   76.8460  221.2960 C   0  0  0  0  0  0  0  0  0  0  0  0
  140.8220   77.0400  222.6430 C   0  0  0  0  0  0  0  0  0  0  0  0
  141.3580   78.3060  222.7100 C   0  0  0  0  0  0  0  0  0  0  0  0
  141.8360   79.0340  223.7990 C   0  0  0  0  0  0  0  0  0  0  0  0
  142.3250   80.3310  223.5590 C   0  0  0  0  0  0  0  0  0  0  0  0
  142.8010   81.0740  224.5880 F   0  0  0  0  0  0  0  0  0  0  0  0
  142.3190   80.8660  222.2500 C   0  0  0  0  0  0  0  0  0  0  0  0
  141.8280   80.1070  221.1720 C   0  0  0  0  0  0  0  0  0  0  0  0
  141.3550   78.8230  221.4410 C   0  0  0  0  0  0  0  0  0  0  0  0
  140.8430   77.9420  220.5660 N   0  0  0  0  0  0  0  0  0  0  0  0
  140.2540   74.3300  221.2280 N   0  0  0  0  0  0  0  0  0  0  0  0
  139.5640   73.6770  222.3430 C   0  0  0  0  0  0  0  0  0  0  0  0
  139.9490   72.1570  222.2700 C   0  0  2  0  0  0  0  0  0  0  0  0
  138.7280   71.2430  222.1610 C   0  0  0  0  0  0  0  0  0  0  0  0
  139.1010   69.9960  222.9380 C   0  0  0  0  0  0  0  0  0  0  0  0
  140.1060   70.3770  223.9430 N   0  0  0  0  0  0  0  0  0  0  0  0
  139.5830   70.3660  225.3360 C   0  0  0  0  0  0  0  0  0  0  0  0
  139.1380   68.9350  225.7590 C   0  0  0  0  0  0  0  0  0  0  0  0
  139.9470   68.3700  226.9350 C   0  0  0  0  0  0  0  0  0  0  0  0
  139.9230   69.3060  228.1550 C   0  0  0  0  0  0  0  0  0  0  0  0
  140.0200   70.8040  227.7950 C   0  0  0  0  0  0  0  0  0  0  0  0
  140.5300   71.0400  226.3700 C   0  0  0  0  0  0  0  0  0  0  0  0
  140.7160   71.6500  223.5100 C   0  0  0  0  0  0  0  0  0  0  0  0
  140.8040   72.0940  221.0300 C   0  0  0  0  0  0  0  0  0  0  0  0
  141.4420   70.9840  220.4630 C   0  0  0  0  0  0  0  0  0  0  0  0
  142.2260   71.1680  219.3140 C   0  0  0  0  0  0  0  0  0  0  0  0
  142.3720   72.4500  218.7550 C   0  0  0  0  0  0  0  0  0  0  0  0
  141.7330   73.5530  219.3420 C   0  0  0  0  0  0  0  0  0  0  0  0
  140.9440   73.3420  220.4790 C   0  0  0  0  0  0  0  0  0  0  0  0
  140.6635   76.3350  223.4724 H   0  0  0  0  0  0  0  0  0  0  0  0
  141.8309   78.6078  224.8131 H   0  0  0  0  0  0  0  0  0  0  0  0
  142.7008   81.8824  222.0735 H   0  0  0  0  0  0  0  0  0  0  0  0
  141.8175   80.5133  220.1498 H   0  0  0  0  0  0  0  0  0  0  0  0
  140.6890   78.0970  219.5440 H   0  0  0  0  0  0  0  0  0  0  0  0
  139.8938   74.1079  223.2998 H   0  0  0  0  0  0  0  0  0  0  0  0
  138.4750   73.8172  222.2764 H   0  0  0  0  0  0  0  0  0  0  0  0
  137.8438   71.7246  222.6040 H   0  0  0  0  0  0  0  0  0  0  0  0
  138.4728   71.0173  221.1151 H   0  0  0  0  0  0  0  0  0  0  0  0
  138.2105   69.5850  223.4362 H   0  0  0  0  0  0  0  0  0  0  0  0
  139.5051   69.2281  222.2619 H   0  0  0  0  0  0  0  0  0  0  0  0
  138.6858   71.0024  225.3358 H   0  0  0  0  0  0  0  0  0  0  0  0
  138.0778   68.9708  226.0499 H   0  0  0  0  0  0  0  0  0  0  0  0
  139.3095   68.2727  224.8977 H   0  0  0  0  0  0  0  0  0  0  0  0
  139.5206   67.3983  227.2248 H   0  0  0  0  0  0  0  0  0  0  0  0
  140.9922   68.2652  226.6084 H   0  0  0  0  0  0  0  0  0  0  0  0
  138.9819   69.1408  228.7000 H   0  0  0  0  0  0  0  0  0  0  0  0
  140.8091   69.0647  228.7605 H   0  0  0  0  0  0  0  0  0  0  0  0
  139.0206   71.2537  227.8896 H   0  0  0  0  0  0  0  0  0  0  0  0
  140.7417   71.2646  228.4857 H   0  0  0  0  0  0  0  0  0  0  0  0
  140.5697   72.1216  226.1738 H   0  0  0  0  0  0  0  0  0  0  0  0
  141.5339   70.6010  226.2732 H   0  0  0  0  0  0  0  0  0  0  0  0
  140.6453   72.3910  224.3199 H   0  0  0  0  0  0  0  0  0  0  0  0
  141.7772   71.4977  223.2635 H   0  0  0  0  0  0  0  0  0  0  0  0
  141.3305   69.9853  220.9105 H   0  0  0  0  0  0  0  0  0  0  0  0
  142.7280   70.3067  218.8490 H   0  0  0  0  0  0  0  0  0  0  0  0
  142.9889   72.5887  217.8549 H   0  0  0  0  0  0  0  0  0  0  0  0
  141.8496   74.5613  218.9180 H   0  0  0  0  0  0  0  0  0  0  0  0
  1  2  2  0
  2  3  1  0
  3  4  2  0
  4  5  1  0
  5  6  2  0
  6  7  1  0
  7  8  1  0
  7  9  2  0
  9 10  1  0
 10 11  2  0
 11 12  1  0
  2 13  1  0
 13 14  1  0
 15 14  1  1
 15 16  1  0
 16 17  1  0
 17 18  1  0
 18 19  1  0
 19 20  1  0
 20 21  1  0
 21 22  1  0
 22 23  1  0
 23 24  1  0
 18 25  1  0
 15 26  1  0
 26 27  2  0
 27 28  1  0
 28 29  2  0
 29 30  1  0
 30 31  2  0
 12  3  1  0
 31 13  1  0
 11  5  1  0
 25 15  1  0
 31 26  1  0
 24 19  1  0
  4 32  1  0
  6 33  1  0
  9 34  1  0
 10 35  1  0
 12 36  1  0
 14 37  1  0
 14 38  1  0
 16 39  1  0
 16 40  1  0
 17 41  1  0
 17 42  1  0
 19 43  1  0
 20 44  1  0
 20 45  1  0
 21 46  1  0
 21 47  1  0
 22 48  1  0
 22 49  1  0
 23 50  1  0
 23 51  1  0
 24 52  1  0
 24 53  1  0
 25 54  1  0
 25 55  1  0
 27 56  1  0
 28 57  1  0
 29 58  1  0
 30 59  1  0
M  END
>  <UniqueID>  (31) 
178

>  <SMILES>  (31) 
O=C(c1cc2cc(F)ccc2[nH]1)N1C[C@@]2(CCN(C3CCCCC3)C2)c2ccccc21

>  <Energy>  (31) 
130.49395143905497

>  <Genealogy>  (31) 
O=C(c1cc2cc(F)ccc2[nH]1)N1C[C@@]2(CCN(C3CCCCC3)C2)c2ccccc21 (3D coordinates assigned)
O=C(c1cc2cc(F)ccc2[nH]1)N1C[C@@]2(CCN(C3CCCCC3)C2)c2ccccc21 (nonaromatic ring conformer: 130.49395143905497 kcal/mol)

>  <smiles>  (31) 
O=C(c1cc2cc(F)ccc2[nH]1)N1C[C@@]2(CCN(C3CCCCC3)C2)c2ccccc21

>  <score_type>  (31) 
oracle

>  <origin>  (31) 
autodockgpu

>  <m_score__min__energy>  (31) 
-8.3499999999999996

>  <m_primary>  (31) 
energy

>  <meeko>  (31) 
{"free_energy": -8.35, "intermolecular_energy": -9.25, "internal_energy": -1.15, "cluster_size": 11, "cluster_id": 1, "rank_in_cluster": 2}

>  <energy>  (31) 
-8.33

>  <cluster_rmsd>  (31) 
0.23

>  <rmsd>  (31) 
272.13

>  <cluster>  (31) 
1

$$$$
VDMKUDNKZWHZNN-SANMLTNENA-N
     RDKit          3D

 59 64  0  0  0  0  0  0  0  0999 V2000
  139.0720   75.6510  219.6950 O   0  0  0  0  0  0  0  0  0  0  0  0
  139.8980   75.5330  220.6400 C   0  0  0  0  0  0  0  0  0  0  0  0
  140.5070   76.7420  221.2200 C   0  0  0  0  0  0  0  0  0  0  0  0
  140.7940   76.9170  222.5730 C   0  0  0  0  0  0  0  0  0  0  0  0
  141.3180   78.1860  222.6650 C   0  0  0  0  0  0  0  0  0  0  0  0
  141.7810   78.9000  223.7680 C   0  0  0  0  0  0  0  0  0  0  0  0
  142.2610   80.2060  223.5530 C   0  0  0  0  0  0  0  0  0  0  0  0
  142.7220   80.9360  224.5980 F   0  0  0  0  0  0  0  0  0  0  0  0
  142.2600   80.7610  222.2530 C   0  0  0  0  0  0  0  0  0  0  0  0
  141.7830   80.0160  221.1590 C   0  0  0  0  0  0  0  0  0  0  0  0
  141.3200   78.7240  221.4040 C   0  0  0  0  0  0  0  0  0  0  0  0
  140.8220   77.8530  220.5110 N   0  0  0  0  0  0  0  0  0  0  0  0
  140.2120   74.2290  221.1530 N   0  0  0  0  0  0  0  0  0  0  0  0
  139.5750   73.6610  222.3440 C   0  0  0  0  0  0  0  0  0  0  0  0
  139.8630   72.1190  222.3040 C   0  0  2  0  0  0  0  0  0  0  0  0
  138.5850   71.2790  222.3280 C   0  0  0  0  0  0  0  0  0  0  0  0
  138.9440   70.0410  223.1250 C   0  0  0  0  0  0  0  0  0  0  0  0
  140.0470   70.3940  224.0320 N   0  0  0  0  0  0  0  0  0  0  0  0
  139.6370   70.4670  225.4610 C   0  0  0  0  0  0  0  0  0  0  0  0
  139.1970   69.0700  225.9910 C   0  0  0  0  0  0  0  0  0  0  0  0
  140.0850   68.5450  227.1270 C   0  0  0  0  0  0  0  0  0  0  0  0
  140.1790   69.5420  228.2950 C   0  0  0  0  0  0  0  0  0  0  0  0
  140.2790   71.0160  227.8510 C   0  0  0  0  0  0  0  0  0  0  0  0
  140.6790   71.1670  226.3800 C   0  0  0  0  0  0  0  0  0  0  0  0
  140.6940   71.6100  223.5010 C   0  0  0  0  0  0  0  0  0  0  0  0
  140.6110   71.9570  221.0060 C   0  0  0  0  0  0  0  0  0  0  0  0
  141.1350   70.7890  220.4370 C   0  0  0  0  0  0  0  0  0  0  0  0
  141.8330   70.8820  219.2240 C   0  0  0  0  0  0  0  0  0  0  0  0
  142.0100   72.1310  218.6030 C   0  0  0  0  0  0  0  0  0  0  0  0
  141.4870   73.2930  219.1920 C   0  0  0  0  0  0  0  0  0  0  0  0
  140.7800   73.1730  220.3940 C   0  0  0  0  0  0  0  0  0  0  0  0
  140.6359   76.1971  223.3895 H   0  0  0  0  0  0  0  0  0  0  0  0
  141.7719   78.4574  224.7750 H   0  0  0  0  0  0  0  0  0  0  0  0
  142.6350   81.7831  222.0955 H   0  0  0  0  0  0  0  0  0  0  0  0
  141.7756   80.4390  220.1436 H   0  0  0  0  0  0  0  0  0  0  0  0
  140.6740   78.0220  219.4910 H   0  0  0  0  0  0  0  0  0  0  0  0
  140.0043   74.1052  223.2541 H   0  0  0  0  0  0  0  0  0  0  0  0
  138.4943   73.8659  222.3557 H   0  0  0  0  0  0  0  0  0  0  0  0
  137.7689   71.8307  222.8175 H   0  0  0  0  0  0  0  0  0  0  0  0
  138.2346   71.0311  221.3152 H   0  0  0  0  0  0  0  0  0  0  0  0
  138.0733   69.7056  223.7076 H   0  0  0  0  0  0  0  0  0  0  0  0
  139.2463   69.2251  222.4519 H   0  0  0  0  0  0  0  0  0  0  0  0
  138.7569   71.1257  225.4996 H   0  0  0  0  0  0  0  0  0  0  0  0
  138.1643   69.1466  226.3620 H   0  0  0  0  0  0  0  0  0  0  0  0
  139.2851   68.3614  225.1543 H   0  0  0  0  0  0  0  0  0  0  0  0
  139.6625   67.6003  227.5000 H   0  0  0  0  0  0  0  0  0  0  0  0
  141.0982   68.3974  226.7248 H   0  0  0  0  0  0  0  0  0  0  0  0
  139.2812   69.4287  228.9204 H   0  0  0  0  0  0  0  0  0  0  0  0
  141.1053   69.3089  228.8405 H   0  0  0  0  0  0  0  0  0  0  0  0
  139.3001   71.4951  228.0000 H   0  0  0  0  0  0  0  0  0  0  0  0
  141.0630   71.4923  228.4580 H   0  0  0  0  0  0  0  0  0  0  0  0
  140.7270   72.2360  226.1252 H   0  0  0  0  0  0  0  0  0  0  0  0
  141.6622   70.6979  226.2272 H   0  0  0  0  0  0  0  0  0  0  0  0
  140.7316   72.3828  224.2829 H   0  0  0  0  0  0  0  0  0  0  0  0
  141.7211   71.3827  223.1795 H   0  0  0  0  0  0  0  0  0  0  0  0
  141.0014   69.8162  220.9328 H   0  0  0  0  0  0  0  0  0  0  0  0
  142.2434   69.9746  218.7569 H   0  0  0  0  0  0  0  0  0  0  0  0
  142.5600   72.1978  217.6527 H   0  0  0  0  0  0  0  0  0  0  0  0
  141.6297   74.2760  218.7194 H   0  0  0  0  0  0  0  0  0  0  0  0
  1  2  2  0
  2  3  1  0
  3  4  2  0
  4  5  1  0
  5  6  2  0
  6  7  1  0
  7  8  1  0
  7  9  2  0
  9 10  1  0
 10 11  2  0
 11 12  1  0
  2 13  1  0
 13 14  1  0
 15 14  1  1
 15 16  1  0
 16 17  1  0
 17 18  1  0
 18 19  1  0
 19 20  1  0
 20 21  1  0
 21 22  1  0
 22 23  1  0
 23 24  1  0
 18 25  1  0
 15 26  1  0
 26 27  2  0
 27 28  1  0
 28 29  2  0
 29 30  1  0
 30 31  2  0
 12  3  1  0
 31 13  1  0
 11  5  1  0
 25 15  1  0
 31 26  1  0
 24 19  1  0
  4 32  1  0
  6 33  1  0
  9 34  1  0
 10 35  1  0
 12 36  1  0
 14 37  1  0
 14 38  1  0
 16 39  1  0
 16 40  1  0
 17 41  1  0
 17 42  1  0
 19 43  1  0
 20 44  1  0
 20 45  1  0
 21 46  1  0
 21 47  1  0
 22 48  1  0
 22 49  1  0
 23 50  1  0
 23 51  1  0
 24 52  1  0
 24 53  1  0
 25 54  1  0
 25 55  1  0
 27 56  1  0
 28 57  1  0
 29 58  1  0
 30 59  1  0
M  END
>  <UniqueID>  (32) 
178

>  <SMILES>  (32) 
O=C(c1cc2cc(F)ccc2[nH]1)N1C[C@@]2(CCN(C3CCCCC3)C2)c2ccccc21

>  <Energy>  (32) 
130.49395143905497

>  <Genealogy>  (32) 
O=C(c1cc2cc(F)ccc2[nH]1)N1C[C@@]2(CCN(C3CCCCC3)C2)c2ccccc21 (3D coordinates assigned)
O=C(c1cc2cc(F)ccc2[nH]1)N1C[C@@]2(CCN(C3CCCCC3)C2)c2ccccc21 (nonaromatic ring conformer: 130.49395143905497 kcal/mol)

>  <smiles>  (32) 
O=C(c1cc2cc(F)ccc2[nH]1)N1C[C@@]2(CCN(C3CCCCC3)C2)c2ccccc21

>  <score_type>  (32) 
oracle

>  <origin>  (32) 
autodockgpu

>  <m_score__min__energy>  (32) 
-8.3499999999999996

>  <m_primary>  (32) 
energy

>  <meeko>  (32) 
{"free_energy": -8.33, "intermolecular_energy": -9.22, "internal_energy": -1.15, "cluster_size": 11, "cluster_id": 1, "rank_in_cluster": 11}

>  <energy>  (32) 
-8.19

>  <cluster_rmsd>  (32) 
0.0

>  <rmsd>  (32) 
272.06

>  <cluster>  (32) 
2

$$$$
VDMKUDNKZWHZNN-SANMLTNENA-N
     RDKit          3D

 59 64  0  0  0  0  0  0  0  0999 V2000
  137.8780   81.8260  221.8400 O   0  0  0  0  0  0  0  0  0  0  0  0
  138.2120   81.2360  222.9040 C   0  0  0  0  0  0  0  0  0  0  0  0
  137.5980   81.6460  224.1780 C   0  0  0  0  0  0  0  0  0  0  0  0
  137.5710   80.8670  225.3340 C   0  0  0  0  0  0  0  0  0  0  0  0
  136.8800   81.6220  226.2550 C   0  0  0  0  0  0  0  0  0  0  0  0
  136.5450   81.3530  227.5810 C   0  0  0  0  0  0  0  0  0  0  0  0
  135.8130   82.3280  228.2850 C   0  0  0  0  0  0  0  0  0  0  0  0
  135.4670   82.1090  229.5770 F   0  0  0  0  0  0  0  0  0  0  0  0
  135.4330   83.5320  227.6490 C   0  0  0  0  0  0  0  0  0  0  0  0
  135.7840   83.7730  226.3080 C   0  0  0  0  0  0  0  0  0  0  0  0
  136.5140   82.7900  225.6390 C   0  0  0  0  0  0  0  0  0  0  0  0
  136.9430   82.8160  224.3670 N   0  0  0  0  0  0  0  0  0  0  0  0
  139.1610   80.1600  222.8530 N   0  0  0  0  0  0  0  0  0  0  0  0
  138.9350   78.9250  222.0970 C   0  0  0  0  0  0  0  0  0  0  0  0
  140.3360   78.2350  221.9510 C   0  0  2  0  0  0  0  0  0  0  0  0
  140.7230   77.9880  220.4910 C   0  0  0  0  0  0  0  0  0  0  0  0
  141.4960   76.6840  220.5060 C   0  0  0  0  0  0  0  0  0  0  0  0
  141.0480   75.9090  221.6730 N   0  0  0  0  0  0  0  0  0  0  0  0
  140.2220   74.7240  221.3130 C   0  0  0  0  0  0  0  0  0  0  0  0
  140.9930   73.3980  221.5850 C   0  0  0  0  0  0  0  0  0  0  0  0
  140.3220   72.5130  222.6450 C   0  0  0  0  0  0  0  0  0  0  0  0
  138.8570   72.2040  222.2960 C   0  0  0  0  0  0  0  0  0  0  0  0
  138.0930   73.4000  221.6880 C   0  0  0  0  0  0  0  0  0  0  0  0
  138.7960   74.7390  221.9340 C   0  0  0  0  0  0  0  0  0  0  0  0
  140.4200   76.8480  222.6230 C   0  0  0  0  0  0  0  0  0  0  0  0
  141.2610   79.2240  222.6120 C   0  0  0  0  0  0  0  0  0  0  0  0
  142.6480   79.1420  222.7900 C   0  0  0  0  0  0  0  0  0  0  0  0
  143.3040   80.1760  223.4740 C   0  0  0  0  0  0  0  0  0  0  0  0
  142.5730   81.2650  223.9800 C   0  0  0  0  0  0  0  0  0  0  0  0
  141.1830   81.3260  223.8020 C   0  0  0  0  0  0  0  0  0  0  0  0
  140.5520   80.2910  223.1020 C   0  0  0  0  0  0  0  0  0  0  0  0
  138.0067   79.8674  225.4787 H   0  0  0  0  0  0  0  0  0  0  0  0
  136.8429   80.4095  228.0618 H   0  0  0  0  0  0  0  0  0  0  0  0
  134.8585   84.2862  228.2068 H   0  0  0  0  0  0  0  0  0  0  0  0
  135.4924   84.7060  225.8035 H   0  0  0  0  0  0  0  0  0  0  0  0
  136.7660   83.5700  223.6660 H   0  0  0  0  0  0  0  0  0  0  0  0
  138.2413   78.2671  222.6410 H   0  0  0  0  0  0  0  0  0  0  0  0
  138.4883   79.1344  221.1138 H   0  0  0  0  0  0  0  0  0  0  0  0
  139.8246   77.8978  219.8627 H   0  0  0  0  0  0  0  0  0  0  0  0
  141.3162   78.8156  220.0748 H   0  0  0  0  0  0  0  0  0  0  0  0
  141.2961   76.1199  219.5831 H   0  0  0  0  0  0  0  0  0  0  0  0
  142.5769   76.8788  220.5662 H   0  0  0  0  0  0  0  0  0  0  0  0
  140.0452   74.7845  220.2290 H   0  0  0  0  0  0  0  0  0  0  0  0
  141.0549   72.8307  220.6446 H   0  0  0  0  0  0  0  0  0  0  0  0
  141.9866   73.6714  221.9697 H   0  0  0  0  0  0  0  0  0  0  0  0
  140.8765   71.5659  222.7192 H   0  0  0  0  0  0  0  0  0  0  0  0
  140.3353   73.0586  223.6001 H   0  0  0  0  0  0  0  0  0  0  0  0
  138.8408   71.3776  221.5702 H   0  0  0  0  0  0  0  0  0  0  0  0
  138.3513   71.9481  223.2388 H   0  0  0  0  0  0  0  0  0  0  0  0
  138.0024   73.2445  220.6028 H   0  0  0  0  0  0  0  0  0  0  0  0
  137.1085   73.4476  222.1763 H   0  0  0  0  0  0  0  0  0  0  0  0
  138.2085   75.5470  221.4735 H   0  0  0  0  0  0  0  0  0  0  0  0
  138.8804   74.9042  223.0183 H   0  0  0  0  0  0  0  0  0  0  0  0
  139.4094   76.4972  222.8793 H   0  0  0  0  0  0  0  0  0  0  0  0
  141.0168   76.9095  223.5450 H   0  0  0  0  0  0  0  0  0  0  0  0
  143.2126   78.2821  222.4003 H   0  0  0  0  0  0  0  0  0  0  0  0
  144.3941   80.1347  223.6150 H   0  0  0  0  0  0  0  0  0  0  0  0
  143.0928   82.0719  224.5173 H   0  0  0  0  0  0  0  0  0  0  0  0
  140.6015   82.1688  224.2038 H   0  0  0  0  0  0  0  0  0  0  0  0
  1  2  2  0
  2  3  1  0
  3  4  2  0
  4  5  1  0
  5  6  2  0
  6  7  1  0
  7  8  1  0
  7  9  2  0
  9 10  1  0
 10 11  2  0
 11 12  1  0
  2 13  1  0
 13 14  1  0
 15 14  1  6
 15 16  1  0
 16 17  1  0
 17 18  1  0
 18 19  1  0
 19 20  1  0
 20 21  1  0
 21 22  1  0
 22 23  1  0
 23 24  1  0
 18 25  1  0
 15 26  1  0
 26 27  2  0
 27 28  1  0
 28 29  2  0
 29 30  1  0
 30 31  2  0
 12  3  1  0
 31 13  1  0
 11  5  1  0
 25 15  1  0
 31 26  1  0
 24 19  1  0
  4 32  1  0
  6 33  1  0
  9 34  1  0
 10 35  1  0
 12 36  1  0
 14 37  1  0
 14 38  1  0
 16 39  1  0
 16 40  1  0
 17 41  1  0
 17 42  1  0
 19 43  1  0
 20 44  1  0
 20 45  1  0
 21 46  1  0
 21 47  1  0
 22 48  1  0
 22 49  1  0
 23 50  1  0
 23 51  1  0
 24 52  1  0
 24 53  1  0
 25 54  1  0
 25 55  1  0
 27 56  1  0
 28 57  1  0
 29 58  1  0
 30 59  1  0
M  END
>  <UniqueID>  (33) 
178

>  <SMILES>  (33) 
O=C(c1cc2cc(F)ccc2[nH]1)N1C[C@@]2(CCN(C3CCCCC3)C2)c2ccccc21

>  <Energy>  (33) 
130.49395143905497

>  <Genealogy>  (33) 
O=C(c1cc2cc(F)ccc2[nH]1)N1C[C@@]2(CCN(C3CCCCC3)C2)c2ccccc21 (3D coordinates assigned)
O=C(c1cc2cc(F)ccc2[nH]1)N1C[C@@]2(CCN(C3CCCCC3)C2)c2ccccc21 (nonaromatic ring conformer: 130.49395143905497 kcal/mol)

>  <smiles>  (33) 
O=C(c1cc2cc(F)ccc2[nH]1)N1C[C@@]2(CCN(C3CCCCC3)C2)c2ccccc21

>  <score_type>  (33) 
oracle

>  <origin>  (33) 
autodockgpu

>  <m_score__min__energy>  (33) 
-8.3499999999999996

>  <m_primary>  (33) 
energy

>  <meeko>  (33) 
{"free_energy": -8.14, "intermolecular_energy": -9.04, "internal_energy": -1.3, "cluster_size": 5, "cluster_id": 3, "rank_in_cluster": 4}

>  <energy>  (33) 
-8.18

>  <cluster_rmsd>  (33) 
0.17

>  <rmsd>  (33) 
272.1

>  <cluster>  (33) 
2

$$$$
VDMKUDNKZWHZNN-SANMLTNENA-N
     RDKit          3D

 59 64  0  0  0  0  0  0  0  0999 V2000
  139.0130   75.7340  219.8610 O   0  0  0  0  0  0  0  0  0  0  0  0
  139.8930   75.6210  220.7580 C   0  0  0  0  0  0  0  0  0  0  0  0
  140.5190   76.8350  221.3110 C   0  0  0  0  0  0  0  0  0  0  0  0
  140.8170   77.0320  222.6570 C   0  0  0  0  0  0  0  0  0  0  0  0
  141.3550   78.2970  222.7210 C   0  0  0  0  0  0  0  0  0  0  0  0
  141.8330   79.0270  223.8080 C   0  0  0  0  0  0  0  0  0  0  0  0
  142.3250   80.3230  223.5650 C   0  0  0  0  0  0  0  0  0  0  0  0
  142.8010   81.0680  224.5930 F   0  0  0  0  0  0  0  0  0  0  0  0
  142.3200   80.8540  222.2550 C   0  0  0  0  0  0  0  0  0  0  0  0
  141.8280   80.0930  221.1780 C   0  0  0  0  0  0  0  0  0  0  0  0
  141.3530   78.8110  221.4510 C   0  0  0  0  0  0  0  0  0  0  0  0
  140.8400   77.9280  220.5780 N   0  0  0  0  0  0  0  0  0  0  0  0
  140.2520   74.3180  221.2430 N   0  0  0  0  0  0  0  0  0  0  0  0
  139.5560   73.6550  222.3490 C   0  0  0  0  0  0  0  0  0  0  0  0
  139.9520   72.1390  222.2730 C   0  0  2  0  0  0  0  0  0  0  0  0
  138.7380   71.2170  222.1510 C   0  0  0  0  0  0  0  0  0  0  0  0
  139.1130   69.9690  222.9260 C   0  0  0  0  0  0  0  0  0  0  0  0
  140.1080   70.3520  223.9400 N   0  0  0  0  0  0  0  0  0  0  0  0
  139.5730   70.3320  225.3290 C   0  0  0  0  0  0  0  0  0  0  0  0
  139.1410   68.8950  225.7450 C   0  0  0  0  0  0  0  0  0  0  0  0
  139.9470   68.3360  226.9260 C   0  0  0  0  0  0  0  0  0  0  0  0
  139.9020   69.2690  228.1470 C   0  0  0  0  0  0  0  0  0  0  0  0
  139.9850   70.7690  227.7920 C   0  0  0  0  0  0  0  0  0  0  0  0
  140.5050   71.0140  226.3720 C   0  0  0  0  0  0  0  0  0  0  0  0
  140.7120   71.6310  223.5170 C   0  0  0  0  0  0  0  0  0  0  0  0
  140.8180   72.0860  221.0410 C   0  0  0  0  0  0  0  0  0  0  0  0
  141.4680   70.9830  220.4740 C   0  0  0  0  0  0  0  0  0  0  0  0
  142.2590   71.1780  219.3320 C   0  0  0  0  0  0  0  0  0  0  0  0
  142.4010   72.4630  218.7800 C   0  0  0  0  0  0  0  0  0  0  0  0
  141.7510   73.5590  219.3660 C   0  0  0  0  0  0  0  0  0  0  0  0
  140.9540   73.3380  220.4960 C   0  0  0  0  0  0  0  0  0  0  0  0
  140.6571   76.3294  223.4881 H   0  0  0  0  0  0  0  0  0  0  0  0
  141.8259   78.6037  224.8233 H   0  0  0  0  0  0  0  0  0  0  0  0
  142.7034   81.8693  222.0760 H   0  0  0  0  0  0  0  0  0  0  0  0
  141.8186   80.4965  220.1547 H   0  0  0  0  0  0  0  0  0  0  0  0
  140.6860   78.0800  219.5560 H   0  0  0  0  0  0  0  0  0  0  0  0
  139.8739   74.0839  223.3108 H   0  0  0  0  0  0  0  0  0  0  0  0
  138.4667   73.7879  222.2728 H   0  0  0  0  0  0  0  0  0  0  0  0
  137.8472   71.6909  222.5890 H   0  0  0  0  0  0  0  0  0  0  0  0
  138.4927   70.9937  221.1022 H   0  0  0  0  0  0  0  0  0  0  0  0
  138.2214   69.5505  223.4158 H   0  0  0  0  0  0  0  0  0  0  0  0
  139.5270   69.2064  222.2499 H   0  0  0  0  0  0  0  0  0  0  0  0
  138.6685   70.9579  225.3233 H   0  0  0  0  0  0  0  0  0  0  0  0
  138.0782   68.9181  226.0276 H   0  0  0  0  0  0  0  0  0  0  0  0
  139.3269   68.2369  224.8834 H   0  0  0  0  0  0  0  0  0  0  0  0
  139.5294   67.3588  227.2101 H   0  0  0  0  0  0  0  0  0  0  0  0
  140.9959   68.2431  226.6079 H   0  0  0  0  0  0  0  0  0  0  0  0
  138.9582   69.0919  228.6835 H   0  0  0  0  0  0  0  0  0  0  0  0
  140.7860   69.0365  228.7590 H   0  0  0  0  0  0  0  0  0  0  0  0
  138.9797   71.2071  227.8788 H   0  0  0  0  0  0  0  0  0  0  0  0
  140.6949   71.2363  228.4904 H   0  0  0  0  0  0  0  0  0  0  0  0
  140.5350   72.0964  226.1785 H   0  0  0  0  0  0  0  0  0  0  0  0
  141.5146   70.5865  226.2825 H   0  0  0  0  0  0  0  0  0  0  0  0
  140.6296   72.3678  224.3296 H   0  0  0  0  0  0  0  0  0  0  0  0
  141.7759   71.4865  223.2779 H   0  0  0  0  0  0  0  0  0  0  0  0
  141.3603   69.9815  220.9161 H   0  0  0  0  0  0  0  0  0  0  0  0
  142.7700   70.3222  218.8667 H   0  0  0  0  0  0  0  0  0  0  0  0
  143.0241   72.6094  217.8854 H   0  0  0  0  0  0  0  0  0  0  0  0
  141.8648   74.5698  218.9472 H   0  0  0  0  0  0  0  0  0  0  0  0
  1  2  2  0
  2  3  1  0
  3  4  2  0
  4  5  1  0
  5  6  2  0
  6  7  1  0
  7  8  1  0
  7  9  2  0
  9 10  1  0
 10 11  2  0
 11 12  1  0
  2 13  1  0
 13 14  1  0
 15 14  1  1
 15 16  1  0
 16 17  1  0
 17 18  1  0
 18 19  1  0
 19 20  1  0
 20 21  1  0
 21 22  1  0
 22 23  1  0
 23 24  1  0
 18 25  1  0
 15 26  1  0
 26 27  2  0
 27 28  1  0
 28 29  2  0
 29 30  1  0
 30 31  2  0
 12  3  1  0
 31 13  1  0
 11  5  1  0
 25 15  1  0
 31 26  1  0
 24 19  1  0
  4 32  1  0
  6 33  1  0
  9 34  1  0
 10 35  1  0
 12 36  1  0
 14 37  1  0
 14 38  1  0
 16 39  1  0
 16 40  1  0
 17 41  1  0
 17 42  1  0
 19 43  1  0
 20 44  1  0
 20 45  1  0
 21 46  1  0
 21 47  1  0
 22 48  1  0
 22 49  1  0
 23 50  1  0
 23 51  1  0
 24 52  1  0
 24 53  1  0
 25 54  1  0
 25 55  1  0
 27 56  1  0
 28 57  1  0
 29 58  1  0
 30 59  1  0
M  END
>  <UniqueID>  (34) 
178

>  <SMILES>  (34) 
O=C(c1cc2cc(F)ccc2[nH]1)N1C[C@@]2(CCN(C3CCCCC3)C2)c2ccccc21

>  <Energy>  (34) 
130.49395143905497

>  <Genealogy>  (34) 
O=C(c1cc2cc(F)ccc2[nH]1)N1C[C@@]2(CCN(C3CCCCC3)C2)c2ccccc21 (3D coordinates assigned)
O=C(c1cc2cc(F)ccc2[nH]1)N1C[C@@]2(CCN(C3CCCCC3)C2)c2ccccc21 (nonaromatic ring conformer: 130.49395143905497 kcal/mol)

>  <smiles>  (34) 
O=C(c1cc2cc(F)ccc2[nH]1)N1C[C@@]2(CCN(C3CCCCC3)C2)c2ccccc21

>  <score_type>  (34) 
oracle

>  <origin>  (34) 
autodockgpu

>  <m_score__min__energy>  (34) 
-8.3499999999999996

>  <m_primary>  (34) 
energy

>  <meeko>  (34) 
{"free_energy": -8.35, "intermolecular_energy": -9.24, "internal_energy": -1.15, "cluster_size": 11, "cluster_id": 1, "rank_in_cluster": 4}

>  <energy>  (34) 
-8.14

>  <cluster_rmsd>  (34) 
0.15

>  <rmsd>  (34) 
272.11

>  <cluster>  (34) 
2

$$$$
VDMKUDNKZWHZNN-SANMLTNENA-N
     RDKit          3D

 59 64  0  0  0  0  0  0  0  0999 V2000
  139.0800   75.6240  219.7060 O   0  0  0  0  0  0  0  0  0  0  0  0
  139.9140   75.5110  220.6450 C   0  0  0  0  0  0  0  0  0  0  0  0
  140.5250   76.7230  221.2160 C   0  0  0  0  0  0  0  0  0  0  0  0
  140.8080   76.9080  222.5680 C   0  0  0  0  0  0  0  0  0  0  0  0
  141.3360   78.1770  222.6500 C   0  0  0  0  0  0  0  0  0  0  0  0
  141.7980   78.8990  223.7490 C   0  0  0  0  0  0  0  0  0  0  0  0
  142.2820   80.2020  223.5240 C   0  0  0  0  0  0  0  0  0  0  0  0
  142.7420   80.9390  224.5640 F   0  0  0  0  0  0  0  0  0  0  0  0
  142.2860   80.7460  222.2190 C   0  0  0  0  0  0  0  0  0  0  0  0
  141.8100   79.9930  221.1300 C   0  0  0  0  0  0  0  0  0  0  0  0
  141.3420   78.7040  221.3850 C   0  0  0  0  0  0  0  0  0  0  0  0
  140.8450   77.8270  220.4980 N   0  0  0  0  0  0  0  0  0  0  0  0
  140.2350   74.2090  221.1590 N   0  0  0  0  0  0  0  0  0  0  0  0
  139.5920   73.6340  222.3430 C   0  0  0  0  0  0  0  0  0  0  0  0
  139.8940   72.0940  222.3050 C   0  0  2  0  0  0  0  0  0  0  0  0
  138.6230   71.2430  222.3150 C   0  0  0  0  0  0  0  0  0  0  0  0
  138.9860   70.0070  223.1140 C   0  0  0  0  0  0  0  0  0  0  0  0
  140.0770   70.3700  224.0320 N   0  0  0  0  0  0  0  0  0  0  0  0
  139.6520   70.4370  225.4570 C   0  0  0  0  0  0  0  0  0  0  0  0
  139.1990   69.0400  225.9760 C   0  0  0  0  0  0  0  0  0  0  0  0
  140.0720   68.5040  227.1180 C   0  0  0  0  0  0  0  0  0  0  0  0
  140.1590   69.4940  228.2920 C   0  0  0  0  0  0  0  0  0  0  0  0
  140.2710   70.9700  227.8570 C   0  0  0  0  0  0  0  0  0  0  0  0
  140.6880   71.1270  226.3910 C   0  0  0  0  0  0  0  0  0  0  0  0
  140.7180   71.5920  223.5090 C   0  0  0  0  0  0  0  0  0  0  0  0
  140.6560   71.9410  221.0130 C   0  0  0  0  0  0  0  0  0  0  0  0
  141.1960   70.7790  220.4490 C   0  0  0  0  0  0  0  0  0  0  0  0
  141.9060   70.8800  219.2430 C   0  0  0  0  0  0  0  0  0  0  0  0
  142.0770   72.1310  218.6250 C   0  0  0  0  0  0  0  0  0  0  0  0
  141.5370   73.2870  219.2100 C   0  0  0  0  0  0  0  0  0  0  0  0
  140.8200   73.1590  220.4050 C   0  0  0  0  0  0  0  0  0  0  0  0
  140.6451   76.1957  223.3902 H   0  0  0  0  0  0  0  0  0  0  0  0
  141.7850   78.4649  224.7596 H   0  0  0  0  0  0  0  0  0  0  0  0
  142.6641   81.7657  222.0538 H   0  0  0  0  0  0  0  0  0  0  0  0
  141.8070   80.4072  220.1110 H   0  0  0  0  0  0  0  0  0  0  0  0
  140.7000   77.9880  219.4760 H   0  0  0  0  0  0  0  0  0  0  0  0
  140.0086   74.0813  223.2576 H   0  0  0  0  0  0  0  0  0  0  0  0
  138.5094   73.8290  222.3441 H   0  0  0  0  0  0  0  0  0  0  0  0
  137.7973   71.7867  222.7973 H   0  0  0  0  0  0  0  0  0  0  0  0
  138.2841   70.9937  221.2986 H   0  0  0  0  0  0  0  0  0  0  0  0
  138.1130   69.6625  223.6878 H   0  0  0  0  0  0  0  0  0  0  0  0
  139.3022   69.1947  222.4431 H   0  0  0  0  0  0  0  0  0  0  0  0
  138.7744   71.0994  225.4888 H   0  0  0  0  0  0  0  0  0  0  0  0
  138.1631   69.1208  226.3370 H   0  0  0  0  0  0  0  0  0  0  0  0
  139.2920   68.3351  225.1367 H   0  0  0  0  0  0  0  0  0  0  0  0
  139.6405   67.5596  227.4813 H   0  0  0  0  0  0  0  0  0  0  0  0
  141.0885   68.3529  226.7257 H   0  0  0  0  0  0  0  0  0  0  0  0
  139.2543   69.3819  228.9076 H   0  0  0  0  0  0  0  0  0  0  0  0
  141.0785   69.2533  228.8457 H   0  0  0  0  0  0  0  0  0  0  0  0
  139.2928   71.4531  227.9978 H   0  0  0  0  0  0  0  0  0  0  0  0
  141.0506   71.4392  228.4751 H   0  0  0  0  0  0  0  0  0  0  0  0
  140.7442   72.1971  226.1425 H   0  0  0  0  0  0  0  0  0  0  0  0
  141.6705   70.6540  226.2462 H   0  0  0  0  0  0  0  0  0  0  0  0
  140.7409   72.3643  224.2920 H   0  0  0  0  0  0  0  0  0  0  0  0
  141.7504   71.3748  223.1976 H   0  0  0  0  0  0  0  0  0  0  0  0
  141.0660   69.8045  220.9424 H   0  0  0  0  0  0  0  0  0  0  0  0
  142.3303   69.9771  218.7795 H   0  0  0  0  0  0  0  0  0  0  0  0
  142.6356   72.2042  217.6802 H   0  0  0  0  0  0  0  0  0  0  0  0
  141.6744   74.2718  218.7396 H   0  0  0  0  0  0  0  0  0  0  0  0
  1  2  2  0
  2  3  1  0
  3  4  2  0
  4  5  1  0
  5  6  2  0
  6  7  1  0
  7  8  1  0
  7  9  2  0
  9 10  1  0
 10 11  2  0
 11 12  1  0
  2 13  1  0
 13 14  1  0
 15 14  1  1
 15 16  1  0
 16 17  1  0
 17 18  1  0
 18 19  1  0
 19 20  1  0
 20 21  1  0
 21 22  1  0
 22 23  1  0
 23 24  1  0
 18 25  1  0
 15 26  1  0
 26 27  2  0
 27 28  1  0
 28 29  2  0
 29 30  1  0
 30 31  2  0
 12  3  1  0
 31 13  1  0
 11  5  1  0
 25 15  1  0
 31 26  1  0
 24 19  1  0
  4 32  1  0
  6 33  1  0
  9 34  1  0
 10 35  1  0
 12 36  1  0
 14 37  1  0
 14 38  1  0
 16 39  1  0
 16 40  1  0
 17 41  1  0
 17 42  1  0
 19 43  1  0
 20 44  1  0
 20 45  1  0
 21 46  1  0
 21 47  1  0
 22 48  1  0
 22 49  1  0
 23 50  1  0
 23 51  1  0
 24 52  1  0
 24 53  1  0
 25 54  1  0
 25 55  1  0
 27 56  1  0
 28 57  1  0
 29 58  1  0
 30 59  1  0
M  END
>  <UniqueID>  (35) 
178

>  <SMILES>  (35) 
O=C(c1cc2cc(F)ccc2[nH]1)N1C[C@@]2(CCN(C3CCCCC3)C2)c2ccccc21

>  <Energy>  (35) 
130.49395143905497

>  <Genealogy>  (35) 
O=C(c1cc2cc(F)ccc2[nH]1)N1C[C@@]2(CCN(C3CCCCC3)C2)c2ccccc21 (3D coordinates assigned)
O=C(c1cc2cc(F)ccc2[nH]1)N1C[C@@]2(CCN(C3CCCCC3)C2)c2ccccc21 (nonaromatic ring conformer: 130.49395143905497 kcal/mol)

>  <smiles>  (35) 
O=C(c1cc2cc(F)ccc2[nH]1)N1C[C@@]2(CCN(C3CCCCC3)C2)c2ccccc21

>  <score_type>  (35) 
oracle

>  <origin>  (35) 
autodockgpu

>  <m_score__min__energy>  (35) 
-8.3499999999999996

>  <m_primary>  (35) 
energy

>  <meeko>  (35) 
{"free_energy": -8.33, "intermolecular_energy": -9.23, "internal_energy": -1.15, "cluster_size": 11, "cluster_id": 1, "rank_in_cluster": 10}

>  <energy>  (35) 
-8.14

>  <cluster_rmsd>  (35) 
0.0

>  <rmsd>  (35) 
273.64

>  <cluster>  (35) 
3

$$$$
VDMKUDNKZWHZNN-SANMLTNENA-N
     RDKit          3D

 59 64  0  0  0  0  0  0  0  0999 V2000
  140.0110   74.2800  221.9410 O   0  0  0  0  0  0  0  0  0  0  0  0
  140.9550   74.8850  221.3620 C   0  0  0  0  0  0  0  0  0  0  0  0
  142.1400   74.1240  220.9300 C   0  0  0  0  0  0  0  0  0  0  0  0
  142.1400   72.7690  220.6060 C   0  0  0  0  0  0  0  0  0  0  0  0
  143.4490   72.4780  220.2940 C   0  0  0  0  0  0  0  0  0  0  0  0
  144.0430   71.2810  219.8970 C   0  0  0  0  0  0  0  0  0  0  0  0
  145.4290   71.2860  219.6500 C   0  0  0  0  0  0  0  0  0  0  0  0
  146.0480   70.1440  219.2610 F   0  0  0  0  0  0  0  0  0  0  0  0
  146.1790   72.4730  219.8110 C   0  0  0  0  0  0  0  0  0  0  0  0
  145.5500   73.6650  220.2150 C   0  0  0  0  0  0  0  0  0  0  0  0
  144.1750   73.6300  220.4460 C   0  0  0  0  0  0  0  0  0  0  0  0
  143.3880   74.6440  220.8400 N   0  0  0  0  0  0  0  0  0  0  0  0
  140.8490   76.2940  221.1100 N   0  0  0  0  0  0  0  0  0  0  0  0
  140.4890   77.2690  222.1420 C   0  0  0  0  0  0  0  0  0  0  0  0
  140.9010   78.6760  221.5840 C   0  0  2  0  0  0  0  0  0  0  0  0
  141.8750   79.4150  222.5040 C   0  0  0  0  0  0  0  0  0  0  0  0
  141.5050   80.8790  222.3710 C   0  0  0  0  0  0  0  0  0  0  0  0
  140.0880   80.9510  221.9800 N   0  0  0  0  0  0  0  0  0  0  0  0
  139.1990   81.4410  223.0690 C   0  0  0  0  0  0  0  0  0  0  0  0
  137.9890   82.2340  222.4930 C   0  0  0  0  0  0  0  0  0  0  0  0
  136.6340   81.5820  222.8010 C   0  0  0  0  0  0  0  0  0  0  0  0
  136.4360   81.3470  224.3080 C   0  0  0  0  0  0  0  0  0  0  0  0
  137.7090   80.8720  225.0390 C   0  0  0  0  0  0  0  0  0  0  0  0
  138.7790   80.3380  224.0820 C   0  0  0  0  0  0  0  0  0  0  0  0
  139.7150   79.6460  221.4010 C   0  0  0  0  0  0  0  0  0  0  0  0
  141.5380   78.3310  220.2620 C   0  0  0  0  0  0  0  0  0  0  0  0
  142.0930   79.1920  219.3070 C   0  0  0  0  0  0  0  0  0  0  0  0
  142.6030   78.6460  218.1190 C   0  0  0  0  0  0  0  0  0  0  0  0
  142.5430   77.2590  217.8950 C   0  0  0  0  0  0  0  0  0  0  0  0
  141.9740   76.4130  218.8580 C   0  0  0  0  0  0  0  0  0  0  0  0
  141.4860   76.9790  220.0420 C   0  0  0  0  0  0  0  0  0  0  0  0
  141.2813   72.0815  220.6006 H   0  0  0  0  0  0  0  0  0  0  0  0
  143.4484   70.3629  219.7806 H   0  0  0  0  0  0  0  0  0  0  0  0
  147.2621   72.4649  219.6191 H   0  0  0  0  0  0  0  0  0  0  0  0
  146.1241   74.5943  220.3444 H   0  0  0  0  0  0  0  0  0  0  0  0
  143.6930   75.6170  221.0670 H   0  0  0  0  0  0  0  0  0  0  0  0
  139.4063   77.2378  222.3339 H   0  0  0  0  0  0  0  0  0  0  0  0
  140.9992   77.0514  223.0919 H   0  0  0  0  0  0  0  0  0  0  0  0
  141.7549   79.0787  223.5444 H   0  0  0  0  0  0  0  0  0  0  0  0
  142.9241   79.2273  222.2318 H   0  0  0  0  0  0  0  0  0  0  0  0
  141.6543   81.3916  223.3327 H   0  0  0  0  0  0  0  0  0  0  0  0
  142.1375   81.3681  221.6155 H   0  0  0  0  0  0  0  0  0  0  0  0
  139.7970   82.1442  223.6673 H   0  0  0  0  0  0  0  0  0  0  0  0
  137.9963   83.2452  222.9258 H   0  0  0  0  0  0  0  0  0  0  0  0
  138.1014   82.2507  221.3989 H   0  0  0  0  0  0  0  0  0  0  0  0
  135.8321   82.2405  222.4360 H   0  0  0  0  0  0  0  0  0  0  0  0
  136.6059   80.6039  222.2984 H   0  0  0  0  0  0  0  0  0  0  0  0
  136.1059   82.2914  224.7654 H   0  0  0  0  0  0  0  0  0  0  0  0
  135.6905   80.5448  224.4109 H   0  0  0  0  0  0  0  0  0  0  0  0
  138.1300   81.7202  225.5988 H   0  0  0  0  0  0  0  0  0  0  0  0
  137.4193   80.0464  225.7057 H   0  0  0  0  0  0  0  0  0  0  0  0
  139.6595   80.0238  224.6616 H   0  0  0  0  0  0  0  0  0  0  0  0
  138.3668   79.4822  223.5273 H   0  0  0  0  0  0  0  0  0  0  0  0
  138.8281   79.2502  221.9174 H   0  0  0  0  0  0  0  0  0  0  0  0
  139.4805   79.7595  220.3323 H   0  0  0  0  0  0  0  0  0  0  0  0
  142.1286   80.2769  219.4849 H   0  0  0  0  0  0  0  0  0  0  0  0
  143.0510   79.3050  217.3607 H   0  0  0  0  0  0  0  0  0  0  0  0
  142.9435   76.8364  216.9617 H   0  0  0  0  0  0  0  0  0  0  0  0
  141.9124   75.3282  218.6868 H   0  0  0  0  0  0  0  0  0  0  0  0
  1  2  2  0
  2  3  1  0
  3  4  2  0
  4  5  1  0
  5  6  2  0
  6  7  1  0
  7  8  1  0
  7  9  2  0
  9 10  1  0
 10 11  2  0
 11 12  1  0
  2 13  1  0
 13 14  1  0
 15 14  1  1
 15 16  1  0
 16 17  1  0
 17 18  1  0
 18 19  1  0
 19 20  1  0
 20 21  1  0
 21 22  1  0
 22 23  1  0
 23 24  1  0
 18 25  1  0
 15 26  1  0
 26 27  2  0
 27 28  1  0
 28 29  2  0
 29 30  1  0
 30 31  2  0
 12  3  1  0
 31 13  1  0
 11  5  1  0
 25 15  1  0
 31 26  1  0
 24 19  1  0
  4 32  1  0
  6 33  1  0
  9 34  1  0
 10 35  1  0
 12 36  1  0
 14 37  1  0
 14 38  1  0
 16 39  1  0
 16 40  1  0
 17 41  1  0
 17 42  1  0
 19 43  1  0
 20 44  1  0
 20 45  1  0
 21 46  1  0
 21 47  1  0
 22 48  1  0
 22 49  1  0
 23 50  1  0
 23 51  1  0
 24 52  1  0
 24 53  1  0
 25 54  1  0
 25 55  1  0
 27 56  1  0
 28 57  1  0
 29 58  1  0
 30 59  1  0
M  END
>  <UniqueID>  (36) 
178

>  <SMILES>  (36) 
O=C(c1cc2cc(F)ccc2[nH]1)N1C[C@@]2(CCN(C3CCCCC3)C2)c2ccccc21

>  <Energy>  (36) 
130.49395143905497

>  <Genealogy>  (36) 
O=C(c1cc2cc(F)ccc2[nH]1)N1C[C@@]2(CCN(C3CCCCC3)C2)c2ccccc21 (3D coordinates assigned)
O=C(c1cc2cc(F)ccc2[nH]1)N1C[C@@]2(CCN(C3CCCCC3)C2)c2ccccc21 (nonaromatic ring conformer: 130.49395143905497 kcal/mol)

>  <smiles>  (36) 
O=C(c1cc2cc(F)ccc2[nH]1)N1C[C@@]2(CCN(C3CCCCC3)C2)c2ccccc21

>  <score_type>  (36) 
oracle

>  <origin>  (36) 
autodockgpu

>  <m_score__min__energy>  (36) 
-8.3499999999999996

>  <m_primary>  (36) 
energy

>  <meeko>  (36) 
{"free_energy": -8.14, "intermolecular_energy": -9.03, "internal_energy": -1.29, "cluster_size": 3, "cluster_id": 2, "rank_in_cluster": 3}

>  <energy>  (36) 
-8.14

>  <cluster_rmsd>  (36) 
0.04

>  <rmsd>  (36) 
273.67

>  <cluster>  (36) 
3

$$$$
VDMKUDNKZWHZNN-SANMLTNENA-N
     RDKit          3D

 59 64  0  0  0  0  0  0  0  0999 V2000
  137.8890   81.8260  221.8370 O   0  0  0  0  0  0  0  0  0  0  0  0
  138.2210   81.2350  222.9010 C   0  0  0  0  0  0  0  0  0  0  0  0
  137.6060   81.6430  224.1750 C   0  0  0  0  0  0  0  0  0  0  0  0
  137.5860   80.8680  225.3320 C   0  0  0  0  0  0  0  0  0  0  0  0
  136.8910   81.6190  226.2530 C   0  0  0  0  0  0  0  0  0  0  0  0
  136.5590   81.3520  227.5790 C   0  0  0  0  0  0  0  0  0  0  0  0
  135.8210   82.3230  228.2820 C   0  0  0  0  0  0  0  0  0  0  0  0
  135.4780   82.1050  229.5750 F   0  0  0  0  0  0  0  0  0  0  0  0
  135.4310   83.5230  227.6430 C   0  0  0  0  0  0  0  0  0  0  0  0
  135.7790   83.7620  226.3010 C   0  0  0  0  0  0  0  0  0  0  0  0
  136.5160   82.7840  225.6340 C   0  0  0  0  0  0  0  0  0  0  0  0
  136.9430   82.8090  224.3620 N   0  0  0  0  0  0  0  0  0  0  0  0
  139.1700   80.1580  222.8500 N   0  0  0  0  0  0  0  0  0  0  0  0
  138.9390   78.9210  222.1000 C   0  0  0  0  0  0  0  0  0  0  0  0
  140.3400   78.2290  221.9500 C   0  0  2  0  0  0  0  0  0  0  0  0
  140.7200   77.9770  220.4890 C   0  0  0  0  0  0  0  0  0  0  0  0
  141.4930   76.6730  220.5060 C   0  0  0  0  0  0  0  0  0  0  0  0
  141.0490   75.9020  221.6780 N   0  0  0  0  0  0  0  0  0  0  0  0
  140.2210   74.7150  221.3260 C   0  0  0  0  0  0  0  0  0  0  0  0
  140.9950   73.3910  221.5920 C   0  0  0  0  0  0  0  0  0  0  0  0
  140.3350   72.5050  222.6580 C   0  0  0  0  0  0  0  0  0  0  0  0
  138.8670   72.1950  222.3220 C   0  0  0  0  0  0  0  0  0  0  0  0
  138.0970   73.3900  221.7210 C   0  0  0  0  0  0  0  0  0  0  0  0
  138.8010   74.7300  221.9600 C   0  0  0  0  0  0  0  0  0  0  0  0
  140.4260   76.8450  222.6270 C   0  0  0  0  0  0  0  0  0  0  0  0
  141.2680   79.2200  222.6030 C   0  0  0  0  0  0  0  0  0  0  0  0
  142.6550   79.1380  222.7750 C   0  0  0  0  0  0  0  0  0  0  0  0
  143.3150   80.1750  223.4530 C   0  0  0  0  0  0  0  0  0  0  0  0
  142.5870   81.2660  223.9580 C   0  0  0  0  0  0  0  0  0  0  0  0
  141.1960   81.3270  223.7850 C   0  0  0  0  0  0  0  0  0  0  0  0
  140.5620   80.2890  223.0920 C   0  0  0  0  0  0  0  0  0  0  0  0
  138.0293   79.8720  225.4782 H   0  0  0  0  0  0  0  0  0  0  0  0
  136.8639   80.4118  228.0618 H   0  0  0  0  0  0  0  0  0  0  0  0
  134.8516   84.2746  228.1992 H   0  0  0  0  0  0  0  0  0  0  0  0
  135.4792   84.6910  225.7939 H   0  0  0  0  0  0  0  0  0  0  0  0
  136.7590   83.5600  223.6580 H   0  0  0  0  0  0  0  0  0  0  0  0
  138.2474   78.2657  222.6498 H   0  0  0  0  0  0  0  0  0  0  0  0
  138.4874   79.1269  221.1183 H   0  0  0  0  0  0  0  0  0  0  0  0
  139.8187   77.8845  219.8652 H   0  0  0  0  0  0  0  0  0  0  0  0
  141.3109   78.8030  220.0666 H   0  0  0  0  0  0  0  0  0  0  0  0
  141.2897   76.1055  219.5859 H   0  0  0  0  0  0  0  0  0  0  0  0
  142.5741   76.8680  220.5615 H   0  0  0  0  0  0  0  0  0  0  0  0
  140.0349   74.7735  220.2434 H   0  0  0  0  0  0  0  0  0  0  0  0
  141.0494   72.8235  220.6513 H   0  0  0  0  0  0  0  0  0  0  0  0
  141.9912   73.6662  221.9685 H   0  0  0  0  0  0  0  0  0  0  0  0
  140.8910   71.5583  222.7267 H   0  0  0  0  0  0  0  0  0  0  0  0
  140.3568   73.0499  223.6133 H   0  0  0  0  0  0  0  0  0  0  0  0
  138.8449   71.3685  221.5964 H   0  0  0  0  0  0  0  0  0  0  0  0
  138.3700   71.9389  223.2693 H   0  0  0  0  0  0  0  0  0  0  0  0
  137.9966   73.2341  220.6367 H   0  0  0  0  0  0  0  0  0  0  0  0
  137.1171   73.4370  222.2186 H   0  0  0  0  0  0  0  0  0  0  0  0
  138.2088   75.5373  221.5044 H   0  0  0  0  0  0  0  0  0  0  0  0
  138.8948   74.8964  223.0433 H   0  0  0  0  0  0  0  0  0  0  0  0
  139.4163   76.4960  222.8892 H   0  0  0  0  0  0  0  0  0  0  0  0
  141.0269   76.9097  223.5461 H   0  0  0  0  0  0  0  0  0  0  0  0
  143.2175   78.2765  222.3859 H   0  0  0  0  0  0  0  0  0  0  0  0
  144.4057   80.1335  223.5895 H   0  0  0  0  0  0  0  0  0  0  0  0
  143.1093   82.0745  224.4905 H   0  0  0  0  0  0  0  0  0  0  0  0
  140.6164   82.1719  224.1851 H   0  0  0  0  0  0  0  0  0  0  0  0
  1  2  2  0
  2  3  1  0
  3  4  2  0
  4  5  1  0
  5  6  2  0
  6  7  1  0
  7  8  1  0
  7  9  2  0
  9 10  1  0
 10 11  2  0
 11 12  1  0
  2 13  1  0
 13 14  1  0
 15 14  1  6
 15 16  1  0
 16 17  1  0
 17 18  1  0
 18 19  1  0
 19 20  1  0
 20 21  1  0
 21 22  1  0
 22 23  1  0
 23 24  1  0
 18 25  1  0
 15 26  1  0
 26 27  2  0
 27 28  1  0
 28 29  2  0
 29 30  1  0
 30 31  2  0
 12  3  1  0
 31 13  1  0
 11  5  1  0
 25 15  1  0
 31 26  1  0
 24 19  1  0
  4 32  1  0
  6 33  1  0
  9 34  1  0
 10 35  1  0
 12 36  1  0
 14 37  1  0
 14 38  1  0
 16 39  1  0
 16 40  1  0
 17 41  1  0
 17 42  1  0
 19 43  1  0
 20 44  1  0
 20 45  1  0
 21 46  1  0
 21 47  1  0
 22 48  1  0
 22 49  1  0
 23 50  1  0
 23 51  1  0
 24 52  1  0
 24 53  1  0
 25 54  1  0
 25 55  1  0
 27 56  1  0
 28 57  1  0
 29 58  1  0
 30 59  1  0
M  END
>  <UniqueID>  (37) 
178

>  <SMILES>  (37) 
O=C(c1cc2cc(F)ccc2[nH]1)N1C[C@@]2(CCN(C3CCCCC3)C2)c2ccccc21

>  <Energy>  (37) 
130.49395143905497

>  <Genealogy>  (37) 
O=C(c1cc2cc(F)ccc2[nH]1)N1C[C@@]2(CCN(C3CCCCC3)C2)c2ccccc21 (3D coordinates assigned)
O=C(c1cc2cc(F)ccc2[nH]1)N1C[C@@]2(CCN(C3CCCCC3)C2)c2ccccc21 (nonaromatic ring conformer: 130.49395143905497 kcal/mol)

>  <smiles>  (37) 
O=C(c1cc2cc(F)ccc2[nH]1)N1C[C@@]2(CCN(C3CCCCC3)C2)c2ccccc21

>  <score_type>  (37) 
oracle

>  <origin>  (37) 
autodockgpu

>  <m_score__min__energy>  (37) 
-8.3499999999999996

>  <m_primary>  (37) 
energy

>  <meeko>  (37) 
{"free_energy": -8.14, "intermolecular_energy": -9.04, "internal_energy": -1.3, "cluster_size": 5, "cluster_id": 3, "rank_in_cluster": 3}

>  <energy>  (37) 
-8.14

>  <cluster_rmsd>  (37) 
0.05

>  <rmsd>  (37) 
273.66

>  <cluster>  (37) 
3

$$$$
VDMKUDNKZWHZNN-SANMLTNENA-N
     RDKit          3D

 59 64  0  0  0  0  0  0  0  0999 V2000
  137.8470   81.7710  221.8140 O   0  0  0  0  0  0  0  0  0  0  0  0
  138.1880   81.1930  222.8820 C   0  0  0  0  0  0  0  0  0  0  0  0
  137.5810   81.6170  224.1560 C   0  0  0  0  0  0  0  0  0  0  0  0
  137.5470   80.8450  225.3150 C   0  0  0  0  0  0  0  0  0  0  0  0
  136.8670   81.6120  226.2340 C   0  0  0  0  0  0  0  0  0  0  0  0
  136.5310   81.3540  227.5620 C   0  0  0  0  0  0  0  0  0  0  0  0
  135.8130   82.3420  228.2620 C   0  0  0  0  0  0  0  0  0  0  0  0
  135.4670   82.1340  229.5560 F   0  0  0  0  0  0  0  0  0  0  0  0
  135.4470   83.5470  227.6210 C   0  0  0  0  0  0  0  0  0  0  0  0
  135.7980   83.7770  226.2780 C   0  0  0  0  0  0  0  0  0  0  0  0
  136.5150   82.7820  225.6130 C   0  0  0  0  0  0  0  0  0  0  0  0
  136.9410   82.7970  224.3400 N   0  0  0  0  0  0  0  0  0  0  0  0
  139.1380   80.1170  222.8380 N   0  0  0  0  0  0  0  0  0  0  0  0
  138.9130   78.8790  222.0880 C   0  0  0  0  0  0  0  0  0  0  0  0
  140.3150   78.1890  221.9460 C   0  0  2  0  0  0  0  0  0  0  0  0
  140.7030   77.9350  220.4890 C   0  0  0  0  0  0  0  0  0  0  0  0
  141.4770   76.6320  220.5110 C   0  0  0  0  0  0  0  0  0  0  0  0
  141.0280   75.8620  221.6810 N   0  0  0  0  0  0  0  0  0  0  0  0
  140.2030   74.6740  221.3260 C   0  0  0  0  0  0  0  0  0  0  0  0
  140.9810   73.3510  221.5880 C   0  0  0  0  0  0  0  0  0  0  0  0
  140.3230   72.4610  222.6530 C   0  0  0  0  0  0  0  0  0  0  0  0
  138.8550   72.1480  222.3160 C   0  0  0  0  0  0  0  0  0  0  0  0
  138.0820   73.3420  221.7170 C   0  0  0  0  0  0  0  0  0  0  0  0
  138.7830   74.6830  221.9600 C   0  0  0  0  0  0  0  0  0  0  0  0
  140.3990   76.8050  222.6260 C   0  0  0  0  0  0  0  0  0  0  0  0
  141.2380   79.1820  222.6040 C   0  0  0  0  0  0  0  0  0  0  0  0
  142.6250   79.1010  222.7830 C   0  0  0  0  0  0  0  0  0  0  0  0
  143.2800   80.1390  223.4630 C   0  0  0  0  0  0  0  0  0  0  0  0
  142.5480   81.2300  223.9630 C   0  0  0  0  0  0  0  0  0  0  0  0
  141.1580   81.2900  223.7830 C   0  0  0  0  0  0  0  0  0  0  0  0
  140.5280   80.2510  223.0880 C   0  0  0  0  0  0  0  0  0  0  0  0
  137.9712   79.8410  225.4636 H   0  0  0  0  0  0  0  0  0  0  0  0
  136.8175   80.4092  228.0471 H   0  0  0  0  0  0  0  0  0  0  0  0
  134.8833   84.3111  228.1763 H   0  0  0  0  0  0  0  0  0  0  0  0
  135.5163   84.7107  225.7691 H   0  0  0  0  0  0  0  0  0  0  0  0
  136.7730   83.5490  223.6350 H   0  0  0  0  0  0  0  0  0  0  0  0
  138.2194   78.2232  222.6347 H   0  0  0  0  0  0  0  0  0  0  0  0
  138.4665   79.0834  221.1037 H   0  0  0  0  0  0  0  0  0  0  0  0
  139.8051   77.8409  219.8605 H   0  0  0  0  0  0  0  0  0  0  0  0
  141.2959   78.7609  220.0691 H   0  0  0  0  0  0  0  0  0  0  0  0
  141.2789   76.0635  219.5904 H   0  0  0  0  0  0  0  0  0  0  0  0
  142.5577   76.8280  220.5717 H   0  0  0  0  0  0  0  0  0  0  0  0
  140.0162   74.7355  220.2437 H   0  0  0  0  0  0  0  0  0  0  0  0
  141.0361   72.7858  220.6459 H   0  0  0  0  0  0  0  0  0  0  0  0
  141.9771   73.6273  221.9639 H   0  0  0  0  0  0  0  0  0  0  0  0
  140.8813   71.5156  222.7200 H   0  0  0  0  0  0  0  0  0  0  0  0
  140.3436   73.0040  223.6094 H   0  0  0  0  0  0  0  0  0  0  0  0
  138.8350   71.3228  221.5889 H   0  0  0  0  0  0  0  0  0  0  0  0
  138.3585   71.8892  223.2628 H   0  0  0  0  0  0  0  0  0  0  0  0
  137.9828   73.1884  220.6323 H   0  0  0  0  0  0  0  0  0  0  0  0
  137.1013   73.3853  222.2134 H   0  0  0  0  0  0  0  0  0  0  0  0
  138.1887   75.4902  221.5070 H   0  0  0  0  0  0  0  0  0  0  0  0
  138.8767   74.8459  223.0438 H   0  0  0  0  0  0  0  0  0  0  0  0
  139.3884   76.4551  222.8834 H   0  0  0  0  0  0  0  0  0  0  0  0
  140.9948   76.8713  223.5483 H   0  0  0  0  0  0  0  0  0  0  0  0
  143.1902   78.2396  222.3976 H   0  0  0  0  0  0  0  0  0  0  0  0
  144.3700   80.0989  223.6053 H   0  0  0  0  0  0  0  0  0  0  0  0
  143.0669   82.0395  224.4973 H   0  0  0  0  0  0  0  0  0  0  0  0
  140.5759   82.1350  224.1794 H   0  0  0  0  0  0  0  0  0  0  0  0
  1  2  2  0
  2  3  1  0
  3  4  2  0
  4  5  1  0
  5  6  2  0
  6  7  1  0
  7  8  1  0
  7  9  2  0
  9 10  1  0
 10 11  2  0
 11 12  1  0
  2 13  1  0
 13 14  1  0
 15 14  1  6
 15 16  1  0
 16 17  1  0
 17 18  1  0
 18 19  1  0
 19 20  1  0
 20 21  1  0
 21 22  1  0
 22 23  1  0
 23 24  1  0
 18 25  1  0
 15 26  1  0
 26 27  2  0
 27 28  1  0
 28 29  2  0
 29 30  1  0
 30 31  2  0
 12  3  1  0
 31 13  1  0
 11  5  1  0
 25 15  1  0
 31 26  1  0
 24 19  1  0
  4 32  1  0
  6 33  1  0
  9 34  1  0
 10 35  1  0
 12 36  1  0
 14 37  1  0
 14 38  1  0
 16 39  1  0
 16 40  1  0
 17 41  1  0
 17 42  1  0
 19 43  1  0
 20 44  1  0
 20 45  1  0
 21 46  1  0
 21 47  1  0
 22 48  1  0
 22 49  1  0
 23 50  1  0
 23 51  1  0
 24 52  1  0
 24 53  1  0
 25 54  1  0
 25 55  1  0
 27 56  1  0
 28 57  1  0
 29 58  1  0
 30 59  1  0
M  END
>  <UniqueID>  (38) 
178

>  <SMILES>  (38) 
O=C(c1cc2cc(F)ccc2[nH]1)N1C[C@@]2(CCN(C3CCCCC3)C2)c2ccccc21

>  <Energy>  (38) 
130.49395143905497

>  <Genealogy>  (38) 
O=C(c1cc2cc(F)ccc2[nH]1)N1C[C@@]2(CCN(C3CCCCC3)C2)c2ccccc21 (3D coordinates assigned)
O=C(c1cc2cc(F)ccc2[nH]1)N1C[C@@]2(CCN(C3CCCCC3)C2)c2ccccc21 (nonaromatic ring conformer: 130.49395143905497 kcal/mol)

>  <smiles>  (38) 
O=C(c1cc2cc(F)ccc2[nH]1)N1C[C@@]2(CCN(C3CCCCC3)C2)c2ccccc21

>  <score_type>  (38) 
oracle

>  <origin>  (38) 
autodockgpu

>  <m_score__min__energy>  (38) 
-8.3499999999999996

>  <m_primary>  (38) 
energy

>  <meeko>  (38) 
{"free_energy": -8.14, "intermolecular_energy": -9.04, "internal_energy": -1.3, "cluster_size": 5, "cluster_id": 3, "rank_in_cluster": 1}

>  <energy>  (38) 
-8.14

>  <cluster_rmsd>  (38) 
0.05

>  <rmsd>  (38) 
273.66

>  <cluster>  (38) 
3

$$$$
VDMKUDNKZWHZNN-SANMLTNENA-N
     RDKit          3D

 59 64  0  0  0  0  0  0  0  0999 V2000
  142.1240   73.4960  220.3620 O   0  0  0  0  0  0  0  0  0  0  0  0
  141.1850   73.5340  221.2030 C   0  0  0  0  0  0  0  0  0  0  0  0
  140.6810   74.8400  221.6620 C   0  0  0  0  0  0  0  0  0  0  0  0
  139.3510   75.1110  221.9800 C   0  0  0  0  0  0  0  0  0  0  0  0
  139.3320   76.4430  222.3250 C   0  0  0  0  0  0  0  0  0  0  0  0
  138.2800   77.2610  222.7320 C   0  0  0  0  0  0  0  0  0  0  0  0
  138.5670   78.6100  223.0150 C   0  0  0  0  0  0  0  0  0  0  0  0
  137.5730   79.4410  223.4150 F   0  0  0  0  0  0  0  0  0  0  0  0
  139.8850   79.1030  222.8790 C   0  0  0  0  0  0  0  0  0  0  0  0
  140.9260   78.2520  222.4640 C   0  0  0  0  0  0  0  0  0  0  0  0
  140.6110   76.9200  222.1970 C   0  0  0  0  0  0  0  0  0  0  0  0
  141.4450   75.9510  221.7870 N   0  0  0  0  0  0  0  0  0  0  0  0
  140.6050   72.3100  221.6780 N   0  0  0  0  0  0  0  0  0  0  0  0
  140.2270   72.0910  223.0770 C   0  0  0  0  0  0  0  0  0  0  0  0
  139.2680   70.8500  223.0860 C   0  0  2  0  0  0  0  0  0  0  0  0
  137.9060   71.1610  223.7110 C   0  0  0  0  0  0  0  0  0  0  0  0
  137.5000   69.8840  224.4190 C   0  0  0  0  0  0  0  0  0  0  0  0
  138.7280   69.1490  224.7620 N   0  0  0  0  0  0  0  0  0  0  0  0
  139.0320   69.1550  226.2200 C   0  0  0  0  0  0  0  0  0  0  0  0
  139.5440   67.7630  226.6930 C   0  0  0  0  0  0  0  0  0  0  0  0
  140.9820   67.7960  227.2310 C   0  0  0  0  0  0  0  0  0  0  0  0
  141.1520   68.8270  228.3590 C   0  0  0  0  0  0  0  0  0  0  0  0
  140.3810   70.1430  228.1250 C   0  0  0  0  0  0  0  0  0  0  0  0
  139.9520   70.3280  226.6650 C   0  0  0  0  0  0  0  0  0  0  0  0
  139.8090   69.6500  223.8920 C   0  0  0  0  0  0  0  0  0  0  0  0
  139.1450   70.5180  221.6210 C   0  0  0  0  0  0  0  0  0  0  0  0
  138.4140   69.4900  221.0150 C   0  0  0  0  0  0  0  0  0  0  0  0
  138.4760   69.3470  219.6200 C   0  0  0  0  0  0  0  0  0  0  0  0
  139.2700   70.2180  218.8540 C   0  0  0  0  0  0  0  0  0  0  0  0
  140.0040   71.2370  219.4790 C   0  0  0  0  0  0  0  0  0  0  0  0
  139.9150   71.3700  220.8700 C   0  0  0  0  0  0  0  0  0  0  0  0
  138.5017   74.4122  221.9596 H   0  0  0  0  0  0  0  0  0  0  0  0
  137.2581   76.8655  222.8291 H   0  0  0  0  0  0  0  0  0  0  0  0
  140.0983   80.1594  223.0992 H   0  0  0  0  0  0  0  0  0  0  0  0
  141.9548   78.6253  222.3538 H   0  0  0  0  0  0  0  0  0  0  0  0
  142.4620   76.0540  221.5730 H   0  0  0  0  0  0  0  0  0  0  0  0
  141.1204   71.8861  223.6851 H   0  0  0  0  0  0  0  0  0  0  0  0
  139.7353   72.9787  223.5015 H   0  0  0  0  0  0  0  0  0  0  0  0
  137.9899   71.9910  224.4280 H   0  0  0  0  0  0  0  0  0  0  0  0
  137.1660   71.4697  222.9579 H   0  0  0  0  0  0  0  0  0  0  0  0
  136.9406   70.1257  225.3348 H   0  0  0  0  0  0  0  0  0  0  0  0
  136.8557   69.2732  223.7696 H   0  0  0  0  0  0  0  0  0  0  0  0
  138.0802   69.3467  226.7371 H   0  0  0  0  0  0  0  0  0  0  0  0
  138.8806   67.3998  227.4917 H   0  0  0  0  0  0  0  0  0  0  0  0
  139.5391   67.0987  225.8163 H   0  0  0  0  0  0  0  0  0  0  0  0
  141.2388   66.7994  227.6193 H   0  0  0  0  0  0  0  0  0  0  0  0
  141.6474   68.0847  226.4040 H   0  0  0  0  0  0  0  0  0  0  0  0
  140.7928   68.3772  229.2963 H   0  0  0  0  0  0  0  0  0  0  0  0
  142.2205   69.0855  228.3968 H   0  0  0  0  0  0  0  0  0  0  0  0
  139.4815   70.1408  228.7581 H   0  0  0  0  0  0  0  0  0  0  0  0
  141.0568   70.9728  228.3795 H   0  0  0  0  0  0  0  0  0  0  0  0
  139.4044   71.2767  226.5651 H   0  0  0  0  0  0  0  0  0  0  0  0
  140.8484   70.3415  226.0275 H   0  0  0  0  0  0  0  0  0  0  0  0
  140.6629   69.9701  224.5071 H   0  0  0  0  0  0  0  0  0  0  0  0
  140.1436   68.8555  223.2088 H   0  0  0  0  0  0  0  0  0  0  0  0
  137.8017   68.8061  221.6211 H   0  0  0  0  0  0  0  0  0  0  0  0
  137.9013   68.5506  219.1245 H   0  0  0  0  0  0  0  0  0  0  0  0
  139.3159   70.1002  217.7613 H   0  0  0  0  0  0  0  0  0  0  0  0
  140.6360   71.9170  218.8889 H   0  0  0  0  0  0  0  0  0  0  0  0
  1  2  2  0
  2  3  1  0
  3  4  2  0
  4  5  1  0
  5  6  2  0
  6  7  1  0
  7  8  1  0
  7  9  2  0
  9 10  1  0
 10 11  2  0
 11 12  1  0
  2 13  1  0
 13 14  1  0
 15 14  1  6
 15 16  1  0
 16 17  1  0
 17 18  1  0
 18 19  1  0
 19 20  1  0
 20 21  1  0
 21 22  1  0
 22 23  1  0
 23 24  1  0
 18 25  1  0
 15 26  1  0
 26 27  2  0
 27 28  1  0
 28 29  2  0
 29 30  1  0
 30 31  2  0
 12  3  1  0
 31 13  1  0
 11  5  1  0
 25 15  1  0
 31 26  1  0
 24 19  1  0
  4 32  1  0
  6 33  1  0
  9 34  1  0
 10 35  1  0
 12 36  1  0
 14 37  1  0
 14 38  1  0
 16 39  1  0
 16 40  1  0
 17 41  1  0
 17 42  1  0
 19 43  1  0
 20 44  1  0
 20 45  1  0
 21 46  1  0
 21 47  1  0
 22 48  1  0
 22 49  1  0
 23 50  1  0
 23 51  1  0
 24 52  1  0
 24 53  1  0
 25 54  1  0
 25 55  1  0
 27 56  1  0
 28 57  1  0
 29 58  1  0
 30 59  1  0
M  END
>  <UniqueID>  (39) 
178

>  <SMILES>  (39) 
O=C(c1cc2cc(F)ccc2[nH]1)N1C[C@@]2(CCN(C3CCCCC3)C2)c2ccccc21

>  <Energy>  (39) 
130.49395143905497

>  <Genealogy>  (39) 
O=C(c1cc2cc(F)ccc2[nH]1)N1C[C@@]2(CCN(C3CCCCC3)C2)c2ccccc21 (3D coordinates assigned)
O=C(c1cc2cc(F)ccc2[nH]1)N1C[C@@]2(CCN(C3CCCCC3)C2)c2ccccc21 (nonaromatic ring conformer: 130.49395143905497 kcal/mol)

>  <smiles>  (39) 
O=C(c1cc2cc(F)ccc2[nH]1)N1C[C@@]2(CCN(C3CCCCC3)C2)c2ccccc21

>  <score_type>  (39) 
oracle

>  <origin>  (39) 
autodockgpu

>  <m_score__min__energy>  (39) 
-8.3499999999999996

>  <m_primary>  (39) 
energy

>  <meeko>  (39) 
{"free_energy": -8.13, "intermolecular_energy": -9.02, "internal_energy": -1.34, "cluster_size": 1, "cluster_id": 4, "rank_in_cluster": 1}

>  <energy>  (39) 
-8.12

>  <cluster_rmsd>  (39) 
0.08

>  <rmsd>  (39) 
273.63

>  <cluster>  (39) 
3

$$$$
VDMKUDNKZWHZNN-SANMLTNENA-N
     RDKit          3D

 59 64  0  0  0  0  0  0  0  0999 V2000
  139.0310   75.7200  219.8290 O   0  0  0  0  0  0  0  0  0  0  0  0
  139.9010   75.6100  220.7360 C   0  0  0  0  0  0  0  0  0  0  0  0
  140.5160   76.8260  221.2950 C   0  0  0  0  0  0  0  0  0  0  0  0
  140.8120   77.0190  222.6430 C   0  0  0  0  0  0  0  0  0  0  0  0
  141.3400   78.2890  222.7130 C   0  0  0  0  0  0  0  0  0  0  0  0
  141.8120   79.0170  223.8030 C   0  0  0  0  0  0  0  0  0  0  0  0
  142.2940   80.3180  223.5650 C   0  0  0  0  0  0  0  0  0  0  0  0
  142.7640   81.0620  224.5970 F   0  0  0  0  0  0  0  0  0  0  0  0
  142.2860   80.8550  222.2570 C   0  0  0  0  0  0  0  0  0  0  0  0
  141.8000   80.0950  221.1770 C   0  0  0  0  0  0  0  0  0  0  0  0
  141.3350   78.8080  221.4440 C   0  0  0  0  0  0  0  0  0  0  0  0
  140.8290   77.9250  220.5670 N   0  0  0  0  0  0  0  0  0  0  0  0
  140.2560   74.3090  221.2290 N   0  0  0  0  0  0  0  0  0  0  0  0
  139.5640   73.6570  222.3440 C   0  0  0  0  0  0  0  0  0  0  0  0
  139.9530   72.1380  222.2760 C   0  0  2  0  0  0  0  0  0  0  0  0
  138.7330   71.2210  222.1660 C   0  0  0  0  0  0  0  0  0  0  0  0
  139.1080   69.9770  222.9480 C   0  0  0  0  0  0  0  0  0  0  0  0
  140.1100   70.3620  223.9540 N   0  0  0  0  0  0  0  0  0  0  0  0
  139.5840   70.3540  225.3460 C   0  0  0  0  0  0  0  0  0  0  0  0
  139.1430   68.9230  225.7720 C   0  0  0  0  0  0  0  0  0  0  0  0
  139.9510   68.3640  226.9510 C   0  0  0  0  0  0  0  0  0  0  0  0
  139.9220   69.3040  228.1680 C   0  0  0  0  0  0  0  0  0  0  0  0
  140.0140   70.8010  227.8040 C   0  0  0  0  0  0  0  0  0  0  0  0
  140.5270   71.0340  226.3790 C   0  0  0  0  0  0  0  0  0  0  0  0
  140.7180   71.6350  223.5180 C   0  0  0  0  0  0  0  0  0  0  0  0
  140.8100   72.0730  221.0380 C   0  0  0  0  0  0  0  0  0  0  0  0
  141.4520   70.9630  220.4750 C   0  0  0  0  0  0  0  0  0  0  0  0
  142.2370   71.1460  219.3270 C   0  0  0  0  0  0  0  0  0  0  0  0
  142.3820   72.4260  218.7650 C   0  0  0  0  0  0  0  0  0  0  0  0
  141.7400   73.5290  219.3480 C   0  0  0  0  0  0  0  0  0  0  0  0
  140.9500   73.3200  220.4840 C   0  0  0  0  0  0  0  0  0  0  0  0
  140.6576   76.3112  223.4708 H   0  0  0  0  0  0  0  0  0  0  0  0
  141.8082   78.5892  224.8164 H   0  0  0  0  0  0  0  0  0  0  0  0
  142.6622   81.8738  222.0825 H   0  0  0  0  0  0  0  0  0  0  0  0
  141.7874   80.5030  220.1555 H   0  0  0  0  0  0  0  0  0  0  0  0
  140.6750   78.0800  219.5460 H   0  0  0  0  0  0  0  0  0  0  0  0
  139.8899   74.0912  223.3007 H   0  0  0  0  0  0  0  0  0  0  0  0
  138.4749   73.7943  222.2738 H   0  0  0  0  0  0  0  0  0  0  0  0
  137.8466   71.7018  222.6055 H   0  0  0  0  0  0  0  0  0  0  0  0
  138.4800   70.9921  221.1202 H   0  0  0  0  0  0  0  0  0  0  0  0
  138.2175   69.5654  223.4456 H   0  0  0  0  0  0  0  0  0  0  0  0
  139.5158   69.2088  222.2746 H   0  0  0  0  0  0  0  0  0  0  0  0
  138.6847   70.9875  225.3428 H   0  0  0  0  0  0  0  0  0  0  0  0
  138.0820   68.9561  226.0605 H   0  0  0  0  0  0  0  0  0  0  0  0
  139.3187   68.2589  224.9129 H   0  0  0  0  0  0  0  0  0  0  0  0
  139.5266   67.3921  227.2430 H   0  0  0  0  0  0  0  0  0  0  0  0
  140.9971   68.2608  226.6268 H   0  0  0  0  0  0  0  0  0  0  0  0
  138.9808   69.1371  228.7122 H   0  0  0  0  0  0  0  0  0  0  0  0
  140.8084   69.0679  228.7751 H   0  0  0  0  0  0  0  0  0  0  0  0
  139.0126   71.2471  227.8946 H   0  0  0  0  0  0  0  0  0  0  0  0
  140.7317   71.2669  228.4952 H   0  0  0  0  0  0  0  0  0  0  0  0
  140.5641   72.1151  226.1793 H   0  0  0  0  0  0  0  0  0  0  0  0
  141.5325   70.5979  226.2857 H   0  0  0  0  0  0  0  0  0  0  0  0
  140.6447   72.3779  224.3259 H   0  0  0  0  0  0  0  0  0  0  0  0
  141.7796   71.4833  223.2730 H   0  0  0  0  0  0  0  0  0  0  0  0
  141.3426   69.9653  220.9251 H   0  0  0  0  0  0  0  0  0  0  0  0
  142.7410   70.2844  218.8648 H   0  0  0  0  0  0  0  0  0  0  0  0
  143.0004   72.5634  217.8657 H   0  0  0  0  0  0  0  0  0  0  0  0
  141.8552   74.5363  218.9213 H   0  0  0  0  0  0  0  0  0  0  0  0
  1  2  2  0
  2  3  1  0
  3  4  2  0
  4  5  1  0
  5  6  2  0
  6  7  1  0
  7  8  1  0
  7  9  2  0
  9 10  1  0
 10 11  2  0
 11 12  1  0
  2 13  1  0
 13 14  1  0
 15 14  1  1
 15 16  1  0
 16 17  1  0
 17 18  1  0
 18 19  1  0
 19 20  1  0
 20 21  1  0
 21 22  1  0
 22 23  1  0
 23 24  1  0
 18 25  1  0
 15 26  1  0
 26 27  2  0
 27 28  1  0
 28 29  2  0
 29 30  1  0
 30 31  2  0
 12  3  1  0
 31 13  1  0
 11  5  1  0
 25 15  1  0
 31 26  1  0
 24 19  1  0
  4 32  1  0
  6 33  1  0
  9 34  1  0
 10 35  1  0
 12 36  1  0
 14 37  1  0
 14 38  1  0
 16 39  1  0
 16 40  1  0
 17 41  1  0
 17 42  1  0
 19 43  1  0
 20 44  1  0
 20 45  1  0
 21 46  1  0
 21 47  1  0
 22 48  1  0
 22 49  1  0
 23 50  1  0
 23 51  1  0
 24 52  1  0
 24 53  1  0
 25 54  1  0
 25 55  1  0
 27 56  1  0
 28 57  1  0
 29 58  1  0
 30 59  1  0
M  END
>  <UniqueID>  (40) 
178

>  <SMILES>  (40) 
O=C(c1cc2cc(F)ccc2[nH]1)N1C[C@@]2(CCN(C3CCCCC3)C2)c2ccccc21

>  <Energy>  (40) 
130.49395143905497

>  <Genealogy>  (40) 
O=C(c1cc2cc(F)ccc2[nH]1)N1C[C@@]2(CCN(C3CCCCC3)C2)c2ccccc21 (3D coordinates assigned)
O=C(c1cc2cc(F)ccc2[nH]1)N1C[C@@]2(CCN(C3CCCCC3)C2)c2ccccc21 (nonaromatic ring conformer: 130.49395143905497 kcal/mol)

>  <smiles>  (40) 
O=C(c1cc2cc(F)ccc2[nH]1)N1C[C@@]2(CCN(C3CCCCC3)C2)c2ccccc21

>  <score_type>  (40) 
oracle

>  <origin>  (40) 
autodockgpu

>  <m_score__min__energy>  (40) 
-8.3499999999999996

>  <m_primary>  (40) 
energy

>  <meeko>  (40) 
{"free_energy": -8.35, "intermolecular_energy": -9.25, "internal_energy": -1.15, "cluster_size": 11, "cluster_id": 1, "rank_in_cluster": 1}

>  <energy>  (40) 
-8.13

>  <cluster_rmsd>  (40) 
0.0

>  <rmsd>  (40) 
271.66

>  <cluster>  (40) 
4

$$$$
VDMKUDNKZWHZNN-SANMLTNENA-N
     RDKit          3D

 59 64  0  0  0  0  0  0  0  0999 V2000
  139.0180   75.6930  219.8230 O   0  0  0  0  0  0  0  0  0  0  0  0
  139.8930   75.5870  220.7260 C   0  0  0  0  0  0  0  0  0  0  0  0
  140.5120   76.8040  221.2760 C   0  0  0  0  0  0  0  0  0  0  0  0
  140.8150   77.0030  222.6220 C   0  0  0  0  0  0  0  0  0  0  0  0
  141.3450   78.2720  222.6830 C   0  0  0  0  0  0  0  0  0  0  0  0
  141.8230   79.0050  223.7680 C   0  0  0  0  0  0  0  0  0  0  0  0
  142.3050   80.3050  223.5220 C   0  0  0  0  0  0  0  0  0  0  0  0
  142.7800   81.0530  224.5480 F   0  0  0  0  0  0  0  0  0  0  0  0
  142.2900   80.8360  222.2120 C   0  0  0  0  0  0  0  0  0  0  0  0
  141.7990   80.0710  221.1380 C   0  0  0  0  0  0  0  0  0  0  0  0
  141.3330   78.7860  221.4120 C   0  0  0  0  0  0  0  0  0  0  0  0
  140.8230   77.9000  220.5420 N   0  0  0  0  0  0  0  0  0  0  0  0
  140.2500   74.2870  221.2210 N   0  0  0  0  0  0  0  0  0  0  0  0
  139.5650   73.6400  222.3440 C   0  0  0  0  0  0  0  0  0  0  0  0
  139.9520   72.1210  222.2800 C   0  0  2  0  0  0  0  0  0  0  0  0
  138.7310   71.2040  222.1820 C   0  0  0  0  0  0  0  0  0  0  0  0
  139.1090   69.9630  222.9660 C   0  0  0  0  0  0  0  0  0  0  0  0
  140.1180   70.3520  223.9640 N   0  0  0  0  0  0  0  0  0  0  0  0
  139.6010   70.3500  225.3600 C   0  0  0  0  0  0  0  0  0  0  0  0
  139.1470   68.9240  225.7890 C   0  0  0  0  0  0  0  0  0  0  0  0
  139.9570   68.3560  226.9630 C   0  0  0  0  0  0  0  0  0  0  0  0
  139.9460   69.2970  228.1800 C   0  0  0  0  0  0  0  0  0  0  0  0
  140.0530   70.7930  227.8140 C   0  0  0  0  0  0  0  0  0  0  0  0
  140.5590   71.0200  226.3860 C   0  0  0  0  0  0  0  0  0  0  0  0
  140.7240   71.6220  223.5190 C   0  0  0  0  0  0  0  0  0  0  0  0
  140.8010   72.0500  221.0370 C   0  0  0  0  0  0  0  0  0  0  0  0
  141.4380   70.9370  220.4740 C   0  0  0  0  0  0  0  0  0  0  0  0
  142.2160   71.1140  219.3200 C   0  0  0  0  0  0  0  0  0  0  0  0
  142.3580   72.3920  218.7520 C   0  0  0  0  0  0  0  0  0  0  0  0
  141.7210   73.4980  219.3340 C   0  0  0  0  0  0  0  0  0  0  0  0
  140.9380   73.2940  220.4760 C   0  0  0  0  0  0  0  0  0  0  0  0
  140.6636   76.2995  223.4539 H   0  0  0  0  0  0  0  0  0  0  0  0
  141.8237   78.5817  224.7833 H   0  0  0  0  0  0  0  0  0  0  0  0
  142.6647   81.8542  222.0310 H   0  0  0  0  0  0  0  0  0  0  0  0
  141.7833   80.4741  220.1146 H   0  0  0  0  0  0  0  0  0  0  0  0
  140.6630   78.0510  219.5210 H   0  0  0  0  0  0  0  0  0  0  0  0
  139.8979   74.0780  223.2965 H   0  0  0  0  0  0  0  0  0  0  0  0
  138.4755   73.7779  222.2807 H   0  0  0  0  0  0  0  0  0  0  0  0
  137.8479   71.6873  222.6252 H   0  0  0  0  0  0  0  0  0  0  0  0
  138.4719   70.9708  221.1387 H   0  0  0  0  0  0  0  0  0  0  0  0
  138.2212   69.5544  223.4709 H   0  0  0  0  0  0  0  0  0  0  0  0
  139.5112   69.1910  222.2934 H   0  0  0  0  0  0  0  0  0  0  0  0
  138.7085   70.9930  225.3634 H   0  0  0  0  0  0  0  0  0  0  0  0
  138.0884   68.9689  226.0846 H   0  0  0  0  0  0  0  0  0  0  0  0
  139.3095   68.2580  224.9288 H   0  0  0  0  0  0  0  0  0  0  0  0
  139.5240   67.3888  227.2581 H   0  0  0  0  0  0  0  0  0  0  0  0
  140.9997   68.2410  226.6320 H   0  0  0  0  0  0  0  0  0  0  0  0
  139.0062   69.1412  228.7300 H   0  0  0  0  0  0  0  0  0  0  0  0
  140.8330   69.0510  228.7822 H   0  0  0  0  0  0  0  0  0  0  0  0
  139.0574   71.2506  227.9110 H   0  0  0  0  0  0  0  0  0  0  0  0
  140.7810   71.2506  228.5000 H   0  0  0  0  0  0  0  0  0  0  0  0
  140.6069   72.1005  226.1856 H   0  0  0  0  0  0  0  0  0  0  0  0
  141.5591   70.5731  226.2859 H   0  0  0  0  0  0  0  0  0  0  0  0
  140.6566   72.3683  224.3243 H   0  0  0  0  0  0  0  0  0  0  0  0
  141.7838   71.4679  223.2677 H   0  0  0  0  0  0  0  0  0  0  0  0
  141.3302   69.9412  220.9288 H   0  0  0  0  0  0  0  0  0  0  0  0
  142.7164   70.2501  218.8583 H   0  0  0  0  0  0  0  0  0  0  0  0
  142.9707   72.5252  217.8482 H   0  0  0  0  0  0  0  0  0  0  0  0
  141.8344   74.5034  218.9024 H   0  0  0  0  0  0  0  0  0  0  0  0
  1  2  2  0
  2  3  1  0
  3  4  2  0
  4  5  1  0
  5  6  2  0
  6  7  1  0
  7  8  1  0
  7  9  2  0
  9 10  1  0
 10 11  2  0
 11 12  1  0
  2 13  1  0
 13 14  1  0
 15 14  1  1
 15 16  1  0
 16 17  1  0
 17 18  1  0
 18 19  1  0
 19 20  1  0
 20 21  1  0
 21 22  1  0
 22 23  1  0
 23 24  1  0
 18 25  1  0
 15 26  1  0
 26 27  2  0
 27 28  1  0
 28 29  2  0
 29 30  1  0
 30 31  2  0
 12  3  1  0
 31 13  1  0
 11  5  1  0
 25 15  1  0
 31 26  1  0
 24 19  1  0
  4 32  1  0
  6 33  1  0
  9 34  1  0
 10 35  1  0
 12 36  1  0
 14 37  1  0
 14 38  1  0
 16 39  1  0
 16 40  1  0
 17 41  1  0
 17 42  1  0
 19 43  1  0
 20 44  1  0
 20 45  1  0
 21 46  1  0
 21 47  1  0
 22 48  1  0
 22 49  1  0
 23 50  1  0
 23 51  1  0
 24 52  1  0
 24 53  1  0
 25 54  1  0
 25 55  1  0
 27 56  1  0
 28 57  1  0
 29 58  1  0
 30 59  1  0
M  END
>  <UniqueID>  (41) 
179

>  <SMILES>  (41) 
O=C(c1cc2cc(F)ccc2[nH]1)N1C[C@@]2(CCN(C3CCCCC3)C2)c2ccccc21

>  <Energy>  (41) 
130.96910791784092

>  <Genealogy>  (41) 
O=C(c1cc2cc(F)ccc2[nH]1)N1C[C@@]2(CCN(C3CCCCC3)C2)c2ccccc21 (3D coordinates assigned)
O=C(c1cc2cc(F)ccc2[nH]1)N1C[C@@]2(CCN(C3CCCCC3)C2)c2ccccc21 (nonaromatic ring conformer: 130.96910791784092 kcal/mol)

>  <smiles>  (41) 
O=C(c1cc2cc(F)ccc2[nH]1)N1C[C@@]2(CCN(C3CCCCC3)C2)c2ccccc21

>  <score_type>  (41) 
oracle

>  <origin>  (41) 
autodockgpu

>  <m_score__min__energy>  (41) 
-8.3499999999999996

>  <m_primary>  (41) 
energy

>  <meeko>  (41) 
{"free_energy": -8.35, "intermolecular_energy": -9.24, "internal_energy": -1.15, "cluster_size": 11, "cluster_id": 1, "rank_in_cluster": 5}

>  <energy>  (41) 
-8.35

>  <cluster_rmsd>  (41) 
0.0

>  <rmsd>  (41) 
272.17

>  <cluster>  (41) 
1

$$$$
VDMKUDNKZWHZNN-SANMLTNENA-N
     RDKit          3D

 59 64  0  0  0  0  0  0  0  0999 V2000
  139.9670   74.2480  222.0080 O   0  0  0  0  0  0  0  0  0  0  0  0
  140.9060   74.8250  221.3960 C   0  0  0  0  0  0  0  0  0  0  0  0
  142.0590   74.0330  220.9320 C   0  0  0  0  0  0  0  0  0  0  0  0
  142.0040   72.6890  220.5680 C   0  0  0  0  0  0  0  0  0  0  0  0
  143.2990   72.3580  220.2360 C   0  0  0  0  0  0  0  0  0  0  0  0
  143.8440   71.1520  219.8000 C   0  0  0  0  0  0  0  0  0  0  0  0
  145.2270   71.1110  219.5420 C   0  0  0  0  0  0  0  0  0  0  0  0
  145.7990   69.9580  219.1140 F   0  0  0  0  0  0  0  0  0  0  0  0
  146.0230   72.2640  219.7310 C   0  0  0  0  0  0  0  0  0  0  0  0
  145.4430   73.4660  220.1750 C   0  0  0  0  0  0  0  0  0  0  0  0
  144.0690   73.4760  220.4170 C   0  0  0  0  0  0  0  0  0  0  0  0
  143.3240   74.5080  220.8460 N   0  0  0  0  0  0  0  0  0  0  0  0
  140.8270   76.2350  221.1370 N   0  0  0  0  0  0  0  0  0  0  0  0
  140.4690   77.2200  222.1610 C   0  0  0  0  0  0  0  0  0  0  0  0
  140.9110   78.6180  221.6030 C   0  0  2  0  0  0  0  0  0  0  0  0
  141.8840   79.3440  222.5330 C   0  0  0  0  0  0  0  0  0  0  0  0
  141.5400   80.8130  222.3900 C   0  0  0  0  0  0  0  0  0  0  0  0
  140.1300   80.9070  221.9800 N   0  0  0  0  0  0  0  0  0  0  0  0
  139.2340   81.4150  223.0550 C   0  0  0  0  0  0  0  0  0  0  0  0
  138.0430   82.2210  222.4600 C   0  0  0  0  0  0  0  0  0  0  0  0
  136.6750   81.5900  222.7550 C   0  0  0  0  0  0  0  0  0  0  0  0
  136.4550   81.3670  224.2610 C   0  0  0  0  0  0  0  0  0  0  0  0
  137.7130   80.8790  225.0100 C   0  0  0  0  0  0  0  0  0  0  0  0
  138.7870   80.3240  224.0690 C   0  0  0  0  0  0  0  0  0  0  0  0
  139.7430   79.6060  221.4010 C   0  0  0  0  0  0  0  0  0  0  0  0
  141.5600   78.2570  220.2910 C   0  0  0  0  0  0  0  0  0  0  0  0
  142.1410   79.1050  219.3400 C   0  0  0  0  0  0  0  0  0  0  0  0
  142.6580   78.5470  218.1610 C   0  0  0  0  0  0  0  0  0  0  0  0
  142.5780   77.1600  217.9410 C   0  0  0  0  0  0  0  0  0  0  0  0
  141.9830   76.3260  218.9000 C   0  0  0  0  0  0  0  0  0  0  0  0
  141.4890   76.9050  220.0750 C   0  0  0  0  0  0  0  0  0  0  0  0
  141.1195   72.0353  220.5498 H   0  0  0  0  0  0  0  0  0  0  0  0
  143.2139   70.2610  219.6619 H   0  0  0  0  0  0  0  0  0  0  0  0
  147.1035   72.2208  219.5294 H   0  0  0  0  0  0  0  0  0  0  0  0
  146.0529   74.3688  220.3265 H   0  0  0  0  0  0  0  0  0  0  0  0
  143.6680   75.4610  221.0990 H   0  0  0  0  0  0  0  0  0  0  0  0
  139.3835   77.2070  222.3387 H   0  0  0  0  0  0  0  0  0  0  0  0
  140.9630   76.9980  223.1185 H   0  0  0  0  0  0  0  0  0  0  0  0
  141.7445   79.0136  223.5729 H   0  0  0  0  0  0  0  0  0  0  0  0
  142.9335   79.1382  222.2756 H   0  0  0  0  0  0  0  0  0  0  0  0
  141.6850   81.3266  223.3519 H   0  0  0  0  0  0  0  0  0  0  0  0
  142.1904   81.2888  221.6412 H   0  0  0  0  0  0  0  0  0  0  0  0
  139.8339   82.1135  223.6568 H   0  0  0  0  0  0  0  0  0  0  0  0
  138.0594   83.2346  222.8871 H   0  0  0  0  0  0  0  0  0  0  0  0
  138.1690   82.2295  221.3673 H   0  0  0  0  0  0  0  0  0  0  0  0
  135.8871   82.2575  222.3762 H   0  0  0  0  0  0  0  0  0  0  0  0
  136.6393   80.6094  222.2579 H   0  0  0  0  0  0  0  0  0  0  0  0
  136.1324   82.3185  224.7088 H   0  0  0  0  0  0  0  0  0  0  0  0
  135.6970   80.5760  224.3598 H   0  0  0  0  0  0  0  0  0  0  0  0
  138.1391   81.7249  225.5694 H   0  0  0  0  0  0  0  0  0  0  0  0
  137.4041   80.0617  225.6782 H   0  0  0  0  0  0  0  0  0  0  0  0
  139.6561   80.0012  224.6610 H   0  0  0  0  0  0  0  0  0  0  0  0
  138.3698   79.4704  223.5146 H   0  0  0  0  0  0  0  0  0  0  0  0
  138.8433   79.2266  221.9075 H   0  0  0  0  0  0  0  0  0  0  0  0
  139.5237   79.7189  220.3290 H   0  0  0  0  0  0  0  0  0  0  0  0
  142.1912   80.1899  219.5143 H   0  0  0  0  0  0  0  0  0  0  0  0
  143.1271   79.1959  217.4068 H   0  0  0  0  0  0  0  0  0  0  0  0
  142.9832   76.7277  217.0142 H   0  0  0  0  0  0  0  0  0  0  0  0
  141.9065   75.2416  218.7322 H   0  0  0  0  0  0  0  0  0  0  0  0
  1  2  2  0
  2  3  1  0
  3  4  2  0
  4  5  1  0
  5  6  2  0
  6  7  1  0
  7  8  1  0
  7  9  2  0
  9 10  1  0
 10 11  2  0
 11 12  1  0
  2 13  1  0
 13 14  1  0
 15 14  1  1
 15 16  1  0
 16 17  1  0
 17 18  1  0
 18 19  1  0
 19 20  1  0
 20 21  1  0
 21 22  1  0
 22 23  1  0
 23 24  1  0
 18 25  1  0
 15 26  1  0
 26 27  2  0
 27 28  1  0
 28 29  2  0
 29 30  1  0
 30 31  2  0
 12  3  1  0
 31 13  1  0
 11  5  1  0
 25 15  1  0
 31 26  1  0
 24 19  1  0
  4 32  1  0
  6 33  1  0
  9 34  1  0
 10 35  1  0
 12 36  1  0
 14 37  1  0
 14 38  1  0
 16 39  1  0
 16 40  1  0
 17 41  1  0
 17 42  1  0
 19 43  1  0
 20 44  1  0
 20 45  1  0
 21 46  1  0
 21 47  1  0
 22 48  1  0
 22 49  1  0
 23 50  1  0
 23 51  1  0
 24 52  1  0
 24 53  1  0
 25 54  1  0
 25 55  1  0
 27 56  1  0
 28 57  1  0
 29 58  1  0
 30 59  1  0
M  END
>  <UniqueID>  (42) 
179

>  <SMILES>  (42) 
O=C(c1cc2cc(F)ccc2[nH]1)N1C[C@@]2(CCN(C3CCCCC3)C2)c2ccccc21

>  <Energy>  (42) 
130.96910791784092

>  <Genealogy>  (42) 
O=C(c1cc2cc(F)ccc2[nH]1)N1C[C@@]2(CCN(C3CCCCC3)C2)c2ccccc21 (3D coordinates assigned)
O=C(c1cc2cc(F)ccc2[nH]1)N1C[C@@]2(CCN(C3CCCCC3)C2)c2ccccc21 (nonaromatic ring conformer: 130.96910791784092 kcal/mol)

>  <smiles>  (42) 
O=C(c1cc2cc(F)ccc2[nH]1)N1C[C@@]2(CCN(C3CCCCC3)C2)c2ccccc21

>  <score_type>  (42) 
oracle

>  <origin>  (42) 
autodockgpu

>  <m_score__min__energy>  (42) 
-8.3499999999999996

>  <m_primary>  (42) 
energy

>  <meeko>  (42) 
{"free_energy": -8.19, "intermolecular_energy": -9.09, "internal_energy": -1.27, "cluster_size": 3, "cluster_id": 2, "rank_in_cluster": 1}

>  <energy>  (42) 
-8.35

>  <cluster_rmsd>  (42) 
0.02

>  <rmsd>  (42) 
272.17

>  <cluster>  (42) 
1

$$$$
VDMKUDNKZWHZNN-SANMLTNENA-N
     RDKit          3D

 59 64  0  0  0  0  0  0  0  0999 V2000
  137.8810   81.8420  221.8430 O   0  0  0  0  0  0  0  0  0  0  0  0
  138.1980   81.2330  222.9010 C   0  0  0  0  0  0  0  0  0  0  0  0
  137.5690   81.6240  224.1740 C   0  0  0  0  0  0  0  0  0  0  0  0
  137.6090   80.8690  225.3440 C   0  0  0  0  0  0  0  0  0  0  0  0
  136.8750   81.5910  226.2580 C   0  0  0  0  0  0  0  0  0  0  0  0
  136.5730   81.3270  227.5930 C   0  0  0  0  0  0  0  0  0  0  0  0
  135.7800   82.2610  228.2850 C   0  0  0  0  0  0  0  0  0  0  0  0
  135.4640   82.0440  229.5860 F   0  0  0  0  0  0  0  0  0  0  0  0
  135.3090   83.4220  227.6300 C   0  0  0  0  0  0  0  0  0  0  0  0
  135.6290   83.6590  226.2810 C   0  0  0  0  0  0  0  0  0  0  0  0
  136.4210   82.7180  225.6240 C   0  0  0  0  0  0  0  0  0  0  0  0
  136.8340   82.7480  224.3470 N   0  0  0  0  0  0  0  0  0  0  0  0
  139.1440   80.1530  222.8450 N   0  0  0  0  0  0  0  0  0  0  0  0
  138.9080   78.9180  222.0930 C   0  0  0  0  0  0  0  0  0  0  0  0
  140.3060   78.2230  221.9360 C   0  0  2  0  0  0  0  0  0  0  0  0
  140.6800   77.9730  220.4740 C   0  0  0  0  0  0  0  0  0  0  0  0
  141.4500   76.6670  220.4850 C   0  0  0  0  0  0  0  0  0  0  0  0
  141.0080   75.8950  221.6570 N   0  0  0  0  0  0  0  0  0  0  0  0
  140.1760   74.7110  221.3060 C   0  0  0  0  0  0  0  0  0  0  0  0
  140.9510   73.3840  221.5550 C   0  0  0  0  0  0  0  0  0  0  0  0
  140.3010   72.4930  222.6220 C   0  0  0  0  0  0  0  0  0  0  0  0
  138.8290   72.1850  222.2990 C   0  0  0  0  0  0  0  0  0  0  0  0
  138.0550   73.3850  221.7130 C   0  0  0  0  0  0  0  0  0  0  0  0
  138.7620   74.7220  221.9540 C   0  0  0  0  0  0  0  0  0  0  0  0
  140.3910   76.8370  222.6100 C   0  0  0  0  0  0  0  0  0  0  0  0
  141.2390   79.2110  222.5890 C   0  0  0  0  0  0  0  0  0  0  0  0
  142.6260   79.1250  222.7560 C   0  0  0  0  0  0  0  0  0  0  0  0
  143.2910   80.1580  223.4330 C   0  0  0  0  0  0  0  0  0  0  0  0
  142.5670   81.2500  223.9430 C   0  0  0  0  0  0  0  0  0  0  0  0
  141.1760   81.3160  223.7750 C   0  0  0  0  0  0  0  0  0  0  0  0
  140.5370   80.2810  223.0830 C   0  0  0  0  0  0  0  0  0  0  0  0
  138.1163   79.9060  225.5029 H   0  0  0  0  0  0  0  0  0  0  0  0
  136.9427   80.4178  228.0896 H   0  0  0  0  0  0  0  0  0  0  0  0
  134.6880   84.1450  228.1792 H   0  0  0  0  0  0  0  0  0  0  0  0
  135.2661   84.5578  225.7610 H   0  0  0  0  0  0  0  0  0  0  0  0
  136.5960   83.4730  223.6320 H   0  0  0  0  0  0  0  0  0  0  0  0
  138.2169   78.2630  222.6438 H   0  0  0  0  0  0  0  0  0  0  0  0
  138.4538   79.1275  221.1133 H   0  0  0  0  0  0  0  0  0  0  0  0
  139.7762   77.8840  219.8533 H   0  0  0  0  0  0  0  0  0  0  0  0
  141.2716   78.7985  220.0514 H   0  0  0  0  0  0  0  0  0  0  0  0
  141.2419   76.1020  219.5644 H   0  0  0  0  0  0  0  0  0  0  0  0
  142.5319   76.8589  220.5367 H   0  0  0  0  0  0  0  0  0  0  0  0
  139.9798   74.7778  220.2257 H   0  0  0  0  0  0  0  0  0  0  0  0
  140.9944   72.8224  220.6102 H   0  0  0  0  0  0  0  0  0  0  0  0
  141.9519   73.6550  221.9222 H   0  0  0  0  0  0  0  0  0  0  0  0
  140.8572   71.5458  222.6802 H   0  0  0  0  0  0  0  0  0  0  0  0
  140.3322   73.0331  223.5797 H   0  0  0  0  0  0  0  0  0  0  0  0
  138.7990   71.3630  221.5686 H   0  0  0  0  0  0  0  0  0  0  0  0
  138.3409   71.9224  223.2492 H   0  0  0  0  0  0  0  0  0  0  0  0
  137.9445   73.2363  220.6287 H   0  0  0  0  0  0  0  0  0  0  0  0
  137.0799   73.4298  222.2202 H   0  0  0  0  0  0  0  0  0  0  0  0
  138.1658   75.5327  221.5098 H   0  0  0  0  0  0  0  0  0  0  0  0
  138.8668   74.8805  223.0375 H   0  0  0  0  0  0  0  0  0  0  0  0
  139.3814   76.4899  222.8751 H   0  0  0  0  0  0  0  0  0  0  0  0
  140.9953   76.8982  223.5271 H   0  0  0  0  0  0  0  0  0  0  0  0
  143.1847   78.2626  222.3633 H   0  0  0  0  0  0  0  0  0  0  0  0
  144.3821   80.1136  223.5653 H   0  0  0  0  0  0  0  0  0  0  0  0
  143.0934   82.0556  224.4758 H   0  0  0  0  0  0  0  0  0  0  0  0
  140.6004   82.1623  224.1781 H   0  0  0  0  0  0  0  0  0  0  0  0
  1  2  2  0
  2  3  1  0
  3  4  2  0
  4  5  1  0
  5  6  2  0
  6  7  1  0
  7  8  1  0
  7  9  2  0
  9 10  1  0
 10 11  2  0
 11 12  1  0
  2 13  1  0
 13 14  1  0
 15 14  1  6
 15 16  1  0
 16 17  1  0
 17 18  1  0
 18 19  1  0
 19 20  1  0
 20 21  1  0
 21 22  1  0
 22 23  1  0
 23 24  1  0
 18 25  1  0
 15 26  1  0
 26 27  2  0
 27 28  1  0
 28 29  2  0
 29 30  1  0
 30 31  2  0
 12  3  1  0
 31 13  1  0
 11  5  1  0
 25 15  1  0
 31 26  1  0
 24 19  1  0
  4 32  1  0
  6 33  1  0
  9 34  1  0
 10 35  1  0
 12 36  1  0
 14 37  1  0
 14 38  1  0
 16 39  1  0
 16 40  1  0
 17 41  1  0
 17 42  1  0
 19 43  1  0
 20 44  1  0
 20 45  1  0
 21 46  1  0
 21 47  1  0
 22 48  1  0
 22 49  1  0
 23 50  1  0
 23 51  1  0
 24 52  1  0
 24 53  1  0
 25 54  1  0
 25 55  1  0
 27 56  1  0
 28 57  1  0
 29 58  1  0
 30 59  1  0
M  END
>  <UniqueID>  (43) 
179

>  <SMILES>  (43) 
O=C(c1cc2cc(F)ccc2[nH]1)N1C[C@@]2(CCN(C3CCCCC3)C2)c2ccccc21

>  <Energy>  (43) 
130.96910791784092

>  <Genealogy>  (43) 
O=C(c1cc2cc(F)ccc2[nH]1)N1C[C@@]2(CCN(C3CCCCC3)C2)c2ccccc21 (3D coordinates assigned)
O=C(c1cc2cc(F)ccc2[nH]1)N1C[C@@]2(CCN(C3CCCCC3)C2)c2ccccc21 (nonaromatic ring conformer: 130.96910791784092 kcal/mol)

>  <smiles>  (43) 
O=C(c1cc2cc(F)ccc2[nH]1)N1C[C@@]2(CCN(C3CCCCC3)C2)c2ccccc21

>  <score_type>  (43) 
oracle

>  <origin>  (43) 
autodockgpu

>  <m_score__min__energy>  (43) 
-8.3499999999999996

>  <m_primary>  (43) 
energy

>  <meeko>  (43) 
{"free_energy": -8.12, "intermolecular_energy": -9.01, "internal_energy": -1.31, "cluster_size": 5, "cluster_id": 3, "rank_in_cluster": 5}

>  <energy>  (43) 
-8.35

>  <cluster_rmsd>  (43) 
0.03

>  <rmsd>  (43) 
272.17

>  <cluster>  (43) 
1

$$$$
VDMKUDNKZWHZNN-SANMLTNENA-N
     RDKit          3D

 59 64  0  0  0  0  0  0  0  0999 V2000
  139.0020   75.7530  219.8890 O   0  0  0  0  0  0  0  0  0  0  0  0
  139.8920   75.6450  220.7760 C   0  0  0  0  0  0  0  0  0  0  0  0
  140.5140   76.8610  221.3250 C   0  0  0  0  0  0  0  0  0  0  0  0
  140.8250   77.0570  222.6690 C   0  0  0  0  0  0  0  0  0  0  0  0
  141.3540   78.3270  222.7310 C   0  0  0  0  0  0  0  0  0  0  0  0
  141.8380   79.0570  223.8150 C   0  0  0  0  0  0  0  0  0  0  0  0
  142.3170   80.3580  223.5700 C   0  0  0  0  0  0  0  0  0  0  0  0
  142.7980   81.1040  224.5940 F   0  0  0  0  0  0  0  0  0  0  0  0
  142.2930   80.8920  222.2610 C   0  0  0  0  0  0  0  0  0  0  0  0
  141.7960   80.1310  221.1880 C   0  0  0  0  0  0  0  0  0  0  0  0
  141.3340   78.8430  221.4620 C   0  0  0  0  0  0  0  0  0  0  0  0
  140.8180   77.9590  220.5930 N   0  0  0  0  0  0  0  0  0  0  0  0
  140.2660   74.3430  221.2540 N   0  0  0  0  0  0  0  0  0  0  0  0
  139.5710   73.6610  222.3480 C   0  0  0  0  0  0  0  0  0  0  0  0
  139.9910   72.1510  222.2640 C   0  0  2  0  0  0  0  0  0  0  0  0
  138.7910   71.2120  222.1220 C   0  0  0  0  0  0  0  0  0  0  0  0
  139.1790   69.9640  222.8900 C   0  0  0  0  0  0  0  0  0  0  0  0
  140.1580   70.3530  223.9170 N   0  0  0  0  0  0  0  0  0  0  0  0
  139.6100   70.3130  225.3010 C   0  0  0  0  0  0  0  0  0  0  0  0
  139.1810   68.8690  225.6940 C   0  0  0  0  0  0  0  0  0  0  0  0
  139.9790   68.2990  226.8750 C   0  0  0  0  0  0  0  0  0  0  0  0
  139.9180   69.2170  228.1080 C   0  0  0  0  0  0  0  0  0  0  0  0
  139.9980   70.7210  227.7720 C   0  0  0  0  0  0  0  0  0  0  0  0
  140.5290   70.9860  226.3600 C   0  0  0  0  0  0  0  0  0  0  0  0
  140.7460   71.6440  223.5100 C   0  0  0  0  0  0  0  0  0  0  0  0
  140.8680   72.1220  221.0390 C   0  0  0  0  0  0  0  0  0  0  0  0
  141.5400   71.0330  220.4690 C   0  0  0  0  0  0  0  0  0  0  0  0
  142.3390   71.2490  219.3360 C   0  0  0  0  0  0  0  0  0  0  0  0
  142.4670   72.5410  218.7960 C   0  0  0  0  0  0  0  0  0  0  0  0
  141.7940   73.6220  219.3850 C   0  0  0  0  0  0  0  0  0  0  0  0
  140.9910   73.3800  220.5050 C   0  0  0  0  0  0  0  0  0  0  0  0
  140.6796   76.3509  223.4998 H   0  0  0  0  0  0  0  0  0  0  0  0
  141.8455   78.6306  224.8290 H   0  0  0  0  0  0  0  0  0  0  0  0
  142.6661   81.9109  222.0805 H   0  0  0  0  0  0  0  0  0  0  0  0
  141.7722   80.5376  220.1662 H   0  0  0  0  0  0  0  0  0  0  0  0
  140.6530   78.1130  219.5730 H   0  0  0  0  0  0  0  0  0  0  0  0
  139.8738   74.0872  223.3158 H   0  0  0  0  0  0  0  0  0  0  0  0
  138.4805   73.7778  222.2630 H   0  0  0  0  0  0  0  0  0  0  0  0
  137.8890   71.6685  222.5556 H   0  0  0  0  0  0  0  0  0  0  0  0
  138.5578   70.9945  221.0692 H   0  0  0  0  0  0  0  0  0  0  0  0
  138.2896   69.5270  223.3675 H   0  0  0  0  0  0  0  0  0  0  0  0
  139.6121   69.2146  222.2111 H   0  0  0  0  0  0  0  0  0  0  0  0
  138.7024   70.9345  225.2958 H   0  0  0  0  0  0  0  0  0  0  0  0
  138.1155   68.8834  225.9670 H   0  0  0  0  0  0  0  0  0  0  0  0
  139.3776   68.2229  224.8257 H   0  0  0  0  0  0  0  0  0  0  0  0
  139.5638   67.3163  227.1430 H   0  0  0  0  0  0  0  0  0  0  0  0
  141.0312   68.2152  226.5654 H   0  0  0  0  0  0  0  0  0  0  0  0
  138.9698   69.0293  228.6330 H   0  0  0  0  0  0  0  0  0  0  0  0
  140.7967   68.9806  228.7260 H   0  0  0  0  0  0  0  0  0  0  0  0
  138.9902   71.1539  227.8556 H   0  0  0  0  0  0  0  0  0  0  0  0
  140.7002   71.1822  228.4820 H   0  0  0  0  0  0  0  0  0  0  0  0
  140.5554   72.0709  226.1802 H   0  0  0  0  0  0  0  0  0  0  0  0
  141.5413   70.5643  226.2741 H   0  0  0  0  0  0  0  0  0  0  0  0
  140.6449   72.3727  224.3278 H   0  0  0  0  0  0  0  0  0  0  0  0
  141.8141   71.5172  223.2794 H   0  0  0  0  0  0  0  0  0  0  0  0
  141.4430   70.0264  220.9019 H   0  0  0  0  0  0  0  0  0  0  0  0
  142.8671   70.4048  218.8686 H   0  0  0  0  0  0  0  0  0  0  0  0
  143.0967   72.7047  217.9091 H   0  0  0  0  0  0  0  0  0  0  0  0
  141.8954   74.6378  218.9752 H   0  0  0  0  0  0  0  0  0  0  0  0
  1  2  2  0
  2  3  1  0
  3  4  2  0
  4  5  1  0
  5  6  2  0
  6  7  1  0
  7  8  1  0
  7  9  2  0
  9 10  1  0
 10 11  2  0
 11 12  1  0
  2 13  1  0
 13 14  1  0
 15 14  1  1
 15 16  1  0
 16 17  1  0
 17 18  1  0
 18 19  1  0
 19 20  1  0
 20 21  1  0
 21 22  1  0
 22 23  1  0
 23 24  1  0
 18 25  1  0
 15 26  1  0
 26 27  2  0
 27 28  1  0
 28 29  2  0
 29 30  1  0
 30 31  2  0
 12  3  1  0
 31 13  1  0
 11  5  1  0
 25 15  1  0
 31 26  1  0
 24 19  1  0
  4 32  1  0
  6 33  1  0
  9 34  1  0
 10 35  1  0
 12 36  1  0
 14 37  1  0
 14 38  1  0
 16 39  1  0
 16 40  1  0
 17 41  1  0
 17 42  1  0
 19 43  1  0
 20 44  1  0
 20 45  1  0
 21 46  1  0
 21 47  1  0
 22 48  1  0
 22 49  1  0
 23 50  1  0
 23 51  1  0
 24 52  1  0
 24 53  1  0
 25 54  1  0
 25 55  1  0
 27 56  1  0
 28 57  1  0
 29 58  1  0
 30 59  1  0
M  END
>  <UniqueID>  (44) 
179

>  <SMILES>  (44) 
O=C(c1cc2cc(F)ccc2[nH]1)N1C[C@@]2(CCN(C3CCCCC3)C2)c2ccccc21

>  <Energy>  (44) 
130.96910791784092

>  <Genealogy>  (44) 
O=C(c1cc2cc(F)ccc2[nH]1)N1C[C@@]2(CCN(C3CCCCC3)C2)c2ccccc21 (3D coordinates assigned)
O=C(c1cc2cc(F)ccc2[nH]1)N1C[C@@]2(CCN(C3CCCCC3)C2)c2ccccc21 (nonaromatic ring conformer: 130.96910791784092 kcal/mol)

>  <smiles>  (44) 
O=C(c1cc2cc(F)ccc2[nH]1)N1C[C@@]2(CCN(C3CCCCC3)C2)c2ccccc21

>  <score_type>  (44) 
oracle

>  <origin>  (44) 
autodockgpu

>  <m_score__min__energy>  (44) 
-8.3499999999999996

>  <m_primary>  (44) 
energy

>  <meeko>  (44) 
{"free_energy": -8.34, "intermolecular_energy": -9.24, "internal_energy": -1.15, "cluster_size": 11, "cluster_id": 1, "rank_in_cluster": 8}

>  <energy>  (44) 
-8.35

>  <cluster_rmsd>  (44) 
0.03

>  <rmsd>  (44) 
272.18

>  <cluster>  (44) 
1

$$$$
VDMKUDNKZWHZNN-SANMLTNENA-N
     RDKit          3D

 59 64  0  0  0  0  0  0  0  0999 V2000
  139.0620   75.7060  219.7970 O   0  0  0  0  0  0  0  0  0  0  0  0
  139.9230   75.5960  220.7120 C   0  0  0  0  0  0  0  0  0  0  0  0
  140.5390   76.8110  221.2720 C   0  0  0  0  0  0  0  0  0  0  0  0
  140.8380   77.0020  222.6190 C   0  0  0  0  0  0  0  0  0  0  0  0
  141.3640   78.2720  222.6910 C   0  0  0  0  0  0  0  0  0  0  0  0
  141.8380   78.9990  223.7820 C   0  0  0  0  0  0  0  0  0  0  0  0
  142.3170   80.3010  223.5460 C   0  0  0  0  0  0  0  0  0  0  0  0
  142.7890   81.0430  224.5780 F   0  0  0  0  0  0  0  0  0  0  0  0
  142.3050   80.8410  222.2390 C   0  0  0  0  0  0  0  0  0  0  0  0
  141.8190   80.0820  221.1590 C   0  0  0  0  0  0  0  0  0  0  0  0
  141.3550   78.7940  221.4240 C   0  0  0  0  0  0  0  0  0  0  0  0
  140.8490   77.9120  220.5460 N   0  0  0  0  0  0  0  0  0  0  0  0
  140.2710   74.2950  221.2110 N   0  0  0  0  0  0  0  0  0  0  0  0
  139.5840   73.6590  222.3380 C   0  0  0  0  0  0  0  0  0  0  0  0
  139.9560   72.1360  222.2780 C   0  0  2  0  0  0  0  0  0  0  0  0
  138.7260   71.2300  222.1890 C   0  0  0  0  0  0  0  0  0  0  0  0
  139.0960   69.9890  222.9760 C   0  0  0  0  0  0  0  0  0  0  0  0
  140.1130   70.3710  223.9680 N   0  0  0  0  0  0  0  0  0  0  0  0
  139.6010   70.3790  225.3660 C   0  0  0  0  0  0  0  0  0  0  0  0
  139.1380   68.9580  225.8030 C   0  0  0  0  0  0  0  0  0  0  0  0
  139.9480   68.3900  226.9770 C   0  0  0  0  0  0  0  0  0  0  0  0
  139.9490   69.3360  228.1890 C   0  0  0  0  0  0  0  0  0  0  0  0
  140.0650   70.8300  227.8170 C   0  0  0  0  0  0  0  0  0  0  0  0
  140.5670   71.0460  226.3860 C   0  0  0  0  0  0  0  0  0  0  0  0
  140.7290   71.6340  223.5160 C   0  0  0  0  0  0  0  0  0  0  0  0
  140.8000   72.0520  221.0320 C   0  0  0  0  0  0  0  0  0  0  0  0
  141.4240   70.9310  220.4710 C   0  0  0  0  0  0  0  0  0  0  0  0
  142.1990   71.0970  219.3130 C   0  0  0  0  0  0  0  0  0  0  0  0
  142.3510   72.3720  218.7400 C   0  0  0  0  0  0  0  0  0  0  0  0
  141.7270   73.4860  219.3210 C   0  0  0  0  0  0  0  0  0  0  0  0
  140.9460   73.2930  220.4660 C   0  0  0  0  0  0  0  0  0  0  0  0
  140.6867   76.2922  223.4456 H   0  0  0  0  0  0  0  0  0  0  0  0
  141.8376   78.5689  224.7944 H   0  0  0  0  0  0  0  0  0  0  0  0
  142.6781   81.8612  222.0658 H   0  0  0  0  0  0  0  0  0  0  0  0
  141.8054   80.4914  220.1381 H   0  0  0  0  0  0  0  0  0  0  0  0
  140.6920   78.0700  219.5250 H   0  0  0  0  0  0  0  0  0  0  0  0
  139.9244   74.0971  223.2878 H   0  0  0  0  0  0  0  0  0  0  0  0
  138.4957   73.8073  222.2779 H   0  0  0  0  0  0  0  0  0  0  0  0
  137.8494   71.7232  222.6342 H   0  0  0  0  0  0  0  0  0  0  0  0
  138.4599   70.9952  221.1478 H   0  0  0  0  0  0  0  0  0  0  0  0
  138.2066   69.5908  223.4864 H   0  0  0  0  0  0  0  0  0  0  0  0
  139.4882   69.2112  222.3042 H   0  0  0  0  0  0  0  0  0  0  0  0
  138.7136   71.0290  225.3693 H   0  0  0  0  0  0  0  0  0  0  0  0
  138.0807   69.0117  226.1018 H   0  0  0  0  0  0  0  0  0  0  0  0
  139.2926   68.2867  224.9454 H   0  0  0  0  0  0  0  0  0  0  0  0
  139.5089   67.4275  227.2784 H   0  0  0  0  0  0  0  0  0  0  0  0
  140.9886   68.2661  226.6426 H   0  0  0  0  0  0  0  0  0  0  0  0
  139.0105   69.1891  228.7437 H   0  0  0  0  0  0  0  0  0  0  0  0
  140.8373   69.0864  228.7879 H   0  0  0  0  0  0  0  0  0  0  0  0
  139.0732   71.2953  227.9159 H   0  0  0  0  0  0  0  0  0  0  0  0
  140.7982   71.2860  228.4985 H   0  0  0  0  0  0  0  0  0  0  0  0
  140.6224   72.1252  226.1804 H   0  0  0  0  0  0  0  0  0  0  0  0
  141.5630   70.5902  226.2847 H   0  0  0  0  0  0  0  0  0  0  0  0
  140.6719   72.3836  224.3190 H   0  0  0  0  0  0  0  0  0  0  0  0
  141.7863   71.4693  223.2609 H   0  0  0  0  0  0  0  0  0  0  0  0
  141.3087   69.9379  220.9298 H   0  0  0  0  0  0  0  0  0  0  0  0
  142.6892   70.2268  218.8520 H   0  0  0  0  0  0  0  0  0  0  0  0
  142.9612   72.4963  217.8332 H   0  0  0  0  0  0  0  0  0  0  0  0
  141.8489   74.4890  218.8862 H   0  0  0  0  0  0  0  0  0  0  0  0
  1  2  2  0
  2  3  1  0
  3  4  2  0
  4  5  1  0
  5  6  2  0
  6  7  1  0
  7  8  1  0
  7  9  2  0
  9 10  1  0
 10 11  2  0
 11 12  1  0
  2 13  1  0
 13 14  1  0
 15 14  1  1
 15 16  1  0
 16 17  1  0
 17 18  1  0
 18 19  1  0
 19 20  1  0
 20 21  1  0
 21 22  1  0
 22 23  1  0
 23 24  1  0
 18 25  1  0
 15 26  1  0
 26 27  2  0
 27 28  1  0
 28 29  2  0
 29 30  1  0
 30 31  2  0
 12  3  1  0
 31 13  1  0
 11  5  1  0
 25 15  1  0
 31 26  1  0
 24 19  1  0
  4 32  1  0
  6 33  1  0
  9 34  1  0
 10 35  1  0
 12 36  1  0
 14 37  1  0
 14 38  1  0
 16 39  1  0
 16 40  1  0
 17 41  1  0
 17 42  1  0
 19 43  1  0
 20 44  1  0
 20 45  1  0
 21 46  1  0
 21 47  1  0
 22 48  1  0
 22 49  1  0
 23 50  1  0
 23 51  1  0
 24 52  1  0
 24 53  1  0
 25 54  1  0
 25 55  1  0
 27 56  1  0
 28 57  1  0
 29 58  1  0
 30 59  1  0
M  END
>  <UniqueID>  (45) 
179

>  <SMILES>  (45) 
O=C(c1cc2cc(F)ccc2[nH]1)N1C[C@@]2(CCN(C3CCCCC3)C2)c2ccccc21

>  <Energy>  (45) 
130.96910791784092

>  <Genealogy>  (45) 
O=C(c1cc2cc(F)ccc2[nH]1)N1C[C@@]2(CCN(C3CCCCC3)C2)c2ccccc21 (3D coordinates assigned)
O=C(c1cc2cc(F)ccc2[nH]1)N1C[C@@]2(CCN(C3CCCCC3)C2)c2ccccc21 (nonaromatic ring conformer: 130.96910791784092 kcal/mol)

>  <smiles>  (45) 
O=C(c1cc2cc(F)ccc2[nH]1)N1C[C@@]2(CCN(C3CCCCC3)C2)c2ccccc21

>  <score_type>  (45) 
oracle

>  <origin>  (45) 
autodockgpu

>  <m_score__min__energy>  (45) 
-8.3499999999999996

>  <m_primary>  (45) 
energy

>  <meeko>  (45) 
{"free_energy": -8.34, "intermolecular_energy": -9.24, "internal_energy": -1.15, "cluster_size": 11, "cluster_id": 1, "rank_in_cluster": 9}

>  <energy>  (45) 
-8.35

>  <cluster_rmsd>  (45) 
0.03

>  <rmsd>  (45) 
272.16

>  <cluster>  (45) 
1

$$$$
VDMKUDNKZWHZNN-SANMLTNENA-N
     RDKit          3D

 59 64  0  0  0  0  0  0  0  0999 V2000
  139.9320   74.3000  222.0120 O   0  0  0  0  0  0  0  0  0  0  0  0
  140.8700   74.8970  221.4170 C   0  0  0  0  0  0  0  0  0  0  0  0
  142.0430   74.1280  220.9670 C   0  0  0  0  0  0  0  0  0  0  0  0
  142.0270   72.7740  220.6400 C   0  0  0  0  0  0  0  0  0  0  0  0
  143.3280   72.4720  220.3080 C   0  0  0  0  0  0  0  0  0  0  0  0
  143.9070   71.2720  219.9000 C   0  0  0  0  0  0  0  0  0  0  0  0
  145.2890   71.2650  219.6330 C   0  0  0  0  0  0  0  0  0  0  0  0
  145.8930   70.1190  219.2330 F   0  0  0  0  0  0  0  0  0  0  0  0
  146.0510   72.4460  219.7840 C   0  0  0  0  0  0  0  0  0  0  0  0
  145.4380   73.6430  220.1990 C   0  0  0  0  0  0  0  0  0  0  0  0
  144.0660   73.6180  220.4510 C   0  0  0  0  0  0  0  0  0  0  0  0
  143.2930   74.6380  220.8580 N   0  0  0  0  0  0  0  0  0  0  0  0
  140.7710   76.3070  221.1650 N   0  0  0  0  0  0  0  0  0  0  0  0
  140.3830   77.2800  222.1900 C   0  0  0  0  0  0  0  0  0  0  0  0
  140.8090   78.6880  221.6450 C   0  0  2  0  0  0  0  0  0  0  0  0
  141.7580   79.4260  222.5920 C   0  0  0  0  0  0  0  0  0  0  0  0
  141.3900   80.8900  222.4530 C   0  0  0  0  0  0  0  0  0  0  0  0
  139.9850   80.9620  222.0250 N   0  0  0  0  0  0  0  0  0  0  0  0
  139.0670   81.4490  223.0910 C   0  0  0  0  0  0  0  0  0  0  0  0
  137.7680   82.0540  222.4820 C   0  0  0  0  0  0  0  0  0  0  0  0
  136.4970   81.2910  222.8820 C   0  0  0  0  0  0  0  0  0  0  0  0
  136.3520   81.1720  224.4080 C   0  0  0  0  0  0  0  0  0  0  0  0
  137.6820   80.9030  225.1430 C   0  0  0  0  0  0  0  0  0  0  0  0
  138.7870   80.4020  224.2070 C   0  0  0  0  0  0  0  0  0  0  0  0
  139.6270   79.6580  221.4340 C   0  0  0  0  0  0  0  0  0  0  0  0
  141.4800   78.3470  220.3400 C   0  0  0  0  0  0  0  0  0  0  0  0
  142.0600   79.2100  219.4020 C   0  0  0  0  0  0  0  0  0  0  0  0
  142.6010   78.6660  218.2270 C   0  0  0  0  0  0  0  0  0  0  0  0
  142.5470   77.2800  217.9980 C   0  0  0  0  0  0  0  0  0  0  0  0
  141.9540   76.4310  218.9440 C   0  0  0  0  0  0  0  0  0  0  0  0
  141.4350   76.9940  220.1160 C   0  0  0  0  0  0  0  0  0  0  0  0
  141.1624   72.0940  220.6459 H   0  0  0  0  0  0  0  0  0  0  0  0
  143.3032   70.3591  219.7901 H   0  0  0  0  0  0  0  0  0  0  0  0
  147.1309   72.4293  219.5756 H   0  0  0  0  0  0  0  0  0  0  0  0
  146.0213   74.5676  220.3207 H   0  0  0  0  0  0  0  0  0  0  0  0
  143.6090   75.6080  221.0820 H   0  0  0  0  0  0  0  0  0  0  0  0
  139.2957   77.2479  222.3533 H   0  0  0  0  0  0  0  0  0  0  0  0
  140.8677   77.0608  223.1529 H   0  0  0  0  0  0  0  0  0  0  0  0
  141.6112   79.0871  223.6281 H   0  0  0  0  0  0  0  0  0  0  0  0
  142.8140   79.2401  222.3467 H   0  0  0  0  0  0  0  0  0  0  0  0
  141.5132   81.4002  223.4197 H   0  0  0  0  0  0  0  0  0  0  0  0
  142.0418   81.3815  221.7157 H   0  0  0  0  0  0  0  0  0  0  0  0
  139.5958   82.2624  223.6094 H   0  0  0  0  0  0  0  0  0  0  0  0
  137.6732   83.0947  222.8255 H   0  0  0  0  0  0  0  0  0  0  0  0
  137.8585   81.9852  221.3879 H   0  0  0  0  0  0  0  0  0  0  0  0
  135.6220   81.8249  222.4828 H   0  0  0  0  0  0  0  0  0  0  0  0
  136.5666   80.2745  222.4673 H   0  0  0  0  0  0  0  0  0  0  0  0
  135.9291   82.1128  224.7902 H   0  0  0  0  0  0  0  0  0  0  0  0
  135.7000   80.3072  224.6005 H   0  0  0  0  0  0  0  0  0  0  0  0
  138.0182   81.8381  225.6148 H   0  0  0  0  0  0  0  0  0  0  0  0
  137.4956   80.1146  225.8871 H   0  0  0  0  0  0  0  0  0  0  0  0
  139.7065   80.2361  224.7876 H   0  0  0  0  0  0  0  0  0  0  0  0
  138.4604   79.4610  223.7402 H   0  0  0  0  0  0  0  0  0  0  0  0
  138.7275   79.2608  221.9271 H   0  0  0  0  0  0  0  0  0  0  0  0
  139.4192   79.7735  220.3600 H   0  0  0  0  0  0  0  0  0  0  0  0
  142.0910   80.2946  219.5829 H   0  0  0  0  0  0  0  0  0  0  0  0
  143.0691   79.3266  217.4823 H   0  0  0  0  0  0  0  0  0  0  0  0
  142.9711   76.8600  217.0740 H   0  0  0  0  0  0  0  0  0  0  0  0
  141.8980   75.3465  218.7688 H   0  0  0  0  0  0  0  0  0  0  0  0
  1  2  2  0
  2  3  1  0
  3  4  2  0
  4  5  1  0
  5  6  2  0
  6  7  1  0
  7  8  1  0
  7  9  2  0
  9 10  1  0
 10 11  2  0
 11 12  1  0
  2 13  1  0
 13 14  1  0
 15 14  1  1
 15 16  1  0
 16 17  1  0
 17 18  1  0
 18 19  1  0
 19 20  1  0
 20 21  1  0
 21 22  1  0
 22 23  1  0
 23 24  1  0
 18 25  1  0
 15 26  1  0
 26 27  2  0
 27 28  1  0
 28 29  2  0
 29 30  1  0
 30 31  2  0
 12  3  1  0
 31 13  1  0
 11  5  1  0
 25 15  1  0
 31 26  1  0
 24 19  1  0
  4 32  1  0
  6 33  1  0
  9 34  1  0
 10 35  1  0
 12 36  1  0
 14 37  1  0
 14 38  1  0
 16 39  1  0
 16 40  1  0
 17 41  1  0
 17 42  1  0
 19 43  1  0
 20 44  1  0
 20 45  1  0
 21 46  1  0
 21 47  1  0
 22 48  1  0
 22 49  1  0
 23 50  1  0
 23 51  1  0
 24 52  1  0
 24 53  1  0
 25 54  1  0
 25 55  1  0
 27 56  1  0
 28 57  1  0
 29 58  1  0
 30 59  1  0
M  END
>  <UniqueID>  (46) 
179

>  <SMILES>  (46) 
O=C(c1cc2cc(F)ccc2[nH]1)N1C[C@@]2(CCN(C3CCCCC3)C2)c2ccccc21

>  <Energy>  (46) 
130.96910791784092

>  <Genealogy>  (46) 
O=C(c1cc2cc(F)ccc2[nH]1)N1C[C@@]2(CCN(C3CCCCC3)C2)c2ccccc21 (3D coordinates assigned)
O=C(c1cc2cc(F)ccc2[nH]1)N1C[C@@]2(CCN(C3CCCCC3)C2)c2ccccc21 (nonaromatic ring conformer: 130.96910791784092 kcal/mol)

>  <smiles>  (46) 
O=C(c1cc2cc(F)ccc2[nH]1)N1C[C@@]2(CCN(C3CCCCC3)C2)c2ccccc21

>  <score_type>  (46) 
oracle

>  <origin>  (46) 
autodockgpu

>  <m_score__min__energy>  (46) 
-8.3499999999999996

>  <m_primary>  (46) 
energy

>  <meeko>  (46) 
{"free_energy": -8.18, "intermolecular_energy": -9.08, "internal_energy": -1.27, "cluster_size": 3, "cluster_id": 2, "rank_in_cluster": 2}

>  <energy>  (46) 
-8.35

>  <cluster_rmsd>  (46) 
0.05

>  <rmsd>  (46) 
272.18

>  <cluster>  (46) 
1

$$$$
VDMKUDNKZWHZNN-SANMLTNENA-N
     RDKit          3D

 59 64  0  0  0  0  0  0  0  0999 V2000
  138.9890   75.7430  219.8710 O   0  0  0  0  0  0  0  0  0  0  0  0
  139.8760   75.6360  220.7610 C   0  0  0  0  0  0  0  0  0  0  0  0
  140.4960   76.8540  221.3100 C   0  0  0  0  0  0  0  0  0  0  0  0
  140.7940   77.0560  222.6560 C   0  0  0  0  0  0  0  0  0  0  0  0
  141.3260   78.3250  222.7170 C   0  0  0  0  0  0  0  0  0  0  0  0
  141.8010   79.0590  223.8010 C   0  0  0  0  0  0  0  0  0  0  0  0
  142.2860   80.3570  223.5550 C   0  0  0  0  0  0  0  0  0  0  0  0
  142.7590   81.1070  224.5800 F   0  0  0  0  0  0  0  0  0  0  0  0
  142.2780   80.8850  222.2430 C   0  0  0  0  0  0  0  0  0  0  0  0
  141.7890   80.1190  221.1690 C   0  0  0  0  0  0  0  0  0  0  0  0
  141.3210   78.8340  221.4450 C   0  0  0  0  0  0  0  0  0  0  0  0
  140.8120   77.9470  220.5750 N   0  0  0  0  0  0  0  0  0  0  0  0
  140.2490   74.3360  221.2420 N   0  0  0  0  0  0  0  0  0  0  0  0
  139.5580   73.6610  222.3440 C   0  0  0  0  0  0  0  0  0  0  0  0
  139.9730   72.1490  222.2630 C   0  0  2  0  0  0  0  0  0  0  0  0
  138.7690   71.2130  222.1330 C   0  0  0  0  0  0  0  0  0  0  0  0
  139.1570   69.9670  222.9040 C   0  0  0  0  0  0  0  0  0  0  0  0
  140.1440   70.3580  223.9230 N   0  0  0  0  0  0  0  0  0  0  0  0
  139.6060   70.3260  225.3110 C   0  0  0  0  0  0  0  0  0  0  0  0
  139.1900   68.8820  225.7200 C   0  0  0  0  0  0  0  0  0  0  0  0
  140.0000   68.3290  226.9010 C   0  0  0  0  0  0  0  0  0  0  0  0
  139.9400   69.2570  228.1260 C   0  0  0  0  0  0  0  0  0  0  0  0
  140.0050   70.7590  227.7760 C   0  0  0  0  0  0  0  0  0  0  0  0
  140.5260   71.0150  226.3590 C   0  0  0  0  0  0  0  0  0  0  0  0
  140.7350   71.6450  223.5070 C   0  0  0  0  0  0  0  0  0  0  0  0
  140.8420   72.1120  221.0330 C   0  0  0  0  0  0  0  0  0  0  0  0
  141.5070   71.0180  220.4640 C   0  0  0  0  0  0  0  0  0  0  0  0
  142.2990   71.2260  219.3250 C   0  0  0  0  0  0  0  0  0  0  0  0
  142.4270   72.5150  218.7780 C   0  0  0  0  0  0  0  0  0  0  0  0
  141.7620   73.6010  219.3660 C   0  0  0  0  0  0  0  0  0  0  0  0
  140.9650   73.3670  220.4930 C   0  0  0  0  0  0  0  0  0  0  0  0
  140.6383   76.3545  223.4889 H   0  0  0  0  0  0  0  0  0  0  0  0
  141.7972   78.6376  224.8171 H   0  0  0  0  0  0  0  0  0  0  0  0
  142.6567   81.9016  222.0610 H   0  0  0  0  0  0  0  0  0  0  0  0
  141.7761   80.5202  220.1449 H   0  0  0  0  0  0  0  0  0  0  0  0
  140.6570   78.0960  219.5520 H   0  0  0  0  0  0  0  0  0  0  0  0
  139.8683   74.0902  223.3081 H   0  0  0  0  0  0  0  0  0  0  0  0
  138.4674   73.7813  222.2659 H   0  0  0  0  0  0  0  0  0  0  0  0
  137.8713   71.6745  222.5702 H   0  0  0  0  0  0  0  0  0  0  0  0
  138.5289   70.9914  221.0826 H   0  0  0  0  0  0  0  0  0  0  0  0
  138.2691   69.5355  223.3892 H   0  0  0  0  0  0  0  0  0  0  0  0
  139.5827   69.2126  222.2261 H   0  0  0  0  0  0  0  0  0  0  0  0
  138.6942   70.9413  225.3054 H   0  0  0  0  0  0  0  0  0  0  0  0
  138.1262   68.8910  225.9998 H   0  0  0  0  0  0  0  0  0  0  0  0
  139.3855   68.2294  224.8564 H   0  0  0  0  0  0  0  0  0  0  0  0
  139.5942   67.3455  227.1804 H   0  0  0  0  0  0  0  0  0  0  0  0
  141.0508   68.2509  226.5852 H   0  0  0  0  0  0  0  0  0  0  0  0
  138.9971   69.0661  228.6594 H   0  0  0  0  0  0  0  0  0  0  0  0
  140.8250   69.0334  228.7399 H   0  0  0  0  0  0  0  0  0  0  0  0
  138.9940   71.1840  227.8611 H   0  0  0  0  0  0  0  0  0  0  0  0
  140.7067   71.2331  228.4780 H   0  0  0  0  0  0  0  0  0  0  0  0
  140.5436   72.0984  226.1694 H   0  0  0  0  0  0  0  0  0  0  0  0
  141.5408   70.5997  226.2712 H   0  0  0  0  0  0  0  0  0  0  0  0
  140.6421   72.3777  224.3222 H   0  0  0  0  0  0  0  0  0  0  0  0
  141.8012   71.5135  223.2707 H   0  0  0  0  0  0  0  0  0  0  0  0
  141.4098   70.0139  220.9026 H   0  0  0  0  0  0  0  0  0  0  0  0
  142.8216   70.3780  218.8583 H   0  0  0  0  0  0  0  0  0  0  0  0
  143.0509   72.6723  217.8858 H   0  0  0  0  0  0  0  0  0  0  0  0
  141.8644   74.6144  218.9507 H   0  0  0  0  0  0  0  0  0  0  0  0
  1  2  2  0
  2  3  1  0
  3  4  2  0
  4  5  1  0
  5  6  2  0
  6  7  1  0
  7  8  1  0
  7  9  2  0
  9 10  1  0
 10 11  2  0
 11 12  1  0
  2 13  1  0
 13 14  1  0
 15 14  1  1
 15 16  1  0
 16 17  1  0
 17 18  1  0
 18 19  1  0
 19 20  1  0
 20 21  1  0
 21 22  1  0
 22 23  1  0
 23 24  1  0
 18 25  1  0
 15 26  1  0
 26 27  2  0
 27 28  1  0
 28 29  2  0
 29 30  1  0
 30 31  2  0
 12  3  1  0
 31 13  1  0
 11  5  1  0
 25 15  1  0
 31 26  1  0
 24 19  1  0
  4 32  1  0
  6 33  1  0
  9 34  1  0
 10 35  1  0
 12 36  1  0
 14 37  1  0
 14 38  1  0
 16 39  1  0
 16 40  1  0
 17 41  1  0
 17 42  1  0
 19 43  1  0
 20 44  1  0
 20 45  1  0
 21 46  1  0
 21 47  1  0
 22 48  1  0
 22 49  1  0
 23 50  1  0
 23 51  1  0
 24 52  1  0
 24 53  1  0
 25 54  1  0
 25 55  1  0
 27 56  1  0
 28 57  1  0
 29 58  1  0
 30 59  1  0
M  END
>  <UniqueID>  (47) 
179

>  <SMILES>  (47) 
O=C(c1cc2cc(F)ccc2[nH]1)N1C[C@@]2(CCN(C3CCCCC3)C2)c2ccccc21

>  <Energy>  (47) 
130.96910791784092

>  <Genealogy>  (47) 
O=C(c1cc2cc(F)ccc2[nH]1)N1C[C@@]2(CCN(C3CCCCC3)C2)c2ccccc21 (3D coordinates assigned)
O=C(c1cc2cc(F)ccc2[nH]1)N1C[C@@]2(CCN(C3CCCCC3)C2)c2ccccc21 (nonaromatic ring conformer: 130.96910791784092 kcal/mol)

>  <smiles>  (47) 
O=C(c1cc2cc(F)ccc2[nH]1)N1C[C@@]2(CCN(C3CCCCC3)C2)c2ccccc21

>  <score_type>  (47) 
oracle

>  <origin>  (47) 
autodockgpu

>  <m_score__min__energy>  (47) 
-8.3499999999999996

>  <m_primary>  (47) 
energy

>  <meeko>  (47) 
{"free_energy": -8.35, "intermolecular_energy": -9.24, "internal_energy": -1.15, "cluster_size": 11, "cluster_id": 1, "rank_in_cluster": 7}

>  <energy>  (47) 
-8.35

>  <cluster_rmsd>  (47) 
0.05

>  <rmsd>  (47) 
272.18

>  <cluster>  (47) 
1

$$$$
VDMKUDNKZWHZNN-SANMLTNENA-N
     RDKit          3D

 59 64  0  0  0  0  0  0  0  0999 V2000
  139.0020   75.7380  219.8640 O   0  0  0  0  0  0  0  0  0  0  0  0
  139.8880   75.6310  220.7560 C   0  0  0  0  0  0  0  0  0  0  0  0
  140.5110   76.8490  221.3020 C   0  0  0  0  0  0  0  0  0  0  0  0
  140.8180   77.0500  222.6460 C   0  0  0  0  0  0  0  0  0  0  0  0
  141.3500   78.3180  222.7040 C   0  0  0  0  0  0  0  0  0  0  0  0
  141.8320   79.0520  223.7860 C   0  0  0  0  0  0  0  0  0  0  0  0
  142.3160   80.3500  223.5370 C   0  0  0  0  0  0  0  0  0  0  0  0
  142.7960   81.0990  224.5600 F   0  0  0  0  0  0  0  0  0  0  0  0
  142.2990   80.8790  222.2250 C   0  0  0  0  0  0  0  0  0  0  0  0
  141.8040   80.1130  221.1540 C   0  0  0  0  0  0  0  0  0  0  0  0
  141.3370   78.8290  221.4320 C   0  0  0  0  0  0  0  0  0  0  0  0
  140.8220   77.9420  220.5650 N   0  0  0  0  0  0  0  0  0  0  0  0
  140.2550   74.3310  221.2430 N   0  0  0  0  0  0  0  0  0  0  0  0
  139.5600   73.6620  222.3450 C   0  0  0  0  0  0  0  0  0  0  0  0
  139.9690   72.1490  222.2700 C   0  0  2  0  0  0  0  0  0  0  0  0
  138.7630   71.2170  222.1410 C   0  0  0  0  0  0  0  0  0  0  0  0
  139.1450   69.9720  222.9170 C   0  0  0  0  0  0  0  0  0  0  0  0
  140.1300   70.3630  223.9370 N   0  0  0  0  0  0  0  0  0  0  0  0
  139.5890   70.3370  225.3230 C   0  0  0  0  0  0  0  0  0  0  0  0
  139.1420   68.9010  225.7270 C   0  0  0  0  0  0  0  0  0  0  0  0
  139.9380   68.3270  226.9080 C   0  0  0  0  0  0  0  0  0  0  0  0
  139.8950   69.2530  228.1360 C   0  0  0  0  0  0  0  0  0  0  0  0
  139.9920   70.7540  227.7910 C   0  0  0  0  0  0  0  0  0  0  0  0
  140.5210   71.0040  226.3750 C   0  0  0  0  0  0  0  0  0  0  0  0
  140.7260   71.6460  223.5180 C   0  0  0  0  0  0  0  0  0  0  0  0
  140.8410   72.1040  221.0420 C   0  0  0  0  0  0  0  0  0  0  0  0
  141.5030   71.0060  220.4790 C   0  0  0  0  0  0  0  0  0  0  0  0
  142.2990   71.2080  219.3410 C   0  0  0  0  0  0  0  0  0  0  0  0
  142.4330   72.4950  218.7900 C   0  0  0  0  0  0  0  0  0  0  0  0
  141.7700   73.5850  219.3730 C   0  0  0  0  0  0  0  0  0  0  0  0
  140.9700   73.3570  220.4980 C   0  0  0  0  0  0  0  0  0  0  0  0
  140.6678   76.3480  223.4795 H   0  0  0  0  0  0  0  0  0  0  0  0
  141.8342   78.6305  224.8020 H   0  0  0  0  0  0  0  0  0  0  0  0
  142.6754   81.8961  222.0411 H   0  0  0  0  0  0  0  0  0  0  0  0
  141.7859   80.5142  220.1299 H   0  0  0  0  0  0  0  0  0  0  0  0
  140.6610   78.0910  219.5440 H   0  0  0  0  0  0  0  0  0  0  0  0
  139.8701   74.0930  223.3084 H   0  0  0  0  0  0  0  0  0  0  0  0
  138.4700   73.7859  222.2640 H   0  0  0  0  0  0  0  0  0  0  0  0
  137.8660   71.6830  222.5748 H   0  0  0  0  0  0  0  0  0  0  0  0
  138.5245   70.9926  221.0909 H   0  0  0  0  0  0  0  0  0  0  0  0
  138.2544   69.5448  223.4011 H   0  0  0  0  0  0  0  0  0  0  0  0
  139.5702   69.2141  222.2426 H   0  0  0  0  0  0  0  0  0  0  0  0
  138.6897   70.9705  225.3173 H   0  0  0  0  0  0  0  0  0  0  0  0
  138.0781   68.9317  226.0050 H   0  0  0  0  0  0  0  0  0  0  0  0
  139.3255   68.2470  224.8618 H   0  0  0  0  0  0  0  0  0  0  0  0
  139.5109   67.3515  227.1836 H   0  0  0  0  0  0  0  0  0  0  0  0
  140.9875   68.2273  226.5941 H   0  0  0  0  0  0  0  0  0  0  0  0
  138.9473   69.0802  228.6670 H   0  0  0  0  0  0  0  0  0  0  0  0
  140.7741   69.0092  228.7507 H   0  0  0  0  0  0  0  0  0  0  0  0
  138.9899   71.1997  227.8758 H   0  0  0  0  0  0  0  0  0  0  0  0
  140.7024   71.2109  228.4957 H   0  0  0  0  0  0  0  0  0  0  0  0
  140.5609   72.0874  226.1889 H   0  0  0  0  0  0  0  0  0  0  0  0
  141.5273   70.5685  226.2877 H   0  0  0  0  0  0  0  0  0  0  0  0
  140.6335   72.3818  224.3305 H   0  0  0  0  0  0  0  0  0  0  0  0
  141.7922   71.5097  223.2845 H   0  0  0  0  0  0  0  0  0  0  0  0
  141.4010   70.0037  220.9206 H   0  0  0  0  0  0  0  0  0  0  0  0
  142.8199   70.3568  218.8784 H   0  0  0  0  0  0  0  0  0  0  0  0
  143.0598   72.6473  217.8989 H   0  0  0  0  0  0  0  0  0  0  0  0
  141.8767   74.5968  218.9549 H   0  0  0  0  0  0  0  0  0  0  0  0
  1  2  2  0
  2  3  1  0
  3  4  2  0
  4  5  1  0
  5  6  2  0
  6  7  1  0
  7  8  1  0
  7  9  2  0
  9 10  1  0
 10 11  2  0
 11 12  1  0
  2 13  1  0
 13 14  1  0
 15 14  1  1
 15 16  1  0
 16 17  1  0
 17 18  1  0
 18 19  1  0
 19 20  1  0
 20 21  1  0
 21 22  1  0
 22 23  1  0
 23 24  1  0
 18 25  1  0
 15 26  1  0
 26 27  2  0
 27 28  1  0
 28 29  2  0
 29 30  1  0
 30 31  2  0
 12  3  1  0
 31 13  1  0
 11  5  1  0
 25 15  1  0
 31 26  1  0
 24 19  1  0
  4 32  1  0
  6 33  1  0
  9 34  1  0
 10 35  1  0
 12 36  1  0
 14 37  1  0
 14 38  1  0
 16 39  1  0
 16 40  1  0
 17 41  1  0
 17 42  1  0
 19 43  1  0
 20 44  1  0
 20 45  1  0
 21 46  1  0
 21 47  1  0
 22 48  1  0
 22 49  1  0
 23 50  1  0
 23 51  1  0
 24 52  1  0
 24 53  1  0
 25 54  1  0
 25 55  1  0
 27 56  1  0
 28 57  1  0
 29 58  1  0
 30 59  1  0
M  END
>  <UniqueID>  (48) 
179

>  <SMILES>  (48) 
O=C(c1cc2cc(F)ccc2[nH]1)N1C[C@@]2(CCN(C3CCCCC3)C2)c2ccccc21

>  <Energy>  (48) 
130.96910791784092

>  <Genealogy>  (48) 
O=C(c1cc2cc(F)ccc2[nH]1)N1C[C@@]2(CCN(C3CCCCC3)C2)c2ccccc21 (3D coordinates assigned)
O=C(c1cc2cc(F)ccc2[nH]1)N1C[C@@]2(CCN(C3CCCCC3)C2)c2ccccc21 (nonaromatic ring conformer: 130.96910791784092 kcal/mol)

>  <smiles>  (48) 
O=C(c1cc2cc(F)ccc2[nH]1)N1C[C@@]2(CCN(C3CCCCC3)C2)c2ccccc21

>  <score_type>  (48) 
oracle

>  <origin>  (48) 
autodockgpu

>  <m_score__min__energy>  (48) 
-8.3499999999999996

>  <m_primary>  (48) 
energy

>  <meeko>  (48) 
{"free_energy": -8.35, "intermolecular_energy": -9.24, "internal_energy": -1.15, "cluster_size": 11, "cluster_id": 1, "rank_in_cluster": 6}

>  <energy>  (48) 
-8.34

>  <cluster_rmsd>  (48) 
0.08

>  <rmsd>  (48) 
272.19

>  <cluster>  (48) 
1

$$$$
VDMKUDNKZWHZNN-SANMLTNENA-N
     RDKit          3D

 59 64  0  0  0  0  0  0  0  0999 V2000
  139.0490   75.7010  219.8070 O   0  0  0  0  0  0  0  0  0  0  0  0
  139.9140   75.5930  220.7190 C   0  0  0  0  0  0  0  0  0  0  0  0
  140.5300   76.8100  221.2750 C   0  0  0  0  0  0  0  0  0  0  0  0
  140.8210   77.0080  222.6230 C   0  0  0  0  0  0  0  0  0  0  0  0
  141.3510   78.2770  222.6900 C   0  0  0  0  0  0  0  0  0  0  0  0
  141.8200   79.0090  223.7790 C   0  0  0  0  0  0  0  0  0  0  0  0
  142.3040   80.3090  223.5390 C   0  0  0  0  0  0  0  0  0  0  0  0
  142.7720   81.0560  224.5690 F   0  0  0  0  0  0  0  0  0  0  0  0
  142.3010   80.8410  222.2290 C   0  0  0  0  0  0  0  0  0  0  0  0
  141.8180   80.0770  221.1500 C   0  0  0  0  0  0  0  0  0  0  0  0
  141.3500   78.7910  221.4200 C   0  0  0  0  0  0  0  0  0  0  0  0
  140.8470   77.9060  220.5450 N   0  0  0  0  0  0  0  0  0  0  0  0
  140.2650   74.2940  221.2180 N   0  0  0  0  0  0  0  0  0  0  0  0
  139.5780   73.6540  222.3430 C   0  0  0  0  0  0  0  0  0  0  0  0
  139.9560   72.1320  222.2830 C   0  0  2  0  0  0  0  0  0  0  0  0
  138.7300   71.2220  222.1900 C   0  0  0  0  0  0  0  0  0  0  0  0
  139.1020   69.9820  222.9770 C   0  0  0  0  0  0  0  0  0  0  0  0
  140.1140   70.3680  223.9730 N   0  0  0  0  0  0  0  0  0  0  0  0
  139.5980   70.3730  225.3690 C   0  0  0  0  0  0  0  0  0  0  0  0
  139.1480   68.9480  225.8080 C   0  0  0  0  0  0  0  0  0  0  0  0
  139.9600   68.3900  226.9850 C   0  0  0  0  0  0  0  0  0  0  0  0
  139.9480   69.3380  228.1960 C   0  0  0  0  0  0  0  0  0  0  0  0
  140.0510   70.8320  227.8210 C   0  0  0  0  0  0  0  0  0  0  0  0
  140.5550   71.0510  226.3910 C   0  0  0  0  0  0  0  0  0  0  0  0
  140.7270   71.6330  223.5240 C   0  0  0  0  0  0  0  0  0  0  0  0
  140.8040   72.0530  221.0400 C   0  0  0  0  0  0  0  0  0  0  0  0
  141.4340   70.9340  220.4800 C   0  0  0  0  0  0  0  0  0  0  0  0
  142.2120   71.1040  219.3250 C   0  0  0  0  0  0  0  0  0  0  0  0
  142.3610   72.3800  218.7530 C   0  0  0  0  0  0  0  0  0  0  0  0
  141.7300   73.4910  219.3320 C   0  0  0  0  0  0  0  0  0  0  0  0
  140.9470   73.2950  220.4750 C   0  0  0  0  0  0  0  0  0  0  0  0
  140.6620   76.3039  223.4530 H   0  0  0  0  0  0  0  0  0  0  0  0
  141.8123   78.5846  224.7938 H   0  0  0  0  0  0  0  0  0  0  0  0
  142.6787   81.8588  222.0519 H   0  0  0  0  0  0  0  0  0  0  0  0
  141.8098   80.4810  220.1269 H   0  0  0  0  0  0  0  0  0  0  0  0
  140.6960   78.0580  219.5220 H   0  0  0  0  0  0  0  0  0  0  0  0
  139.9146   74.0927  223.2940 H   0  0  0  0  0  0  0  0  0  0  0  0
  138.4893   73.7979  222.2803 H   0  0  0  0  0  0  0  0  0  0  0  0
  137.8504   71.7118  222.6331 H   0  0  0  0  0  0  0  0  0  0  0  0
  138.4678   70.9870  221.1479 H   0  0  0  0  0  0  0  0  0  0  0  0
  138.2125   69.5797  223.4839 H   0  0  0  0  0  0  0  0  0  0  0  0
  139.4996   69.2062  222.3062 H   0  0  0  0  0  0  0  0  0  0  0  0
  138.7040   71.0139  225.3679 H   0  0  0  0  0  0  0  0  0  0  0  0
  138.0895   68.9919  226.1039 H   0  0  0  0  0  0  0  0  0  0  0  0
  139.3119   68.2767  224.9521 H   0  0  0  0  0  0  0  0  0  0  0  0
  139.5296   67.4236  227.2865 H   0  0  0  0  0  0  0  0  0  0  0  0
  141.0028   68.2761  226.6538 H   0  0  0  0  0  0  0  0  0  0  0  0
  139.0091   69.1832  228.7479 H   0  0  0  0  0  0  0  0  0  0  0  0
  140.8363   69.0978  228.7987 H   0  0  0  0  0  0  0  0  0  0  0  0
  139.0545   71.2879  227.9163 H   0  0  0  0  0  0  0  0  0  0  0  0
  140.7784   71.2957  228.5035 H   0  0  0  0  0  0  0  0  0  0  0  0
  140.6005   72.1304  226.1840 H   0  0  0  0  0  0  0  0  0  0  0  0
  141.5557   70.6049  226.2931 H   0  0  0  0  0  0  0  0  0  0  0  0
  140.6642   72.3822  224.3269 H   0  0  0  0  0  0  0  0  0  0  0  0
  141.7859   71.4727  223.2730 H   0  0  0  0  0  0  0  0  0  0  0  0
  141.3207   69.9401  220.9376 H   0  0  0  0  0  0  0  0  0  0  0  0
  142.7072   70.2361  218.8652 H   0  0  0  0  0  0  0  0  0  0  0  0
  142.9743   72.5073  217.8487 H   0  0  0  0  0  0  0  0  0  0  0  0
  141.8481   74.4944  218.8970 H   0  0  0  0  0  0  0  0  0  0  0  0
  1  2  2  0
  2  3  1  0
  3  4  2  0
  4  5  1  0
  5  6  2  0
  6  7  1  0
  7  8  1  0
  7  9  2  0
  9 10  1  0
 10 11  2  0
 11 12  1  0
  2 13  1  0
 13 14  1  0
 15 14  1  1
 15 16  1  0
 16 17  1  0
 17 18  1  0
 18 19  1  0
 19 20  1  0
 20 21  1  0
 21 22  1  0
 22 23  1  0
 23 24  1  0
 18 25  1  0
 15 26  1  0
 26 27  2  0
 27 28  1  0
 28 29  2  0
 29 30  1  0
 30 31  2  0
 12  3  1  0
 31 13  1  0
 11  5  1  0
 25 15  1  0
 31 26  1  0
 24 19  1  0
  4 32  1  0
  6 33  1  0
  9 34  1  0
 10 35  1  0
 12 36  1  0
 14 37  1  0
 14 38  1  0
 16 39  1  0
 16 40  1  0
 17 41  1  0
 17 42  1  0
 19 43  1  0
 20 44  1  0
 20 45  1  0
 21 46  1  0
 21 47  1  0
 22 48  1  0
 22 49  1  0
 23 50  1  0
 23 51  1  0
 24 52  1  0
 24 53  1  0
 25 54  1  0
 25 55  1  0
 27 56  1  0
 28 57  1  0
 29 58  1  0
 30 59  1  0
M  END
>  <UniqueID>  (49) 
179

>  <SMILES>  (49) 
O=C(c1cc2cc(F)ccc2[nH]1)N1C[C@@]2(CCN(C3CCCCC3)C2)c2ccccc21

>  <Energy>  (49) 
130.96910791784092

>  <Genealogy>  (49) 
O=C(c1cc2cc(F)ccc2[nH]1)N1C[C@@]2(CCN(C3CCCCC3)C2)c2ccccc21 (3D coordinates assigned)
O=C(c1cc2cc(F)ccc2[nH]1)N1C[C@@]2(CCN(C3CCCCC3)C2)c2ccccc21 (nonaromatic ring conformer: 130.96910791784092 kcal/mol)

>  <smiles>  (49) 
O=C(c1cc2cc(F)ccc2[nH]1)N1C[C@@]2(CCN(C3CCCCC3)C2)c2ccccc21

>  <score_type>  (49) 
oracle

>  <origin>  (49) 
autodockgpu

>  <m_score__min__energy>  (49) 
-8.3499999999999996

>  <m_primary>  (49) 
energy

>  <meeko>  (49) 
{"free_energy": -8.35, "intermolecular_energy": -9.25, "internal_energy": -1.15, "cluster_size": 11, "cluster_id": 1, "rank_in_cluster": 3}

>  <energy>  (49) 
-8.34

>  <cluster_rmsd>  (49) 
0.04

>  <rmsd>  (49) 
272.17

>  <cluster>  (49) 
1

$$$$
VDMKUDNKZWHZNN-SANMLTNENA-N
     RDKit          3D

 59 64  0  0  0  0  0  0  0  0999 V2000
  137.8760   81.8130  221.8340 O   0  0  0  0  0  0  0  0  0  0  0  0
  138.2120   81.2290  222.9010 C   0  0  0  0  0  0  0  0  0  0  0  0
  137.6010   81.6470  224.1740 C   0  0  0  0  0  0  0  0  0  0  0  0
  137.5750   80.8750  225.3340 C   0  0  0  0  0  0  0  0  0  0  0  0
  136.8870   81.6350  226.2520 C   0  0  0  0  0  0  0  0  0  0  0  0
  136.5550   81.3750  227.5800 C   0  0  0  0  0  0  0  0  0  0  0  0
  135.8250   82.3540  228.2800 C   0  0  0  0  0  0  0  0  0  0  0  0
  135.4810   82.1430  229.5740 F   0  0  0  0  0  0  0  0  0  0  0  0
  135.4450   83.5550  227.6390 C   0  0  0  0  0  0  0  0  0  0  0  0
  135.7950   83.7880  226.2960 C   0  0  0  0  0  0  0  0  0  0  0  0
  136.5220   82.8010  225.6310 C   0  0  0  0  0  0  0  0  0  0  0  0
  136.9480   82.8200  224.3580 N   0  0  0  0  0  0  0  0  0  0  0  0
  139.1600   80.1520  222.8550 N   0  0  0  0  0  0  0  0  0  0  0  0
  138.9330   78.9150  222.1030 C   0  0  0  0  0  0  0  0  0  0  0  0
  140.3340   78.2230  221.9590 C   0  0  2  0  0  0  0  0  0  0  0  0
  140.7210   77.9710  220.5010 C   0  0  0  0  0  0  0  0  0  0  0  0
  141.4930   76.6670  220.5210 C   0  0  0  0  0  0  0  0  0  0  0  0
  141.0440   75.8960  221.6910 N   0  0  0  0  0  0  0  0  0  0  0  0
  140.2170   74.7100  221.3350 C   0  0  0  0  0  0  0  0  0  0  0  0
  140.9890   73.3840  221.6050 C   0  0  0  0  0  0  0  0  0  0  0  0
  140.3230   72.5000  222.6680 C   0  0  0  0  0  0  0  0  0  0  0  0
  138.8560   72.1900  222.3250 C   0  0  0  0  0  0  0  0  0  0  0  0
  138.0900   73.3850  221.7190 C   0  0  0  0  0  0  0  0  0  0  0  0
  138.7940   74.7250  221.9620 C   0  0  0  0  0  0  0  0  0  0  0  0
  140.4170   76.8390  222.6370 C   0  0  0  0  0  0  0  0  0  0  0  0
  141.2600   79.2140  222.6170 C   0  0  0  0  0  0  0  0  0  0  0  0
  142.6460   79.1320  222.7960 C   0  0  0  0  0  0  0  0  0  0  0  0
  143.3030   80.1680  223.4770 C   0  0  0  0  0  0  0  0  0  0  0  0
  142.5730   81.2590  223.9780 C   0  0  0  0  0  0  0  0  0  0  0  0
  141.1830   81.3210  223.7990 C   0  0  0  0  0  0  0  0  0  0  0  0
  140.5510   80.2830  223.1030 C   0  0  0  0  0  0  0  0  0  0  0  0
  138.0098   79.8757  225.4833 H   0  0  0  0  0  0  0  0  0  0  0  0
  136.8539   80.4345  228.0660 H   0  0  0  0  0  0  0  0  0  0  0  0
  134.8719   84.3126  228.1936 H   0  0  0  0  0  0  0  0  0  0  0  0
  135.5044   84.7189  225.7870 H   0  0  0  0  0  0  0  0  0  0  0  0
  136.7710   83.5700  223.6530 H   0  0  0  0  0  0  0  0  0  0  0  0
  138.2388   78.2594  222.6491 H   0  0  0  0  0  0  0  0  0  0  0  0
  138.4864   79.1217  221.1192 H   0  0  0  0  0  0  0  0  0  0  0  0
  139.8228   77.8791  219.8727 H   0  0  0  0  0  0  0  0  0  0  0  0
  141.3147   78.7968  220.0820 H   0  0  0  0  0  0  0  0  0  0  0  0
  141.2931   76.0997  219.6000 H   0  0  0  0  0  0  0  0  0  0  0  0
  142.5740   76.8615  220.5810 H   0  0  0  0  0  0  0  0  0  0  0  0
  140.0365   74.7698  220.2516 H   0  0  0  0  0  0  0  0  0  0  0  0
  141.0469   72.8160  220.6648 H   0  0  0  0  0  0  0  0  0  0  0  0
  141.9841   73.6578  221.9856 H   0  0  0  0  0  0  0  0  0  0  0  0
  140.8782   71.5532  222.7407 H   0  0  0  0  0  0  0  0  0  0  0  0
  140.3399   73.0464  223.6226 H   0  0  0  0  0  0  0  0  0  0  0  0
  138.8370   71.3628  221.6001 H   0  0  0  0  0  0  0  0  0  0  0  0
  138.3540   71.9347  223.2699 H   0  0  0  0  0  0  0  0  0  0  0  0
  137.9959   73.2288  220.6342 H   0  0  0  0  0  0  0  0  0  0  0  0
  137.1071   73.4327  222.2105 H   0  0  0  0  0  0  0  0  0  0  0  0
  138.2044   75.5328  221.5039 H   0  0  0  0  0  0  0  0  0  0  0  0
  138.8829   74.8905  223.0458 H   0  0  0  0  0  0  0  0  0  0  0  0
  139.4062   76.4900  222.8949 H   0  0  0  0  0  0  0  0  0  0  0  0
  141.0139   76.9039  223.5587 H   0  0  0  0  0  0  0  0  0  0  0  0
  143.2102   78.2704  222.4095 H   0  0  0  0  0  0  0  0  0  0  0  0
  144.3930   80.1259  223.6191 H   0  0  0  0  0  0  0  0  0  0  0  0
  143.0933   82.0674  224.5125 H   0  0  0  0  0  0  0  0  0  0  0  0
  140.6022   82.1664  224.1966 H   0  0  0  0  0  0  0  0  0  0  0  0
  1  2  2  0
  2  3  1  0
  3  4  2  0
  4  5  1  0
  5  6  2  0
  6  7  1  0
  7  8  1  0
  7  9  2  0
  9 10  1  0
 10 11  2  0
 11 12  1  0
  2 13  1  0
 13 14  1  0
 15 14  1  6
 15 16  1  0
 16 17  1  0
 17 18  1  0
 18 19  1  0
 19 20  1  0
 20 21  1  0
 21 22  1  0
 22 23  1  0
 23 24  1  0
 18 25  1  0
 15 26  1  0
 26 27  2  0
 27 28  1  0
 28 29  2  0
 29 30  1  0
 30 31  2  0
 12  3  1  0
 31 13  1  0
 11  5  1  0
 25 15  1  0
 31 26  1  0
 24 19  1  0
  4 32  1  0
  6 33  1  0
  9 34  1  0
 10 35  1  0
 12 36  1  0
 14 37  1  0
 14 38  1  0
 16 39  1  0
 16 40  1  0
 17 41  1  0
 17 42  1  0
 19 43  1  0
 20 44  1  0
 20 45  1  0
 21 46  1  0
 21 47  1  0
 22 48  1  0
 22 49  1  0
 23 50  1  0
 23 51  1  0
 24 52  1  0
 24 53  1  0
 25 54  1  0
 25 55  1  0
 27 56  1  0
 28 57  1  0
 29 58  1  0
 30 59  1  0
M  END
>  <UniqueID>  (50) 
179

>  <SMILES>  (50) 
O=C(c1cc2cc(F)ccc2[nH]1)N1C[C@@]2(CCN(C3CCCCC3)C2)c2ccccc21

>  <Energy>  (50) 
130.96910791784092

>  <Genealogy>  (50) 
O=C(c1cc2cc(F)ccc2[nH]1)N1C[C@@]2(CCN(C3CCCCC3)C2)c2ccccc21 (3D coordinates assigned)
O=C(c1cc2cc(F)ccc2[nH]1)N1C[C@@]2(CCN(C3CCCCC3)C2)c2ccccc21 (nonaromatic ring conformer: 130.96910791784092 kcal/mol)

>  <smiles>  (50) 
O=C(c1cc2cc(F)ccc2[nH]1)N1C[C@@]2(CCN(C3CCCCC3)C2)c2ccccc21

>  <score_type>  (50) 
oracle

>  <origin>  (50) 
autodockgpu

>  <m_score__min__energy>  (50) 
-8.3499999999999996

>  <m_primary>  (50) 
energy

>  <meeko>  (50) 
{"free_energy": -8.14, "intermolecular_energy": -9.04, "internal_energy": -1.3, "cluster_size": 5, "cluster_id": 3, "rank_in_cluster": 2}

>  <energy>  (50) 
-8.33

>  <cluster_rmsd>  (50) 
0.21

>  <rmsd>  (50) 
272.13

>  <cluster>  (50) 
1

$$$$
VDMKUDNKZWHZNN-SANMLTNENA-N
     RDKit          3D

 59 64  0  0  0  0  0  0  0  0999 V2000
  139.0250   75.7470  219.8380 O   0  0  0  0  0  0  0  0  0  0  0  0
  139.9000   75.6340  220.7400 C   0  0  0  0  0  0  0  0  0  0  0  0
  140.5240   76.8460  221.2960 C   0  0  0  0  0  0  0  0  0  0  0  0
  140.8220   77.0400  222.6430 C   0  0  0  0  0  0  0  0  0  0  0  0
  141.3580   78.3060  222.7100 C   0  0  0  0  0  0  0  0  0  0  0  0
  141.8360   79.0340  223.7990 C   0  0  0  0  0  0  0  0  0  0  0  0
  142.3250   80.3310  223.5590 C   0  0  0  0  0  0  0  0  0  0  0  0
  142.8010   81.0740  224.5880 F   0  0  0  0  0  0  0  0  0  0  0  0
  142.3190   80.8660  222.2500 C   0  0  0  0  0  0  0  0  0  0  0  0
  141.8280   80.1070  221.1720 C   0  0  0  0  0  0  0  0  0  0  0  0
  141.3550   78.8230  221.4410 C   0  0  0  0  0  0  0  0  0  0  0  0
  140.8430   77.9420  220.5660 N   0  0  0  0  0  0  0  0  0  0  0  0
  140.2540   74.3300  221.2280 N   0  0  0  0  0  0  0  0  0  0  0  0
  139.5640   73.6770  222.3430 C   0  0  0  0  0  0  0  0  0  0  0  0
  139.9490   72.1570  222.2700 C   0  0  2  0  0  0  0  0  0  0  0  0
  138.7280   71.2430  222.1610 C   0  0  0  0  0  0  0  0  0  0  0  0
  139.1010   69.9960  222.9380 C   0  0  0  0  0  0  0  0  0  0  0  0
  140.1060   70.3770  223.9430 N   0  0  0  0  0  0  0  0  0  0  0  0
  139.5830   70.3660  225.3360 C   0  0  0  0  0  0  0  0  0  0  0  0
  139.1380   68.9350  225.7590 C   0  0  0  0  0  0  0  0  0  0  0  0
  139.9470   68.3700  226.9350 C   0  0  0  0  0  0  0  0  0  0  0  0
  139.9230   69.3060  228.1550 C   0  0  0  0  0  0  0  0  0  0  0  0
  140.0200   70.8040  227.7950 C   0  0  0  0  0  0  0  0  0  0  0  0
  140.5300   71.0400  226.3700 C   0  0  0  0  0  0  0  0  0  0  0  0
  140.7160   71.6500  223.5100 C   0  0  0  0  0  0  0  0  0  0  0  0
  140.8040   72.0940  221.0300 C   0  0  0  0  0  0  0  0  0  0  0  0
  141.4420   70.9840  220.4630 C   0  0  0  0  0  0  0  0  0  0  0  0
  142.2260   71.1680  219.3140 C   0  0  0  0  0  0  0  0  0  0  0  0
  142.3720   72.4500  218.7550 C   0  0  0  0  0  0  0  0  0  0  0  0
  141.7330   73.5530  219.3420 C   0  0  0  0  0  0  0  0  0  0  0  0
  140.9440   73.3420  220.4790 C   0  0  0  0  0  0  0  0  0  0  0  0
  140.6635   76.3350  223.4724 H   0  0  0  0  0  0  0  0  0  0  0  0
  141.8309   78.6078  224.8131 H   0  0  0  0  0  0  0  0  0  0  0  0
  142.7008   81.8824  222.0735 H   0  0  0  0  0  0  0  0  0  0  0  0
  141.8175   80.5133  220.1498 H   0  0  0  0  0  0  0  0  0  0  0  0
  140.6890   78.0970  219.5440 H   0  0  0  0  0  0  0  0  0  0  0  0
  139.8938   74.1079  223.2998 H   0  0  0  0  0  0  0  0  0  0  0  0
  138.4750   73.8172  222.2764 H   0  0  0  0  0  0  0  0  0  0  0  0
  137.8438   71.7246  222.6040 H   0  0  0  0  0  0  0  0  0  0  0  0
  138.4728   71.0173  221.1151 H   0  0  0  0  0  0  0  0  0  0  0  0
  138.2105   69.5850  223.4362 H   0  0  0  0  0  0  0  0  0  0  0  0
  139.5051   69.2281  222.2619 H   0  0  0  0  0  0  0  0  0  0  0  0
  138.6858   71.0024  225.3358 H   0  0  0  0  0  0  0  0  0  0  0  0
  138.0778   68.9708  226.0499 H   0  0  0  0  0  0  0  0  0  0  0  0
  139.3095   68.2727  224.8977 H   0  0  0  0  0  0  0  0  0  0  0  0
  139.5206   67.3983  227.2248 H   0  0  0  0  0  0  0  0  0  0  0  0
  140.9922   68.2652  226.6084 H   0  0  0  0  0  0  0  0  0  0  0  0
  138.9819   69.1408  228.7000 H   0  0  0  0  0  0  0  0  0  0  0  0
  140.8091   69.0647  228.7605 H   0  0  0  0  0  0  0  0  0  0  0  0
  139.0206   71.2537  227.8896 H   0  0  0  0  0  0  0  0  0  0  0  0
  140.7417   71.2646  228.4857 H   0  0  0  0  0  0  0  0  0  0  0  0
  140.5697   72.1216  226.1738 H   0  0  0  0  0  0  0  0  0  0  0  0
  141.5339   70.6010  226.2732 H   0  0  0  0  0  0  0  0  0  0  0  0
  140.6453   72.3910  224.3199 H   0  0  0  0  0  0  0  0  0  0  0  0
  141.7772   71.4977  223.2635 H   0  0  0  0  0  0  0  0  0  0  0  0
  141.3305   69.9853  220.9105 H   0  0  0  0  0  0  0  0  0  0  0  0
  142.7280   70.3067  218.8490 H   0  0  0  0  0  0  0  0  0  0  0  0
  142.9889   72.5887  217.8549 H   0  0  0  0  0  0  0  0  0  0  0  0
  141.8496   74.5613  218.9180 H   0  0  0  0  0  0  0  0  0  0  0  0
  1  2  2  0
  2  3  1  0
  3  4  2  0
  4  5  1  0
  5  6  2  0
  6  7  1  0
  7  8  1  0
  7  9  2  0
  9 10  1  0
 10 11  2  0
 11 12  1  0
  2 13  1  0
 13 14  1  0
 15 14  1  1
 15 16  1  0
 16 17  1  0
 17 18  1  0
 18 19  1  0
 19 20  1  0
 20 21  1  0
 21 22  1  0
 22 23  1  0
 23 24  1  0
 18 25  1  0
 15 26  1  0
 26 27  2  0
 27 28  1  0
 28 29  2  0
 29 30  1  0
 30 31  2  0
 12  3  1  0
 31 13  1  0
 11  5  1  0
 25 15  1  0
 31 26  1  0
 24 19  1  0
  4 32  1  0
  6 33  1  0
  9 34  1  0
 10 35  1  0
 12 36  1  0
 14 37  1  0
 14 38  1  0
 16 39  1  0
 16 40  1  0
 17 41  1  0
 17 42  1  0
 19 43  1  0
 20 44  1  0
 20 45  1  0
 21 46  1  0
 21 47  1  0
 22 48  1  0
 22 49  1  0
 23 50  1  0
 23 51  1  0
 24 52  1  0
 24 53  1  0
 25 54  1  0
 25 55  1  0
 27 56  1  0
 28 57  1  0
 29 58  1  0
 30 59  1  0
M  END
>  <UniqueID>  (51) 
179

>  <SMILES>  (51) 
O=C(c1cc2cc(F)ccc2[nH]1)N1C[C@@]2(CCN(C3CCCCC3)C2)c2ccccc21

>  <Energy>  (51) 
130.96910791784092

>  <Genealogy>  (51) 
O=C(c1cc2cc(F)ccc2[nH]1)N1C[C@@]2(CCN(C3CCCCC3)C2)c2ccccc21 (3D coordinates assigned)
O=C(c1cc2cc(F)ccc2[nH]1)N1C[C@@]2(CCN(C3CCCCC3)C2)c2ccccc21 (nonaromatic ring conformer: 130.96910791784092 kcal/mol)

>  <smiles>  (51) 
O=C(c1cc2cc(F)ccc2[nH]1)N1C[C@@]2(CCN(C3CCCCC3)C2)c2ccccc21

>  <score_type>  (51) 
oracle

>  <origin>  (51) 
autodockgpu

>  <m_score__min__energy>  (51) 
-8.3499999999999996

>  <m_primary>  (51) 
energy

>  <meeko>  (51) 
{"free_energy": -8.35, "intermolecular_energy": -9.25, "internal_energy": -1.15, "cluster_size": 11, "cluster_id": 1, "rank_in_cluster": 2}

>  <energy>  (51) 
-8.33

>  <cluster_rmsd>  (51) 
0.23

>  <rmsd>  (51) 
272.13

>  <cluster>  (51) 
1

$$$$
VDMKUDNKZWHZNN-SANMLTNENA-N
     RDKit          3D

 59 64  0  0  0  0  0  0  0  0999 V2000
  139.0720   75.6510  219.6950 O   0  0  0  0  0  0  0  0  0  0  0  0
  139.8980   75.5330  220.6400 C   0  0  0  0  0  0  0  0  0  0  0  0
  140.5070   76.7420  221.2200 C   0  0  0  0  0  0  0  0  0  0  0  0
  140.7940   76.9170  222.5730 C   0  0  0  0  0  0  0  0  0  0  0  0
  141.3180   78.1860  222.6650 C   0  0  0  0  0  0  0  0  0  0  0  0
  141.7810   78.9000  223.7680 C   0  0  0  0  0  0  0  0  0  0  0  0
  142.2610   80.2060  223.5530 C   0  0  0  0  0  0  0  0  0  0  0  0
  142.7220   80.9360  224.5980 F   0  0  0  0  0  0  0  0  0  0  0  0
  142.2600   80.7610  222.2530 C   0  0  0  0  0  0  0  0  0  0  0  0
  141.7830   80.0160  221.1590 C   0  0  0  0  0  0  0  0  0  0  0  0
  141.3200   78.7240  221.4040 C   0  0  0  0  0  0  0  0  0  0  0  0
  140.8220   77.8530  220.5110 N   0  0  0  0  0  0  0  0  0  0  0  0
  140.2120   74.2290  221.1530 N   0  0  0  0  0  0  0  0  0  0  0  0
  139.5750   73.6610  222.3440 C   0  0  0  0  0  0  0  0  0  0  0  0
  139.8630   72.1190  222.3040 C   0  0  2  0  0  0  0  0  0  0  0  0
  138.5850   71.2790  222.3280 C   0  0  0  0  0  0  0  0  0  0  0  0
  138.9440   70.0410  223.1250 C   0  0  0  0  0  0  0  0  0  0  0  0
  140.0470   70.3940  224.0320 N   0  0  0  0  0  0  0  0  0  0  0  0
  139.6370   70.4670  225.4610 C   0  0  0  0  0  0  0  0  0  0  0  0
  139.1970   69.0700  225.9910 C   0  0  0  0  0  0  0  0  0  0  0  0
  140.0850   68.5450  227.1270 C   0  0  0  0  0  0  0  0  0  0  0  0
  140.1790   69.5420  228.2950 C   0  0  0  0  0  0  0  0  0  0  0  0
  140.2790   71.0160  227.8510 C   0  0  0  0  0  0  0  0  0  0  0  0
  140.6790   71.1670  226.3800 C   0  0  0  0  0  0  0  0  0  0  0  0
  140.6940   71.6100  223.5010 C   0  0  0  0  0  0  0  0  0  0  0  0
  140.6110   71.9570  221.0060 C   0  0  0  0  0  0  0  0  0  0  0  0
  141.1350   70.7890  220.4370 C   0  0  0  0  0  0  0  0  0  0  0  0
  141.8330   70.8820  219.2240 C   0  0  0  0  0  0  0  0  0  0  0  0
  142.0100   72.1310  218.6030 C   0  0  0  0  0  0  0  0  0  0  0  0
  141.4870   73.2930  219.1920 C   0  0  0  0  0  0  0  0  0  0  0  0
  140.7800   73.1730  220.3940 C   0  0  0  0  0  0  0  0  0  0  0  0
  140.6359   76.1971  223.3895 H   0  0  0  0  0  0  0  0  0  0  0  0
  141.7719   78.4574  224.7750 H   0  0  0  0  0  0  0  0  0  0  0  0
  142.6350   81.7831  222.0955 H   0  0  0  0  0  0  0  0  0  0  0  0
  141.7756   80.4390  220.1436 H   0  0  0  0  0  0  0  0  0  0  0  0
  140.6740   78.0220  219.4910 H   0  0  0  0  0  0  0  0  0  0  0  0
  140.0043   74.1052  223.2541 H   0  0  0  0  0  0  0  0  0  0  0  0
  138.4943   73.8659  222.3557 H   0  0  0  0  0  0  0  0  0  0  0  0
  137.7689   71.8307  222.8175 H   0  0  0  0  0  0  0  0  0  0  0  0
  138.2346   71.0311  221.3152 H   0  0  0  0  0  0  0  0  0  0  0  0
  138.0733   69.7056  223.7076 H   0  0  0  0  0  0  0  0  0  0  0  0
  139.2463   69.2251  222.4519 H   0  0  0  0  0  0  0  0  0  0  0  0
  138.7569   71.1257  225.4996 H   0  0  0  0  0  0  0  0  0  0  0  0
  138.1643   69.1466  226.3620 H   0  0  0  0  0  0  0  0  0  0  0  0
  139.2851   68.3614  225.1543 H   0  0  0  0  0  0  0  0  0  0  0  0
  139.6625   67.6003  227.5000 H   0  0  0  0  0  0  0  0  0  0  0  0
  141.0982   68.3974  226.7248 H   0  0  0  0  0  0  0  0  0  0  0  0
  139.2812   69.4287  228.9204 H   0  0  0  0  0  0  0  0  0  0  0  0
  141.1053   69.3089  228.8405 H   0  0  0  0  0  0  0  0  0  0  0  0
  139.3001   71.4951  228.0000 H   0  0  0  0  0  0  0  0  0  0  0  0
  141.0630   71.4923  228.4580 H   0  0  0  0  0  0  0  0  0  0  0  0
  140.7270   72.2360  226.1252 H   0  0  0  0  0  0  0  0  0  0  0  0
  141.6622   70.6979  226.2272 H   0  0  0  0  0  0  0  0  0  0  0  0
  140.7316   72.3828  224.2829 H   0  0  0  0  0  0  0  0  0  0  0  0
  141.7211   71.3827  223.1795 H   0  0  0  0  0  0  0  0  0  0  0  0
  141.0014   69.8162  220.9328 H   0  0  0  0  0  0  0  0  0  0  0  0
  142.2434   69.9746  218.7569 H   0  0  0  0  0  0  0  0  0  0  0  0
  142.5600   72.1978  217.6527 H   0  0  0  0  0  0  0  0  0  0  0  0
  141.6297   74.2760  218.7194 H   0  0  0  0  0  0  0  0  0  0  0  0
  1  2  2  0
  2  3  1  0
  3  4  2  0
  4  5  1  0
  5  6  2  0
  6  7  1  0
  7  8  1  0
  7  9  2  0
  9 10  1  0
 10 11  2  0
 11 12  1  0
  2 13  1  0
 13 14  1  0
 15 14  1  1
 15 16  1  0
 16 17  1  0
 17 18  1  0
 18 19  1  0
 19 20  1  0
 20 21  1  0
 21 22  1  0
 22 23  1  0
 23 24  1  0
 18 25  1  0
 15 26  1  0
 26 27  2  0
 27 28  1  0
 28 29  2  0
 29 30  1  0
 30 31  2  0
 12  3  1  0
 31 13  1  0
 11  5  1  0
 25 15  1  0
 31 26  1  0
 24 19  1  0
  4 32  1  0
  6 33  1  0
  9 34  1  0
 10 35  1  0
 12 36  1  0
 14 37  1  0
 14 38  1  0
 16 39  1  0
 16 40  1  0
 17 41  1  0
 17 42  1  0
 19 43  1  0
 20 44  1  0
 20 45  1  0
 21 46  1  0
 21 47  1  0
 22 48  1  0
 22 49  1  0
 23 50  1  0
 23 51  1  0
 24 52  1  0
 24 53  1  0
 25 54  1  0
 25 55  1  0
 27 56  1  0
 28 57  1  0
 29 58  1  0
 30 59  1  0
M  END
>  <UniqueID>  (52) 
179

>  <SMILES>  (52) 
O=C(c1cc2cc(F)ccc2[nH]1)N1C[C@@]2(CCN(C3CCCCC3)C2)c2ccccc21

>  <Energy>  (52) 
130.96910791784092

>  <Genealogy>  (52) 
O=C(c1cc2cc(F)ccc2[nH]1)N1C[C@@]2(CCN(C3CCCCC3)C2)c2ccccc21 (3D coordinates assigned)
O=C(c1cc2cc(F)ccc2[nH]1)N1C[C@@]2(CCN(C3CCCCC3)C2)c2ccccc21 (nonaromatic ring conformer: 130.96910791784092 kcal/mol)

>  <smiles>  (52) 
O=C(c1cc2cc(F)ccc2[nH]1)N1C[C@@]2(CCN(C3CCCCC3)C2)c2ccccc21

>  <score_type>  (52) 
oracle

>  <origin>  (52) 
autodockgpu

>  <m_score__min__energy>  (52) 
-8.3499999999999996

>  <m_primary>  (52) 
energy

>  <meeko>  (52) 
{"free_energy": -8.33, "intermolecular_energy": -9.22, "internal_energy": -1.15, "cluster_size": 11, "cluster_id": 1, "rank_in_cluster": 11}

>  <energy>  (52) 
-8.19

>  <cluster_rmsd>  (52) 
0.0

>  <rmsd>  (52) 
272.06

>  <cluster>  (52) 
2

$$$$
VDMKUDNKZWHZNN-SANMLTNENA-N
     RDKit          3D

 59 64  0  0  0  0  0  0  0  0999 V2000
  137.8780   81.8260  221.8400 O   0  0  0  0  0  0  0  0  0  0  0  0
  138.2120   81.2360  222.9040 C   0  0  0  0  0  0  0  0  0  0  0  0
  137.5980   81.6460  224.1780 C   0  0  0  0  0  0  0  0  0  0  0  0
  137.5710   80.8670  225.3340 C   0  0  0  0  0  0  0  0  0  0  0  0
  136.8800   81.6220  226.2550 C   0  0  0  0  0  0  0  0  0  0  0  0
  136.5450   81.3530  227.5810 C   0  0  0  0  0  0  0  0  0  0  0  0
  135.8130   82.3280  228.2850 C   0  0  0  0  0  0  0  0  0  0  0  0
  135.4670   82.1090  229.5770 F   0  0  0  0  0  0  0  0  0  0  0  0
  135.4330   83.5320  227.6490 C   0  0  0  0  0  0  0  0  0  0  0  0
  135.7840   83.7730  226.3080 C   0  0  0  0  0  0  0  0  0  0  0  0
  136.5140   82.7900  225.6390 C   0  0  0  0  0  0  0  0  0  0  0  0
  136.9430   82.8160  224.3670 N   0  0  0  0  0  0  0  0  0  0  0  0
  139.1610   80.1600  222.8530 N   0  0  0  0  0  0  0  0  0  0  0  0
  138.9350   78.9250  222.0970 C   0  0  0  0  0  0  0  0  0  0  0  0
  140.3360   78.2350  221.9510 C   0  0  2  0  0  0  0  0  0  0  0  0
  140.7230   77.9880  220.4910 C   0  0  0  0  0  0  0  0  0  0  0  0
  141.4960   76.6840  220.5060 C   0  0  0  0  0  0  0  0  0  0  0  0
  141.0480   75.9090  221.6730 N   0  0  0  0  0  0  0  0  0  0  0  0
  140.2220   74.7240  221.3130 C   0  0  0  0  0  0  0  0  0  0  0  0
  140.9930   73.3980  221.5850 C   0  0  0  0  0  0  0  0  0  0  0  0
  140.3220   72.5130  222.6450 C   0  0  0  0  0  0  0  0  0  0  0  0
  138.8570   72.2040  222.2960 C   0  0  0  0  0  0  0  0  0  0  0  0
  138.0930   73.4000  221.6880 C   0  0  0  0  0  0  0  0  0  0  0  0
  138.7960   74.7390  221.9340 C   0  0  0  0  0  0  0  0  0  0  0  0
  140.4200   76.8480  222.6230 C   0  0  0  0  0  0  0  0  0  0  0  0
  141.2610   79.2240  222.6120 C   0  0  0  0  0  0  0  0  0  0  0  0
  142.6480   79.1420  222.7900 C   0  0  0  0  0  0  0  0  0  0  0  0
  143.3040   80.1760  223.4740 C   0  0  0  0  0  0  0  0  0  0  0  0
  142.5730   81.2650  223.9800 C   0  0  0  0  0  0  0  0  0  0  0  0
  141.1830   81.3260  223.8020 C   0  0  0  0  0  0  0  0  0  0  0  0
  140.5520   80.2910  223.1020 C   0  0  0  0  0  0  0  0  0  0  0  0
  138.0067   79.8674  225.4787 H   0  0  0  0  0  0  0  0  0  0  0  0
  136.8429   80.4095  228.0618 H   0  0  0  0  0  0  0  0  0  0  0  0
  134.8585   84.2862  228.2068 H   0  0  0  0  0  0  0  0  0  0  0  0
  135.4924   84.7060  225.8035 H   0  0  0  0  0  0  0  0  0  0  0  0
  136.7660   83.5700  223.6660 H   0  0  0  0  0  0  0  0  0  0  0  0
  138.2413   78.2671  222.6410 H   0  0  0  0  0  0  0  0  0  0  0  0
  138.4883   79.1344  221.1138 H   0  0  0  0  0  0  0  0  0  0  0  0
  139.8246   77.8978  219.8627 H   0  0  0  0  0  0  0  0  0  0  0  0
  141.3162   78.8156  220.0748 H   0  0  0  0  0  0  0  0  0  0  0  0
  141.2961   76.1199  219.5831 H   0  0  0  0  0  0  0  0  0  0  0  0
  142.5769   76.8788  220.5662 H   0  0  0  0  0  0  0  0  0  0  0  0
  140.0452   74.7845  220.2290 H   0  0  0  0  0  0  0  0  0  0  0  0
  141.0549   72.8307  220.6446 H   0  0  0  0  0  0  0  0  0  0  0  0
  141.9866   73.6714  221.9697 H   0  0  0  0  0  0  0  0  0  0  0  0
  140.8765   71.5659  222.7192 H   0  0  0  0  0  0  0  0  0  0  0  0
  140.3353   73.0586  223.6001 H   0  0  0  0  0  0  0  0  0  0  0  0
  138.8408   71.3776  221.5702 H   0  0  0  0  0  0  0  0  0  0  0  0
  138.3513   71.9481  223.2388 H   0  0  0  0  0  0  0  0  0  0  0  0
  138.0024   73.2445  220.6028 H   0  0  0  0  0  0  0  0  0  0  0  0
  137.1085   73.4476  222.1763 H   0  0  0  0  0  0  0  0  0  0  0  0
  138.2085   75.5470  221.4735 H   0  0  0  0  0  0  0  0  0  0  0  0
  138.8804   74.9042  223.0183 H   0  0  0  0  0  0  0  0  0  0  0  0
  139.4094   76.4972  222.8793 H   0  0  0  0  0  0  0  0  0  0  0  0
  141.0168   76.9095  223.5450 H   0  0  0  0  0  0  0  0  0  0  0  0
  143.2126   78.2821  222.4003 H   0  0  0  0  0  0  0  0  0  0  0  0
  144.3941   80.1347  223.6150 H   0  0  0  0  0  0  0  0  0  0  0  0
  143.0928   82.0719  224.5173 H   0  0  0  0  0  0  0  0  0  0  0  0
  140.6015   82.1688  224.2038 H   0  0  0  0  0  0  0  0  0  0  0  0
  1  2  2  0
  2  3  1  0
  3  4  2  0
  4  5  1  0
  5  6  2  0
  6  7  1  0
  7  8  1  0
  7  9  2  0
  9 10  1  0
 10 11  2  0
 11 12  1  0
  2 13  1  0
 13 14  1  0
 15 14  1  6
 15 16  1  0
 16 17  1  0
 17 18  1  0
 18 19  1  0
 19 20  1  0
 20 21  1  0
 21 22  1  0
 22 23  1  0
 23 24  1  0
 18 25  1  0
 15 26  1  0
 26 27  2  0
 27 28  1  0
 28 29  2  0
 29 30  1  0
 30 31  2  0
 12  3  1  0
 31 13  1  0
 11  5  1  0
 25 15  1  0
 31 26  1  0
 24 19  1  0
  4 32  1  0
  6 33  1  0
  9 34  1  0
 10 35  1  0
 12 36  1  0
 14 37  1  0
 14 38  1  0
 16 39  1  0
 16 40  1  0
 17 41  1  0
 17 42  1  0
 19 43  1  0
 20 44  1  0
 20 45  1  0
 21 46  1  0
 21 47  1  0
 22 48  1  0
 22 49  1  0
 23 50  1  0
 23 51  1  0
 24 52  1  0
 24 53  1  0
 25 54  1  0
 25 55  1  0
 27 56  1  0
 28 57  1  0
 29 58  1  0
 30 59  1  0
M  END
>  <UniqueID>  (53) 
179

>  <SMILES>  (53) 
O=C(c1cc2cc(F)ccc2[nH]1)N1C[C@@]2(CCN(C3CCCCC3)C2)c2ccccc21

>  <Energy>  (53) 
130.96910791784092

>  <Genealogy>  (53) 
O=C(c1cc2cc(F)ccc2[nH]1)N1C[C@@]2(CCN(C3CCCCC3)C2)c2ccccc21 (3D coordinates assigned)
O=C(c1cc2cc(F)ccc2[nH]1)N1C[C@@]2(CCN(C3CCCCC3)C2)c2ccccc21 (nonaromatic ring conformer: 130.96910791784092 kcal/mol)

>  <smiles>  (53) 
O=C(c1cc2cc(F)ccc2[nH]1)N1C[C@@]2(CCN(C3CCCCC3)C2)c2ccccc21

>  <score_type>  (53) 
oracle

>  <origin>  (53) 
autodockgpu

>  <m_score__min__energy>  (53) 
-8.3499999999999996

>  <m_primary>  (53) 
energy

>  <meeko>  (53) 
{"free_energy": -8.14, "intermolecular_energy": -9.04, "internal_energy": -1.3, "cluster_size": 5, "cluster_id": 3, "rank_in_cluster": 4}

>  <energy>  (53) 
-8.18

>  <cluster_rmsd>  (53) 
0.17

>  <rmsd>  (53) 
272.1

>  <cluster>  (53) 
2

$$$$
VDMKUDNKZWHZNN-SANMLTNENA-N
     RDKit          3D

 59 64  0  0  0  0  0  0  0  0999 V2000
  139.0130   75.7340  219.8610 O   0  0  0  0  0  0  0  0  0  0  0  0
  139.8930   75.6210  220.7580 C   0  0  0  0  0  0  0  0  0  0  0  0
  140.5190   76.8350  221.3110 C   0  0  0  0  0  0  0  0  0  0  0  0
  140.8170   77.0320  222.6570 C   0  0  0  0  0  0  0  0  0  0  0  0
  141.3550   78.2970  222.7210 C   0  0  0  0  0  0  0  0  0  0  0  0
  141.8330   79.0270  223.8080 C   0  0  0  0  0  0  0  0  0  0  0  0
  142.3250   80.3230  223.5650 C   0  0  0  0  0  0  0  0  0  0  0  0
  142.8010   81.0680  224.5930 F   0  0  0  0  0  0  0  0  0  0  0  0
  142.3200   80.8540  222.2550 C   0  0  0  0  0  0  0  0  0  0  0  0
  141.8280   80.0930  221.1780 C   0  0  0  0  0  0  0  0  0  0  0  0
  141.3530   78.8110  221.4510 C   0  0  0  0  0  0  0  0  0  0  0  0
  140.8400   77.9280  220.5780 N   0  0  0  0  0  0  0  0  0  0  0  0
  140.2520   74.3180  221.2430 N   0  0  0  0  0  0  0  0  0  0  0  0
  139.5560   73.6550  222.3490 C   0  0  0  0  0  0  0  0  0  0  0  0
  139.9520   72.1390  222.2730 C   0  0  2  0  0  0  0  0  0  0  0  0
  138.7380   71.2170  222.1510 C   0  0  0  0  0  0  0  0  0  0  0  0
  139.1130   69.9690  222.9260 C   0  0  0  0  0  0  0  0  0  0  0  0
  140.1080   70.3520  223.9400 N   0  0  0  0  0  0  0  0  0  0  0  0
  139.5730   70.3320  225.3290 C   0  0  0  0  0  0  0  0  0  0  0  0
  139.1410   68.8950  225.7450 C   0  0  0  0  0  0  0  0  0  0  0  0
  139.9470   68.3360  226.9260 C   0  0  0  0  0  0  0  0  0  0  0  0
  139.9020   69.2690  228.1470 C   0  0  0  0  0  0  0  0  0  0  0  0
  139.9850   70.7690  227.7920 C   0  0  0  0  0  0  0  0  0  0  0  0
  140.5050   71.0140  226.3720 C   0  0  0  0  0  0  0  0  0  0  0  0
  140.7120   71.6310  223.5170 C   0  0  0  0  0  0  0  0  0  0  0  0
  140.8180   72.0860  221.0410 C   0  0  0  0  0  0  0  0  0  0  0  0
  141.4680   70.9830  220.4740 C   0  0  0  0  0  0  0  0  0  0  0  0
  142.2590   71.1780  219.3320 C   0  0  0  0  0  0  0  0  0  0  0  0
  142.4010   72.4630  218.7800 C   0  0  0  0  0  0  0  0  0  0  0  0
  141.7510   73.5590  219.3660 C   0  0  0  0  0  0  0  0  0  0  0  0
  140.9540   73.3380  220.4960 C   0  0  0  0  0  0  0  0  0  0  0  0
  140.6571   76.3294  223.4881 H   0  0  0  0  0  0  0  0  0  0  0  0
  141.8259   78.6037  224.8233 H   0  0  0  0  0  0  0  0  0  0  0  0
  142.7034   81.8693  222.0760 H   0  0  0  0  0  0  0  0  0  0  0  0
  141.8186   80.4965  220.1547 H   0  0  0  0  0  0  0  0  0  0  0  0
  140.6860   78.0800  219.5560 H   0  0  0  0  0  0  0  0  0  0  0  0
  139.8739   74.0839  223.3108 H   0  0  0  0  0  0  0  0  0  0  0  0
  138.4667   73.7879  222.2728 H   0  0  0  0  0  0  0  0  0  0  0  0
  137.8472   71.6909  222.5890 H   0  0  0  0  0  0  0  0  0  0  0  0
  138.4927   70.9937  221.1022 H   0  0  0  0  0  0  0  0  0  0  0  0
  138.2214   69.5505  223.4158 H   0  0  0  0  0  0  0  0  0  0  0  0
  139.5270   69.2064  222.2499 H   0  0  0  0  0  0  0  0  0  0  0  0
  138.6685   70.9579  225.3233 H   0  0  0  0  0  0  0  0  0  0  0  0
  138.0782   68.9181  226.0276 H   0  0  0  0  0  0  0  0  0  0  0  0
  139.3269   68.2369  224.8834 H   0  0  0  0  0  0  0  0  0  0  0  0
  139.5294   67.3588  227.2101 H   0  0  0  0  0  0  0  0  0  0  0  0
  140.9959   68.2431  226.6079 H   0  0  0  0  0  0  0  0  0  0  0  0
  138.9582   69.0919  228.6835 H   0  0  0  0  0  0  0  0  0  0  0  0
  140.7860   69.0365  228.7590 H   0  0  0  0  0  0  0  0  0  0  0  0
  138.9797   71.2071  227.8788 H   0  0  0  0  0  0  0  0  0  0  0  0
  140.6949   71.2363  228.4904 H   0  0  0  0  0  0  0  0  0  0  0  0
  140.5350   72.0964  226.1785 H   0  0  0  0  0  0  0  0  0  0  0  0
  141.5146   70.5865  226.2825 H   0  0  0  0  0  0  0  0  0  0  0  0
  140.6296   72.3678  224.3296 H   0  0  0  0  0  0  0  0  0  0  0  0
  141.7759   71.4865  223.2779 H   0  0  0  0  0  0  0  0  0  0  0  0
  141.3603   69.9815  220.9161 H   0  0  0  0  0  0  0  0  0  0  0  0
  142.7700   70.3222  218.8667 H   0  0  0  0  0  0  0  0  0  0  0  0
  143.0241   72.6094  217.8854 H   0  0  0  0  0  0  0  0  0  0  0  0
  141.8648   74.5698  218.9472 H   0  0  0  0  0  0  0  0  0  0  0  0
  1  2  2  0
  2  3  1  0
  3  4  2  0
  4  5  1  0
  5  6  2  0
  6  7  1  0
  7  8  1  0
  7  9  2  0
  9 10  1  0
 10 11  2  0
 11 12  1  0
  2 13  1  0
 13 14  1  0
 15 14  1  1
 15 16  1  0
 16 17  1  0
 17 18  1  0
 18 19  1  0
 19 20  1  0
 20 21  1  0
 21 22  1  0
 22 23  1  0
 23 24  1  0
 18 25  1  0
 15 26  1  0
 26 27  2  0
 27 28  1  0
 28 29  2  0
 29 30  1  0
 30 31  2  0
 12  3  1  0
 31 13  1  0
 11  5  1  0
 25 15  1  0
 31 26  1  0
 24 19  1  0
  4 32  1  0
  6 33  1  0
  9 34  1  0
 10 35  1  0
 12 36  1  0
 14 37  1  0
 14 38  1  0
 16 39  1  0
 16 40  1  0
 17 41  1  0
 17 42  1  0
 19 43  1  0
 20 44  1  0
 20 45  1  0
 21 46  1  0
 21 47  1  0
 22 48  1  0
 22 49  1  0
 23 50  1  0
 23 51  1  0
 24 52  1  0
 24 53  1  0
 25 54  1  0
 25 55  1  0
 27 56  1  0
 28 57  1  0
 29 58  1  0
 30 59  1  0
M  END
>  <UniqueID>  (54) 
179

>  <SMILES>  (54) 
O=C(c1cc2cc(F)ccc2[nH]1)N1C[C@@]2(CCN(C3CCCCC3)C2)c2ccccc21

>  <Energy>  (54) 
130.96910791784092

>  <Genealogy>  (54) 
O=C(c1cc2cc(F)ccc2[nH]1)N1C[C@@]2(CCN(C3CCCCC3)C2)c2ccccc21 (3D coordinates assigned)
O=C(c1cc2cc(F)ccc2[nH]1)N1C[C@@]2(CCN(C3CCCCC3)C2)c2ccccc21 (nonaromatic ring conformer: 130.96910791784092 kcal/mol)

>  <smiles>  (54) 
O=C(c1cc2cc(F)ccc2[nH]1)N1C[C@@]2(CCN(C3CCCCC3)C2)c2ccccc21

>  <score_type>  (54) 
oracle

>  <origin>  (54) 
autodockgpu

>  <m_score__min__energy>  (54) 
-8.3499999999999996

>  <m_primary>  (54) 
energy

>  <meeko>  (54) 
{"free_energy": -8.35, "intermolecular_energy": -9.24, "internal_energy": -1.15, "cluster_size": 11, "cluster_id": 1, "rank_in_cluster": 4}

>  <energy>  (54) 
-8.14

>  <cluster_rmsd>  (54) 
0.15

>  <rmsd>  (54) 
272.11

>  <cluster>  (54) 
2

$$$$
VDMKUDNKZWHZNN-SANMLTNENA-N
     RDKit          3D

 59 64  0  0  0  0  0  0  0  0999 V2000
  139.0800   75.6240  219.7060 O   0  0  0  0  0  0  0  0  0  0  0  0
  139.9140   75.5110  220.6450 C   0  0  0  0  0  0  0  0  0  0  0  0
  140.5250   76.7230  221.2160 C   0  0  0  0  0  0  0  0  0  0  0  0
  140.8080   76.9080  222.5680 C   0  0  0  0  0  0  0  0  0  0  0  0
  141.3360   78.1770  222.6500 C   0  0  0  0  0  0  0  0  0  0  0  0
  141.7980   78.8990  223.7490 C   0  0  0  0  0  0  0  0  0  0  0  0
  142.2820   80.2020  223.5240 C   0  0  0  0  0  0  0  0  0  0  0  0
  142.7420   80.9390  224.5640 F   0  0  0  0  0  0  0  0  0  0  0  0
  142.2860   80.7460  222.2190 C   0  0  0  0  0  0  0  0  0  0  0  0
  141.8100   79.9930  221.1300 C   0  0  0  0  0  0  0  0  0  0  0  0
  141.3420   78.7040  221.3850 C   0  0  0  0  0  0  0  0  0  0  0  0
  140.8450   77.8270  220.4980 N   0  0  0  0  0  0  0  0  0  0  0  0
  140.2350   74.2090  221.1590 N   0  0  0  0  0  0  0  0  0  0  0  0
  139.5920   73.6340  222.3430 C   0  0  0  0  0  0  0  0  0  0  0  0
  139.8940   72.0940  222.3050 C   0  0  2  0  0  0  0  0  0  0  0  0
  138.6230   71.2430  222.3150 C   0  0  0  0  0  0  0  0  0  0  0  0
  138.9860   70.0070  223.1140 C   0  0  0  0  0  0  0  0  0  0  0  0
  140.0770   70.3700  224.0320 N   0  0  0  0  0  0  0  0  0  0  0  0
  139.6520   70.4370  225.4570 C   0  0  0  0  0  0  0  0  0  0  0  0
  139.1990   69.0400  225.9760 C   0  0  0  0  0  0  0  0  0  0  0  0
  140.0720   68.5040  227.1180 C   0  0  0  0  0  0  0  0  0  0  0  0
  140.1590   69.4940  228.2920 C   0  0  0  0  0  0  0  0  0  0  0  0
  140.2710   70.9700  227.8570 C   0  0  0  0  0  0  0  0  0  0  0  0
  140.6880   71.1270  226.3910 C   0  0  0  0  0  0  0  0  0  0  0  0
  140.7180   71.5920  223.5090 C   0  0  0  0  0  0  0  0  0  0  0  0
  140.6560   71.9410  221.0130 C   0  0  0  0  0  0  0  0  0  0  0  0
  141.1960   70.7790  220.4490 C   0  0  0  0  0  0  0  0  0  0  0  0
  141.9060   70.8800  219.2430 C   0  0  0  0  0  0  0  0  0  0  0  0
  142.0770   72.1310  218.6250 C   0  0  0  0  0  0  0  0  0  0  0  0
  141.5370   73.2870  219.2100 C   0  0  0  0  0  0  0  0  0  0  0  0
  140.8200   73.1590  220.4050 C   0  0  0  0  0  0  0  0  0  0  0  0
  140.6451   76.1957  223.3902 H   0  0  0  0  0  0  0  0  0  0  0  0
  141.7850   78.4649  224.7596 H   0  0  0  0  0  0  0  0  0  0  0  0
  142.6641   81.7657  222.0538 H   0  0  0  0  0  0  0  0  0  0  0  0
  141.8070   80.4072  220.1110 H   0  0  0  0  0  0  0  0  0  0  0  0
  140.7000   77.9880  219.4760 H   0  0  0  0  0  0  0  0  0  0  0  0
  140.0086   74.0813  223.2576 H   0  0  0  0  0  0  0  0  0  0  0  0
  138.5094   73.8290  222.3441 H   0  0  0  0  0  0  0  0  0  0  0  0
  137.7973   71.7867  222.7973 H   0  0  0  0  0  0  0  0  0  0  0  0
  138.2841   70.9937  221.2986 H   0  0  0  0  0  0  0  0  0  0  0  0
  138.1130   69.6625  223.6878 H   0  0  0  0  0  0  0  0  0  0  0  0
  139.3022   69.1947  222.4431 H   0  0  0  0  0  0  0  0  0  0  0  0
  138.7744   71.0994  225.4888 H   0  0  0  0  0  0  0  0  0  0  0  0
  138.1631   69.1208  226.3370 H   0  0  0  0  0  0  0  0  0  0  0  0
  139.2920   68.3351  225.1367 H   0  0  0  0  0  0  0  0  0  0  0  0
  139.6405   67.5596  227.4813 H   0  0  0  0  0  0  0  0  0  0  0  0
  141.0885   68.3529  226.7257 H   0  0  0  0  0  0  0  0  0  0  0  0
  139.2543   69.3819  228.9076 H   0  0  0  0  0  0  0  0  0  0  0  0
  141.0785   69.2533  228.8457 H   0  0  0  0  0  0  0  0  0  0  0  0
  139.2928   71.4531  227.9978 H   0  0  0  0  0  0  0  0  0  0  0  0
  141.0506   71.4392  228.4751 H   0  0  0  0  0  0  0  0  0  0  0  0
  140.7442   72.1971  226.1425 H   0  0  0  0  0  0  0  0  0  0  0  0
  141.6705   70.6540  226.2462 H   0  0  0  0  0  0  0  0  0  0  0  0
  140.7409   72.3643  224.2920 H   0  0  0  0  0  0  0  0  0  0  0  0
  141.7504   71.3748  223.1976 H   0  0  0  0  0  0  0  0  0  0  0  0
  141.0660   69.8045  220.9424 H   0  0  0  0  0  0  0  0  0  0  0  0
  142.3303   69.9771  218.7795 H   0  0  0  0  0  0  0  0  0  0  0  0
  142.6356   72.2042  217.6802 H   0  0  0  0  0  0  0  0  0  0  0  0
  141.6744   74.2718  218.7396 H   0  0  0  0  0  0  0  0  0  0  0  0
  1  2  2  0
  2  3  1  0
  3  4  2  0
  4  5  1  0
  5  6  2  0
  6  7  1  0
  7  8  1  0
  7  9  2  0
  9 10  1  0
 10 11  2  0
 11 12  1  0
  2 13  1  0
 13 14  1  0
 15 14  1  1
 15 16  1  0
 16 17  1  0
 17 18  1  0
 18 19  1  0
 19 20  1  0
 20 21  1  0
 21 22  1  0
 22 23  1  0
 23 24  1  0
 18 25  1  0
 15 26  1  0
 26 27  2  0
 27 28  1  0
 28 29  2  0
 29 30  1  0
 30 31  2  0
 12  3  1  0
 31 13  1  0
 11  5  1  0
 25 15  1  0
 31 26  1  0
 24 19  1  0
  4 32  1  0
  6 33  1  0
  9 34  1  0
 10 35  1  0
 12 36  1  0
 14 37  1  0
 14 38  1  0
 16 39  1  0
 16 40  1  0
 17 41  1  0
 17 42  1  0
 19 43  1  0
 20 44  1  0
 20 45  1  0
 21 46  1  0
 21 47  1  0
 22 48  1  0
 22 49  1  0
 23 50  1  0
 23 51  1  0
 24 52  1  0
 24 53  1  0
 25 54  1  0
 25 55  1  0
 27 56  1  0
 28 57  1  0
 29 58  1  0
 30 59  1  0
M  END
>  <UniqueID>  (55) 
179

>  <SMILES>  (55) 
O=C(c1cc2cc(F)ccc2[nH]1)N1C[C@@]2(CCN(C3CCCCC3)C2)c2ccccc21

>  <Energy>  (55) 
130.96910791784092

>  <Genealogy>  (55) 
O=C(c1cc2cc(F)ccc2[nH]1)N1C[C@@]2(CCN(C3CCCCC3)C2)c2ccccc21 (3D coordinates assigned)
O=C(c1cc2cc(F)ccc2[nH]1)N1C[C@@]2(CCN(C3CCCCC3)C2)c2ccccc21 (nonaromatic ring conformer: 130.96910791784092 kcal/mol)

>  <smiles>  (55) 
O=C(c1cc2cc(F)ccc2[nH]1)N1C[C@@]2(CCN(C3CCCCC3)C2)c2ccccc21

>  <score_type>  (55) 
oracle

>  <origin>  (55) 
autodockgpu

>  <m_score__min__energy>  (55) 
-8.3499999999999996

>  <m_primary>  (55) 
energy

>  <meeko>  (55) 
{"free_energy": -8.33, "intermolecular_energy": -9.23, "internal_energy": -1.15, "cluster_size": 11, "cluster_id": 1, "rank_in_cluster": 10}

>  <energy>  (55) 
-8.14

>  <cluster_rmsd>  (55) 
0.0

>  <rmsd>  (55) 
273.64

>  <cluster>  (55) 
3

$$$$
VDMKUDNKZWHZNN-SANMLTNENA-N
     RDKit          3D

 59 64  0  0  0  0  0  0  0  0999 V2000
  140.0110   74.2800  221.9410 O   0  0  0  0  0  0  0  0  0  0  0  0
  140.9550   74.8850  221.3620 C   0  0  0  0  0  0  0  0  0  0  0  0
  142.1400   74.1240  220.9300 C   0  0  0  0  0  0  0  0  0  0  0  0
  142.1400   72.7690  220.6060 C   0  0  0  0  0  0  0  0  0  0  0  0
  143.4490   72.4780  220.2940 C   0  0  0  0  0  0  0  0  0  0  0  0
  144.0430   71.2810  219.8970 C   0  0  0  0  0  0  0  0  0  0  0  0
  145.4290   71.2860  219.6500 C   0  0  0  0  0  0  0  0  0  0  0  0
  146.0480   70.1440  219.2610 F   0  0  0  0  0  0  0  0  0  0  0  0
  146.1790   72.4730  219.8110 C   0  0  0  0  0  0  0  0  0  0  0  0
  145.5500   73.6650  220.2150 C   0  0  0  0  0  0  0  0  0  0  0  0
  144.1750   73.6300  220.4460 C   0  0  0  0  0  0  0  0  0  0  0  0
  143.3880   74.6440  220.8400 N   0  0  0  0  0  0  0  0  0  0  0  0
  140.8490   76.2940  221.1100 N   0  0  0  0  0  0  0  0  0  0  0  0
  140.4890   77.2690  222.1420 C   0  0  0  0  0  0  0  0  0  0  0  0
  140.9010   78.6760  221.5840 C   0  0  2  0  0  0  0  0  0  0  0  0
  141.8750   79.4150  222.5040 C   0  0  0  0  0  0  0  0  0  0  0  0
  141.5050   80.8790  222.3710 C   0  0  0  0  0  0  0  0  0  0  0  0
  140.0880   80.9510  221.9800 N   0  0  0  0  0  0  0  0  0  0  0  0
  139.1990   81.4410  223.0690 C   0  0  0  0  0  0  0  0  0  0  0  0
  137.9890   82.2340  222.4930 C   0  0  0  0  0  0  0  0  0  0  0  0
  136.6340   81.5820  222.8010 C   0  0  0  0  0  0  0  0  0  0  0  0
  136.4360   81.3470  224.3080 C   0  0  0  0  0  0  0  0  0  0  0  0
  137.7090   80.8720  225.0390 C   0  0  0  0  0  0  0  0  0  0  0  0
  138.7790   80.3380  224.0820 C   0  0  0  0  0  0  0  0  0  0  0  0
  139.7150   79.6460  221.4010 C   0  0  0  0  0  0  0  0  0  0  0  0
  141.5380   78.3310  220.2620 C   0  0  0  0  0  0  0  0  0  0  0  0
  142.0930   79.1920  219.3070 C   0  0  0  0  0  0  0  0  0  0  0  0
  142.6030   78.6460  218.1190 C   0  0  0  0  0  0  0  0  0  0  0  0
  142.5430   77.2590  217.8950 C   0  0  0  0  0  0  0  0  0  0  0  0
  141.9740   76.4130  218.8580 C   0  0  0  0  0  0  0  0  0  0  0  0
  141.4860   76.9790  220.0420 C   0  0  0  0  0  0  0  0  0  0  0  0
  141.2813   72.0815  220.6006 H   0  0  0  0  0  0  0  0  0  0  0  0
  143.4484   70.3629  219.7806 H   0  0  0  0  0  0  0  0  0  0  0  0
  147.2621   72.4649  219.6191 H   0  0  0  0  0  0  0  0  0  0  0  0
  146.1241   74.5943  220.3444 H   0  0  0  0  0  0  0  0  0  0  0  0
  143.6930   75.6170  221.0670 H   0  0  0  0  0  0  0  0  0  0  0  0
  139.4063   77.2378  222.3339 H   0  0  0  0  0  0  0  0  0  0  0  0
  140.9992   77.0514  223.0919 H   0  0  0  0  0  0  0  0  0  0  0  0
  141.7549   79.0787  223.5444 H   0  0  0  0  0  0  0  0  0  0  0  0
  142.9241   79.2273  222.2318 H   0  0  0  0  0  0  0  0  0  0  0  0
  141.6543   81.3916  223.3327 H   0  0  0  0  0  0  0  0  0  0  0  0
  142.1375   81.3681  221.6155 H   0  0  0  0  0  0  0  0  0  0  0  0
  139.7970   82.1442  223.6673 H   0  0  0  0  0  0  0  0  0  0  0  0
  137.9963   83.2452  222.9258 H   0  0  0  0  0  0  0  0  0  0  0  0
  138.1014   82.2507  221.3989 H   0  0  0  0  0  0  0  0  0  0  0  0
  135.8321   82.2405  222.4360 H   0  0  0  0  0  0  0  0  0  0  0  0
  136.6059   80.6039  222.2984 H   0  0  0  0  0  0  0  0  0  0  0  0
  136.1059   82.2914  224.7654 H   0  0  0  0  0  0  0  0  0  0  0  0
  135.6905   80.5448  224.4109 H   0  0  0  0  0  0  0  0  0  0  0  0
  138.1300   81.7202  225.5988 H   0  0  0  0  0  0  0  0  0  0  0  0
  137.4193   80.0464  225.7057 H   0  0  0  0  0  0  0  0  0  0  0  0
  139.6595   80.0238  224.6616 H   0  0  0  0  0  0  0  0  0  0  0  0
  138.3668   79.4822  223.5273 H   0  0  0  0  0  0  0  0  0  0  0  0
  138.8281   79.2502  221.9174 H   0  0  0  0  0  0  0  0  0  0  0  0
  139.4805   79.7595  220.3323 H   0  0  0  0  0  0  0  0  0  0  0  0
  142.1286   80.2769  219.4849 H   0  0  0  0  0  0  0  0  0  0  0  0
  143.0510   79.3050  217.3607 H   0  0  0  0  0  0  0  0  0  0  0  0
  142.9435   76.8364  216.9617 H   0  0  0  0  0  0  0  0  0  0  0  0
  141.9124   75.3282  218.6868 H   0  0  0  0  0  0  0  0  0  0  0  0
  1  2  2  0
  2  3  1  0
  3  4  2  0
  4  5  1  0
  5  6  2  0
  6  7  1  0
  7  8  1  0
  7  9  2  0
  9 10  1  0
 10 11  2  0
 11 12  1  0
  2 13  1  0
 13 14  1  0
 15 14  1  1
 15 16  1  0
 16 17  1  0
 17 18  1  0
 18 19  1  0
 19 20  1  0
 20 21  1  0
 21 22  1  0
 22 23  1  0
 23 24  1  0
 18 25  1  0
 15 26  1  0
 26 27  2  0
 27 28  1  0
 28 29  2  0
 29 30  1  0
 30 31  2  0
 12  3  1  0
 31 13  1  0
 11  5  1  0
 25 15  1  0
 31 26  1  0
 24 19  1  0
  4 32  1  0
  6 33  1  0
  9 34  1  0
 10 35  1  0
 12 36  1  0
 14 37  1  0
 14 38  1  0
 16 39  1  0
 16 40  1  0
 17 41  1  0
 17 42  1  0
 19 43  1  0
 20 44  1  0
 20 45  1  0
 21 46  1  0
 21 47  1  0
 22 48  1  0
 22 49  1  0
 23 50  1  0
 23 51  1  0
 24 52  1  0
 24 53  1  0
 25 54  1  0
 25 55  1  0
 27 56  1  0
 28 57  1  0
 29 58  1  0
 30 59  1  0
M  END
>  <UniqueID>  (56) 
179

>  <SMILES>  (56) 
O=C(c1cc2cc(F)ccc2[nH]1)N1C[C@@]2(CCN(C3CCCCC3)C2)c2ccccc21

>  <Energy>  (56) 
130.96910791784092

>  <Genealogy>  (56) 
O=C(c1cc2cc(F)ccc2[nH]1)N1C[C@@]2(CCN(C3CCCCC3)C2)c2ccccc21 (3D coordinates assigned)
O=C(c1cc2cc(F)ccc2[nH]1)N1C[C@@]2(CCN(C3CCCCC3)C2)c2ccccc21 (nonaromatic ring conformer: 130.96910791784092 kcal/mol)

>  <smiles>  (56) 
O=C(c1cc2cc(F)ccc2[nH]1)N1C[C@@]2(CCN(C3CCCCC3)C2)c2ccccc21

>  <score_type>  (56) 
oracle

>  <origin>  (56) 
autodockgpu

>  <m_score__min__energy>  (56) 
-8.3499999999999996

>  <m_primary>  (56) 
energy

>  <meeko>  (56) 
{"free_energy": -8.14, "intermolecular_energy": -9.03, "internal_energy": -1.29, "cluster_size": 3, "cluster_id": 2, "rank_in_cluster": 3}

>  <energy>  (56) 
-8.14

>  <cluster_rmsd>  (56) 
0.04

>  <rmsd>  (56) 
273.67

>  <cluster>  (56) 
3

$$$$
VDMKUDNKZWHZNN-SANMLTNENA-N
     RDKit          3D

 59 64  0  0  0  0  0  0  0  0999 V2000
  137.8890   81.8260  221.8370 O   0  0  0  0  0  0  0  0  0  0  0  0
  138.2210   81.2350  222.9010 C   0  0  0  0  0  0  0  0  0  0  0  0
  137.6060   81.6430  224.1750 C   0  0  0  0  0  0  0  0  0  0  0  0
  137.5860   80.8680  225.3320 C   0  0  0  0  0  0  0  0  0  0  0  0
  136.8910   81.6190  226.2530 C   0  0  0  0  0  0  0  0  0  0  0  0
  136.5590   81.3520  227.5790 C   0  0  0  0  0  0  0  0  0  0  0  0
  135.8210   82.3230  228.2820 C   0  0  0  0  0  0  0  0  0  0  0  0
  135.4780   82.1050  229.5750 F   0  0  0  0  0  0  0  0  0  0  0  0
  135.4310   83.5230  227.6430 C   0  0  0  0  0  0  0  0  0  0  0  0
  135.7790   83.7620  226.3010 C   0  0  0  0  0  0  0  0  0  0  0  0
  136.5160   82.7840  225.6340 C   0  0  0  0  0  0  0  0  0  0  0  0
  136.9430   82.8090  224.3620 N   0  0  0  0  0  0  0  0  0  0  0  0
  139.1700   80.1580  222.8500 N   0  0  0  0  0  0  0  0  0  0  0  0
  138.9390   78.9210  222.1000 C   0  0  0  0  0  0  0  0  0  0  0  0
  140.3400   78.2290  221.9500 C   0  0  2  0  0  0  0  0  0  0  0  0
  140.7200   77.9770  220.4890 C   0  0  0  0  0  0  0  0  0  0  0  0
  141.4930   76.6730  220.5060 C   0  0  0  0  0  0  0  0  0  0  0  0
  141.0490   75.9020  221.6780 N   0  0  0  0  0  0  0  0  0  0  0  0
  140.2210   74.7150  221.3260 C   0  0  0  0  0  0  0  0  0  0  0  0
  140.9950   73.3910  221.5920 C   0  0  0  0  0  0  0  0  0  0  0  0
  140.3350   72.5050  222.6580 C   0  0  0  0  0  0  0  0  0  0  0  0
  138.8670   72.1950  222.3220 C   0  0  0  0  0  0  0  0  0  0  0  0
  138.0970   73.3900  221.7210 C   0  0  0  0  0  0  0  0  0  0  0  0
  138.8010   74.7300  221.9600 C   0  0  0  0  0  0  0  0  0  0  0  0
  140.4260   76.8450  222.6270 C   0  0  0  0  0  0  0  0  0  0  0  0
  141.2680   79.2200  222.6030 C   0  0  0  0  0  0  0  0  0  0  0  0
  142.6550   79.1380  222.7750 C   0  0  0  0  0  0  0  0  0  0  0  0
  143.3150   80.1750  223.4530 C   0  0  0  0  0  0  0  0  0  0  0  0
  142.5870   81.2660  223.9580 C   0  0  0  0  0  0  0  0  0  0  0  0
  141.1960   81.3270  223.7850 C   0  0  0  0  0  0  0  0  0  0  0  0
  140.5620   80.2890  223.0920 C   0  0  0  0  0  0  0  0  0  0  0  0
  138.0293   79.8720  225.4782 H   0  0  0  0  0  0  0  0  0  0  0  0
  136.8639   80.4118  228.0618 H   0  0  0  0  0  0  0  0  0  0  0  0
  134.8516   84.2746  228.1992 H   0  0  0  0  0  0  0  0  0  0  0  0
  135.4792   84.6910  225.7939 H   0  0  0  0  0  0  0  0  0  0  0  0
  136.7590   83.5600  223.6580 H   0  0  0  0  0  0  0  0  0  0  0  0
  138.2474   78.2657  222.6498 H   0  0  0  0  0  0  0  0  0  0  0  0
  138.4874   79.1269  221.1183 H   0  0  0  0  0  0  0  0  0  0  0  0
  139.8187   77.8845  219.8652 H   0  0  0  0  0  0  0  0  0  0  0  0
  141.3109   78.8030  220.0666 H   0  0  0  0  0  0  0  0  0  0  0  0
  141.2897   76.1055  219.5859 H   0  0  0  0  0  0  0  0  0  0  0  0
  142.5741   76.8680  220.5615 H   0  0  0  0  0  0  0  0  0  0  0  0
  140.0349   74.7735  220.2434 H   0  0  0  0  0  0  0  0  0  0  0  0
  141.0494   72.8235  220.6513 H   0  0  0  0  0  0  0  0  0  0  0  0
  141.9912   73.6662  221.9685 H   0  0  0  0  0  0  0  0  0  0  0  0
  140.8910   71.5583  222.7267 H   0  0  0  0  0  0  0  0  0  0  0  0
  140.3568   73.0499  223.6133 H   0  0  0  0  0  0  0  0  0  0  0  0
  138.8449   71.3685  221.5964 H   0  0  0  0  0  0  0  0  0  0  0  0
  138.3700   71.9389  223.2693 H   0  0  0  0  0  0  0  0  0  0  0  0
  137.9966   73.2341  220.6367 H   0  0  0  0  0  0  0  0  0  0  0  0
  137.1171   73.4370  222.2186 H   0  0  0  0  0  0  0  0  0  0  0  0
  138.2088   75.5373  221.5044 H   0  0  0  0  0  0  0  0  0  0  0  0
  138.8948   74.8964  223.0433 H   0  0  0  0  0  0  0  0  0  0  0  0
  139.4163   76.4960  222.8892 H   0  0  0  0  0  0  0  0  0  0  0  0
  141.0269   76.9097  223.5461 H   0  0  0  0  0  0  0  0  0  0  0  0
  143.2175   78.2765  222.3859 H   0  0  0  0  0  0  0  0  0  0  0  0
  144.4057   80.1335  223.5895 H   0  0  0  0  0  0  0  0  0  0  0  0
  143.1093   82.0745  224.4905 H   0  0  0  0  0  0  0  0  0  0  0  0
  140.6164   82.1719  224.1851 H   0  0  0  0  0  0  0  0  0  0  0  0
  1  2  2  0
  2  3  1  0
  3  4  2  0
  4  5  1  0
  5  6  2  0
  6  7  1  0
  7  8  1  0
  7  9  2  0
  9 10  1  0
 10 11  2  0
 11 12  1  0
  2 13  1  0
 13 14  1  0
 15 14  1  6
 15 16  1  0
 16 17  1  0
 17 18  1  0
 18 19  1  0
 19 20  1  0
 20 21  1  0
 21 22  1  0
 22 23  1  0
 23 24  1  0
 18 25  1  0
 15 26  1  0
 26 27  2  0
 27 28  1  0
 28 29  2  0
 29 30  1  0
 30 31  2  0
 12  3  1  0
 31 13  1  0
 11  5  1  0
 25 15  1  0
 31 26  1  0
 24 19  1  0
  4 32  1  0
  6 33  1  0
  9 34  1  0
 10 35  1  0
 12 36  1  0
 14 37  1  0
 14 38  1  0
 16 39  1  0
 16 40  1  0
 17 41  1  0
 17 42  1  0
 19 43  1  0
 20 44  1  0
 20 45  1  0
 21 46  1  0
 21 47  1  0
 22 48  1  0
 22 49  1  0
 23 50  1  0
 23 51  1  0
 24 52  1  0
 24 53  1  0
 25 54  1  0
 25 55  1  0
 27 56  1  0
 28 57  1  0
 29 58  1  0
 30 59  1  0
M  END
>  <UniqueID>  (57) 
179

>  <SMILES>  (57) 
O=C(c1cc2cc(F)ccc2[nH]1)N1C[C@@]2(CCN(C3CCCCC3)C2)c2ccccc21

>  <Energy>  (57) 
130.96910791784092

>  <Genealogy>  (57) 
O=C(c1cc2cc(F)ccc2[nH]1)N1C[C@@]2(CCN(C3CCCCC3)C2)c2ccccc21 (3D coordinates assigned)
O=C(c1cc2cc(F)ccc2[nH]1)N1C[C@@]2(CCN(C3CCCCC3)C2)c2ccccc21 (nonaromatic ring conformer: 130.96910791784092 kcal/mol)

>  <smiles>  (57) 
O=C(c1cc2cc(F)ccc2[nH]1)N1C[C@@]2(CCN(C3CCCCC3)C2)c2ccccc21

>  <score_type>  (57) 
oracle

>  <origin>  (57) 
autodockgpu

>  <m_score__min__energy>  (57) 
-8.3499999999999996

>  <m_primary>  (57) 
energy

>  <meeko>  (57) 
{"free_energy": -8.14, "intermolecular_energy": -9.04, "internal_energy": -1.3, "cluster_size": 5, "cluster_id": 3, "rank_in_cluster": 3}

>  <energy>  (57) 
-8.14

>  <cluster_rmsd>  (57) 
0.05

>  <rmsd>  (57) 
273.66

>  <cluster>  (57) 
3

$$$$
VDMKUDNKZWHZNN-SANMLTNENA-N
     RDKit          3D

 59 64  0  0  0  0  0  0  0  0999 V2000
  137.8470   81.7710  221.8140 O   0  0  0  0  0  0  0  0  0  0  0  0
  138.1880   81.1930  222.8820 C   0  0  0  0  0  0  0  0  0  0  0  0
  137.5810   81.6170  224.1560 C   0  0  0  0  0  0  0  0  0  0  0  0
  137.5470   80.8450  225.3150 C   0  0  0  0  0  0  0  0  0  0  0  0
  136.8670   81.6120  226.2340 C   0  0  0  0  0  0  0  0  0  0  0  0
  136.5310   81.3540  227.5620 C   0  0  0  0  0  0  0  0  0  0  0  0
  135.8130   82.3420  228.2620 C   0  0  0  0  0  0  0  0  0  0  0  0
  135.4670   82.1340  229.5560 F   0  0  0  0  0  0  0  0  0  0  0  0
  135.4470   83.5470  227.6210 C   0  0  0  0  0  0  0  0  0  0  0  0
  135.7980   83.7770  226.2780 C   0  0  0  0  0  0  0  0  0  0  0  0
  136.5150   82.7820  225.6130 C   0  0  0  0  0  0  0  0  0  0  0  0
  136.9410   82.7970  224.3400 N   0  0  0  0  0  0  0  0  0  0  0  0
  139.1380   80.1170  222.8380 N   0  0  0  0  0  0  0  0  0  0  0  0
  138.9130   78.8790  222.0880 C   0  0  0  0  0  0  0  0  0  0  0  0
  140.3150   78.1890  221.9460 C   0  0  2  0  0  0  0  0  0  0  0  0
  140.7030   77.9350  220.4890 C   0  0  0  0  0  0  0  0  0  0  0  0
  141.4770   76.6320  220.5110 C   0  0  0  0  0  0  0  0  0  0  0  0
  141.0280   75.8620  221.6810 N   0  0  0  0  0  0  0  0  0  0  0  0
  140.2030   74.6740  221.3260 C   0  0  0  0  0  0  0  0  0  0  0  0
  140.9810   73.3510  221.5880 C   0  0  0  0  0  0  0  0  0  0  0  0
  140.3230   72.4610  222.6530 C   0  0  0  0  0  0  0  0  0  0  0  0
  138.8550   72.1480  222.3160 C   0  0  0  0  0  0  0  0  0  0  0  0
  138.0820   73.3420  221.7170 C   0  0  0  0  0  0  0  0  0  0  0  0
  138.7830   74.6830  221.9600 C   0  0  0  0  0  0  0  0  0  0  0  0
  140.3990   76.8050  222.6260 C   0  0  0  0  0  0  0  0  0  0  0  0
  141.2380   79.1820  222.6040 C   0  0  0  0  0  0  0  0  0  0  0  0
  142.6250   79.1010  222.7830 C   0  0  0  0  0  0  0  0  0  0  0  0
  143.2800   80.1390  223.4630 C   0  0  0  0  0  0  0  0  0  0  0  0
  142.5480   81.2300  223.9630 C   0  0  0  0  0  0  0  0  0  0  0  0
  141.1580   81.2900  223.7830 C   0  0  0  0  0  0  0  0  0  0  0  0
  140.5280   80.2510  223.0880 C   0  0  0  0  0  0  0  0  0  0  0  0
  137.9712   79.8410  225.4636 H   0  0  0  0  0  0  0  0  0  0  0  0
  136.8175   80.4092  228.0471 H   0  0  0  0  0  0  0  0  0  0  0  0
  134.8833   84.3111  228.1763 H   0  0  0  0  0  0  0  0  0  0  0  0
  135.5163   84.7107  225.7691 H   0  0  0  0  0  0  0  0  0  0  0  0
  136.7730   83.5490  223.6350 H   0  0  0  0  0  0  0  0  0  0  0  0
  138.2194   78.2232  222.6347 H   0  0  0  0  0  0  0  0  0  0  0  0
  138.4665   79.0834  221.1037 H   0  0  0  0  0  0  0  0  0  0  0  0
  139.8051   77.8409  219.8605 H   0  0  0  0  0  0  0  0  0  0  0  0
  141.2959   78.7609  220.0691 H   0  0  0  0  0  0  0  0  0  0  0  0
  141.2789   76.0635  219.5904 H   0  0  0  0  0  0  0  0  0  0  0  0
  142.5577   76.8280  220.5717 H   0  0  0  0  0  0  0  0  0  0  0  0
  140.0162   74.7355  220.2437 H   0  0  0  0  0  0  0  0  0  0  0  0
  141.0361   72.7858  220.6459 H   0  0  0  0  0  0  0  0  0  0  0  0
  141.9771   73.6273  221.9639 H   0  0  0  0  0  0  0  0  0  0  0  0
  140.8813   71.5156  222.7200 H   0  0  0  0  0  0  0  0  0  0  0  0
  140.3436   73.0040  223.6094 H   0  0  0  0  0  0  0  0  0  0  0  0
  138.8350   71.3228  221.5889 H   0  0  0  0  0  0  0  0  0  0  0  0
  138.3585   71.8892  223.2628 H   0  0  0  0  0  0  0  0  0  0  0  0
  137.9828   73.1884  220.6323 H   0  0  0  0  0  0  0  0  0  0  0  0
  137.1013   73.3853  222.2134 H   0  0  0  0  0  0  0  0  0  0  0  0
  138.1887   75.4902  221.5070 H   0  0  0  0  0  0  0  0  0  0  0  0
  138.8767   74.8459  223.0438 H   0  0  0  0  0  0  0  0  0  0  0  0
  139.3884   76.4551  222.8834 H   0  0  0  0  0  0  0  0  0  0  0  0
  140.9948   76.8713  223.5483 H   0  0  0  0  0  0  0  0  0  0  0  0
  143.1902   78.2396  222.3976 H   0  0  0  0  0  0  0  0  0  0  0  0
  144.3700   80.0989  223.6053 H   0  0  0  0  0  0  0  0  0  0  0  0
  143.0669   82.0395  224.4973 H   0  0  0  0  0  0  0  0  0  0  0  0
  140.5759   82.1350  224.1794 H   0  0  0  0  0  0  0  0  0  0  0  0
  1  2  2  0
  2  3  1  0
  3  4  2  0
  4  5  1  0
  5  6  2  0
  6  7  1  0
  7  8  1  0
  7  9  2  0
  9 10  1  0
 10 11  2  0
 11 12  1  0
  2 13  1  0
 13 14  1  0
 15 14  1  6
 15 16  1  0
 16 17  1  0
 17 18  1  0
 18 19  1  0
 19 20  1  0
 20 21  1  0
 21 22  1  0
 22 23  1  0
 23 24  1  0
 18 25  1  0
 15 26  1  0
 26 27  2  0
 27 28  1  0
 28 29  2  0
 29 30  1  0
 30 31  2  0
 12  3  1  0
 31 13  1  0
 11  5  1  0
 25 15  1  0
 31 26  1  0
 24 19  1  0
  4 32  1  0
  6 33  1  0
  9 34  1  0
 10 35  1  0
 12 36  1  0
 14 37  1  0
 14 38  1  0
 16 39  1  0
 16 40  1  0
 17 41  1  0
 17 42  1  0
 19 43  1  0
 20 44  1  0
 20 45  1  0
 21 46  1  0
 21 47  1  0
 22 48  1  0
 22 49  1  0
 23 50  1  0
 23 51  1  0
 24 52  1  0
 24 53  1  0
 25 54  1  0
 25 55  1  0
 27 56  1  0
 28 57  1  0
 29 58  1  0
 30 59  1  0
M  END
>  <UniqueID>  (58) 
179

>  <SMILES>  (58) 
O=C(c1cc2cc(F)ccc2[nH]1)N1C[C@@]2(CCN(C3CCCCC3)C2)c2ccccc21

>  <Energy>  (58) 
130.96910791784092

>  <Genealogy>  (58) 
O=C(c1cc2cc(F)ccc2[nH]1)N1C[C@@]2(CCN(C3CCCCC3)C2)c2ccccc21 (3D coordinates assigned)
O=C(c1cc2cc(F)ccc2[nH]1)N1C[C@@]2(CCN(C3CCCCC3)C2)c2ccccc21 (nonaromatic ring conformer: 130.96910791784092 kcal/mol)

>  <smiles>  (58) 
O=C(c1cc2cc(F)ccc2[nH]1)N1C[C@@]2(CCN(C3CCCCC3)C2)c2ccccc21

>  <score_type>  (58) 
oracle

>  <origin>  (58) 
autodockgpu

>  <m_score__min__energy>  (58) 
-8.3499999999999996

>  <m_primary>  (58) 
energy

>  <meeko>  (58) 
{"free_energy": -8.14, "intermolecular_energy": -9.04, "internal_energy": -1.3, "cluster_size": 5, "cluster_id": 3, "rank_in_cluster": 1}

>  <energy>  (58) 
-8.14

>  <cluster_rmsd>  (58) 
0.05

>  <rmsd>  (58) 
273.66

>  <cluster>  (58) 
3

$$$$
VDMKUDNKZWHZNN-SANMLTNENA-N
     RDKit          3D

 59 64  0  0  0  0  0  0  0  0999 V2000
  142.1240   73.4960  220.3620 O   0  0  0  0  0  0  0  0  0  0  0  0
  141.1850   73.5340  221.2030 C   0  0  0  0  0  0  0  0  0  0  0  0
  140.6810   74.8400  221.6620 C   0  0  0  0  0  0  0  0  0  0  0  0
  139.3510   75.1110  221.9800 C   0  0  0  0  0  0  0  0  0  0  0  0
  139.3320   76.4430  222.3250 C   0  0  0  0  0  0  0  0  0  0  0  0
  138.2800   77.2610  222.7320 C   0  0  0  0  0  0  0  0  0  0  0  0
  138.5670   78.6100  223.0150 C   0  0  0  0  0  0  0  0  0  0  0  0
  137.5730   79.4410  223.4150 F   0  0  0  0  0  0  0  0  0  0  0  0
  139.8850   79.1030  222.8790 C   0  0  0  0  0  0  0  0  0  0  0  0
  140.9260   78.2520  222.4640 C   0  0  0  0  0  0  0  0  0  0  0  0
  140.6110   76.9200  222.1970 C   0  0  0  0  0  0  0  0  0  0  0  0
  141.4450   75.9510  221.7870 N   0  0  0  0  0  0  0  0  0  0  0  0
  140.6050   72.3100  221.6780 N   0  0  0  0  0  0  0  0  0  0  0  0
  140.2270   72.0910  223.0770 C   0  0  0  0  0  0  0  0  0  0  0  0
  139.2680   70.8500  223.0860 C   0  0  2  0  0  0  0  0  0  0  0  0
  137.9060   71.1610  223.7110 C   0  0  0  0  0  0  0  0  0  0  0  0
  137.5000   69.8840  224.4190 C   0  0  0  0  0  0  0  0  0  0  0  0
  138.7280   69.1490  224.7620 N   0  0  0  0  0  0  0  0  0  0  0  0
  139.0320   69.1550  226.2200 C   0  0  0  0  0  0  0  0  0  0  0  0
  139.5440   67.7630  226.6930 C   0  0  0  0  0  0  0  0  0  0  0  0
  140.9820   67.7960  227.2310 C   0  0  0  0  0  0  0  0  0  0  0  0
  141.1520   68.8270  228.3590 C   0  0  0  0  0  0  0  0  0  0  0  0
  140.3810   70.1430  228.1250 C   0  0  0  0  0  0  0  0  0  0  0  0
  139.9520   70.3280  226.6650 C   0  0  0  0  0  0  0  0  0  0  0  0
  139.8090   69.6500  223.8920 C   0  0  0  0  0  0  0  0  0  0  0  0
  139.1450   70.5180  221.6210 C   0  0  0  0  0  0  0  0  0  0  0  0
  138.4140   69.4900  221.0150 C   0  0  0  0  0  0  0  0  0  0  0  0
  138.4760   69.3470  219.6200 C   0  0  0  0  0  0  0  0  0  0  0  0
  139.2700   70.2180  218.8540 C   0  0  0  0  0  0  0  0  0  0  0  0
  140.0040   71.2370  219.4790 C   0  0  0  0  0  0  0  0  0  0  0  0
  139.9150   71.3700  220.8700 C   0  0  0  0  0  0  0  0  0  0  0  0
  138.5017   74.4122  221.9596 H   0  0  0  0  0  0  0  0  0  0  0  0
  137.2581   76.8655  222.8291 H   0  0  0  0  0  0  0  0  0  0  0  0
  140.0983   80.1594  223.0992 H   0  0  0  0  0  0  0  0  0  0  0  0
  141.9548   78.6253  222.3538 H   0  0  0  0  0  0  0  0  0  0  0  0
  142.4620   76.0540  221.5730 H   0  0  0  0  0  0  0  0  0  0  0  0
  141.1204   71.8861  223.6851 H   0  0  0  0  0  0  0  0  0  0  0  0
  139.7353   72.9787  223.5015 H   0  0  0  0  0  0  0  0  0  0  0  0
  137.9899   71.9910  224.4280 H   0  0  0  0  0  0  0  0  0  0  0  0
  137.1660   71.4697  222.9579 H   0  0  0  0  0  0  0  0  0  0  0  0
  136.9406   70.1257  225.3348 H   0  0  0  0  0  0  0  0  0  0  0  0
  136.8557   69.2732  223.7696 H   0  0  0  0  0  0  0  0  0  0  0  0
  138.0802   69.3467  226.7371 H   0  0  0  0  0  0  0  0  0  0  0  0
  138.8806   67.3998  227.4917 H   0  0  0  0  0  0  0  0  0  0  0  0
  139.5391   67.0987  225.8163 H   0  0  0  0  0  0  0  0  0  0  0  0
  141.2388   66.7994  227.6193 H   0  0  0  0  0  0  0  0  0  0  0  0
  141.6474   68.0847  226.4040 H   0  0  0  0  0  0  0  0  0  0  0  0
  140.7928   68.3772  229.2963 H   0  0  0  0  0  0  0  0  0  0  0  0
  142.2205   69.0855  228.3968 H   0  0  0  0  0  0  0  0  0  0  0  0
  139.4815   70.1408  228.7581 H   0  0  0  0  0  0  0  0  0  0  0  0
  141.0568   70.9728  228.3795 H   0  0  0  0  0  0  0  0  0  0  0  0
  139.4044   71.2767  226.5651 H   0  0  0  0  0  0  0  0  0  0  0  0
  140.8484   70.3415  226.0275 H   0  0  0  0  0  0  0  0  0  0  0  0
  140.6629   69.9701  224.5071 H   0  0  0  0  0  0  0  0  0  0  0  0
  140.1436   68.8555  223.2088 H   0  0  0  0  0  0  0  0  0  0  0  0
  137.8017   68.8061  221.6211 H   0  0  0  0  0  0  0  0  0  0  0  0
  137.9013   68.5506  219.1245 H   0  0  0  0  0  0  0  0  0  0  0  0
  139.3159   70.1002  217.7613 H   0  0  0  0  0  0  0  0  0  0  0  0
  140.6360   71.9170  218.8889 H   0  0  0  0  0  0  0  0  0  0  0  0
  1  2  2  0
  2  3  1  0
  3  4  2  0
  4  5  1  0
  5  6  2  0
  6  7  1  0
  7  8  1  0
  7  9  2  0
  9 10  1  0
 10 11  2  0
 11 12  1  0
  2 13  1  0
 13 14  1  0
 15 14  1  6
 15 16  1  0
 16 17  1  0
 17 18  1  0
 18 19  1  0
 19 20  1  0
 20 21  1  0
 21 22  1  0
 22 23  1  0
 23 24  1  0
 18 25  1  0
 15 26  1  0
 26 27  2  0
 27 28  1  0
 28 29  2  0
 29 30  1  0
 30 31  2  0
 12  3  1  0
 31 13  1  0
 11  5  1  0
 25 15  1  0
 31 26  1  0
 24 19  1  0
  4 32  1  0
  6 33  1  0
  9 34  1  0
 10 35  1  0
 12 36  1  0
 14 37  1  0
 14 38  1  0
 16 39  1  0
 16 40  1  0
 17 41  1  0
 17 42  1  0
 19 43  1  0
 20 44  1  0
 20 45  1  0
 21 46  1  0
 21 47  1  0
 22 48  1  0
 22 49  1  0
 23 50  1  0
 23 51  1  0
 24 52  1  0
 24 53  1  0
 25 54  1  0
 25 55  1  0
 27 56  1  0
 28 57  1  0
 29 58  1  0
 30 59  1  0
M  END
>  <UniqueID>  (59) 
179

>  <SMILES>  (59) 
O=C(c1cc2cc(F)ccc2[nH]1)N1C[C@@]2(CCN(C3CCCCC3)C2)c2ccccc21

>  <Energy>  (59) 
130.96910791784092

>  <Genealogy>  (59) 
O=C(c1cc2cc(F)ccc2[nH]1)N1C[C@@]2(CCN(C3CCCCC3)C2)c2ccccc21 (3D coordinates assigned)
O=C(c1cc2cc(F)ccc2[nH]1)N1C[C@@]2(CCN(C3CCCCC3)C2)c2ccccc21 (nonaromatic ring conformer: 130.96910791784092 kcal/mol)

>  <smiles>  (59) 
O=C(c1cc2cc(F)ccc2[nH]1)N1C[C@@]2(CCN(C3CCCCC3)C2)c2ccccc21

>  <score_type>  (59) 
oracle

>  <origin>  (59) 
autodockgpu

>  <m_score__min__energy>  (59) 
-8.3499999999999996

>  <m_primary>  (59) 
energy

>  <meeko>  (59) 
{"free_energy": -8.13, "intermolecular_energy": -9.02, "internal_energy": -1.34, "cluster_size": 1, "cluster_id": 4, "rank_in_cluster": 1}

>  <energy>  (59) 
-8.12

>  <cluster_rmsd>  (59) 
0.08

>  <rmsd>  (59) 
273.63

>  <cluster>  (59) 
3

$$$$
VDMKUDNKZWHZNN-SANMLTNENA-N
     RDKit          3D

 59 64  0  0  0  0  0  0  0  0999 V2000
  139.0310   75.7200  219.8290 O   0  0  0  0  0  0  0  0  0  0  0  0
  139.9010   75.6100  220.7360 C   0  0  0  0  0  0  0  0  0  0  0  0
  140.5160   76.8260  221.2950 C   0  0  0  0  0  0  0  0  0  0  0  0
  140.8120   77.0190  222.6430 C   0  0  0  0  0  0  0  0  0  0  0  0
  141.3400   78.2890  222.7130 C   0  0  0  0  0  0  0  0  0  0  0  0
  141.8120   79.0170  223.8030 C   0  0  0  0  0  0  0  0  0  0  0  0
  142.2940   80.3180  223.5650 C   0  0  0  0  0  0  0  0  0  0  0  0
  142.7640   81.0620  224.5970 F   0  0  0  0  0  0  0  0  0  0  0  0
  142.2860   80.8550  222.2570 C   0  0  0  0  0  0  0  0  0  0  0  0
  141.8000   80.0950  221.1770 C   0  0  0  0  0  0  0  0  0  0  0  0
  141.3350   78.8080  221.4440 C   0  0  0  0  0  0  0  0  0  0  0  0
  140.8290   77.9250  220.5670 N   0  0  0  0  0  0  0  0  0  0  0  0
  140.2560   74.3090  221.2290 N   0  0  0  0  0  0  0  0  0  0  0  0
  139.5640   73.6570  222.3440 C   0  0  0  0  0  0  0  0  0  0  0  0
  139.9530   72.1380  222.2760 C   0  0  2  0  0  0  0  0  0  0  0  0
  138.7330   71.2210  222.1660 C   0  0  0  0  0  0  0  0  0  0  0  0
  139.1080   69.9770  222.9480 C   0  0  0  0  0  0  0  0  0  0  0  0
  140.1100   70.3620  223.9540 N   0  0  0  0  0  0  0  0  0  0  0  0
  139.5840   70.3540  225.3460 C   0  0  0  0  0  0  0  0  0  0  0  0
  139.1430   68.9230  225.7720 C   0  0  0  0  0  0  0  0  0  0  0  0
  139.9510   68.3640  226.9510 C   0  0  0  0  0  0  0  0  0  0  0  0
  139.9220   69.3040  228.1680 C   0  0  0  0  0  0  0  0  0  0  0  0
  140.0140   70.8010  227.8040 C   0  0  0  0  0  0  0  0  0  0  0  0
  140.5270   71.0340  226.3790 C   0  0  0  0  0  0  0  0  0  0  0  0
  140.7180   71.6350  223.5180 C   0  0  0  0  0  0  0  0  0  0  0  0
  140.8100   72.0730  221.0380 C   0  0  0  0  0  0  0  0  0  0  0  0
  141.4520   70.9630  220.4750 C   0  0  0  0  0  0  0  0  0  0  0  0
  142.2370   71.1460  219.3270 C   0  0  0  0  0  0  0  0  0  0  0  0
  142.3820   72.4260  218.7650 C   0  0  0  0  0  0  0  0  0  0  0  0
  141.7400   73.5290  219.3480 C   0  0  0  0  0  0  0  0  0  0  0  0
  140.9500   73.3200  220.4840 C   0  0  0  0  0  0  0  0  0  0  0  0
  140.6576   76.3112  223.4708 H   0  0  0  0  0  0  0  0  0  0  0  0
  141.8082   78.5892  224.8164 H   0  0  0  0  0  0  0  0  0  0  0  0
  142.6622   81.8738  222.0825 H   0  0  0  0  0  0  0  0  0  0  0  0
  141.7874   80.5030  220.1555 H   0  0  0  0  0  0  0  0  0  0  0  0
  140.6750   78.0800  219.5460 H   0  0  0  0  0  0  0  0  0  0  0  0
  139.8899   74.0912  223.3007 H   0  0  0  0  0  0  0  0  0  0  0  0
  138.4749   73.7943  222.2738 H   0  0  0  0  0  0  0  0  0  0  0  0
  137.8466   71.7018  222.6055 H   0  0  0  0  0  0  0  0  0  0  0  0
  138.4800   70.9921  221.1202 H   0  0  0  0  0  0  0  0  0  0  0  0
  138.2175   69.5654  223.4456 H   0  0  0  0  0  0  0  0  0  0  0  0
  139.5158   69.2088  222.2746 H   0  0  0  0  0  0  0  0  0  0  0  0
  138.6847   70.9875  225.3428 H   0  0  0  0  0  0  0  0  0  0  0  0
  138.0820   68.9561  226.0605 H   0  0  0  0  0  0  0  0  0  0  0  0
  139.3187   68.2589  224.9129 H   0  0  0  0  0  0  0  0  0  0  0  0
  139.5266   67.3921  227.2430 H   0  0  0  0  0  0  0  0  0  0  0  0
  140.9971   68.2608  226.6268 H   0  0  0  0  0  0  0  0  0  0  0  0
  138.9808   69.1371  228.7122 H   0  0  0  0  0  0  0  0  0  0  0  0
  140.8084   69.0679  228.7751 H   0  0  0  0  0  0  0  0  0  0  0  0
  139.0126   71.2471  227.8946 H   0  0  0  0  0  0  0  0  0  0  0  0
  140.7317   71.2669  228.4952 H   0  0  0  0  0  0  0  0  0  0  0  0
  140.5641   72.1151  226.1793 H   0  0  0  0  0  0  0  0  0  0  0  0
  141.5325   70.5979  226.2857 H   0  0  0  0  0  0  0  0  0  0  0  0
  140.6447   72.3779  224.3259 H   0  0  0  0  0  0  0  0  0  0  0  0
  141.7796   71.4833  223.2730 H   0  0  0  0  0  0  0  0  0  0  0  0
  141.3426   69.9653  220.9251 H   0  0  0  0  0  0  0  0  0  0  0  0
  142.7410   70.2844  218.8648 H   0  0  0  0  0  0  0  0  0  0  0  0
  143.0004   72.5634  217.8657 H   0  0  0  0  0  0  0  0  0  0  0  0
  141.8552   74.5363  218.9213 H   0  0  0  0  0  0  0  0  0  0  0  0
  1  2  2  0
  2  3  1  0
  3  4  2  0
  4  5  1  0
  5  6  2  0
  6  7  1  0
  7  8  1  0
  7  9  2  0
  9 10  1  0
 10 11  2  0
 11 12  1  0
  2 13  1  0
 13 14  1  0
 15 14  1  1
 15 16  1  0
 16 17  1  0
 17 18  1  0
 18 19  1  0
 19 20  1  0
 20 21  1  0
 21 22  1  0
 22 23  1  0
 23 24  1  0
 18 25  1  0
 15 26  1  0
 26 27  2  0
 27 28  1  0
 28 29  2  0
 29 30  1  0
 30 31  2  0
 12  3  1  0
 31 13  1  0
 11  5  1  0
 25 15  1  0
 31 26  1  0
 24 19  1  0
  4 32  1  0
  6 33  1  0
  9 34  1  0
 10 35  1  0
 12 36  1  0
 14 37  1  0
 14 38  1  0
 16 39  1  0
 16 40  1  0
 17 41  1  0
 17 42  1  0
 19 43  1  0
 20 44  1  0
 20 45  1  0
 21 46  1  0
 21 47  1  0
 22 48  1  0
 22 49  1  0
 23 50  1  0
 23 51  1  0
 24 52  1  0
 24 53  1  0
 25 54  1  0
 25 55  1  0
 27 56  1  0
 28 57  1  0
 29 58  1  0
 30 59  1  0
M  END
>  <UniqueID>  (60) 
179

>  <SMILES>  (60) 
O=C(c1cc2cc(F)ccc2[nH]1)N1C[C@@]2(CCN(C3CCCCC3)C2)c2ccccc21

>  <Energy>  (60) 
130.96910791784092

>  <Genealogy>  (60) 
O=C(c1cc2cc(F)ccc2[nH]1)N1C[C@@]2(CCN(C3CCCCC3)C2)c2ccccc21 (3D coordinates assigned)
O=C(c1cc2cc(F)ccc2[nH]1)N1C[C@@]2(CCN(C3CCCCC3)C2)c2ccccc21 (nonaromatic ring conformer: 130.96910791784092 kcal/mol)

>  <smiles>  (60) 
O=C(c1cc2cc(F)ccc2[nH]1)N1C[C@@]2(CCN(C3CCCCC3)C2)c2ccccc21

>  <score_type>  (60) 
oracle

>  <origin>  (60) 
autodockgpu

>  <m_score__min__energy>  (60) 
-8.3499999999999996

>  <m_primary>  (60) 
energy

>  <meeko>  (60) 
{"free_energy": -8.35, "intermolecular_energy": -9.25, "internal_energy": -1.15, "cluster_size": 11, "cluster_id": 1, "rank_in_cluster": 1}

>  <energy>  (60) 
-8.13

>  <cluster_rmsd>  (60) 
0.0

>  <rmsd>  (60) 
271.66

>  <cluster>  (60) 
4

$$$$
VDMKUDNKZWHZNN-SANMLTNENA-N
     RDKit          3D

 59 64  0  0  0  0  0  0  0  0999 V2000
  139.0180   75.6930  219.8230 O   0  0  0  0  0  0  0  0  0  0  0  0
  139.8930   75.5870  220.7260 C   0  0  0  0  0  0  0  0  0  0  0  0
  140.5120   76.8040  221.2760 C   0  0  0  0  0  0  0  0  0  0  0  0
  140.8150   77.0030  222.6220 C   0  0  0  0  0  0  0  0  0  0  0  0
  141.3450   78.2720  222.6830 C   0  0  0  0  0  0  0  0  0  0  0  0
  141.8230   79.0050  223.7680 C   0  0  0  0  0  0  0  0  0  0  0  0
  142.3050   80.3050  223.5220 C   0  0  0  0  0  0  0  0  0  0  0  0
  142.7800   81.0530  224.5480 F   0  0  0  0  0  0  0  0  0  0  0  0
  142.2900   80.8360  222.2120 C   0  0  0  0  0  0  0  0  0  0  0  0
  141.7990   80.0710  221.1380 C   0  0  0  0  0  0  0  0  0  0  0  0
  141.3330   78.7860  221.4120 C   0  0  0  0  0  0  0  0  0  0  0  0
  140.8230   77.9000  220.5420 N   0  0  0  0  0  0  0  0  0  0  0  0
  140.2500   74.2870  221.2210 N   0  0  0  0  0  0  0  0  0  0  0  0
  139.5650   73.6400  222.3440 C   0  0  0  0  0  0  0  0  0  0  0  0
  139.9520   72.1210  222.2800 C   0  0  2  0  0  0  0  0  0  0  0  0
  138.7310   71.2040  222.1820 C   0  0  0  0  0  0  0  0  0  0  0  0
  139.1090   69.9630  222.9660 C   0  0  0  0  0  0  0  0  0  0  0  0
  140.1180   70.3520  223.9640 N   0  0  0  0  0  0  0  0  0  0  0  0
  139.6010   70.3500  225.3600 C   0  0  0  0  0  0  0  0  0  0  0  0
  139.1470   68.9240  225.7890 C   0  0  0  0  0  0  0  0  0  0  0  0
  139.9570   68.3560  226.9630 C   0  0  0  0  0  0  0  0  0  0  0  0
  139.9460   69.2970  228.1800 C   0  0  0  0  0  0  0  0  0  0  0  0
  140.0530   70.7930  227.8140 C   0  0  0  0  0  0  0  0  0  0  0  0
  140.5590   71.0200  226.3860 C   0  0  0  0  0  0  0  0  0  0  0  0
  140.7240   71.6220  223.5190 C   0  0  0  0  0  0  0  0  0  0  0  0
  140.8010   72.0500  221.0370 C   0  0  0  0  0  0  0  0  0  0  0  0
  141.4380   70.9370  220.4740 C   0  0  0  0  0  0  0  0  0  0  0  0
  142.2160   71.1140  219.3200 C   0  0  0  0  0  0  0  0  0  0  0  0
  142.3580   72.3920  218.7520 C   0  0  0  0  0  0  0  0  0  0  0  0
  141.7210   73.4980  219.3340 C   0  0  0  0  0  0  0  0  0  0  0  0
  140.9380   73.2940  220.4760 C   0  0  0  0  0  0  0  0  0  0  0  0
  140.6636   76.2995  223.4539 H   0  0  0  0  0  0  0  0  0  0  0  0
  141.8237   78.5817  224.7833 H   0  0  0  0  0  0  0  0  0  0  0  0
  142.6647   81.8542  222.0310 H   0  0  0  0  0  0  0  0  0  0  0  0
  141.7833   80.4741  220.1146 H   0  0  0  0  0  0  0  0  0  0  0  0
  140.6630   78.0510  219.5210 H   0  0  0  0  0  0  0  0  0  0  0  0
  139.8979   74.0780  223.2965 H   0  0  0  0  0  0  0  0  0  0  0  0
  138.4755   73.7779  222.2807 H   0  0  0  0  0  0  0  0  0  0  0  0
  137.8479   71.6873  222.6252 H   0  0  0  0  0  0  0  0  0  0  0  0
  138.4719   70.9708  221.1387 H   0  0  0  0  0  0  0  0  0  0  0  0
  138.2212   69.5544  223.4709 H   0  0  0  0  0  0  0  0  0  0  0  0
  139.5112   69.1910  222.2934 H   0  0  0  0  0  0  0  0  0  0  0  0
  138.7085   70.9930  225.3634 H   0  0  0  0  0  0  0  0  0  0  0  0
  138.0884   68.9689  226.0846 H   0  0  0  0  0  0  0  0  0  0  0  0
  139.3095   68.2580  224.9288 H   0  0  0  0  0  0  0  0  0  0  0  0
  139.5240   67.3888  227.2581 H   0  0  0  0  0  0  0  0  0  0  0  0
  140.9997   68.2410  226.6320 H   0  0  0  0  0  0  0  0  0  0  0  0
  139.0062   69.1412  228.7300 H   0  0  0  0  0  0  0  0  0  0  0  0
  140.8330   69.0510  228.7822 H   0  0  0  0  0  0  0  0  0  0  0  0
  139.0574   71.2506  227.9110 H   0  0  0  0  0  0  0  0  0  0  0  0
  140.7810   71.2506  228.5000 H   0  0  0  0  0  0  0  0  0  0  0  0
  140.6069   72.1005  226.1856 H   0  0  0  0  0  0  0  0  0  0  0  0
  141.5591   70.5731  226.2859 H   0  0  0  0  0  0  0  0  0  0  0  0
  140.6566   72.3683  224.3243 H   0  0  0  0  0  0  0  0  0  0  0  0
  141.7838   71.4679  223.2677 H   0  0  0  0  0  0  0  0  0  0  0  0
  141.3302   69.9412  220.9288 H   0  0  0  0  0  0  0  0  0  0  0  0
  142.7164   70.2501  218.8583 H   0  0  0  0  0  0  0  0  0  0  0  0
  142.9707   72.5252  217.8482 H   0  0  0  0  0  0  0  0  0  0  0  0
  141.8344   74.5034  218.9024 H   0  0  0  0  0  0  0  0  0  0  0  0
  1  2  2  0
  2  3  1  0
  3  4  2  0
  4  5  1  0
  5  6  2  0
  6  7  1  0
  7  8  1  0
  7  9  2  0
  9 10  1  0
 10 11  2  0
 11 12  1  0
  2 13  1  0
 13 14  1  0
 15 14  1  1
 15 16  1  0
 16 17  1  0
 17 18  1  0
 18 19  1  0
 19 20  1  0
 20 21  1  0
 21 22  1  0
 22 23  1  0
 23 24  1  0
 18 25  1  0
 15 26  1  0
 26 27  2  0
 27 28  1  0
 28 29  2  0
 29 30  1  0
 30 31  2  0
 12  3  1  0
 31 13  1  0
 11  5  1  0
 25 15  1  0
 31 26  1  0
 24 19  1  0
  4 32  1  0
  6 33  1  0
  9 34  1  0
 10 35  1  0
 12 36  1  0
 14 37  1  0
 14 38  1  0
 16 39  1  0
 16 40  1  0
 17 41  1  0
 17 42  1  0
 19 43  1  0
 20 44  1  0
 20 45  1  0
 21 46  1  0
 21 47  1  0
 22 48  1  0
 22 49  1  0
 23 50  1  0
 23 51  1  0
 24 52  1  0
 24 53  1  0
 25 54  1  0
 25 55  1  0
 27 56  1  0
 28 57  1  0
 29 58  1  0
 30 59  1  0
M  END
>  <UniqueID>  (61) 
180

>  <SMILES>  (61) 
O=C(c1cc2cc(F)ccc2[nH]1)N1C[C@@]2(CCN(C3CCCCC3)C2)c2ccccc21

>  <Energy>  (61) 
130.9889323576897

>  <Genealogy>  (61) 
O=C(c1cc2cc(F)ccc2[nH]1)N1C[C@@]2(CCN(C3CCCCC3)C2)c2ccccc21 (3D coordinates assigned)
O=C(c1cc2cc(F)ccc2[nH]1)N1C[C@@]2(CCN(C3CCCCC3)C2)c2ccccc21 (nonaromatic ring conformer: 130.9889323576897 kcal/mol)

>  <smiles>  (61) 
O=C(c1cc2cc(F)ccc2[nH]1)N1C[C@@]2(CCN(C3CCCCC3)C2)c2ccccc21

>  <score_type>  (61) 
oracle

>  <origin>  (61) 
autodockgpu

>  <m_score__min__energy>  (61) 
-8.3499999999999996

>  <m_primary>  (61) 
energy

>  <meeko>  (61) 
{"free_energy": -8.35, "intermolecular_energy": -9.24, "internal_energy": -1.15, "cluster_size": 11, "cluster_id": 1, "rank_in_cluster": 5}

>  <energy>  (61) 
-8.35

>  <cluster_rmsd>  (61) 
0.0

>  <rmsd>  (61) 
272.17

>  <cluster>  (61) 
1

$$$$
VDMKUDNKZWHZNN-SANMLTNENA-N
     RDKit          3D

 59 64  0  0  0  0  0  0  0  0999 V2000
  139.9670   74.2480  222.0080 O   0  0  0  0  0  0  0  0  0  0  0  0
  140.9060   74.8250  221.3960 C   0  0  0  0  0  0  0  0  0  0  0  0
  142.0590   74.0330  220.9320 C   0  0  0  0  0  0  0  0  0  0  0  0
  142.0040   72.6890  220.5680 C   0  0  0  0  0  0  0  0  0  0  0  0
  143.2990   72.3580  220.2360 C   0  0  0  0  0  0  0  0  0  0  0  0
  143.8440   71.1520  219.8000 C   0  0  0  0  0  0  0  0  0  0  0  0
  145.2270   71.1110  219.5420 C   0  0  0  0  0  0  0  0  0  0  0  0
  145.7990   69.9580  219.1140 F   0  0  0  0  0  0  0  0  0  0  0  0
  146.0230   72.2640  219.7310 C   0  0  0  0  0  0  0  0  0  0  0  0
  145.4430   73.4660  220.1750 C   0  0  0  0  0  0  0  0  0  0  0  0
  144.0690   73.4760  220.4170 C   0  0  0  0  0  0  0  0  0  0  0  0
  143.3240   74.5080  220.8460 N   0  0  0  0  0  0  0  0  0  0  0  0
  140.8270   76.2350  221.1370 N   0  0  0  0  0  0  0  0  0  0  0  0
  140.4690   77.2200  222.1610 C   0  0  0  0  0  0  0  0  0  0  0  0
  140.9110   78.6180  221.6030 C   0  0  2  0  0  0  0  0  0  0  0  0
  141.8840   79.3440  222.5330 C   0  0  0  0  0  0  0  0  0  0  0  0
  141.5400   80.8130  222.3900 C   0  0  0  0  0  0  0  0  0  0  0  0
  140.1300   80.9070  221.9800 N   0  0  0  0  0  0  0  0  0  0  0  0
  139.2340   81.4150  223.0550 C   0  0  0  0  0  0  0  0  0  0  0  0
  138.0430   82.2210  222.4600 C   0  0  0  0  0  0  0  0  0  0  0  0
  136.6750   81.5900  222.7550 C   0  0  0  0  0  0  0  0  0  0  0  0
  136.4550   81.3670  224.2610 C   0  0  0  0  0  0  0  0  0  0  0  0
  137.7130   80.8790  225.0100 C   0  0  0  0  0  0  0  0  0  0  0  0
  138.7870   80.3240  224.0690 C   0  0  0  0  0  0  0  0  0  0  0  0
  139.7430   79.6060  221.4010 C   0  0  0  0  0  0  0  0  0  0  0  0
  141.5600   78.2570  220.2910 C   0  0  0  0  0  0  0  0  0  0  0  0
  142.1410   79.1050  219.3400 C   0  0  0  0  0  0  0  0  0  0  0  0
  142.6580   78.5470  218.1610 C   0  0  0  0  0  0  0  0  0  0  0  0
  142.5780   77.1600  217.9410 C   0  0  0  0  0  0  0  0  0  0  0  0
  141.9830   76.3260  218.9000 C   0  0  0  0  0  0  0  0  0  0  0  0
  141.4890   76.9050  220.0750 C   0  0  0  0  0  0  0  0  0  0  0  0
  141.1195   72.0353  220.5498 H   0  0  0  0  0  0  0  0  0  0  0  0
  143.2139   70.2610  219.6619 H   0  0  0  0  0  0  0  0  0  0  0  0
  147.1035   72.2208  219.5294 H   0  0  0  0  0  0  0  0  0  0  0  0
  146.0529   74.3688  220.3265 H   0  0  0  0  0  0  0  0  0  0  0  0
  143.6680   75.4610  221.0990 H   0  0  0  0  0  0  0  0  0  0  0  0
  139.3835   77.2070  222.3387 H   0  0  0  0  0  0  0  0  0  0  0  0
  140.9630   76.9980  223.1185 H   0  0  0  0  0  0  0  0  0  0  0  0
  141.7445   79.0136  223.5729 H   0  0  0  0  0  0  0  0  0  0  0  0
  142.9335   79.1382  222.2756 H   0  0  0  0  0  0  0  0  0  0  0  0
  141.6850   81.3266  223.3519 H   0  0  0  0  0  0  0  0  0  0  0  0
  142.1904   81.2888  221.6412 H   0  0  0  0  0  0  0  0  0  0  0  0
  139.8339   82.1135  223.6568 H   0  0  0  0  0  0  0  0  0  0  0  0
  138.0594   83.2346  222.8871 H   0  0  0  0  0  0  0  0  0  0  0  0
  138.1690   82.2295  221.3673 H   0  0  0  0  0  0  0  0  0  0  0  0
  135.8871   82.2575  222.3762 H   0  0  0  0  0  0  0  0  0  0  0  0
  136.6393   80.6094  222.2579 H   0  0  0  0  0  0  0  0  0  0  0  0
  136.1324   82.3185  224.7088 H   0  0  0  0  0  0  0  0  0  0  0  0
  135.6970   80.5760  224.3598 H   0  0  0  0  0  0  0  0  0  0  0  0
  138.1391   81.7249  225.5694 H   0  0  0  0  0  0  0  0  0  0  0  0
  137.4041   80.0617  225.6782 H   0  0  0  0  0  0  0  0  0  0  0  0
  139.6561   80.0012  224.6610 H   0  0  0  0  0  0  0  0  0  0  0  0
  138.3698   79.4704  223.5146 H   0  0  0  0  0  0  0  0  0  0  0  0
  138.8433   79.2266  221.9075 H   0  0  0  0  0  0  0  0  0  0  0  0
  139.5237   79.7189  220.3290 H   0  0  0  0  0  0  0  0  0  0  0  0
  142.1912   80.1899  219.5143 H   0  0  0  0  0  0  0  0  0  0  0  0
  143.1271   79.1959  217.4068 H   0  0  0  0  0  0  0  0  0  0  0  0
  142.9832   76.7277  217.0142 H   0  0  0  0  0  0  0  0  0  0  0  0
  141.9065   75.2416  218.7322 H   0  0  0  0  0  0  0  0  0  0  0  0
  1  2  2  0
  2  3  1  0
  3  4  2  0
  4  5  1  0
  5  6  2  0
  6  7  1  0
  7  8  1  0
  7  9  2  0
  9 10  1  0
 10 11  2  0
 11 12  1  0
  2 13  1  0
 13 14  1  0
 15 14  1  1
 15 16  1  0
 16 17  1  0
 17 18  1  0
 18 19  1  0
 19 20  1  0
 20 21  1  0
 21 22  1  0
 22 23  1  0
 23 24  1  0
 18 25  1  0
 15 26  1  0
 26 27  2  0
 27 28  1  0
 28 29  2  0
 29 30  1  0
 30 31  2  0
 12  3  1  0
 31 13  1  0
 11  5  1  0
 25 15  1  0
 31 26  1  0
 24 19  1  0
  4 32  1  0
  6 33  1  0
  9 34  1  0
 10 35  1  0
 12 36  1  0
 14 37  1  0
 14 38  1  0
 16 39  1  0
 16 40  1  0
 17 41  1  0
 17 42  1  0
 19 43  1  0
 20 44  1  0
 20 45  1  0
 21 46  1  0
 21 47  1  0
 22 48  1  0
 22 49  1  0
 23 50  1  0
 23 51  1  0
 24 52  1  0
 24 53  1  0
 25 54  1  0
 25 55  1  0
 27 56  1  0
 28 57  1  0
 29 58  1  0
 30 59  1  0
M  END
>  <UniqueID>  (62) 
180

>  <SMILES>  (62) 
O=C(c1cc2cc(F)ccc2[nH]1)N1C[C@@]2(CCN(C3CCCCC3)C2)c2ccccc21

>  <Energy>  (62) 
130.9889323576897

>  <Genealogy>  (62) 
O=C(c1cc2cc(F)ccc2[nH]1)N1C[C@@]2(CCN(C3CCCCC3)C2)c2ccccc21 (3D coordinates assigned)
O=C(c1cc2cc(F)ccc2[nH]1)N1C[C@@]2(CCN(C3CCCCC3)C2)c2ccccc21 (nonaromatic ring conformer: 130.9889323576897 kcal/mol)

>  <smiles>  (62) 
O=C(c1cc2cc(F)ccc2[nH]1)N1C[C@@]2(CCN(C3CCCCC3)C2)c2ccccc21

>  <score_type>  (62) 
oracle

>  <origin>  (62) 
autodockgpu

>  <m_score__min__energy>  (62) 
-8.3499999999999996

>  <m_primary>  (62) 
energy

>  <meeko>  (62) 
{"free_energy": -8.19, "intermolecular_energy": -9.09, "internal_energy": -1.27, "cluster_size": 3, "cluster_id": 2, "rank_in_cluster": 1}

>  <energy>  (62) 
-8.35

>  <cluster_rmsd>  (62) 
0.02

>  <rmsd>  (62) 
272.17

>  <cluster>  (62) 
1

$$$$
VDMKUDNKZWHZNN-SANMLTNENA-N
     RDKit          3D

 59 64  0  0  0  0  0  0  0  0999 V2000
  137.8810   81.8420  221.8430 O   0  0  0  0  0  0  0  0  0  0  0  0
  138.1980   81.2330  222.9010 C   0  0  0  0  0  0  0  0  0  0  0  0
  137.5690   81.6240  224.1740 C   0  0  0  0  0  0  0  0  0  0  0  0
  137.6090   80.8690  225.3440 C   0  0  0  0  0  0  0  0  0  0  0  0
  136.8750   81.5910  226.2580 C   0  0  0  0  0  0  0  0  0  0  0  0
  136.5730   81.3270  227.5930 C   0  0  0  0  0  0  0  0  0  0  0  0
  135.7800   82.2610  228.2850 C   0  0  0  0  0  0  0  0  0  0  0  0
  135.4640   82.0440  229.5860 F   0  0  0  0  0  0  0  0  0  0  0  0
  135.3090   83.4220  227.6300 C   0  0  0  0  0  0  0  0  0  0  0  0
  135.6290   83.6590  226.2810 C   0  0  0  0  0  0  0  0  0  0  0  0
  136.4210   82.7180  225.6240 C   0  0  0  0  0  0  0  0  0  0  0  0
  136.8340   82.7480  224.3470 N   0  0  0  0  0  0  0  0  0  0  0  0
  139.1440   80.1530  222.8450 N   0  0  0  0  0  0  0  0  0  0  0  0
  138.9080   78.9180  222.0930 C   0  0  0  0  0  0  0  0  0  0  0  0
  140.3060   78.2230  221.9360 C   0  0  2  0  0  0  0  0  0  0  0  0
  140.6800   77.9730  220.4740 C   0  0  0  0  0  0  0  0  0  0  0  0
  141.4500   76.6670  220.4850 C   0  0  0  0  0  0  0  0  0  0  0  0
  141.0080   75.8950  221.6570 N   0  0  0  0  0  0  0  0  0  0  0  0
  140.1760   74.7110  221.3060 C   0  0  0  0  0  0  0  0  0  0  0  0
  140.9510   73.3840  221.5550 C   0  0  0  0  0  0  0  0  0  0  0  0
  140.3010   72.4930  222.6220 C   0  0  0  0  0  0  0  0  0  0  0  0
  138.8290   72.1850  222.2990 C   0  0  0  0  0  0  0  0  0  0  0  0
  138.0550   73.3850  221.7130 C   0  0  0  0  0  0  0  0  0  0  0  0
  138.7620   74.7220  221.9540 C   0  0  0  0  0  0  0  0  0  0  0  0
  140.3910   76.8370  222.6100 C   0  0  0  0  0  0  0  0  0  0  0  0
  141.2390   79.2110  222.5890 C   0  0  0  0  0  0  0  0  0  0  0  0
  142.6260   79.1250  222.7560 C   0  0  0  0  0  0  0  0  0  0  0  0
  143.2910   80.1580  223.4330 C   0  0  0  0  0  0  0  0  0  0  0  0
  142.5670   81.2500  223.9430 C   0  0  0  0  0  0  0  0  0  0  0  0
  141.1760   81.3160  223.7750 C   0  0  0  0  0  0  0  0  0  0  0  0
  140.5370   80.2810  223.0830 C   0  0  0  0  0  0  0  0  0  0  0  0
  138.1163   79.9060  225.5029 H   0  0  0  0  0  0  0  0  0  0  0  0
  136.9427   80.4178  228.0896 H   0  0  0  0  0  0  0  0  0  0  0  0
  134.6880   84.1450  228.1792 H   0  0  0  0  0  0  0  0  0  0  0  0
  135.2661   84.5578  225.7610 H   0  0  0  0  0  0  0  0  0  0  0  0
  136.5960   83.4730  223.6320 H   0  0  0  0  0  0  0  0  0  0  0  0
  138.2169   78.2630  222.6438 H   0  0  0  0  0  0  0  0  0  0  0  0
  138.4538   79.1275  221.1133 H   0  0  0  0  0  0  0  0  0  0  0  0
  139.7762   77.8840  219.8533 H   0  0  0  0  0  0  0  0  0  0  0  0
  141.2716   78.7985  220.0514 H   0  0  0  0  0  0  0  0  0  0  0  0
  141.2419   76.1020  219.5644 H   0  0  0  0  0  0  0  0  0  0  0  0
  142.5319   76.8589  220.5367 H   0  0  0  0  0  0  0  0  0  0  0  0
  139.9798   74.7778  220.2257 H   0  0  0  0  0  0  0  0  0  0  0  0
  140.9944   72.8224  220.6102 H   0  0  0  0  0  0  0  0  0  0  0  0
  141.9519   73.6550  221.9222 H   0  0  0  0  0  0  0  0  0  0  0  0
  140.8572   71.5458  222.6802 H   0  0  0  0  0  0  0  0  0  0  0  0
  140.3322   73.0331  223.5797 H   0  0  0  0  0  0  0  0  0  0  0  0
  138.7990   71.3630  221.5686 H   0  0  0  0  0  0  0  0  0  0  0  0
  138.3409   71.9224  223.2492 H   0  0  0  0  0  0  0  0  0  0  0  0
  137.9445   73.2363  220.6287 H   0  0  0  0  0  0  0  0  0  0  0  0
  137.0799   73.4298  222.2202 H   0  0  0  0  0  0  0  0  0  0  0  0
  138.1658   75.5327  221.5098 H   0  0  0  0  0  0  0  0  0  0  0  0
  138.8668   74.8805  223.0375 H   0  0  0  0  0  0  0  0  0  0  0  0
  139.3814   76.4899  222.8751 H   0  0  0  0  0  0  0  0  0  0  0  0
  140.9953   76.8982  223.5271 H   0  0  0  0  0  0  0  0  0  0  0  0
  143.1847   78.2626  222.3633 H   0  0  0  0  0  0  0  0  0  0  0  0
  144.3821   80.1136  223.5653 H   0  0  0  0  0  0  0  0  0  0  0  0
  143.0934   82.0556  224.4758 H   0  0  0  0  0  0  0  0  0  0  0  0
  140.6004   82.1623  224.1781 H   0  0  0  0  0  0  0  0  0  0  0  0
  1  2  2  0
  2  3  1  0
  3  4  2  0
  4  5  1  0
  5  6  2  0
  6  7  1  0
  7  8  1  0
  7  9  2  0
  9 10  1  0
 10 11  2  0
 11 12  1  0
  2 13  1  0
 13 14  1  0
 15 14  1  6
 15 16  1  0
 16 17  1  0
 17 18  1  0
 18 19  1  0
 19 20  1  0
 20 21  1  0
 21 22  1  0
 22 23  1  0
 23 24  1  0
 18 25  1  0
 15 26  1  0
 26 27  2  0
 27 28  1  0
 28 29  2  0
 29 30  1  0
 30 31  2  0
 12  3  1  0
 31 13  1  0
 11  5  1  0
 25 15  1  0
 31 26  1  0
 24 19  1  0
  4 32  1  0
  6 33  1  0
  9 34  1  0
 10 35  1  0
 12 36  1  0
 14 37  1  0
 14 38  1  0
 16 39  1  0
 16 40  1  0
 17 41  1  0
 17 42  1  0
 19 43  1  0
 20 44  1  0
 20 45  1  0
 21 46  1  0
 21 47  1  0
 22 48  1  0
 22 49  1  0
 23 50  1  0
 23 51  1  0
 24 52  1  0
 24 53  1  0
 25 54  1  0
 25 55  1  0
 27 56  1  0
 28 57  1  0
 29 58  1  0
 30 59  1  0
M  END
>  <UniqueID>  (63) 
180

>  <SMILES>  (63) 
O=C(c1cc2cc(F)ccc2[nH]1)N1C[C@@]2(CCN(C3CCCCC3)C2)c2ccccc21

>  <Energy>  (63) 
130.9889323576897

>  <Genealogy>  (63) 
O=C(c1cc2cc(F)ccc2[nH]1)N1C[C@@]2(CCN(C3CCCCC3)C2)c2ccccc21 (3D coordinates assigned)
O=C(c1cc2cc(F)ccc2[nH]1)N1C[C@@]2(CCN(C3CCCCC3)C2)c2ccccc21 (nonaromatic ring conformer: 130.9889323576897 kcal/mol)

>  <smiles>  (63) 
O=C(c1cc2cc(F)ccc2[nH]1)N1C[C@@]2(CCN(C3CCCCC3)C2)c2ccccc21

>  <score_type>  (63) 
oracle

>  <origin>  (63) 
autodockgpu

>  <m_score__min__energy>  (63) 
-8.3499999999999996

>  <m_primary>  (63) 
energy

>  <meeko>  (63) 
{"free_energy": -8.12, "intermolecular_energy": -9.01, "internal_energy": -1.31, "cluster_size": 5, "cluster_id": 3, "rank_in_cluster": 5}

>  <energy>  (63) 
-8.35

>  <cluster_rmsd>  (63) 
0.03

>  <rmsd>  (63) 
272.17

>  <cluster>  (63) 
1

$$$$
VDMKUDNKZWHZNN-SANMLTNENA-N
     RDKit          3D

 59 64  0  0  0  0  0  0  0  0999 V2000
  139.0020   75.7530  219.8890 O   0  0  0  0  0  0  0  0  0  0  0  0
  139.8920   75.6450  220.7760 C   0  0  0  0  0  0  0  0  0  0  0  0
  140.5140   76.8610  221.3250 C   0  0  0  0  0  0  0  0  0  0  0  0
  140.8250   77.0570  222.6690 C   0  0  0  0  0  0  0  0  0  0  0  0
  141.3540   78.3270  222.7310 C   0  0  0  0  0  0  0  0  0  0  0  0
  141.8380   79.0570  223.8150 C   0  0  0  0  0  0  0  0  0  0  0  0
  142.3170   80.3580  223.5700 C   0  0  0  0  0  0  0  0  0  0  0  0
  142.7980   81.1040  224.5940 F   0  0  0  0  0  0  0  0  0  0  0  0
  142.2930   80.8920  222.2610 C   0  0  0  0  0  0  0  0  0  0  0  0
  141.7960   80.1310  221.1880 C   0  0  0  0  0  0  0  0  0  0  0  0
  141.3340   78.8430  221.4620 C   0  0  0  0  0  0  0  0  0  0  0  0
  140.8180   77.9590  220.5930 N   0  0  0  0  0  0  0  0  0  0  0  0
  140.2660   74.3430  221.2540 N   0  0  0  0  0  0  0  0  0  0  0  0
  139.5710   73.6610  222.3480 C   0  0  0  0  0  0  0  0  0  0  0  0
  139.9910   72.1510  222.2640 C   0  0  2  0  0  0  0  0  0  0  0  0
  138.7910   71.2120  222.1220 C   0  0  0  0  0  0  0  0  0  0  0  0
  139.1790   69.9640  222.8900 C   0  0  0  0  0  0  0  0  0  0  0  0
  140.1580   70.3530  223.9170 N   0  0  0  0  0  0  0  0  0  0  0  0
  139.6100   70.3130  225.3010 C   0  0  0  0  0  0  0  0  0  0  0  0
  139.1810   68.8690  225.6940 C   0  0  0  0  0  0  0  0  0  0  0  0
  139.9790   68.2990  226.8750 C   0  0  0  0  0  0  0  0  0  0  0  0
  139.9180   69.2170  228.1080 C   0  0  0  0  0  0  0  0  0  0  0  0
  139.9980   70.7210  227.7720 C   0  0  0  0  0  0  0  0  0  0  0  0
  140.5290   70.9860  226.3600 C   0  0  0  0  0  0  0  0  0  0  0  0
  140.7460   71.6440  223.5100 C   0  0  0  0  0  0  0  0  0  0  0  0
  140.8680   72.1220  221.0390 C   0  0  0  0  0  0  0  0  0  0  0  0
  141.5400   71.0330  220.4690 C   0  0  0  0  0  0  0  0  0  0  0  0
  142.3390   71.2490  219.3360 C   0  0  0  0  0  0  0  0  0  0  0  0
  142.4670   72.5410  218.7960 C   0  0  0  0  0  0  0  0  0  0  0  0
  141.7940   73.6220  219.3850 C   0  0  0  0  0  0  0  0  0  0  0  0
  140.9910   73.3800  220.5050 C   0  0  0  0  0  0  0  0  0  0  0  0
  140.6796   76.3509  223.4998 H   0  0  0  0  0  0  0  0  0  0  0  0
  141.8455   78.6306  224.8290 H   0  0  0  0  0  0  0  0  0  0  0  0
  142.6661   81.9109  222.0805 H   0  0  0  0  0  0  0  0  0  0  0  0
  141.7722   80.5376  220.1662 H   0  0  0  0  0  0  0  0  0  0  0  0
  140.6530   78.1130  219.5730 H   0  0  0  0  0  0  0  0  0  0  0  0
  139.8738   74.0872  223.3158 H   0  0  0  0  0  0  0  0  0  0  0  0
  138.4805   73.7778  222.2630 H   0  0  0  0  0  0  0  0  0  0  0  0
  137.8890   71.6685  222.5556 H   0  0  0  0  0  0  0  0  0  0  0  0
  138.5578   70.9945  221.0692 H   0  0  0  0  0  0  0  0  0  0  0  0
  138.2896   69.5270  223.3675 H   0  0  0  0  0  0  0  0  0  0  0  0
  139.6121   69.2146  222.2111 H   0  0  0  0  0  0  0  0  0  0  0  0
  138.7024   70.9345  225.2958 H   0  0  0  0  0  0  0  0  0  0  0  0
  138.1155   68.8834  225.9670 H   0  0  0  0  0  0  0  0  0  0  0  0
  139.3776   68.2229  224.8257 H   0  0  0  0  0  0  0  0  0  0  0  0
  139.5638   67.3163  227.1430 H   0  0  0  0  0  0  0  0  0  0  0  0
  141.0312   68.2152  226.5654 H   0  0  0  0  0  0  0  0  0  0  0  0
  138.9698   69.0293  228.6330 H   0  0  0  0  0  0  0  0  0  0  0  0
  140.7967   68.9806  228.7260 H   0  0  0  0  0  0  0  0  0  0  0  0
  138.9902   71.1539  227.8556 H   0  0  0  0  0  0  0  0  0  0  0  0
  140.7002   71.1822  228.4820 H   0  0  0  0  0  0  0  0  0  0  0  0
  140.5554   72.0709  226.1802 H   0  0  0  0  0  0  0  0  0  0  0  0
  141.5413   70.5643  226.2741 H   0  0  0  0  0  0  0  0  0  0  0  0
  140.6449   72.3727  224.3278 H   0  0  0  0  0  0  0  0  0  0  0  0
  141.8141   71.5172  223.2794 H   0  0  0  0  0  0  0  0  0  0  0  0
  141.4430   70.0264  220.9019 H   0  0  0  0  0  0  0  0  0  0  0  0
  142.8671   70.4048  218.8686 H   0  0  0  0  0  0  0  0  0  0  0  0
  143.0967   72.7047  217.9091 H   0  0  0  0  0  0  0  0  0  0  0  0
  141.8954   74.6378  218.9752 H   0  0  0  0  0  0  0  0  0  0  0  0
  1  2  2  0
  2  3  1  0
  3  4  2  0
  4  5  1  0
  5  6  2  0
  6  7  1  0
  7  8  1  0
  7  9  2  0
  9 10  1  0
 10 11  2  0
 11 12  1  0
  2 13  1  0
 13 14  1  0
 15 14  1  1
 15 16  1  0
 16 17  1  0
 17 18  1  0
 18 19  1  0
 19 20  1  0
 20 21  1  0
 21 22  1  0
 22 23  1  0
 23 24  1  0
 18 25  1  0
 15 26  1  0
 26 27  2  0
 27 28  1  0
 28 29  2  0
 29 30  1  0
 30 31  2  0
 12  3  1  0
 31 13  1  0
 11  5  1  0
 25 15  1  0
 31 26  1  0
 24 19  1  0
  4 32  1  0
  6 33  1  0
  9 34  1  0
 10 35  1  0
 12 36  1  0
 14 37  1  0
 14 38  1  0
 16 39  1  0
 16 40  1  0
 17 41  1  0
 17 42  1  0
 19 43  1  0
 20 44  1  0
 20 45  1  0
 21 46  1  0
 21 47  1  0
 22 48  1  0
 22 49  1  0
 23 50  1  0
 23 51  1  0
 24 52  1  0
 24 53  1  0
 25 54  1  0
 25 55  1  0
 27 56  1  0
 28 57  1  0
 29 58  1  0
 30 59  1  0
M  END
>  <UniqueID>  (64) 
180

>  <SMILES>  (64) 
O=C(c1cc2cc(F)ccc2[nH]1)N1C[C@@]2(CCN(C3CCCCC3)C2)c2ccccc21

>  <Energy>  (64) 
130.9889323576897

>  <Genealogy>  (64) 
O=C(c1cc2cc(F)ccc2[nH]1)N1C[C@@]2(CCN(C3CCCCC3)C2)c2ccccc21 (3D coordinates assigned)
O=C(c1cc2cc(F)ccc2[nH]1)N1C[C@@]2(CCN(C3CCCCC3)C2)c2ccccc21 (nonaromatic ring conformer: 130.9889323576897 kcal/mol)

>  <smiles>  (64) 
O=C(c1cc2cc(F)ccc2[nH]1)N1C[C@@]2(CCN(C3CCCCC3)C2)c2ccccc21

>  <score_type>  (64) 
oracle

>  <origin>  (64) 
autodockgpu

>  <m_score__min__energy>  (64) 
-8.3499999999999996

>  <m_primary>  (64) 
energy

>  <meeko>  (64) 
{"free_energy": -8.34, "intermolecular_energy": -9.24, "internal_energy": -1.15, "cluster_size": 11, "cluster_id": 1, "rank_in_cluster": 8}

>  <energy>  (64) 
-8.35

>  <cluster_rmsd>  (64) 
0.03

>  <rmsd>  (64) 
272.18

>  <cluster>  (64) 
1

$$$$
VDMKUDNKZWHZNN-SANMLTNENA-N
     RDKit          3D

 59 64  0  0  0  0  0  0  0  0999 V2000
  139.0620   75.7060  219.7970 O   0  0  0  0  0  0  0  0  0  0  0  0
  139.9230   75.5960  220.7120 C   0  0  0  0  0  0  0  0  0  0  0  0
  140.5390   76.8110  221.2720 C   0  0  0  0  0  0  0  0  0  0  0  0
  140.8380   77.0020  222.6190 C   0  0  0  0  0  0  0  0  0  0  0  0
  141.3640   78.2720  222.6910 C   0  0  0  0  0  0  0  0  0  0  0  0
  141.8380   78.9990  223.7820 C   0  0  0  0  0  0  0  0  0  0  0  0
  142.3170   80.3010  223.5460 C   0  0  0  0  0  0  0  0  0  0  0  0
  142.7890   81.0430  224.5780 F   0  0  0  0  0  0  0  0  0  0  0  0
  142.3050   80.8410  222.2390 C   0  0  0  0  0  0  0  0  0  0  0  0
  141.8190   80.0820  221.1590 C   0  0  0  0  0  0  0  0  0  0  0  0
  141.3550   78.7940  221.4240 C   0  0  0  0  0  0  0  0  0  0  0  0
  140.8490   77.9120  220.5460 N   0  0  0  0  0  0  0  0  0  0  0  0
  140.2710   74.2950  221.2110 N   0  0  0  0  0  0  0  0  0  0  0  0
  139.5840   73.6590  222.3380 C   0  0  0  0  0  0  0  0  0  0  0  0
  139.9560   72.1360  222.2780 C   0  0  2  0  0  0  0  0  0  0  0  0
  138.7260   71.2300  222.1890 C   0  0  0  0  0  0  0  0  0  0  0  0
  139.0960   69.9890  222.9760 C   0  0  0  0  0  0  0  0  0  0  0  0
  140.1130   70.3710  223.9680 N   0  0  0  0  0  0  0  0  0  0  0  0
  139.6010   70.3790  225.3660 C   0  0  0  0  0  0  0  0  0  0  0  0
  139.1380   68.9580  225.8030 C   0  0  0  0  0  0  0  0  0  0  0  0
  139.9480   68.3900  226.9770 C   0  0  0  0  0  0  0  0  0  0  0  0
  139.9490   69.3360  228.1890 C   0  0  0  0  0  0  0  0  0  0  0  0
  140.0650   70.8300  227.8170 C   0  0  0  0  0  0  0  0  0  0  0  0
  140.5670   71.0460  226.3860 C   0  0  0  0  0  0  0  0  0  0  0  0
  140.7290   71.6340  223.5160 C   0  0  0  0  0  0  0  0  0  0  0  0
  140.8000   72.0520  221.0320 C   0  0  0  0  0  0  0  0  0  0  0  0
  141.4240   70.9310  220.4710 C   0  0  0  0  0  0  0  0  0  0  0  0
  142.1990   71.0970  219.3130 C   0  0  0  0  0  0  0  0  0  0  0  0
  142.3510   72.3720  218.7400 C   0  0  0  0  0  0  0  0  0  0  0  0
  141.7270   73.4860  219.3210 C   0  0  0  0  0  0  0  0  0  0  0  0
  140.9460   73.2930  220.4660 C   0  0  0  0  0  0  0  0  0  0  0  0
  140.6867   76.2922  223.4456 H   0  0  0  0  0  0  0  0  0  0  0  0
  141.8376   78.5689  224.7944 H   0  0  0  0  0  0  0  0  0  0  0  0
  142.6781   81.8612  222.0658 H   0  0  0  0  0  0  0  0  0  0  0  0
  141.8054   80.4914  220.1381 H   0  0  0  0  0  0  0  0  0  0  0  0
  140.6920   78.0700  219.5250 H   0  0  0  0  0  0  0  0  0  0  0  0
  139.9244   74.0971  223.2878 H   0  0  0  0  0  0  0  0  0  0  0  0
  138.4957   73.8073  222.2779 H   0  0  0  0  0  0  0  0  0  0  0  0
  137.8494   71.7232  222.6342 H   0  0  0  0  0  0  0  0  0  0  0  0
  138.4599   70.9952  221.1478 H   0  0  0  0  0  0  0  0  0  0  0  0
  138.2066   69.5908  223.4864 H   0  0  0  0  0  0  0  0  0  0  0  0
  139.4882   69.2112  222.3042 H   0  0  0  0  0  0  0  0  0  0  0  0
  138.7136   71.0290  225.3693 H   0  0  0  0  0  0  0  0  0  0  0  0
  138.0807   69.0117  226.1018 H   0  0  0  0  0  0  0  0  0  0  0  0
  139.2926   68.2867  224.9454 H   0  0  0  0  0  0  0  0  0  0  0  0
  139.5089   67.4275  227.2784 H   0  0  0  0  0  0  0  0  0  0  0  0
  140.9886   68.2661  226.6426 H   0  0  0  0  0  0  0  0  0  0  0  0
  139.0105   69.1891  228.7437 H   0  0  0  0  0  0  0  0  0  0  0  0
  140.8373   69.0864  228.7879 H   0  0  0  0  0  0  0  0  0  0  0  0
  139.0732   71.2953  227.9159 H   0  0  0  0  0  0  0  0  0  0  0  0
  140.7982   71.2860  228.4985 H   0  0  0  0  0  0  0  0  0  0  0  0
  140.6224   72.1252  226.1804 H   0  0  0  0  0  0  0  0  0  0  0  0
  141.5630   70.5902  226.2847 H   0  0  0  0  0  0  0  0  0  0  0  0
  140.6719   72.3836  224.3190 H   0  0  0  0  0  0  0  0  0  0  0  0
  141.7863   71.4693  223.2609 H   0  0  0  0  0  0  0  0  0  0  0  0
  141.3087   69.9379  220.9298 H   0  0  0  0  0  0  0  0  0  0  0  0
  142.6892   70.2268  218.8520 H   0  0  0  0  0  0  0  0  0  0  0  0
  142.9612   72.4963  217.8332 H   0  0  0  0  0  0  0  0  0  0  0  0
  141.8489   74.4890  218.8862 H   0  0  0  0  0  0  0  0  0  0  0  0
  1  2  2  0
  2  3  1  0
  3  4  2  0
  4  5  1  0
  5  6  2  0
  6  7  1  0
  7  8  1  0
  7  9  2  0
  9 10  1  0
 10 11  2  0
 11 12  1  0
  2 13  1  0
 13 14  1  0
 15 14  1  1
 15 16  1  0
 16 17  1  0
 17 18  1  0
 18 19  1  0
 19 20  1  0
 20 21  1  0
 21 22  1  0
 22 23  1  0
 23 24  1  0
 18 25  1  0
 15 26  1  0
 26 27  2  0
 27 28  1  0
 28 29  2  0
 29 30  1  0
 30 31  2  0
 12  3  1  0
 31 13  1  0
 11  5  1  0
 25 15  1  0
 31 26  1  0
 24 19  1  0
  4 32  1  0
  6 33  1  0
  9 34  1  0
 10 35  1  0
 12 36  1  0
 14 37  1  0
 14 38  1  0
 16 39  1  0
 16 40  1  0
 17 41  1  0
 17 42  1  0
 19 43  1  0
 20 44  1  0
 20 45  1  0
 21 46  1  0
 21 47  1  0
 22 48  1  0
 22 49  1  0
 23 50  1  0
 23 51  1  0
 24 52  1  0
 24 53  1  0
 25 54  1  0
 25 55  1  0
 27 56  1  0
 28 57  1  0
 29 58  1  0
 30 59  1  0
M  END
>  <UniqueID>  (65) 
180

>  <SMILES>  (65) 
O=C(c1cc2cc(F)ccc2[nH]1)N1C[C@@]2(CCN(C3CCCCC3)C2)c2ccccc21

>  <Energy>  (65) 
130.9889323576897

>  <Genealogy>  (65) 
O=C(c1cc2cc(F)ccc2[nH]1)N1C[C@@]2(CCN(C3CCCCC3)C2)c2ccccc21 (3D coordinates assigned)
O=C(c1cc2cc(F)ccc2[nH]1)N1C[C@@]2(CCN(C3CCCCC3)C2)c2ccccc21 (nonaromatic ring conformer: 130.9889323576897 kcal/mol)

>  <smiles>  (65) 
O=C(c1cc2cc(F)ccc2[nH]1)N1C[C@@]2(CCN(C3CCCCC3)C2)c2ccccc21

>  <score_type>  (65) 
oracle

>  <origin>  (65) 
autodockgpu

>  <m_score__min__energy>  (65) 
-8.3499999999999996

>  <m_primary>  (65) 
energy

>  <meeko>  (65) 
{"free_energy": -8.34, "intermolecular_energy": -9.24, "internal_energy": -1.15, "cluster_size": 11, "cluster_id": 1, "rank_in_cluster": 9}

>  <energy>  (65) 
-8.35

>  <cluster_rmsd>  (65) 
0.03

>  <rmsd>  (65) 
272.16

>  <cluster>  (65) 
1

$$$$
VDMKUDNKZWHZNN-SANMLTNENA-N
     RDKit          3D

 59 64  0  0  0  0  0  0  0  0999 V2000
  139.9320   74.3000  222.0120 O   0  0  0  0  0  0  0  0  0  0  0  0
  140.8700   74.8970  221.4170 C   0  0  0  0  0  0  0  0  0  0  0  0
  142.0430   74.1280  220.9670 C   0  0  0  0  0  0  0  0  0  0  0  0
  142.0270   72.7740  220.6400 C   0  0  0  0  0  0  0  0  0  0  0  0
  143.3280   72.4720  220.3080 C   0  0  0  0  0  0  0  0  0  0  0  0
  143.9070   71.2720  219.9000 C   0  0  0  0  0  0  0  0  0  0  0  0
  145.2890   71.2650  219.6330 C   0  0  0  0  0  0  0  0  0  0  0  0
  145.8930   70.1190  219.2330 F   0  0  0  0  0  0  0  0  0  0  0  0
  146.0510   72.4460  219.7840 C   0  0  0  0  0  0  0  0  0  0  0  0
  145.4380   73.6430  220.1990 C   0  0  0  0  0  0  0  0  0  0  0  0
  144.0660   73.6180  220.4510 C   0  0  0  0  0  0  0  0  0  0  0  0
  143.2930   74.6380  220.8580 N   0  0  0  0  0  0  0  0  0  0  0  0
  140.7710   76.3070  221.1650 N   0  0  0  0  0  0  0  0  0  0  0  0
  140.3830   77.2800  222.1900 C   0  0  0  0  0  0  0  0  0  0  0  0
  140.8090   78.6880  221.6450 C   0  0  2  0  0  0  0  0  0  0  0  0
  141.7580   79.4260  222.5920 C   0  0  0  0  0  0  0  0  0  0  0  0
  141.3900   80.8900  222.4530 C   0  0  0  0  0  0  0  0  0  0  0  0
  139.9850   80.9620  222.0250 N   0  0  0  0  0  0  0  0  0  0  0  0
  139.0670   81.4490  223.0910 C   0  0  0  0  0  0  0  0  0  0  0  0
  137.7680   82.0540  222.4820 C   0  0  0  0  0  0  0  0  0  0  0  0
  136.4970   81.2910  222.8820 C   0  0  0  0  0  0  0  0  0  0  0  0
  136.3520   81.1720  224.4080 C   0  0  0  0  0  0  0  0  0  0  0  0
  137.6820   80.9030  225.1430 C   0  0  0  0  0  0  0  0  0  0  0  0
  138.7870   80.4020  224.2070 C   0  0  0  0  0  0  0  0  0  0  0  0
  139.6270   79.6580  221.4340 C   0  0  0  0  0  0  0  0  0  0  0  0
  141.4800   78.3470  220.3400 C   0  0  0  0  0  0  0  0  0  0  0  0
  142.0600   79.2100  219.4020 C   0  0  0  0  0  0  0  0  0  0  0  0
  142.6010   78.6660  218.2270 C   0  0  0  0  0  0  0  0  0  0  0  0
  142.5470   77.2800  217.9980 C   0  0  0  0  0  0  0  0  0  0  0  0
  141.9540   76.4310  218.9440 C   0  0  0  0  0  0  0  0  0  0  0  0
  141.4350   76.9940  220.1160 C   0  0  0  0  0  0  0  0  0  0  0  0
  141.1624   72.0940  220.6459 H   0  0  0  0  0  0  0  0  0  0  0  0
  143.3032   70.3591  219.7901 H   0  0  0  0  0  0  0  0  0  0  0  0
  147.1309   72.4293  219.5756 H   0  0  0  0  0  0  0  0  0  0  0  0
  146.0213   74.5676  220.3207 H   0  0  0  0  0  0  0  0  0  0  0  0
  143.6090   75.6080  221.0820 H   0  0  0  0  0  0  0  0  0  0  0  0
  139.2957   77.2479  222.3533 H   0  0  0  0  0  0  0  0  0  0  0  0
  140.8677   77.0608  223.1529 H   0  0  0  0  0  0  0  0  0  0  0  0
  141.6112   79.0871  223.6281 H   0  0  0  0  0  0  0  0  0  0  0  0
  142.8140   79.2401  222.3467 H   0  0  0  0  0  0  0  0  0  0  0  0
  141.5132   81.4002  223.4197 H   0  0  0  0  0  0  0  0  0  0  0  0
  142.0418   81.3815  221.7157 H   0  0  0  0  0  0  0  0  0  0  0  0
  139.5958   82.2624  223.6094 H   0  0  0  0  0  0  0  0  0  0  0  0
  137.6732   83.0947  222.8255 H   0  0  0  0  0  0  0  0  0  0  0  0
  137.8585   81.9852  221.3879 H   0  0  0  0  0  0  0  0  0  0  0  0
  135.6220   81.8249  222.4828 H   0  0  0  0  0  0  0  0  0  0  0  0
  136.5666   80.2745  222.4673 H   0  0  0  0  0  0  0  0  0  0  0  0
  135.9291   82.1128  224.7902 H   0  0  0  0  0  0  0  0  0  0  0  0
  135.7000   80.3072  224.6005 H   0  0  0  0  0  0  0  0  0  0  0  0
  138.0182   81.8381  225.6148 H   0  0  0  0  0  0  0  0  0  0  0  0
  137.4956   80.1146  225.8871 H   0  0  0  0  0  0  0  0  0  0  0  0
  139.7065   80.2361  224.7876 H   0  0  0  0  0  0  0  0  0  0  0  0
  138.4604   79.4610  223.7402 H   0  0  0  0  0  0  0  0  0  0  0  0
  138.7275   79.2608  221.9271 H   0  0  0  0  0  0  0  0  0  0  0  0
  139.4192   79.7735  220.3600 H   0  0  0  0  0  0  0  0  0  0  0  0
  142.0910   80.2946  219.5829 H   0  0  0  0  0  0  0  0  0  0  0  0
  143.0691   79.3266  217.4823 H   0  0  0  0  0  0  0  0  0  0  0  0
  142.9711   76.8600  217.0740 H   0  0  0  0  0  0  0  0  0  0  0  0
  141.8980   75.3465  218.7688 H   0  0  0  0  0  0  0  0  0  0  0  0
  1  2  2  0
  2  3  1  0
  3  4  2  0
  4  5  1  0
  5  6  2  0
  6  7  1  0
  7  8  1  0
  7  9  2  0
  9 10  1  0
 10 11  2  0
 11 12  1  0
  2 13  1  0
 13 14  1  0
 15 14  1  1
 15 16  1  0
 16 17  1  0
 17 18  1  0
 18 19  1  0
 19 20  1  0
 20 21  1  0
 21 22  1  0
 22 23  1  0
 23 24  1  0
 18 25  1  0
 15 26  1  0
 26 27  2  0
 27 28  1  0
 28 29  2  0
 29 30  1  0
 30 31  2  0
 12  3  1  0
 31 13  1  0
 11  5  1  0
 25 15  1  0
 31 26  1  0
 24 19  1  0
  4 32  1  0
  6 33  1  0
  9 34  1  0
 10 35  1  0
 12 36  1  0
 14 37  1  0
 14 38  1  0
 16 39  1  0
 16 40  1  0
 17 41  1  0
 17 42  1  0
 19 43  1  0
 20 44  1  0
 20 45  1  0
 21 46  1  0
 21 47  1  0
 22 48  1  0
 22 49  1  0
 23 50  1  0
 23 51  1  0
 24 52  1  0
 24 53  1  0
 25 54  1  0
 25 55  1  0
 27 56  1  0
 28 57  1  0
 29 58  1  0
 30 59  1  0
M  END
>  <UniqueID>  (66) 
180

>  <SMILES>  (66) 
O=C(c1cc2cc(F)ccc2[nH]1)N1C[C@@]2(CCN(C3CCCCC3)C2)c2ccccc21

>  <Energy>  (66) 
130.9889323576897

>  <Genealogy>  (66) 
O=C(c1cc2cc(F)ccc2[nH]1)N1C[C@@]2(CCN(C3CCCCC3)C2)c2ccccc21 (3D coordinates assigned)
O=C(c1cc2cc(F)ccc2[nH]1)N1C[C@@]2(CCN(C3CCCCC3)C2)c2ccccc21 (nonaromatic ring conformer: 130.9889323576897 kcal/mol)

>  <smiles>  (66) 
O=C(c1cc2cc(F)ccc2[nH]1)N1C[C@@]2(CCN(C3CCCCC3)C2)c2ccccc21

>  <score_type>  (66) 
oracle

>  <origin>  (66) 
autodockgpu

>  <m_score__min__energy>  (66) 
-8.3499999999999996

>  <m_primary>  (66) 
energy

>  <meeko>  (66) 
{"free_energy": -8.18, "intermolecular_energy": -9.08, "internal_energy": -1.27, "cluster_size": 3, "cluster_id": 2, "rank_in_cluster": 2}

>  <energy>  (66) 
-8.35

>  <cluster_rmsd>  (66) 
0.05

>  <rmsd>  (66) 
272.18

>  <cluster>  (66) 
1

$$$$
VDMKUDNKZWHZNN-SANMLTNENA-N
     RDKit          3D

 59 64  0  0  0  0  0  0  0  0999 V2000
  138.9890   75.7430  219.8710 O   0  0  0  0  0  0  0  0  0  0  0  0
  139.8760   75.6360  220.7610 C   0  0  0  0  0  0  0  0  0  0  0  0
  140.4960   76.8540  221.3100 C   0  0  0  0  0  0  0  0  0  0  0  0
  140.7940   77.0560  222.6560 C   0  0  0  0  0  0  0  0  0  0  0  0
  141.3260   78.3250  222.7170 C   0  0  0  0  0  0  0  0  0  0  0  0
  141.8010   79.0590  223.8010 C   0  0  0  0  0  0  0  0  0  0  0  0
  142.2860   80.3570  223.5550 C   0  0  0  0  0  0  0  0  0  0  0  0
  142.7590   81.1070  224.5800 F   0  0  0  0  0  0  0  0  0  0  0  0
  142.2780   80.8850  222.2430 C   0  0  0  0  0  0  0  0  0  0  0  0
  141.7890   80.1190  221.1690 C   0  0  0  0  0  0  0  0  0  0  0  0
  141.3210   78.8340  221.4450 C   0  0  0  0  0  0  0  0  0  0  0  0
  140.8120   77.9470  220.5750 N   0  0  0  0  0  0  0  0  0  0  0  0
  140.2490   74.3360  221.2420 N   0  0  0  0  0  0  0  0  0  0  0  0
  139.5580   73.6610  222.3440 C   0  0  0  0  0  0  0  0  0  0  0  0
  139.9730   72.1490  222.2630 C   0  0  2  0  0  0  0  0  0  0  0  0
  138.7690   71.2130  222.1330 C   0  0  0  0  0  0  0  0  0  0  0  0
  139.1570   69.9670  222.9040 C   0  0  0  0  0  0  0  0  0  0  0  0
  140.1440   70.3580  223.9230 N   0  0  0  0  0  0  0  0  0  0  0  0
  139.6060   70.3260  225.3110 C   0  0  0  0  0  0  0  0  0  0  0  0
  139.1900   68.8820  225.7200 C   0  0  0  0  0  0  0  0  0  0  0  0
  140.0000   68.3290  226.9010 C   0  0  0  0  0  0  0  0  0  0  0  0
  139.9400   69.2570  228.1260 C   0  0  0  0  0  0  0  0  0  0  0  0
  140.0050   70.7590  227.7760 C   0  0  0  0  0  0  0  0  0  0  0  0
  140.5260   71.0150  226.3590 C   0  0  0  0  0  0  0  0  0  0  0  0
  140.7350   71.6450  223.5070 C   0  0  0  0  0  0  0  0  0  0  0  0
  140.8420   72.1120  221.0330 C   0  0  0  0  0  0  0  0  0  0  0  0
  141.5070   71.0180  220.4640 C   0  0  0  0  0  0  0  0  0  0  0  0
  142.2990   71.2260  219.3250 C   0  0  0  0  0  0  0  0  0  0  0  0
  142.4270   72.5150  218.7780 C   0  0  0  0  0  0  0  0  0  0  0  0
  141.7620   73.6010  219.3660 C   0  0  0  0  0  0  0  0  0  0  0  0
  140.9650   73.3670  220.4930 C   0  0  0  0  0  0  0  0  0  0  0  0
  140.6383   76.3545  223.4889 H   0  0  0  0  0  0  0  0  0  0  0  0
  141.7972   78.6376  224.8171 H   0  0  0  0  0  0  0  0  0  0  0  0
  142.6567   81.9016  222.0610 H   0  0  0  0  0  0  0  0  0  0  0  0
  141.7761   80.5202  220.1449 H   0  0  0  0  0  0  0  0  0  0  0  0
  140.6570   78.0960  219.5520 H   0  0  0  0  0  0  0  0  0  0  0  0
  139.8683   74.0902  223.3081 H   0  0  0  0  0  0  0  0  0  0  0  0
  138.4674   73.7813  222.2659 H   0  0  0  0  0  0  0  0  0  0  0  0
  137.8713   71.6745  222.5702 H   0  0  0  0  0  0  0  0  0  0  0  0
  138.5289   70.9914  221.0826 H   0  0  0  0  0  0  0  0  0  0  0  0
  138.2691   69.5355  223.3892 H   0  0  0  0  0  0  0  0  0  0  0  0
  139.5827   69.2126  222.2261 H   0  0  0  0  0  0  0  0  0  0  0  0
  138.6942   70.9413  225.3054 H   0  0  0  0  0  0  0  0  0  0  0  0
  138.1262   68.8910  225.9998 H   0  0  0  0  0  0  0  0  0  0  0  0
  139.3855   68.2294  224.8564 H   0  0  0  0  0  0  0  0  0  0  0  0
  139.5942   67.3455  227.1804 H   0  0  0  0  0  0  0  0  0  0  0  0
  141.0508   68.2509  226.5852 H   0  0  0  0  0  0  0  0  0  0  0  0
  138.9971   69.0661  228.6594 H   0  0  0  0  0  0  0  0  0  0  0  0
  140.8250   69.0334  228.7399 H   0  0  0  0  0  0  0  0  0  0  0  0
  138.9940   71.1840  227.8611 H   0  0  0  0  0  0  0  0  0  0  0  0
  140.7067   71.2331  228.4780 H   0  0  0  0  0  0  0  0  0  0  0  0
  140.5436   72.0984  226.1694 H   0  0  0  0  0  0  0  0  0  0  0  0
  141.5408   70.5997  226.2712 H   0  0  0  0  0  0  0  0  0  0  0  0
  140.6421   72.3777  224.3222 H   0  0  0  0  0  0  0  0  0  0  0  0
  141.8012   71.5135  223.2707 H   0  0  0  0  0  0  0  0  0  0  0  0
  141.4098   70.0139  220.9026 H   0  0  0  0  0  0  0  0  0  0  0  0
  142.8216   70.3780  218.8583 H   0  0  0  0  0  0  0  0  0  0  0  0
  143.0509   72.6723  217.8858 H   0  0  0  0  0  0  0  0  0  0  0  0
  141.8644   74.6144  218.9507 H   0  0  0  0  0  0  0  0  0  0  0  0
  1  2  2  0
  2  3  1  0
  3  4  2  0
  4  5  1  0
  5  6  2  0
  6  7  1  0
  7  8  1  0
  7  9  2  0
  9 10  1  0
 10 11  2  0
 11 12  1  0
  2 13  1  0
 13 14  1  0
 15 14  1  1
 15 16  1  0
 16 17  1  0
 17 18  1  0
 18 19  1  0
 19 20  1  0
 20 21  1  0
 21 22  1  0
 22 23  1  0
 23 24  1  0
 18 25  1  0
 15 26  1  0
 26 27  2  0
 27 28  1  0
 28 29  2  0
 29 30  1  0
 30 31  2  0
 12  3  1  0
 31 13  1  0
 11  5  1  0
 25 15  1  0
 31 26  1  0
 24 19  1  0
  4 32  1  0
  6 33  1  0
  9 34  1  0
 10 35  1  0
 12 36  1  0
 14 37  1  0
 14 38  1  0
 16 39  1  0
 16 40  1  0
 17 41  1  0
 17 42  1  0
 19 43  1  0
 20 44  1  0
 20 45  1  0
 21 46  1  0
 21 47  1  0
 22 48  1  0
 22 49  1  0
 23 50  1  0
 23 51  1  0
 24 52  1  0
 24 53  1  0
 25 54  1  0
 25 55  1  0
 27 56  1  0
 28 57  1  0
 29 58  1  0
 30 59  1  0
M  END
>  <UniqueID>  (67) 
180

>  <SMILES>  (67) 
O=C(c1cc2cc(F)ccc2[nH]1)N1C[C@@]2(CCN(C3CCCCC3)C2)c2ccccc21

>  <Energy>  (67) 
130.9889323576897

>  <Genealogy>  (67) 
O=C(c1cc2cc(F)ccc2[nH]1)N1C[C@@]2(CCN(C3CCCCC3)C2)c2ccccc21 (3D coordinates assigned)
O=C(c1cc2cc(F)ccc2[nH]1)N1C[C@@]2(CCN(C3CCCCC3)C2)c2ccccc21 (nonaromatic ring conformer: 130.9889323576897 kcal/mol)

>  <smiles>  (67) 
O=C(c1cc2cc(F)ccc2[nH]1)N1C[C@@]2(CCN(C3CCCCC3)C2)c2ccccc21

>  <score_type>  (67) 
oracle

>  <origin>  (67) 
autodockgpu

>  <m_score__min__energy>  (67) 
-8.3499999999999996

>  <m_primary>  (67) 
energy

>  <meeko>  (67) 
{"free_energy": -8.35, "intermolecular_energy": -9.24, "internal_energy": -1.15, "cluster_size": 11, "cluster_id": 1, "rank_in_cluster": 7}

>  <energy>  (67) 
-8.35

>  <cluster_rmsd>  (67) 
0.05

>  <rmsd>  (67) 
272.18

>  <cluster>  (67) 
1

$$$$
VDMKUDNKZWHZNN-SANMLTNENA-N
     RDKit          3D

 59 64  0  0  0  0  0  0  0  0999 V2000
  139.0020   75.7380  219.8640 O   0  0  0  0  0  0  0  0  0  0  0  0
  139.8880   75.6310  220.7560 C   0  0  0  0  0  0  0  0  0  0  0  0
  140.5110   76.8490  221.3020 C   0  0  0  0  0  0  0  0  0  0  0  0
  140.8180   77.0500  222.6460 C   0  0  0  0  0  0  0  0  0  0  0  0
  141.3500   78.3180  222.7040 C   0  0  0  0  0  0  0  0  0  0  0  0
  141.8320   79.0520  223.7860 C   0  0  0  0  0  0  0  0  0  0  0  0
  142.3160   80.3500  223.5370 C   0  0  0  0  0  0  0  0  0  0  0  0
  142.7960   81.0990  224.5600 F   0  0  0  0  0  0  0  0  0  0  0  0
  142.2990   80.8790  222.2250 C   0  0  0  0  0  0  0  0  0  0  0  0
  141.8040   80.1130  221.1540 C   0  0  0  0  0  0  0  0  0  0  0  0
  141.3370   78.8290  221.4320 C   0  0  0  0  0  0  0  0  0  0  0  0
  140.8220   77.9420  220.5650 N   0  0  0  0  0  0  0  0  0  0  0  0
  140.2550   74.3310  221.2430 N   0  0  0  0  0  0  0  0  0  0  0  0
  139.5600   73.6620  222.3450 C   0  0  0  0  0  0  0  0  0  0  0  0
  139.9690   72.1490  222.2700 C   0  0  2  0  0  0  0  0  0  0  0  0
  138.7630   71.2170  222.1410 C   0  0  0  0  0  0  0  0  0  0  0  0
  139.1450   69.9720  222.9170 C   0  0  0  0  0  0  0  0  0  0  0  0
  140.1300   70.3630  223.9370 N   0  0  0  0  0  0  0  0  0  0  0  0
  139.5890   70.3370  225.3230 C   0  0  0  0  0  0  0  0  0  0  0  0
  139.1420   68.9010  225.7270 C   0  0  0  0  0  0  0  0  0  0  0  0
  139.9380   68.3270  226.9080 C   0  0  0  0  0  0  0  0  0  0  0  0
  139.8950   69.2530  228.1360 C   0  0  0  0  0  0  0  0  0  0  0  0
  139.9920   70.7540  227.7910 C   0  0  0  0  0  0  0  0  0  0  0  0
  140.5210   71.0040  226.3750 C   0  0  0  0  0  0  0  0  0  0  0  0
  140.7260   71.6460  223.5180 C   0  0  0  0  0  0  0  0  0  0  0  0
  140.8410   72.1040  221.0420 C   0  0  0  0  0  0  0  0  0  0  0  0
  141.5030   71.0060  220.4790 C   0  0  0  0  0  0  0  0  0  0  0  0
  142.2990   71.2080  219.3410 C   0  0  0  0  0  0  0  0  0  0  0  0
  142.4330   72.4950  218.7900 C   0  0  0  0  0  0  0  0  0  0  0  0
  141.7700   73.5850  219.3730 C   0  0  0  0  0  0  0  0  0  0  0  0
  140.9700   73.3570  220.4980 C   0  0  0  0  0  0  0  0  0  0  0  0
  140.6678   76.3480  223.4795 H   0  0  0  0  0  0  0  0  0  0  0  0
  141.8342   78.6305  224.8020 H   0  0  0  0  0  0  0  0  0  0  0  0
  142.6754   81.8961  222.0411 H   0  0  0  0  0  0  0  0  0  0  0  0
  141.7859   80.5142  220.1299 H   0  0  0  0  0  0  0  0  0  0  0  0
  140.6610   78.0910  219.5440 H   0  0  0  0  0  0  0  0  0  0  0  0
  139.8701   74.0930  223.3084 H   0  0  0  0  0  0  0  0  0  0  0  0
  138.4700   73.7859  222.2640 H   0  0  0  0  0  0  0  0  0  0  0  0
  137.8660   71.6830  222.5748 H   0  0  0  0  0  0  0  0  0  0  0  0
  138.5245   70.9926  221.0909 H   0  0  0  0  0  0  0  0  0  0  0  0
  138.2544   69.5448  223.4011 H   0  0  0  0  0  0  0  0  0  0  0  0
  139.5702   69.2141  222.2426 H   0  0  0  0  0  0  0  0  0  0  0  0
  138.6897   70.9705  225.3173 H   0  0  0  0  0  0  0  0  0  0  0  0
  138.0781   68.9317  226.0050 H   0  0  0  0  0  0  0  0  0  0  0  0
  139.3255   68.2470  224.8618 H   0  0  0  0  0  0  0  0  0  0  0  0
  139.5109   67.3515  227.1836 H   0  0  0  0  0  0  0  0  0  0  0  0
  140.9875   68.2273  226.5941 H   0  0  0  0  0  0  0  0  0  0  0  0
  138.9473   69.0802  228.6670 H   0  0  0  0  0  0  0  0  0  0  0  0
  140.7741   69.0092  228.7507 H   0  0  0  0  0  0  0  0  0  0  0  0
  138.9899   71.1997  227.8758 H   0  0  0  0  0  0  0  0  0  0  0  0
  140.7024   71.2109  228.4957 H   0  0  0  0  0  0  0  0  0  0  0  0
  140.5609   72.0874  226.1889 H   0  0  0  0  0  0  0  0  0  0  0  0
  141.5273   70.5685  226.2877 H   0  0  0  0  0  0  0  0  0  0  0  0
  140.6335   72.3818  224.3305 H   0  0  0  0  0  0  0  0  0  0  0  0
  141.7922   71.5097  223.2845 H   0  0  0  0  0  0  0  0  0  0  0  0
  141.4010   70.0037  220.9206 H   0  0  0  0  0  0  0  0  0  0  0  0
  142.8199   70.3568  218.8784 H   0  0  0  0  0  0  0  0  0  0  0  0
  143.0598   72.6473  217.8989 H   0  0  0  0  0  0  0  0  0  0  0  0
  141.8767   74.5968  218.9549 H   0  0  0  0  0  0  0  0  0  0  0  0
  1  2  2  0
  2  3  1  0
  3  4  2  0
  4  5  1  0
  5  6  2  0
  6  7  1  0
  7  8  1  0
  7  9  2  0
  9 10  1  0
 10 11  2  0
 11 12  1  0
  2 13  1  0
 13 14  1  0
 15 14  1  1
 15 16  1  0
 16 17  1  0
 17 18  1  0
 18 19  1  0
 19 20  1  0
 20 21  1  0
 21 22  1  0
 22 23  1  0
 23 24  1  0
 18 25  1  0
 15 26  1  0
 26 27  2  0
 27 28  1  0
 28 29  2  0
 29 30  1  0
 30 31  2  0
 12  3  1  0
 31 13  1  0
 11  5  1  0
 25 15  1  0
 31 26  1  0
 24 19  1  0
  4 32  1  0
  6 33  1  0
  9 34  1  0
 10 35  1  0
 12 36  1  0
 14 37  1  0
 14 38  1  0
 16 39  1  0
 16 40  1  0
 17 41  1  0
 17 42  1  0
 19 43  1  0
 20 44  1  0
 20 45  1  0
 21 46  1  0
 21 47  1  0
 22 48  1  0
 22 49  1  0
 23 50  1  0
 23 51  1  0
 24 52  1  0
 24 53  1  0
 25 54  1  0
 25 55  1  0
 27 56  1  0
 28 57  1  0
 29 58  1  0
 30 59  1  0
M  END
>  <UniqueID>  (68) 
180

>  <SMILES>  (68) 
O=C(c1cc2cc(F)ccc2[nH]1)N1C[C@@]2(CCN(C3CCCCC3)C2)c2ccccc21

>  <Energy>  (68) 
130.9889323576897

>  <Genealogy>  (68) 
O=C(c1cc2cc(F)ccc2[nH]1)N1C[C@@]2(CCN(C3CCCCC3)C2)c2ccccc21 (3D coordinates assigned)
O=C(c1cc2cc(F)ccc2[nH]1)N1C[C@@]2(CCN(C3CCCCC3)C2)c2ccccc21 (nonaromatic ring conformer: 130.9889323576897 kcal/mol)

>  <smiles>  (68) 
O=C(c1cc2cc(F)ccc2[nH]1)N1C[C@@]2(CCN(C3CCCCC3)C2)c2ccccc21

>  <score_type>  (68) 
oracle

>  <origin>  (68) 
autodockgpu

>  <m_score__min__energy>  (68) 
-8.3499999999999996

>  <m_primary>  (68) 
energy

>  <meeko>  (68) 
{"free_energy": -8.35, "intermolecular_energy": -9.24, "internal_energy": -1.15, "cluster_size": 11, "cluster_id": 1, "rank_in_cluster": 6}

>  <energy>  (68) 
-8.34

>  <cluster_rmsd>  (68) 
0.08

>  <rmsd>  (68) 
272.19

>  <cluster>  (68) 
1

$$$$
VDMKUDNKZWHZNN-SANMLTNENA-N
     RDKit          3D

 59 64  0  0  0  0  0  0  0  0999 V2000
  139.0490   75.7010  219.8070 O   0  0  0  0  0  0  0  0  0  0  0  0
  139.9140   75.5930  220.7190 C   0  0  0  0  0  0  0  0  0  0  0  0
  140.5300   76.8100  221.2750 C   0  0  0  0  0  0  0  0  0  0  0  0
  140.8210   77.0080  222.6230 C   0  0  0  0  0  0  0  0  0  0  0  0
  141.3510   78.2770  222.6900 C   0  0  0  0  0  0  0  0  0  0  0  0
  141.8200   79.0090  223.7790 C   0  0  0  0  0  0  0  0  0  0  0  0
  142.3040   80.3090  223.5390 C   0  0  0  0  0  0  0  0  0  0  0  0
  142.7720   81.0560  224.5690 F   0  0  0  0  0  0  0  0  0  0  0  0
  142.3010   80.8410  222.2290 C   0  0  0  0  0  0  0  0  0  0  0  0
  141.8180   80.0770  221.1500 C   0  0  0  0  0  0  0  0  0  0  0  0
  141.3500   78.7910  221.4200 C   0  0  0  0  0  0  0  0  0  0  0  0
  140.8470   77.9060  220.5450 N   0  0  0  0  0  0  0  0  0  0  0  0
  140.2650   74.2940  221.2180 N   0  0  0  0  0  0  0  0  0  0  0  0
  139.5780   73.6540  222.3430 C   0  0  0  0  0  0  0  0  0  0  0  0
  139.9560   72.1320  222.2830 C   0  0  2  0  0  0  0  0  0  0  0  0
  138.7300   71.2220  222.1900 C   0  0  0  0  0  0  0  0  0  0  0  0
  139.1020   69.9820  222.9770 C   0  0  0  0  0  0  0  0  0  0  0  0
  140.1140   70.3680  223.9730 N   0  0  0  0  0  0  0  0  0  0  0  0
  139.5980   70.3730  225.3690 C   0  0  0  0  0  0  0  0  0  0  0  0
  139.1480   68.9480  225.8080 C   0  0  0  0  0  0  0  0  0  0  0  0
  139.9600   68.3900  226.9850 C   0  0  0  0  0  0  0  0  0  0  0  0
  139.9480   69.3380  228.1960 C   0  0  0  0  0  0  0  0  0  0  0  0
  140.0510   70.8320  227.8210 C   0  0  0  0  0  0  0  0  0  0  0  0
  140.5550   71.0510  226.3910 C   0  0  0  0  0  0  0  0  0  0  0  0
  140.7270   71.6330  223.5240 C   0  0  0  0  0  0  0  0  0  0  0  0
  140.8040   72.0530  221.0400 C   0  0  0  0  0  0  0  0  0  0  0  0
  141.4340   70.9340  220.4800 C   0  0  0  0  0  0  0  0  0  0  0  0
  142.2120   71.1040  219.3250 C   0  0  0  0  0  0  0  0  0  0  0  0
  142.3610   72.3800  218.7530 C   0  0  0  0  0  0  0  0  0  0  0  0
  141.7300   73.4910  219.3320 C   0  0  0  0  0  0  0  0  0  0  0  0
  140.9470   73.2950  220.4750 C   0  0  0  0  0  0  0  0  0  0  0  0
  140.6620   76.3039  223.4530 H   0  0  0  0  0  0  0  0  0  0  0  0
  141.8123   78.5846  224.7938 H   0  0  0  0  0  0  0  0  0  0  0  0
  142.6787   81.8588  222.0519 H   0  0  0  0  0  0  0  0  0  0  0  0
  141.8098   80.4810  220.1269 H   0  0  0  0  0  0  0  0  0  0  0  0
  140.6960   78.0580  219.5220 H   0  0  0  0  0  0  0  0  0  0  0  0
  139.9146   74.0927  223.2940 H   0  0  0  0  0  0  0  0  0  0  0  0
  138.4893   73.7979  222.2803 H   0  0  0  0  0  0  0  0  0  0  0  0
  137.8504   71.7118  222.6331 H   0  0  0  0  0  0  0  0  0  0  0  0
  138.4678   70.9870  221.1479 H   0  0  0  0  0  0  0  0  0  0  0  0
  138.2125   69.5797  223.4839 H   0  0  0  0  0  0  0  0  0  0  0  0
  139.4996   69.2062  222.3062 H   0  0  0  0  0  0  0  0  0  0  0  0
  138.7040   71.0139  225.3679 H   0  0  0  0  0  0  0  0  0  0  0  0
  138.0895   68.9919  226.1039 H   0  0  0  0  0  0  0  0  0  0  0  0
  139.3119   68.2767  224.9521 H   0  0  0  0  0  0  0  0  0  0  0  0
  139.5296   67.4236  227.2865 H   0  0  0  0  0  0  0  0  0  0  0  0
  141.0028   68.2761  226.6538 H   0  0  0  0  0  0  0  0  0  0  0  0
  139.0091   69.1832  228.7479 H   0  0  0  0  0  0  0  0  0  0  0  0
  140.8363   69.0978  228.7987 H   0  0  0  0  0  0  0  0  0  0  0  0
  139.0545   71.2879  227.9163 H   0  0  0  0  0  0  0  0  0  0  0  0
  140.7784   71.2957  228.5035 H   0  0  0  0  0  0  0  0  0  0  0  0
  140.6005   72.1304  226.1840 H   0  0  0  0  0  0  0  0  0  0  0  0
  141.5557   70.6049  226.2931 H   0  0  0  0  0  0  0  0  0  0  0  0
  140.6642   72.3822  224.3269 H   0  0  0  0  0  0  0  0  0  0  0  0
  141.7859   71.4727  223.2730 H   0  0  0  0  0  0  0  0  0  0  0  0
  141.3207   69.9401  220.9376 H   0  0  0  0  0  0  0  0  0  0  0  0
  142.7072   70.2361  218.8652 H   0  0  0  0  0  0  0  0  0  0  0  0
  142.9743   72.5073  217.8487 H   0  0  0  0  0  0  0  0  0  0  0  0
  141.8481   74.4944  218.8970 H   0  0  0  0  0  0  0  0  0  0  0  0
  1  2  2  0
  2  3  1  0
  3  4  2  0
  4  5  1  0
  5  6  2  0
  6  7  1  0
  7  8  1  0
  7  9  2  0
  9 10  1  0
 10 11  2  0
 11 12  1  0
  2 13  1  0
 13 14  1  0
 15 14  1  1
 15 16  1  0
 16 17  1  0
 17 18  1  0
 18 19  1  0
 19 20  1  0
 20 21  1  0
 21 22  1  0
 22 23  1  0
 23 24  1  0
 18 25  1  0
 15 26  1  0
 26 27  2  0
 27 28  1  0
 28 29  2  0
 29 30  1  0
 30 31  2  0
 12  3  1  0
 31 13  1  0
 11  5  1  0
 25 15  1  0
 31 26  1  0
 24 19  1  0
  4 32  1  0
  6 33  1  0
  9 34  1  0
 10 35  1  0
 12 36  1  0
 14 37  1  0
 14 38  1  0
 16 39  1  0
 16 40  1  0
 17 41  1  0
 17 42  1  0
 19 43  1  0
 20 44  1  0
 20 45  1  0
 21 46  1  0
 21 47  1  0
 22 48  1  0
 22 49  1  0
 23 50  1  0
 23 51  1  0
 24 52  1  0
 24 53  1  0
 25 54  1  0
 25 55  1  0
 27 56  1  0
 28 57  1  0
 29 58  1  0
 30 59  1  0
M  END
>  <UniqueID>  (69) 
180

>  <SMILES>  (69) 
O=C(c1cc2cc(F)ccc2[nH]1)N1C[C@@]2(CCN(C3CCCCC3)C2)c2ccccc21

>  <Energy>  (69) 
130.9889323576897

>  <Genealogy>  (69) 
O=C(c1cc2cc(F)ccc2[nH]1)N1C[C@@]2(CCN(C3CCCCC3)C2)c2ccccc21 (3D coordinates assigned)
O=C(c1cc2cc(F)ccc2[nH]1)N1C[C@@]2(CCN(C3CCCCC3)C2)c2ccccc21 (nonaromatic ring conformer: 130.9889323576897 kcal/mol)

>  <smiles>  (69) 
O=C(c1cc2cc(F)ccc2[nH]1)N1C[C@@]2(CCN(C3CCCCC3)C2)c2ccccc21

>  <score_type>  (69) 
oracle

>  <origin>  (69) 
autodockgpu

>  <m_score__min__energy>  (69) 
-8.3499999999999996

>  <m_primary>  (69) 
energy

>  <meeko>  (69) 
{"free_energy": -8.35, "intermolecular_energy": -9.25, "internal_energy": -1.15, "cluster_size": 11, "cluster_id": 1, "rank_in_cluster": 3}

>  <energy>  (69) 
-8.34

>  <cluster_rmsd>  (69) 
0.04

>  <rmsd>  (69) 
272.17

>  <cluster>  (69) 
1

$$$$
VDMKUDNKZWHZNN-SANMLTNENA-N
     RDKit          3D

 59 64  0  0  0  0  0  0  0  0999 V2000
  137.8760   81.8130  221.8340 O   0  0  0  0  0  0  0  0  0  0  0  0
  138.2120   81.2290  222.9010 C   0  0  0  0  0  0  0  0  0  0  0  0
  137.6010   81.6470  224.1740 C   0  0  0  0  0  0  0  0  0  0  0  0
  137.5750   80.8750  225.3340 C   0  0  0  0  0  0  0  0  0  0  0  0
  136.8870   81.6350  226.2520 C   0  0  0  0  0  0  0  0  0  0  0  0
  136.5550   81.3750  227.5800 C   0  0  0  0  0  0  0  0  0  0  0  0
  135.8250   82.3540  228.2800 C   0  0  0  0  0  0  0  0  0  0  0  0
  135.4810   82.1430  229.5740 F   0  0  0  0  0  0  0  0  0  0  0  0
  135.4450   83.5550  227.6390 C   0  0  0  0  0  0  0  0  0  0  0  0
  135.7950   83.7880  226.2960 C   0  0  0  0  0  0  0  0  0  0  0  0
  136.5220   82.8010  225.6310 C   0  0  0  0  0  0  0  0  0  0  0  0
  136.9480   82.8200  224.3580 N   0  0  0  0  0  0  0  0  0  0  0  0
  139.1600   80.1520  222.8550 N   0  0  0  0  0  0  0  0  0  0  0  0
  138.9330   78.9150  222.1030 C   0  0  0  0  0  0  0  0  0  0  0  0
  140.3340   78.2230  221.9590 C   0  0  2  0  0  0  0  0  0  0  0  0
  140.7210   77.9710  220.5010 C   0  0  0  0  0  0  0  0  0  0  0  0
  141.4930   76.6670  220.5210 C   0  0  0  0  0  0  0  0  0  0  0  0
  141.0440   75.8960  221.6910 N   0  0  0  0  0  0  0  0  0  0  0  0
  140.2170   74.7100  221.3350 C   0  0  0  0  0  0  0  0  0  0  0  0
  140.9890   73.3840  221.6050 C   0  0  0  0  0  0  0  0  0  0  0  0
  140.3230   72.5000  222.6680 C   0  0  0  0  0  0  0  0  0  0  0  0
  138.8560   72.1900  222.3250 C   0  0  0  0  0  0  0  0  0  0  0  0
  138.0900   73.3850  221.7190 C   0  0  0  0  0  0  0  0  0  0  0  0
  138.7940   74.7250  221.9620 C   0  0  0  0  0  0  0  0  0  0  0  0
  140.4170   76.8390  222.6370 C   0  0  0  0  0  0  0  0  0  0  0  0
  141.2600   79.2140  222.6170 C   0  0  0  0  0  0  0  0  0  0  0  0
  142.6460   79.1320  222.7960 C   0  0  0  0  0  0  0  0  0  0  0  0
  143.3030   80.1680  223.4770 C   0  0  0  0  0  0  0  0  0  0  0  0
  142.5730   81.2590  223.9780 C   0  0  0  0  0  0  0  0  0  0  0  0
  141.1830   81.3210  223.7990 C   0  0  0  0  0  0  0  0  0  0  0  0
  140.5510   80.2830  223.1030 C   0  0  0  0  0  0  0  0  0  0  0  0
  138.0098   79.8757  225.4833 H   0  0  0  0  0  0  0  0  0  0  0  0
  136.8539   80.4345  228.0660 H   0  0  0  0  0  0  0  0  0  0  0  0
  134.8719   84.3126  228.1936 H   0  0  0  0  0  0  0  0  0  0  0  0
  135.5044   84.7189  225.7870 H   0  0  0  0  0  0  0  0  0  0  0  0
  136.7710   83.5700  223.6530 H   0  0  0  0  0  0  0  0  0  0  0  0
  138.2388   78.2594  222.6491 H   0  0  0  0  0  0  0  0  0  0  0  0
  138.4864   79.1217  221.1192 H   0  0  0  0  0  0  0  0  0  0  0  0
  139.8228   77.8791  219.8727 H   0  0  0  0  0  0  0  0  0  0  0  0
  141.3147   78.7968  220.0820 H   0  0  0  0  0  0  0  0  0  0  0  0
  141.2931   76.0997  219.6000 H   0  0  0  0  0  0  0  0  0  0  0  0
  142.5740   76.8615  220.5810 H   0  0  0  0  0  0  0  0  0  0  0  0
  140.0365   74.7698  220.2516 H   0  0  0  0  0  0  0  0  0  0  0  0
  141.0469   72.8160  220.6648 H   0  0  0  0  0  0  0  0  0  0  0  0
  141.9841   73.6578  221.9856 H   0  0  0  0  0  0  0  0  0  0  0  0
  140.8782   71.5532  222.7407 H   0  0  0  0  0  0  0  0  0  0  0  0
  140.3399   73.0464  223.6226 H   0  0  0  0  0  0  0  0  0  0  0  0
  138.8370   71.3628  221.6001 H   0  0  0  0  0  0  0  0  0  0  0  0
  138.3540   71.9347  223.2699 H   0  0  0  0  0  0  0  0  0  0  0  0
  137.9959   73.2288  220.6342 H   0  0  0  0  0  0  0  0  0  0  0  0
  137.1071   73.4327  222.2105 H   0  0  0  0  0  0  0  0  0  0  0  0
  138.2044   75.5328  221.5039 H   0  0  0  0  0  0  0  0  0  0  0  0
  138.8829   74.8905  223.0458 H   0  0  0  0  0  0  0  0  0  0  0  0
  139.4062   76.4900  222.8949 H   0  0  0  0  0  0  0  0  0  0  0  0
  141.0139   76.9039  223.5587 H   0  0  0  0  0  0  0  0  0  0  0  0
  143.2102   78.2704  222.4095 H   0  0  0  0  0  0  0  0  0  0  0  0
  144.3930   80.1259  223.6191 H   0  0  0  0  0  0  0  0  0  0  0  0
  143.0933   82.0674  224.5125 H   0  0  0  0  0  0  0  0  0  0  0  0
  140.6022   82.1664  224.1966 H   0  0  0  0  0  0  0  0  0  0  0  0
  1  2  2  0
  2  3  1  0
  3  4  2  0
  4  5  1  0
  5  6  2  0
  6  7  1  0
  7  8  1  0
  7  9  2  0
  9 10  1  0
 10 11  2  0
 11 12  1  0
  2 13  1  0
 13 14  1  0
 15 14  1  6
 15 16  1  0
 16 17  1  0
 17 18  1  0
 18 19  1  0
 19 20  1  0
 20 21  1  0
 21 22  1  0
 22 23  1  0
 23 24  1  0
 18 25  1  0
 15 26  1  0
 26 27  2  0
 27 28  1  0
 28 29  2  0
 29 30  1  0
 30 31  2  0
 12  3  1  0
 31 13  1  0
 11  5  1  0
 25 15  1  0
 31 26  1  0
 24 19  1  0
  4 32  1  0
  6 33  1  0
  9 34  1  0
 10 35  1  0
 12 36  1  0
 14 37  1  0
 14 38  1  0
 16 39  1  0
 16 40  1  0
 17 41  1  0
 17 42  1  0
 19 43  1  0
 20 44  1  0
 20 45  1  0
 21 46  1  0
 21 47  1  0
 22 48  1  0
 22 49  1  0
 23 50  1  0
 23 51  1  0
 24 52  1  0
 24 53  1  0
 25 54  1  0
 25 55  1  0
 27 56  1  0
 28 57  1  0
 29 58  1  0
 30 59  1  0
M  END
>  <UniqueID>  (70) 
180

>  <SMILES>  (70) 
O=C(c1cc2cc(F)ccc2[nH]1)N1C[C@@]2(CCN(C3CCCCC3)C2)c2ccccc21

>  <Energy>  (70) 
130.9889323576897

>  <Genealogy>  (70) 
O=C(c1cc2cc(F)ccc2[nH]1)N1C[C@@]2(CCN(C3CCCCC3)C2)c2ccccc21 (3D coordinates assigned)
O=C(c1cc2cc(F)ccc2[nH]1)N1C[C@@]2(CCN(C3CCCCC3)C2)c2ccccc21 (nonaromatic ring conformer: 130.9889323576897 kcal/mol)

>  <smiles>  (70) 
O=C(c1cc2cc(F)ccc2[nH]1)N1C[C@@]2(CCN(C3CCCCC3)C2)c2ccccc21

>  <score_type>  (70) 
oracle

>  <origin>  (70) 
autodockgpu

>  <m_score__min__energy>  (70) 
-8.3499999999999996

>  <m_primary>  (70) 
energy

>  <meeko>  (70) 
{"free_energy": -8.14, "intermolecular_energy": -9.04, "internal_energy": -1.3, "cluster_size": 5, "cluster_id": 3, "rank_in_cluster": 2}

>  <energy>  (70) 
-8.33

>  <cluster_rmsd>  (70) 
0.21

>  <rmsd>  (70) 
272.13

>  <cluster>  (70) 
1

$$$$
VDMKUDNKZWHZNN-SANMLTNENA-N
     RDKit          3D

 59 64  0  0  0  0  0  0  0  0999 V2000
  139.0250   75.7470  219.8380 O   0  0  0  0  0  0  0  0  0  0  0  0
  139.9000   75.6340  220.7400 C   0  0  0  0  0  0  0  0  0  0  0  0
  140.5240   76.8460  221.2960 C   0  0  0  0  0  0  0  0  0  0  0  0
  140.8220   77.0400  222.6430 C   0  0  0  0  0  0  0  0  0  0  0  0
  141.3580   78.3060  222.7100 C   0  0  0  0  0  0  0  0  0  0  0  0
  141.8360   79.0340  223.7990 C   0  0  0  0  0  0  0  0  0  0  0  0
  142.3250   80.3310  223.5590 C   0  0  0  0  0  0  0  0  0  0  0  0
  142.8010   81.0740  224.5880 F   0  0  0  0  0  0  0  0  0  0  0  0
  142.3190   80.8660  222.2500 C   0  0  0  0  0  0  0  0  0  0  0  0
  141.8280   80.1070  221.1720 C   0  0  0  0  0  0  0  0  0  0  0  0
  141.3550   78.8230  221.4410 C   0  0  0  0  0  0  0  0  0  0  0  0
  140.8430   77.9420  220.5660 N   0  0  0  0  0  0  0  0  0  0  0  0
  140.2540   74.3300  221.2280 N   0  0  0  0  0  0  0  0  0  0  0  0
  139.5640   73.6770  222.3430 C   0  0  0  0  0  0  0  0  0  0  0  0
  139.9490   72.1570  222.2700 C   0  0  2  0  0  0  0  0  0  0  0  0
  138.7280   71.2430  222.1610 C   0  0  0  0  0  0  0  0  0  0  0  0
  139.1010   69.9960  222.9380 C   0  0  0  0  0  0  0  0  0  0  0  0
  140.1060   70.3770  223.9430 N   0  0  0  0  0  0  0  0  0  0  0  0
  139.5830   70.3660  225.3360 C   0  0  0  0  0  0  0  0  0  0  0  0
  139.1380   68.9350  225.7590 C   0  0  0  0  0  0  0  0  0  0  0  0
  139.9470   68.3700  226.9350 C   0  0  0  0  0  0  0  0  0  0  0  0
  139.9230   69.3060  228.1550 C   0  0  0  0  0  0  0  0  0  0  0  0
  140.0200   70.8040  227.7950 C   0  0  0  0  0  0  0  0  0  0  0  0
  140.5300   71.0400  226.3700 C   0  0  0  0  0  0  0  0  0  0  0  0
  140.7160   71.6500  223.5100 C   0  0  0  0  0  0  0  0  0  0  0  0
  140.8040   72.0940  221.0300 C   0  0  0  0  0  0  0  0  0  0  0  0
  141.4420   70.9840  220.4630 C   0  0  0  0  0  0  0  0  0  0  0  0
  142.2260   71.1680  219.3140 C   0  0  0  0  0  0  0  0  0  0  0  0
  142.3720   72.4500  218.7550 C   0  0  0  0  0  0  0  0  0  0  0  0
  141.7330   73.5530  219.3420 C   0  0  0  0  0  0  0  0  0  0  0  0
  140.9440   73.3420  220.4790 C   0  0  0  0  0  0  0  0  0  0  0  0
  140.6635   76.3350  223.4724 H   0  0  0  0  0  0  0  0  0  0  0  0
  141.8309   78.6078  224.8131 H   0  0  0  0  0  0  0  0  0  0  0  0
  142.7008   81.8824  222.0735 H   0  0  0  0  0  0  0  0  0  0  0  0
  141.8175   80.5133  220.1498 H   0  0  0  0  0  0  0  0  0  0  0  0
  140.6890   78.0970  219.5440 H   0  0  0  0  0  0  0  0  0  0  0  0
  139.8938   74.1079  223.2998 H   0  0  0  0  0  0  0  0  0  0  0  0
  138.4750   73.8172  222.2764 H   0  0  0  0  0  0  0  0  0  0  0  0
  137.8438   71.7246  222.6040 H   0  0  0  0  0  0  0  0  0  0  0  0
  138.4728   71.0173  221.1151 H   0  0  0  0  0  0  0  0  0  0  0  0
  138.2105   69.5850  223.4362 H   0  0  0  0  0  0  0  0  0  0  0  0
  139.5051   69.2281  222.2619 H   0  0  0  0  0  0  0  0  0  0  0  0
  138.6858   71.0024  225.3358 H   0  0  0  0  0  0  0  0  0  0  0  0
  138.0778   68.9708  226.0499 H   0  0  0  0  0  0  0  0  0  0  0  0
  139.3095   68.2727  224.8977 H   0  0  0  0  0  0  0  0  0  0  0  0
  139.5206   67.3983  227.2248 H   0  0  0  0  0  0  0  0  0  0  0  0
  140.9922   68.2652  226.6084 H   0  0  0  0  0  0  0  0  0  0  0  0
  138.9819   69.1408  228.7000 H   0  0  0  0  0  0  0  0  0  0  0  0
  140.8091   69.0647  228.7605 H   0  0  0  0  0  0  0  0  0  0  0  0
  139.0206   71.2537  227.8896 H   0  0  0  0  0  0  0  0  0  0  0  0
  140.7417   71.2646  228.4857 H   0  0  0  0  0  0  0  0  0  0  0  0
  140.5697   72.1216  226.1738 H   0  0  0  0  0  0  0  0  0  0  0  0
  141.5339   70.6010  226.2732 H   0  0  0  0  0  0  0  0  0  0  0  0
  140.6453   72.3910  224.3199 H   0  0  0  0  0  0  0  0  0  0  0  0
  141.7772   71.4977  223.2635 H   0  0  0  0  0  0  0  0  0  0  0  0
  141.3305   69.9853  220.9105 H   0  0  0  0  0  0  0  0  0  0  0  0
  142.7280   70.3067  218.8490 H   0  0  0  0  0  0  0  0  0  0  0  0
  142.9889   72.5887  217.8549 H   0  0  0  0  0  0  0  0  0  0  0  0
  141.8496   74.5613  218.9180 H   0  0  0  0  0  0  0  0  0  0  0  0
  1  2  2  0
  2  3  1  0
  3  4  2  0
  4  5  1  0
  5  6  2  0
  6  7  1  0
  7  8  1  0
  7  9  2  0
  9 10  1  0
 10 11  2  0
 11 12  1  0
  2 13  1  0
 13 14  1  0
 15 14  1  1
 15 16  1  0
 16 17  1  0
 17 18  1  0
 18 19  1  0
 19 20  1  0
 20 21  1  0
 21 22  1  0
 22 23  1  0
 23 24  1  0
 18 25  1  0
 15 26  1  0
 26 27  2  0
 27 28  1  0
 28 29  2  0
 29 30  1  0
 30 31  2  0
 12  3  1  0
 31 13  1  0
 11  5  1  0
 25 15  1  0
 31 26  1  0
 24 19  1  0
  4 32  1  0
  6 33  1  0
  9 34  1  0
 10 35  1  0
 12 36  1  0
 14 37  1  0
 14 38  1  0
 16 39  1  0
 16 40  1  0
 17 41  1  0
 17 42  1  0
 19 43  1  0
 20 44  1  0
 20 45  1  0
 21 46  1  0
 21 47  1  0
 22 48  1  0
 22 49  1  0
 23 50  1  0
 23 51  1  0
 24 52  1  0
 24 53  1  0
 25 54  1  0
 25 55  1  0
 27 56  1  0
 28 57  1  0
 29 58  1  0
 30 59  1  0
M  END
>  <UniqueID>  (71) 
180

>  <SMILES>  (71) 
O=C(c1cc2cc(F)ccc2[nH]1)N1C[C@@]2(CCN(C3CCCCC3)C2)c2ccccc21

>  <Energy>  (71) 
130.9889323576897

>  <Genealogy>  (71) 
O=C(c1cc2cc(F)ccc2[nH]1)N1C[C@@]2(CCN(C3CCCCC3)C2)c2ccccc21 (3D coordinates assigned)
O=C(c1cc2cc(F)ccc2[nH]1)N1C[C@@]2(CCN(C3CCCCC3)C2)c2ccccc21 (nonaromatic ring conformer: 130.9889323576897 kcal/mol)

>  <smiles>  (71) 
O=C(c1cc2cc(F)ccc2[nH]1)N1C[C@@]2(CCN(C3CCCCC3)C2)c2ccccc21

>  <score_type>  (71) 
oracle

>  <origin>  (71) 
autodockgpu

>  <m_score__min__energy>  (71) 
-8.3499999999999996

>  <m_primary>  (71) 
energy

>  <meeko>  (71) 
{"free_energy": -8.35, "intermolecular_energy": -9.25, "internal_energy": -1.15, "cluster_size": 11, "cluster_id": 1, "rank_in_cluster": 2}

>  <energy>  (71) 
-8.33

>  <cluster_rmsd>  (71) 
0.23

>  <rmsd>  (71) 
272.13

>  <cluster>  (71) 
1

$$$$
VDMKUDNKZWHZNN-SANMLTNENA-N
     RDKit          3D

 59 64  0  0  0  0  0  0  0  0999 V2000
  139.0720   75.6510  219.6950 O   0  0  0  0  0  0  0  0  0  0  0  0
  139.8980   75.5330  220.6400 C   0  0  0  0  0  0  0  0  0  0  0  0
  140.5070   76.7420  221.2200 C   0  0  0  0  0  0  0  0  0  0  0  0
  140.7940   76.9170  222.5730 C   0  0  0  0  0  0  0  0  0  0  0  0
  141.3180   78.1860  222.6650 C   0  0  0  0  0  0  0  0  0  0  0  0
  141.7810   78.9000  223.7680 C   0  0  0  0  0  0  0  0  0  0  0  0
  142.2610   80.2060  223.5530 C   0  0  0  0  0  0  0  0  0  0  0  0
  142.7220   80.9360  224.5980 F   0  0  0  0  0  0  0  0  0  0  0  0
  142.2600   80.7610  222.2530 C   0  0  0  0  0  0  0  0  0  0  0  0
  141.7830   80.0160  221.1590 C   0  0  0  0  0  0  0  0  0  0  0  0
  141.3200   78.7240  221.4040 C   0  0  0  0  0  0  0  0  0  0  0  0
  140.8220   77.8530  220.5110 N   0  0  0  0  0  0  0  0  0  0  0  0
  140.2120   74.2290  221.1530 N   0  0  0  0  0  0  0  0  0  0  0  0
  139.5750   73.6610  222.3440 C   0  0  0  0  0  0  0  0  0  0  0  0
  139.8630   72.1190  222.3040 C   0  0  2  0  0  0  0  0  0  0  0  0
  138.5850   71.2790  222.3280 C   0  0  0  0  0  0  0  0  0  0  0  0
  138.9440   70.0410  223.1250 C   0  0  0  0  0  0  0  0  0  0  0  0
  140.0470   70.3940  224.0320 N   0  0  0  0  0  0  0  0  0  0  0  0
  139.6370   70.4670  225.4610 C   0  0  0  0  0  0  0  0  0  0  0  0
  139.1970   69.0700  225.9910 C   0  0  0  0  0  0  0  0  0  0  0  0
  140.0850   68.5450  227.1270 C   0  0  0  0  0  0  0  0  0  0  0  0
  140.1790   69.5420  228.2950 C   0  0  0  0  0  0  0  0  0  0  0  0
  140.2790   71.0160  227.8510 C   0  0  0  0  0  0  0  0  0  0  0  0
  140.6790   71.1670  226.3800 C   0  0  0  0  0  0  0  0  0  0  0  0
  140.6940   71.6100  223.5010 C   0  0  0  0  0  0  0  0  0  0  0  0
  140.6110   71.9570  221.0060 C   0  0  0  0  0  0  0  0  0  0  0  0
  141.1350   70.7890  220.4370 C   0  0  0  0  0  0  0  0  0  0  0  0
  141.8330   70.8820  219.2240 C   0  0  0  0  0  0  0  0  0  0  0  0
  142.0100   72.1310  218.6030 C   0  0  0  0  0  0  0  0  0  0  0  0
  141.4870   73.2930  219.1920 C   0  0  0  0  0  0  0  0  0  0  0  0
  140.7800   73.1730  220.3940 C   0  0  0  0  0  0  0  0  0  0  0  0
  140.6359   76.1971  223.3895 H   0  0  0  0  0  0  0  0  0  0  0  0
  141.7719   78.4574  224.7750 H   0  0  0  0  0  0  0  0  0  0  0  0
  142.6350   81.7831  222.0955 H   0  0  0  0  0  0  0  0  0  0  0  0
  141.7756   80.4390  220.1436 H   0  0  0  0  0  0  0  0  0  0  0  0
  140.6740   78.0220  219.4910 H   0  0  0  0  0  0  0  0  0  0  0  0
  140.0043   74.1052  223.2541 H   0  0  0  0  0  0  0  0  0  0  0  0
  138.4943   73.8659  222.3557 H   0  0  0  0  0  0  0  0  0  0  0  0
  137.7689   71.8307  222.8175 H   0  0  0  0  0  0  0  0  0  0  0  0
  138.2346   71.0311  221.3152 H   0  0  0  0  0  0  0  0  0  0  0  0
  138.0733   69.7056  223.7076 H   0  0  0  0  0  0  0  0  0  0  0  0
  139.2463   69.2251  222.4519 H   0  0  0  0  0  0  0  0  0  0  0  0
  138.7569   71.1257  225.4996 H   0  0  0  0  0  0  0  0  0  0  0  0
  138.1643   69.1466  226.3620 H   0  0  0  0  0  0  0  0  0  0  0  0
  139.2851   68.3614  225.1543 H   0  0  0  0  0  0  0  0  0  0  0  0
  139.6625   67.6003  227.5000 H   0  0  0  0  0  0  0  0  0  0  0  0
  141.0982   68.3974  226.7248 H   0  0  0  0  0  0  0  0  0  0  0  0
  139.2812   69.4287  228.9204 H   0  0  0  0  0  0  0  0  0  0  0  0
  141.1053   69.3089  228.8405 H   0  0  0  0  0  0  0  0  0  0  0  0
  139.3001   71.4951  228.0000 H   0  0  0  0  0  0  0  0  0  0  0  0
  141.0630   71.4923  228.4580 H   0  0  0  0  0  0  0  0  0  0  0  0
  140.7270   72.2360  226.1252 H   0  0  0  0  0  0  0  0  0  0  0  0
  141.6622   70.6979  226.2272 H   0  0  0  0  0  0  0  0  0  0  0  0
  140.7316   72.3828  224.2829 H   0  0  0  0  0  0  0  0  0  0  0  0
  141.7211   71.3827  223.1795 H   0  0  0  0  0  0  0  0  0  0  0  0
  141.0014   69.8162  220.9328 H   0  0  0  0  0  0  0  0  0  0  0  0
  142.2434   69.9746  218.7569 H   0  0  0  0  0  0  0  0  0  0  0  0
  142.5600   72.1978  217.6527 H   0  0  0  0  0  0  0  0  0  0  0  0
  141.6297   74.2760  218.7194 H   0  0  0  0  0  0  0  0  0  0  0  0
  1  2  2  0
  2  3  1  0
  3  4  2  0
  4  5  1  0
  5  6  2  0
  6  7  1  0
  7  8  1  0
  7  9  2  0
  9 10  1  0
 10 11  2  0
 11 12  1  0
  2 13  1  0
 13 14  1  0
 15 14  1  1
 15 16  1  0
 16 17  1  0
 17 18  1  0
 18 19  1  0
 19 20  1  0
 20 21  1  0
 21 22  1  0
 22 23  1  0
 23 24  1  0
 18 25  1  0
 15 26  1  0
 26 27  2  0
 27 28  1  0
 28 29  2  0
 29 30  1  0
 30 31  2  0
 12  3  1  0
 31 13  1  0
 11  5  1  0
 25 15  1  0
 31 26  1  0
 24 19  1  0
  4 32  1  0
  6 33  1  0
  9 34  1  0
 10 35  1  0
 12 36  1  0
 14 37  1  0
 14 38  1  0
 16 39  1  0
 16 40  1  0
 17 41  1  0
 17 42  1  0
 19 43  1  0
 20 44  1  0
 20 45  1  0
 21 46  1  0
 21 47  1  0
 22 48  1  0
 22 49  1  0
 23 50  1  0
 23 51  1  0
 24 52  1  0
 24 53  1  0
 25 54  1  0
 25 55  1  0
 27 56  1  0
 28 57  1  0
 29 58  1  0
 30 59  1  0
M  END
>  <UniqueID>  (72) 
180

>  <SMILES>  (72) 
O=C(c1cc2cc(F)ccc2[nH]1)N1C[C@@]2(CCN(C3CCCCC3)C2)c2ccccc21

>  <Energy>  (72) 
130.9889323576897

>  <Genealogy>  (72) 
O=C(c1cc2cc(F)ccc2[nH]1)N1C[C@@]2(CCN(C3CCCCC3)C2)c2ccccc21 (3D coordinates assigned)
O=C(c1cc2cc(F)ccc2[nH]1)N1C[C@@]2(CCN(C3CCCCC3)C2)c2ccccc21 (nonaromatic ring conformer: 130.9889323576897 kcal/mol)

>  <smiles>  (72) 
O=C(c1cc2cc(F)ccc2[nH]1)N1C[C@@]2(CCN(C3CCCCC3)C2)c2ccccc21

>  <score_type>  (72) 
oracle

>  <origin>  (72) 
autodockgpu

>  <m_score__min__energy>  (72) 
-8.3499999999999996

>  <m_primary>  (72) 
energy

>  <meeko>  (72) 
{"free_energy": -8.33, "intermolecular_energy": -9.22, "internal_energy": -1.15, "cluster_size": 11, "cluster_id": 1, "rank_in_cluster": 11}

>  <energy>  (72) 
-8.19

>  <cluster_rmsd>  (72) 
0.0

>  <rmsd>  (72) 
272.06

>  <cluster>  (72) 
2

$$$$
VDMKUDNKZWHZNN-SANMLTNENA-N
     RDKit          3D

 59 64  0  0  0  0  0  0  0  0999 V2000
  137.8780   81.8260  221.8400 O   0  0  0  0  0  0  0  0  0  0  0  0
  138.2120   81.2360  222.9040 C   0  0  0  0  0  0  0  0  0  0  0  0
  137.5980   81.6460  224.1780 C   0  0  0  0  0  0  0  0  0  0  0  0
  137.5710   80.8670  225.3340 C   0  0  0  0  0  0  0  0  0  0  0  0
  136.8800   81.6220  226.2550 C   0  0  0  0  0  0  0  0  0  0  0  0
  136.5450   81.3530  227.5810 C   0  0  0  0  0  0  0  0  0  0  0  0
  135.8130   82.3280  228.2850 C   0  0  0  0  0  0  0  0  0  0  0  0
  135.4670   82.1090  229.5770 F   0  0  0  0  0  0  0  0  0  0  0  0
  135.4330   83.5320  227.6490 C   0  0  0  0  0  0  0  0  0  0  0  0
  135.7840   83.7730  226.3080 C   0  0  0  0  0  0  0  0  0  0  0  0
  136.5140   82.7900  225.6390 C   0  0  0  0  0  0  0  0  0  0  0  0
  136.9430   82.8160  224.3670 N   0  0  0  0  0  0  0  0  0  0  0  0
  139.1610   80.1600  222.8530 N   0  0  0  0  0  0  0  0  0  0  0  0
  138.9350   78.9250  222.0970 C   0  0  0  0  0  0  0  0  0  0  0  0
  140.3360   78.2350  221.9510 C   0  0  2  0  0  0  0  0  0  0  0  0
  140.7230   77.9880  220.4910 C   0  0  0  0  0  0  0  0  0  0  0  0
  141.4960   76.6840  220.5060 C   0  0  0  0  0  0  0  0  0  0  0  0
  141.0480   75.9090  221.6730 N   0  0  0  0  0  0  0  0  0  0  0  0
  140.2220   74.7240  221.3130 C   0  0  0  0  0  0  0  0  0  0  0  0
  140.9930   73.3980  221.5850 C   0  0  0  0  0  0  0  0  0  0  0  0
  140.3220   72.5130  222.6450 C   0  0  0  0  0  0  0  0  0  0  0  0
  138.8570   72.2040  222.2960 C   0  0  0  0  0  0  0  0  0  0  0  0
  138.0930   73.4000  221.6880 C   0  0  0  0  0  0  0  0  0  0  0  0
  138.7960   74.7390  221.9340 C   0  0  0  0  0  0  0  0  0  0  0  0
  140.4200   76.8480  222.6230 C   0  0  0  0  0  0  0  0  0  0  0  0
  141.2610   79.2240  222.6120 C   0  0  0  0  0  0  0  0  0  0  0  0
  142.6480   79.1420  222.7900 C   0  0  0  0  0  0  0  0  0  0  0  0
  143.3040   80.1760  223.4740 C   0  0  0  0  0  0  0  0  0  0  0  0
  142.5730   81.2650  223.9800 C   0  0  0  0  0  0  0  0  0  0  0  0
  141.1830   81.3260  223.8020 C   0  0  0  0  0  0  0  0  0  0  0  0
  140.5520   80.2910  223.1020 C   0  0  0  0  0  0  0  0  0  0  0  0
  138.0067   79.8674  225.4787 H   0  0  0  0  0  0  0  0  0  0  0  0
  136.8429   80.4095  228.0618 H   0  0  0  0  0  0  0  0  0  0  0  0
  134.8585   84.2862  228.2068 H   0  0  0  0  0  0  0  0  0  0  0  0
  135.4924   84.7060  225.8035 H   0  0  0  0  0  0  0  0  0  0  0  0
  136.7660   83.5700  223.6660 H   0  0  0  0  0  0  0  0  0  0  0  0
  138.2413   78.2671  222.6410 H   0  0  0  0  0  0  0  0  0  0  0  0
  138.4883   79.1344  221.1138 H   0  0  0  0  0  0  0  0  0  0  0  0
  139.8246   77.8978  219.8627 H   0  0  0  0  0  0  0  0  0  0  0  0
  141.3162   78.8156  220.0748 H   0  0  0  0  0  0  0  0  0  0  0  0
  141.2961   76.1199  219.5831 H   0  0  0  0  0  0  0  0  0  0  0  0
  142.5769   76.8788  220.5662 H   0  0  0  0  0  0  0  0  0  0  0  0
  140.0452   74.7845  220.2290 H   0  0  0  0  0  0  0  0  0  0  0  0
  141.0549   72.8307  220.6446 H   0  0  0  0  0  0  0  0  0  0  0  0
  141.9866   73.6714  221.9697 H   0  0  0  0  0  0  0  0  0  0  0  0
  140.8765   71.5659  222.7192 H   0  0  0  0  0  0  0  0  0  0  0  0
  140.3353   73.0586  223.6001 H   0  0  0  0  0  0  0  0  0  0  0  0
  138.8408   71.3776  221.5702 H   0  0  0  0  0  0  0  0  0  0  0  0
  138.3513   71.9481  223.2388 H   0  0  0  0  0  0  0  0  0  0  0  0
  138.0024   73.2445  220.6028 H   0  0  0  0  0  0  0  0  0  0  0  0
  137.1085   73.4476  222.1763 H   0  0  0  0  0  0  0  0  0  0  0  0
  138.2085   75.5470  221.4735 H   0  0  0  0  0  0  0  0  0  0  0  0
  138.8804   74.9042  223.0183 H   0  0  0  0  0  0  0  0  0  0  0  0
  139.4094   76.4972  222.8793 H   0  0  0  0  0  0  0  0  0  0  0  0
  141.0168   76.9095  223.5450 H   0  0  0  0  0  0  0  0  0  0  0  0
  143.2126   78.2821  222.4003 H   0  0  0  0  0  0  0  0  0  0  0  0
  144.3941   80.1347  223.6150 H   0  0  0  0  0  0  0  0  0  0  0  0
  143.0928   82.0719  224.5173 H   0  0  0  0  0  0  0  0  0  0  0  0
  140.6015   82.1688  224.2038 H   0  0  0  0  0  0  0  0  0  0  0  0
  1  2  2  0
  2  3  1  0
  3  4  2  0
  4  5  1  0
  5  6  2  0
  6  7  1  0
  7  8  1  0
  7  9  2  0
  9 10  1  0
 10 11  2  0
 11 12  1  0
  2 13  1  0
 13 14  1  0
 15 14  1  6
 15 16  1  0
 16 17  1  0
 17 18  1  0
 18 19  1  0
 19 20  1  0
 20 21  1  0
 21 22  1  0
 22 23  1  0
 23 24  1  0
 18 25  1  0
 15 26  1  0
 26 27  2  0
 27 28  1  0
 28 29  2  0
 29 30  1  0
 30 31  2  0
 12  3  1  0
 31 13  1  0
 11  5  1  0
 25 15  1  0
 31 26  1  0
 24 19  1  0
  4 32  1  0
  6 33  1  0
  9 34  1  0
 10 35  1  0
 12 36  1  0
 14 37  1  0
 14 38  1  0
 16 39  1  0
 16 40  1  0
 17 41  1  0
 17 42  1  0
 19 43  1  0
 20 44  1  0
 20 45  1  0
 21 46  1  0
 21 47  1  0
 22 48  1  0
 22 49  1  0
 23 50  1  0
 23 51  1  0
 24 52  1  0
 24 53  1  0
 25 54  1  0
 25 55  1  0
 27 56  1  0
 28 57  1  0
 29 58  1  0
 30 59  1  0
M  END
>  <UniqueID>  (73) 
180

>  <SMILES>  (73) 
O=C(c1cc2cc(F)ccc2[nH]1)N1C[C@@]2(CCN(C3CCCCC3)C2)c2ccccc21

>  <Energy>  (73) 
130.9889323576897

>  <Genealogy>  (73) 
O=C(c1cc2cc(F)ccc2[nH]1)N1C[C@@]2(CCN(C3CCCCC3)C2)c2ccccc21 (3D coordinates assigned)
O=C(c1cc2cc(F)ccc2[nH]1)N1C[C@@]2(CCN(C3CCCCC3)C2)c2ccccc21 (nonaromatic ring conformer: 130.9889323576897 kcal/mol)

>  <smiles>  (73) 
O=C(c1cc2cc(F)ccc2[nH]1)N1C[C@@]2(CCN(C3CCCCC3)C2)c2ccccc21

>  <score_type>  (73) 
oracle

>  <origin>  (73) 
autodockgpu

>  <m_score__min__energy>  (73) 
-8.3499999999999996

>  <m_primary>  (73) 
energy

>  <meeko>  (73) 
{"free_energy": -8.14, "intermolecular_energy": -9.04, "internal_energy": -1.3, "cluster_size": 5, "cluster_id": 3, "rank_in_cluster": 4}

>  <energy>  (73) 
-8.18

>  <cluster_rmsd>  (73) 
0.17

>  <rmsd>  (73) 
272.1

>  <cluster>  (73) 
2

$$$$
VDMKUDNKZWHZNN-SANMLTNENA-N
     RDKit          3D

 59 64  0  0  0  0  0  0  0  0999 V2000
  139.0130   75.7340  219.8610 O   0  0  0  0  0  0  0  0  0  0  0  0
  139.8930   75.6210  220.7580 C   0  0  0  0  0  0  0  0  0  0  0  0
  140.5190   76.8350  221.3110 C   0  0  0  0  0  0  0  0  0  0  0  0
  140.8170   77.0320  222.6570 C   0  0  0  0  0  0  0  0  0  0  0  0
  141.3550   78.2970  222.7210 C   0  0  0  0  0  0  0  0  0  0  0  0
  141.8330   79.0270  223.8080 C   0  0  0  0  0  0  0  0  0  0  0  0
  142.3250   80.3230  223.5650 C   0  0  0  0  0  0  0  0  0  0  0  0
  142.8010   81.0680  224.5930 F   0  0  0  0  0  0  0  0  0  0  0  0
  142.3200   80.8540  222.2550 C   0  0  0  0  0  0  0  0  0  0  0  0
  141.8280   80.0930  221.1780 C   0  0  0  0  0  0  0  0  0  0  0  0
  141.3530   78.8110  221.4510 C   0  0  0  0  0  0  0  0  0  0  0  0
  140.8400   77.9280  220.5780 N   0  0  0  0  0  0  0  0  0  0  0  0
  140.2520   74.3180  221.2430 N   0  0  0  0  0  0  0  0  0  0  0  0
  139.5560   73.6550  222.3490 C   0  0  0  0  0  0  0  0  0  0  0  0
  139.9520   72.1390  222.2730 C   0  0  2  0  0  0  0  0  0  0  0  0
  138.7380   71.2170  222.1510 C   0  0  0  0  0  0  0  0  0  0  0  0
  139.1130   69.9690  222.9260 C   0  0  0  0  0  0  0  0  0  0  0  0
  140.1080   70.3520  223.9400 N   0  0  0  0  0  0  0  0  0  0  0  0
  139.5730   70.3320  225.3290 C   0  0  0  0  0  0  0  0  0  0  0  0
  139.1410   68.8950  225.7450 C   0  0  0  0  0  0  0  0  0  0  0  0
  139.9470   68.3360  226.9260 C   0  0  0  0  0  0  0  0  0  0  0  0
  139.9020   69.2690  228.1470 C   0  0  0  0  0  0  0  0  0  0  0  0
  139.9850   70.7690  227.7920 C   0  0  0  0  0  0  0  0  0  0  0  0
  140.5050   71.0140  226.3720 C   0  0  0  0  0  0  0  0  0  0  0  0
  140.7120   71.6310  223.5170 C   0  0  0  0  0  0  0  0  0  0  0  0
  140.8180   72.0860  221.0410 C   0  0  0  0  0  0  0  0  0  0  0  0
  141.4680   70.9830  220.4740 C   0  0  0  0  0  0  0  0  0  0  0  0
  142.2590   71.1780  219.3320 C   0  0  0  0  0  0  0  0  0  0  0  0
  142.4010   72.4630  218.7800 C   0  0  0  0  0  0  0  0  0  0  0  0
  141.7510   73.5590  219.3660 C   0  0  0  0  0  0  0  0  0  0  0  0
  140.9540   73.3380  220.4960 C   0  0  0  0  0  0  0  0  0  0  0  0
  140.6571   76.3294  223.4881 H   0  0  0  0  0  0  0  0  0  0  0  0
  141.8259   78.6037  224.8233 H   0  0  0  0  0  0  0  0  0  0  0  0
  142.7034   81.8693  222.0760 H   0  0  0  0  0  0  0  0  0  0  0  0
  141.8186   80.4965  220.1547 H   0  0  0  0  0  0  0  0  0  0  0  0
  140.6860   78.0800  219.5560 H   0  0  0  0  0  0  0  0  0  0  0  0
  139.8739   74.0839  223.3108 H   0  0  0  0  0  0  0  0  0  0  0  0
  138.4667   73.7879  222.2728 H   0  0  0  0  0  0  0  0  0  0  0  0
  137.8472   71.6909  222.5890 H   0  0  0  0  0  0  0  0  0  0  0  0
  138.4927   70.9937  221.1022 H   0  0  0  0  0  0  0  0  0  0  0  0
  138.2214   69.5505  223.4158 H   0  0  0  0  0  0  0  0  0  0  0  0
  139.5270   69.2064  222.2499 H   0  0  0  0  0  0  0  0  0  0  0  0
  138.6685   70.9579  225.3233 H   0  0  0  0  0  0  0  0  0  0  0  0
  138.0782   68.9181  226.0276 H   0  0  0  0  0  0  0  0  0  0  0  0
  139.3269   68.2369  224.8834 H   0  0  0  0  0  0  0  0  0  0  0  0
  139.5294   67.3588  227.2101 H   0  0  0  0  0  0  0  0  0  0  0  0
  140.9959   68.2431  226.6079 H   0  0  0  0  0  0  0  0  0  0  0  0
  138.9582   69.0919  228.6835 H   0  0  0  0  0  0  0  0  0  0  0  0
  140.7860   69.0365  228.7590 H   0  0  0  0  0  0  0  0  0  0  0  0
  138.9797   71.2071  227.8788 H   0  0  0  0  0  0  0  0  0  0  0  0
  140.6949   71.2363  228.4904 H   0  0  0  0  0  0  0  0  0  0  0  0
  140.5350   72.0964  226.1785 H   0  0  0  0  0  0  0  0  0  0  0  0
  141.5146   70.5865  226.2825 H   0  0  0  0  0  0  0  0  0  0  0  0
  140.6296   72.3678  224.3296 H   0  0  0  0  0  0  0  0  0  0  0  0
  141.7759   71.4865  223.2779 H   0  0  0  0  0  0  0  0  0  0  0  0
  141.3603   69.9815  220.9161 H   0  0  0  0  0  0  0  0  0  0  0  0
  142.7700   70.3222  218.8667 H   0  0  0  0  0  0  0  0  0  0  0  0
  143.0241   72.6094  217.8854 H   0  0  0  0  0  0  0  0  0  0  0  0
  141.8648   74.5698  218.9472 H   0  0  0  0  0  0  0  0  0  0  0  0
  1  2  2  0
  2  3  1  0
  3  4  2  0
  4  5  1  0
  5  6  2  0
  6  7  1  0
  7  8  1  0
  7  9  2  0
  9 10  1  0
 10 11  2  0
 11 12  1  0
  2 13  1  0
 13 14  1  0
 15 14  1  1
 15 16  1  0
 16 17  1  0
 17 18  1  0
 18 19  1  0
 19 20  1  0
 20 21  1  0
 21 22  1  0
 22 23  1  0
 23 24  1  0
 18 25  1  0
 15 26  1  0
 26 27  2  0
 27 28  1  0
 28 29  2  0
 29 30  1  0
 30 31  2  0
 12  3  1  0
 31 13  1  0
 11  5  1  0
 25 15  1  0
 31 26  1  0
 24 19  1  0
  4 32  1  0
  6 33  1  0
  9 34  1  0
 10 35  1  0
 12 36  1  0
 14 37  1  0
 14 38  1  0
 16 39  1  0
 16 40  1  0
 17 41  1  0
 17 42  1  0
 19 43  1  0
 20 44  1  0
 20 45  1  0
 21 46  1  0
 21 47  1  0
 22 48  1  0
 22 49  1  0
 23 50  1  0
 23 51  1  0
 24 52  1  0
 24 53  1  0
 25 54  1  0
 25 55  1  0
 27 56  1  0
 28 57  1  0
 29 58  1  0
 30 59  1  0
M  END
>  <UniqueID>  (74) 
180

>  <SMILES>  (74) 
O=C(c1cc2cc(F)ccc2[nH]1)N1C[C@@]2(CCN(C3CCCCC3)C2)c2ccccc21

>  <Energy>  (74) 
130.9889323576897

>  <Genealogy>  (74) 
O=C(c1cc2cc(F)ccc2[nH]1)N1C[C@@]2(CCN(C3CCCCC3)C2)c2ccccc21 (3D coordinates assigned)
O=C(c1cc2cc(F)ccc2[nH]1)N1C[C@@]2(CCN(C3CCCCC3)C2)c2ccccc21 (nonaromatic ring conformer: 130.9889323576897 kcal/mol)

>  <smiles>  (74) 
O=C(c1cc2cc(F)ccc2[nH]1)N1C[C@@]2(CCN(C3CCCCC3)C2)c2ccccc21

>  <score_type>  (74) 
oracle

>  <origin>  (74) 
autodockgpu

>  <m_score__min__energy>  (74) 
-8.3499999999999996

>  <m_primary>  (74) 
energy

>  <meeko>  (74) 
{"free_energy": -8.35, "intermolecular_energy": -9.24, "internal_energy": -1.15, "cluster_size": 11, "cluster_id": 1, "rank_in_cluster": 4}

>  <energy>  (74) 
-8.14

>  <cluster_rmsd>  (74) 
0.15

>  <rmsd>  (74) 
272.11

>  <cluster>  (74) 
2

$$$$
VDMKUDNKZWHZNN-SANMLTNENA-N
     RDKit          3D

 59 64  0  0  0  0  0  0  0  0999 V2000
  139.0800   75.6240  219.7060 O   0  0  0  0  0  0  0  0  0  0  0  0
  139.9140   75.5110  220.6450 C   0  0  0  0  0  0  0  0  0  0  0  0
  140.5250   76.7230  221.2160 C   0  0  0  0  0  0  0  0  0  0  0  0
  140.8080   76.9080  222.5680 C   0  0  0  0  0  0  0  0  0  0  0  0
  141.3360   78.1770  222.6500 C   0  0  0  0  0  0  0  0  0  0  0  0
  141.7980   78.8990  223.7490 C   0  0  0  0  0  0  0  0  0  0  0  0
  142.2820   80.2020  223.5240 C   0  0  0  0  0  0  0  0  0  0  0  0
  142.7420   80.9390  224.5640 F   0  0  0  0  0  0  0  0  0  0  0  0
  142.2860   80.7460  222.2190 C   0  0  0  0  0  0  0  0  0  0  0  0
  141.8100   79.9930  221.1300 C   0  0  0  0  0  0  0  0  0  0  0  0
  141.3420   78.7040  221.3850 C   0  0  0  0  0  0  0  0  0  0  0  0
  140.8450   77.8270  220.4980 N   0  0  0  0  0  0  0  0  0  0  0  0
  140.2350   74.2090  221.1590 N   0  0  0  0  0  0  0  0  0  0  0  0
  139.5920   73.6340  222.3430 C   0  0  0  0  0  0  0  0  0  0  0  0
  139.8940   72.0940  222.3050 C   0  0  2  0  0  0  0  0  0  0  0  0
  138.6230   71.2430  222.3150 C   0  0  0  0  0  0  0  0  0  0  0  0
  138.9860   70.0070  223.1140 C   0  0  0  0  0  0  0  0  0  0  0  0
  140.0770   70.3700  224.0320 N   0  0  0  0  0  0  0  0  0  0  0  0
  139.6520   70.4370  225.4570 C   0  0  0  0  0  0  0  0  0  0  0  0
  139.1990   69.0400  225.9760 C   0  0  0  0  0  0  0  0  0  0  0  0
  140.0720   68.5040  227.1180 C   0  0  0  0  0  0  0  0  0  0  0  0
  140.1590   69.4940  228.2920 C   0  0  0  0  0  0  0  0  0  0  0  0
  140.2710   70.9700  227.8570 C   0  0  0  0  0  0  0  0  0  0  0  0
  140.6880   71.1270  226.3910 C   0  0  0  0  0  0  0  0  0  0  0  0
  140.7180   71.5920  223.5090 C   0  0  0  0  0  0  0  0  0  0  0  0
  140.6560   71.9410  221.0130 C   0  0  0  0  0  0  0  0  0  0  0  0
  141.1960   70.7790  220.4490 C   0  0  0  0  0  0  0  0  0  0  0  0
  141.9060   70.8800  219.2430 C   0  0  0  0  0  0  0  0  0  0  0  0
  142.0770   72.1310  218.6250 C   0  0  0  0  0  0  0  0  0  0  0  0
  141.5370   73.2870  219.2100 C   0  0  0  0  0  0  0  0  0  0  0  0
  140.8200   73.1590  220.4050 C   0  0  0  0  0  0  0  0  0  0  0  0
  140.6451   76.1957  223.3902 H   0  0  0  0  0  0  0  0  0  0  0  0
  141.7850   78.4649  224.7596 H   0  0  0  0  0  0  0  0  0  0  0  0
  142.6641   81.7657  222.0538 H   0  0  0  0  0  0  0  0  0  0  0  0
  141.8070   80.4072  220.1110 H   0  0  0  0  0  0  0  0  0  0  0  0
  140.7000   77.9880  219.4760 H   0  0  0  0  0  0  0  0  0  0  0  0
  140.0086   74.0813  223.2576 H   0  0  0  0  0  0  0  0  0  0  0  0
  138.5094   73.8290  222.3441 H   0  0  0  0  0  0  0  0  0  0  0  0
  137.7973   71.7867  222.7973 H   0  0  0  0  0  0  0  0  0  0  0  0
  138.2841   70.9937  221.2986 H   0  0  0  0  0  0  0  0  0  0  0  0
  138.1130   69.6625  223.6878 H   0  0  0  0  0  0  0  0  0  0  0  0
  139.3022   69.1947  222.4431 H   0  0  0  0  0  0  0  0  0  0  0  0
  138.7744   71.0994  225.4888 H   0  0  0  0  0  0  0  0  0  0  0  0
  138.1631   69.1208  226.3370 H   0  0  0  0  0  0  0  0  0  0  0  0
  139.2920   68.3351  225.1367 H   0  0  0  0  0  0  0  0  0  0  0  0
  139.6405   67.5596  227.4813 H   0  0  0  0  0  0  0  0  0  0  0  0
  141.0885   68.3529  226.7257 H   0  0  0  0  0  0  0  0  0  0  0  0
  139.2543   69.3819  228.9076 H   0  0  0  0  0  0  0  0  0  0  0  0
  141.0785   69.2533  228.8457 H   0  0  0  0  0  0  0  0  0  0  0  0
  139.2928   71.4531  227.9978 H   0  0  0  0  0  0  0  0  0  0  0  0
  141.0506   71.4392  228.4751 H   0  0  0  0  0  0  0  0  0  0  0  0
  140.7442   72.1971  226.1425 H   0  0  0  0  0  0  0  0  0  0  0  0
  141.6705   70.6540  226.2462 H   0  0  0  0  0  0  0  0  0  0  0  0
  140.7409   72.3643  224.2920 H   0  0  0  0  0  0  0  0  0  0  0  0
  141.7504   71.3748  223.1976 H   0  0  0  0  0  0  0  0  0  0  0  0
  141.0660   69.8045  220.9424 H   0  0  0  0  0  0  0  0  0  0  0  0
  142.3303   69.9771  218.7795 H   0  0  0  0  0  0  0  0  0  0  0  0
  142.6356   72.2042  217.6802 H   0  0  0  0  0  0  0  0  0  0  0  0
  141.6744   74.2718  218.7396 H   0  0  0  0  0  0  0  0  0  0  0  0
  1  2  2  0
  2  3  1  0
  3  4  2  0
  4  5  1  0
  5  6  2  0
  6  7  1  0
  7  8  1  0
  7  9  2  0
  9 10  1  0
 10 11  2  0
 11 12  1  0
  2 13  1  0
 13 14  1  0
 15 14  1  1
 15 16  1  0
 16 17  1  0
 17 18  1  0
 18 19  1  0
 19 20  1  0
 20 21  1  0
 21 22  1  0
 22 23  1  0
 23 24  1  0
 18 25  1  0
 15 26  1  0
 26 27  2  0
 27 28  1  0
 28 29  2  0
 29 30  1  0
 30 31  2  0
 12  3  1  0
 31 13  1  0
 11  5  1  0
 25 15  1  0
 31 26  1  0
 24 19  1  0
  4 32  1  0
  6 33  1  0
  9 34  1  0
 10 35  1  0
 12 36  1  0
 14 37  1  0
 14 38  1  0
 16 39  1  0
 16 40  1  0
 17 41  1  0
 17 42  1  0
 19 43  1  0
 20 44  1  0
 20 45  1  0
 21 46  1  0
 21 47  1  0
 22 48  1  0
 22 49  1  0
 23 50  1  0
 23 51  1  0
 24 52  1  0
 24 53  1  0
 25 54  1  0
 25 55  1  0
 27 56  1  0
 28 57  1  0
 29 58  1  0
 30 59  1  0
M  END
>  <UniqueID>  (75) 
180

>  <SMILES>  (75) 
O=C(c1cc2cc(F)ccc2[nH]1)N1C[C@@]2(CCN(C3CCCCC3)C2)c2ccccc21

>  <Energy>  (75) 
130.9889323576897

>  <Genealogy>  (75) 
O=C(c1cc2cc(F)ccc2[nH]1)N1C[C@@]2(CCN(C3CCCCC3)C2)c2ccccc21 (3D coordinates assigned)
O=C(c1cc2cc(F)ccc2[nH]1)N1C[C@@]2(CCN(C3CCCCC3)C2)c2ccccc21 (nonaromatic ring conformer: 130.9889323576897 kcal/mol)

>  <smiles>  (75) 
O=C(c1cc2cc(F)ccc2[nH]1)N1C[C@@]2(CCN(C3CCCCC3)C2)c2ccccc21

>  <score_type>  (75) 
oracle

>  <origin>  (75) 
autodockgpu

>  <m_score__min__energy>  (75) 
-8.3499999999999996

>  <m_primary>  (75) 
energy

>  <meeko>  (75) 
{"free_energy": -8.33, "intermolecular_energy": -9.23, "internal_energy": -1.15, "cluster_size": 11, "cluster_id": 1, "rank_in_cluster": 10}

>  <energy>  (75) 
-8.14

>  <cluster_rmsd>  (75) 
0.0

>  <rmsd>  (75) 
273.64

>  <cluster>  (75) 
3

$$$$
VDMKUDNKZWHZNN-SANMLTNENA-N
     RDKit          3D

 59 64  0  0  0  0  0  0  0  0999 V2000
  140.0110   74.2800  221.9410 O   0  0  0  0  0  0  0  0  0  0  0  0
  140.9550   74.8850  221.3620 C   0  0  0  0  0  0  0  0  0  0  0  0
  142.1400   74.1240  220.9300 C   0  0  0  0  0  0  0  0  0  0  0  0
  142.1400   72.7690  220.6060 C   0  0  0  0  0  0  0  0  0  0  0  0
  143.4490   72.4780  220.2940 C   0  0  0  0  0  0  0  0  0  0  0  0
  144.0430   71.2810  219.8970 C   0  0  0  0  0  0  0  0  0  0  0  0
  145.4290   71.2860  219.6500 C   0  0  0  0  0  0  0  0  0  0  0  0
  146.0480   70.1440  219.2610 F   0  0  0  0  0  0  0  0  0  0  0  0
  146.1790   72.4730  219.8110 C   0  0  0  0  0  0  0  0  0  0  0  0
  145.5500   73.6650  220.2150 C   0  0  0  0  0  0  0  0  0  0  0  0
  144.1750   73.6300  220.4460 C   0  0  0  0  0  0  0  0  0  0  0  0
  143.3880   74.6440  220.8400 N   0  0  0  0  0  0  0  0  0  0  0  0
  140.8490   76.2940  221.1100 N   0  0  0  0  0  0  0  0  0  0  0  0
  140.4890   77.2690  222.1420 C   0  0  0  0  0  0  0  0  0  0  0  0
  140.9010   78.6760  221.5840 C   0  0  2  0  0  0  0  0  0  0  0  0
  141.8750   79.4150  222.5040 C   0  0  0  0  0  0  0  0  0  0  0  0
  141.5050   80.8790  222.3710 C   0  0  0  0  0  0  0  0  0  0  0  0
  140.0880   80.9510  221.9800 N   0  0  0  0  0  0  0  0  0  0  0  0
  139.1990   81.4410  223.0690 C   0  0  0  0  0  0  0  0  0  0  0  0
  137.9890   82.2340  222.4930 C   0  0  0  0  0  0  0  0  0  0  0  0
  136.6340   81.5820  222.8010 C   0  0  0  0  0  0  0  0  0  0  0  0
  136.4360   81.3470  224.3080 C   0  0  0  0  0  0  0  0  0  0  0  0
  137.7090   80.8720  225.0390 C   0  0  0  0  0  0  0  0  0  0  0  0
  138.7790   80.3380  224.0820 C   0  0  0  0  0  0  0  0  0  0  0  0
  139.7150   79.6460  221.4010 C   0  0  0  0  0  0  0  0  0  0  0  0
  141.5380   78.3310  220.2620 C   0  0  0  0  0  0  0  0  0  0  0  0
  142.0930   79.1920  219.3070 C   0  0  0  0  0  0  0  0  0  0  0  0
  142.6030   78.6460  218.1190 C   0  0  0  0  0  0  0  0  0  0  0  0
  142.5430   77.2590  217.8950 C   0  0  0  0  0  0  0  0  0  0  0  0
  141.9740   76.4130  218.8580 C   0  0  0  0  0  0  0  0  0  0  0  0
  141.4860   76.9790  220.0420 C   0  0  0  0  0  0  0  0  0  0  0  0
  141.2813   72.0815  220.6006 H   0  0  0  0  0  0  0  0  0  0  0  0
  143.4484   70.3629  219.7806 H   0  0  0  0  0  0  0  0  0  0  0  0
  147.2621   72.4649  219.6191 H   0  0  0  0  0  0  0  0  0  0  0  0
  146.1241   74.5943  220.3444 H   0  0  0  0  0  0  0  0  0  0  0  0
  143.6930   75.6170  221.0670 H   0  0  0  0  0  0  0  0  0  0  0  0
  139.4063   77.2378  222.3339 H   0  0  0  0  0  0  0  0  0  0  0  0
  140.9992   77.0514  223.0919 H   0  0  0  0  0  0  0  0  0  0  0  0
  141.7549   79.0787  223.5444 H   0  0  0  0  0  0  0  0  0  0  0  0
  142.9241   79.2273  222.2318 H   0  0  0  0  0  0  0  0  0  0  0  0
  141.6543   81.3916  223.3327 H   0  0  0  0  0  0  0  0  0  0  0  0
  142.1375   81.3681  221.6155 H   0  0  0  0  0  0  0  0  0  0  0  0
  139.7970   82.1442  223.6673 H   0  0  0  0  0  0  0  0  0  0  0  0
  137.9963   83.2452  222.9258 H   0  0  0  0  0  0  0  0  0  0  0  0
  138.1014   82.2507  221.3989 H   0  0  0  0  0  0  0  0  0  0  0  0
  135.8321   82.2405  222.4360 H   0  0  0  0  0  0  0  0  0  0  0  0
  136.6059   80.6039  222.2984 H   0  0  0  0  0  0  0  0  0  0  0  0
  136.1059   82.2914  224.7654 H   0  0  0  0  0  0  0  0  0  0  0  0
  135.6905   80.5448  224.4109 H   0  0  0  0  0  0  0  0  0  0  0  0
  138.1300   81.7202  225.5988 H   0  0  0  0  0  0  0  0  0  0  0  0
  137.4193   80.0464  225.7057 H   0  0  0  0  0  0  0  0  0  0  0  0
  139.6595   80.0238  224.6616 H   0  0  0  0  0  0  0  0  0  0  0  0
  138.3668   79.4822  223.5273 H   0  0  0  0  0  0  0  0  0  0  0  0
  138.8281   79.2502  221.9174 H   0  0  0  0  0  0  0  0  0  0  0  0
  139.4805   79.7595  220.3323 H   0  0  0  0  0  0  0  0  0  0  0  0
  142.1286   80.2769  219.4849 H   0  0  0  0  0  0  0  0  0  0  0  0
  143.0510   79.3050  217.3607 H   0  0  0  0  0  0  0  0  0  0  0  0
  142.9435   76.8364  216.9617 H   0  0  0  0  0  0  0  0  0  0  0  0
  141.9124   75.3282  218.6868 H   0  0  0  0  0  0  0  0  0  0  0  0
  1  2  2  0
  2  3  1  0
  3  4  2  0
  4  5  1  0
  5  6  2  0
  6  7  1  0
  7  8  1  0
  7  9  2  0
  9 10  1  0
 10 11  2  0
 11 12  1  0
  2 13  1  0
 13 14  1  0
 15 14  1  1
 15 16  1  0
 16 17  1  0
 17 18  1  0
 18 19  1  0
 19 20  1  0
 20 21  1  0
 21 22  1  0
 22 23  1  0
 23 24  1  0
 18 25  1  0
 15 26  1  0
 26 27  2  0
 27 28  1  0
 28 29  2  0
 29 30  1  0
 30 31  2  0
 12  3  1  0
 31 13  1  0
 11  5  1  0
 25 15  1  0
 31 26  1  0
 24 19  1  0
  4 32  1  0
  6 33  1  0
  9 34  1  0
 10 35  1  0
 12 36  1  0
 14 37  1  0
 14 38  1  0
 16 39  1  0
 16 40  1  0
 17 41  1  0
 17 42  1  0
 19 43  1  0
 20 44  1  0
 20 45  1  0
 21 46  1  0
 21 47  1  0
 22 48  1  0
 22 49  1  0
 23 50  1  0
 23 51  1  0
 24 52  1  0
 24 53  1  0
 25 54  1  0
 25 55  1  0
 27 56  1  0
 28 57  1  0
 29 58  1  0
 30 59  1  0
M  END
>  <UniqueID>  (76) 
180

>  <SMILES>  (76) 
O=C(c1cc2cc(F)ccc2[nH]1)N1C[C@@]2(CCN(C3CCCCC3)C2)c2ccccc21

>  <Energy>  (76) 
130.9889323576897

>  <Genealogy>  (76) 
O=C(c1cc2cc(F)ccc2[nH]1)N1C[C@@]2(CCN(C3CCCCC3)C2)c2ccccc21 (3D coordinates assigned)
O=C(c1cc2cc(F)ccc2[nH]1)N1C[C@@]2(CCN(C3CCCCC3)C2)c2ccccc21 (nonaromatic ring conformer: 130.9889323576897 kcal/mol)

>  <smiles>  (76) 
O=C(c1cc2cc(F)ccc2[nH]1)N1C[C@@]2(CCN(C3CCCCC3)C2)c2ccccc21

>  <score_type>  (76) 
oracle

>  <origin>  (76) 
autodockgpu

>  <m_score__min__energy>  (76) 
-8.3499999999999996

>  <m_primary>  (76) 
energy

>  <meeko>  (76) 
{"free_energy": -8.14, "intermolecular_energy": -9.03, "internal_energy": -1.29, "cluster_size": 3, "cluster_id": 2, "rank_in_cluster": 3}

>  <energy>  (76) 
-8.14

>  <cluster_rmsd>  (76) 
0.04

>  <rmsd>  (76) 
273.67

>  <cluster>  (76) 
3

$$$$
VDMKUDNKZWHZNN-SANMLTNENA-N
     RDKit          3D

 59 64  0  0  0  0  0  0  0  0999 V2000
  137.8890   81.8260  221.8370 O   0  0  0  0  0  0  0  0  0  0  0  0
  138.2210   81.2350  222.9010 C   0  0  0  0  0  0  0  0  0  0  0  0
  137.6060   81.6430  224.1750 C   0  0  0  0  0  0  0  0  0  0  0  0
  137.5860   80.8680  225.3320 C   0  0  0  0  0  0  0  0  0  0  0  0
  136.8910   81.6190  226.2530 C   0  0  0  0  0  0  0  0  0  0  0  0
  136.5590   81.3520  227.5790 C   0  0  0  0  0  0  0  0  0  0  0  0
  135.8210   82.3230  228.2820 C   0  0  0  0  0  0  0  0  0  0  0  0
  135.4780   82.1050  229.5750 F   0  0  0  0  0  0  0  0  0  0  0  0
  135.4310   83.5230  227.6430 C   0  0  0  0  0  0  0  0  0  0  0  0
  135.7790   83.7620  226.3010 C   0  0  0  0  0  0  0  0  0  0  0  0
  136.5160   82.7840  225.6340 C   0  0  0  0  0  0  0  0  0  0  0  0
  136.9430   82.8090  224.3620 N   0  0  0  0  0  0  0  0  0  0  0  0
  139.1700   80.1580  222.8500 N   0  0  0  0  0  0  0  0  0  0  0  0
  138.9390   78.9210  222.1000 C   0  0  0  0  0  0  0  0  0  0  0  0
  140.3400   78.2290  221.9500 C   0  0  2  0  0  0  0  0  0  0  0  0
  140.7200   77.9770  220.4890 C   0  0  0  0  0  0  0  0  0  0  0  0
  141.4930   76.6730  220.5060 C   0  0  0  0  0  0  0  0  0  0  0  0
  141.0490   75.9020  221.6780 N   0  0  0  0  0  0  0  0  0  0  0  0
  140.2210   74.7150  221.3260 C   0  0  0  0  0  0  0  0  0  0  0  0
  140.9950   73.3910  221.5920 C   0  0  0  0  0  0  0  0  0  0  0  0
  140.3350   72.5050  222.6580 C   0  0  0  0  0  0  0  0  0  0  0  0
  138.8670   72.1950  222.3220 C   0  0  0  0  0  0  0  0  0  0  0  0
  138.0970   73.3900  221.7210 C   0  0  0  0  0  0  0  0  0  0  0  0
  138.8010   74.7300  221.9600 C   0  0  0  0  0  0  0  0  0  0  0  0
  140.4260   76.8450  222.6270 C   0  0  0  0  0  0  0  0  0  0  0  0
  141.2680   79.2200  222.6030 C   0  0  0  0  0  0  0  0  0  0  0  0
  142.6550   79.1380  222.7750 C   0  0  0  0  0  0  0  0  0  0  0  0
  143.3150   80.1750  223.4530 C   0  0  0  0  0  0  0  0  0  0  0  0
  142.5870   81.2660  223.9580 C   0  0  0  0  0  0  0  0  0  0  0  0
  141.1960   81.3270  223.7850 C   0  0  0  0  0  0  0  0  0  0  0  0
  140.5620   80.2890  223.0920 C   0  0  0  0  0  0  0  0  0  0  0  0
  138.0293   79.8720  225.4782 H   0  0  0  0  0  0  0  0  0  0  0  0
  136.8639   80.4118  228.0618 H   0  0  0  0  0  0  0  0  0  0  0  0
  134.8516   84.2746  228.1992 H   0  0  0  0  0  0  0  0  0  0  0  0
  135.4792   84.6910  225.7939 H   0  0  0  0  0  0  0  0  0  0  0  0
  136.7590   83.5600  223.6580 H   0  0  0  0  0  0  0  0  0  0  0  0
  138.2474   78.2657  222.6498 H   0  0  0  0  0  0  0  0  0  0  0  0
  138.4874   79.1269  221.1183 H   0  0  0  0  0  0  0  0  0  0  0  0
  139.8187   77.8845  219.8652 H   0  0  0  0  0  0  0  0  0  0  0  0
  141.3109   78.8030  220.0666 H   0  0  0  0  0  0  0  0  0  0  0  0
  141.2897   76.1055  219.5859 H   0  0  0  0  0  0  0  0  0  0  0  0
  142.5741   76.8680  220.5615 H   0  0  0  0  0  0  0  0  0  0  0  0
  140.0349   74.7735  220.2434 H   0  0  0  0  0  0  0  0  0  0  0  0
  141.0494   72.8235  220.6513 H   0  0  0  0  0  0  0  0  0  0  0  0
  141.9912   73.6662  221.9685 H   0  0  0  0  0  0  0  0  0  0  0  0
  140.8910   71.5583  222.7267 H   0  0  0  0  0  0  0  0  0  0  0  0
  140.3568   73.0499  223.6133 H   0  0  0  0  0  0  0  0  0  0  0  0
  138.8449   71.3685  221.5964 H   0  0  0  0  0  0  0  0  0  0  0  0
  138.3700   71.9389  223.2693 H   0  0  0  0  0  0  0  0  0  0  0  0
  137.9966   73.2341  220.6367 H   0  0  0  0  0  0  0  0  0  0  0  0
  137.1171   73.4370  222.2186 H   0  0  0  0  0  0  0  0  0  0  0  0
  138.2088   75.5373  221.5044 H   0  0  0  0  0  0  0  0  0  0  0  0
  138.8948   74.8964  223.0433 H   0  0  0  0  0  0  0  0  0  0  0  0
  139.4163   76.4960  222.8892 H   0  0  0  0  0  0  0  0  0  0  0  0
  141.0269   76.9097  223.5461 H   0  0  0  0  0  0  0  0  0  0  0  0
  143.2175   78.2765  222.3859 H   0  0  0  0  0  0  0  0  0  0  0  0
  144.4057   80.1335  223.5895 H   0  0  0  0  0  0  0  0  0  0  0  0
  143.1093   82.0745  224.4905 H   0  0  0  0  0  0  0  0  0  0  0  0
  140.6164   82.1719  224.1851 H   0  0  0  0  0  0  0  0  0  0  0  0
  1  2  2  0
  2  3  1  0
  3  4  2  0
  4  5  1  0
  5  6  2  0
  6  7  1  0
  7  8  1  0
  7  9  2  0
  9 10  1  0
 10 11  2  0
 11 12  1  0
  2 13  1  0
 13 14  1  0
 15 14  1  6
 15 16  1  0
 16 17  1  0
 17 18  1  0
 18 19  1  0
 19 20  1  0
 20 21  1  0
 21 22  1  0
 22 23  1  0
 23 24  1  0
 18 25  1  0
 15 26  1  0
 26 27  2  0
 27 28  1  0
 28 29  2  0
 29 30  1  0
 30 31  2  0
 12  3  1  0
 31 13  1  0
 11  5  1  0
 25 15  1  0
 31 26  1  0
 24 19  1  0
  4 32  1  0
  6 33  1  0
  9 34  1  0
 10 35  1  0
 12 36  1  0
 14 37  1  0
 14 38  1  0
 16 39  1  0
 16 40  1  0
 17 41  1  0
 17 42  1  0
 19 43  1  0
 20 44  1  0
 20 45  1  0
 21 46  1  0
 21 47  1  0
 22 48  1  0
 22 49  1  0
 23 50  1  0
 23 51  1  0
 24 52  1  0
 24 53  1  0
 25 54  1  0
 25 55  1  0
 27 56  1  0
 28 57  1  0
 29 58  1  0
 30 59  1  0
M  END
>  <UniqueID>  (77) 
180

>  <SMILES>  (77) 
O=C(c1cc2cc(F)ccc2[nH]1)N1C[C@@]2(CCN(C3CCCCC3)C2)c2ccccc21

>  <Energy>  (77) 
130.9889323576897

>  <Genealogy>  (77) 
O=C(c1cc2cc(F)ccc2[nH]1)N1C[C@@]2(CCN(C3CCCCC3)C2)c2ccccc21 (3D coordinates assigned)
O=C(c1cc2cc(F)ccc2[nH]1)N1C[C@@]2(CCN(C3CCCCC3)C2)c2ccccc21 (nonaromatic ring conformer: 130.9889323576897 kcal/mol)

>  <smiles>  (77) 
O=C(c1cc2cc(F)ccc2[nH]1)N1C[C@@]2(CCN(C3CCCCC3)C2)c2ccccc21

>  <score_type>  (77) 
oracle

>  <origin>  (77) 
autodockgpu

>  <m_score__min__energy>  (77) 
-8.3499999999999996

>  <m_primary>  (77) 
energy

>  <meeko>  (77) 
{"free_energy": -8.14, "intermolecular_energy": -9.04, "internal_energy": -1.3, "cluster_size": 5, "cluster_id": 3, "rank_in_cluster": 3}

>  <energy>  (77) 
-8.14

>  <cluster_rmsd>  (77) 
0.05

>  <rmsd>  (77) 
273.66

>  <cluster>  (77) 
3

$$$$
VDMKUDNKZWHZNN-SANMLTNENA-N
     RDKit          3D

 59 64  0  0  0  0  0  0  0  0999 V2000
  137.8470   81.7710  221.8140 O   0  0  0  0  0  0  0  0  0  0  0  0
  138.1880   81.1930  222.8820 C   0  0  0  0  0  0  0  0  0  0  0  0
  137.5810   81.6170  224.1560 C   0  0  0  0  0  0  0  0  0  0  0  0
  137.5470   80.8450  225.3150 C   0  0  0  0  0  0  0  0  0  0  0  0
  136.8670   81.6120  226.2340 C   0  0  0  0  0  0  0  0  0  0  0  0
  136.5310   81.3540  227.5620 C   0  0  0  0  0  0  0  0  0  0  0  0
  135.8130   82.3420  228.2620 C   0  0  0  0  0  0  0  0  0  0  0  0
  135.4670   82.1340  229.5560 F   0  0  0  0  0  0  0  0  0  0  0  0
  135.4470   83.5470  227.6210 C   0  0  0  0  0  0  0  0  0  0  0  0
  135.7980   83.7770  226.2780 C   0  0  0  0  0  0  0  0  0  0  0  0
  136.5150   82.7820  225.6130 C   0  0  0  0  0  0  0  0  0  0  0  0
  136.9410   82.7970  224.3400 N   0  0  0  0  0  0  0  0  0  0  0  0
  139.1380   80.1170  222.8380 N   0  0  0  0  0  0  0  0  0  0  0  0
  138.9130   78.8790  222.0880 C   0  0  0  0  0  0  0  0  0  0  0  0
  140.3150   78.1890  221.9460 C   0  0  2  0  0  0  0  0  0  0  0  0
  140.7030   77.9350  220.4890 C   0  0  0  0  0  0  0  0  0  0  0  0
  141.4770   76.6320  220.5110 C   0  0  0  0  0  0  0  0  0  0  0  0
  141.0280   75.8620  221.6810 N   0  0  0  0  0  0  0  0  0  0  0  0
  140.2030   74.6740  221.3260 C   0  0  0  0  0  0  0  0  0  0  0  0
  140.9810   73.3510  221.5880 C   0  0  0  0  0  0  0  0  0  0  0  0
  140.3230   72.4610  222.6530 C   0  0  0  0  0  0  0  0  0  0  0  0
  138.8550   72.1480  222.3160 C   0  0  0  0  0  0  0  0  0  0  0  0
  138.0820   73.3420  221.7170 C   0  0  0  0  0  0  0  0  0  0  0  0
  138.7830   74.6830  221.9600 C   0  0  0  0  0  0  0  0  0  0  0  0
  140.3990   76.8050  222.6260 C   0  0  0  0  0  0  0  0  0  0  0  0
  141.2380   79.1820  222.6040 C   0  0  0  0  0  0  0  0  0  0  0  0
  142.6250   79.1010  222.7830 C   0  0  0  0  0  0  0  0  0  0  0  0
  143.2800   80.1390  223.4630 C   0  0  0  0  0  0  0  0  0  0  0  0
  142.5480   81.2300  223.9630 C   0  0  0  0  0  0  0  0  0  0  0  0
  141.1580   81.2900  223.7830 C   0  0  0  0  0  0  0  0  0  0  0  0
  140.5280   80.2510  223.0880 C   0  0  0  0  0  0  0  0  0  0  0  0
  137.9712   79.8410  225.4636 H   0  0  0  0  0  0  0  0  0  0  0  0
  136.8175   80.4092  228.0471 H   0  0  0  0  0  0  0  0  0  0  0  0
  134.8833   84.3111  228.1763 H   0  0  0  0  0  0  0  0  0  0  0  0
  135.5163   84.7107  225.7691 H   0  0  0  0  0  0  0  0  0  0  0  0
  136.7730   83.5490  223.6350 H   0  0  0  0  0  0  0  0  0  0  0  0
  138.2194   78.2232  222.6347 H   0  0  0  0  0  0  0  0  0  0  0  0
  138.4665   79.0834  221.1037 H   0  0  0  0  0  0  0  0  0  0  0  0
  139.8051   77.8409  219.8605 H   0  0  0  0  0  0  0  0  0  0  0  0
  141.2959   78.7609  220.0691 H   0  0  0  0  0  0  0  0  0  0  0  0
  141.2789   76.0635  219.5904 H   0  0  0  0  0  0  0  0  0  0  0  0
  142.5577   76.8280  220.5717 H   0  0  0  0  0  0  0  0  0  0  0  0
  140.0162   74.7355  220.2437 H   0  0  0  0  0  0  0  0  0  0  0  0
  141.0361   72.7858  220.6459 H   0  0  0  0  0  0  0  0  0  0  0  0
  141.9771   73.6273  221.9639 H   0  0  0  0  0  0  0  0  0  0  0  0
  140.8813   71.5156  222.7200 H   0  0  0  0  0  0  0  0  0  0  0  0
  140.3436   73.0040  223.6094 H   0  0  0  0  0  0  0  0  0  0  0  0
  138.8350   71.3228  221.5889 H   0  0  0  0  0  0  0  0  0  0  0  0
  138.3585   71.8892  223.2628 H   0  0  0  0  0  0  0  0  0  0  0  0
  137.9828   73.1884  220.6323 H   0  0  0  0  0  0  0  0  0  0  0  0
  137.1013   73.3853  222.2134 H   0  0  0  0  0  0  0  0  0  0  0  0
  138.1887   75.4902  221.5070 H   0  0  0  0  0  0  0  0  0  0  0  0
  138.8767   74.8459  223.0438 H   0  0  0  0  0  0  0  0  0  0  0  0
  139.3884   76.4551  222.8834 H   0  0  0  0  0  0  0  0  0  0  0  0
  140.9948   76.8713  223.5483 H   0  0  0  0  0  0  0  0  0  0  0  0
  143.1902   78.2396  222.3976 H   0  0  0  0  0  0  0  0  0  0  0  0
  144.3700   80.0989  223.6053 H   0  0  0  0  0  0  0  0  0  0  0  0
  143.0669   82.0395  224.4973 H   0  0  0  0  0  0  0  0  0  0  0  0
  140.5759   82.1350  224.1794 H   0  0  0  0  0  0  0  0  0  0  0  0
  1  2  2  0
  2  3  1  0
  3  4  2  0
  4  5  1  0
  5  6  2  0
  6  7  1  0
  7  8  1  0
  7  9  2  0
  9 10  1  0
 10 11  2  0
 11 12  1  0
  2 13  1  0
 13 14  1  0
 15 14  1  6
 15 16  1  0
 16 17  1  0
 17 18  1  0
 18 19  1  0
 19 20  1  0
 20 21  1  0
 21 22  1  0
 22 23  1  0
 23 24  1  0
 18 25  1  0
 15 26  1  0
 26 27  2  0
 27 28  1  0
 28 29  2  0
 29 30  1  0
 30 31  2  0
 12  3  1  0
 31 13  1  0
 11  5  1  0
 25 15  1  0
 31 26  1  0
 24 19  1  0
  4 32  1  0
  6 33  1  0
  9 34  1  0
 10 35  1  0
 12 36  1  0
 14 37  1  0
 14 38  1  0
 16 39  1  0
 16 40  1  0
 17 41  1  0
 17 42  1  0
 19 43  1  0
 20 44  1  0
 20 45  1  0
 21 46  1  0
 21 47  1  0
 22 48  1  0
 22 49  1  0
 23 50  1  0
 23 51  1  0
 24 52  1  0
 24 53  1  0
 25 54  1  0
 25 55  1  0
 27 56  1  0
 28 57  1  0
 29 58  1  0
 30 59  1  0
M  END
>  <UniqueID>  (78) 
180

>  <SMILES>  (78) 
O=C(c1cc2cc(F)ccc2[nH]1)N1C[C@@]2(CCN(C3CCCCC3)C2)c2ccccc21

>  <Energy>  (78) 
130.9889323576897

>  <Genealogy>  (78) 
O=C(c1cc2cc(F)ccc2[nH]1)N1C[C@@]2(CCN(C3CCCCC3)C2)c2ccccc21 (3D coordinates assigned)
O=C(c1cc2cc(F)ccc2[nH]1)N1C[C@@]2(CCN(C3CCCCC3)C2)c2ccccc21 (nonaromatic ring conformer: 130.9889323576897 kcal/mol)

>  <smiles>  (78) 
O=C(c1cc2cc(F)ccc2[nH]1)N1C[C@@]2(CCN(C3CCCCC3)C2)c2ccccc21

>  <score_type>  (78) 
oracle

>  <origin>  (78) 
autodockgpu

>  <m_score__min__energy>  (78) 
-8.3499999999999996

>  <m_primary>  (78) 
energy

>  <meeko>  (78) 
{"free_energy": -8.14, "intermolecular_energy": -9.04, "internal_energy": -1.3, "cluster_size": 5, "cluster_id": 3, "rank_in_cluster": 1}

>  <energy>  (78) 
-8.14

>  <cluster_rmsd>  (78) 
0.05

>  <rmsd>  (78) 
273.66

>  <cluster>  (78) 
3

$$$$
VDMKUDNKZWHZNN-SANMLTNENA-N
     RDKit          3D

 59 64  0  0  0  0  0  0  0  0999 V2000
  142.1240   73.4960  220.3620 O   0  0  0  0  0  0  0  0  0  0  0  0
  141.1850   73.5340  221.2030 C   0  0  0  0  0  0  0  0  0  0  0  0
  140.6810   74.8400  221.6620 C   0  0  0  0  0  0  0  0  0  0  0  0
  139.3510   75.1110  221.9800 C   0  0  0  0  0  0  0  0  0  0  0  0
  139.3320   76.4430  222.3250 C   0  0  0  0  0  0  0  0  0  0  0  0
  138.2800   77.2610  222.7320 C   0  0  0  0  0  0  0  0  0  0  0  0
  138.5670   78.6100  223.0150 C   0  0  0  0  0  0  0  0  0  0  0  0
  137.5730   79.4410  223.4150 F   0  0  0  0  0  0  0  0  0  0  0  0
  139.8850   79.1030  222.8790 C   0  0  0  0  0  0  0  0  0  0  0  0
  140.9260   78.2520  222.4640 C   0  0  0  0  0  0  0  0  0  0  0  0
  140.6110   76.9200  222.1970 C   0  0  0  0  0  0  0  0  0  0  0  0
  141.4450   75.9510  221.7870 N   0  0  0  0  0  0  0  0  0  0  0  0
  140.6050   72.3100  221.6780 N   0  0  0  0  0  0  0  0  0  0  0  0
  140.2270   72.0910  223.0770 C   0  0  0  0  0  0  0  0  0  0  0  0
  139.2680   70.8500  223.0860 C   0  0  2  0  0  0  0  0  0  0  0  0
  137.9060   71.1610  223.7110 C   0  0  0  0  0  0  0  0  0  0  0  0
  137.5000   69.8840  224.4190 C   0  0  0  0  0  0  0  0  0  0  0  0
  138.7280   69.1490  224.7620 N   0  0  0  0  0  0  0  0  0  0  0  0
  139.0320   69.1550  226.2200 C   0  0  0  0  0  0  0  0  0  0  0  0
  139.5440   67.7630  226.6930 C   0  0  0  0  0  0  0  0  0  0  0  0
  140.9820   67.7960  227.2310 C   0  0  0  0  0  0  0  0  0  0  0  0
  141.1520   68.8270  228.3590 C   0  0  0  0  0  0  0  0  0  0  0  0
  140.3810   70.1430  228.1250 C   0  0  0  0  0  0  0  0  0  0  0  0
  139.9520   70.3280  226.6650 C   0  0  0  0  0  0  0  0  0  0  0  0
  139.8090   69.6500  223.8920 C   0  0  0  0  0  0  0  0  0  0  0  0
  139.1450   70.5180  221.6210 C   0  0  0  0  0  0  0  0  0  0  0  0
  138.4140   69.4900  221.0150 C   0  0  0  0  0  0  0  0  0  0  0  0
  138.4760   69.3470  219.6200 C   0  0  0  0  0  0  0  0  0  0  0  0
  139.2700   70.2180  218.8540 C   0  0  0  0  0  0  0  0  0  0  0  0
  140.0040   71.2370  219.4790 C   0  0  0  0  0  0  0  0  0  0  0  0
  139.9150   71.3700  220.8700 C   0  0  0  0  0  0  0  0  0  0  0  0
  138.5017   74.4122  221.9596 H   0  0  0  0  0  0  0  0  0  0  0  0
  137.2581   76.8655  222.8291 H   0  0  0  0  0  0  0  0  0  0  0  0
  140.0983   80.1594  223.0992 H   0  0  0  0  0  0  0  0  0  0  0  0
  141.9548   78.6253  222.3538 H   0  0  0  0  0  0  0  0  0  0  0  0
  142.4620   76.0540  221.5730 H   0  0  0  0  0  0  0  0  0  0  0  0
  141.1204   71.8861  223.6851 H   0  0  0  0  0  0  0  0  0  0  0  0
  139.7353   72.9787  223.5015 H   0  0  0  0  0  0  0  0  0  0  0  0
  137.9899   71.9910  224.4280 H   0  0  0  0  0  0  0  0  0  0  0  0
  137.1660   71.4697  222.9579 H   0  0  0  0  0  0  0  0  0  0  0  0
  136.9406   70.1257  225.3348 H   0  0  0  0  0  0  0  0  0  0  0  0
  136.8557   69.2732  223.7696 H   0  0  0  0  0  0  0  0  0  0  0  0
  138.0802   69.3467  226.7371 H   0  0  0  0  0  0  0  0  0  0  0  0
  138.8806   67.3998  227.4917 H   0  0  0  0  0  0  0  0  0  0  0  0
  139.5391   67.0987  225.8163 H   0  0  0  0  0  0  0  0  0  0  0  0
  141.2388   66.7994  227.6193 H   0  0  0  0  0  0  0  0  0  0  0  0
  141.6474   68.0847  226.4040 H   0  0  0  0  0  0  0  0  0  0  0  0
  140.7928   68.3772  229.2963 H   0  0  0  0  0  0  0  0  0  0  0  0
  142.2205   69.0855  228.3968 H   0  0  0  0  0  0  0  0  0  0  0  0
  139.4815   70.1408  228.7581 H   0  0  0  0  0  0  0  0  0  0  0  0
  141.0568   70.9728  228.3795 H   0  0  0  0  0  0  0  0  0  0  0  0
  139.4044   71.2767  226.5651 H   0  0  0  0  0  0  0  0  0  0  0  0
  140.8484   70.3415  226.0275 H   0  0  0  0  0  0  0  0  0  0  0  0
  140.6629   69.9701  224.5071 H   0  0  0  0  0  0  0  0  0  0  0  0
  140.1436   68.8555  223.2088 H   0  0  0  0  0  0  0  0  0  0  0  0
  137.8017   68.8061  221.6211 H   0  0  0  0  0  0  0  0  0  0  0  0
  137.9013   68.5506  219.1245 H   0  0  0  0  0  0  0  0  0  0  0  0
  139.3159   70.1002  217.7613 H   0  0  0  0  0  0  0  0  0  0  0  0
  140.6360   71.9170  218.8889 H   0  0  0  0  0  0  0  0  0  0  0  0
  1  2  2  0
  2  3  1  0
  3  4  2  0
  4  5  1  0
  5  6  2  0
  6  7  1  0
  7  8  1  0
  7  9  2  0
  9 10  1  0
 10 11  2  0
 11 12  1  0
  2 13  1  0
 13 14  1  0
 15 14  1  6
 15 16  1  0
 16 17  1  0
 17 18  1  0
 18 19  1  0
 19 20  1  0
 20 21  1  0
 21 22  1  0
 22 23  1  0
 23 24  1  0
 18 25  1  0
 15 26  1  0
 26 27  2  0
 27 28  1  0
 28 29  2  0
 29 30  1  0
 30 31  2  0
 12  3  1  0
 31 13  1  0
 11  5  1  0
 25 15  1  0
 31 26  1  0
 24 19  1  0
  4 32  1  0
  6 33  1  0
  9 34  1  0
 10 35  1  0
 12 36  1  0
 14 37  1  0
 14 38  1  0
 16 39  1  0
 16 40  1  0
 17 41  1  0
 17 42  1  0
 19 43  1  0
 20 44  1  0
 20 45  1  0
 21 46  1  0
 21 47  1  0
 22 48  1  0
 22 49  1  0
 23 50  1  0
 23 51  1  0
 24 52  1  0
 24 53  1  0
 25 54  1  0
 25 55  1  0
 27 56  1  0
 28 57  1  0
 29 58  1  0
 30 59  1  0
M  END
>  <UniqueID>  (79) 
180

>  <SMILES>  (79) 
O=C(c1cc2cc(F)ccc2[nH]1)N1C[C@@]2(CCN(C3CCCCC3)C2)c2ccccc21

>  <Energy>  (79) 
130.9889323576897

>  <Genealogy>  (79) 
O=C(c1cc2cc(F)ccc2[nH]1)N1C[C@@]2(CCN(C3CCCCC3)C2)c2ccccc21 (3D coordinates assigned)
O=C(c1cc2cc(F)ccc2[nH]1)N1C[C@@]2(CCN(C3CCCCC3)C2)c2ccccc21 (nonaromatic ring conformer: 130.9889323576897 kcal/mol)

>  <smiles>  (79) 
O=C(c1cc2cc(F)ccc2[nH]1)N1C[C@@]2(CCN(C3CCCCC3)C2)c2ccccc21

>  <score_type>  (79) 
oracle

>  <origin>  (79) 
autodockgpu

>  <m_score__min__energy>  (79) 
-8.3499999999999996

>  <m_primary>  (79) 
energy

>  <meeko>  (79) 
{"free_energy": -8.13, "intermolecular_energy": -9.02, "internal_energy": -1.34, "cluster_size": 1, "cluster_id": 4, "rank_in_cluster": 1}

>  <energy>  (79) 
-8.12

>  <cluster_rmsd>  (79) 
0.08

>  <rmsd>  (79) 
273.63

>  <cluster>  (79) 
3

$$$$
VDMKUDNKZWHZNN-SANMLTNENA-N
     RDKit          3D

 59 64  0  0  0  0  0  0  0  0999 V2000
  139.0310   75.7200  219.8290 O   0  0  0  0  0  0  0  0  0  0  0  0
  139.9010   75.6100  220.7360 C   0  0  0  0  0  0  0  0  0  0  0  0
  140.5160   76.8260  221.2950 C   0  0  0  0  0  0  0  0  0  0  0  0
  140.8120   77.0190  222.6430 C   0  0  0  0  0  0  0  0  0  0  0  0
  141.3400   78.2890  222.7130 C   0  0  0  0  0  0  0  0  0  0  0  0
  141.8120   79.0170  223.8030 C   0  0  0  0  0  0  0  0  0  0  0  0
  142.2940   80.3180  223.5650 C   0  0  0  0  0  0  0  0  0  0  0  0
  142.7640   81.0620  224.5970 F   0  0  0  0  0  0  0  0  0  0  0  0
  142.2860   80.8550  222.2570 C   0  0  0  0  0  0  0  0  0  0  0  0
  141.8000   80.0950  221.1770 C   0  0  0  0  0  0  0  0  0  0  0  0
  141.3350   78.8080  221.4440 C   0  0  0  0  0  0  0  0  0  0  0  0
  140.8290   77.9250  220.5670 N   0  0  0  0  0  0  0  0  0  0  0  0
  140.2560   74.3090  221.2290 N   0  0  0  0  0  0  0  0  0  0  0  0
  139.5640   73.6570  222.3440 C   0  0  0  0  0  0  0  0  0  0  0  0
  139.9530   72.1380  222.2760 C   0  0  2  0  0  0  0  0  0  0  0  0
  138.7330   71.2210  222.1660 C   0  0  0  0  0  0  0  0  0  0  0  0
  139.1080   69.9770  222.9480 C   0  0  0  0  0  0  0  0  0  0  0  0
  140.1100   70.3620  223.9540 N   0  0  0  0  0  0  0  0  0  0  0  0
  139.5840   70.3540  225.3460 C   0  0  0  0  0  0  0  0  0  0  0  0
  139.1430   68.9230  225.7720 C   0  0  0  0  0  0  0  0  0  0  0  0
  139.9510   68.3640  226.9510 C   0  0  0  0  0  0  0  0  0  0  0  0
  139.9220   69.3040  228.1680 C   0  0  0  0  0  0  0  0  0  0  0  0
  140.0140   70.8010  227.8040 C   0  0  0  0  0  0  0  0  0  0  0  0
  140.5270   71.0340  226.3790 C   0  0  0  0  0  0  0  0  0  0  0  0
  140.7180   71.6350  223.5180 C   0  0  0  0  0  0  0  0  0  0  0  0
  140.8100   72.0730  221.0380 C   0  0  0  0  0  0  0  0  0  0  0  0
  141.4520   70.9630  220.4750 C   0  0  0  0  0  0  0  0  0  0  0  0
  142.2370   71.1460  219.3270 C   0  0  0  0  0  0  0  0  0  0  0  0
  142.3820   72.4260  218.7650 C   0  0  0  0  0  0  0  0  0  0  0  0
  141.7400   73.5290  219.3480 C   0  0  0  0  0  0  0  0  0  0  0  0
  140.9500   73.3200  220.4840 C   0  0  0  0  0  0  0  0  0  0  0  0
  140.6576   76.3112  223.4708 H   0  0  0  0  0  0  0  0  0  0  0  0
  141.8082   78.5892  224.8164 H   0  0  0  0  0  0  0  0  0  0  0  0
  142.6622   81.8738  222.0825 H   0  0  0  0  0  0  0  0  0  0  0  0
  141.7874   80.5030  220.1555 H   0  0  0  0  0  0  0  0  0  0  0  0
  140.6750   78.0800  219.5460 H   0  0  0  0  0  0  0  0  0  0  0  0
  139.8899   74.0912  223.3007 H   0  0  0  0  0  0  0  0  0  0  0  0
  138.4749   73.7943  222.2738 H   0  0  0  0  0  0  0  0  0  0  0  0
  137.8466   71.7018  222.6055 H   0  0  0  0  0  0  0  0  0  0  0  0
  138.4800   70.9921  221.1202 H   0  0  0  0  0  0  0  0  0  0  0  0
  138.2175   69.5654  223.4456 H   0  0  0  0  0  0  0  0  0  0  0  0
  139.5158   69.2088  222.2746 H   0  0  0  0  0  0  0  0  0  0  0  0
  138.6847   70.9875  225.3428 H   0  0  0  0  0  0  0  0  0  0  0  0
  138.0820   68.9561  226.0605 H   0  0  0  0  0  0  0  0  0  0  0  0
  139.3187   68.2589  224.9129 H   0  0  0  0  0  0  0  0  0  0  0  0
  139.5266   67.3921  227.2430 H   0  0  0  0  0  0  0  0  0  0  0  0
  140.9971   68.2608  226.6268 H   0  0  0  0  0  0  0  0  0  0  0  0
  138.9808   69.1371  228.7122 H   0  0  0  0  0  0  0  0  0  0  0  0
  140.8084   69.0679  228.7751 H   0  0  0  0  0  0  0  0  0  0  0  0
  139.0126   71.2471  227.8946 H   0  0  0  0  0  0  0  0  0  0  0  0
  140.7317   71.2669  228.4952 H   0  0  0  0  0  0  0  0  0  0  0  0
  140.5641   72.1151  226.1793 H   0  0  0  0  0  0  0  0  0  0  0  0
  141.5325   70.5979  226.2857 H   0  0  0  0  0  0  0  0  0  0  0  0
  140.6447   72.3779  224.3259 H   0  0  0  0  0  0  0  0  0  0  0  0
  141.7796   71.4833  223.2730 H   0  0  0  0  0  0  0  0  0  0  0  0
  141.3426   69.9653  220.9251 H   0  0  0  0  0  0  0  0  0  0  0  0
  142.7410   70.2844  218.8648 H   0  0  0  0  0  0  0  0  0  0  0  0
  143.0004   72.5634  217.8657 H   0  0  0  0  0  0  0  0  0  0  0  0
  141.8552   74.5363  218.9213 H   0  0  0  0  0  0  0  0  0  0  0  0
  1  2  2  0
  2  3  1  0
  3  4  2  0
  4  5  1  0
  5  6  2  0
  6  7  1  0
  7  8  1  0
  7  9  2  0
  9 10  1  0
 10 11  2  0
 11 12  1  0
  2 13  1  0
 13 14  1  0
 15 14  1  1
 15 16  1  0
 16 17  1  0
 17 18  1  0
 18 19  1  0
 19 20  1  0
 20 21  1  0
 21 22  1  0
 22 23  1  0
 23 24  1  0
 18 25  1  0
 15 26  1  0
 26 27  2  0
 27 28  1  0
 28 29  2  0
 29 30  1  0
 30 31  2  0
 12  3  1  0
 31 13  1  0
 11  5  1  0
 25 15  1  0
 31 26  1  0
 24 19  1  0
  4 32  1  0
  6 33  1  0
  9 34  1  0
 10 35  1  0
 12 36  1  0
 14 37  1  0
 14 38  1  0
 16 39  1  0
 16 40  1  0
 17 41  1  0
 17 42  1  0
 19 43  1  0
 20 44  1  0
 20 45  1  0
 21 46  1  0
 21 47  1  0
 22 48  1  0
 22 49  1  0
 23 50  1  0
 23 51  1  0
 24 52  1  0
 24 53  1  0
 25 54  1  0
 25 55  1  0
 27 56  1  0
 28 57  1  0
 29 58  1  0
 30 59  1  0
M  END
>  <UniqueID>  (80) 
180

>  <SMILES>  (80) 
O=C(c1cc2cc(F)ccc2[nH]1)N1C[C@@]2(CCN(C3CCCCC3)C2)c2ccccc21

>  <Energy>  (80) 
130.9889323576897

>  <Genealogy>  (80) 
O=C(c1cc2cc(F)ccc2[nH]1)N1C[C@@]2(CCN(C3CCCCC3)C2)c2ccccc21 (3D coordinates assigned)
O=C(c1cc2cc(F)ccc2[nH]1)N1C[C@@]2(CCN(C3CCCCC3)C2)c2ccccc21 (nonaromatic ring conformer: 130.9889323576897 kcal/mol)

>  <smiles>  (80) 
O=C(c1cc2cc(F)ccc2[nH]1)N1C[C@@]2(CCN(C3CCCCC3)C2)c2ccccc21

>  <score_type>  (80) 
oracle

>  <origin>  (80) 
autodockgpu

>  <m_score__min__energy>  (80) 
-8.3499999999999996

>  <m_primary>  (80) 
energy

>  <meeko>  (80) 
{"free_energy": -8.35, "intermolecular_energy": -9.25, "internal_energy": -1.15, "cluster_size": 11, "cluster_id": 1, "rank_in_cluster": 1}

>  <energy>  (80) 
-8.13

>  <cluster_rmsd>  (80) 
0.0

>  <rmsd>  (80) 
271.66

>  <cluster>  (80) 
4

$$$$
