
     RDKit          3D

 50 53  0  0  0  0  0  0  0  0999 V2000
  140.3590   79.3850  223.7630 C   0  0  0  0  0  0  0  0  0  0  0  0
  141.4190   78.4690  223.1350 C   0  0  0  0  0  0  0  0  0  0  0  0
  142.5000   79.3880  222.6100 C   0  0  0  0  0  0  0  0  0  0  0  0
  140.7170   77.7230  222.0510 C   0  0  0  0  0  0  0  0  0  0  0  0
  141.3620   76.4990  221.6310 N   0  0  0  0  0  0  0  0  0  0  0  0
  140.6770   75.2470  221.8270 C   0  0  0  0  0  0  0  0  0  0  0  0
  139.5500   75.3620  222.3590 O   0  0  0  0  0  0  0  0  0  0  0  0
  141.3030   74.0110  221.4190 C   0  0  0  0  0  0  0  0  0  0  0  0
  142.2600   74.0100  220.4320 C   0  0  0  0  0  0  0  0  0  0  0  0
  142.9080   72.8350  220.0210 C   0  0  0  0  0  0  0  0  0  0  0  0
  143.8660   72.8570  219.0290 C   0  0  0  0  0  0  0  0  0  0  0  0
  144.1660   73.9420  218.4790 O   0  0  0  0  0  0  0  0  0  0  0  0
  144.4380   71.6780  218.6990 N   0  0  0  0  0  0  0  0  0  0  0  0
  145.3770   71.6820  217.7300 C   0  0  0  0  0  0  0  0  0  0  0  0
  145.9660   70.4670  217.3900 C   0  0  0  0  0  0  0  0  0  0  0  0
  145.6290   69.2910  217.9970 C   0  0  0  0  0  0  0  0  0  0  0  0
  144.6750   69.3070  218.9770 C   0  0  0  0  0  0  0  0  0  0  0  0
  144.1030   70.5250  219.3000 C   0  0  0  0  0  0  0  0  0  0  0  0
  143.1620   70.5010  220.2750 N   0  0  0  0  0  0  0  0  0  0  0  0
  142.5660   71.6530  220.6350 C   0  0  0  0  0  0  0  0  0  0  0  0
  141.6300   71.7060  221.5880 N   0  0  0  0  0  0  0  0  0  0  0  0
  140.9910   72.8100  222.0040 C   0  0  0  0  0  0  0  0  0  0  0  0
  140.0000   72.6390  223.0040 N   0  0  0  0  0  0  0  0  0  0  0  0
  139.9900   71.5480  223.9290 C   0  0  0  0  0  0  0  0  0  0  0  0
  140.7200   71.5310  225.0950 C   0  0  0  0  0  0  0  0  0  0  0  0
  140.6880   70.4320  225.9550 C   0  0  0  0  0  0  0  0  0  0  0  0
  139.9090   69.3470  225.6280 C   0  0  0  0  0  0  0  0  0  0  0  0
  139.8960   68.2960  226.4770 F   0  0  0  0  0  0  0  0  0  0  0  0
  139.1670   69.3250  224.4740 C   0  0  0  0  0  0  0  0  0  0  0  0
  139.2280   70.4280  223.6570 C   0  0  0  0  0  0  0  0  0  0  0  0
  140.4268   79.3264  224.8593 H   0  0  0  0  0  0  0  0  0  0  0  0
  140.5326   80.4220  223.4398 H   0  0  0  0  0  0  0  0  0  0  0  0
  139.3581   79.0629  223.4398 H   0  0  0  0  0  0  0  0  0  0  0  0
  141.8797   77.7428  223.8208 H   0  0  0  0  0  0  0  0  0  0  0  0
  143.0362   79.8438  223.4554 H   0  0  0  0  0  0  0  0  0  0  0  0
  143.2066   78.8099  221.9964 H   0  0  0  0  0  0  0  0  0  0  0  0
  142.0432   80.1785  221.9964 H   0  0  0  0  0  0  0  0  0  0  0  0
  139.7080   77.4708  222.4093 H   0  0  0  0  0  0  0  0  0  0  0  0
  140.7175   78.3860  221.1733 H   0  0  0  0  0  0  0  0  0  0  0  0
  142.3000   76.5810  221.2030 H   0  0  0  0  0  0  0  0  0  0  0  0
  142.5265   74.9614  219.9486 H   0  0  0  0  0  0  0  0  0  0  0  0
  145.6678   72.6150  217.2250 H   0  0  0  0  0  0  0  0  0  0  0  0
  146.7329   70.4539  216.6015 H   0  0  0  0  0  0  0  0  0  0  0  0
  146.1154   68.3491  217.7034 H   0  0  0  0  0  0  0  0  0  0  0  0
  144.3726   68.3828  219.4911 H   0  0  0  0  0  0  0  0  0  0  0  0
  139.1830   73.3020  223.1360 H   0  0  0  0  0  0  0  0  0  0  0  0
  141.3413   72.4008  225.3547 H   0  0  0  0  0  0  0  0  0  0  0  0
  141.2787   70.4338  226.8829 H   0  0  0  0  0  0  0  0  0  0  0  0
  138.5458   68.4557  224.2124 H   0  0  0  0  0  0  0  0  0  0  0  0
  138.6346   70.4188  222.7308 H   0  0  0  0  0  0  0  0  0  0  0  0
  1  2  1  0
  2  3  1  0
  2  4  1  0
  4  5  1  0
  5  6  1  0
  6  7  2  0
  6  8  1  0
  8  9  2  0
  9 10  1  0
 10 11  1  0
 11 12  2  0
 11 13  1  0
 13 14  1  0
 14 15  2  0
 15 16  1  0
 16 17  2  0
 17 18  1  0
 18 19  2  0
 19 20  1  0
 20 21  1  0
 21 22  2  0
 22 23  1  0
 23 24  1  0
 24 25  2  0
 25 26  1  0
 26 27  2  0
 27 28  1  0
 27 29  1  0
 29 30  2  0
 22  8  1  0
 30 24  1  0
 20 10  2  0
 18 13  1  0
  1 31  1  0
  1 32  1  0
  1 33  1  0
  2 34  1  0
  3 35  1  0
  3 36  1  0
  3 37  1  0
  4 38  1  0
  4 39  1  0
  5 40  1  0
  9 41  1  0
 14 42  1  0
 15 43  1  0
 16 44  1  0
 17 45  1  0
 23 46  1  0
 25 47  1  0
 26 48  1  0
 29 49  1  0
 30 50  1  0
M  END
>  <smiles>  (1) 
CC(C)CNC(=O)c1cc2c(=O)n3ccccc3nc2nc1Nc1ccc(F)cc1

>  <score_type>  (1) 
oracle

>  <origin>  (1) 
autodockgpu

>  <m_score__min__energy>  (1) 
-7.4500000000000002

>  <m_primary>  (1) 
energy

>  <meeko>  (1) 
{"free_energy": -7.44, "intermolecular_energy": -8.93, "internal_energy": -1.18, "cluster_size": 16, "cluster_id": 1, "rank_in_cluster": 7}

>  <energy>  (1) 
-7.45

>  <cluster_rmsd>  (1) 
0.0

>  <rmsd>  (1) 
272.66

>  <cluster>  (1) 
1

$$$$

     RDKit          3D

 50 53  0  0  0  0  0  0  0  0999 V2000
  141.8330   79.0010  221.4370 C   0  0  0  0  0  0  0  0  0  0  0  0
  140.9110   78.8010  222.6490 C   0  0  0  0  0  0  0  0  0  0  0  0
  141.8280   78.6230  223.8400 C   0  0  0  0  0  0  0  0  0  0  0  0
  140.1090   77.5800  222.3500 C   0  0  0  0  0  0  0  0  0  0  0  0
  140.8760   76.4330  221.9170 N   0  0  0  0  0  0  0  0  0  0  0  0
  140.2630   75.1300  221.9510 C   0  0  0  0  0  0  0  0  0  0  0  0
  139.0820   75.1350  222.3670 O   0  0  0  0  0  0  0  0  0  0  0  0
  141.0100   73.9700  221.5270 C   0  0  0  0  0  0  0  0  0  0  0  0
  141.9400   74.0730  220.5210 C   0  0  0  0  0  0  0  0  0  0  0  0
  142.7040   72.9760  220.0930 C   0  0  0  0  0  0  0  0  0  0  0  0
  143.6330   73.1020  219.0820 C   0  0  0  0  0  0  0  0  0  0  0  0
  143.8030   74.2140  218.5290 O   0  0  0  0  0  0  0  0  0  0  0  0
  144.3220   71.9920  218.7370 N   0  0  0  0  0  0  0  0  0  0  0  0
  145.2350   72.0990  217.7480 C   0  0  0  0  0  0  0  0  0  0  0  0
  145.9460   70.9550  217.3920 C   0  0  0  0  0  0  0  0  0  0  0  0
  145.7500   69.7490  218.0030 C   0  0  0  0  0  0  0  0  0  0  0  0
  144.8200   69.6600  219.0020 C   0  0  0  0  0  0  0  0  0  0  0  0
  144.1260   70.8080  219.3400 C   0  0  0  0  0  0  0  0  0  0  0  0
  143.2130   70.6830  220.3340 N   0  0  0  0  0  0  0  0  0  0  0  0
  142.5040   71.7620  220.7100 C   0  0  0  0  0  0  0  0  0  0  0  0
  141.5880   71.7130  221.6820 N   0  0  0  0  0  0  0  0  0  0  0  0
  140.8420   72.7420  222.1150 C   0  0  0  0  0  0  0  0  0  0  0  0
  139.8960   72.4630  223.1330 N   0  0  0  0  0  0  0  0  0  0  0  0
  140.0240   71.3790  224.0570 C   0  0  0  0  0  0  0  0  0  0  0  0
  139.4180   70.1560  223.8860 C   0  0  0  0  0  0  0  0  0  0  0  0
  139.5610   69.1370  224.8290 C   0  0  0  0  0  0  0  0  0  0  0  0
  140.3250   69.3620  225.9490 C   0  0  0  0  0  0  0  0  0  0  0  0
  140.4480   68.3590  226.8470 F   0  0  0  0  0  0  0  0  0  0  0  0
  140.9470   70.5680  226.1570 C   0  0  0  0  0  0  0  0  0  0  0  0
  140.7780   71.5420  225.2040 C   0  0  0  0  0  0  0  0  0  0  0  0
  142.8529   79.2222  221.7847 H   0  0  0  0  0  0  0  0  0  0  0  0
  141.8436   78.0843  220.8291 H   0  0  0  0  0  0  0  0  0  0  0  0
  141.4628   79.8397  220.8291 H   0  0  0  0  0  0  0  0  0  0  0  0
  140.2218   79.6324  222.8581 H   0  0  0  0  0  0  0  0  0  0  0  0
  141.2491   78.7354  224.7685 H   0  0  0  0  0  0  0  0  0  0  0  0
  142.2795   77.6204  223.8085 H   0  0  0  0  0  0  0  0  0  0  0  0
  142.6218   79.3838  223.8085 H   0  0  0  0  0  0  0  0  0  0  0  0
  139.5622   77.2996  223.2624 H   0  0  0  0  0  0  0  0  0  0  0  0
  139.4513   77.8440  221.5087 H   0  0  0  0  0  0  0  0  0  0  0  0
  141.8440   76.6050  221.5970 H   0  0  0  0  0  0  0  0  0  0  0  0
  142.0910   75.0480  220.0346 H   0  0  0  0  0  0  0  0  0  0  0  0
  145.4117   73.0584  217.2398 H   0  0  0  0  0  0  0  0  0  0  0  0
  146.6937   71.0255  216.5883 H   0  0  0  0  0  0  0  0  0  0  0  0
  146.3296   68.8655  217.6971 H   0  0  0  0  0  0  0  0  0  0  0  0
  144.6303   68.7079  219.5191 H   0  0  0  0  0  0  0  0  0  0  0  0
  139.0140   73.0330  223.2830 H   0  0  0  0  0  0  0  0  0  0  0  0
  138.8084   69.9775  222.9879 H   0  0  0  0  0  0  0  0  0  0  0  0
  139.0681   68.1654  224.6775 H   0  0  0  0  0  0  0  0  0  0  0  0
  141.5581   70.7474  227.0538 H   0  0  0  0  0  0  0  0  0  0  0  0
  141.2730   72.5114  225.3631 H   0  0  0  0  0  0  0  0  0  0  0  0
  1  2  1  0
  2  3  1  0
  2  4  1  0
  4  5  1  0
  5  6  1  0
  6  7  2  0
  6  8  1  0
  8  9  2  0
  9 10  1  0
 10 11  1  0
 11 12  2  0
 11 13  1  0
 13 14  1  0
 14 15  2  0
 15 16  1  0
 16 17  2  0
 17 18  1  0
 18 19  2  0
 19 20  1  0
 20 21  1  0
 21 22  2  0
 22 23  1  0
 23 24  1  0
 24 25  2  0
 25 26  1  0
 26 27  2  0
 27 28  1  0
 27 29  1  0
 29 30  2  0
 22  8  1  0
 30 24  1  0
 20 10  2  0
 18 13  1  0
  1 31  1  0
  1 32  1  0
  1 33  1  0
  2 34  1  0
  3 35  1  0
  3 36  1  0
  3 37  1  0
  4 38  1  0
  4 39  1  0
  5 40  1  0
  9 41  1  0
 14 42  1  0
 15 43  1  0
 16 44  1  0
 17 45  1  0
 23 46  1  0
 25 47  1  0
 26 48  1  0
 29 49  1  0
 30 50  1  0
M  END
>  <smiles>  (2) 
CC(C)CNC(=O)c1cc2c(=O)n3ccccc3nc2nc1Nc1ccc(F)cc1

>  <score_type>  (2) 
oracle

>  <origin>  (2) 
autodockgpu

>  <m_score__min__energy>  (2) 
-7.4500000000000002

>  <m_primary>  (2) 
energy

>  <meeko>  (2) 
{"free_energy": -7.27, "intermolecular_energy": -8.77, "internal_energy": -1.14, "cluster_size": 16, "cluster_id": 1, "rank_in_cluster": 13}

>  <energy>  (2) 
-7.45

>  <cluster_rmsd>  (2) 
0.05

>  <rmsd>  (2) 
272.63

>  <cluster>  (2) 
1

$$$$

     RDKit          3D

 50 53  0  0  0  0  0  0  0  0999 V2000
  134.5980   74.3310  225.2850 C   0  0  0  0  0  0  0  0  0  0  0  0
  134.1030   73.0700  224.5610 C   0  0  0  0  0  0  0  0  0  0  0  0
  134.3220   71.9270  225.5280 C   0  0  0  0  0  0  0  0  0  0  0  0
  134.9390   72.9550  223.3320 C   0  0  0  0  0  0  0  0  0  0  0  0
  136.1980   73.6650  223.3780 N   0  0  0  0  0  0  0  0  0  0  0  0
  136.5140   74.5950  222.3240 C   0  0  0  0  0  0  0  0  0  0  0  0
  135.6240   74.6920  221.4480 O   0  0  0  0  0  0  0  0  0  0  0  0
  137.7660   75.3130  222.3460 C   0  0  0  0  0  0  0  0  0  0  0  0
  137.7950   76.6490  222.6690 C   0  0  0  0  0  0  0  0  0  0  0  0
  138.9920   77.3780  222.7240 C   0  0  0  0  0  0  0  0  0  0  0  0
  138.9980   78.7180  223.0500 C   0  0  0  0  0  0  0  0  0  0  0  0
  137.9180   79.3020  223.3020 O   0  0  0  0  0  0  0  0  0  0  0  0
  140.1980   79.3400  223.0800 N   0  0  0  0  0  0  0  0  0  0  0  0
  140.2210   80.6510  223.3970 C   0  0  0  0  0  0  0  0  0  0  0  0
  141.4570   81.2920  223.4280 C   0  0  0  0  0  0  0  0  0  0  0  0
  142.6270   80.6440  223.1500 C   0  0  0  0  0  0  0  0  0  0  0  0
  142.5840   79.3150  222.8310 C   0  0  0  0  0  0  0  0  0  0  0  0
  141.3460   78.6980  222.8070 C   0  0  0  0  0  0  0  0  0  0  0  0
  141.3410   77.3820  222.4850 N   0  0  0  0  0  0  0  0  0  0  0  0
  140.1690   76.7240  222.4440 C   0  0  0  0  0  0  0  0  0  0  0  0
  140.0880   75.4250  222.1360 N   0  0  0  0  0  0  0  0  0  0  0  0
  138.9620   74.6980  222.0740 C   0  0  0  0  0  0  0  0  0  0  0  0
  139.0950   73.3410  221.6860 N   0  0  0  0  0  0  0  0  0  0  0  0
  139.1880   72.2580  222.6160 C   0  0  0  0  0  0  0  0  0  0  0  0
  138.2030   71.3150  222.7880 C   0  0  0  0  0  0  0  0  0  0  0  0
  138.3360   70.2880  223.7230 C   0  0  0  0  0  0  0  0  0  0  0  0
  139.4780   70.2200  224.4860 C   0  0  0  0  0  0  0  0  0  0  0  0
  139.5840   69.2160  225.3850 F   0  0  0  0  0  0  0  0  0  0  0  0
  140.4850   71.1420  224.3450 C   0  0  0  0  0  0  0  0  0  0  0  0
  140.3110   72.1350  223.4130 C   0  0  0  0  0  0  0  0  0  0  0  0
  134.5375   74.1770  226.3725 H   0  0  0  0  0  0  0  0  0  0  0  0
  135.6415   74.5313  225.0005 H   0  0  0  0  0  0  0  0  0  0  0  0
  133.9694   75.1877  225.0005 H   0  0  0  0  0  0  0  0  0  0  0  0
  133.0433   73.0819  224.2661 H   0  0  0  0  0  0  0  0  0  0  0  0
  134.2504   72.3010  226.5600 H   0  0  0  0  0  0  0  0  0  0  0  0
  133.5553   71.1555  225.3635 H   0  0  0  0  0  0  0  0  0  0  0  0
  135.3195   71.4936  225.3635 H   0  0  0  0  0  0  0  0  0  0  0  0
  135.1546   71.8893  223.1650 H   0  0  0  0  0  0  0  0  0  0  0  0
  134.3565   73.4164  222.5209 H   0  0  0  0  0  0  0  0  0  0  0  0
  136.8230   73.4700  224.1780 H   0  0  0  0  0  0  0  0  0  0  0  0
  136.8484   77.1631  222.8916 H   0  0  0  0  0  0  0  0  0  0  0  0
  139.2930   81.1964  223.6238 H   0  0  0  0  0  0  0  0  0  0  0  0
  141.4925   82.3607  223.6861 H   0  0  0  0  0  0  0  0  0  0  0  0
  143.5862   81.1815  223.1822 H   0  0  0  0  0  0  0  0  0  0  0  0
  143.5027   78.7554  222.6012 H   0  0  0  0  0  0  0  0  0  0  0  0
  139.1470   73.0250  220.6750 H   0  0  0  0  0  0  0  0  0  0  0  0
  137.2909   71.3711  222.1758 H   0  0  0  0  0  0  0  0  0  0  0  0
  137.5373   69.5421  223.8483 H   0  0  0  0  0  0  0  0  0  0  0  0
  141.3979   71.0873  224.9563 H   0  0  0  0  0  0  0  0  0  0  0  0
  141.1136   72.8776  223.2931 H   0  0  0  0  0  0  0  0  0  0  0  0
  1  2  1  0
  2  3  1  0
  2  4  1  0
  4  5  1  0
  5  6  1  0
  6  7  2  0
  6  8  1  0
  8  9  2  0
  9 10  1  0
 10 11  1  0
 11 12  2  0
 11 13  1  0
 13 14  1  0
 14 15  2  0
 15 16  1  0
 16 17  2  0
 17 18  1  0
 18 19  2  0
 19 20  1  0
 20 21  1  0
 21 22  2  0
 22 23  1  0
 23 24  1  0
 24 25  2  0
 25 26  1  0
 26 27  2  0
 27 28  1  0
 27 29  1  0
 29 30  2  0
 22  8  1  0
 30 24  1  0
 20 10  2  0
 18 13  1  0
  1 31  1  0
  1 32  1  0
  1 33  1  0
  2 34  1  0
  3 35  1  0
  3 36  1  0
  3 37  1  0
  4 38  1  0
  4 39  1  0
  5 40  1  0
  9 41  1  0
 14 42  1  0
 15 43  1  0
 16 44  1  0
 17 45  1  0
 23 46  1  0
 25 47  1  0
 26 48  1  0
 29 49  1  0
 30 50  1  0
M  END
>  <smiles>  (3) 
CC(C)CNC(=O)c1cc2c(=O)n3ccccc3nc2nc1Nc1ccc(F)cc1

>  <score_type>  (3) 
oracle

>  <origin>  (3) 
autodockgpu

>  <m_score__min__energy>  (3) 
-7.4500000000000002

>  <m_primary>  (3) 
energy

>  <meeko>  (3) 
{"free_energy": -7.11, "intermolecular_energy": -8.6, "internal_energy": -1.01, "cluster_size": 4, "cluster_id": 2, "rank_in_cluster": 3}

>  <energy>  (3) 
-7.45

>  <cluster_rmsd>  (3) 
0.04

>  <rmsd>  (3) 
272.62

>  <cluster>  (3) 
1

$$$$

     RDKit          3D

 50 53  0  0  0  0  0  0  0  0999 V2000
  140.3630   79.3920  223.7610 C   0  0  0  0  0  0  0  0  0  0  0  0
  141.4220   78.4690  223.1390 C   0  0  0  0  0  0  0  0  0  0  0  0
  142.5170   79.3820  222.6310 C   0  0  0  0  0  0  0  0  0  0  0  0
  140.7250   77.7370  222.0430 C   0  0  0  0  0  0  0  0  0  0  0  0
  141.3660   76.5110  221.6210 N   0  0  0  0  0  0  0  0  0  0  0  0
  140.6800   75.2600  221.8220 C   0  0  0  0  0  0  0  0  0  0  0  0
  139.5560   75.3780  222.3600 O   0  0  0  0  0  0  0  0  0  0  0  0
  141.3010   74.0230  221.4120 C   0  0  0  0  0  0  0  0  0  0  0  0
  142.2600   74.0210  220.4280 C   0  0  0  0  0  0  0  0  0  0  0  0
  142.9050   72.8440  220.0150 C   0  0  0  0  0  0  0  0  0  0  0  0
  143.8650   72.8640  219.0260 C   0  0  0  0  0  0  0  0  0  0  0  0
  144.1720   73.9490  218.4800 O   0  0  0  0  0  0  0  0  0  0  0  0
  144.4320   71.6840  218.6940 N   0  0  0  0  0  0  0  0  0  0  0  0
  145.3740   71.6870  217.7270 C   0  0  0  0  0  0  0  0  0  0  0  0
  145.9590   70.4700  217.3840 C   0  0  0  0  0  0  0  0  0  0  0  0
  145.6140   69.2930  217.9880 C   0  0  0  0  0  0  0  0  0  0  0  0
  144.6580   69.3110  218.9650 C   0  0  0  0  0  0  0  0  0  0  0  0
  144.0900   70.5300  219.2900 C   0  0  0  0  0  0  0  0  0  0  0  0
  143.1470   70.5080  220.2620 N   0  0  0  0  0  0  0  0  0  0  0  0
  142.5560   71.6610  220.6240 C   0  0  0  0  0  0  0  0  0  0  0  0
  141.6170   71.7160  221.5750 N   0  0  0  0  0  0  0  0  0  0  0  0
  140.9820   72.8220  221.9930 C   0  0  0  0  0  0  0  0  0  0  0  0
  139.9880   72.6520  222.9890 N   0  0  0  0  0  0  0  0  0  0  0  0
  139.9810   71.5690  223.9240 C   0  0  0  0  0  0  0  0  0  0  0  0
  140.7080   71.5650  225.0910 C   0  0  0  0  0  0  0  0  0  0  0  0
  140.6800   70.4730  225.9600 C   0  0  0  0  0  0  0  0  0  0  0  0
  139.9070   69.3820  225.6400 C   0  0  0  0  0  0  0  0  0  0  0  0
  139.8960   68.3380  226.4990 F   0  0  0  0  0  0  0  0  0  0  0  0
  139.1670   69.3470  224.4860 C   0  0  0  0  0  0  0  0  0  0  0  0
  139.2250   70.4430  223.6590 C   0  0  0  0  0  0  0  0  0  0  0  0
  140.4268   79.3364  224.8577 H   0  0  0  0  0  0  0  0  0  0  0  0
  140.5421   80.4273  223.4353 H   0  0  0  0  0  0  0  0  0  0  0  0
  139.3619   79.0732  223.4353 H   0  0  0  0  0  0  0  0  0  0  0  0
  141.8685   77.7343  223.8252 H   0  0  0  0  0  0  0  0  0  0  0  0
  143.0496   79.8261  223.4849 H   0  0  0  0  0  0  0  0  0  0  0  0
  143.2238   78.8019  222.0195 H   0  0  0  0  0  0  0  0  0  0  0  0
  142.0734   80.1816  222.0195 H   0  0  0  0  0  0  0  0  0  0  0  0
  139.7107   77.4897  222.3894 H   0  0  0  0  0  0  0  0  0  0  0  0
  140.7382   78.4063  221.1702 H   0  0  0  0  0  0  0  0  0  0  0  0
  142.3020   76.5910  221.1870 H   0  0  0  0  0  0  0  0  0  0  0  0
  142.5314   74.9728  219.9479 H   0  0  0  0  0  0  0  0  0  0  0  0
  145.6702   72.6204  217.2260 H   0  0  0  0  0  0  0  0  0  0  0  0
  146.7277   70.4556  216.5973 H   0  0  0  0  0  0  0  0  0  0  0  0
  146.0965   68.3494  217.6934 H   0  0  0  0  0  0  0  0  0  0  0  0
  144.3505   68.3867  219.4760 H   0  0  0  0  0  0  0  0  0  0  0  0
  139.1650   73.3110  223.1120 H   0  0  0  0  0  0  0  0  0  0  0  0
  141.3242   72.4401  225.3450 H   0  0  0  0  0  0  0  0  0  0  0  0
  141.2689   70.4852  226.8890 H   0  0  0  0  0  0  0  0  0  0  0  0
  138.5493   68.4731  224.2315 H   0  0  0  0  0  0  0  0  0  0  0  0
  138.6346   70.4228  222.7311 H   0  0  0  0  0  0  0  0  0  0  0  0
  1  2  1  0
  2  3  1  0
  2  4  1  0
  4  5  1  0
  5  6  1  0
  6  7  2  0
  6  8  1  0
  8  9  2  0
  9 10  1  0
 10 11  1  0
 11 12  2  0
 11 13  1  0
 13 14  1  0
 14 15  2  0
 15 16  1  0
 16 17  2  0
 17 18  1  0
 18 19  2  0
 19 20  1  0
 20 21  1  0
 21 22  2  0
 22 23  1  0
 23 24  1  0
 24 25  2  0
 25 26  1  0
 26 27  2  0
 27 28  1  0
 27 29  1  0
 29 30  2  0
 22  8  1  0
 30 24  1  0
 20 10  2  0
 18 13  1  0
  1 31  1  0
  1 32  1  0
  1 33  1  0
  2 34  1  0
  3 35  1  0
  3 36  1  0
  3 37  1  0
  4 38  1  0
  4 39  1  0
  5 40  1  0
  9 41  1  0
 14 42  1  0
 15 43  1  0
 16 44  1  0
 17 45  1  0
 23 46  1  0
 25 47  1  0
 26 48  1  0
 29 49  1  0
 30 50  1  0
M  END
>  <smiles>  (4) 
CC(C)CNC(=O)c1cc2c(=O)n3ccccc3nc2nc1Nc1ccc(F)cc1

>  <score_type>  (4) 
oracle

>  <origin>  (4) 
autodockgpu

>  <m_score__min__energy>  (4) 
-7.4500000000000002

>  <m_primary>  (4) 
energy

>  <meeko>  (4) 
{"free_energy": -7.43, "intermolecular_energy": -8.92, "internal_energy": -1.18, "cluster_size": 16, "cluster_id": 1, "rank_in_cluster": 11}

>  <energy>  (4) 
-7.45

>  <cluster_rmsd>  (4) 
0.07

>  <rmsd>  (4) 
272.66

>  <cluster>  (4) 
1

$$$$

     RDKit          3D

 50 53  0  0  0  0  0  0  0  0999 V2000
  140.3220   79.4250  223.7250 C   0  0  0  0  0  0  0  0  0  0  0  0
  141.3710   78.4940  223.1010 C   0  0  0  0  0  0  0  0  0  0  0  0
  142.4280   79.4020  222.5090 C   0  0  0  0  0  0  0  0  0  0  0  0
  140.6450   77.7020  222.0670 C   0  0  0  0  0  0  0  0  0  0  0  0
  141.3100   76.4880  221.6450 N   0  0  0  0  0  0  0  0  0  0  0  0
  140.6370   75.2270  221.8240 C   0  0  0  0  0  0  0  0  0  0  0  0
  139.5020   75.3260  222.3450 O   0  0  0  0  0  0  0  0  0  0  0  0
  141.2810   74.0020  221.4150 C   0  0  0  0  0  0  0  0  0  0  0  0
  142.2330   74.0160  220.4240 C   0  0  0  0  0  0  0  0  0  0  0  0
  142.9000   72.8510  220.0110 C   0  0  0  0  0  0  0  0  0  0  0  0
  143.8520   72.8880  219.0150 C   0  0  0  0  0  0  0  0  0  0  0  0
  144.1330   73.9780  218.4620 O   0  0  0  0  0  0  0  0  0  0  0  0
  144.4420   71.7190  218.6830 N   0  0  0  0  0  0  0  0  0  0  0  0
  145.3770   71.7380  217.7090 C   0  0  0  0  0  0  0  0  0  0  0  0
  145.9860   70.5330  217.3670 C   0  0  0  0  0  0  0  0  0  0  0  0
  145.6700   69.3520  217.9770 C   0  0  0  0  0  0  0  0  0  0  0  0
  144.7210   69.3520  218.9610 C   0  0  0  0  0  0  0  0  0  0  0  0
  144.1290   70.5600  219.2860 C   0  0  0  0  0  0  0  0  0  0  0  0
  143.1930   70.5220  220.2650 N   0  0  0  0  0  0  0  0  0  0  0  0
  142.5800   71.6640  220.6260 C   0  0  0  0  0  0  0  0  0  0  0  0
  141.6480   71.7020  221.5840 N   0  0  0  0  0  0  0  0  0  0  0  0
  140.9920   72.7960  222.0020 C   0  0  0  0  0  0  0  0  0  0  0  0
  140.0090   72.6090  223.0060 N   0  0  0  0  0  0  0  0  0  0  0  0
  139.9920   71.4920  223.8990 C   0  0  0  0  0  0  0  0  0  0  0  0
  139.2700   70.3450  223.6720 C   0  0  0  0  0  0  0  0  0  0  0  0
  139.2740   69.2900  224.5870 C   0  0  0  0  0  0  0  0  0  0  0  0
  140.0180   69.4050  225.7380 C   0  0  0  0  0  0  0  0  0  0  0  0
  140.0060   68.3700  226.6070 F   0  0  0  0  0  0  0  0  0  0  0  0
  140.7530   70.5330  226.0010 C   0  0  0  0  0  0  0  0  0  0  0  0
  140.7190   71.5450  225.0740 C   0  0  0  0  0  0  0  0  0  0  0  0
  140.3868   79.3675  224.8216 H   0  0  0  0  0  0  0  0  0  0  0  0
  140.5100   80.4590  223.4003 H   0  0  0  0  0  0  0  0  0  0  0  0
  139.3176   79.1156  223.4003 H   0  0  0  0  0  0  0  0  0  0  0  0
  141.8577   77.7980  223.8000 H   0  0  0  0  0  0  0  0  0  0  0  0
  142.9916   79.8861  223.3202 H   0  0  0  0  0  0  0  0  0  0  0  0
  143.1154   78.8085  221.8884 H   0  0  0  0  0  0  0  0  0  0  0  0
  141.9449   80.1711  221.8884 H   0  0  0  0  0  0  0  0  0  0  0  0
  139.6617   77.4273  222.4764 H   0  0  0  0  0  0  0  0  0  0  0  0
  140.5846   78.3440  221.1758 H   0  0  0  0  0  0  0  0  0  0  0  0
  142.2510   76.5840  221.2290 H   0  0  0  0  0  0  0  0  0  0  0  0
  142.4808   74.9713  219.9381 H   0  0  0  0  0  0  0  0  0  0  0  0
  145.6491   72.6754  217.2018 H   0  0  0  0  0  0  0  0  0  0  0  0
  146.7503   70.5321  216.5759 H   0  0  0  0  0  0  0  0  0  0  0  0
  146.1702   68.4179  217.6816 H   0  0  0  0  0  0  0  0  0  0  0  0
  144.4374   68.4229  219.4772 H   0  0  0  0  0  0  0  0  0  0  0  0
  139.2020   73.2790  223.1650 H   0  0  0  0  0  0  0  0  0  0  0  0
  138.6764   70.2560  222.7502 H   0  0  0  0  0  0  0  0  0  0  0  0
  138.6898   68.3791  224.3898 H   0  0  0  0  0  0  0  0  0  0  0  0
  141.3483   70.6234  226.9216 H   0  0  0  0  0  0  0  0  0  0  0  0
  141.3055   72.4529  225.2783 H   0  0  0  0  0  0  0  0  0  0  0  0
  1  2  1  0
  2  3  1  0
  2  4  1  0
  4  5  1  0
  5  6  1  0
  6  7  2  0
  6  8  1  0
  8  9  2  0
  9 10  1  0
 10 11  1  0
 11 12  2  0
 11 13  1  0
 13 14  1  0
 14 15  2  0
 15 16  1  0
 16 17  2  0
 17 18  1  0
 18 19  2  0
 19 20  1  0
 20 21  1  0
 21 22  2  0
 22 23  1  0
 23 24  1  0
 24 25  2  0
 25 26  1  0
 26 27  2  0
 27 28  1  0
 27 29  1  0
 29 30  2  0
 22  8  1  0
 30 24  1  0
 20 10  2  0
 18 13  1  0
  1 31  1  0
  1 32  1  0
  1 33  1  0
  2 34  1  0
  3 35  1  0
  3 36  1  0
  3 37  1  0
  4 38  1  0
  4 39  1  0
  5 40  1  0
  9 41  1  0
 14 42  1  0
 15 43  1  0
 16 44  1  0
 17 45  1  0
 23 46  1  0
 25 47  1  0
 26 48  1  0
 29 49  1  0
 30 50  1  0
M  END
>  <smiles>  (5) 
CC(C)CNC(=O)c1cc2c(=O)n3ccccc3nc2nc1Nc1ccc(F)cc1

>  <score_type>  (5) 
oracle

>  <origin>  (5) 
autodockgpu

>  <m_score__min__energy>  (5) 
-7.4500000000000002

>  <m_primary>  (5) 
energy

>  <meeko>  (5) 
{"free_energy": -7.44, "intermolecular_energy": -8.94, "internal_energy": -1.17, "cluster_size": 16, "cluster_id": 1, "rank_in_cluster": 5}

>  <energy>  (5) 
-7.44

>  <cluster_rmsd>  (5) 
0.05

>  <rmsd>  (5) 
272.66

>  <cluster>  (5) 
1

$$$$

     RDKit          3D

 50 53  0  0  0  0  0  0  0  0999 V2000
  140.3350   79.3620  223.7450 C   0  0  0  0  0  0  0  0  0  0  0  0
  141.3780   78.4510  223.0820 C   0  0  0  0  0  0  0  0  0  0  0  0
  142.4000   79.3790  222.4600 C   0  0  0  0  0  0  0  0  0  0  0  0
  140.6310   77.6520  222.0690 C   0  0  0  0  0  0  0  0  0  0  0  0
  141.2870   76.4360  221.6420 N   0  0  0  0  0  0  0  0  0  0  0  0
  140.6110   75.1770  221.8250 C   0  0  0  0  0  0  0  0  0  0  0  0
  139.4800   75.2800  222.3540 O   0  0  0  0  0  0  0  0  0  0  0  0
  141.2460   73.9490  221.4110 C   0  0  0  0  0  0  0  0  0  0  0  0
  142.2050   73.9620  220.4260 C   0  0  0  0  0  0  0  0  0  0  0  0
  142.8640   72.7950  220.0080 C   0  0  0  0  0  0  0  0  0  0  0  0
  143.8230   72.8310  219.0180 C   0  0  0  0  0  0  0  0  0  0  0  0
  144.1160   73.9220  218.4760 O   0  0  0  0  0  0  0  0  0  0  0  0
  144.4050   71.6590  218.6810 N   0  0  0  0  0  0  0  0  0  0  0  0
  145.3450   71.6770  217.7140 C   0  0  0  0  0  0  0  0  0  0  0  0
  145.9450   70.4690  217.3660 C   0  0  0  0  0  0  0  0  0  0  0  0
  145.6160   69.2870  217.9650 C   0  0  0  0  0  0  0  0  0  0  0  0
  144.6600   69.2880  218.9430 C   0  0  0  0  0  0  0  0  0  0  0  0
  144.0770   70.4990  219.2730 C   0  0  0  0  0  0  0  0  0  0  0  0
  143.1350   70.4620  220.2460 N   0  0  0  0  0  0  0  0  0  0  0  0
  142.5300   71.6060  220.6130 C   0  0  0  0  0  0  0  0  0  0  0  0
  141.5910   71.6450  221.5650 N   0  0  0  0  0  0  0  0  0  0  0  0
  140.9430   72.7420  221.9870 C   0  0  0  0  0  0  0  0  0  0  0  0
  139.9520   72.5560  222.9830 N   0  0  0  0  0  0  0  0  0  0  0  0
  139.9690   71.4800  223.9260 C   0  0  0  0  0  0  0  0  0  0  0  0
  140.6920   71.5030  225.0950 C   0  0  0  0  0  0  0  0  0  0  0  0
  140.6880   70.4180  225.9730 C   0  0  0  0  0  0  0  0  0  0  0  0
  139.9450   69.3050  225.6590 C   0  0  0  0  0  0  0  0  0  0  0  0
  139.9580   68.2670  226.5250 F   0  0  0  0  0  0  0  0  0  0  0  0
  139.2090   69.2420  224.5020 C   0  0  0  0  0  0  0  0  0  0  0  0
  139.2430   70.3330  223.6680 C   0  0  0  0  0  0  0  0  0  0  0  0
  140.4232   79.2850  224.8387 H   0  0  0  0  0  0  0  0  0  0  0  0
  140.5081   80.4033  223.4356 H   0  0  0  0  0  0  0  0  0  0  0  0
  139.3264   79.0504  223.4356 H   0  0  0  0  0  0  0  0  0  0  0  0
  141.8991   77.7599  223.7609 H   0  0  0  0  0  0  0  0  0  0  0  0
  142.9629   79.8901  223.2549 H   0  0  0  0  0  0  0  0  0  0  0  0
  143.0936   78.7956  221.8366 H   0  0  0  0  0  0  0  0  0  0  0  0
  141.8860   80.1255  221.8366 H   0  0  0  0  0  0  0  0  0  0  0  0
  139.6564   77.3800  222.5006 H   0  0  0  0  0  0  0  0  0  0  0  0
  140.5519   78.2878  221.1748 H   0  0  0  0  0  0  0  0  0  0  0  0
  142.2260   76.5270  221.2190 H   0  0  0  0  0  0  0  0  0  0  0  0
  142.4647   74.9188  219.9495 H   0  0  0  0  0  0  0  0  0  0  0  0
  145.6288   72.6158  217.2159 H   0  0  0  0  0  0  0  0  0  0  0  0
  146.7131   70.4673  216.5786 H   0  0  0  0  0  0  0  0  0  0  0  0
  146.1108   68.3510  217.6664 H   0  0  0  0  0  0  0  0  0  0  0  0
  144.3645   68.3577  219.4502 H   0  0  0  0  0  0  0  0  0  0  0  0
  139.1130   73.1960  223.1000 H   0  0  0  0  0  0  0  0  0  0  0  0
  141.2859   72.3949  225.3436 H   0  0  0  0  0  0  0  0  0  0  0  0
  141.2721   70.4531  226.9045 H   0  0  0  0  0  0  0  0  0  0  0  0
  138.6142   68.3511  224.2520 H   0  0  0  0  0  0  0  0  0  0  0  0
  138.6566   70.2910  222.7383 H   0  0  0  0  0  0  0  0  0  0  0  0
  1  2  1  0
  2  3  1  0
  2  4  1  0
  4  5  1  0
  5  6  1  0
  6  7  2  0
  6  8  1  0
  8  9  2  0
  9 10  1  0
 10 11  1  0
 11 12  2  0
 11 13  1  0
 13 14  1  0
 14 15  2  0
 15 16  1  0
 16 17  2  0
 17 18  1  0
 18 19  2  0
 19 20  1  0
 20 21  1  0
 21 22  2  0
 22 23  1  0
 23 24  1  0
 24 25  2  0
 25 26  1  0
 26 27  2  0
 27 28  1  0
 27 29  1  0
 29 30  2  0
 22  8  1  0
 30 24  1  0
 20 10  2  0
 18 13  1  0
  1 31  1  0
  1 32  1  0
  1 33  1  0
  2 34  1  0
  3 35  1  0
  3 36  1  0
  3 37  1  0
  4 38  1  0
  4 39  1  0
  5 40  1  0
  9 41  1  0
 14 42  1  0
 15 43  1  0
 16 44  1  0
 17 45  1  0
 23 46  1  0
 25 47  1  0
 26 48  1  0
 29 49  1  0
 30 50  1  0
M  END
>  <smiles>  (6) 
CC(C)CNC(=O)c1cc2c(=O)n3ccccc3nc2nc1Nc1ccc(F)cc1

>  <score_type>  (6) 
oracle

>  <origin>  (6) 
autodockgpu

>  <m_score__min__energy>  (6) 
-7.4500000000000002

>  <m_primary>  (6) 
energy

>  <meeko>  (6) 
{"free_energy": -7.44, "intermolecular_energy": -8.93, "internal_energy": -1.17, "cluster_size": 16, "cluster_id": 1, "rank_in_cluster": 8}

>  <energy>  (6) 
-7.44

>  <cluster_rmsd>  (6) 
0.04

>  <rmsd>  (6) 
272.66

>  <cluster>  (6) 
1

$$$$

     RDKit          3D

 50 53  0  0  0  0  0  0  0  0999 V2000
  140.3290   79.3820  223.7600 C   0  0  0  0  0  0  0  0  0  0  0  0
  141.3770   78.4560  223.1240 C   0  0  0  0  0  0  0  0  0  0  0  0
  142.4400   79.3690  222.5520 C   0  0  0  0  0  0  0  0  0  0  0  0
  140.6520   77.6840  222.0750 C   0  0  0  0  0  0  0  0  0  0  0  0
  141.3040   76.4660  221.6490 N   0  0  0  0  0  0  0  0  0  0  0  0
  140.6260   75.2090  221.8390 C   0  0  0  0  0  0  0  0  0  0  0  0
  139.4970   75.3160  222.3710 O   0  0  0  0  0  0  0  0  0  0  0  0
  141.2570   73.9790  221.4260 C   0  0  0  0  0  0  0  0  0  0  0  0
  142.2170   73.9880  220.4410 C   0  0  0  0  0  0  0  0  0  0  0  0
  142.8720   72.8180  220.0250 C   0  0  0  0  0  0  0  0  0  0  0  0
  143.8310   72.8500  219.0350 C   0  0  0  0  0  0  0  0  0  0  0  0
  144.1290   73.9400  218.4920 O   0  0  0  0  0  0  0  0  0  0  0  0
  144.4100   71.6760  218.7000 N   0  0  0  0  0  0  0  0  0  0  0  0
  145.3510   71.6900  217.7330 C   0  0  0  0  0  0  0  0  0  0  0  0
  145.9470   70.4800  217.3870 C   0  0  0  0  0  0  0  0  0  0  0  0
  145.6130   69.2990  217.9870 C   0  0  0  0  0  0  0  0  0  0  0  0
  144.6570   69.3040  218.9640 C   0  0  0  0  0  0  0  0  0  0  0  0
  144.0780   70.5170  219.2930 C   0  0  0  0  0  0  0  0  0  0  0  0
  143.1350   70.4840  220.2650 N   0  0  0  0  0  0  0  0  0  0  0  0
  142.5330   71.6300  220.6300 C   0  0  0  0  0  0  0  0  0  0  0  0
  141.5950   71.6740  221.5820 N   0  0  0  0  0  0  0  0  0  0  0  0
  140.9500   72.7730  222.0030 C   0  0  0  0  0  0  0  0  0  0  0  0
  139.9570   72.5910  222.9990 N   0  0  0  0  0  0  0  0  0  0  0  0
  139.9590   71.5050  223.9290 C   0  0  0  0  0  0  0  0  0  0  0  0
  140.6810   71.5050  225.1000 C   0  0  0  0  0  0  0  0  0  0  0  0
  140.6620   70.4100  225.9650 C   0  0  0  0  0  0  0  0  0  0  0  0
  139.9050   69.3100  225.6370 C   0  0  0  0  0  0  0  0  0  0  0  0
  139.9030   68.2630  226.4910 F   0  0  0  0  0  0  0  0  0  0  0  0
  139.1710   69.2700  224.4790 C   0  0  0  0  0  0  0  0  0  0  0  0
  139.2190   70.3700  223.6570 C   0  0  0  0  0  0  0  0  0  0  0  0
  140.4006   79.3187  224.8558 H   0  0  0  0  0  0  0  0  0  0  0  0
  140.5127   80.4182  223.4398 H   0  0  0  0  0  0  0  0  0  0  0  0
  139.3233   79.0721  223.4398 H   0  0  0  0  0  0  0  0  0  0  0  0
  141.8580   77.7460  223.8129 H   0  0  0  0  0  0  0  0  0  0  0  0
  142.9949   79.8456  223.3736 H   0  0  0  0  0  0  0  0  0  0  0  0
  143.1341   78.7812  221.9333 H   0  0  0  0  0  0  0  0  0  0  0  0
  141.9637   80.1438  221.9333 H   0  0  0  0  0  0  0  0  0  0  0  0
  139.6605   77.4192  222.4710 H   0  0  0  0  0  0  0  0  0  0  0  0
  140.6105   78.3351  221.1893 H   0  0  0  0  0  0  0  0  0  0  0  0
  142.2410   76.5540  221.2220 H   0  0  0  0  0  0  0  0  0  0  0  0
  142.4802   74.9434  219.9635 H   0  0  0  0  0  0  0  0  0  0  0  0
  145.6381   72.6273  217.2340 H   0  0  0  0  0  0  0  0  0  0  0  0
  146.7161   70.4749  216.6006 H   0  0  0  0  0  0  0  0  0  0  0  0
  146.1045   68.3610  217.6893 H   0  0  0  0  0  0  0  0  0  0  0  0
  144.3580   68.3751  219.4716 H   0  0  0  0  0  0  0  0  0  0  0  0
  139.1290   73.2430  223.1240 H   0  0  0  0  0  0  0  0  0  0  0  0
  141.2858   72.3863  225.3599 H   0  0  0  0  0  0  0  0  0  0  0  0
  141.2453   70.4267  226.8975 H   0  0  0  0  0  0  0  0  0  0  0  0
  138.5659   68.3893  224.2179 H   0  0  0  0  0  0  0  0  0  0  0  0
  138.6331   70.3457  222.7263 H   0  0  0  0  0  0  0  0  0  0  0  0
  1  2  1  0
  2  3  1  0
  2  4  1  0
  4  5  1  0
  5  6  1  0
  6  7  2  0
  6  8  1  0
  8  9  2  0
  9 10  1  0
 10 11  1  0
 11 12  2  0
 11 13  1  0
 13 14  1  0
 14 15  2  0
 15 16  1  0
 16 17  2  0
 17 18  1  0
 18 19  2  0
 19 20  1  0
 20 21  1  0
 21 22  2  0
 22 23  1  0
 23 24  1  0
 24 25  2  0
 25 26  1  0
 26 27  2  0
 27 28  1  0
 27 29  1  0
 29 30  2  0
 22  8  1  0
 30 24  1  0
 20 10  2  0
 18 13  1  0
  1 31  1  0
  1 32  1  0
  1 33  1  0
  2 34  1  0
  3 35  1  0
  3 36  1  0
  3 37  1  0
  4 38  1  0
  4 39  1  0
  5 40  1  0
  9 41  1  0
 14 42  1  0
 15 43  1  0
 16 44  1  0
 17 45  1  0
 23 46  1  0
 25 47  1  0
 26 48  1  0
 29 49  1  0
 30 50  1  0
M  END
>  <smiles>  (7) 
CC(C)CNC(=O)c1cc2c(=O)n3ccccc3nc2nc1Nc1ccc(F)cc1

>  <score_type>  (7) 
oracle

>  <origin>  (7) 
autodockgpu

>  <m_score__min__energy>  (7) 
-7.4500000000000002

>  <m_primary>  (7) 
energy

>  <meeko>  (7) 
{"free_energy": -7.44, "intermolecular_energy": -8.93, "internal_energy": -1.17, "cluster_size": 16, "cluster_id": 1, "rank_in_cluster": 9}

>  <energy>  (7) 
-7.44

>  <cluster_rmsd>  (7) 
0.08

>  <rmsd>  (7) 
272.65

>  <cluster>  (7) 
1

$$$$

     RDKit          3D

 50 53  0  0  0  0  0  0  0  0999 V2000
  141.7910   78.8060  220.7690 C   0  0  0  0  0  0  0  0  0  0  0  0
  141.0790   78.9610  222.1200 C   0  0  0  0  0  0  0  0  0  0  0  0
  142.1720   79.2220  223.1340 C   0  0  0  0  0  0  0  0  0  0  0  0
  140.3700   77.6710  222.3540 C   0  0  0  0  0  0  0  0  0  0  0  0
  141.0810   76.4920  221.9140 N   0  0  0  0  0  0  0  0  0  0  0  0
  140.4100   75.2170  221.9540 C   0  0  0  0  0  0  0  0  0  0  0  0
  139.2350   75.2750  222.3810 O   0  0  0  0  0  0  0  0  0  0  0  0
  141.1000   74.0250  221.5220 C   0  0  0  0  0  0  0  0  0  0  0  0
  142.0590   74.0950  220.5400 C   0  0  0  0  0  0  0  0  0  0  0  0
  142.7690   72.9640  220.1070 C   0  0  0  0  0  0  0  0  0  0  0  0
  143.7270   73.0570  219.1190 C   0  0  0  0  0  0  0  0  0  0  0  0
  143.9730   74.1680  218.5940 O   0  0  0  0  0  0  0  0  0  0  0  0
  144.3610   71.9180  218.7670 N   0  0  0  0  0  0  0  0  0  0  0  0
  145.3020   71.9910  217.8020 C   0  0  0  0  0  0  0  0  0  0  0  0
  145.9550   70.8160  217.4380 C   0  0  0  0  0  0  0  0  0  0  0  0
  145.6770   69.6110  218.0190 C   0  0  0  0  0  0  0  0  0  0  0  0
  144.7210   69.5560  218.9950 C   0  0  0  0  0  0  0  0  0  0  0  0
  144.0850   70.7350  219.3410 C   0  0  0  0  0  0  0  0  0  0  0  0
  143.1430   70.6420  220.3110 N   0  0  0  0  0  0  0  0  0  0  0  0
  142.4870   71.7530  220.6930 C   0  0  0  0  0  0  0  0  0  0  0  0
  141.5470   71.7370  221.6440 N   0  0  0  0  0  0  0  0  0  0  0  0
  140.8500   72.7970  222.0810 C   0  0  0  0  0  0  0  0  0  0  0  0
  139.8660   72.5530  223.0720 N   0  0  0  0  0  0  0  0  0  0  0  0
  139.9490   71.4880  224.0240 C   0  0  0  0  0  0  0  0  0  0  0  0
  140.7100   71.5460  225.1670 C   0  0  0  0  0  0  0  0  0  0  0  0
  140.7710   70.4710  226.0550 C   0  0  0  0  0  0  0  0  0  0  0  0
  140.0520   69.3320  225.7770 C   0  0  0  0  0  0  0  0  0  0  0  0
  140.1270   68.3040  226.6520 F   0  0  0  0  0  0  0  0  0  0  0  0
  139.2800   69.2340  224.6470 C   0  0  0  0  0  0  0  0  0  0  0  0
  139.2510   70.3160  223.8020 C   0  0  0  0  0  0  0  0  0  0  0  0
  142.8530   78.5748  220.9386 H   0  0  0  0  0  0  0  0  0  0  0  0
  141.3241   77.9885  220.2001 H   0  0  0  0  0  0  0  0  0  0  0  0
  141.7062   79.7436  220.2001 H   0  0  0  0  0  0  0  0  0  0  0  0
  140.3465   79.7798  222.1749 H   0  0  0  0  0  0  0  0  0  0  0  0
  141.7610   79.1239  224.1496 H   0  0  0  0  0  0  0  0  0  0  0  0
  142.9833   78.4923  222.9947 H   0  0  0  0  0  0  0  0  0  0  0  0
  142.5661   80.2395  222.9947 H   0  0  0  0  0  0  0  0  0  0  0  0
  140.1857   77.5745  223.4342 H   0  0  0  0  0  0  0  0  0  0  0  0
  139.4487   77.7147  221.7546 H   0  0  0  0  0  0  0  0  0  0  0  0
  142.0530   76.6200  221.5850 H   0  0  0  0  0  0  0  0  0  0  0  0
  142.2774   75.0692  220.0782 H   0  0  0  0  0  0  0  0  0  0  0  0
  145.5454   72.9485  217.3183 H   0  0  0  0  0  0  0  0  0  0  0  0
  146.7240   70.8597  216.6527 H   0  0  0  0  0  0  0  0  0  0  0  0
  146.2124   68.7020  217.7073 H   0  0  0  0  0  0  0  0  0  0  0  0
  144.4661   68.6065  219.4884 H   0  0  0  0  0  0  0  0  0  0  0  0
  138.9860   73.1360  223.1780 H   0  0  0  0  0  0  0  0  0  0  0  0
  141.2831   72.4589  225.3866 H   0  0  0  0  0  0  0  0  0  0  0  0
  141.3858   70.5339  226.9650 H   0  0  0  0  0  0  0  0  0  0  0  0
  138.7055   68.3223  224.4261 H   0  0  0  0  0  0  0  0  0  0  0  0
  138.6349   70.2457  222.8934 H   0  0  0  0  0  0  0  0  0  0  0  0
  1  2  1  0
  2  3  1  0
  2  4  1  0
  4  5  1  0
  5  6  1  0
  6  7  2  0
  6  8  1  0
  8  9  2  0
  9 10  1  0
 10 11  1  0
 11 12  2  0
 11 13  1  0
 13 14  1  0
 14 15  2  0
 15 16  1  0
 16 17  2  0
 17 18  1  0
 18 19  2  0
 19 20  1  0
 20 21  1  0
 21 22  2  0
 22 23  1  0
 23 24  1  0
 24 25  2  0
 25 26  1  0
 26 27  2  0
 27 28  1  0
 27 29  1  0
 29 30  2  0
 22  8  1  0
 30 24  1  0
 20 10  2  0
 18 13  1  0
  1 31  1  0
  1 32  1  0
  1 33  1  0
  2 34  1  0
  3 35  1  0
  3 36  1  0
  3 37  1  0
  4 38  1  0
  4 39  1  0
  5 40  1  0
  9 41  1  0
 14 42  1  0
 15 43  1  0
 16 44  1  0
 17 45  1  0
 23 46  1  0
 25 47  1  0
 26 48  1  0
 29 49  1  0
 30 50  1  0
M  END
>  <smiles>  (8) 
CC(C)CNC(=O)c1cc2c(=O)n3ccccc3nc2nc1Nc1ccc(F)cc1

>  <score_type>  (8) 
oracle

>  <origin>  (8) 
autodockgpu

>  <m_score__min__energy>  (8) 
-7.4500000000000002

>  <m_primary>  (8) 
energy

>  <meeko>  (8) 
{"free_energy": -7.22, "intermolecular_energy": -8.71, "internal_energy": -1.12, "cluster_size": 16, "cluster_id": 1, "rank_in_cluster": 16}

>  <energy>  (8) 
-7.44

>  <cluster_rmsd>  (8) 
0.07

>  <rmsd>  (8) 
272.61

>  <cluster>  (8) 
1

$$$$

     RDKit          3D

 50 53  0  0  0  0  0  0  0  0999 V2000
  140.3670   79.4030  223.7520 C   0  0  0  0  0  0  0  0  0  0  0  0
  141.4060   78.4810  223.0970 C   0  0  0  0  0  0  0  0  0  0  0  0
  142.4510   79.3980  222.4970 C   0  0  0  0  0  0  0  0  0  0  0  0
  140.6630   77.7000  222.0680 C   0  0  0  0  0  0  0  0  0  0  0  0
  141.3090   76.4800  221.6390 N   0  0  0  0  0  0  0  0  0  0  0  0
  140.6230   75.2260  221.8220 C   0  0  0  0  0  0  0  0  0  0  0  0
  139.4950   75.3370  222.3520 O   0  0  0  0  0  0  0  0  0  0  0  0
  141.2490   73.9940  221.4050 C   0  0  0  0  0  0  0  0  0  0  0  0
  142.2110   74.0020  220.4230 C   0  0  0  0  0  0  0  0  0  0  0  0
  142.8610   72.8300  220.0030 C   0  0  0  0  0  0  0  0  0  0  0  0
  143.8230   72.8610  219.0160 C   0  0  0  0  0  0  0  0  0  0  0  0
  144.1270   73.9510  218.4780 O   0  0  0  0  0  0  0  0  0  0  0  0
  144.3950   71.6850  218.6770 N   0  0  0  0  0  0  0  0  0  0  0  0
  145.3390   71.6980  217.7120 C   0  0  0  0  0  0  0  0  0  0  0  0
  145.9290   70.4860  217.3620 C   0  0  0  0  0  0  0  0  0  0  0  0
  145.5870   69.3040  217.9560 C   0  0  0  0  0  0  0  0  0  0  0  0
  144.6290   69.3110  218.9320 C   0  0  0  0  0  0  0  0  0  0  0  0
  144.0560   70.5260  219.2640 C   0  0  0  0  0  0  0  0  0  0  0  0
  143.1100   70.4940  220.2340 N   0  0  0  0  0  0  0  0  0  0  0  0
  142.5140   71.6420  220.6020 C   0  0  0  0  0  0  0  0  0  0  0  0
  141.5730   71.6860  221.5520 N   0  0  0  0  0  0  0  0  0  0  0  0
  140.9340   72.7870  221.9760 C   0  0  0  0  0  0  0  0  0  0  0  0
  139.9380   72.6070  222.9690 N   0  0  0  0  0  0  0  0  0  0  0  0
  139.9130   71.4990  223.8730 C   0  0  0  0  0  0  0  0  0  0  0  0
  139.1640   70.3650  223.6690 C   0  0  0  0  0  0  0  0  0  0  0  0
  139.1620   69.3190  224.5940 C   0  0  0  0  0  0  0  0  0  0  0  0
  139.9280   69.4290  225.7310 C   0  0  0  0  0  0  0  0  0  0  0  0
  139.9090   68.4030  226.6110 F   0  0  0  0  0  0  0  0  0  0  0  0
  140.6900   70.5440  225.9710 C   0  0  0  0  0  0  0  0  0  0  0  0
  140.6610   71.5480  225.0350 C   0  0  0  0  0  0  0  0  0  0  0  0
  140.4498   79.3295  224.8464 H   0  0  0  0  0  0  0  0  0  0  0  0
  140.5497   80.4417  223.4394 H   0  0  0  0  0  0  0  0  0  0  0  0
  139.3574   79.0981  223.4394 H   0  0  0  0  0  0  0  0  0  0  0  0
  141.9065   77.7773  223.7784 H   0  0  0  0  0  0  0  0  0  0  0  0
  143.0129   79.8911  223.3039 H   0  0  0  0  0  0  0  0  0  0  0  0
  143.1420   78.8094  221.8756 H   0  0  0  0  0  0  0  0  0  0  0  0
  141.9572   80.1596  221.8756 H   0  0  0  0  0  0  0  0  0  0  0  0
  139.6796   77.4365  222.4846 H   0  0  0  0  0  0  0  0  0  0  0  0
  140.6037   78.3442  221.1784 H   0  0  0  0  0  0  0  0  0  0  0  0
  142.2470   76.5650  221.2140 H   0  0  0  0  0  0  0  0  0  0  0  0
  142.4806   74.9581  219.9505 H   0  0  0  0  0  0  0  0  0  0  0  0
  145.6328   72.6359  217.2180 H   0  0  0  0  0  0  0  0  0  0  0  0
  146.6999   70.4801  216.5773 H   0  0  0  0  0  0  0  0  0  0  0  0
  146.0731   68.3643  217.6548 H   0  0  0  0  0  0  0  0  0  0  0  0
  144.3242   68.3820  219.4361 H   0  0  0  0  0  0  0  0  0  0  0  0
  139.1260   73.2760  223.1110 H   0  0  0  0  0  0  0  0  0  0  0  0
  138.5533   70.2795  222.7581 H   0  0  0  0  0  0  0  0  0  0  0  0
  138.5557   68.4187  224.4156 H   0  0  0  0  0  0  0  0  0  0  0  0
  141.3023   70.6306  226.8807 H   0  0  0  0  0  0  0  0  0  0  0  0
  141.2694   72.4454  225.2206 H   0  0  0  0  0  0  0  0  0  0  0  0
  1  2  1  0
  2  3  1  0
  2  4  1  0
  4  5  1  0
  5  6  1  0
  6  7  2  0
  6  8  1  0
  8  9  2  0
  9 10  1  0
 10 11  1  0
 11 12  2  0
 11 13  1  0
 13 14  1  0
 14 15  2  0
 15 16  1  0
 16 17  2  0
 17 18  1  0
 18 19  2  0
 19 20  1  0
 20 21  1  0
 21 22  2  0
 22 23  1  0
 23 24  1  0
 24 25  2  0
 25 26  1  0
 26 27  2  0
 27 28  1  0
 27 29  1  0
 29 30  2  0
 22  8  1  0
 30 24  1  0
 20 10  2  0
 18 13  1  0
  1 31  1  0
  1 32  1  0
  1 33  1  0
  2 34  1  0
  3 35  1  0
  3 36  1  0
  3 37  1  0
  4 38  1  0
  4 39  1  0
  5 40  1  0
  9 41  1  0
 14 42  1  0
 15 43  1  0
 16 44  1  0
 17 45  1  0
 23 46  1  0
 25 47  1  0
 26 48  1  0
 29 49  1  0
 30 50  1  0
M  END
>  <smiles>  (9) 
CC(C)CNC(=O)c1cc2c(=O)n3ccccc3nc2nc1Nc1ccc(F)cc1

>  <score_type>  (9) 
oracle

>  <origin>  (9) 
autodockgpu

>  <m_score__min__energy>  (9) 
-7.4500000000000002

>  <m_primary>  (9) 
energy

>  <meeko>  (9) 
{"free_energy": -7.45, "intermolecular_energy": -8.94, "internal_energy": -1.17, "cluster_size": 16, "cluster_id": 1, "rank_in_cluster": 3}

>  <energy>  (9) 
-7.44

>  <cluster_rmsd>  (9) 
0.07

>  <rmsd>  (9) 
272.63

>  <cluster>  (9) 
1

$$$$

     RDKit          3D

 50 53  0  0  0  0  0  0  0  0999 V2000
  140.3810   79.4030  223.7790 C   0  0  0  0  0  0  0  0  0  0  0  0
  141.4180   78.4720  223.1350 C   0  0  0  0  0  0  0  0  0  0  0  0
  142.4730   79.3790  222.5400 C   0  0  0  0  0  0  0  0  0  0  0  0
  140.6760   77.6930  222.1020 C   0  0  0  0  0  0  0  0  0  0  0  0
  141.3240   76.4740  221.6710 N   0  0  0  0  0  0  0  0  0  0  0  0
  140.6430   75.2180  221.8590 C   0  0  0  0  0  0  0  0  0  0  0  0
  139.5170   75.3270  222.3960 O   0  0  0  0  0  0  0  0  0  0  0  0
  141.2700   73.9880  221.4400 C   0  0  0  0  0  0  0  0  0  0  0  0
  142.2270   73.9970  220.4530 C   0  0  0  0  0  0  0  0  0  0  0  0
  142.8780   72.8270  220.0310 C   0  0  0  0  0  0  0  0  0  0  0  0
  143.8350   72.8600  219.0400 C   0  0  0  0  0  0  0  0  0  0  0  0
  144.1350   73.9510  218.5000 O   0  0  0  0  0  0  0  0  0  0  0  0
  144.4090   71.6850  218.6990 N   0  0  0  0  0  0  0  0  0  0  0  0
  145.3480   71.7000  217.7300 C   0  0  0  0  0  0  0  0  0  0  0  0
  145.9400   70.4890  217.3780 C   0  0  0  0  0  0  0  0  0  0  0  0
  145.6040   69.3070  217.9740 C   0  0  0  0  0  0  0  0  0  0  0  0
  144.6500   69.3120  218.9540 C   0  0  0  0  0  0  0  0  0  0  0  0
  144.0750   70.5250  219.2880 C   0  0  0  0  0  0  0  0  0  0  0  0
  143.1340   70.4920  220.2620 N   0  0  0  0  0  0  0  0  0  0  0  0
  142.5370   71.6380  220.6330 C   0  0  0  0  0  0  0  0  0  0  0  0
  141.6010   71.6810  221.5870 N   0  0  0  0  0  0  0  0  0  0  0  0
  140.9600   72.7810  222.0130 C   0  0  0  0  0  0  0  0  0  0  0  0
  139.9690   72.5990  223.0110 N   0  0  0  0  0  0  0  0  0  0  0  0
  139.9500   71.4900  223.9140 C   0  0  0  0  0  0  0  0  0  0  0  0
  139.2050   70.3520  223.7100 C   0  0  0  0  0  0  0  0  0  0  0  0
  139.2080   69.3060  224.6330 C   0  0  0  0  0  0  0  0  0  0  0  0
  139.9740   69.4180  225.7700 C   0  0  0  0  0  0  0  0  0  0  0  0
  139.9610   68.3910  226.6490 F   0  0  0  0  0  0  0  0  0  0  0  0
  140.7320   70.5360  226.0110 C   0  0  0  0  0  0  0  0  0  0  0  0
  140.6980   71.5410  225.0750 C   0  0  0  0  0  0  0  0  0  0  0  0
  140.4571   79.3347  224.8742 H   0  0  0  0  0  0  0  0  0  0  0  0
  140.5715   80.4390  223.4621 H   0  0  0  0  0  0  0  0  0  0  0  0
  139.3714   79.1024  223.4621 H   0  0  0  0  0  0  0  0  0  0  0  0
  141.9087   77.7670  223.8222 H   0  0  0  0  0  0  0  0  0  0  0  0
  143.0379   79.8646  223.3494 H   0  0  0  0  0  0  0  0  0  0  0  0
  143.1595   78.7848  221.9190 H   0  0  0  0  0  0  0  0  0  0  0  0
  141.9885   80.1469  221.9190 H   0  0  0  0  0  0  0  0  0  0  0  0
  139.6921   77.4279  222.5164 H   0  0  0  0  0  0  0  0  0  0  0  0
  140.6171   78.3395  221.2140 H   0  0  0  0  0  0  0  0  0  0  0  0
  142.2600   76.5610  221.2400 H   0  0  0  0  0  0  0  0  0  0  0  0
  142.4915   74.9532  219.9779 H   0  0  0  0  0  0  0  0  0  0  0  0
  145.6368   72.6383  217.2339 H   0  0  0  0  0  0  0  0  0  0  0  0
  146.7074   70.4847  216.5899 H   0  0  0  0  0  0  0  0  0  0  0  0
  146.0916   68.3685  217.6715 H   0  0  0  0  0  0  0  0  0  0  0  0
  144.3499   68.3824  219.4598 H   0  0  0  0  0  0  0  0  0  0  0  0
  139.1580   73.2670  223.1570 H   0  0  0  0  0  0  0  0  0  0  0  0
  138.5938   70.2648  222.7996 H   0  0  0  0  0  0  0  0  0  0  0  0
  138.6055   68.4033  224.4539 H   0  0  0  0  0  0  0  0  0  0  0  0
  141.3445   70.6244  226.9204 H   0  0  0  0  0  0  0  0  0  0  0  0
  141.3028   72.4408  225.2609 H   0  0  0  0  0  0  0  0  0  0  0  0
  1  2  1  0
  2  3  1  0
  2  4  1  0
  4  5  1  0
  5  6  1  0
  6  7  2  0
  6  8  1  0
  8  9  2  0
  9 10  1  0
 10 11  1  0
 11 12  2  0
 11 13  1  0
 13 14  1  0
 14 15  2  0
 15 16  1  0
 16 17  2  0
 17 18  1  0
 18 19  2  0
 19 20  1  0
 20 21  1  0
 21 22  2  0
 22 23  1  0
 23 24  1  0
 24 25  2  0
 25 26  1  0
 26 27  2  0
 27 28  1  0
 27 29  1  0
 29 30  2  0
 22  8  1  0
 30 24  1  0
 20 10  2  0
 18 13  1  0
  1 31  1  0
  1 32  1  0
  1 33  1  0
  2 34  1  0
  3 35  1  0
  3 36  1  0
  3 37  1  0
  4 38  1  0
  4 39  1  0
  5 40  1  0
  9 41  1  0
 14 42  1  0
 15 43  1  0
 16 44  1  0
 17 45  1  0
 23 46  1  0
 25 47  1  0
 26 48  1  0
 29 49  1  0
 30 50  1  0
M  END
>  <smiles>  (10) 
CC(C)CNC(=O)c1cc2c(=O)n3ccccc3nc2nc1Nc1ccc(F)cc1

>  <score_type>  (10) 
oracle

>  <origin>  (10) 
autodockgpu

>  <m_score__min__energy>  (10) 
-7.4500000000000002

>  <m_primary>  (10) 
energy

>  <meeko>  (10) 
{"free_energy": -7.45, "intermolecular_energy": -8.95, "internal_energy": -1.17, "cluster_size": 16, "cluster_id": 1, "rank_in_cluster": 1}

>  <energy>  (10) 
-7.43

>  <cluster_rmsd>  (10) 
0.07

>  <rmsd>  (10) 
272.61

>  <cluster>  (10) 
1

$$$$

     RDKit          3D

 50 53  0  0  0  0  0  0  0  0999 V2000
  141.7990   78.8630  223.8430 C   0  0  0  0  0  0  0  0  0  0  0  0
  141.6580   78.7980  222.3150 C   0  0  0  0  0  0  0  0  0  0  0  0
  141.0860   80.1350  221.8970 C   0  0  0  0  0  0  0  0  0  0  0  0
  140.7330   77.6620  222.0420 C   0  0  0  0  0  0  0  0  0  0  0  0
  141.3750   76.4350  221.6250 N   0  0  0  0  0  0  0  0  0  0  0  0
  140.6830   75.1860  221.8180 C   0  0  0  0  0  0  0  0  0  0  0  0
  139.5540   75.3060  222.3460 O   0  0  0  0  0  0  0  0  0  0  0  0
  141.3050   73.9470  221.4130 C   0  0  0  0  0  0  0  0  0  0  0  0
  142.2730   73.9430  220.4380 C   0  0  0  0  0  0  0  0  0  0  0  0
  142.9190   72.7650  220.0300 C   0  0  0  0  0  0  0  0  0  0  0  0
  143.8880   72.7840  219.0490 C   0  0  0  0  0  0  0  0  0  0  0  0
  144.2030   73.8690  218.5070 O   0  0  0  0  0  0  0  0  0  0  0  0
  144.4560   71.6030  218.7210 N   0  0  0  0  0  0  0  0  0  0  0  0
  145.4060   71.6040  217.7630 C   0  0  0  0  0  0  0  0  0  0  0  0
  145.9910   70.3860  217.4250 C   0  0  0  0  0  0  0  0  0  0  0  0
  145.6380   69.2100  218.0240 C   0  0  0  0  0  0  0  0  0  0  0  0
  144.6730   69.2290  218.9930 C   0  0  0  0  0  0  0  0  0  0  0  0
  144.1050   70.4490  219.3130 C   0  0  0  0  0  0  0  0  0  0  0  0
  143.1520   70.4290  220.2770 N   0  0  0  0  0  0  0  0  0  0  0  0
  142.5610   71.5830  220.6340 C   0  0  0  0  0  0  0  0  0  0  0  0
  141.6140   71.6390  221.5770 N   0  0  0  0  0  0  0  0  0  0  0  0
  140.9780   72.7460  221.9890 C   0  0  0  0  0  0  0  0  0  0  0  0
  139.9740   72.5780  222.9760 N   0  0  0  0  0  0  0  0  0  0  0  0
  139.9350   71.4750  223.8850 C   0  0  0  0  0  0  0  0  0  0  0  0
  139.1710   70.3490  223.6860 C   0  0  0  0  0  0  0  0  0  0  0  0
  139.1540   69.3080  224.6150 C   0  0  0  0  0  0  0  0  0  0  0  0
  139.9210   69.4120  225.7520 C   0  0  0  0  0  0  0  0  0  0  0  0
  139.8890   68.3910  226.6360 F   0  0  0  0  0  0  0  0  0  0  0  0
  140.6980   70.5180  225.9880 C   0  0  0  0  0  0  0  0  0  0  0  0
  140.6820   71.5190  225.0470 C   0  0  0  0  0  0  0  0  0  0  0  0
  140.8957   78.4465  224.3126 H   0  0  0  0  0  0  0  0  0  0  0  0
  142.6772   78.2789  224.1554 H   0  0  0  0  0  0  0  0  0  0  0  0
  141.9251   79.9101  224.1554 H   0  0  0  0  0  0  0  0  0  0  0  0
  142.5940   78.6291  221.7624 H   0  0  0  0  0  0  0  0  0  0  0  0
  140.8347   80.7224  222.7924 H   0  0  0  0  0  0  0  0  0  0  0  0
  141.8295   80.6806  221.2973 H   0  0  0  0  0  0  0  0  0  0  0  0
  140.1780   79.9740  221.2973 H   0  0  0  0  0  0  0  0  0  0  0  0
  140.1669   77.4548  222.9621 H   0  0  0  0  0  0  0  0  0  0  0  0
  140.0997   77.9780  221.1999 H   0  0  0  0  0  0  0  0  0  0  0  0
  142.3140   76.5120  221.2010 H   0  0  0  0  0  0  0  0  0  0  0  0
  142.5512   74.8944  219.9611 H   0  0  0  0  0  0  0  0  0  0  0  0
  145.7088   72.5368  217.2649 H   0  0  0  0  0  0  0  0  0  0  0  0
  146.7672   70.3704  216.6457 H   0  0  0  0  0  0  0  0  0  0  0  0
  146.1208   68.2656  217.7324 H   0  0  0  0  0  0  0  0  0  0  0  0
  144.3591   68.3051  219.5008 H   0  0  0  0  0  0  0  0  0  0  0  0
  139.1670   73.2540  223.1100 H   0  0  0  0  0  0  0  0  0  0  0  0
  138.5602   70.2672  222.7749 H   0  0  0  0  0  0  0  0  0  0  0  0
  138.5351   68.4156  224.4403 H   0  0  0  0  0  0  0  0  0  0  0  0
  141.3113   70.6003  226.8974 H   0  0  0  0  0  0  0  0  0  0  0  0
  141.3014   72.4095  225.2295 H   0  0  0  0  0  0  0  0  0  0  0  0
  1  2  1  0
  2  3  1  0
  2  4  1  0
  4  5  1  0
  5  6  1  0
  6  7  2  0
  6  8  1  0
  8  9  2  0
  9 10  1  0
 10 11  1  0
 11 12  2  0
 11 13  1  0
 13 14  1  0
 14 15  2  0
 15 16  1  0
 16 17  2  0
 17 18  1  0
 18 19  2  0
 19 20  1  0
 20 21  1  0
 21 22  2  0
 22 23  1  0
 23 24  1  0
 24 25  2  0
 25 26  1  0
 26 27  2  0
 27 28  1  0
 27 29  1  0
 29 30  2  0
 22  8  1  0
 30 24  1  0
 20 10  2  0
 18 13  1  0
  1 31  1  0
  1 32  1  0
  1 33  1  0
  2 34  1  0
  3 35  1  0
  3 36  1  0
  3 37  1  0
  4 38  1  0
  4 39  1  0
  5 40  1  0
  9 41  1  0
 14 42  1  0
 15 43  1  0
 16 44  1  0
 17 45  1  0
 23 46  1  0
 25 47  1  0
 26 48  1  0
 29 49  1  0
 30 50  1  0
M  END
>  <smiles>  (11) 
CC(C)CNC(=O)c1cc2c(=O)n3ccccc3nc2nc1Nc1ccc(F)cc1

>  <score_type>  (11) 
oracle

>  <origin>  (11) 
autodockgpu

>  <m_score__min__energy>  (11) 
-7.4500000000000002

>  <m_primary>  (11) 
energy

>  <meeko>  (11) 
{"free_energy": -7.37, "intermolecular_energy": -8.86, "internal_energy": -1.17, "cluster_size": 16, "cluster_id": 1, "rank_in_cluster": 12}

>  <energy>  (11) 
-7.43

>  <cluster_rmsd>  (11) 
0.07

>  <rmsd>  (11) 
272.65

>  <cluster>  (11) 
1

$$$$

     RDKit          3D

 50 53  0  0  0  0  0  0  0  0999 V2000
  141.7650   78.7690  220.8570 C   0  0  0  0  0  0  0  0  0  0  0  0
  141.0640   78.8540  222.2210 C   0  0  0  0  0  0  0  0  0  0  0  0
  142.1670   79.0310  223.2420 C   0  0  0  0  0  0  0  0  0  0  0  0
  140.3310   77.5660  222.3790 C   0  0  0  0  0  0  0  0  0  0  0  0
  141.0500   76.3920  221.9360 N   0  0  0  0  0  0  0  0  0  0  0  0
  140.3850   75.1140  221.9650 C   0  0  0  0  0  0  0  0  0  0  0  0
  139.2070   75.1640  222.3860 O   0  0  0  0  0  0  0  0  0  0  0  0
  141.0840   73.9280  221.5300 C   0  0  0  0  0  0  0  0  0  0  0  0
  142.0380   74.0060  220.5440 C   0  0  0  0  0  0  0  0  0  0  0  0
  142.7560   72.8820  220.1080 C   0  0  0  0  0  0  0  0  0  0  0  0
  143.7090   72.9830  219.1170 C   0  0  0  0  0  0  0  0  0  0  0  0
  143.9430   74.0960  218.5900 O   0  0  0  0  0  0  0  0  0  0  0  0
  144.3510   71.8480  218.7610 N   0  0  0  0  0  0  0  0  0  0  0  0
  145.2870   71.9300  217.7920 C   0  0  0  0  0  0  0  0  0  0  0  0
  145.9480   70.7610  217.4260 C   0  0  0  0  0  0  0  0  0  0  0  0
  145.6830   69.5530  218.0080 C   0  0  0  0  0  0  0  0  0  0  0  0
  144.7320   69.4900  218.9880 C   0  0  0  0  0  0  0  0  0  0  0  0
  144.0870   70.6640  219.3370 C   0  0  0  0  0  0  0  0  0  0  0  0
  143.1500   70.5630  220.3100 N   0  0  0  0  0  0  0  0  0  0  0  0
  142.4860   71.6680  220.6950 C   0  0  0  0  0  0  0  0  0  0  0  0
  141.5500   71.6440  221.6500 N   0  0  0  0  0  0  0  0  0  0  0  0
  140.8460   72.6980  222.0890 C   0  0  0  0  0  0  0  0  0  0  0  0
  139.8680   72.4450  223.0850 N   0  0  0  0  0  0  0  0  0  0  0  0
  139.9540   71.3680  224.0220 C   0  0  0  0  0  0  0  0  0  0  0  0
  139.2690   70.1840  223.8870 C   0  0  0  0  0  0  0  0  0  0  0  0
  139.3730   69.1710  224.8410 C   0  0  0  0  0  0  0  0  0  0  0  0
  140.1790   69.3650  225.9380 C   0  0  0  0  0  0  0  0  0  0  0  0
  140.2630   68.3690  226.8480 F   0  0  0  0  0  0  0  0  0  0  0  0
  140.8790   70.5320  226.1110 C   0  0  0  0  0  0  0  0  0  0  0  0
  140.7460   71.5020  225.1470 C   0  0  0  0  0  0  0  0  0  0  0  0
  142.8466   78.6378  221.0082 H   0  0  0  0  0  0  0  0  0  0  0  0
  141.3671   77.9125  220.2930 H   0  0  0  0  0  0  0  0  0  0  0  0
  141.5833   79.6958  220.2930 H   0  0  0  0  0  0  0  0  0  0  0  0
  140.3485   79.6821  222.3318 H   0  0  0  0  0  0  0  0  0  0  0  0
  141.7434   78.9630  224.2549 H   0  0  0  0  0  0  0  0  0  0  0  0
  142.9220   78.2425  223.1066 H   0  0  0  0  0  0  0  0  0  0  0  0
  142.6374   80.0161  223.1066 H   0  0  0  0  0  0  0  0  0  0  0  0
  140.0935   77.4378  223.4454 H   0  0  0  0  0  0  0  0  0  0  0  0
  139.4406   77.6398  221.7373 H   0  0  0  0  0  0  0  0  0  0  0  0
  142.0230   76.5270  221.6140 H   0  0  0  0  0  0  0  0  0  0  0  0
  142.2457   74.9820  220.0811 H   0  0  0  0  0  0  0  0  0  0  0  0
  145.5199   72.8896  217.3073 H   0  0  0  0  0  0  0  0  0  0  0  0
  146.7135   70.8113  216.6376 H   0  0  0  0  0  0  0  0  0  0  0  0
  146.2247   68.6487  217.6938 H   0  0  0  0  0  0  0  0  0  0  0  0
  144.4875   68.5384  219.4826 H   0  0  0  0  0  0  0  0  0  0  0  0
  138.9920   73.0310  223.2050 H   0  0  0  0  0  0  0  0  0  0  0  0
  138.6251   70.0318  223.0082 H   0  0  0  0  0  0  0  0  0  0  0  0
  138.8175   68.2297  224.7171 H   0  0  0  0  0  0  0  0  0  0  0  0
  141.5232   70.6856  226.9893 H   0  0  0  0  0  0  0  0  0  0  0  0
  141.3031   72.4414  225.2783 H   0  0  0  0  0  0  0  0  0  0  0  0
  1  2  1  0
  2  3  1  0
  2  4  1  0
  4  5  1  0
  5  6  1  0
  6  7  2  0
  6  8  1  0
  8  9  2  0
  9 10  1  0
 10 11  1  0
 11 12  2  0
 11 13  1  0
 13 14  1  0
 14 15  2  0
 15 16  1  0
 16 17  2  0
 17 18  1  0
 18 19  2  0
 19 20  1  0
 20 21  1  0
 21 22  2  0
 22 23  1  0
 23 24  1  0
 24 25  2  0
 25 26  1  0
 26 27  2  0
 27 28  1  0
 27 29  1  0
 29 30  2  0
 22  8  1  0
 30 24  1  0
 20 10  2  0
 18 13  1  0
  1 31  1  0
  1 32  1  0
  1 33  1  0
  2 34  1  0
  3 35  1  0
  3 36  1  0
  3 37  1  0
  4 38  1  0
  4 39  1  0
  5 40  1  0
  9 41  1  0
 14 42  1  0
 15 43  1  0
 16 44  1  0
 17 45  1  0
 23 46  1  0
 25 47  1  0
 26 48  1  0
 29 49  1  0
 30 50  1  0
M  END
>  <smiles>  (12) 
CC(C)CNC(=O)c1cc2c(=O)n3ccccc3nc2nc1Nc1ccc(F)cc1

>  <score_type>  (12) 
oracle

>  <origin>  (12) 
autodockgpu

>  <m_score__min__energy>  (12) 
-7.4500000000000002

>  <m_primary>  (12) 
energy

>  <meeko>  (12) 
{"free_energy": -7.25, "intermolecular_energy": -8.75, "internal_energy": -1.13, "cluster_size": 16, "cluster_id": 1, "rank_in_cluster": 14}

>  <energy>  (12) 
-7.37

>  <cluster_rmsd>  (12) 
0.38

>  <rmsd>  (12) 
272.63

>  <cluster>  (12) 
1

$$$$

     RDKit          3D

 50 53  0  0  0  0  0  0  0  0999 V2000
  134.5800   74.3350  225.2830 C   0  0  0  0  0  0  0  0  0  0  0  0
  134.0910   73.0710  224.5620 C   0  0  0  0  0  0  0  0  0  0  0  0
  134.3110   71.9310  225.5330 C   0  0  0  0  0  0  0  0  0  0  0  0
  134.9300   72.9550  223.3350 C   0  0  0  0  0  0  0  0  0  0  0  0
  136.1870   73.6670  223.3830 N   0  0  0  0  0  0  0  0  0  0  0  0
  136.5090   74.5870  222.3210 C   0  0  0  0  0  0  0  0  0  0  0  0
  135.6250   74.6730  221.4380 O   0  0  0  0  0  0  0  0  0  0  0  0
  137.7600   75.3070  222.3440 C   0  0  0  0  0  0  0  0  0  0  0  0
  137.7850   76.6450  222.6590 C   0  0  0  0  0  0  0  0  0  0  0  0
  138.9810   77.3770  222.7150 C   0  0  0  0  0  0  0  0  0  0  0  0
  138.9830   78.7190  223.0340 C   0  0  0  0  0  0  0  0  0  0  0  0
  137.9010   79.3020  223.2770 O   0  0  0  0  0  0  0  0  0  0  0  0
  140.1810   79.3420  223.0650 N   0  0  0  0  0  0  0  0  0  0  0  0
  140.2010   80.6560  223.3740 C   0  0  0  0  0  0  0  0  0  0  0  0
  141.4360   81.2990  223.4060 C   0  0  0  0  0  0  0  0  0  0  0  0
  142.6080   80.6510  223.1380 C   0  0  0  0  0  0  0  0  0  0  0  0
  142.5690   79.3210  222.8260 C   0  0  0  0  0  0  0  0  0  0  0  0
  141.3320   78.7010  222.8010 C   0  0  0  0  0  0  0  0  0  0  0  0
  141.3310   77.3830  222.4870 N   0  0  0  0  0  0  0  0  0  0  0  0
  140.1600   76.7220  222.4450 C   0  0  0  0  0  0  0  0  0  0  0  0
  140.0830   75.4220  222.1440 N   0  0  0  0  0  0  0  0  0  0  0  0
  138.9580   74.6930  222.0810 C   0  0  0  0  0  0  0  0  0  0  0  0
  139.0960   73.3340  221.7020 N   0  0  0  0  0  0  0  0  0  0  0  0
  139.1840   72.2560  222.6390 C   0  0  0  0  0  0  0  0  0  0  0  0
  138.1930   71.3210  222.8210 C   0  0  0  0  0  0  0  0  0  0  0  0
  138.3220   70.2990  223.7630 C   0  0  0  0  0  0  0  0  0  0  0  0
  139.4670   70.2290  224.5220 C   0  0  0  0  0  0  0  0  0  0  0  0
  139.5680   69.2300  225.4270 F   0  0  0  0  0  0  0  0  0  0  0  0
  140.4790   71.1420  224.3710 C   0  0  0  0  0  0  0  0  0  0  0  0
  140.3090   72.1310  223.4330 C   0  0  0  0  0  0  0  0  0  0  0  0
  134.5211   74.1826  226.3708 H   0  0  0  0  0  0  0  0  0  0  0  0
  135.6223   74.5400  224.9974 H   0  0  0  0  0  0  0  0  0  0  0  0
  133.9470   75.1881  224.9974 H   0  0  0  0  0  0  0  0  0  0  0  0
  133.0320   73.0789  224.2647 H   0  0  0  0  0  0  0  0  0  0  0  0
  134.2382   72.3081  226.5638 H   0  0  0  0  0  0  0  0  0  0  0  0
  133.5455   71.1580  225.3705 H   0  0  0  0  0  0  0  0  0  0  0  0
  135.3092   71.4984  225.3705 H   0  0  0  0  0  0  0  0  0  0  0  0
  135.1478   71.8894  223.1705 H   0  0  0  0  0  0  0  0  0  0  0  0
  134.3487   73.4136  222.5215 H   0  0  0  0  0  0  0  0  0  0  0  0
  136.8070   73.4810  224.1890 H   0  0  0  0  0  0  0  0  0  0  0  0
  136.8364   77.1586  222.8742 H   0  0  0  0  0  0  0  0  0  0  0  0
  139.2714   81.2015  223.5935 H   0  0  0  0  0  0  0  0  0  0  0  0
  141.4687   82.3696  223.6567 H   0  0  0  0  0  0  0  0  0  0  0  0
  143.5663   81.1900  223.1726 H   0  0  0  0  0  0  0  0  0  0  0  0
  143.4897   78.7622  222.6023 H   0  0  0  0  0  0  0  0  0  0  0  0
  139.1530   73.0110  220.6930 H   0  0  0  0  0  0  0  0  0  0  0  0
  137.2791   71.3794  222.2115 H   0  0  0  0  0  0  0  0  0  0  0  0
  137.5187   69.5595  223.8966 H   0  0  0  0  0  0  0  0  0  0  0  0
  141.3939   71.0844  224.9791 H   0  0  0  0  0  0  0  0  0  0  0  0
  141.1161   72.8675  223.3059 H   0  0  0  0  0  0  0  0  0  0  0  0
  1  2  1  0
  2  3  1  0
  2  4  1  0
  4  5  1  0
  5  6  1  0
  6  7  2  0
  6  8  1  0
  8  9  2  0
  9 10  1  0
 10 11  1  0
 11 12  2  0
 11 13  1  0
 13 14  1  0
 14 15  2  0
 15 16  1  0
 16 17  2  0
 17 18  1  0
 18 19  2  0
 19 20  1  0
 20 21  1  0
 21 22  2  0
 22 23  1  0
 23 24  1  0
 24 25  2  0
 25 26  1  0
 26 27  2  0
 27 28  1  0
 27 29  1  0
 29 30  2  0
 22  8  1  0
 30 24  1  0
 20 10  2  0
 18 13  1  0
  1 31  1  0
  1 32  1  0
  1 33  1  0
  2 34  1  0
  3 35  1  0
  3 36  1  0
  3 37  1  0
  4 38  1  0
  4 39  1  0
  5 40  1  0
  9 41  1  0
 14 42  1  0
 15 43  1  0
 16 44  1  0
 17 45  1  0
 23 46  1  0
 25 47  1  0
 26 48  1  0
 29 49  1  0
 30 50  1  0
M  END
>  <smiles>  (13) 
CC(C)CNC(=O)c1cc2c(=O)n3ccccc3nc2nc1Nc1ccc(F)cc1

>  <score_type>  (13) 
oracle

>  <origin>  (13) 
autodockgpu

>  <m_score__min__energy>  (13) 
-7.4500000000000002

>  <m_primary>  (13) 
energy

>  <meeko>  (13) 
{"free_energy": -7.11, "intermolecular_energy": -8.6, "internal_energy": -1.01, "cluster_size": 4, "cluster_id": 2, "rank_in_cluster": 4}

>  <energy>  (13) 
-7.27

>  <cluster_rmsd>  (13) 
0.47

>  <rmsd>  (13) 
272.69

>  <cluster>  (13) 
1

$$$$

     RDKit          3D

 50 53  0  0  0  0  0  0  0  0999 V2000
  140.3870   79.4000  223.8180 C   0  0  0  0  0  0  0  0  0  0  0  0
  141.4220   78.4860  223.1470 C   0  0  0  0  0  0  0  0  0  0  0  0
  142.4630   79.4090  222.5520 C   0  0  0  0  0  0  0  0  0  0  0  0
  140.6720   77.7170  222.1130 C   0  0  0  0  0  0  0  0  0  0  0  0
  141.3120   76.4970  221.6720 N   0  0  0  0  0  0  0  0  0  0  0  0
  140.6390   75.2410  221.8810 C   0  0  0  0  0  0  0  0  0  0  0  0
  139.5250   75.3490  222.4430 O   0  0  0  0  0  0  0  0  0  0  0  0
  141.2590   74.0100  221.4530 C   0  0  0  0  0  0  0  0  0  0  0  0
  142.2240   74.0230  220.4740 C   0  0  0  0  0  0  0  0  0  0  0  0
  142.8680   72.8520  220.0430 C   0  0  0  0  0  0  0  0  0  0  0  0
  143.8340   72.8880  219.0600 C   0  0  0  0  0  0  0  0  0  0  0  0
  144.1470   73.9830  218.5350 O   0  0  0  0  0  0  0  0  0  0  0  0
  144.4010   71.7130  218.7100 N   0  0  0  0  0  0  0  0  0  0  0  0
  145.3480   71.7310  217.7480 C   0  0  0  0  0  0  0  0  0  0  0  0
  145.9320   70.5190  217.3870 C   0  0  0  0  0  0  0  0  0  0  0  0
  145.5810   69.3330  217.9670 C   0  0  0  0  0  0  0  0  0  0  0  0
  144.6200   69.3350  218.9390 C   0  0  0  0  0  0  0  0  0  0  0  0
  144.0530   70.5490  219.2830 C   0  0  0  0  0  0  0  0  0  0  0  0
  143.1030   70.5120  220.2490 N   0  0  0  0  0  0  0  0  0  0  0  0
  142.5130   71.6590  220.6280 C   0  0  0  0  0  0  0  0  0  0  0  0
  141.5690   71.6990  221.5750 N   0  0  0  0  0  0  0  0  0  0  0  0
  140.9350   72.7990  222.0090 C   0  0  0  0  0  0  0  0  0  0  0  0
  139.9340   72.6130  222.9970 N   0  0  0  0  0  0  0  0  0  0  0  0
  139.9120   71.5060  223.9020 C   0  0  0  0  0  0  0  0  0  0  0  0
  139.1540   70.3760  223.7060 C   0  0  0  0  0  0  0  0  0  0  0  0
  139.1540   69.3310  224.6310 C   0  0  0  0  0  0  0  0  0  0  0  0
  139.9310   69.4370  225.7610 C   0  0  0  0  0  0  0  0  0  0  0  0
  139.9140   68.4120  226.6420 F   0  0  0  0  0  0  0  0  0  0  0  0
  140.7010   70.5480  225.9940 C   0  0  0  0  0  0  0  0  0  0  0  0
  140.6700   71.5520  225.0570 C   0  0  0  0  0  0  0  0  0  0  0  0
  140.4796   79.3183  224.9110 H   0  0  0  0  0  0  0  0  0  0  0  0
  140.5644   80.4415  223.5119 H   0  0  0  0  0  0  0  0  0  0  0  0
  139.3754   79.0951  223.5119 H   0  0  0  0  0  0  0  0  0  0  0  0
  141.9267   77.7746  223.8172 H   0  0  0  0  0  0  0  0  0  0  0  0
  143.0204   79.9032  223.3614 H   0  0  0  0  0  0  0  0  0  0  0  0
  143.1585   78.8254  221.9310 H   0  0  0  0  0  0  0  0  0  0  0  0
  141.9668   80.1694  221.9310 H   0  0  0  0  0  0  0  0  0  0  0  0
  139.6886   77.4545  222.5301 H   0  0  0  0  0  0  0  0  0  0  0  0
  140.6128   78.3690  221.2290 H   0  0  0  0  0  0  0  0  0  0  0  0
  142.2380   76.5850  221.2200 H   0  0  0  0  0  0  0  0  0  0  0  0
  142.5009   74.9826  220.0130 H   0  0  0  0  0  0  0  0  0  0  0  0
  145.6487   72.6724  217.2649 H   0  0  0  0  0  0  0  0  0  0  0  0
  146.7055   70.5168  216.6049 H   0  0  0  0  0  0  0  0  0  0  0  0
  146.0628   68.3938  217.6575 H   0  0  0  0  0  0  0  0  0  0  0  0
  144.3078   68.4022  219.4314 H   0  0  0  0  0  0  0  0  0  0  0  0
  139.1180   73.2770  223.1340 H   0  0  0  0  0  0  0  0  0  0  0  0
  138.5343   70.2937  222.8009 H   0  0  0  0  0  0  0  0  0  0  0  0
  138.5406   68.4343  224.4586 H   0  0  0  0  0  0  0  0  0  0  0  0
  141.3211   70.6319  226.8987 H   0  0  0  0  0  0  0  0  0  0  0  0
  141.2852   72.4461  225.2366 H   0  0  0  0  0  0  0  0  0  0  0  0
  1  2  1  0
  2  3  1  0
  2  4  1  0
  4  5  1  0
  5  6  1  0
  6  7  2  0
  6  8  1  0
  8  9  2  0
  9 10  1  0
 10 11  1  0
 11 12  2  0
 11 13  1  0
 13 14  1  0
 14 15  2  0
 15 16  1  0
 16 17  2  0
 17 18  1  0
 18 19  2  0
 19 20  1  0
 20 21  1  0
 21 22  2  0
 22 23  1  0
 23 24  1  0
 24 25  2  0
 25 26  1  0
 26 27  2  0
 27 28  1  0
 27 29  1  0
 29 30  2  0
 22  8  1  0
 30 24  1  0
 20 10  2  0
 18 13  1  0
  1 31  1  0
  1 32  1  0
  1 33  1  0
  2 34  1  0
  3 35  1  0
  3 36  1  0
  3 37  1  0
  4 38  1  0
  4 39  1  0
  5 40  1  0
  9 41  1  0
 14 42  1  0
 15 43  1  0
 16 44  1  0
 17 45  1  0
 23 46  1  0
 25 47  1  0
 26 48  1  0
 29 49  1  0
 30 50  1  0
M  END
>  <smiles>  (14) 
CC(C)CNC(=O)c1cc2c(=O)n3ccccc3nc2nc1Nc1ccc(F)cc1

>  <score_type>  (14) 
oracle

>  <origin>  (14) 
autodockgpu

>  <m_score__min__energy>  (14) 
-7.4500000000000002

>  <m_primary>  (14) 
energy

>  <meeko>  (14) 
{"free_energy": -7.44, "intermolecular_energy": -8.94, "internal_energy": -1.18, "cluster_size": 16, "cluster_id": 1, "rank_in_cluster": 6}

>  <energy>  (14) 
-7.25

>  <cluster_rmsd>  (14) 
0.48

>  <rmsd>  (14) 
272.64

>  <cluster>  (14) 
1

$$$$

     RDKit          3D

 50 53  0  0  0  0  0  0  0  0999 V2000
  140.3670   79.3920  223.7250 C   0  0  0  0  0  0  0  0  0  0  0  0
  141.4060   78.4750  223.0620 C   0  0  0  0  0  0  0  0  0  0  0  0
  142.4330   79.3970  222.4410 C   0  0  0  0  0  0  0  0  0  0  0  0
  140.6550   77.6790  222.0490 C   0  0  0  0  0  0  0  0  0  0  0  0
  141.3040   76.4590  221.6240 N   0  0  0  0  0  0  0  0  0  0  0  0
  140.6230   75.2040  221.8120 C   0  0  0  0  0  0  0  0  0  0  0  0
  139.4940   75.3140  222.3430 O   0  0  0  0  0  0  0  0  0  0  0  0
  141.2520   73.9720  221.3990 C   0  0  0  0  0  0  0  0  0  0  0  0
  142.2070   73.9790  220.4110 C   0  0  0  0  0  0  0  0  0  0  0  0
  142.8600   72.8070  219.9940 C   0  0  0  0  0  0  0  0  0  0  0  0
  143.8160   72.8370  219.0010 C   0  0  0  0  0  0  0  0  0  0  0  0
  144.1120   73.9250  218.4550 O   0  0  0  0  0  0  0  0  0  0  0  0
  144.3920   71.6610  218.6660 N   0  0  0  0  0  0  0  0  0  0  0  0
  145.3300   71.6730  217.6950 C   0  0  0  0  0  0  0  0  0  0  0  0
  145.9230   70.4610  217.3500 C   0  0  0  0  0  0  0  0  0  0  0  0
  145.5900   69.2810  217.9530 C   0  0  0  0  0  0  0  0  0  0  0  0
  144.6380   69.2900  218.9340 C   0  0  0  0  0  0  0  0  0  0  0  0
  144.0610   70.5040  219.2620 C   0  0  0  0  0  0  0  0  0  0  0  0
  143.1210   70.4740  220.2380 N   0  0  0  0  0  0  0  0  0  0  0  0
  142.5220   71.6210  220.6030 C   0  0  0  0  0  0  0  0  0  0  0  0
  141.5870   71.6670  221.5580 N   0  0  0  0  0  0  0  0  0  0  0  0
  140.9450   72.7680  221.9790 C   0  0  0  0  0  0  0  0  0  0  0  0
  139.9560   72.5890  222.9790 N   0  0  0  0  0  0  0  0  0  0  0  0
  139.9660   71.5100  223.9180 C   0  0  0  0  0  0  0  0  0  0  0  0
  140.6990   71.5180  225.0810 C   0  0  0  0  0  0  0  0  0  0  0  0
  140.6870   70.4300  225.9550 C   0  0  0  0  0  0  0  0  0  0  0  0
  139.9250   69.3290  225.6440 C   0  0  0  0  0  0  0  0  0  0  0  0
  139.9310   68.2880  226.5060 F   0  0  0  0  0  0  0  0  0  0  0  0
  139.1790   69.2810  224.4930 C   0  0  0  0  0  0  0  0  0  0  0  0
  139.2210   70.3740  223.6620 C   0  0  0  0  0  0  0  0  0  0  0  0
  140.4546   79.3147  224.8188 H   0  0  0  0  0  0  0  0  0  0  0  0
  140.5455   80.4323  223.4155 H   0  0  0  0  0  0  0  0  0  0  0  0
  139.3569   79.0856  223.4155 H   0  0  0  0  0  0  0  0  0  0  0  0
  141.9233   77.7812  223.7410 H   0  0  0  0  0  0  0  0  0  0  0  0
  142.9985   79.9047  223.2363 H   0  0  0  0  0  0  0  0  0  0  0  0
  143.1235   78.8099  221.8177 H   0  0  0  0  0  0  0  0  0  0  0  0
  141.9235   80.1466  221.8177 H   0  0  0  0  0  0  0  0  0  0  0  0
  139.6785   77.4132  222.4801 H   0  0  0  0  0  0  0  0  0  0  0  0
  140.5804   78.3142  221.1541 H   0  0  0  0  0  0  0  0  0  0  0  0
  142.2420   76.5460  221.1980 H   0  0  0  0  0  0  0  0  0  0  0  0
  142.4688   74.9334  219.9309 H   0  0  0  0  0  0  0  0  0  0  0  0
  145.6164   72.6090  217.1931 H   0  0  0  0  0  0  0  0  0  0  0  0
  146.6895   70.4534  216.5611 H   0  0  0  0  0  0  0  0  0  0  0  0
  146.0786   68.3417  217.6548 H   0  0  0  0  0  0  0  0  0  0  0  0
  144.3405   68.3628  219.4457 H   0  0  0  0  0  0  0  0  0  0  0  0
  139.1250   73.2370  223.1020 H   0  0  0  0  0  0  0  0  0  0  0  0
  141.3077   72.4004  225.3278 H   0  0  0  0  0  0  0  0  0  0  0  0
  141.2799   70.4532  226.8812 H   0  0  0  0  0  0  0  0  0  0  0  0
  138.5697   68.3994  224.2450 H   0  0  0  0  0  0  0  0  0  0  0  0
  138.6260   70.3435  222.7373 H   0  0  0  0  0  0  0  0  0  0  0  0
  1  2  1  0
  2  3  1  0
  2  4  1  0
  4  5  1  0
  5  6  1  0
  6  7  2  0
  6  8  1  0
  8  9  2  0
  9 10  1  0
 10 11  1  0
 11 12  2  0
 11 13  1  0
 13 14  1  0
 14 15  2  0
 15 16  1  0
 16 17  2  0
 17 18  1  0
 18 19  2  0
 19 20  1  0
 20 21  1  0
 21 22  2  0
 22 23  1  0
 23 24  1  0
 24 25  2  0
 25 26  1  0
 26 27  2  0
 27 28  1  0
 27 29  1  0
 29 30  2  0
 22  8  1  0
 30 24  1  0
 20 10  2  0
 18 13  1  0
  1 31  1  0
  1 32  1  0
  1 33  1  0
  2 34  1  0
  3 35  1  0
  3 36  1  0
  3 37  1  0
  4 38  1  0
  4 39  1  0
  5 40  1  0
  9 41  1  0
 14 42  1  0
 15 43  1  0
 16 44  1  0
 17 45  1  0
 23 46  1  0
 25 47  1  0
 26 48  1  0
 29 49  1  0
 30 50  1  0
M  END
>  <smiles>  (15) 
CC(C)CNC(=O)c1cc2c(=O)n3ccccc3nc2nc1Nc1ccc(F)cc1

>  <score_type>  (15) 
oracle

>  <origin>  (15) 
autodockgpu

>  <m_score__min__energy>  (15) 
-7.4500000000000002

>  <m_primary>  (15) 
energy

>  <meeko>  (15) 
{"free_energy": -7.43, "intermolecular_energy": -8.93, "internal_energy": -1.17, "cluster_size": 16, "cluster_id": 1, "rank_in_cluster": 10}

>  <energy>  (15) 
-7.25

>  <cluster_rmsd>  (15) 
0.48

>  <rmsd>  (15) 
272.63

>  <cluster>  (15) 
1

$$$$

     RDKit          3D

 50 53  0  0  0  0  0  0  0  0999 V2000
  141.7940   78.7350  220.8120 C   0  0  0  0  0  0  0  0  0  0  0  0
  141.0700   78.8790  222.1580 C   0  0  0  0  0  0  0  0  0  0  0  0
  142.1540   79.1310  223.1850 C   0  0  0  0  0  0  0  0  0  0  0  0
  140.3570   77.5880  222.3740 C   0  0  0  0  0  0  0  0  0  0  0  0
  141.0730   76.4110  221.9330 N   0  0  0  0  0  0  0  0  0  0  0  0
  140.4010   75.1370  221.9530 C   0  0  0  0  0  0  0  0  0  0  0  0
  139.2200   75.1930  222.3650 O   0  0  0  0  0  0  0  0  0  0  0  0
  141.0960   73.9480  221.5200 C   0  0  0  0  0  0  0  0  0  0  0  0
  142.0440   74.0210  220.5280 C   0  0  0  0  0  0  0  0  0  0  0  0
  142.7590   72.8940  220.0930 C   0  0  0  0  0  0  0  0  0  0  0  0
  143.7070   72.9890  219.0960 C   0  0  0  0  0  0  0  0  0  0  0  0
  143.9390   74.1000  218.5630 O   0  0  0  0  0  0  0  0  0  0  0  0
  144.3450   71.8530  218.7420 N   0  0  0  0  0  0  0  0  0  0  0  0
  145.2760   71.9290  217.7680 C   0  0  0  0  0  0  0  0  0  0  0  0
  145.9350   70.7570  217.4030 C   0  0  0  0  0  0  0  0  0  0  0  0
  145.6710   69.5530  217.9920 C   0  0  0  0  0  0  0  0  0  0  0  0
  144.7250   69.4950  218.9770 C   0  0  0  0  0  0  0  0  0  0  0  0
  144.0830   70.6710  219.3240 C   0  0  0  0  0  0  0  0  0  0  0  0
  143.1510   70.5750  220.3030 N   0  0  0  0  0  0  0  0  0  0  0  0
  142.4910   71.6820  220.6870 C   0  0  0  0  0  0  0  0  0  0  0  0
  141.5600   71.6640  221.6460 N   0  0  0  0  0  0  0  0  0  0  0  0
  140.8600   72.7210  222.0850 C   0  0  0  0  0  0  0  0  0  0  0  0
  139.8870   72.4740  223.0870 N   0  0  0  0  0  0  0  0  0  0  0  0
  139.9620   71.3850  224.0110 C   0  0  0  0  0  0  0  0  0  0  0  0
  139.3120   70.1870  223.8330 C   0  0  0  0  0  0  0  0  0  0  0  0
  139.4040   69.1620  224.7760 C   0  0  0  0  0  0  0  0  0  0  0  0
  140.1620   69.3580  225.9060 C   0  0  0  0  0  0  0  0  0  0  0  0
  140.2360   68.3510  226.8040 F   0  0  0  0  0  0  0  0  0  0  0  0
  140.8270   70.5390  226.1220 C   0  0  0  0  0  0  0  0  0  0  0  0
  140.7070   71.5200  225.1680 C   0  0  0  0  0  0  0  0  0  0  0  0
  142.8588   78.5232  220.9892 H   0  0  0  0  0  0  0  0  0  0  0  0
  141.3458   77.9084  220.2412 H   0  0  0  0  0  0  0  0  0  0  0  0
  141.6962   79.6702  220.2412 H   0  0  0  0  0  0  0  0  0  0  0  0
  140.3380   79.6982  222.2135 H   0  0  0  0  0  0  0  0  0  0  0  0
  141.7314   79.0328  224.1958 H   0  0  0  0  0  0  0  0  0  0  0  0
  142.9624   78.3968  223.0526 H   0  0  0  0  0  0  0  0  0  0  0  0
  142.5556   80.1465  223.0526 H   0  0  0  0  0  0  0  0  0  0  0  0
  140.1599   77.4835  223.4511 H   0  0  0  0  0  0  0  0  0  0  0  0
  139.4426   77.6370  221.7644 H   0  0  0  0  0  0  0  0  0  0  0  0
  142.0490   76.5410  221.6180 H   0  0  0  0  0  0  0  0  0  0  0  0
  142.2494   74.9947  220.0593 H   0  0  0  0  0  0  0  0  0  0  0  0
  145.5073   72.8861  217.2777 H   0  0  0  0  0  0  0  0  0  0  0  0
  146.6966   70.8029  216.6106 H   0  0  0  0  0  0  0  0  0  0  0  0
  146.2100   68.6465  217.6793 H   0  0  0  0  0  0  0  0  0  0  0  0
  144.4822   68.5458  219.4770 H   0  0  0  0  0  0  0  0  0  0  0  0
  139.0220   73.0730  223.2220 H   0  0  0  0  0  0  0  0  0  0  0  0
  138.7062   70.0327  222.9279 H   0  0  0  0  0  0  0  0  0  0  0  0
  138.8768   68.2097  224.6170 H   0  0  0  0  0  0  0  0  0  0  0  0
  141.4340   70.6943  227.0261 H   0  0  0  0  0  0  0  0  0  0  0  0
  141.2354   72.4703  225.3345 H   0  0  0  0  0  0  0  0  0  0  0  0
  1  2  1  0
  2  3  1  0
  2  4  1  0
  4  5  1  0
  5  6  1  0
  6  7  2  0
  6  8  1  0
  8  9  2  0
  9 10  1  0
 10 11  1  0
 11 12  2  0
 11 13  1  0
 13 14  1  0
 14 15  2  0
 15 16  1  0
 16 17  2  0
 17 18  1  0
 18 19  2  0
 19 20  1  0
 20 21  1  0
 21 22  2  0
 22 23  1  0
 23 24  1  0
 24 25  2  0
 25 26  1  0
 26 27  2  0
 27 28  1  0
 27 29  1  0
 29 30  2  0
 22  8  1  0
 30 24  1  0
 20 10  2  0
 18 13  1  0
  1 31  1  0
  1 32  1  0
  1 33  1  0
  2 34  1  0
  3 35  1  0
  3 36  1  0
  3 37  1  0
  4 38  1  0
  4 39  1  0
  5 40  1  0
  9 41  1  0
 14 42  1  0
 15 43  1  0
 16 44  1  0
 17 45  1  0
 23 46  1  0
 25 47  1  0
 26 48  1  0
 29 49  1  0
 30 50  1  0
M  END
>  <smiles>  (16) 
CC(C)CNC(=O)c1cc2c(=O)n3ccccc3nc2nc1Nc1ccc(F)cc1

>  <score_type>  (16) 
oracle

>  <origin>  (16) 
autodockgpu

>  <m_score__min__energy>  (16) 
-7.4500000000000002

>  <m_primary>  (16) 
energy

>  <meeko>  (16) 
{"free_energy": -7.25, "intermolecular_energy": -8.74, "internal_energy": -1.14, "cluster_size": 16, "cluster_id": 1, "rank_in_cluster": 15}

>  <energy>  (16) 
-7.22

>  <cluster_rmsd>  (16) 
0.48

>  <rmsd>  (16) 
272.63

>  <cluster>  (16) 
1

$$$$

     RDKit          3D

 50 53  0  0  0  0  0  0  0  0999 V2000
  134.5790   74.3490  225.2370 C   0  0  0  0  0  0  0  0  0  0  0  0
  134.0830   73.0830  224.5230 C   0  0  0  0  0  0  0  0  0  0  0  0
  134.2880   71.9490  225.5050 C   0  0  0  0  0  0  0  0  0  0  0  0
  134.9270   72.9500  223.3020 C   0  0  0  0  0  0  0  0  0  0  0  0
  136.1900   73.6530  223.3500 N   0  0  0  0  0  0  0  0  0  0  0  0
  136.4940   74.6130  222.3190 C   0  0  0  0  0  0  0  0  0  0  0  0
  135.5920   74.7380  221.4600 O   0  0  0  0  0  0  0  0  0  0  0  0
  137.7490   75.3250  222.3440 C   0  0  0  0  0  0  0  0  0  0  0  0
  137.7820   76.6630  222.6540 C   0  0  0  0  0  0  0  0  0  0  0  0
  138.9830   77.3880  222.7110 C   0  0  0  0  0  0  0  0  0  0  0  0
  138.9930   78.7310  223.0250 C   0  0  0  0  0  0  0  0  0  0  0  0
  137.9130   79.3220  223.2640 O   0  0  0  0  0  0  0  0  0  0  0  0
  140.1940   79.3470  223.0570 N   0  0  0  0  0  0  0  0  0  0  0  0
  140.2210   80.6620  223.3630 C   0  0  0  0  0  0  0  0  0  0  0  0
  141.4600   81.2970  223.3960 C   0  0  0  0  0  0  0  0  0  0  0  0
  142.6300   80.6410  223.1340 C   0  0  0  0  0  0  0  0  0  0  0  0
  142.5820   79.3100  222.8260 C   0  0  0  0  0  0  0  0  0  0  0  0
  141.3410   78.6980  222.7990 C   0  0  0  0  0  0  0  0  0  0  0  0
  141.3330   77.3790  222.4900 N   0  0  0  0  0  0  0  0  0  0  0  0
  140.1580   76.7250  222.4460 C   0  0  0  0  0  0  0  0  0  0  0  0
  140.0740   75.4240  222.1490 N   0  0  0  0  0  0  0  0  0  0  0  0
  138.9450   74.7020  222.0860 C   0  0  0  0  0  0  0  0  0  0  0  0
  139.0750   73.3410  221.7110 N   0  0  0  0  0  0  0  0  0  0  0  0
  139.1820   72.2690  222.6520 C   0  0  0  0  0  0  0  0  0  0  0  0
  138.2070   71.3170  222.8380 C   0  0  0  0  0  0  0  0  0  0  0  0
  138.3530   70.3010  223.7830 C   0  0  0  0  0  0  0  0  0  0  0  0
  139.4990   70.2530  224.5430 C   0  0  0  0  0  0  0  0  0  0  0  0
  139.6170   69.2600  225.4510 F   0  0  0  0  0  0  0  0  0  0  0  0
  140.4950   71.1830  224.3880 C   0  0  0  0  0  0  0  0  0  0  0  0
  140.3080   72.1660  223.4460 C   0  0  0  0  0  0  0  0  0  0  0  0
  134.5215   74.2023  226.3257 H   0  0  0  0  0  0  0  0  0  0  0  0
  135.6216   74.5481  224.9484 H   0  0  0  0  0  0  0  0  0  0  0  0
  133.9491   75.2034  224.9484 H   0  0  0  0  0  0  0  0  0  0  0  0
  133.0258   73.0973  224.2195 H   0  0  0  0  0  0  0  0  0  0  0  0
  134.2180   72.3363  226.5322 H   0  0  0  0  0  0  0  0  0  0  0  0
  133.5137   71.1836  225.3481 H   0  0  0  0  0  0  0  0  0  0  0  0
  135.2813   71.5032  225.3481 H   0  0  0  0  0  0  0  0  0  0  0  0
  135.1374   71.8814  223.1479 H   0  0  0  0  0  0  0  0  0  0  0  0
  134.3533   73.4061  222.4817 H   0  0  0  0  0  0  0  0  0  0  0  0
  136.8260   73.4320  224.1350 H   0  0  0  0  0  0  0  0  0  0  0  0
  136.8361   77.1836  222.8646 H   0  0  0  0  0  0  0  0  0  0  0  0
  139.2943   81.2138  223.5792 H   0  0  0  0  0  0  0  0  0  0  0  0
  141.4985   82.3683  223.6425 H   0  0  0  0  0  0  0  0  0  0  0  0
  143.5917   81.1737  223.1703 H   0  0  0  0  0  0  0  0  0  0  0  0
  143.4995   78.7441  222.6069 H   0  0  0  0  0  0  0  0  0  0  0  0
  139.1120   73.0130  220.7030 H   0  0  0  0  0  0  0  0  0  0  0  0
  137.2922   71.3575  222.2285 H   0  0  0  0  0  0  0  0  0  0  0  0
  137.5624   69.5483  223.9187 H   0  0  0  0  0  0  0  0  0  0  0  0
  141.4108   71.1435  224.9960 H   0  0  0  0  0  0  0  0  0  0  0  0
  141.1024   72.9158  223.3164 H   0  0  0  0  0  0  0  0  0  0  0  0
  1  2  1  0
  2  3  1  0
  2  4  1  0
  4  5  1  0
  5  6  1  0
  6  7  2  0
  6  8  1  0
  8  9  2  0
  9 10  1  0
 10 11  1  0
 11 12  2  0
 11 13  1  0
 13 14  1  0
 14 15  2  0
 15 16  1  0
 16 17  2  0
 17 18  1  0
 18 19  2  0
 19 20  1  0
 20 21  1  0
 21 22  2  0
 22 23  1  0
 23 24  1  0
 24 25  2  0
 25 26  1  0
 26 27  2  0
 27 28  1  0
 27 29  1  0
 29 30  2  0
 22  8  1  0
 30 24  1  0
 20 10  2  0
 18 13  1  0
  1 31  1  0
  1 32  1  0
  1 33  1  0
  2 34  1  0
  3 35  1  0
  3 36  1  0
  3 37  1  0
  4 38  1  0
  4 39  1  0
  5 40  1  0
  9 41  1  0
 14 42  1  0
 15 43  1  0
 16 44  1  0
 17 45  1  0
 23 46  1  0
 25 47  1  0
 26 48  1  0
 29 49  1  0
 30 50  1  0
M  END
>  <smiles>  (17) 
CC(C)CNC(=O)c1cc2c(=O)n3ccccc3nc2nc1Nc1ccc(F)cc1

>  <score_type>  (17) 
oracle

>  <origin>  (17) 
autodockgpu

>  <m_score__min__energy>  (17) 
-7.4500000000000002

>  <m_primary>  (17) 
energy

>  <meeko>  (17) 
{"free_energy": -7.11, "intermolecular_energy": -8.6, "internal_energy": -1.01, "cluster_size": 4, "cluster_id": 2, "rank_in_cluster": 2}

>  <energy>  (17) 
-7.12

>  <cluster_rmsd>  (17) 
0.0

>  <rmsd>  (17) 
272.77

>  <cluster>  (17) 
2

$$$$

     RDKit          3D

 50 53  0  0  0  0  0  0  0  0999 V2000
  140.3710   79.3960  223.7500 C   0  0  0  0  0  0  0  0  0  0  0  0
  141.4310   78.4750  223.1280 C   0  0  0  0  0  0  0  0  0  0  0  0
  142.5260   79.3900  222.6220 C   0  0  0  0  0  0  0  0  0  0  0  0
  140.7360   77.7440  222.0300 C   0  0  0  0  0  0  0  0  0  0  0  0
  141.3740   76.5160  221.6110 N   0  0  0  0  0  0  0  0  0  0  0  0
  140.6820   75.2670  221.8080 C   0  0  0  0  0  0  0  0  0  0  0  0
  139.5550   75.3900  222.3400 O   0  0  0  0  0  0  0  0  0  0  0  0
  141.3000   74.0280  221.4010 C   0  0  0  0  0  0  0  0  0  0  0  0
  142.2650   74.0220  220.4220 C   0  0  0  0  0  0  0  0  0  0  0  0
  142.9070   72.8430  220.0130 C   0  0  0  0  0  0  0  0  0  0  0  0
  143.8730   72.8600  219.0280 C   0  0  0  0  0  0  0  0  0  0  0  0
  144.1870   73.9440  218.4840 O   0  0  0  0  0  0  0  0  0  0  0  0
  144.4370   71.6780  218.6990 N   0  0  0  0  0  0  0  0  0  0  0  0
  145.3840   71.6770  217.7370 C   0  0  0  0  0  0  0  0  0  0  0  0
  145.9660   70.4580  217.3980 C   0  0  0  0  0  0  0  0  0  0  0  0
  145.6140   69.2830  217.9990 C   0  0  0  0  0  0  0  0  0  0  0  0
  144.6530   69.3030  218.9710 C   0  0  0  0  0  0  0  0  0  0  0  0
  144.0880   70.5250  219.2930 C   0  0  0  0  0  0  0  0  0  0  0  0
  143.1390   70.5060  220.2600 N   0  0  0  0  0  0  0  0  0  0  0  0
  142.5500   71.6610  220.6190 C   0  0  0  0  0  0  0  0  0  0  0  0
  141.6070   71.7190  221.5660 N   0  0  0  0  0  0  0  0  0  0  0  0
  140.9740   72.8280  221.9800 C   0  0  0  0  0  0  0  0  0  0  0  0
  139.9740   72.6620  222.9710 N   0  0  0  0  0  0  0  0  0  0  0  0
  139.9320   71.5540  223.8750 C   0  0  0  0  0  0  0  0  0  0  0  0
  139.1460   70.4430  223.6830 C   0  0  0  0  0  0  0  0  0  0  0  0
  139.1280   69.3970  224.6070 C   0  0  0  0  0  0  0  0  0  0  0  0
  139.9160   69.4820  225.7310 C   0  0  0  0  0  0  0  0  0  0  0  0
  139.8820   68.4570  226.6110 F   0  0  0  0  0  0  0  0  0  0  0  0
  140.7150   70.5740  225.9590 C   0  0  0  0  0  0  0  0  0  0  0  0
  140.7000   71.5800  225.0240 C   0  0  0  0  0  0  0  0  0  0  0  0
  140.4350   79.3404  224.8467 H   0  0  0  0  0  0  0  0  0  0  0  0
  140.5485   80.4316  223.4244 H   0  0  0  0  0  0  0  0  0  0  0  0
  139.3703   79.0757  223.4244 H   0  0  0  0  0  0  0  0  0  0  0  0
  141.8772   77.7397  223.8138 H   0  0  0  0  0  0  0  0  0  0  0  0
  143.0572   79.8338  223.4769 H   0  0  0  0  0  0  0  0  0  0  0  0
  143.2341   78.8113  222.0107 H   0  0  0  0  0  0  0  0  0  0  0  0
  142.0823   80.1897  222.0107 H   0  0  0  0  0  0  0  0  0  0  0  0
  139.7196   77.5002  222.3729 H   0  0  0  0  0  0  0  0  0  0  0  0
  140.7551   78.4126  221.1567 H   0  0  0  0  0  0  0  0  0  0  0  0
  142.3120   76.5920  221.1830 H   0  0  0  0  0  0  0  0  0  0  0  0
  142.5431   74.9726  219.9434 H   0  0  0  0  0  0  0  0  0  0  0  0
  145.6863   72.6090  217.2370 H   0  0  0  0  0  0  0  0  0  0  0  0
  146.7392   70.4408  216.6158 H   0  0  0  0  0  0  0  0  0  0  0  0
  146.0950   68.3380  217.7062 H   0  0  0  0  0  0  0  0  0  0  0  0
  144.3394   68.3796  219.4799 H   0  0  0  0  0  0  0  0  0  0  0  0
  139.1720   73.3420  223.1120 H   0  0  0  0  0  0  0  0  0  0  0  0
  138.5180   70.3768  222.7823 H   0  0  0  0  0  0  0  0  0  0  0  0
  138.4916   68.5158  224.4383 H   0  0  0  0  0  0  0  0  0  0  0  0
  141.3449   70.6413  226.8583 H   0  0  0  0  0  0  0  0  0  0  0  0
  141.3373   72.4591  225.2001 H   0  0  0  0  0  0  0  0  0  0  0  0
  1  2  1  0
  2  3  1  0
  2  4  1  0
  4  5  1  0
  5  6  1  0
  6  7  2  0
  6  8  1  0
  8  9  2  0
  9 10  1  0
 10 11  1  0
 11 12  2  0
 11 13  1  0
 13 14  1  0
 14 15  2  0
 15 16  1  0
 16 17  2  0
 17 18  1  0
 18 19  2  0
 19 20  1  0
 20 21  1  0
 21 22  2  0
 22 23  1  0
 23 24  1  0
 24 25  2  0
 25 26  1  0
 26 27  2  0
 27 28  1  0
 27 29  1  0
 29 30  2  0
 22  8  1  0
 30 24  1  0
 20 10  2  0
 18 13  1  0
  1 31  1  0
  1 32  1  0
  1 33  1  0
  2 34  1  0
  3 35  1  0
  3 36  1  0
  3 37  1  0
  4 38  1  0
  4 39  1  0
  5 40  1  0
  9 41  1  0
 14 42  1  0
 15 43  1  0
 16 44  1  0
 17 45  1  0
 23 46  1  0
 25 47  1  0
 26 48  1  0
 29 49  1  0
 30 50  1  0
M  END
>  <smiles>  (18) 
CC(C)CNC(=O)c1cc2c(=O)n3ccccc3nc2nc1Nc1ccc(F)cc1

>  <score_type>  (18) 
oracle

>  <origin>  (18) 
autodockgpu

>  <m_score__min__energy>  (18) 
-7.4500000000000002

>  <m_primary>  (18) 
energy

>  <meeko>  (18) 
{"free_energy": -7.45, "intermolecular_energy": -8.94, "internal_energy": -1.19, "cluster_size": 16, "cluster_id": 1, "rank_in_cluster": 4}

>  <energy>  (18) 
-7.11

>  <cluster_rmsd>  (18) 
0.02

>  <rmsd>  (18) 
272.77

>  <cluster>  (18) 
2

$$$$

     RDKit          3D

 50 53  0  0  0  0  0  0  0  0999 V2000
  140.3650   79.4300  223.7380 C   0  0  0  0  0  0  0  0  0  0  0  0
  141.4050   78.4970  223.1000 C   0  0  0  0  0  0  0  0  0  0  0  0
  142.4660   79.4030  222.5140 C   0  0  0  0  0  0  0  0  0  0  0  0
  140.6680   77.7220  222.0600 C   0  0  0  0  0  0  0  0  0  0  0  0
  141.3150   76.5020  221.6320 N   0  0  0  0  0  0  0  0  0  0  0  0
  140.6310   75.2470  221.8180 C   0  0  0  0  0  0  0  0  0  0  0  0
  139.5030   75.3580  222.3490 O   0  0  0  0  0  0  0  0  0  0  0  0
  141.2580   74.0160  221.4020 C   0  0  0  0  0  0  0  0  0  0  0  0
  142.2190   74.0230  220.4190 C   0  0  0  0  0  0  0  0  0  0  0  0
  142.8690   72.8510  220.0000 C   0  0  0  0  0  0  0  0  0  0  0  0
  143.8300   72.8820  219.0120 C   0  0  0  0  0  0  0  0  0  0  0  0
  144.1330   73.9720  218.4730 O   0  0  0  0  0  0  0  0  0  0  0  0
  144.4030   71.7060  218.6740 N   0  0  0  0  0  0  0  0  0  0  0  0
  145.3460   71.7180  217.7090 C   0  0  0  0  0  0  0  0  0  0  0  0
  145.9370   70.5060  217.3600 C   0  0  0  0  0  0  0  0  0  0  0  0
  145.5970   69.3250  217.9560 C   0  0  0  0  0  0  0  0  0  0  0  0
  144.6400   69.3320  218.9320 C   0  0  0  0  0  0  0  0  0  0  0  0
  144.0660   70.5470  219.2630 C   0  0  0  0  0  0  0  0  0  0  0  0
  143.1210   70.5150  220.2340 N   0  0  0  0  0  0  0  0  0  0  0  0
  142.5240   71.6630  220.6020 C   0  0  0  0  0  0  0  0  0  0  0  0
  141.5840   71.7090  221.5520 N   0  0  0  0  0  0  0  0  0  0  0  0
  140.9440   72.8090  221.9750 C   0  0  0  0  0  0  0  0  0  0  0  0
  139.9490   72.6300  222.9690 N   0  0  0  0  0  0  0  0  0  0  0  0
  139.9190   71.5160  223.8660 C   0  0  0  0  0  0  0  0  0  0  0  0
  139.1630   70.3870  223.6550 C   0  0  0  0  0  0  0  0  0  0  0  0
  139.1560   69.3360  224.5730 C   0  0  0  0  0  0  0  0  0  0  0  0
  139.9220   69.4340  225.7110 C   0  0  0  0  0  0  0  0  0  0  0  0
  139.8980   68.4030  226.5840 F   0  0  0  0  0  0  0  0  0  0  0  0
  140.6900   70.5440  225.9580 C   0  0  0  0  0  0  0  0  0  0  0  0
  140.6660   71.5540  225.0280 C   0  0  0  0  0  0  0  0  0  0  0  0
  140.4374   79.3651  224.8337 H   0  0  0  0  0  0  0  0  0  0  0  0
  140.5562   80.4651  223.4186 H   0  0  0  0  0  0  0  0  0  0  0  0
  139.3566   79.1280  223.4186 H   0  0  0  0  0  0  0  0  0  0  0  0
  141.8892   77.7896  223.7893 H   0  0  0  0  0  0  0  0  0  0  0  0
  143.0285   79.8833  223.3282 H   0  0  0  0  0  0  0  0  0  0  0  0
  143.1536   78.8091  221.8939 H   0  0  0  0  0  0  0  0  0  0  0  0
  141.9872   80.1751  221.8939 H   0  0  0  0  0  0  0  0  0  0  0  0
  139.6802   77.4595  222.4666 H   0  0  0  0  0  0  0  0  0  0  0  0
  140.6179   78.3701  221.1726 H   0  0  0  0  0  0  0  0  0  0  0  0
  142.2540   76.5870  221.2060 H   0  0  0  0  0  0  0  0  0  0  0  0
  142.4877   74.9785  219.9449 H   0  0  0  0  0  0  0  0  0  0  0  0
  145.6388   72.6554  217.2135 H   0  0  0  0  0  0  0  0  0  0  0  0
  146.7069   70.4997  216.5744 H   0  0  0  0  0  0  0  0  0  0  0  0
  146.0843   68.3855  217.6561 H   0  0  0  0  0  0  0  0  0  0  0  0
  144.3364   68.4033  219.4373 H   0  0  0  0  0  0  0  0  0  0  0  0
  139.1420   73.3030  223.1170 H   0  0  0  0  0  0  0  0  0  0  0  0
  138.5512   70.3107  222.7440 H   0  0  0  0  0  0  0  0  0  0  0  0
  138.5452   68.4399  224.3886 H   0  0  0  0  0  0  0  0  0  0  0  0
  141.3028   70.6219  226.8682 H   0  0  0  0  0  0  0  0  0  0  0  0
  141.2785   72.4474  225.2196 H   0  0  0  0  0  0  0  0  0  0  0  0
  1  2  1  0
  2  3  1  0
  2  4  1  0
  4  5  1  0
  5  6  1  0
  6  7  2  0
  6  8  1  0
  8  9  2  0
  9 10  1  0
 10 11  1  0
 11 12  2  0
 11 13  1  0
 13 14  1  0
 14 15  2  0
 15 16  1  0
 16 17  2  0
 17 18  1  0
 18 19  2  0
 19 20  1  0
 20 21  1  0
 21 22  2  0
 22 23  1  0
 23 24  1  0
 24 25  2  0
 25 26  1  0
 26 27  2  0
 27 28  1  0
 27 29  1  0
 29 30  2  0
 22  8  1  0
 30 24  1  0
 20 10  2  0
 18 13  1  0
  1 31  1  0
  1 32  1  0
  1 33  1  0
  2 34  1  0
  3 35  1  0
  3 36  1  0
  3 37  1  0
  4 38  1  0
  4 39  1  0
  5 40  1  0
  9 41  1  0
 14 42  1  0
 15 43  1  0
 16 44  1  0
 17 45  1  0
 23 46  1  0
 25 47  1  0
 26 48  1  0
 29 49  1  0
 30 50  1  0
M  END
>  <smiles>  (19) 
CC(C)CNC(=O)c1cc2c(=O)n3ccccc3nc2nc1Nc1ccc(F)cc1

>  <score_type>  (19) 
oracle

>  <origin>  (19) 
autodockgpu

>  <m_score__min__energy>  (19) 
-7.4500000000000002

>  <m_primary>  (19) 
energy

>  <meeko>  (19) 
{"free_energy": -7.45, "intermolecular_energy": -8.94, "internal_energy": -1.18, "cluster_size": 16, "cluster_id": 1, "rank_in_cluster": 2}

>  <energy>  (19) 
-7.11

>  <cluster_rmsd>  (19) 
0.03

>  <rmsd>  (19) 
272.77

>  <cluster>  (19) 
2

$$$$

     RDKit          3D

 50 53  0  0  0  0  0  0  0  0999 V2000
  134.5760   74.3170  225.2470 C   0  0  0  0  0  0  0  0  0  0  0  0
  134.0960   73.0450  224.5330 C   0  0  0  0  0  0  0  0  0  0  0  0
  134.3270   71.9120  225.5100 C   0  0  0  0  0  0  0  0  0  0  0  0
  134.9330   72.9300  223.3050 C   0  0  0  0  0  0  0  0  0  0  0  0
  136.1940   73.6370  223.3540 N   0  0  0  0  0  0  0  0  0  0  0  0
  136.4990   74.5910  222.3180 C   0  0  0  0  0  0  0  0  0  0  0  0
  135.5990   74.7090  221.4560 O   0  0  0  0  0  0  0  0  0  0  0  0
  137.7520   75.3060  222.3440 C   0  0  0  0  0  0  0  0  0  0  0  0
  137.7820   76.6450  222.6560 C   0  0  0  0  0  0  0  0  0  0  0  0
  138.9800   77.3720  222.7140 C   0  0  0  0  0  0  0  0  0  0  0  0
  138.9870   78.7150  223.0290 C   0  0  0  0  0  0  0  0  0  0  0  0
  137.9060   79.3020  223.2690 O   0  0  0  0  0  0  0  0  0  0  0  0
  140.1870   79.3340  223.0620 N   0  0  0  0  0  0  0  0  0  0  0  0
  140.2100   80.6480  223.3690 C   0  0  0  0  0  0  0  0  0  0  0  0
  141.4480   81.2870  223.4030 C   0  0  0  0  0  0  0  0  0  0  0  0
  142.6190   80.6340  223.1390 C   0  0  0  0  0  0  0  0  0  0  0  0
  142.5750   79.3030  222.8290 C   0  0  0  0  0  0  0  0  0  0  0  0
  141.3360   78.6880  222.8020 C   0  0  0  0  0  0  0  0  0  0  0  0
  141.3310   77.3690  222.4910 N   0  0  0  0  0  0  0  0  0  0  0  0
  140.1580   76.7130  222.4470 C   0  0  0  0  0  0  0  0  0  0  0  0
  140.0760   75.4120  222.1480 N   0  0  0  0  0  0  0  0  0  0  0  0
  138.9490   74.6870  222.0840 C   0  0  0  0  0  0  0  0  0  0  0  0
  139.0820   73.3270  221.7080 N   0  0  0  0  0  0  0  0  0  0  0  0
  139.1850   72.2530  222.6470 C   0  0  0  0  0  0  0  0  0  0  0  0
  138.2050   71.3080  222.8350 C   0  0  0  0  0  0  0  0  0  0  0  0
  138.3470   70.2900  223.7790 C   0  0  0  0  0  0  0  0  0  0  0  0
  139.4950   70.2330  224.5350 C   0  0  0  0  0  0  0  0  0  0  0  0
  139.6100   69.2380  225.4420 F   0  0  0  0  0  0  0  0  0  0  0  0
  140.4970   71.1570  224.3780 C   0  0  0  0  0  0  0  0  0  0  0  0
  140.3140   72.1410  223.4380 C   0  0  0  0  0  0  0  0  0  0  0  0
  134.5204   74.1696  226.3356 H   0  0  0  0  0  0  0  0  0  0  0  0
  135.6160   74.5292  224.9584 H   0  0  0  0  0  0  0  0  0  0  0  0
  133.9354   75.1634  224.9584 H   0  0  0  0  0  0  0  0  0  0  0  0
  133.0365   73.0422  224.2374 H   0  0  0  0  0  0  0  0  0  0  0  0
  134.2492   72.2934  226.5388 H   0  0  0  0  0  0  0  0  0  0  0  0
  133.5698   71.1302  225.3505 H   0  0  0  0  0  0  0  0  0  0  0  0
  135.3298   71.4891  225.3505 H   0  0  0  0  0  0  0  0  0  0  0  0
  135.1462   71.8641  223.1364 H   0  0  0  0  0  0  0  0  0  0  0  0
  134.3527   73.3941  222.4939 H   0  0  0  0  0  0  0  0  0  0  0  0
  136.8270   73.4210  224.1420 H   0  0  0  0  0  0  0  0  0  0  0  0
  136.8349   77.1631  222.8671 H   0  0  0  0  0  0  0  0  0  0  0  0
  139.2816   81.1969  223.5854 H   0  0  0  0  0  0  0  0  0  0  0  0
  141.4839   82.3579  223.6518 H   0  0  0  0  0  0  0  0  0  0  0  0
  143.5793   81.1693  223.1752 H   0  0  0  0  0  0  0  0  0  0  0  0
  143.4939   78.7401  222.6084 H   0  0  0  0  0  0  0  0  0  0  0  0
  139.1260   73.0010  220.6990 H   0  0  0  0  0  0  0  0  0  0  0  0
  137.2887   71.3550  222.2282 H   0  0  0  0  0  0  0  0  0  0  0  0
  137.5514   69.5430  223.9168 H   0  0  0  0  0  0  0  0  0  0  0  0
  141.4142   71.1111  224.9836 H   0  0  0  0  0  0  0  0  0  0  0  0
  141.1134   72.8850  223.3061 H   0  0  0  0  0  0  0  0  0  0  0  0
  1  2  1  0
  2  3  1  0
  2  4  1  0
  4  5  1  0
  5  6  1  0
  6  7  2  0
  6  8  1  0
  8  9  2  0
  9 10  1  0
 10 11  1  0
 11 12  2  0
 11 13  1  0
 13 14  1  0
 14 15  2  0
 15 16  1  0
 16 17  2  0
 17 18  1  0
 18 19  2  0
 19 20  1  0
 20 21  1  0
 21 22  2  0
 22 23  1  0
 23 24  1  0
 24 25  2  0
 25 26  1  0
 26 27  2  0
 27 28  1  0
 27 29  1  0
 29 30  2  0
 22  8  1  0
 30 24  1  0
 20 10  2  0
 18 13  1  0
  1 31  1  0
  1 32  1  0
  1 33  1  0
  2 34  1  0
  3 35  1  0
  3 36  1  0
  3 37  1  0
  4 38  1  0
  4 39  1  0
  5 40  1  0
  9 41  1  0
 14 42  1  0
 15 43  1  0
 16 44  1  0
 17 45  1  0
 23 46  1  0
 25 47  1  0
 26 48  1  0
 29 49  1  0
 30 50  1  0
M  END
>  <smiles>  (20) 
CC(C)CNC(=O)c1cc2c(=O)n3ccccc3nc2nc1Nc1ccc(F)cc1

>  <score_type>  (20) 
oracle

>  <origin>  (20) 
autodockgpu

>  <m_score__min__energy>  (20) 
-7.4500000000000002

>  <m_primary>  (20) 
energy

>  <meeko>  (20) 
{"free_energy": -7.12, "intermolecular_energy": -8.61, "internal_energy": -1.01, "cluster_size": 4, "cluster_id": 2, "rank_in_cluster": 1}

>  <energy>  (20) 
-7.11

>  <cluster_rmsd>  (20) 
0.03

>  <rmsd>  (20) 
272.77

>  <cluster>  (20) 
2

$$$$
