
     RDKit          3D

 41 42  0  0  0  0  0  0  0  0999 V2000
  139.9320   74.3460  222.2710 O   0  0  0  0  0  0  0  0  0  0  0  0
  140.6740   73.3830  221.9550 C   0  0  0  0  0  0  0  0  0  0  0  0
  140.6690   72.0880  222.6340 C   0  0  0  0  0  0  0  0  0  0  0  0
  139.3190   71.4170  222.7100 C   0  0  0  0  0  0  0  0  0  0  0  0
  138.9680   70.8920  224.0590 C   0  0  0  0  0  0  0  0  0  0  0  0
  140.0330   70.8580  224.9210 O   0  0  0  0  0  0  0  0  0  0  0  0
  140.3390   70.1690  226.0400 C   0  0  0  0  0  0  0  0  0  0  0  0
  140.2460   68.7660  225.9570 C   0  0  0  0  0  0  0  0  0  0  0  0
  140.5320   67.9520  227.0240 C   0  0  0  0  0  0  0  0  0  0  0  0
  140.9260   68.4780  228.2330 C   0  0  0  0  0  0  0  0  0  0  0  0
  141.2210   67.7380  229.3210 F   0  0  0  0  0  0  0  0  0  0  0  0
  141.0270   69.8450  228.3490 C   0  0  0  0  0  0  0  0  0  0  0  0
  140.7330   70.6610  227.2550 C   0  0  0  0  0  0  0  0  0  0  0  0
  141.5820   73.5610  220.8620 N   0  0  0  0  0  0  0  0  0  0  0  0
  141.6770   74.8010  220.1170 C   0  0  0  0  0  0  0  0  0  0  0  0
  143.0300   75.3670  220.0870 C   0  0  0  0  0  0  0  0  0  0  0  0
  144.1430   74.4290  219.8910 C   0  0  0  0  0  0  0  0  0  0  0  0
  144.2410   73.7870  218.6630 C   0  0  0  0  0  0  0  0  0  0  0  0
  145.2540   72.8900  218.3870 C   0  0  0  0  0  0  0  0  0  0  0  0
  146.1700   72.6420  219.3560 N   0  0  0  0  0  0  0  0  0  0  0  0
  146.1160   73.2470  220.5730 C   0  0  0  0  0  0  0  0  0  0  0  0
  145.1010   74.1400  220.8380 C   0  0  0  0  0  0  0  0  0  0  0  0
  141.3546   71.4170  222.0957 H   0  0  0  0  0  0  0  0  0  0  0  0
  140.9766   72.2821  223.6721 H   0  0  0  0  0  0  0  0  0  0  0  0
  138.5534   72.1501  222.4162 H   0  0  0  0  0  0  0  0  0  0  0  0
  139.3617   70.5484  222.0364 H   0  0  0  0  0  0  0  0  0  0  0  0
  138.1884   71.5358  224.4923 H   0  0  0  0  0  0  0  0  0  0  0  0
  138.6230   69.8560  223.9260 H   0  0  0  0  0  0  0  0  0  0  0  0
  139.9342   68.3083  225.0066 H   0  0  0  0  0  0  0  0  0  0  0  0
  140.4449   66.8613  226.9111 H   0  0  0  0  0  0  0  0  0  0  0  0
  141.3392   70.2948  229.3030 H   0  0  0  0  0  0  0  0  0  0  0  0
  140.8222   71.7508  227.3751 H   0  0  0  0  0  0  0  0  0  0  0  0
  142.2020   72.7350  220.6070 H   0  0  0  0  0  0  0  0  0  0  0  0
  141.3571   74.6100  219.0820 H   0  0  0  0  0  0  0  0  0  0  0  0
  141.0328   75.5329  220.6263 H   0  0  0  0  0  0  0  0  0  0  0  0
  143.0650   76.0989  219.2666 H   0  0  0  0  0  0  0  0  0  0  0  0
  143.1852   75.7871  221.0917 H   0  0  0  0  0  0  0  0  0  0  0  0
  143.4899   73.9993  217.8879 H   0  0  0  0  0  0  0  0  0  0  0  0
  145.3163   72.3907  217.4088 H   0  0  0  0  0  0  0  0  0  0  0  0
  146.8750   73.0255  221.3378 H   0  0  0  0  0  0  0  0  0  0  0  0
  145.0547   74.6302  221.8216 H   0  0  0  0  0  0  0  0  0  0  0  0
  1  2  2  0
  2  3  1  0
  3  4  1  0
  4  5  1  0
  5  6  1  0
  6  7  1  0
  7  8  2  0
  8  9  1  0
  9 10  2  0
 10 11  1  0
 10 12  1  0
 12 13  2  0
  2 14  1  0
 14 15  1  0
 15 16  1  0
 16 17  1  0
 17 18  2  0
 18 19  1  0
 19 20  2  0
 20 21  1  0
 21 22  2  0
 13  7  1  0
 22 17  1  0
  3 23  1  0
  3 24  1  0
  4 25  1  0
  4 26  1  0
  5 27  1  0
  5 28  1  0
  8 29  1  0
  9 30  1  0
 12 31  1  0
 13 32  1  0
 14 33  1  0
 15 34  1  0
 15 35  1  0
 16 36  1  0
 16 37  1  0
 18 38  1  0
 19 39  1  0
 21 40  1  0
 22 41  1  0
M  END
>  <smiles>  (1) 
O=C(CCCOc1ccc(F)cc1)NCCc1ccncc1

>  <score_type>  (1) 
oracle

>  <origin>  (1) 
autodockgpu

>  <m_score__min__energy>  (1) 
-6.6900000000000004

>  <m_primary>  (1) 
energy

>  <meeko>  (1) 
{"free_energy": -6.31, "intermolecular_energy": -8.7, "internal_energy": -0.63, "cluster_size": 2, "cluster_id": 2, "rank_in_cluster": 2}

>  <energy>  (1) 
-6.69

>  <cluster_rmsd>  (1) 
0.0

>  <rmsd>  (1) 
273.04

>  <cluster>  (1) 
1

$$$$

     RDKit          3D

 41 42  0  0  0  0  0  0  0  0999 V2000
  137.4490   70.8950  221.2520 O   0  0  0  0  0  0  0  0  0  0  0  0
  137.8920   71.9870  221.6860 C   0  0  0  0  0  0  0  0  0  0  0  0
  137.7510   73.2640  220.9870 C   0  0  0  0  0  0  0  0  0  0  0  0
  137.8830   74.4850  221.8650 C   0  0  0  0  0  0  0  0  0  0  0  0
  139.2670   75.0290  221.9570 C   0  0  0  0  0  0  0  0  0  0  0  0
  140.2310   74.0560  221.9830 O   0  0  0  0  0  0  0  0  0  0  0  0
  141.4030   73.8510  221.3450 C   0  0  0  0  0  0  0  0  0  0  0  0
  141.8470   72.5170  221.2630 C   0  0  0  0  0  0  0  0  0  0  0  0
  143.0210   72.1770  220.6400 C   0  0  0  0  0  0  0  0  0  0  0  0
  143.8220   73.1350  220.0620 C   0  0  0  0  0  0  0  0  0  0  0  0
  144.9860   72.8710  219.4340 F   0  0  0  0  0  0  0  0  0  0  0  0
  143.4180   74.4490  220.1230 C   0  0  0  0  0  0  0  0  0  0  0  0
  142.2210   74.7800  220.7610 C   0  0  0  0  0  0  0  0  0  0  0  0
  138.5790   71.9860  222.9420 N   0  0  0  0  0  0  0  0  0  0  0  0
  138.7820   70.7810  223.7220 C   0  0  0  0  0  0  0  0  0  0  0  0
  140.1550   70.6220  224.2130 C   0  0  0  0  0  0  0  0  0  0  0  0
  140.3740   70.7960  225.6550 C   0  0  0  0  0  0  0  0  0  0  0  0
  141.0780   71.9180  226.0720 C   0  0  0  0  0  0  0  0  0  0  0  0
  141.3320   72.1650  227.4080 C   0  0  0  0  0  0  0  0  0  0  0  0
  140.8720   71.2760  228.3220 N   0  0  0  0  0  0  0  0  0  0  0  0
  140.1770   70.1630  227.9600 C   0  0  0  0  0  0  0  0  0  0  0  0
  139.9290   69.9260  226.6260 C   0  0  0  0  0  0  0  0  0  0  0  0
  138.5276   73.3161  220.2097 H   0  0  0  0  0  0  0  0  0  0  0  0
  136.7286   73.2835  220.5816 H   0  0  0  0  0  0  0  0  0  0  0  0
  137.2299   75.2722  221.4603 H   0  0  0  0  0  0  0  0  0  0  0  0
  137.5994   74.1736  222.8812 H   0  0  0  0  0  0  0  0  0  0  0  0
  139.4467   75.6754  221.0853 H   0  0  0  0  0  0  0  0  0  0  0  0
  139.3372   75.5826  222.9050 H   0  0  0  0  0  0  0  0  0  0  0  0
  141.2331   71.7227  221.7127 H   0  0  0  0  0  0  0  0  0  0  0  0
  143.3271   71.1211  220.6019 H   0  0  0  0  0  0  0  0  0  0  0  0
  144.0371   75.2373  219.6699 H   0  0  0  0  0  0  0  0  0  0  0  0
  141.9211   75.8378  220.7959 H   0  0  0  0  0  0  0  0  0  0  0  0
  138.9470   72.9200  223.2960 H   0  0  0  0  0  0  0  0  0  0  0  0
  138.1044   70.8094  224.5880 H   0  0  0  0  0  0  0  0  0  0  0  0
  138.5771   69.9289  223.0572 H   0  0  0  0  0  0  0  0  0  0  0  0
  140.4865   69.6073  223.9475 H   0  0  0  0  0  0  0  0  0  0  0  0
  140.7231   71.4357  223.7385 H   0  0  0  0  0  0  0  0  0  0  0  0
  141.4438   72.6303  225.3178 H   0  0  0  0  0  0  0  0  0  0  0  0
  141.8921   73.0585  227.7209 H   0  0  0  0  0  0  0  0  0  0  0  0
  139.8169   69.4597  228.7253 H   0  0  0  0  0  0  0  0  0  0  0  0
  139.3667   69.0277  226.3313 H   0  0  0  0  0  0  0  0  0  0  0  0
  1  2  2  0
  2  3  1  0
  3  4  1  0
  4  5  1  0
  5  6  1  0
  6  7  1  0
  7  8  2  0
  8  9  1  0
  9 10  2  0
 10 11  1  0
 10 12  1  0
 12 13  2  0
  2 14  1  0
 14 15  1  0
 15 16  1  0
 16 17  1  0
 17 18  2  0
 18 19  1  0
 19 20  2  0
 20 21  1  0
 21 22  2  0
 13  7  1  0
 22 17  1  0
  3 23  1  0
  3 24  1  0
  4 25  1  0
  4 26  1  0
  5 27  1  0
  5 28  1  0
  8 29  1  0
  9 30  1  0
 12 31  1  0
 13 32  1  0
 14 33  1  0
 15 34  1  0
 15 35  1  0
 16 36  1  0
 16 37  1  0
 18 38  1  0
 19 39  1  0
 21 40  1  0
 22 41  1  0
M  END
>  <smiles>  (2) 
O=C(CCCOc1ccc(F)cc1)NCCc1ccncc1

>  <score_type>  (2) 
oracle

>  <origin>  (2) 
autodockgpu

>  <m_score__min__energy>  (2) 
-6.6900000000000004

>  <m_primary>  (2) 
energy

>  <meeko>  (2) 
{"free_energy": -5.11, "intermolecular_energy": -7.5, "internal_energy": -1.64, "cluster_size": 2, "cluster_id": 5, "rank_in_cluster": 2}

>  <energy>  (2) 
-6.57

>  <cluster_rmsd>  (2) 
0.56

>  <rmsd>  (2) 
273.05

>  <cluster>  (2) 
1

$$$$

     RDKit          3D

 41 42  0  0  0  0  0  0  0  0999 V2000
  140.6580   74.0950  221.9240 O   0  0  0  0  0  0  0  0  0  0  0  0
  141.4510   74.8660  221.3290 C   0  0  0  0  0  0  0  0  0  0  0  0
  142.3780   74.4400  220.2820 C   0  0  0  0  0  0  0  0  0  0  0  0
  143.4170   75.4660  219.8990 C   0  0  0  0  0  0  0  0  0  0  0  0
  143.0370   76.3220  218.7410 C   0  0  0  0  0  0  0  0  0  0  0  0
  142.2070   77.3570  219.0810 O   0  0  0  0  0  0  0  0  0  0  0  0
  142.2020   78.6910  218.8730 C   0  0  0  0  0  0  0  0  0  0  0  0
  141.3300   79.4480  219.6790 C   0  0  0  0  0  0  0  0  0  0  0  0
  141.2330   80.8120  219.5660 C   0  0  0  0  0  0  0  0  0  0  0  0
  141.9930   81.5050  218.6510 C   0  0  0  0  0  0  0  0  0  0  0  0
  141.9480   82.8420  218.4880 F   0  0  0  0  0  0  0  0  0  0  0  0
  142.8560   80.7960  217.8490 C   0  0  0  0  0  0  0  0  0  0  0  0
  142.9440   79.4090  217.9750 C   0  0  0  0  0  0  0  0  0  0  0  0
  141.4490   76.2500  221.6970 N   0  0  0  0  0  0  0  0  0  0  0  0
  140.5770   76.7870  222.7220 C   0  0  0  0  0  0  0  0  0  0  0  0
  140.1480   78.1660  222.4670 C   0  0  0  0  0  0  0  0  0  0  0  0
  141.0510   79.2390  222.9040 C   0  0  0  0  0  0  0  0  0  0  0  0
  142.4150   79.0470  222.7310 C   0  0  0  0  0  0  0  0  0  0  0  0
  143.3400   80.0000  223.1110 C   0  0  0  0  0  0  0  0  0  0  0  0
  142.8830   81.1500  223.6660 N   0  0  0  0  0  0  0  0  0  0  0  0
  141.5560   81.3830  223.8550 C   0  0  0  0  0  0  0  0  0  0  0  0
  140.6420   80.4250  223.4720 C   0  0  0  0  0  0  0  0  0  0  0  0
  142.9010   73.5387  220.6343 H   0  0  0  0  0  0  0  0  0  0  0  0
  141.7694   74.2657  219.3824 H   0  0  0  0  0  0  0  0  0  0  0  0
  143.5924   76.1188  220.7668 H   0  0  0  0  0  0  0  0  0  0  0  0
  144.3143   74.9068  219.5956 H   0  0  0  0  0  0  0  0  0  0  0  0
  143.9540   76.7403  218.3004 H   0  0  0  0  0  0  0  0  0  0  0  0
  142.4890   75.6849  218.0312 H   0  0  0  0  0  0  0  0  0  0  0  0
  140.7070   78.9295  220.4226 H   0  0  0  0  0  0  0  0  0  0  0  0
  140.5366   81.3607  220.2171 H   0  0  0  0  0  0  0  0  0  0  0  0
  143.4767   81.3218  217.1085 H   0  0  0  0  0  0  0  0  0  0  0  0
  143.6432   78.8670  217.3213 H   0  0  0  0  0  0  0  0  0  0  0  0
  142.1260   76.8900  221.1820 H   0  0  0  0  0  0  0  0  0  0  0  0
  139.6819   76.1507  222.7849 H   0  0  0  0  0  0  0  0  0  0  0  0
  141.1512   76.7970  223.6602 H   0  0  0  0  0  0  0  0  0  0  0  0
  140.0063   78.2736  221.3815 H   0  0  0  0  0  0  0  0  0  0  0  0
  139.2374   78.2970  223.0700 H   0  0  0  0  0  0  0  0  0  0  0  0
  142.7693   78.1091  222.2784 H   0  0  0  0  0  0  0  0  0  0  0  0
  144.4174   79.8308  222.9674 H   0  0  0  0  0  0  0  0  0  0  0  0
  141.2162   82.3258  224.3086 H   0  0  0  0  0  0  0  0  0  0  0  0
  139.5683   80.6108  223.6225 H   0  0  0  0  0  0  0  0  0  0  0  0
  1  2  2  0
  2  3  1  0
  3  4  1  0
  4  5  1  0
  5  6  1  0
  6  7  1  0
  7  8  2  0
  8  9  1  0
  9 10  2  0
 10 11  1  0
 10 12  1  0
 12 13  2  0
  2 14  1  0
 14 15  1  0
 15 16  1  0
 16 17  1  0
 17 18  2  0
 18 19  1  0
 19 20  2  0
 20 21  1  0
 21 22  2  0
 13  7  1  0
 22 17  1  0
  3 23  1  0
  3 24  1  0
  4 25  1  0
  4 26  1  0
  5 27  1  0
  5 28  1  0
  8 29  1  0
  9 30  1  0
 12 31  1  0
 13 32  1  0
 14 33  1  0
 15 34  1  0
 15 35  1  0
 16 36  1  0
 16 37  1  0
 18 38  1  0
 19 39  1  0
 21 40  1  0
 22 41  1  0
M  END
>  <smiles>  (3) 
O=C(CCCOc1ccc(F)cc1)NCCc1ccncc1

>  <score_type>  (3) 
oracle

>  <origin>  (3) 
autodockgpu

>  <m_score__min__energy>  (3) 
-6.6900000000000004

>  <m_primary>  (3) 
energy

>  <meeko>  (3) 
{"free_energy": -4.85, "intermolecular_energy": -7.23, "internal_energy": -2.01, "cluster_size": 3, "cluster_id": 6, "rank_in_cluster": 3}

>  <energy>  (3) 
-6.47

>  <cluster_rmsd>  (3) 
1.25

>  <rmsd>  (3) 
272.95

>  <cluster>  (3) 
1

$$$$

     RDKit          3D

 41 42  0  0  0  0  0  0  0  0999 V2000
  139.2910   74.5190  222.3330 O   0  0  0  0  0  0  0  0  0  0  0  0
  140.4910   74.4600  221.9670 C   0  0  0  0  0  0  0  0  0  0  0  0
  141.1620   73.2270  221.5570 C   0  0  0  0  0  0  0  0  0  0  0  0
  140.4750   71.9550  221.9940 C   0  0  0  0  0  0  0  0  0  0  0  0
  139.9450   71.9900  223.3850 C   0  0  0  0  0  0  0  0  0  0  0  0
  140.8400   71.5370  224.3180 O   0  0  0  0  0  0  0  0  0  0  0  0
  140.7470   70.9420  225.5260 C   0  0  0  0  0  0  0  0  0  0  0  0
  140.4900   69.5570  225.5250 C   0  0  0  0  0  0  0  0  0  0  0  0
  140.3750   68.8360  226.6860 C   0  0  0  0  0  0  0  0  0  0  0  0
  140.5070   69.4420  227.9150 C   0  0  0  0  0  0  0  0  0  0  0  0
  140.4060   68.7950  229.0930 F   0  0  0  0  0  0  0  0  0  0  0  0
  140.7590   70.7940  227.9520 C   0  0  0  0  0  0  0  0  0  0  0  0
  140.8740   71.5150  226.7620 C   0  0  0  0  0  0  0  0  0  0  0  0
  141.2520   75.6730  221.9470 N   0  0  0  0  0  0  0  0  0  0  0  0
  140.6930   76.9530  222.3340 C   0  0  0  0  0  0  0  0  0  0  0  0
  141.1970   78.0780  221.5400 C   0  0  0  0  0  0  0  0  0  0  0  0
  141.4890   79.3270  222.2580 C   0  0  0  0  0  0  0  0  0  0  0  0
  142.5900   79.3450  223.1030 C   0  0  0  0  0  0  0  0  0  0  0  0
  142.9430   80.4730  223.8190 C   0  0  0  0  0  0  0  0  0  0  0  0
  142.1790   81.5840  223.6780 N   0  0  0  0  0  0  0  0  0  0  0  0
  141.0910   81.6140  222.8610 C   0  0  0  0  0  0  0  0  0  0  0  0
  140.7490   80.4830  222.1520 C   0  0  0  0  0  0  0  0  0  0  0  0
  141.2257   73.2213  220.4589 H   0  0  0  0  0  0  0  0  0  0  0  0
  142.1455   73.2319  222.0496 H   0  0  0  0  0  0  0  0  0  0  0  0
  139.6346   71.7652  221.3101 H   0  0  0  0  0  0  0  0  0  0  0  0
  141.2363   71.1615  221.9675 H   0  0  0  0  0  0  0  0  0  0  0  0
  139.6797   73.0287  223.6314 H   0  0  0  0  0  0  0  0  0  0  0  0
  139.0731   71.3201  223.4181 H   0  0  0  0  0  0  0  0  0  0  0  0
  140.3780   69.0370  224.5621 H   0  0  0  0  0  0  0  0  0  0  0  0
  140.1740   67.7558  226.6343 H   0  0  0  0  0  0  0  0  0  0  0  0
  140.8699   71.3067  228.9189 H   0  0  0  0  0  0  0  0  0  0  0  0
  141.0762   72.5946  226.8208 H   0  0  0  0  0  0  0  0  0  0  0  0
  142.2660   75.6040  221.6330 H   0  0  0  0  0  0  0  0  0  0  0  0
  139.6004   76.9055  222.2153 H   0  0  0  0  0  0  0  0  0  0  0  0
  140.9931   77.1340  223.3767 H   0  0  0  0  0  0  0  0  0  0  0  0
  142.1277   77.7499  221.0540 H   0  0  0  0  0  0  0  0  0  0  0  0
  140.3768   78.3305  220.8519 H   0  0  0  0  0  0  0  0  0  0  0  0
  143.1993   78.4349  223.2057 H   0  0  0  0  0  0  0  0  0  0  0  0
  143.8189   80.4695  224.4844 H   0  0  0  0  0  0  0  0  0  0  0  0
  140.4911   82.5313  222.7676 H   0  0  0  0  0  0  0  0  0  0  0  0
  139.8703   80.5042  221.4905 H   0  0  0  0  0  0  0  0  0  0  0  0
  1  2  2  0
  2  3  1  0
  3  4  1  0
  4  5  1  0
  5  6  1  0
  6  7  1  0
  7  8  2  0
  8  9  1  0
  9 10  2  0
 10 11  1  0
 10 12  1  0
 12 13  2  0
  2 14  1  0
 14 15  1  0
 15 16  1  0
 16 17  1  0
 17 18  2  0
 18 19  1  0
 19 20  2  0
 20 21  1  0
 21 22  2  0
 13  7  1  0
 22 17  1  0
  3 23  1  0
  3 24  1  0
  4 25  1  0
  4 26  1  0
  5 27  1  0
  5 28  1  0
  8 29  1  0
  9 30  1  0
 12 31  1  0
 13 32  1  0
 14 33  1  0
 15 34  1  0
 15 35  1  0
 16 36  1  0
 16 37  1  0
 18 38  1  0
 19 39  1  0
 21 40  1  0
 22 41  1  0
M  END
>  <smiles>  (4) 
O=C(CCCOc1ccc(F)cc1)NCCc1ccncc1

>  <score_type>  (4) 
oracle

>  <origin>  (4) 
autodockgpu

>  <m_score__min__energy>  (4) 
-6.6900000000000004

>  <m_primary>  (4) 
energy

>  <meeko>  (4) 
{"free_energy": -6.69, "intermolecular_energy": -9.07, "internal_energy": -0.47, "cluster_size": 7, "cluster_id": 1, "rank_in_cluster": 1}

>  <energy>  (4) 
-6.35

>  <cluster_rmsd>  (4) 
1.4

>  <rmsd>  (4) 
272.88

>  <cluster>  (4) 
1

$$$$

     RDKit          3D

 41 42  0  0  0  0  0  0  0  0999 V2000
  138.0450   71.0320  221.0530 O   0  0  0  0  0  0  0  0  0  0  0  0
  138.2590   72.1790  221.5180 C   0  0  0  0  0  0  0  0  0  0  0  0
  137.8040   73.4170  220.8870 C   0  0  0  0  0  0  0  0  0  0  0  0
  137.8550   74.6370  221.7750 C   0  0  0  0  0  0  0  0  0  0  0  0
  139.1160   75.4220  221.6680 C   0  0  0  0  0  0  0  0  0  0  0  0
  140.2310   74.7070  222.0180 O   0  0  0  0  0  0  0  0  0  0  0  0
  141.3310   74.2700  221.3700 C   0  0  0  0  0  0  0  0  0  0  0  0
  142.1280   75.2530  220.7520 C   0  0  0  0  0  0  0  0  0  0  0  0
  143.2730   74.9380  220.0650 C   0  0  0  0  0  0  0  0  0  0  0  0
  143.6950   73.6340  219.9490 C   0  0  0  0  0  0  0  0  0  0  0  0
  144.8080   73.2540  219.2890 F   0  0  0  0  0  0  0  0  0  0  0  0
  142.9410   72.6470  220.5410 C   0  0  0  0  0  0  0  0  0  0  0  0
  141.7790   72.9830  221.2380 C   0  0  0  0  0  0  0  0  0  0  0  0
  138.9950   72.2850  222.7420 N   0  0  0  0  0  0  0  0  0  0  0  0
  139.4980   71.1270  223.4550 C   0  0  0  0  0  0  0  0  0  0  0  0
  140.6950   71.4050  224.2560 C   0  0  0  0  0  0  0  0  0  0  0  0
  140.6240   71.1020  225.6920 C   0  0  0  0  0  0  0  0  0  0  0  0
  140.0650   69.8880  226.0710 C   0  0  0  0  0  0  0  0  0  0  0  0
  139.9570   69.5170  227.3970 C   0  0  0  0  0  0  0  0  0  0  0  0
  140.4150   70.3750  228.3410 N   0  0  0  0  0  0  0  0  0  0  0  0
  140.9720   71.5740  228.0180 C   0  0  0  0  0  0  0  0  0  0  0  0
  141.0750   71.9350  226.6920 C   0  0  0  0  0  0  0  0  0  0  0  0
  138.4385   73.6065  220.0086 H   0  0  0  0  0  0  0  0  0  0  0  0
  136.7448   73.2635  220.6328 H   0  0  0  0  0  0  0  0  0  0  0  0
  137.0159   75.2949  221.5046 H   0  0  0  0  0  0  0  0  0  0  0  0
  137.7976   74.2740  222.8118 H   0  0  0  0  0  0  0  0  0  0  0  0
  139.2300   75.7592  220.6272 H   0  0  0  0  0  0  0  0  0  0  0  0
  139.0357   76.2647  222.3704 H   0  0  0  0  0  0  0  0  0  0  0  0
  141.8226   76.3074  220.8224 H   0  0  0  0  0  0  0  0  0  0  0  0
  143.8630   75.7412  219.5995 H   0  0  0  0  0  0  0  0  0  0  0  0
  143.2532   71.5950  220.4652 H   0  0  0  0  0  0  0  0  0  0  0  0
  141.1954   72.1750  221.7035 H   0  0  0  0  0  0  0  0  0  0  0  0
  139.1650   73.2630  223.1230 H   0  0  0  0  0  0  0  0  0  0  0  0
  138.7072   70.7616  224.1267 H   0  0  0  0  0  0  0  0  0  0  0  0
  139.7822   70.3807  222.6985 H   0  0  0  0  0  0  0  0  0  0  0  0
  141.5213   70.8147  223.8331 H   0  0  0  0  0  0  0  0  0  0  0  0
  140.8274   72.4956  224.2012 H   0  0  0  0  0  0  0  0  0  0  0  0
  139.6979   69.2027  225.2928 H   0  0  0  0  0  0  0  0  0  0  0  0
  139.5115   68.5517  227.6792 H   0  0  0  0  0  0  0  0  0  0  0  0
  141.3363   72.2481  228.8073 H   0  0  0  0  0  0  0  0  0  0  0  0
  141.5245   72.9037  226.4280 H   0  0  0  0  0  0  0  0  0  0  0  0
  1  2  2  0
  2  3  1  0
  3  4  1  0
  4  5  1  0
  5  6  1  0
  6  7  1  0
  7  8  2  0
  8  9  1  0
  9 10  2  0
 10 11  1  0
 10 12  1  0
 12 13  2  0
  2 14  1  0
 14 15  1  0
 15 16  1  0
 16 17  1  0
 17 18  2  0
 18 19  1  0
 19 20  2  0
 20 21  1  0
 21 22  2  0
 13  7  1  0
 22 17  1  0
  3 23  1  0
  3 24  1  0
  4 25  1  0
  4 26  1  0
  5 27  1  0
  5 28  1  0
  8 29  1  0
  9 30  1  0
 12 31  1  0
 13 32  1  0
 14 33  1  0
 15 34  1  0
 15 35  1  0
 16 36  1  0
 16 37  1  0
 18 38  1  0
 19 39  1  0
 21 40  1  0
 22 41  1  0
M  END
>  <smiles>  (5) 
O=C(CCCOc1ccc(F)cc1)NCCc1ccncc1

>  <score_type>  (5) 
oracle

>  <origin>  (5) 
autodockgpu

>  <m_score__min__energy>  (5) 
-6.6900000000000004

>  <m_primary>  (5) 
energy

>  <meeko>  (5) 
{"free_energy": -5.19, "intermolecular_energy": -7.58, "internal_energy": -1.65, "cluster_size": 2, "cluster_id": 5, "rank_in_cluster": 1}

>  <energy>  (5) 
-6.3

>  <cluster_rmsd>  (5) 
0.68

>  <rmsd>  (5) 
273.03

>  <cluster>  (5) 
1

$$$$

     RDKit          3D

 41 42  0  0  0  0  0  0  0  0999 V2000
  139.2070   74.7150  221.3710 O   0  0  0  0  0  0  0  0  0  0  0  0
  140.4300   74.5870  221.6270 C   0  0  0  0  0  0  0  0  0  0  0  0
  141.0740   73.3110  221.9330 C   0  0  0  0  0  0  0  0  0  0  0  0
  140.1490   72.1180  221.9340 C   0  0  0  0  0  0  0  0  0  0  0  0
  139.5650   71.7940  223.2650 C   0  0  0  0  0  0  0  0  0  0  0  0
  140.5080   71.6250  224.2450 O   0  0  0  0  0  0  0  0  0  0  0  0
  140.6030   70.8820  225.3660 C   0  0  0  0  0  0  0  0  0  0  0  0
  140.9240   71.5720  226.5510 C   0  0  0  0  0  0  0  0  0  0  0  0
  141.0470   70.9300  227.7580 C   0  0  0  0  0  0  0  0  0  0  0  0
  140.8610   69.5710  227.8620 C   0  0  0  0  0  0  0  0  0  0  0  0
  140.9670   68.8790  229.0140 F   0  0  0  0  0  0  0  0  0  0  0  0
  140.5460   68.8660  226.7240 C   0  0  0  0  0  0  0  0  0  0  0  0
  140.4230   69.5320  225.5030 C   0  0  0  0  0  0  0  0  0  0  0  0
  141.2480   75.7630  221.6190 N   0  0  0  0  0  0  0  0  0  0  0  0
  140.7190   77.0820  221.3320 C   0  0  0  0  0  0  0  0  0  0  0  0
  140.3290   77.8330  222.5300 C   0  0  0  0  0  0  0  0  0  0  0  0
  141.1570   78.9900  222.8940 C   0  0  0  0  0  0  0  0  0  0  0  0
  140.5210   80.0910  223.4520 C   0  0  0  0  0  0  0  0  0  0  0  0
  141.2170   81.2250  223.8260 C   0  0  0  0  0  0  0  0  0  0  0  0
  142.5590   81.2430  223.6340 N   0  0  0  0  0  0  0  0  0  0  0  0
  143.2260   80.1880  223.0910 C   0  0  0  0  0  0  0  0  0  0  0  0
  142.5220   79.0630  222.7230 C   0  0  0  0  0  0  0  0  0  0  0  0
  141.8583   73.1350  221.1821 H   0  0  0  0  0  0  0  0  0  0  0  0
  141.4651   73.3998  222.9573 H   0  0  0  0  0  0  0  0  0  0  0  0
  139.3233   72.3222  221.2364 H   0  0  0  0  0  0  0  0  0  0  0  0
  140.7558   71.2498  221.6375 H   0  0  0  0  0  0  0  0  0  0  0  0
  138.8964   72.6154  223.5620 H   0  0  0  0  0  0  0  0  0  0  0  0
  139.0287   70.8392  223.1613 H   0  0  0  0  0  0  0  0  0  0  0  0
  141.0811   72.6599  226.5079 H   0  0  0  0  0  0  0  0  0  0  0  0
  141.2985   71.5119  228.6570 H   0  0  0  0  0  0  0  0  0  0  0  0
  140.3911   67.7782  226.7757 H   0  0  0  0  0  0  0  0  0  0  0  0
  140.1694   68.9439  224.6087 H   0  0  0  0  0  0  0  0  0  0  0  0
  142.2810   75.6370  221.8360 H   0  0  0  0  0  0  0  0  0  0  0  0
  141.4895   77.6566  220.7971 H   0  0  0  0  0  0  0  0  0  0  0  0
  139.8090   76.9401  220.7305 H   0  0  0  0  0  0  0  0  0  0  0  0
  139.3026   78.1963  222.3737 H   0  0  0  0  0  0  0  0  0  0  0  0
  140.4500   77.1238  223.3621 H   0  0  0  0  0  0  0  0  0  0  0  0
  139.4315   80.0598  223.6007 H   0  0  0  0  0  0  0  0  0  0  0  0
  140.6970   82.0883  224.2669 H   0  0  0  0  0  0  0  0  0  0  0  0
  144.3157   80.2335  222.9476 H   0  0  0  0  0  0  0  0  0  0  0  0
  143.0586   78.2084  222.2852 H   0  0  0  0  0  0  0  0  0  0  0  0
  1  2  2  0
  2  3  1  0
  3  4  1  0
  4  5  1  0
  5  6  1  0
  6  7  1  0
  7  8  2  0
  8  9  1  0
  9 10  2  0
 10 11  1  0
 10 12  1  0
 12 13  2  0
  2 14  1  0
 14 15  1  0
 15 16  1  0
 16 17  1  0
 17 18  2  0
 18 19  1  0
 19 20  2  0
 20 21  1  0
 21 22  2  0
 13  7  1  0
 22 17  1  0
  3 23  1  0
  3 24  1  0
  4 25  1  0
  4 26  1  0
  5 27  1  0
  5 28  1  0
  8 29  1  0
  9 30  1  0
 12 31  1  0
 13 32  1  0
 14 33  1  0
 15 34  1  0
 15 35  1  0
 16 36  1  0
 16 37  1  0
 18 38  1  0
 19 39  1  0
 21 40  1  0
 22 41  1  0
M  END
>  <smiles>  (6) 
O=C(CCCOc1ccc(F)cc1)NCCc1ccncc1

>  <score_type>  (6) 
oracle

>  <origin>  (6) 
autodockgpu

>  <m_score__min__energy>  (6) 
-6.6900000000000004

>  <m_primary>  (6) 
energy

>  <meeko>  (6) 
{"free_energy": -6.3, "intermolecular_energy": -8.69, "internal_energy": -0.53, "cluster_size": 7, "cluster_id": 1, "rank_in_cluster": 6}

>  <energy>  (6) 
-6.3

>  <cluster_rmsd>  (6) 
0.64

>  <rmsd>  (6) 
272.99

>  <cluster>  (6) 
1

$$$$

     RDKit          3D

 41 42  0  0  0  0  0  0  0  0999 V2000
  139.2860   74.3830  221.1330 O   0  0  0  0  0  0  0  0  0  0  0  0
  140.4620   74.2650  221.5600 C   0  0  0  0  0  0  0  0  0  0  0  0
  141.0480   73.0020  222.0080 C   0  0  0  0  0  0  0  0  0  0  0  0
  140.1140   71.8170  221.9580 C   0  0  0  0  0  0  0  0  0  0  0  0
  139.4340   71.5150  223.2490 C   0  0  0  0  0  0  0  0  0  0  0  0
  140.2790   71.5480  224.3270 O   0  0  0  0  0  0  0  0  0  0  0  0
  140.4330   70.8110  225.4460 C   0  0  0  0  0  0  0  0  0  0  0  0
  140.7430   71.5170  226.6250 C   0  0  0  0  0  0  0  0  0  0  0  0
  140.9220   70.8830  227.8280 C   0  0  0  0  0  0  0  0  0  0  0  0
  140.8060   69.5160  227.9360 C   0  0  0  0  0  0  0  0  0  0  0  0
  140.9700   68.8310  229.0850 F   0  0  0  0  0  0  0  0  0  0  0  0
  140.5040   68.7950  226.8040 C   0  0  0  0  0  0  0  0  0  0  0  0
  140.3230   69.4540  225.5870 C   0  0  0  0  0  0  0  0  0  0  0  0
  141.2820   75.4370  221.6130 N   0  0  0  0  0  0  0  0  0  0  0  0
  140.8080   76.7430  221.1980 C   0  0  0  0  0  0  0  0  0  0  0  0
  140.3830   77.5960  222.3130 C   0  0  0  0  0  0  0  0  0  0  0  0
  141.1180   78.8520  222.5130 C   0  0  0  0  0  0  0  0  0  0  0  0
  141.8210   79.0090  223.7000 C   0  0  0  0  0  0  0  0  0  0  0  0
  142.5410   80.1550  223.9760 C   0  0  0  0  0  0  0  0  0  0  0  0
  142.5490   81.1440  223.0490 N   0  0  0  0  0  0  0  0  0  0  0  0
  141.8750   81.0350  221.8720 C   0  0  0  0  0  0  0  0  0  0  0  0
  141.1610   79.8880  221.6060 C   0  0  0  0  0  0  0  0  0  0  0  0
  141.9152   72.7813  221.3682 H   0  0  0  0  0  0  0  0  0  0  0  0
  141.3134   73.1423  223.0662 H   0  0  0  0  0  0  0  0  0  0  0  0
  139.3417   72.0193  221.2013 H   0  0  0  0  0  0  0  0  0  0  0  0
  140.7320   70.9399  221.7157 H   0  0  0  0  0  0  0  0  0  0  0  0
  138.6379   72.2576  223.4064 H   0  0  0  0  0  0  0  0  0  0  0  0
  139.0375   70.4915  223.1769 H   0  0  0  0  0  0  0  0  0  0  0  0
  140.8447   72.6113  226.5794 H   0  0  0  0  0  0  0  0  0  0  0  0
  141.1624   71.4774  228.7218 H   0  0  0  0  0  0  0  0  0  0  0  0
  140.4053   67.7008  226.8579 H   0  0  0  0  0  0  0  0  0  0  0  0
  140.0801   68.8536  224.6979 H   0  0  0  0  0  0  0  0  0  0  0  0
  142.2750   75.3190  221.9750 H   0  0  0  0  0  0  0  0  0  0  0  0
  141.6209   77.2531  220.6604 H   0  0  0  0  0  0  0  0  0  0  0  0
  139.9247   76.5785  220.5634 H   0  0  0  0  0  0  0  0  0  0  0  0
  139.3261   77.8531  222.1493 H   0  0  0  0  0  0  0  0  0  0  0  0
  140.5828   77.0025  223.2173 H   0  0  0  0  0  0  0  0  0  0  0  0
  141.8041   78.1972  224.4421 H   0  0  0  0  0  0  0  0  0  0  0  0
  143.0925   80.2621  224.9217 H   0  0  0  0  0  0  0  0  0  0  0  0
  141.9003   81.8555  221.1398 H   0  0  0  0  0  0  0  0  0  0  0  0
  140.6165   79.7976  220.6545 H   0  0  0  0  0  0  0  0  0  0  0  0
  1  2  2  0
  2  3  1  0
  3  4  1  0
  4  5  1  0
  5  6  1  0
  6  7  1  0
  7  8  2  0
  8  9  1  0
  9 10  2  0
 10 11  1  0
 10 12  1  0
 12 13  2  0
  2 14  1  0
 14 15  1  0
 15 16  1  0
 16 17  1  0
 17 18  2  0
 18 19  1  0
 19 20  2  0
 20 21  1  0
 21 22  2  0
 13  7  1  0
 22 17  1  0
  3 23  1  0
  3 24  1  0
  4 25  1  0
  4 26  1  0
  5 27  1  0
  5 28  1  0
  8 29  1  0
  9 30  1  0
 12 31  1  0
 13 32  1  0
 14 33  1  0
 15 34  1  0
 15 35  1  0
 16 36  1  0
 16 37  1  0
 18 38  1  0
 19 39  1  0
 21 40  1  0
 22 41  1  0
M  END
>  <smiles>  (7) 
O=C(CCCOc1ccc(F)cc1)NCCc1ccncc1

>  <score_type>  (7) 
oracle

>  <origin>  (7) 
autodockgpu

>  <m_score__min__energy>  (7) 
-6.6900000000000004

>  <m_primary>  (7) 
energy

>  <meeko>  (7) 
{"free_energy": -6.16, "intermolecular_energy": -8.55, "internal_energy": -0.53, "cluster_size": 7, "cluster_id": 1, "rank_in_cluster": 7}

>  <energy>  (7) 
-6.16

>  <cluster_rmsd>  (7) 
0.69

>  <rmsd>  (7) 
272.83

>  <cluster>  (7) 
1

$$$$

     RDKit          3D

 41 42  0  0  0  0  0  0  0  0999 V2000
  141.5030   72.5500  221.5990 O   0  0  0  0  0  0  0  0  0  0  0  0
  140.5460   73.3110  221.8870 C   0  0  0  0  0  0  0  0  0  0  0  0
  140.4090   74.6790  221.3890 C   0  0  0  0  0  0  0  0  0  0  0  0
  139.6400   75.6100  222.2950 C   0  0  0  0  0  0  0  0  0  0  0  0
  139.4500   76.9820  221.7480 C   0  0  0  0  0  0  0  0  0  0  0  0
  140.6170   77.6950  221.6540 O   0  0  0  0  0  0  0  0  0  0  0  0
  141.1730   78.7180  222.3350 C   0  0  0  0  0  0  0  0  0  0  0  0
  140.2870   79.5630  223.0310 C   0  0  0  0  0  0  0  0  0  0  0  0
  140.7280   80.6360  223.7630 C   0  0  0  0  0  0  0  0  0  0  0  0
  142.0680   80.9360  223.8490 C   0  0  0  0  0  0  0  0  0  0  0  0
  142.5690   81.9730  224.5490 F   0  0  0  0  0  0  0  0  0  0  0  0
  142.9620   80.1300  223.1810 C   0  0  0  0  0  0  0  0  0  0  0  0
  142.4990   79.0410  222.4410 C   0  0  0  0  0  0  0  0  0  0  0  0
  139.5240   72.8120  222.7580 N   0  0  0  0  0  0  0  0  0  0  0  0
  139.5560   71.4740  223.3140 C   0  0  0  0  0  0  0  0  0  0  0  0
  140.7290   71.2150  224.1560 C   0  0  0  0  0  0  0  0  0  0  0  0
  140.4890   70.9840  225.5860 C   0  0  0  0  0  0  0  0  0  0  0  0
  141.0440   71.8810  226.4890 C   0  0  0  0  0  0  0  0  0  0  0  0
  140.8710   71.7460  227.8530 C   0  0  0  0  0  0  0  0  0  0  0  0
  140.1360   70.6990  228.3040 N   0  0  0  0  0  0  0  0  0  0  0  0
  139.5720   69.7950  227.4570 C   0  0  0  0  0  0  0  0  0  0  0  0
  139.7500   69.9400  226.0990 C   0  0  0  0  0  0  0  0  0  0  0  0
  141.4178   75.0944  221.2487 H   0  0  0  0  0  0  0  0  0  0  0  0
  139.8327   74.6114  220.4545 H   0  0  0  0  0  0  0  0  0  0  0  0
  138.6477   75.1715  222.4768 H   0  0  0  0  0  0  0  0  0  0  0  0
  140.2357   75.7177  223.2135 H   0  0  0  0  0  0  0  0  0  0  0  0
  139.0095   76.8994  220.7434 H   0  0  0  0  0  0  0  0  0  0  0  0
  138.7934   77.5226  222.4455 H   0  0  0  0  0  0  0  0  0  0  0  0
  139.2076   79.3561  222.9862 H   0  0  0  0  0  0  0  0  0  0  0  0
  139.9978   81.2674  224.2903 H   0  0  0  0  0  0  0  0  0  0  0  0
  144.0399   80.3440  223.2304 H   0  0  0  0  0  0  0  0  0  0  0  0
  143.2347   78.4123  221.9180 H   0  0  0  0  0  0  0  0  0  0  0  0
  138.7210   73.4690  222.9900 H   0  0  0  0  0  0  0  0  0  0  0  0
  138.6518   71.3291  223.9235 H   0  0  0  0  0  0  0  0  0  0  0  0
  139.6066   70.7742  222.4668 H   0  0  0  0  0  0  0  0  0  0  0  0
  141.2330   70.3227  223.7564 H   0  0  0  0  0  0  0  0  0  0  0  0
  141.3199   72.1419  224.1131 H   0  0  0  0  0  0  0  0  0  0  0  0
  141.6389   72.7238  226.1071 H   0  0  0  0  0  0  0  0  0  0  0  0
  141.3168   72.4674  228.5536 H   0  0  0  0  0  0  0  0  0  0  0  0
  138.9799   68.9569  227.8532 H   0  0  0  0  0  0  0  0  0  0  0  0
  139.2949   69.2107  225.4127 H   0  0  0  0  0  0  0  0  0  0  0  0
  1  2  2  0
  2  3  1  0
  3  4  1  0
  4  5  1  0
  5  6  1  0
  6  7  1  0
  7  8  2  0
  8  9  1  0
  9 10  2  0
 10 11  1  0
 10 12  1  0
 12 13  2  0
  2 14  1  0
 14 15  1  0
 15 16  1  0
 16 17  1  0
 17 18  2  0
 18 19  1  0
 19 20  2  0
 20 21  1  0
 21 22  2  0
 13  7  1  0
 22 17  1  0
  3 23  1  0
  3 24  1  0
  4 25  1  0
  4 26  1  0
  5 27  1  0
  5 28  1  0
  8 29  1  0
  9 30  1  0
 12 31  1  0
 13 32  1  0
 14 33  1  0
 15 34  1  0
 15 35  1  0
 16 36  1  0
 16 37  1  0
 18 38  1  0
 19 39  1  0
 21 40  1  0
 22 41  1  0
M  END
>  <smiles>  (8) 
O=C(CCCOc1ccc(F)cc1)NCCc1ccncc1

>  <score_type>  (8) 
oracle

>  <origin>  (8) 
autodockgpu

>  <m_score__min__energy>  (8) 
-6.6900000000000004

>  <m_primary>  (8) 
energy

>  <meeko>  (8) 
{"free_energy": -6.27, "intermolecular_energy": -8.65, "internal_energy": -0.53, "cluster_size": 2, "cluster_id": 3, "rank_in_cluster": 1}

>  <energy>  (8) 
-6.32

>  <cluster_rmsd>  (8) 
0.0

>  <rmsd>  (8) 
271.97

>  <cluster>  (8) 
2

$$$$

     RDKit          3D

 41 42  0  0  0  0  0  0  0  0999 V2000
  140.7440   75.1190  220.3750 O   0  0  0  0  0  0  0  0  0  0  0  0
  140.0840   74.5470  221.2770 C   0  0  0  0  0  0  0  0  0  0  0  0
  139.8490   73.1040  221.3300 C   0  0  0  0  0  0  0  0  0  0  0  0
  140.6960   72.3600  222.3340 C   0  0  0  0  0  0  0  0  0  0  0  0
  139.9430   71.8500  223.5140 C   0  0  0  0  0  0  0  0  0  0  0  0
  140.6850   71.8370  224.6660 O   0  0  0  0  0  0  0  0  0  0  0  0
  140.7030   71.0840  225.7860 C   0  0  0  0  0  0  0  0  0  0  0  0
  140.6350   69.6890  225.6050 C   0  0  0  0  0  0  0  0  0  0  0  0
  140.6470   68.8160  226.6630 C   0  0  0  0  0  0  0  0  0  0  0  0
  140.7270   69.2700  227.9590 C   0  0  0  0  0  0  0  0  0  0  0  0
  140.7440   68.4690  229.0430 F   0  0  0  0  0  0  0  0  0  0  0  0
  140.7970   70.6280  228.1720 C   0  0  0  0  0  0  0  0  0  0  0  0
  140.7840   71.5050  227.0860 C   0  0  0  0  0  0  0  0  0  0  0  0
  139.5250   75.3530  222.3200 N   0  0  0  0  0  0  0  0  0  0  0  0
  139.6900   76.7920  222.3700 C   0  0  0  0  0  0  0  0  0  0  0  0
  141.0630   77.2160  222.6620 C   0  0  0  0  0  0  0  0  0  0  0  0
  141.2610   78.6170  223.0570 C   0  0  0  0  0  0  0  0  0  0  0  0
  140.1380   79.3560  223.4050 C   0  0  0  0  0  0  0  0  0  0  0  0
  140.2260   80.6800  223.7910 C   0  0  0  0  0  0  0  0  0  0  0  0
  141.4530   81.2560  223.8240 N   0  0  0  0  0  0  0  0  0  0  0  0
  142.5820   80.5720  223.4930 C   0  0  0  0  0  0  0  0  0  0  0  0
  142.4830   79.2520  223.1100 C   0  0  0  0  0  0  0  0  0  0  0  0
  138.7918   72.9388  221.5852 H   0  0  0  0  0  0  0  0  0  0  0  0
  140.1240   72.7094  220.3407 H   0  0  0  0  0  0  0  0  0  0  0  0
  141.1602   71.5025  221.8248 H   0  0  0  0  0  0  0  0  0  0  0  0
  141.4336   73.0798  222.7184 H   0  0  0  0  0  0  0  0  0  0  0  0
  139.0643   72.4926  223.6719 H   0  0  0  0  0  0  0  0  0  0  0  0
  139.6614   70.8092  223.2960 H   0  0  0  0  0  0  0  0  0  0  0  0
  140.5702   69.2869  224.5832 H   0  0  0  0  0  0  0  0  0  0  0  0
  140.5917   67.7342  226.4717 H   0  0  0  0  0  0  0  0  0  0  0  0
  140.8631   71.0218  229.1969 H   0  0  0  0  0  0  0  0  0  0  0  0
  140.8416   72.5854  227.2843 H   0  0  0  0  0  0  0  0  0  0  0  0
  138.9700   74.8520  223.0770 H   0  0  0  0  0  0  0  0  0  0  0  0
  139.3970   77.2096  221.3955 H   0  0  0  0  0  0  0  0  0  0  0  0
  139.0572   77.1608  223.1907 H   0  0  0  0  0  0  0  0  0  0  0  0
  141.4377   76.5846  223.4812 H   0  0  0  0  0  0  0  0  0  0  0  0
  141.6023   77.1100  221.7092 H   0  0  0  0  0  0  0  0  0  0  0  0
  139.1499   78.8736  223.3725 H   0  0  0  0  0  0  0  0  0  0  0  0
  139.3259   81.2505  224.0638 H   0  0  0  0  0  0  0  0  0  0  0  0
  143.5633   81.0676  223.5308 H   0  0  0  0  0  0  0  0  0  0  0  0
  143.3938   78.6963  222.8423 H   0  0  0  0  0  0  0  0  0  0  0  0
  1  2  2  0
  2  3  1  0
  3  4  1  0
  4  5  1  0
  5  6  1  0
  6  7  1  0
  7  8  2  0
  8  9  1  0
  9 10  2  0
 10 11  1  0
 10 12  1  0
 12 13  2  0
  2 14  1  0
 14 15  1  0
 15 16  1  0
 16 17  1  0
 17 18  2  0
 18 19  1  0
 19 20  2  0
 20 21  1  0
 21 22  2  0
 13  7  1  0
 22 17  1  0
  3 23  1  0
  3 24  1  0
  4 25  1  0
  4 26  1  0
  5 27  1  0
  5 28  1  0
  8 29  1  0
  9 30  1  0
 12 31  1  0
 13 32  1  0
 14 33  1  0
 15 34  1  0
 15 35  1  0
 16 36  1  0
 16 37  1  0
 18 38  1  0
 19 39  1  0
 21 40  1  0
 22 41  1  0
M  END
>  <smiles>  (9) 
O=C(CCCOc1ccc(F)cc1)NCCc1ccncc1

>  <score_type>  (9) 
oracle

>  <origin>  (9) 
autodockgpu

>  <m_score__min__energy>  (9) 
-6.6900000000000004

>  <m_primary>  (9) 
energy

>  <meeko>  (9) 
{"free_energy": -6.47, "intermolecular_energy": -8.85, "internal_energy": -0.51, "cluster_size": 7, "cluster_id": 1, "rank_in_cluster": 3}

>  <energy>  (9) 
-6.31

>  <cluster_rmsd>  (9) 
0.58

>  <rmsd>  (9) 
272.05

>  <cluster>  (9) 
2

$$$$

     RDKit          3D

 41 42  0  0  0  0  0  0  0  0999 V2000
  139.9140   74.2160  222.3300 O   0  0  0  0  0  0  0  0  0  0  0  0
  140.4300   73.4260  221.5020 C   0  0  0  0  0  0  0  0  0  0  0  0
  140.0330   72.0270  221.3460 C   0  0  0  0  0  0  0  0  0  0  0  0
  140.3340   71.1470  222.5350 C   0  0  0  0  0  0  0  0  0  0  0  0
  139.6050   71.5230  223.7780 C   0  0  0  0  0  0  0  0  0  0  0  0
  140.4050   71.5420  224.8910 O   0  0  0  0  0  0  0  0  0  0  0  0
  140.5690   70.7440  225.9660 C   0  0  0  0  0  0  0  0  0  0  0  0
  140.4880   69.3570  225.7360 C   0  0  0  0  0  0  0  0  0  0  0  0
  140.6390   68.4400  226.7460 C   0  0  0  0  0  0  0  0  0  0  0  0
  140.8800   68.8420  228.0400 C   0  0  0  0  0  0  0  0  0  0  0  0
  141.0390   67.9970  229.0780 F   0  0  0  0  0  0  0  0  0  0  0  0
  140.9670   70.1900  228.3000 C   0  0  0  0  0  0  0  0  0  0  0  0
  140.8110   71.1110  227.2630 C   0  0  0  0  0  0  0  0  0  0  0  0
  141.4750   73.9220  220.6560 N   0  0  0  0  0  0  0  0  0  0  0  0
  141.9530   75.2880  220.7220 C   0  0  0  0  0  0  0  0  0  0  0  0
  143.0900   75.5570  219.8360 C   0  0  0  0  0  0  0  0  0  0  0  0
  144.1090   74.5050  219.7160 C   0  0  0  0  0  0  0  0  0  0  0  0
  144.1920   73.8190  218.5120 C   0  0  0  0  0  0  0  0  0  0  0  0
  145.1180   72.8150  218.3070 C   0  0  0  0  0  0  0  0  0  0  0  0
  145.9620   72.5060  219.3220 N   0  0  0  0  0  0  0  0  0  0  0  0
  145.9180   73.1510  220.5190 C   0  0  0  0  0  0  0  0  0  0  0  0
  144.9900   74.1510  220.7130 C   0  0  0  0  0  0  0  0  0  0  0  0
  138.9485   71.9973  221.1641 H   0  0  0  0  0  0  0  0  0  0  0  0
  140.6247   71.6289  220.5085 H   0  0  0  0  0  0  0  0  0  0  0  0
  140.0618   70.1132  222.2757 H   0  0  0  0  0  0  0  0  0  0  0  0
  141.4059   71.2665  222.7510 H   0  0  0  0  0  0  0  0  0  0  0  0
  139.1743   72.5258  223.6404 H   0  0  0  0  0  0  0  0  0  0  0  0
  138.8314   70.7592  223.9458 H   0  0  0  0  0  0  0  0  0  0  0  0
  140.2976   68.9970  224.7141 H   0  0  0  0  0  0  0  0  0  0  0  0
  140.5662   67.3665  226.5175 H   0  0  0  0  0  0  0  0  0  0  0  0
  141.1593   70.5418  229.3243 H   0  0  0  0  0  0  0  0  0  0  0  0
  140.8860   72.1828  227.4987 H   0  0  0  0  0  0  0  0  0  0  0  0
  141.9000   73.2390  219.9590 H   0  0  0  0  0  0  0  0  0  0  0  0
  141.1276   75.9589  220.4416 H   0  0  0  0  0  0  0  0  0  0  0  0
  142.3001   75.4582  221.7518 H   0  0  0  0  0  0  0  0  0  0  0  0
  142.6883   75.7455  218.8295 H   0  0  0  0  0  0  0  0  0  0  0  0
  143.6132   76.4087  220.2952 H   0  0  0  0  0  0  0  0  0  0  0  0
  143.5006   74.0826  217.6981 H   0  0  0  0  0  0  0  0  0  0  0  0
  145.1693   72.2809  217.3468 H   0  0  0  0  0  0  0  0  0  0  0  0
  146.6161   72.8771  221.3238 H   0  0  0  0  0  0  0  0  0  0  0  0
  144.9525   74.6747  221.6796 H   0  0  0  0  0  0  0  0  0  0  0  0
  1  2  2  0
  2  3  1  0
  3  4  1  0
  4  5  1  0
  5  6  1  0
  6  7  1  0
  7  8  2  0
  8  9  1  0
  9 10  2  0
 10 11  1  0
 10 12  1  0
 12 13  2  0
  2 14  1  0
 14 15  1  0
 15 16  1  0
 16 17  1  0
 17 18  2  0
 18 19  1  0
 19 20  2  0
 20 21  1  0
 21 22  2  0
 13  7  1  0
 22 17  1  0
  3 23  1  0
  3 24  1  0
  4 25  1  0
  4 26  1  0
  5 27  1  0
  5 28  1  0
  8 29  1  0
  9 30  1  0
 12 31  1  0
 13 32  1  0
 14 33  1  0
 15 34  1  0
 15 35  1  0
 16 36  1  0
 16 37  1  0
 18 38  1  0
 19 39  1  0
 21 40  1  0
 22 41  1  0
M  END
>  <smiles>  (10) 
O=C(CCCOc1ccc(F)cc1)NCCc1ccncc1

>  <score_type>  (10) 
oracle

>  <origin>  (10) 
autodockgpu

>  <m_score__min__energy>  (10) 
-6.6900000000000004

>  <m_primary>  (10) 
energy

>  <meeko>  (10) 
{"free_energy": -6.32, "intermolecular_energy": -8.71, "internal_energy": -0.67, "cluster_size": 2, "cluster_id": 2, "rank_in_cluster": 1}

>  <energy>  (10) 
-6.27

>  <cluster_rmsd>  (10) 
0.0

>  <rmsd>  (10) 
272.9

>  <cluster>  (10) 
3

$$$$

     RDKit          3D

 41 42  0  0  0  0  0  0  0  0999 V2000
  141.1450   73.2500  221.8980 O   0  0  0  0  0  0  0  0  0  0  0  0
  139.9220   73.5240  221.9760 C   0  0  0  0  0  0  0  0  0  0  0  0
  139.3040   74.6960  221.3590 C   0  0  0  0  0  0  0  0  0  0  0  0
  138.5970   75.6200  222.3210 C   0  0  0  0  0  0  0  0  0  0  0  0
  138.8770   77.0670  222.1010 C   0  0  0  0  0  0  0  0  0  0  0  0
  140.0890   77.4660  222.6000 O   0  0  0  0  0  0  0  0  0  0  0  0
  140.6160   78.6370  223.0160 C   0  0  0  0  0  0  0  0  0  0  0  0
  142.0210   78.7090  223.0690 C   0  0  0  0  0  0  0  0  0  0  0  0
  142.6780   79.8430  223.4730 C   0  0  0  0  0  0  0  0  0  0  0  0
  141.9840   80.9710  223.8480 C   0  0  0  0  0  0  0  0  0  0  0  0
  142.5650   82.1170  224.2540 F   0  0  0  0  0  0  0  0  0  0  0  0
  140.6090   80.9350  223.8070 C   0  0  0  0  0  0  0  0  0  0  0  0
  139.9550   79.7740  223.3930 C   0  0  0  0  0  0  0  0  0  0  0  0
  139.0770   72.6340  222.7150 N   0  0  0  0  0  0  0  0  0  0  0  0
  139.5780   71.4430  223.3710 C   0  0  0  0  0  0  0  0  0  0  0  0
  140.6800   71.7050  224.3030 C   0  0  0  0  0  0  0  0  0  0  0  0
  140.5540   71.1550  225.6600 C   0  0  0  0  0  0  0  0  0  0  0  0
  141.0750   71.8990  226.7110 C   0  0  0  0  0  0  0  0  0  0  0  0
  141.0020   71.4630  228.0200 C   0  0  0  0  0  0  0  0  0  0  0  0
  140.4010   70.2720  228.2650 N   0  0  0  0  0  0  0  0  0  0  0  0
  139.8760   69.5100  227.2680 C   0  0  0  0  0  0  0  0  0  0  0  0
  139.9530   69.9540  225.9660 C   0  0  0  0  0  0  0  0  0  0  0  0
  140.0922   75.2702  220.8499 H   0  0  0  0  0  0  0  0  0  0  0  0
  138.5330   74.3143  220.6735 H   0  0  0  0  0  0  0  0  0  0  0  0
  137.5135   75.4596  222.2191 H   0  0  0  0  0  0  0  0  0  0  0  0
  138.9733   75.3760  223.3254 H   0  0  0  0  0  0  0  0  0  0  0  0
  138.8625   77.2650  221.0191 H   0  0  0  0  0  0  0  0  0  0  0  0
  138.1013   77.6342  222.6363 H   0  0  0  0  0  0  0  0  0  0  0  0
  142.6107   77.8275  222.7770 H   0  0  0  0  0  0  0  0  0  0  0  0
  143.7777   79.8513  223.4978 H   0  0  0  0  0  0  0  0  0  0  0  0
  140.0260   81.8205  224.1003 H   0  0  0  0  0  0  0  0  0  0  0  0
  138.8553   79.7729  223.3686 H   0  0  0  0  0  0  0  0  0  0  0  0
  138.0430   72.8800  222.7690 H   0  0  0  0  0  0  0  0  0  0  0  0
  138.7516   70.9807  223.9308 H   0  0  0  0  0  0  0  0  0  0  0  0
  139.9714   70.7827  222.5840 H   0  0  0  0  0  0  0  0  0  0  0  0
  141.5956   71.2867  223.8595 H   0  0  0  0  0  0  0  0  0  0  0  0
  140.6854   72.7967  224.4377 H   0  0  0  0  0  0  0  0  0  0  0  0
  141.5594   72.8627  226.4950 H   0  0  0  0  0  0  0  0  0  0  0  0
  141.4196   72.0649  228.8405 H   0  0  0  0  0  0  0  0  0  0  0  0
  139.3945   68.5484  227.4991 H   0  0  0  0  0  0  0  0  0  0  0  0
  139.5280   69.3399  225.1584 H   0  0  0  0  0  0  0  0  0  0  0  0
  1  2  2  0
  2  3  1  0
  3  4  1  0
  4  5  1  0
  5  6  1  0
  6  7  1  0
  7  8  2  0
  8  9  1  0
  9 10  2  0
 10 11  1  0
 10 12  1  0
 12 13  2  0
  2 14  1  0
 14 15  1  0
 15 16  1  0
 16 17  1  0
 17 18  2  0
 18 19  1  0
 19 20  2  0
 20 21  1  0
 21 22  2  0
 13  7  1  0
 22 17  1  0
  3 23  1  0
  3 24  1  0
  4 25  1  0
  4 26  1  0
  5 27  1  0
  5 28  1  0
  8 29  1  0
  9 30  1  0
 12 31  1  0
 13 32  1  0
 14 33  1  0
 15 34  1  0
 15 35  1  0
 16 36  1  0
 16 37  1  0
 18 38  1  0
 19 39  1  0
 21 40  1  0
 22 41  1  0
M  END
>  <smiles>  (11) 
O=C(CCCOc1ccc(F)cc1)NCCc1ccncc1

>  <score_type>  (11) 
oracle

>  <origin>  (11) 
autodockgpu

>  <m_score__min__energy>  (11) 
-6.6900000000000004

>  <m_primary>  (11) 
energy

>  <meeko>  (11) 
{"free_energy": -6.26, "intermolecular_energy": -8.65, "internal_energy": -0.51, "cluster_size": 2, "cluster_id": 3, "rank_in_cluster": 2}

>  <energy>  (11) 
-6.26

>  <cluster_rmsd>  (11) 
0.64

>  <rmsd>  (11) 
272.88

>  <cluster>  (11) 
3

$$$$

     RDKit          3D

 41 42  0  0  0  0  0  0  0  0999 V2000
  139.9920   73.4260  222.3580 O   0  0  0  0  0  0  0  0  0  0  0  0
  139.4950   74.4450  221.8150 C   0  0  0  0  0  0  0  0  0  0  0  0
  138.0620   74.7310  221.7670 C   0  0  0  0  0  0  0  0  0  0  0  0
  137.7110   76.1450  221.3710 C   0  0  0  0  0  0  0  0  0  0  0  0
  138.0500   77.1720  222.3950 C   0  0  0  0  0  0  0  0  0  0  0  0
  139.3750   77.5190  222.3960 O   0  0  0  0  0  0  0  0  0  0  0  0
  140.0880   78.5790  222.8300 C   0  0  0  0  0  0  0  0  0  0  0  0
  141.4640   78.3660  223.0440 C   0  0  0  0  0  0  0  0  0  0  0  0
  142.2970   79.3640  223.4830 C   0  0  0  0  0  0  0  0  0  0  0  0
  141.8180   80.6290  223.7360 C   0  0  0  0  0  0  0  0  0  0  0  0
  142.5790   81.6540  224.1680 F   0  0  0  0  0  0  0  0  0  0  0  0
  140.4790   80.8720  223.5370 C   0  0  0  0  0  0  0  0  0  0  0  0
  139.6430   79.8480  223.0900 C   0  0  0  0  0  0  0  0  0  0  0  0
  140.3850   75.3860  221.2050 N   0  0  0  0  0  0  0  0  0  0  0  0
  141.8230   75.2070  221.1890 C   0  0  0  0  0  0  0  0  0  0  0  0
  142.3860   75.0860  219.8390 C   0  0  0  0  0  0  0  0  0  0  0  0
  143.6570   74.3610  219.7070 C   0  0  0  0  0  0  0  0  0  0  0  0
  144.0040   73.8880  218.4480 C   0  0  0  0  0  0  0  0  0  0  0  0
  145.1790   73.1970  218.2270 C   0  0  0  0  0  0  0  0  0  0  0  0
  146.0050   72.9840  219.2810 N   0  0  0  0  0  0  0  0  0  0  0  0
  145.7070   73.4290  220.5320 C   0  0  0  0  0  0  0  0  0  0  0  0
  144.5320   74.1180  220.7420 C   0  0  0  0  0  0  0  0  0  0  0  0
  137.6009   74.0474  221.0389 H   0  0  0  0  0  0  0  0  0  0  0  0
  137.6846   74.5937  222.7911 H   0  0  0  0  0  0  0  0  0  0  0  0
  138.2546   76.3885  220.4462 H   0  0  0  0  0  0  0  0  0  0  0  0
  136.6185   76.1744  221.2461 H   0  0  0  0  0  0  0  0  0  0  0  0
  137.4529   78.0741  222.1958 H   0  0  0  0  0  0  0  0  0  0  0  0
  137.8265   76.7363  223.3800 H   0  0  0  0  0  0  0  0  0  0  0  0
  141.8841   77.3675  222.8530 H   0  0  0  0  0  0  0  0  0  0  0  0
  143.3651   79.1494  223.6352 H   0  0  0  0  0  0  0  0  0  0  0  0
  140.0671   81.8735  223.7302 H   0  0  0  0  0  0  0  0  0  0  0  0
  138.5763   80.0705  222.9393 H   0  0  0  0  0  0  0  0  0  0  0  0
  139.9480   76.2430  220.7510 H   0  0  0  0  0  0  0  0  0  0  0  0
  142.2867   76.0739  221.6825 H   0  0  0  0  0  0  0  0  0  0  0  0
  142.0360   74.2634  221.7126 H   0  0  0  0  0  0  0  0  0  0  0  0
  141.6427   74.5682  219.2151 H   0  0  0  0  0  0  0  0  0  0  0  0
  142.6132   76.1175  219.5317 H   0  0  0  0  0  0  0  0  0  0  0  0
  143.3235   74.0690  217.6029 H   0  0  0  0  0  0  0  0  0  0  0  0
  145.4379   72.8293  217.2231 H   0  0  0  0  0  0  0  0  0  0  0  0
  146.3972   73.2406  221.3675 H   0  0  0  0  0  0  0  0  0  0  0  0
  144.2894   74.4794  221.7522 H   0  0  0  0  0  0  0  0  0  0  0  0
  1  2  2  0
  2  3  1  0
  3  4  1  0
  4  5  1  0
  5  6  1  0
  6  7  1  0
  7  8  2  0
  8  9  1  0
  9 10  2  0
 10 11  1  0
 10 12  1  0
 12 13  2  0
  2 14  1  0
 14 15  1  0
 15 16  1  0
 16 17  1  0
 17 18  2  0
 18 19  1  0
 19 20  2  0
 20 21  1  0
 21 22  2  0
 13  7  1  0
 22 17  1  0
  3 23  1  0
  3 24  1  0
  4 25  1  0
  4 26  1  0
  5 27  1  0
  5 28  1  0
  8 29  1  0
  9 30  1  0
 12 31  1  0
 13 32  1  0
 14 33  1  0
 15 34  1  0
 15 35  1  0
 16 36  1  0
 16 37  1  0
 18 38  1  0
 19 39  1  0
 21 40  1  0
 22 41  1  0
M  END
>  <smiles>  (12) 
O=C(CCCOc1ccc(F)cc1)NCCc1ccncc1

>  <score_type>  (12) 
oracle

>  <origin>  (12) 
autodockgpu

>  <m_score__min__energy>  (12) 
-6.6900000000000004

>  <m_primary>  (12) 
energy

>  <meeko>  (12) 
{"free_energy": -5.31, "intermolecular_energy": -7.7, "internal_energy": -1.39, "cluster_size": 3, "cluster_id": 4, "rank_in_cluster": 2}

>  <energy>  (12) 
-5.34

>  <cluster_rmsd>  (12) 
0.0

>  <rmsd>  (12) 
271.86

>  <cluster>  (12) 
4

$$$$

     RDKit          3D

 41 42  0  0  0  0  0  0  0  0999 V2000
  140.4300   74.0290  222.2990 O   0  0  0  0  0  0  0  0  0  0  0  0
  139.8910   75.0070  221.7240 C   0  0  0  0  0  0  0  0  0  0  0  0
  138.4900   75.3900  221.8990 C   0  0  0  0  0  0  0  0  0  0  0  0
  138.2730   76.6640  222.6790 C   0  0  0  0  0  0  0  0  0  0  0  0
  138.2990   77.9030  221.8520 C   0  0  0  0  0  0  0  0  0  0  0  0
  139.5530   78.2380  221.4150 O   0  0  0  0  0  0  0  0  0  0  0  0
  140.6010   78.9110  221.9350 C   0  0  0  0  0  0  0  0  0  0  0  0
  140.9230   78.6320  223.2770 C   0  0  0  0  0  0  0  0  0  0  0  0
  141.9670   79.2480  223.9190 C   0  0  0  0  0  0  0  0  0  0  0  0
  142.7510   80.1760  223.2730 C   0  0  0  0  0  0  0  0  0  0  0  0
  143.7900   80.8180  223.8430 F   0  0  0  0  0  0  0  0  0  0  0  0
  142.4640   80.4720  221.9600 C   0  0  0  0  0  0  0  0  0  0  0  0
  141.4000   79.8370  221.3190 C   0  0  0  0  0  0  0  0  0  0  0  0
  140.6940   75.7990  220.8420 N   0  0  0  0  0  0  0  0  0  0  0  0
  142.0930   75.5130  220.5890 C   0  0  0  0  0  0  0  0  0  0  0  0
  142.3290   74.1760  220.0350 C   0  0  0  0  0  0  0  0  0  0  0  0
  143.7280   73.7670  219.8480 C   0  0  0  0  0  0  0  0  0  0  0  0
  144.1140   73.3400  218.5840 C   0  0  0  0  0  0  0  0  0  0  0  0
  145.4070   72.9370  218.3130 C   0  0  0  0  0  0  0  0  0  0  0  0
  146.3110   72.9660  219.3240 N   0  0  0  0  0  0  0  0  0  0  0  0
  145.9790   73.3770  220.5780 C   0  0  0  0  0  0  0  0  0  0  0  0
  144.6870   73.7780  220.8370 C   0  0  0  0  0  0  0  0  0  0  0  0
  138.0439   75.5194  220.9019 H   0  0  0  0  0  0  0  0  0  0  0  0
  138.0207   74.5856  222.4844 H   0  0  0  0  0  0  0  0  0  0  0  0
  137.2930   76.6015  223.1746 H   0  0  0  0  0  0  0  0  0  0  0  0
  139.1084   76.7433  223.3902 H   0  0  0  0  0  0  0  0  0  0  0  0
  137.6530   77.7506  220.9748 H   0  0  0  0  0  0  0  0  0  0  0  0
  137.9460   78.7269  222.4896 H   0  0  0  0  0  0  0  0  0  0  0  0
  140.3182   77.8968  223.8280 H   0  0  0  0  0  0  0  0  0  0  0  0
  142.1810   78.9958  224.9681 H   0  0  0  0  0  0  0  0  0  0  0  0
  143.0733   81.2089  221.4162 H   0  0  0  0  0  0  0  0  0  0  0  0
  141.1931   80.0922  220.2692 H   0  0  0  0  0  0  0  0  0  0  0  0
  140.2220   76.6240  220.3640 H   0  0  0  0  0  0  0  0  0  0  0  0
  142.4765   76.2574  219.8757 H   0  0  0  0  0  0  0  0  0  0  0  0
  142.6110   75.5560  221.5584 H   0  0  0  0  0  0  0  0  0  0  0  0
  141.8587   73.4485  220.7129 H   0  0  0  0  0  0  0  0  0  0  0  0
  141.9038   74.2086  219.0210 H   0  0  0  0  0  0  0  0  0  0  0  0
  143.3684   73.3223  217.7754 H   0  0  0  0  0  0  0  0  0  0  0  0
  145.6956   72.6020  217.3058 H   0  0  0  0  0  0  0  0  0  0  0  0
  146.7350   73.3889  221.3770 H   0  0  0  0  0  0  0  0  0  0  0  0
  144.4166   74.1123  221.8495 H   0  0  0  0  0  0  0  0  0  0  0  0
  1  2  2  0
  2  3  1  0
  3  4  1  0
  4  5  1  0
  5  6  1  0
  6  7  1  0
  7  8  2  0
  8  9  1  0
  9 10  2  0
 10 11  1  0
 10 12  1  0
 12 13  2  0
  2 14  1  0
 14 15  1  0
 15 16  1  0
 16 17  1  0
 17 18  2  0
 18 19  1  0
 19 20  2  0
 20 21  1  0
 21 22  2  0
 13  7  1  0
 22 17  1  0
  3 23  1  0
  3 24  1  0
  4 25  1  0
  4 26  1  0
  5 27  1  0
  5 28  1  0
  8 29  1  0
  9 30  1  0
 12 31  1  0
 13 32  1  0
 14 33  1  0
 15 34  1  0
 15 35  1  0
 16 36  1  0
 16 37  1  0
 18 38  1  0
 19 39  1  0
 21 40  1  0
 22 41  1  0
M  END
>  <smiles>  (13) 
O=C(CCCOc1ccc(F)cc1)NCCc1ccncc1

>  <score_type>  (13) 
oracle

>  <origin>  (13) 
autodockgpu

>  <m_score__min__energy>  (13) 
-6.6900000000000004

>  <m_primary>  (13) 
energy

>  <meeko>  (13) 
{"free_energy": -5.34, "intermolecular_energy": -7.73, "internal_energy": -1.55, "cluster_size": 3, "cluster_id": 4, "rank_in_cluster": 1}

>  <energy>  (13) 
-5.31

>  <cluster_rmsd>  (13) 
0.97

>  <rmsd>  (13) 
271.82

>  <cluster>  (13) 
4

$$$$

     RDKit          3D

 41 42  0  0  0  0  0  0  0  0999 V2000
  140.9490   74.5670  221.1530 O   0  0  0  0  0  0  0  0  0  0  0  0
  139.9560   74.3140  221.8810 C   0  0  0  0  0  0  0  0  0  0  0  0
  139.4690   72.9630  222.1600 C   0  0  0  0  0  0  0  0  0  0  0  0
  140.3880   72.1220  223.0130 C   0  0  0  0  0  0  0  0  0  0  0  0
  139.7150   70.9870  223.7040 C   0  0  0  0  0  0  0  0  0  0  0  0
  139.6890   71.1200  225.0680 O   0  0  0  0  0  0  0  0  0  0  0  0
  140.1190   70.3810  226.1110 C   0  0  0  0  0  0  0  0  0  0  0  0
  139.9980   68.9840  225.9830 C   0  0  0  0  0  0  0  0  0  0  0  0
  140.4010   68.1230  226.9720 C   0  0  0  0  0  0  0  0  0  0  0  0
  140.9460   68.5930  228.1450 C   0  0  0  0  0  0  0  0  0  0  0  0
  141.3620   67.8060  229.1570 F   0  0  0  0  0  0  0  0  0  0  0  0
  141.0800   69.9540  228.3030 C   0  0  0  0  0  0  0  0  0  0  0  0
  140.6660   70.8170  227.2880 C   0  0  0  0  0  0  0  0  0  0  0  0
  139.2550   75.4120  222.4740 N   0  0  0  0  0  0  0  0  0  0  0  0
  139.6450   76.7930  222.2660 C   0  0  0  0  0  0  0  0  0  0  0  0
  141.0210   77.0840  222.6810 C   0  0  0  0  0  0  0  0  0  0  0  0
  141.4510   78.4890  222.6360 C   0  0  0  0  0  0  0  0  0  0  0  0
  141.8310   79.0880  223.8290 C   0  0  0  0  0  0  0  0  0  0  0  0
  142.2500   80.4030  223.8850 C   0  0  0  0  0  0  0  0  0  0  0  0
  142.2840   81.1130  222.7300 N   0  0  0  0  0  0  0  0  0  0  0  0
  141.9210   80.5680  221.5370 C   0  0  0  0  0  0  0  0  0  0  0  0
  141.5050   79.2550  221.4930 C   0  0  0  0  0  0  0  0  0  0  0  0
  138.5029   73.0480  222.6791 H   0  0  0  0  0  0  0  0  0  0  0  0
  139.3963   72.4533  221.1879 H   0  0  0  0  0  0  0  0  0  0  0  0
  141.1784   71.7122  222.3671 H   0  0  0  0  0  0  0  0  0  0  0  0
  140.7793   72.7828  223.8005 H   0  0  0  0  0  0  0  0  0  0  0  0
  138.6790   70.9217  223.3400 H   0  0  0  0  0  0  0  0  0  0  0  0
  140.2928   70.0790  223.4766 H   0  0  0  0  0  0  0  0  0  0  0  0
  139.5663   68.5696  225.0600 H   0  0  0  0  0  0  0  0  0  0  0  0
  140.2866   67.0389  226.8250 H   0  0  0  0  0  0  0  0  0  0  0  0
  141.5131   70.3607  229.2287 H   0  0  0  0  0  0  0  0  0  0  0  0
  140.7848   71.8999  227.4407 H   0  0  0  0  0  0  0  0  0  0  0  0
  138.4180   75.1790  223.0880 H   0  0  0  0  0  0  0  0  0  0  0  0
  139.5488   77.0238  221.1948 H   0  0  0  0  0  0  0  0  0  0  0  0
  138.9828   77.4122  222.8889 H   0  0  0  0  0  0  0  0  0  0  0  0
  141.1350   76.7356  223.7181 H   0  0  0  0  0  0  0  0  0  0  0  0
  141.6553   76.5685  221.9448 H   0  0  0  0  0  0  0  0  0  0  0  0
  141.7975   78.4983  224.7570 H   0  0  0  0  0  0  0  0  0  0  0  0
  142.5477   80.8615  224.8396 H   0  0  0  0  0  0  0  0  0  0  0  0
  141.9593   81.1696  220.6169 H   0  0  0  0  0  0  0  0  0  0  0  0
  141.2115   78.8120  220.5299 H   0  0  0  0  0  0  0  0  0  0  0  0
  1  2  2  0
  2  3  1  0
  3  4  1  0
  4  5  1  0
  5  6  1  0
  6  7  1  0
  7  8  2  0
  8  9  1  0
  9 10  2  0
 10 11  1  0
 10 12  1  0
 12 13  2  0
  2 14  1  0
 14 15  1  0
 15 16  1  0
 16 17  1  0
 17 18  2  0
 18 19  1  0
 19 20  2  0
 20 21  1  0
 21 22  2  0
 13  7  1  0
 22 17  1  0
  3 23  1  0
  3 24  1  0
  4 25  1  0
  4 26  1  0
  5 27  1  0
  5 28  1  0
  8 29  1  0
  9 30  1  0
 12 31  1  0
 13 32  1  0
 14 33  1  0
 15 34  1  0
 15 35  1  0
 16 36  1  0
 16 37  1  0
 18 38  1  0
 19 39  1  0
 21 40  1  0
 22 41  1  0
M  END
>  <smiles>  (14) 
O=C(CCCOc1ccc(F)cc1)NCCc1ccncc1

>  <score_type>  (14) 
oracle

>  <origin>  (14) 
autodockgpu

>  <m_score__min__energy>  (14) 
-6.6900000000000004

>  <m_primary>  (14) 
energy

>  <meeko>  (14) 
{"free_energy": -6.35, "intermolecular_energy": -8.73, "internal_energy": -0.46, "cluster_size": 7, "cluster_id": 1, "rank_in_cluster": 4}

>  <energy>  (14) 
-5.14

>  <cluster_rmsd>  (14) 
0.37

>  <rmsd>  (14) 
271.82

>  <cluster>  (14) 
4

$$$$

     RDKit          3D

 41 42  0  0  0  0  0  0  0  0999 V2000
  140.1050   74.0890  221.9830 O   0  0  0  0  0  0  0  0  0  0  0  0
  141.0870   74.6380  221.4250 C   0  0  0  0  0  0  0  0  0  0  0  0
  141.9560   73.9730  220.4560 C   0  0  0  0  0  0  0  0  0  0  0  0
  143.3940   74.4330  220.4720 C   0  0  0  0  0  0  0  0  0  0  0  0
  143.7060   75.5090  219.4910 C   0  0  0  0  0  0  0  0  0  0  0  0
  142.6180   76.2740  219.1610 O   0  0  0  0  0  0  0  0  0  0  0  0
  142.4320   77.5350  218.7190 C   0  0  0  0  0  0  0  0  0  0  0  0
  142.1370   78.5050  219.6960 C   0  0  0  0  0  0  0  0  0  0  0  0
  141.9280   79.8230  219.3760 C   0  0  0  0  0  0  0  0  0  0  0  0
  141.9980   80.2570  218.0720 C   0  0  0  0  0  0  0  0  0  0  0  0
  141.8040   81.5340  217.6870 F   0  0  0  0  0  0  0  0  0  0  0  0
  142.2850   79.3350  217.0910 C   0  0  0  0  0  0  0  0  0  0  0  0
  142.4960   77.9980  217.4320 C   0  0  0  0  0  0  0  0  0  0  0  0
  141.3770   76.0010  221.7570 N   0  0  0  0  0  0  0  0  0  0  0  0
  140.5870   76.7600  222.7050 C   0  0  0  0  0  0  0  0  0  0  0  0
  140.1750   78.0770  222.2060 C   0  0  0  0  0  0  0  0  0  0  0  0
  140.9340   79.2410  222.6830 C   0  0  0  0  0  0  0  0  0  0  0  0
  140.4540   80.5030  222.3590 C   0  0  0  0  0  0  0  0  0  0  0  0
  141.1000   81.6550  222.7630 C   0  0  0  0  0  0  0  0  0  0  0  0
  142.2340   81.5290  223.4960 N   0  0  0  0  0  0  0  0  0  0  0  0
  142.7420   80.3140  223.8380 C   0  0  0  0  0  0  0  0  0  0  0  0
  142.0890   79.1710  223.4300 C   0  0  0  0  0  0  0  0  0  0  0  0
  141.9400   72.8935  220.6669 H   0  0  0  0  0  0  0  0  0  0  0  0
  141.5613   74.2278  219.4614 H   0  0  0  0  0  0  0  0  0  0  0  0
  143.6239   74.8090  221.4799 H   0  0  0  0  0  0  0  0  0  0  0  0
  144.0053   73.5632  220.1894 H   0  0  0  0  0  0  0  0  0  0  0  0
  144.4752   76.1648  219.9250 H   0  0  0  0  0  0  0  0  0  0  0  0
  144.0513   75.0188  218.5688 H   0  0  0  0  0  0  0  0  0  0  0  0
  142.0719   78.1964  220.7498 H   0  0  0  0  0  0  0  0  0  0  0  0
  141.7008   80.5443  220.1749 H   0  0  0  0  0  0  0  0  0  0  0  0
  142.3480   79.6515  216.0394 H   0  0  0  0  0  0  0  0  0  0  0  0
  142.7246   77.2823  216.6286 H   0  0  0  0  0  0  0  0  0  0  0  0
  142.2110   76.4510  221.2740 H   0  0  0  0  0  0  0  0  0  0  0  0
  139.6832   76.1814  222.9463 H   0  0  0  0  0  0  0  0  0  0  0  0
  141.2210   76.9335  223.5870 H   0  0  0  0  0  0  0  0  0  0  0  0
  140.2555   78.0558  221.1091 H   0  0  0  0  0  0  0  0  0  0  0  0
  139.1564   78.2227  222.5949 H   0  0  0  0  0  0  0  0  0  0  0  0
  139.5330   80.5877  221.7636 H   0  0  0  0  0  0  0  0  0  0  0  0
  140.7057   82.6470  222.4976 H   0  0  0  0  0  0  0  0  0  0  0  0
  143.6641   80.2448  224.4338 H   0  0  0  0  0  0  0  0  0  0  0  0
  142.4967   78.1872  223.7053 H   0  0  0  0  0  0  0  0  0  0  0  0
  1  2  2  0
  2  3  1  0
  3  4  1  0
  4  5  1  0
  5  6  1  0
  6  7  1  0
  7  8  2  0
  8  9  1  0
  9 10  2  0
 10 11  1  0
 10 12  1  0
 12 13  2  0
  2 14  1  0
 14 15  1  0
 15 16  1  0
 16 17  1  0
 17 18  2  0
 18 19  1  0
 19 20  2  0
 20 21  1  0
 21 22  2  0
 13  7  1  0
 22 17  1  0
  3 23  1  0
  3 24  1  0
  4 25  1  0
  4 26  1  0
  5 27  1  0
  5 28  1  0
  8 29  1  0
  9 30  1  0
 12 31  1  0
 13 32  1  0
 14 33  1  0
 15 34  1  0
 15 35  1  0
 16 36  1  0
 16 37  1  0
 18 38  1  0
 19 39  1  0
 21 40  1  0
 22 41  1  0
M  END
>  <smiles>  (15) 
O=C(CCCOc1ccc(F)cc1)NCCc1ccncc1

>  <score_type>  (15) 
oracle

>  <origin>  (15) 
autodockgpu

>  <m_score__min__energy>  (15) 
-6.6900000000000004

>  <m_primary>  (15) 
energy

>  <meeko>  (15) 
{"free_energy": -4.96, "intermolecular_energy": -7.34, "internal_energy": -1.9, "cluster_size": 3, "cluster_id": 6, "rank_in_cluster": 1}

>  <energy>  (15) 
-5.19

>  <cluster_rmsd>  (15) 
0.0

>  <rmsd>  (15) 
271.44

>  <cluster>  (15) 
5

$$$$

     RDKit          3D

 41 42  0  0  0  0  0  0  0  0999 V2000
  140.2520   73.9790  222.0320 O   0  0  0  0  0  0  0  0  0  0  0  0
  141.2070   74.5540  221.4530 C   0  0  0  0  0  0  0  0  0  0  0  0
  142.1500   73.8800  220.5630 C   0  0  0  0  0  0  0  0  0  0  0  0
  143.5150   74.5210  220.4830 C   0  0  0  0  0  0  0  0  0  0  0  0
  143.6640   75.5130  219.3820 C   0  0  0  0  0  0  0  0  0  0  0  0
  143.0260   76.7000  219.6310 O   0  0  0  0  0  0  0  0  0  0  0  0
  142.6260   77.7490  218.8820 C   0  0  0  0  0  0  0  0  0  0  0  0
  142.6950   77.5850  217.4850 C   0  0  0  0  0  0  0  0  0  0  0  0
  142.3170   78.5760  216.6150 C   0  0  0  0  0  0  0  0  0  0  0  0
  141.8480   79.7850  217.0760 C   0  0  0  0  0  0  0  0  0  0  0  0
  141.4600   80.8000  216.2790 F   0  0  0  0  0  0  0  0  0  0  0  0
  141.7670   79.9790  218.4360 C   0  0  0  0  0  0  0  0  0  0  0  0
  142.1560   78.9610  219.3090 C   0  0  0  0  0  0  0  0  0  0  0  0
  141.3860   75.9570  221.6770 N   0  0  0  0  0  0  0  0  0  0  0  0
  140.5150   76.7290  222.5410 C   0  0  0  0  0  0  0  0  0  0  0  0
  140.3060   78.1080  222.0850 C   0  0  0  0  0  0  0  0  0  0  0  0
  141.1870   79.1400  222.6480 C   0  0  0  0  0  0  0  0  0  0  0  0
  140.5920   80.2330  223.2630 C   0  0  0  0  0  0  0  0  0  0  0  0
  141.3380   81.2530  223.8220 C   0  0  0  0  0  0  0  0  0  0  0  0
  142.6900   81.1650  223.7570 N   0  0  0  0  0  0  0  0  0  0  0  0
  143.3170   80.1120  223.1650 C   0  0  0  0  0  0  0  0  0  0  0  0
  142.5630   79.1010  222.6110 C   0  0  0  0  0  0  0  0  0  0  0  0
  142.2775   72.8470  220.9188 H   0  0  0  0  0  0  0  0  0  0  0  0
  141.7197   73.9414  219.5525 H   0  0  0  0  0  0  0  0  0  0  0  0
  143.7113   75.0330  221.4366 H   0  0  0  0  0  0  0  0  0  0  0  0
  144.2308   73.7118  220.2762 H   0  0  0  0  0  0  0  0  0  0  0  0
  144.7354   75.7162  219.2379 H   0  0  0  0  0  0  0  0  0  0  0  0
  143.2003   75.0761  218.4853 H   0  0  0  0  0  0  0  0  0  0  0  0
  143.0638   76.6318  217.0784 H   0  0  0  0  0  0  0  0  0  0  0  0
  142.3899   78.4015  215.5314 H   0  0  0  0  0  0  0  0  0  0  0  0
  141.3963   80.9348  218.8348 H   0  0  0  0  0  0  0  0  0  0  0  0
  142.0810   79.1420  220.3914 H   0  0  0  0  0  0  0  0  0  0  0  0
  142.1990   76.4290  221.1780 H   0  0  0  0  0  0  0  0  0  0  0  0
  139.5376   76.2265  222.5879 H   0  0  0  0  0  0  0  0  0  0  0  0
  141.0044   76.7855  223.5245 H   0  0  0  0  0  0  0  0  0  0  0  0
  140.4379   78.1195  220.9930 H   0  0  0  0  0  0  0  0  0  0  0  0
  139.2974   78.3734  222.4346 H   0  0  0  0  0  0  0  0  0  0  0  0
  139.4943   80.2888  223.3066 H   0  0  0  0  0  0  0  0  0  0  0  0
  140.8495   82.1117  224.3058 H   0  0  0  0  0  0  0  0  0  0  0  0
  144.4156   80.0687  223.1293 H   0  0  0  0  0  0  0  0  0  0  0  0
  143.0679   78.2493  222.1316 H   0  0  0  0  0  0  0  0  0  0  0  0
  1  2  2  0
  2  3  1  0
  3  4  1  0
  4  5  1  0
  5  6  1  0
  6  7  1  0
  7  8  2  0
  8  9  1  0
  9 10  2  0
 10 11  1  0
 10 12  1  0
 12 13  2  0
  2 14  1  0
 14 15  1  0
 15 16  1  0
 16 17  1  0
 17 18  2  0
 18 19  1  0
 19 20  2  0
 20 21  1  0
 21 22  2  0
 13  7  1  0
 22 17  1  0
  3 23  1  0
  3 24  1  0
  4 25  1  0
  4 26  1  0
  5 27  1  0
  5 28  1  0
  8 29  1  0
  9 30  1  0
 12 31  1  0
 13 32  1  0
 14 33  1  0
 15 34  1  0
 15 35  1  0
 16 36  1  0
 16 37  1  0
 18 38  1  0
 19 39  1  0
 21 40  1  0
 22 41  1  0
M  END
>  <smiles>  (16) 
O=C(CCCOc1ccc(F)cc1)NCCc1ccncc1

>  <score_type>  (16) 
oracle

>  <origin>  (16) 
autodockgpu

>  <m_score__min__energy>  (16) 
-6.6900000000000004

>  <m_primary>  (16) 
energy

>  <meeko>  (16) 
{"free_energy": -4.87, "intermolecular_energy": -7.26, "internal_energy": -1.94, "cluster_size": 3, "cluster_id": 6, "rank_in_cluster": 2}

>  <energy>  (16) 
-5.11

>  <cluster_rmsd>  (16) 
0.6

>  <rmsd>  (16) 
271.41

>  <cluster>  (16) 
5

$$$$

     RDKit          3D

 41 42  0  0  0  0  0  0  0  0999 V2000
  140.6400   74.0690  222.1240 O   0  0  0  0  0  0  0  0  0  0  0  0
  140.0550   75.0990  221.7060 C   0  0  0  0  0  0  0  0  0  0  0  0
  138.6710   75.4420  222.0280 C   0  0  0  0  0  0  0  0  0  0  0  0
  138.0910   76.5710  221.2100 C   0  0  0  0  0  0  0  0  0  0  0  0
  138.2850   77.9230  221.8050 C   0  0  0  0  0  0  0  0  0  0  0  0
  139.3930   78.5720  221.3270 O   0  0  0  0  0  0  0  0  0  0  0  0
  140.5030   79.1060  221.8770 C   0  0  0  0  0  0  0  0  0  0  0  0
  140.8340   78.6660  223.1730 C   0  0  0  0  0  0  0  0  0  0  0  0
  141.9390   79.1310  223.8400 C   0  0  0  0  0  0  0  0  0  0  0  0
  142.7800   80.0570  223.2650 C   0  0  0  0  0  0  0  0  0  0  0  0
  143.8800   80.5550  223.8630 F   0  0  0  0  0  0  0  0  0  0  0  0
  142.4860   80.5080  221.9990 C   0  0  0  0  0  0  0  0  0  0  0  0
  141.3580   80.0250  221.3320 C   0  0  0  0  0  0  0  0  0  0  0  0
  140.7860   75.9950  220.8610 N   0  0  0  0  0  0  0  0  0  0  0  0
  142.1620   75.7570  220.4730 C   0  0  0  0  0  0  0  0  0  0  0  0
  142.3730   74.4610  219.8170 C   0  0  0  0  0  0  0  0  0  0  0  0
  143.7530   73.9620  219.7490 C   0  0  0  0  0  0  0  0  0  0  0  0
  144.2200   73.5170  218.5200 C   0  0  0  0  0  0  0  0  0  0  0  0
  145.5030   73.0310  218.3590 C   0  0  0  0  0  0  0  0  0  0  0  0
  146.3140   72.9960  219.4440 N   0  0  0  0  0  0  0  0  0  0  0  0
  145.9010   73.4220  220.6690 C   0  0  0  0  0  0  0  0  0  0  0  0
  144.6190   73.9050  220.8180 C   0  0  0  0  0  0  0  0  0  0  0  0
  138.0505   74.5483  221.8659 H   0  0  0  0  0  0  0  0  0  0  0  0
  138.6726   75.7861  223.0728 H   0  0  0  0  0  0  0  0  0  0  0  0
  138.5687   76.5591  220.2192 H   0  0  0  0  0  0  0  0  0  0  0  0
  137.0053   76.4005  221.1638 H   0  0  0  0  0  0  0  0  0  0  0  0
  137.3984   78.5339  221.5799 H   0  0  0  0  0  0  0  0  0  0  0  0
  138.4298   77.7850  222.8867 H   0  0  0  0  0  0  0  0  0  0  0  0
  140.1862   77.9262  223.6661 H   0  0  0  0  0  0  0  0  0  0  0  0
  142.1568   78.7576  224.8515 H   0  0  0  0  0  0  0  0  0  0  0  0
  143.1385   81.2481  221.5127 H   0  0  0  0  0  0  0  0  0  0  0  0
  141.1468   80.4013  220.3202 H   0  0  0  0  0  0  0  0  0  0  0  0
  140.2760   76.8630  220.5170 H   0  0  0  0  0  0  0  0  0  0  0  0
  142.4697   76.5524  219.7782 H   0  0  0  0  0  0  0  0  0  0  0  0
  142.7606   75.7521  221.3959 H   0  0  0  0  0  0  0  0  0  0  0  0
  141.7768   73.7134  220.3608 H   0  0  0  0  0  0  0  0  0  0  0  0
  142.0762   74.6205  218.7699 H   0  0  0  0  0  0  0  0  0  0  0  0
  143.5490   73.5524  217.6490 H   0  0  0  0  0  0  0  0  0  0  0  0
  145.8564   72.6822  217.3775 H   0  0  0  0  0  0  0  0  0  0  0  0
  146.5833   73.3812  221.5309 H   0  0  0  0  0  0  0  0  0  0  0  0
  144.2822   74.2505  221.8065 H   0  0  0  0  0  0  0  0  0  0  0  0
  1  2  2  0
  2  3  1  0
  3  4  1  0
  4  5  1  0
  5  6  1  0
  6  7  1  0
  7  8  2  0
  8  9  1  0
  9 10  2  0
 10 11  1  0
 10 12  1  0
 12 13  2  0
  2 14  1  0
 14 15  1  0
 15 16  1  0
 16 17  1  0
 17 18  2  0
 18 19  1  0
 19 20  2  0
 20 21  1  0
 21 22  2  0
 13  7  1  0
 22 17  1  0
  3 23  1  0
  3 24  1  0
  4 25  1  0
  4 26  1  0
  5 27  1  0
  5 28  1  0
  8 29  1  0
  9 30  1  0
 12 31  1  0
 13 32  1  0
 14 33  1  0
 15 34  1  0
 15 35  1  0
 16 36  1  0
 16 37  1  0
 18 38  1  0
 19 39  1  0
 21 40  1  0
 22 41  1  0
M  END
>  <smiles>  (17) 
O=C(CCCOc1ccc(F)cc1)NCCc1ccncc1

>  <score_type>  (17) 
oracle

>  <origin>  (17) 
autodockgpu

>  <m_score__min__energy>  (17) 
-6.6900000000000004

>  <m_primary>  (17) 
energy

>  <meeko>  (17) 
{"free_energy": -5.14, "intermolecular_energy": -7.52, "internal_energy": -1.6, "cluster_size": 3, "cluster_id": 4, "rank_in_cluster": 3}

>  <energy>  (17) 
-4.96

>  <cluster_rmsd>  (17) 
0.0

>  <rmsd>  (17) 
271.78

>  <cluster>  (17) 
6

$$$$

     RDKit          3D

 41 42  0  0  0  0  0  0  0  0999 V2000
  139.4040   74.4120  221.9400 O   0  0  0  0  0  0  0  0  0  0  0  0
  140.6280   74.4510  221.6610 C   0  0  0  0  0  0  0  0  0  0  0  0
  141.3720   73.3350  221.0790 C   0  0  0  0  0  0  0  0  0  0  0  0
  141.4170   72.0890  221.9310 C   0  0  0  0  0  0  0  0  0  0  0  0
  140.3050   71.9780  222.9160 C   0  0  0  0  0  0  0  0  0  0  0  0
  140.7000   72.2050  224.2090 O   0  0  0  0  0  0  0  0  0  0  0  0
  140.6830   71.4940  225.3550 C   0  0  0  0  0  0  0  0  0  0  0  0
  140.2040   70.1730  225.2670 C   0  0  0  0  0  0  0  0  0  0  0  0
  140.1380   69.3470  226.3600 C   0  0  0  0  0  0  0  0  0  0  0  0
  140.5420   69.7780  227.6020 C   0  0  0  0  0  0  0  0  0  0  0  0
  140.5050   69.0210  228.7160 F   0  0  0  0  0  0  0  0  0  0  0  0
  141.0170   71.0640  227.7240 C   0  0  0  0  0  0  0  0  0  0  0  0
  141.0790   71.8930  226.6030 C   0  0  0  0  0  0  0  0  0  0  0  0
  141.3440   75.6620  221.9300 N   0  0  0  0  0  0  0  0  0  0  0  0
  140.7130   76.8320  222.5080 C   0  0  0  0  0  0  0  0  0  0  0  0
  140.9650   78.0670  221.7580 C   0  0  0  0  0  0  0  0  0  0  0  0
  141.5170   79.2040  222.5070 C   0  0  0  0  0  0  0  0  0  0  0  0
  140.6220   80.1110  223.0580 C   0  0  0  0  0  0  0  0  0  0  0  0
  141.0480   81.2100  223.7790 C   0  0  0  0  0  0  0  0  0  0  0  0
  142.3820   81.3910  223.9410 N   0  0  0  0  0  0  0  0  0  0  0  0
  143.2970   80.5280  223.4190 C   0  0  0  0  0  0  0  0  0  0  0  0
  142.8610   79.4350  222.7030 C   0  0  0  0  0  0  0  0  0  0  0  0
  140.9032   73.0755  220.1183 H   0  0  0  0  0  0  0  0  0  0  0  0
  142.4124   73.6771  220.9768 H   0  0  0  0  0  0  0  0  0  0  0  0
  141.3753   71.2147  221.2648 H   0  0  0  0  0  0  0  0  0  0  0  0
  142.3489   72.1396  222.5132 H   0  0  0  0  0  0  0  0  0  0  0  0
  139.5312   72.7143  222.6531 H   0  0  0  0  0  0  0  0  0  0  0  0
  139.9290   70.9454  222.8672 H   0  0  0  0  0  0  0  0  0  0  0  0
  139.8720   69.7911  224.2903 H   0  0  0  0  0  0  0  0  0  0  0  0
  139.7555   68.3225  226.2412 H   0  0  0  0  0  0  0  0  0  0  0  0
  141.3475   71.4381  228.7042 H   0  0  0  0  0  0  0  0  0  0  0  0
  141.4644   72.9156  226.7283 H   0  0  0  0  0  0  0  0  0  0  0  0
  142.3800   75.6780  221.6870 H   0  0  0  0  0  0  0  0  0  0  0  0
  139.6269   76.6607  222.5407 H   0  0  0  0  0  0  0  0  0  0  0  0
  141.1457   76.9695  223.5099 H   0  0  0  0  0  0  0  0  0  0  0  0
  141.6732   77.8263  220.9515 H   0  0  0  0  0  0  0  0  0  0  0  0
  139.9732   78.4028  221.4211 H   0  0  0  0  0  0  0  0  0  0  0  0
  139.5430   79.9502  222.9166 H   0  0  0  0  0  0  0  0  0  0  0  0
  140.3250   81.9184  224.2096 H   0  0  0  0  0  0  0  0  0  0  0  0
  144.3730   80.7019  223.5676 H   0  0  0  0  0  0  0  0  0  0  0  0
  143.5976   78.7355  222.2810 H   0  0  0  0  0  0  0  0  0  0  0  0
  1  2  2  0
  2  3  1  0
  3  4  1  0
  4  5  1  0
  5  6  1  0
  6  7  1  0
  7  8  2  0
  8  9  1  0
  9 10  2  0
 10 11  1  0
 10 12  1  0
 12 13  2  0
  2 14  1  0
 14 15  1  0
 15 16  1  0
 16 17  1  0
 17 18  2  0
 18 19  1  0
 19 20  2  0
 20 21  1  0
 21 22  2  0
 13  7  1  0
 22 17  1  0
  3 23  1  0
  3 24  1  0
  4 25  1  0
  4 26  1  0
  5 27  1  0
  5 28  1  0
  8 29  1  0
  9 30  1  0
 12 31  1  0
 13 32  1  0
 14 33  1  0
 15 34  1  0
 15 35  1  0
 16 36  1  0
 16 37  1  0
 18 38  1  0
 19 39  1  0
 21 40  1  0
 22 41  1  0
M  END
>  <smiles>  (18) 
O=C(CCCOc1ccc(F)cc1)NCCc1ccncc1

>  <score_type>  (18) 
oracle

>  <origin>  (18) 
autodockgpu

>  <m_score__min__energy>  (18) 
-6.6900000000000004

>  <m_primary>  (18) 
energy

>  <meeko>  (18) 
{"free_energy": -6.57, "intermolecular_energy": -8.96, "internal_energy": -0.5, "cluster_size": 7, "cluster_id": 1, "rank_in_cluster": 2}

>  <energy>  (18) 
-4.87

>  <cluster_rmsd>  (18) 
0.66

>  <rmsd>  (18) 
271.7

>  <cluster>  (18) 
6

$$$$

     RDKit          3D

 41 42  0  0  0  0  0  0  0  0999 V2000
  139.0990   74.9770  221.7100 O   0  0  0  0  0  0  0  0  0  0  0  0
  140.3330   74.7600  221.6180 C   0  0  0  0  0  0  0  0  0  0  0  0
  140.9450   73.4400  221.7540 C   0  0  0  0  0  0  0  0  0  0  0  0
  140.0300   72.3690  222.2960 C   0  0  0  0  0  0  0  0  0  0  0  0
  140.6830   71.4260  223.2470 C   0  0  0  0  0  0  0  0  0  0  0  0
  140.2600   71.5810  224.5410 O   0  0  0  0  0  0  0  0  0  0  0  0
  140.4430   70.9080  225.6960 C   0  0  0  0  0  0  0  0  0  0  0  0
  140.2690   69.5110  225.6430 C   0  0  0  0  0  0  0  0  0  0  0  0
  140.4290   68.7150  226.7480 C   0  0  0  0  0  0  0  0  0  0  0  0
  140.7690   69.2520  227.9690 C   0  0  0  0  0  0  0  0  0  0  0  0
  140.9410   68.5280  229.0930 F   0  0  0  0  0  0  0  0  0  0  0  0
  140.9480   70.6130  228.0560 C   0  0  0  0  0  0  0  0  0  0  0  0
  140.7830   71.4110  226.9230 C   0  0  0  0  0  0  0  0  0  0  0  0
  141.1970   75.8740  221.3660 N   0  0  0  0  0  0  0  0  0  0  0  0
  140.7030   77.2290  221.2160 C   0  0  0  0  0  0  0  0  0  0  0  0
  140.3750   77.8790  222.4890 C   0  0  0  0  0  0  0  0  0  0  0  0
  141.1960   79.0320  222.8830 C   0  0  0  0  0  0  0  0  0  0  0  0
  140.5490   80.1260  223.4430 C   0  0  0  0  0  0  0  0  0  0  0  0
  141.2380   81.2550  223.8440 C   0  0  0  0  0  0  0  0  0  0  0  0
  142.5840   81.2750  223.6780 N   0  0  0  0  0  0  0  0  0  0  0  0
  143.2610   80.2270  223.1350 C   0  0  0  0  0  0  0  0  0  0  0  0
  142.5640   79.1060  222.7390 C   0  0  0  0  0  0  0  0  0  0  0  0
  141.2940   73.1210  220.7608 H   0  0  0  0  0  0  0  0  0  0  0  0
  141.7586   73.5507  222.4860 H   0  0  0  0  0  0  0  0  0  0  0  0
  139.1955   72.8608  222.8174 H   0  0  0  0  0  0  0  0  0  0  0  0
  139.7027   71.7694  221.4338 H   0  0  0  0  0  0  0  0  0  0  0  0
  140.4594   70.3975  222.9275 H   0  0  0  0  0  0  0  0  0  0  0  0
  141.7617   71.6406  223.2292 H   0  0  0  0  0  0  0  0  0  0  0  0
  139.9962   69.0441  224.6851 H   0  0  0  0  0  0  0  0  0  0  0  0
  140.2831   67.6285  226.6571 H   0  0  0  0  0  0  0  0  0  0  0  0
  141.2209   71.0720  229.0177 H   0  0  0  0  0  0  0  0  0  0  0  0
  140.9334   72.4963  227.0206 H   0  0  0  0  0  0  0  0  0  0  0  0
  142.2390   75.6730  221.2890 H   0  0  0  0  0  0  0  0  0  0  0  0
  141.4752   77.8265  220.7094 H   0  0  0  0  0  0  0  0  0  0  0  0
  139.7710   77.1699  220.6347 H   0  0  0  0  0  0  0  0  0  0  0  0
  139.3314   78.2211  222.4271 H   0  0  0  0  0  0  0  0  0  0  0  0
  140.5696   77.1156  223.2567 H   0  0  0  0  0  0  0  0  0  0  0  0
  139.4570   80.0929  223.5710 H   0  0  0  0  0  0  0  0  0  0  0  0
  140.7097   82.1130  224.2853 H   0  0  0  0  0  0  0  0  0  0  0  0
  144.3532   80.2740  223.0134 H   0  0  0  0  0  0  0  0  0  0  0  0
  143.1088   78.2567  222.3009 H   0  0  0  0  0  0  0  0  0  0  0  0
  1  2  2  0
  2  3  1  0
  3  4  1  0
  4  5  1  0
  5  6  1  0
  6  7  1  0
  7  8  2  0
  8  9  1  0
  9 10  2  0
 10 11  1  0
 10 12  1  0
 12 13  2  0
  2 14  1  0
 14 15  1  0
 15 16  1  0
 16 17  1  0
 17 18  2  0
 18 19  1  0
 19 20  2  0
 20 21  1  0
 21 22  2  0
 13  7  1  0
 22 17  1  0
  3 23  1  0
  3 24  1  0
  4 25  1  0
  4 26  1  0
  5 27  1  0
  5 28  1  0
  8 29  1  0
  9 30  1  0
 12 31  1  0
 13 32  1  0
 14 33  1  0
 15 34  1  0
 15 35  1  0
 16 36  1  0
 16 37  1  0
 18 38  1  0
 19 39  1  0
 21 40  1  0
 22 41  1  0
M  END
>  <smiles>  (19) 
O=C(CCCOc1ccc(F)cc1)NCCc1ccncc1

>  <score_type>  (19) 
oracle

>  <origin>  (19) 
autodockgpu

>  <m_score__min__energy>  (19) 
-6.6900000000000004

>  <m_primary>  (19) 
energy

>  <meeko>  (19) 
{"free_energy": -6.3, "intermolecular_energy": -8.69, "internal_energy": -0.47, "cluster_size": 7, "cluster_id": 1, "rank_in_cluster": 5}

>  <energy>  (19) 
-4.85

>  <cluster_rmsd>  (19) 
0.91

>  <rmsd>  (19) 
272.06

>  <cluster>  (19) 
6

$$$$

     RDKit          3D

 41 42  0  0  0  0  0  0  0  0999 V2000
  141.2480   82.1050  221.8530 O   0  0  0  0  0  0  0  0  0  0  0  0
  141.6480   81.1950  221.0860 C   0  0  0  0  0  0  0  0  0  0  0  0
  141.2680   81.0840  219.6780 C   0  0  0  0  0  0  0  0  0  0  0  0
  142.2040   80.2550  218.8310 C   0  0  0  0  0  0  0  0  0  0  0  0
  141.8040   78.8270  218.6910 C   0  0  0  0  0  0  0  0  0  0  0  0
  142.1120   78.0670  219.7880 O   0  0  0  0  0  0  0  0  0  0  0  0
  142.5070   76.7930  219.9920 C   0  0  0  0  0  0  0  0  0  0  0  0
  141.5530   75.9230  220.5540 C   0  0  0  0  0  0  0  0  0  0  0  0
  141.8300   74.6030  220.8070 C   0  0  0  0  0  0  0  0  0  0  0  0
  143.0650   74.0680  220.5210 C   0  0  0  0  0  0  0  0  0  0  0  0
  143.4040   72.7830  220.7440 F   0  0  0  0  0  0  0  0  0  0  0  0
  144.0210   74.8910  219.9700 C   0  0  0  0  0  0  0  0  0  0  0  0
  143.7240   76.2310  219.7170 C   0  0  0  0  0  0  0  0  0  0  0  0
  142.5310   80.2010  221.6190 N   0  0  0  0  0  0  0  0  0  0  0  0
  142.9730   80.2070  222.9990 C   0  0  0  0  0  0  0  0  0  0  0  0
  142.1790   79.3390  223.8750 C   0  0  0  0  0  0  0  0  0  0  0  0
  140.8060   79.0330  223.4490 C   0  0  0  0  0  0  0  0  0  0  0  0
  139.8040   79.9250  223.8080 C   0  0  0  0  0  0  0  0  0  0  0  0
  138.4850   79.7210  223.4520 C   0  0  0  0  0  0  0  0  0  0  0  0
  138.1800   78.6140  222.7320 N   0  0  0  0  0  0  0  0  0  0  0  0
  139.1280   77.7130  222.3570 C   0  0  0  0  0  0  0  0  0  0  0  0
  140.4410   77.9250  222.7170 C   0  0  0  0  0  0  0  0  0  0  0  0
  140.2681   80.6282  219.6287 H   0  0  0  0  0  0  0  0  0  0  0  0
  141.3018   82.1040  219.2676 H   0  0  0  0  0  0  0  0  0  0  0  0
  142.2452   80.7010  217.8263 H   0  0  0  0  0  0  0  0  0  0  0  0
  143.1780   80.2599  219.3421 H   0  0  0  0  0  0  0  0  0  0  0  0
  140.7167   78.7834  218.5304 H   0  0  0  0  0  0  0  0  0  0  0  0
  142.3661   78.4136  217.8406 H   0  0  0  0  0  0  0  0  0  0  0  0
  140.5541   76.3138  220.7979 H   0  0  0  0  0  0  0  0  0  0  0  0
  141.0515   73.9617  221.2459 H   0  0  0  0  0  0  0  0  0  0  0  0
  145.0178   74.4930  219.7294 H   0  0  0  0  0  0  0  0  0  0  0  0
  144.5060   76.8661  219.2752 H   0  0  0  0  0  0  0  0  0  0  0  0
  142.8610   79.4380  220.9550 H   0  0  0  0  0  0  0  0  0  0  0  0
  144.0192   79.8687  223.0303 H   0  0  0  0  0  0  0  0  0  0  0  0
  142.8538   81.2354  223.3708 H   0  0  0  0  0  0  0  0  0  0  0  0
  142.7167   78.3842  223.9709 H   0  0  0  0  0  0  0  0  0  0  0  0
  142.0667   79.9058  224.8110 H   0  0  0  0  0  0  0  0  0  0  0  0
  140.0680   80.8189  224.3921 H   0  0  0  0  0  0  0  0  0  0  0  0
  137.7035   80.4375  223.7449 H   0  0  0  0  0  0  0  0  0  0  0  0
  138.8490   76.8241  221.7722 H   0  0  0  0  0  0  0  0  0  0  0  0
  141.2095   77.1981  222.4151 H   0  0  0  0  0  0  0  0  0  0  0  0
  1  2  2  0
  2  3  1  0
  3  4  1  0
  4  5  1  0
  5  6  1  0
  6  7  1  0
  7  8  2  0
  8  9  1  0
  9 10  2  0
 10 11  1  0
 10 12  1  0
 12 13  2  0
  2 14  1  0
 14 15  1  0
 15 16  1  0
 16 17  1  0
 17 18  2  0
 18 19  1  0
 19 20  2  0
 20 21  1  0
 21 22  2  0
 13  7  1  0
 22 17  1  0
  3 23  1  0
  3 24  1  0
  4 25  1  0
  4 26  1  0
  5 27  1  0
  5 28  1  0
  8 29  1  0
  9 30  1  0
 12 31  1  0
 13 32  1  0
 14 33  1  0
 15 34  1  0
 15 35  1  0
 16 36  1  0
 16 37  1  0
 18 38  1  0
 19 39  1  0
 21 40  1  0
 22 41  1  0
M  END
>  <smiles>  (20) 
O=C(CCCOc1ccc(F)cc1)NCCc1ccncc1

>  <score_type>  (20) 
oracle

>  <origin>  (20) 
autodockgpu

>  <m_score__min__energy>  (20) 
-6.6900000000000004

>  <m_primary>  (20) 
energy

>  <meeko>  (20) 
{"free_energy": -4.56, "intermolecular_energy": -6.95, "internal_energy": -2.17, "cluster_size": 1, "cluster_id": 7, "rank_in_cluster": 1}

>  <energy>  (20) 
-4.56

>  <cluster_rmsd>  (20) 
0.0

>  <rmsd>  (20) 
272.19

>  <cluster>  (20) 
7

$$$$
