
     RDKit          3D

 65 68  0  0  1  0  0  0  0  0999 V2000
  137.8700   77.3330  220.4640 C   0  0  0  0  0  0  0  0  0  0  0  0
  137.9220   77.1240  221.9460 C   0  0  0  0  0  0  0  0  0  0  0  0
  137.4860   78.3480  222.6930 C   0  0  0  0  0  0  0  0  0  0  0  0
  139.3290   76.8130  222.3380 C   0  0  2  0  0  0  0  0  0  0  0  0
  140.2830   77.7600  221.7430 N   0  0  0  0  0  0  0  0  0  0  0  0
  141.3230   78.2730  222.5520 C   0  0  0  0  0  0  0  0  0  0  0  0
  141.4510   77.9330  223.7770 O   0  0  0  0  0  0  0  0  0  0  0  0
  142.3010   79.2330  221.9690 C   0  0  2  0  0  0  0  0  0  0  0  0
  142.9690   79.9130  223.1620 C   0  0  0  0  0  0  0  0  0  0  0  0
  141.9800   81.0550  223.4150 C   0  0  1  0  0  0  0  0  0  0  0  0
  142.5170   82.0110  224.2540 O   0  0  0  0  0  0  0  0  0  0  0  0
  141.7850   81.5550  221.9980 C   0  0  0  0  0  0  0  0  0  0  0  0
  141.5700   80.3050  221.2910 N   0  0  0  0  0  0  0  0  0  0  0  0
  140.7950   80.0590  220.1260 C   0  0  0  0  0  0  0  0  0  0  0  0
  139.5510   80.0010  220.1040 O   0  0  0  0  0  0  0  0  0  0  0  0
  141.5230   79.8560  218.8500 C   0  0  0  0  0  0  0  0  0  0  0  0
  142.4040   78.7160  218.8990 N   0  0  0  0  0  0  0  0  0  0  0  0
  141.7950   77.4240  218.8150 C   0  0  0  0  0  0  0  0  0  0  0  0
  140.5320   77.4240  218.7050 O   0  0  0  0  0  0  0  0  0  0  0  0
  142.5810   76.2000  218.8550 C   0  0  0  0  0  0  0  0  0  0  0  0
  142.3490   75.2600  217.8740 C   0  0  0  0  0  0  0  0  0  0  0  0
  143.0630   74.0620  217.8460 C   0  0  0  0  0  0  0  0  0  0  0  0
  144.0100   73.8270  218.8180 C   0  0  0  0  0  0  0  0  0  0  0  0
  144.7240   72.6440  218.8010 C   0  0  0  0  0  0  0  0  0  0  0  0
  145.6720   72.4010  219.7690 C   0  0  0  0  0  0  0  0  0  0  0  0
  146.3550   71.2360  219.7280 F   0  0  0  0  0  0  0  0  0  0  0  0
  145.8900   73.3570  220.7450 C   0  0  0  0  0  0  0  0  0  0  0  0
  145.1590   74.5460  220.7460 C   0  0  0  0  0  0  0  0  0  0  0  0
  144.2180   74.7770  219.7780 C   0  0  0  0  0  0  0  0  0  0  0  0
  143.5120   75.9420  219.7910 N   0  0  0  0  0  0  0  0  0  0  0  0
  139.7610   75.4580  221.8800 C   0  0  0  0  0  0  0  0  0  0  0  0
  138.8670   74.4240  221.7050 C   0  0  0  0  0  0  0  0  0  0  0  0
  139.2820   73.1790  221.2820 C   0  0  0  0  0  0  0  0  0  0  0  0
  140.6150   72.9460  221.0260 C   0  0  0  0  0  0  0  0  0  0  0  0
  141.2070   71.3740  220.4830 Cl  0  0  0  0  0  0  0  0  0  0  0  0
  141.5440   73.9670  221.1930 C   0  0  0  0  0  0  0  0  0  0  0  0
  141.0980   75.2210  221.6220 C   0  0  0  0  0  0  0  0  0  0  0  0
  137.6095   78.3801  220.2503 H   0  0  0  0  0  0  0  0  0  0  0  0
  138.8527   77.1031  220.0266 H   0  0  0  0  0  0  0  0  0  0  0  0
  137.1096   76.6693  220.0266 H   0  0  0  0  0  0  0  0  0  0  0  0
  137.2410   76.2979  222.1986 H   0  0  0  0  0  0  0  0  0  0  0  0
  137.5528   78.1605  223.7748 H   0  0  0  0  0  0  0  0  0  0  0  0
  138.1387   79.1923  222.4262 H   0  0  0  0  0  0  0  0  0  0  0  0
  136.4465   78.5895  222.4262 H   0  0  0  0  0  0  0  0  0  0  0  0
  139.3336   76.8744  223.4363 H   0  0  0  0  0  0  0  0  0  0  0  0
  140.1820   78.0390  220.7430 H   0  0  0  0  0  0  0  0  0  0  0  0
  142.9932   78.7196  221.2854 H   0  0  0  0  0  0  0  0  0  0  0  0
  143.0411   79.2378  224.0274 H   0  0  0  0  0  0  0  0  0  0  0  0
  144.0070   80.2328  222.9879 H   0  0  0  0  0  0  0  0  0  0  0  0
  141.0467   80.7698  223.9225 H   0  0  0  0  0  0  0  0  0  0  0  0
  141.8820   82.0920  225.0330 H   0  0  0  0  0  0  0  0  0  0  0  0
  140.9112   82.2186  221.9203 H   0  0  0  0  0  0  0  0  0  0  0  0
  142.6197   82.1576  221.6106 H   0  0  0  0  0  0  0  0  0  0  0  0
  140.7896   79.7021  218.0448 H   0  0  0  0  0  0  0  0  0  0  0  0
  142.1381   80.7495  218.6673 H   0  0  0  0  0  0  0  0  0  0  0  0
  143.4510   78.7980  218.9940 H   0  0  0  0  0  0  0  0  0  0  0  0
  141.5902   75.4573  217.1024 H   0  0  0  0  0  0  0  0  0  0  0  0
  142.8727   73.3166  217.0598 H   0  0  0  0  0  0  0  0  0  0  0  0
  144.5351   71.8977  218.0152 H   0  0  0  0  0  0  0  0  0  0  0  0
  146.6445   73.1789  221.5254 H   0  0  0  0  0  0  0  0  0  0  0  0
  145.3392   75.2998  221.5266 H   0  0  0  0  0  0  0  0  0  0  0  0
  137.7994   74.5955  221.9071 H   0  0  0  0  0  0  0  0  0  0  0  0
  138.5476   72.3710  221.1489 H   0  0  0  0  0  0  0  0  0  0  0  0
  142.6110   73.7914  220.9912 H   0  0  0  0  0  0  0  0  0  0  0  0
  141.8256   76.0349  221.7568 H   0  0  0  0  0  0  0  0  0  0  0  0
  1  2  1  0
  2  3  1  0
  2  4  1  0
  4  5  1  0
  5  6  1  0
  6  7  2  0
  6  8  1  0
  8  9  1  0
  9 10  1  0
 10 11  1  0
 10 12  1  0
 12 13  1  0
 13 14  1  0
 14 15  2  0
 14 16  1  0
 16 17  1  0
 17 18  1  0
 18 19  2  0
 18 20  1  0
 20 21  2  0
 21 22  1  0
 22 23  2  0
 23 24  1  0
 24 25  2  0
 25 26  1  0
 25 27  1  0
 27 28  2  0
 28 29  1  0
 29 30  2  0
  4 31  1  0
 31 32  2  0
 32 33  1  0
 33 34  2  0
 34 35  1  0
 34 36  1  0
 36 37  2  0
 13  8  1  0
 30 20  1  0
 37 31  1  0
 29 23  1  0
  1 38  1  0
  1 39  1  0
  1 40  1  0
  2 41  1  0
  3 42  1  0
  3 43  1  0
  3 44  1  0
  4 45  1  1
  5 46  1  0
  8 47  1  6
  9 48  1  0
  9 49  1  0
 10 50  1  1
 11 51  1  0
 12 52  1  0
 12 53  1  0
 16 54  1  0
 16 55  1  0
 17 56  1  0
 21 57  1  0
 22 58  1  0
 24 59  1  0
 27 60  1  0
 28 61  1  0
 32 62  1  0
 33 63  1  0
 36 64  1  0
 37 65  1  0
M  END
>  <smiles>  (1) 
CC(C)C(NC(=O)[C@@H]1C[C@@H](O)CN1C(=O)CNC(=O)c1ccc2cc(F)ccc2n1)c1ccc(Cl)cc1

>  <score_type>  (1) 
oracle

>  <origin>  (1) 
autodockgpu

>  <m_score__min__energy>  (1) 
-9.9700000000000006

>  <m_primary>  (1) 
energy

>  <meeko>  (1) 
{"free_energy": -6.62, "intermolecular_energy": -9.31, "internal_energy": -5.33, "cluster_size": 5, "cluster_id": 7, "rank_in_cluster": 3}

>  <energy>  (1) 
-9.97

>  <cluster_rmsd>  (1) 
0.0

>  <rmsd>  (1) 
270.27

>  <cluster>  (1) 
1

$$$$

     RDKit          3D

 65 68  0  0  1  0  0  0  0  0999 V2000
  137.9020   78.4330  222.3720 C   0  0  0  0  0  0  0  0  0  0  0  0
  138.1580   77.0160  221.9610 C   0  0  0  0  0  0  0  0  0  0  0  0
  137.3590   76.0490  222.7810 C   0  0  0  0  0  0  0  0  0  0  0  0
  139.6070   76.7130  222.1600 C   0  0  2  0  0  0  0  0  0  0  0  0
  140.4650   77.7900  221.6470 N   0  0  0  0  0  0  0  0  0  0  0  0
  141.4700   78.3150  222.4910 C   0  0  0  0  0  0  0  0  0  0  0  0
  141.6480   77.8780  223.6780 O   0  0  0  0  0  0  0  0  0  0  0  0
  142.3520   79.4070  221.9910 C   0  0  2  0  0  0  0  0  0  0  0  0
  142.9520   80.0540  223.2380 C   0  0  0  0  0  0  0  0  0  0  0  0
  141.8570   81.0730  223.5700 C   0  0  1  0  0  0  0  0  0  0  0  0
  142.3000   82.0090  224.4840 O   0  0  0  0  0  0  0  0  0  0  0  0
  141.6150   81.6600  222.1940 C   0  0  0  0  0  0  0  0  0  0  0  0
  141.5220   80.4540  221.3920 N   0  0  0  0  0  0  0  0  0  0  0  0
  140.7740   80.2250  220.2060 C   0  0  0  0  0  0  0  0  0  0  0  0
  139.5340   80.1060  220.1640 O   0  0  0  0  0  0  0  0  0  0  0  0
  141.5250   80.1190  218.9320 C   0  0  0  0  0  0  0  0  0  0  0  0
  142.4090   78.9800  218.9130 N   0  0  0  0  0  0  0  0  0  0  0  0
  141.7980   77.6890  218.8280 C   0  0  0  0  0  0  0  0  0  0  0  0
  140.5310   77.6890  218.7770 O   0  0  0  0  0  0  0  0  0  0  0  0
  142.5850   76.4660  218.8010 C   0  0  0  0  0  0  0  0  0  0  0  0
  142.5260   75.6920  217.6630 C   0  0  0  0  0  0  0  0  0  0  0  0
  143.2530   74.5060  217.5630 C   0  0  0  0  0  0  0  0  0  0  0  0
  144.0370   74.1130  218.6240 C   0  0  0  0  0  0  0  0  0  0  0  0
  144.7620   72.9400  218.5390 C   0  0  0  0  0  0  0  0  0  0  0  0
  145.5480   72.5400  219.5950 C   0  0  0  0  0  0  0  0  0  0  0  0
  146.2460   71.3880  219.4830 F   0  0  0  0  0  0  0  0  0  0  0  0
  145.5940   73.3300  220.7300 C   0  0  0  0  0  0  0  0  0  0  0  0
  144.8550   74.5120  220.7990 C   0  0  0  0  0  0  0  0  0  0  0  0
  144.0760   74.9000  219.7410 C   0  0  0  0  0  0  0  0  0  0  0  0
  143.3590   76.0560  219.8220 N   0  0  0  0  0  0  0  0  0  0  0  0
  140.0330   75.4740  221.4420 C   0  0  0  0  0  0  0  0  0  0  0  0
  141.0510   74.6710  221.9080 C   0  0  0  0  0  0  0  0  0  0  0  0
  141.4320   73.5310  221.2330 C   0  0  0  0  0  0  0  0  0  0  0  0
  140.7940   73.1730  220.0650 C   0  0  0  0  0  0  0  0  0  0  0  0
  141.2380   71.7260  219.1570 Cl  0  0  0  0  0  0  0  0  0  0  0  0
  139.7630   73.9620  219.5670 C   0  0  0  0  0  0  0  0  0  0  0  0
  139.3950   75.1130  220.2710 C   0  0  0  0  0  0  0  0  0  0  0  0
  137.8899   78.4999  223.4699 H   0  0  0  0  0  0  0  0  0  0  0  0
  138.6978   79.0797  221.9740 H   0  0  0  0  0  0  0  0  0  0  0  0
  136.9302   78.7603  221.9740 H   0  0  0  0  0  0  0  0  0  0  0  0
  137.8643   76.9076  220.9065 H   0  0  0  0  0  0  0  0  0  0  0  0
  137.5250   76.2499  223.8497 H   0  0  0  0  0  0  0  0  0  0  0  0
  136.2904   76.1658  222.5476 H   0  0  0  0  0  0  0  0  0  0  0  0
  137.6751   75.0216  222.5476 H   0  0  0  0  0  0  0  0  0  0  0  0
  139.7211   76.5927  223.2474 H   0  0  0  0  0  0  0  0  0  0  0  0
  140.3230   78.1500  220.6780 H   0  0  0  0  0  0  0  0  0  0  0  0
  143.0901   79.0160  221.2753 H   0  0  0  0  0  0  0  0  0  0  0  0
  143.0887   79.3243  224.0497 H   0  0  0  0  0  0  0  0  0  0  0  0
  143.9545   80.4842  223.0970 H   0  0  0  0  0  0  0  0  0  0  0  0
  140.9553   80.6611  224.0467 H   0  0  0  0  0  0  0  0  0  0  0  0
  141.5700   82.0990  225.1720 H   0  0  0  0  0  0  0  0  0  0  0  0
  140.6812   82.2405  222.1608 H   0  0  0  0  0  0  0  0  0  0  0  0
  142.3876   82.3684  221.8605 H   0  0  0  0  0  0  0  0  0  0  0  0
  140.8067   80.0235  218.1044 H   0  0  0  0  0  0  0  0  0  0  0  0
  142.1399   81.0250  218.8265 H   0  0  0  0  0  0  0  0  0  0  0  0
  143.4600   79.0610  218.9590 H   0  0  0  0  0  0  0  0  0  0  0  0
  141.8962   76.0141  216.8207 H   0  0  0  0  0  0  0  0  0  0  0  0
  143.2007   73.8941  216.6504 H   0  0  0  0  0  0  0  0  0  0  0  0
  144.7108   72.3262  217.6276 H   0  0  0  0  0  0  0  0  0  0  0  0
  146.2170   73.0245  221.5835 H   0  0  0  0  0  0  0  0  0  0  0  0
  144.8982   75.1337  221.7054 H   0  0  0  0  0  0  0  0  0  0  0  0
  141.5705   74.9452  222.8380 H   0  0  0  0  0  0  0  0  0  0  0  0
  142.2467   72.9059  221.6273 H   0  0  0  0  0  0  0  0  0  0  0  0
  139.2462   73.6858  218.6361 H   0  0  0  0  0  0  0  0  0  0  0  0
  138.5809   75.7438  219.8844 H   0  0  0  0  0  0  0  0  0  0  0  0
  1  2  1  0
  2  3  1  0
  2  4  1  0
  4  5  1  0
  5  6  1  0
  6  7  2  0
  6  8  1  0
  8  9  1  0
  9 10  1  0
 10 11  1  0
 10 12  1  0
 12 13  1  0
 13 14  1  0
 14 15  2  0
 14 16  1  0
 16 17  1  0
 17 18  1  0
 18 19  2  0
 18 20  1  0
 20 21  2  0
 21 22  1  0
 22 23  2  0
 23 24  1  0
 24 25  2  0
 25 26  1  0
 25 27  1  0
 27 28  2  0
 28 29  1  0
 29 30  2  0
  4 31  1  0
 31 32  2  0
 32 33  1  0
 33 34  2  0
 34 35  1  0
 34 36  1  0
 36 37  2  0
 13  8  1  0
 30 20  1  0
 37 31  1  0
 29 23  1  0
  1 38  1  0
  1 39  1  0
  1 40  1  0
  2 41  1  0
  3 42  1  0
  3 43  1  0
  3 44  1  0
  4 45  1  1
  5 46  1  0
  8 47  1  6
  9 48  1  0
  9 49  1  0
 10 50  1  1
 11 51  1  0
 12 52  1  0
 12 53  1  0
 16 54  1  0
 16 55  1  0
 17 56  1  0
 21 57  1  0
 22 58  1  0
 24 59  1  0
 27 60  1  0
 28 61  1  0
 32 62  1  0
 33 63  1  0
 36 64  1  0
 37 65  1  0
M  END
>  <smiles>  (2) 
CC(C)C(NC(=O)[C@@H]1C[C@@H](O)CN1C(=O)CNC(=O)c1ccc2cc(F)ccc2n1)c1ccc(Cl)cc1

>  <score_type>  (2) 
oracle

>  <origin>  (2) 
autodockgpu

>  <m_score__min__energy>  (2) 
-9.9700000000000006

>  <m_primary>  (2) 
energy

>  <meeko>  (2) 
{"free_energy": -6.17, "intermolecular_energy": -8.85, "internal_energy": -5.72, "cluster_size": 5, "cluster_id": 7, "rank_in_cluster": 5}

>  <energy>  (2) 
-9.84

>  <cluster_rmsd>  (2) 
0.4

>  <rmsd>  (2) 
270.21

>  <cluster>  (2) 
1

$$$$

     RDKit          3D

 65 68  0  0  1  0  0  0  0  0999 V2000
  143.3590   80.1690  222.7290 C   0  0  0  0  0  0  0  0  0  0  0  0
  141.9260   80.4670  223.0470 C   0  0  0  0  0  0  0  0  0  0  0  0
  141.8000   81.3860  224.2240 C   0  0  0  0  0  0  0  0  0  0  0  0
  141.2310   79.1860  223.3770 C   0  0  2  0  0  0  0  0  0  0  0  0
  141.6180   78.1040  222.4610 N   0  0  0  0  0  0  0  0  0  0  0  0
  141.4630   78.3070  221.0700 C   0  0  0  0  0  0  0  0  0  0  0  0
  141.0000   79.4000  220.5970 O   0  0  0  0  0  0  0  0  0  0  0  0
  141.8490   77.2240  220.1230 C   0  0  2  0  0  0  0  0  0  0  0  0
  141.8000   77.8570  218.7340 C   0  0  0  0  0  0  0  0  0  0  0  0
  140.3220   77.6470  218.3900 C   0  0  1  0  0  0  0  0  0  0  0  0
  140.0830   77.8560  217.0460 O   0  0  0  0  0  0  0  0  0  0  0  0
  140.1580   76.1980  218.8020 C   0  0  0  0  0  0  0  0  0  0  0  0
  140.7960   76.2070  220.1060 N   0  0  0  0  0  0  0  0  0  0  0  0
  140.5160   75.4040  221.2430 C   0  0  0  0  0  0  0  0  0  0  0  0
  141.0590   75.5400  222.3560 O   0  0  0  0  0  0  0  0  0  0  0  0
  139.5070   74.3280  221.0910 C   0  0  0  0  0  0  0  0  0  0  0  0
  139.3560   73.5470  222.2930 N   0  0  0  0  0  0  0  0  0  0  0  0
  140.2060   72.4040  222.4340 C   0  0  0  0  0  0  0  0  0  0  0  0
  141.0080   72.2030  221.4730 O   0  0  0  0  0  0  0  0  0  0  0  0
  140.1460   71.5400  223.6020 C   0  0  0  0  0  0  0  0  0  0  0  0
  139.5550   70.3050  223.4540 C   0  0  0  0  0  0  0  0  0  0  0  0
  139.4610   69.4220  224.5300 C   0  0  0  0  0  0  0  0  0  0  0  0
  139.9690   69.8010  225.7520 C   0  0  0  0  0  0  0  0  0  0  0  0
  139.8810   68.9350  226.8250 C   0  0  0  0  0  0  0  0  0  0  0  0
  140.3870   69.3080  228.0490 C   0  0  0  0  0  0  0  0  0  0  0  0
  140.2870   68.4400  229.0820 F   0  0  0  0  0  0  0  0  0  0  0  0
  140.9760   70.5520  228.1790 C   0  0  0  0  0  0  0  0  0  0  0  0
  141.0550   71.4140  227.0830 C   0  0  0  0  0  0  0  0  0  0  0  0
  140.5500   71.0330  225.8690 C   0  0  0  0  0  0  0  0  0  0  0  0
  140.6330   71.8840  224.8080 N   0  0  0  0  0  0  0  0  0  0  0  0
  139.7460   79.3000  223.2700 C   0  0  0  0  0  0  0  0  0  0  0  0
  139.0780   80.4720  223.5550 C   0  0  0  0  0  0  0  0  0  0  0  0
  137.7060   80.5600  223.4510 C   0  0  0  0  0  0  0  0  0  0  0  0
  136.9710   79.4630  223.0570 C   0  0  0  0  0  0  0  0  0  0  0  0
  135.2130   79.5150  222.9060 Cl  0  0  0  0  0  0  0  0  0  0  0  0
  137.6130   78.2660  222.7620 C   0  0  0  0  0  0  0  0  0  0  0  0
  139.0060   78.2020  222.8750 C   0  0  0  0  0  0  0  0  0  0  0  0
  143.9254   80.0512  223.6646 H   0  0  0  0  0  0  0  0  0  0  0  0
  143.4191   79.2391  222.1444 H   0  0  0  0  0  0  0  0  0  0  0  0
  143.7849   80.9978  222.1444 H   0  0  0  0  0  0  0  0  0  0  0  0
  141.4760   80.9561  222.1704 H   0  0  0  0  0  0  0  0  0  0  0  0
  141.8798   80.8039  225.1539 H   0  0  0  0  0  0  0  0  0  0  0  0
  142.6037   82.1363  224.1910 H   0  0  0  0  0  0  0  0  0  0  0  0
  140.8240   81.8924  224.1910 H   0  0  0  0  0  0  0  0  0  0  0  0
  141.5315   78.9631  224.4114 H   0  0  0  0  0  0  0  0  0  0  0  0
  141.9970   77.2110  222.8430 H   0  0  0  0  0  0  0  0  0  0  0  0
  142.8230   76.7932  220.3980 H   0  0  0  0  0  0  0  0  0  0  0  0
  142.0633   78.9246  218.7637 H   0  0  0  0  0  0  0  0  0  0  0  0
  142.5072   77.4296  218.0078 H   0  0  0  0  0  0  0  0  0  0  0  0
  139.6180   78.3349  218.8811 H   0  0  0  0  0  0  0  0  0  0  0  0
  140.3590   78.8060  216.8550 H   0  0  0  0  0  0  0  0  0  0  0  0
  139.0972   75.9158  218.8732 H   0  0  0  0  0  0  0  0  0  0  0  0
  140.5855   75.4738  218.0930 H   0  0  0  0  0  0  0  0  0  0  0  0
  138.5378   74.7844  220.8414 H   0  0  0  0  0  0  0  0  0  0  0  0
  139.8508   73.6542  220.2924 H   0  0  0  0  0  0  0  0  0  0  0  0
  138.6600   73.7800  223.0520 H   0  0  0  0  0  0  0  0  0  0  0  0
  139.1515   70.0107  222.4739 H   0  0  0  0  0  0  0  0  0  0  0  0
  138.9878   68.4371  224.4037 H   0  0  0  0  0  0  0  0  0  0  0  0
  139.4076   67.9498  226.7011 H   0  0  0  0  0  0  0  0  0  0  0  0
  141.3847   70.8646  229.1512 H   0  0  0  0  0  0  0  0  0  0  0  0
  141.5245   72.4024  227.1956 H   0  0  0  0  0  0  0  0  0  0  0  0
  139.6517   81.3554  223.8720 H   0  0  0  0  0  0  0  0  0  0  0  0
  137.1973   81.5073  223.6829 H   0  0  0  0  0  0  0  0  0  0  0  0
  137.0360   77.3846  222.4453 H   0  0  0  0  0  0  0  0  0  0  0  0
  139.5226   77.2585  222.6447 H   0  0  0  0  0  0  0  0  0  0  0  0
  1  2  1  0
  2  3  1  0
  2  4  1  0
  4  5  1  0
  5  6  1  0
  6  7  2  0
  6  8  1  0
  8  9  1  0
  9 10  1  0
 10 11  1  0
 10 12  1  0
 12 13  1  0
 13 14  1  0
 14 15  2  0
 14 16  1  0
 16 17  1  0
 17 18  1  0
 18 19  2  0
 18 20  1  0
 20 21  2  0
 21 22  1  0
 22 23  2  0
 23 24  1  0
 24 25  2  0
 25 26  1  0
 25 27  1  0
 27 28  2  0
 28 29  1  0
 29 30  2  0
  4 31  1  0
 31 32  2  0
 32 33  1  0
 33 34  2  0
 34 35  1  0
 34 36  1  0
 36 37  2  0
 13  8  1  0
 30 20  1  0
 37 31  1  0
 29 23  1  0
  1 38  1  0
  1 39  1  0
  1 40  1  0
  2 41  1  0
  3 42  1  0
  3 43  1  0
  3 44  1  0
  4 45  1  1
  5 46  1  0
  8 47  1  1
  9 48  1  0
  9 49  1  0
 10 50  1  1
 11 51  1  0
 12 52  1  0
 12 53  1  0
 16 54  1  0
 16 55  1  0
 17 56  1  0
 21 57  1  0
 22 58  1  0
 24 59  1  0
 27 60  1  0
 28 61  1  0
 32 62  1  0
 33 63  1  0
 36 64  1  0
 37 65  1  0
M  END
>  <smiles>  (3) 
CC(C)C(NC(=O)[C@@H]1C[C@@H](O)CN1C(=O)CNC(=O)c1ccc2cc(F)ccc2n1)c1ccc(Cl)cc1

>  <score_type>  (3) 
oracle

>  <origin>  (3) 
autodockgpu

>  <m_score__min__energy>  (3) 
-9.9700000000000006

>  <m_primary>  (3) 
energy

>  <meeko>  (3) 
{"free_energy": -9.34, "intermolecular_energy": -12.02, "internal_energy": -2.65, "cluster_size": 3, "cluster_id": 2, "rank_in_cluster": 2}

>  <energy>  (3) 
-8.6

>  <cluster_rmsd>  (3) 
1.64

>  <rmsd>  (3) 
270.13

>  <cluster>  (3) 
1

$$$$

     RDKit          3D

 65 68  0  0  1  0  0  0  0  0999 V2000
  141.8410   78.2810  223.8980 C   0  0  0  0  0  0  0  0  0  0  0  0
  142.0800   79.4880  223.0450 C   0  0  0  0  0  0  0  0  0  0  0  0
  142.7000   80.6060  223.8280 C   0  0  0  0  0  0  0  0  0  0  0  0
  140.7690   79.9630  222.5090 C   0  0  2  0  0  0  0  0  0  0  0  0
  140.0140   78.8760  221.8700 N   0  0  0  0  0  0  0  0  0  0  0  0
  138.6660   78.6750  222.2450 C   0  0  0  0  0  0  0  0  0  0  0  0
  138.0940   79.4120  223.1180 O   0  0  0  0  0  0  0  0  0  0  0  0
  137.8830   77.5790  221.6090 C   0  0  2  0  0  0  0  0  0  0  0  0
  138.0710   76.3630  222.5130 C   0  0  0  0  0  0  0  0  0  0  0  0
  139.3680   75.7890  221.9330 C   0  0  1  0  0  0  0  0  0  0  0  0
  139.5920   74.5010  222.3770 O   0  0  0  0  0  0  0  0  0  0  0  0
  139.0490   75.8580  220.4530 C   0  0  0  0  0  0  0  0  0  0  0  0
  138.5230   77.2060  220.3460 N   0  0  0  0  0  0  0  0  0  0  0  0
  138.5720   78.1000  219.2430 C   0  0  0  0  0  0  0  0  0  0  0  0
  137.5830   78.6910  218.7680 O   0  0  0  0  0  0  0  0  0  0  0  0
  139.8930   78.3410  218.6140 C   0  0  0  0  0  0  0  0  0  0  0  0
  140.6550   77.1260  218.4630 N   0  0  0  0  0  0  0  0  0  0  0  0
  141.7540   76.9350  219.3590 C   0  0  0  0  0  0  0  0  0  0  0  0
  141.9380   77.8680  220.1990 O   0  0  0  0  0  0  0  0  0  0  0  0
  142.5950   75.7500  219.3040 C   0  0  0  0  0  0  0  0  0  0  0  0
  142.2900   74.7940  218.3600 C   0  0  0  0  0  0  0  0  0  0  0  0
  143.0520   73.6310  218.2460 C   0  0  0  0  0  0  0  0  0  0  0  0
  144.1200   73.4460  219.0960 C   0  0  0  0  0  0  0  0  0  0  0  0
  144.8810   72.2980  218.9930 C   0  0  0  0  0  0  0  0  0  0  0  0
  145.9500   72.1060  219.8380 C   0  0  0  0  0  0  0  0  0  0  0  0
  146.6780   70.9740  219.7160 F   0  0  0  0  0  0  0  0  0  0  0  0
  146.2400   73.0770  220.7800 C   0  0  0  0  0  0  0  0  0  0  0  0
  145.4590   74.2310  220.8690 C   0  0  0  0  0  0  0  0  0  0  0  0
  144.3980   74.4120  220.0220 C   0  0  0  0  0  0  0  0  0  0  0  0
  143.6440   75.5420  220.1200 N   0  0  0  0  0  0  0  0  0  0  0  0
  140.9300   81.0180  221.4630 C   0  0  0  0  0  0  0  0  0  0  0  0
  140.4610   82.3020  221.6370 C   0  0  0  0  0  0  0  0  0  0  0  0
  140.6180   83.2630  220.6610 C   0  0  0  0  0  0  0  0  0  0  0  0
  141.2540   82.9510  219.4800 C   0  0  0  0  0  0  0  0  0  0  0  0
  141.4850   84.1380  218.1940 Cl  0  0  0  0  0  0  0  0  0  0  0  0
  141.7390   81.6640  219.2710 C   0  0  0  0  0  0  0  0  0  0  0  0
  141.5680   80.7070  220.2760 C   0  0  0  0  0  0  0  0  0  0  0  0
  141.8972   78.5650  224.9592 H   0  0  0  0  0  0  0  0  0  0  0  0
  140.8440   77.8700  223.6807 H   0  0  0  0  0  0  0  0  0  0  0  0
  142.6061   77.5211  223.6807 H   0  0  0  0  0  0  0  0  0  0  0  0
  142.7685   79.2037  222.2356 H   0  0  0  0  0  0  0  0  0  0  0  0
  142.5889   80.4057  224.9039 H   0  0  0  0  0  0  0  0  0  0  0  0
  143.7684   80.6807  223.5773 H   0  0  0  0  0  0  0  0  0  0  0  0
  142.1975   81.5519  223.5773 H   0  0  0  0  0  0  0  0  0  0  0  0
  140.2362   80.3602  223.3856 H   0  0  0  0  0  0  0  0  0  0  0  0
  140.4770   78.2730  221.1550 H   0  0  0  0  0  0  0  0  0  0  0  0
  136.8366   77.8829  221.4582 H   0  0  0  0  0  0  0  0  0  0  0  0
  138.1903   76.6540  223.5671 H   0  0  0  0  0  0  0  0  0  0  0  0
  137.2227   75.6629  222.5256 H   0  0  0  0  0  0  0  0  0  0  0  0
  140.2898   76.3173  222.2178 H   0  0  0  0  0  0  0  0  0  0  0  0
  138.8270   74.2780  222.9940 H   0  0  0  0  0  0  0  0  0  0  0  0
  139.9519   75.7267  219.8386 H   0  0  0  0  0  0  0  0  0  0  0  0
  138.3629   75.0741  220.0999 H   0  0  0  0  0  0  0  0  0  0  0  0
  139.7362   78.7864  217.6205 H   0  0  0  0  0  0  0  0  0  0  0  0
  140.4612   79.0162  219.2707 H   0  0  0  0  0  0  0  0  0  0  0  0
  140.4380   76.3930  217.7350 H   0  0  0  0  0  0  0  0  0  0  0  0
  141.4340   74.9498  217.6870 H   0  0  0  0  0  0  0  0  0  0  0  0
  142.8036   72.8730  217.4886 H   0  0  0  0  0  0  0  0  0  0  0  0
  144.6330   71.5385  218.2369 H   0  0  0  0  0  0  0  0  0  0  0  0
  147.0911   72.9390  221.4630 H   0  0  0  0  0  0  0  0  0  0  0  0
  145.6966   74.9971  221.6217 H   0  0  0  0  0  0  0  0  0  0  0  0
  139.9503   82.5659  222.5748 H   0  0  0  0  0  0  0  0  0  0  0  0
  140.2346   84.2807  220.8259 H   0  0  0  0  0  0  0  0  0  0  0  0
  142.2482   81.4037  218.3313 H   0  0  0  0  0  0  0  0  0  0  0  0
  141.9484   79.6868  220.1195 H   0  0  0  0  0  0  0  0  0  0  0  0
  1  2  1  0
  2  3  1  0
  2  4  1  0
  4  5  1  0
  5  6  1  0
  6  7  2  0
  6  8  1  0
  8  9  1  0
  9 10  1  0
 10 11  1  0
 10 12  1  0
 12 13  1  0
 13 14  1  0
 14 15  2  0
 14 16  1  0
 16 17  1  0
 17 18  1  0
 18 19  2  0
 18 20  1  0
 20 21  2  0
 21 22  1  0
 22 23  2  0
 23 24  1  0
 24 25  2  0
 25 26  1  0
 25 27  1  0
 27 28  2  0
 28 29  1  0
 29 30  2  0
  4 31  1  0
 31 32  2  0
 32 33  1  0
 33 34  2  0
 34 35  1  0
 34 36  1  0
 36 37  2  0
 13  8  1  0
 30 20  1  0
 37 31  1  0
 29 23  1  0
  1 38  1  0
  1 39  1  0
  1 40  1  0
  2 41  1  0
  3 42  1  0
  3 43  1  0
  3 44  1  0
  4 45  1  1
  5 46  1  0
  8 47  1  6
  9 48  1  0
  9 49  1  0
 10 50  1  6
 11 51  1  0
 12 52  1  0
 12 53  1  0
 16 54  1  0
 16 55  1  0
 17 56  1  0
 21 57  1  0
 22 58  1  0
 24 59  1  0
 27 60  1  0
 28 61  1  0
 32 62  1  0
 33 63  1  0
 36 64  1  0
 37 65  1  0
M  END
>  <smiles>  (4) 
CC(C)C(NC(=O)[C@@H]1C[C@@H](O)CN1C(=O)CNC(=O)c1ccc2cc(F)ccc2n1)c1ccc(Cl)cc1

>  <score_type>  (4) 
oracle

>  <origin>  (4) 
autodockgpu

>  <m_score__min__energy>  (4) 
-9.9700000000000006

>  <m_primary>  (4) 
energy

>  <meeko>  (4) 
{"free_energy": -7.16, "intermolecular_energy": -9.85, "internal_energy": -3.86, "cluster_size": 1, "cluster_id": 5, "rank_in_cluster": 1}

>  <energy>  (4) 
-9.44

>  <cluster_rmsd>  (4) 
0.0

>  <rmsd>  (4) 
270.59

>  <cluster>  (4) 
2

$$$$

     RDKit          3D

 65 68  0  0  1  0  0  0  0  0999 V2000
  137.9690   77.2580  220.4610 C   0  0  0  0  0  0  0  0  0  0  0  0
  138.0120   77.0190  221.9390 C   0  0  0  0  0  0  0  0  0  0  0  0
  137.5480   78.2190  222.7070 C   0  0  0  0  0  0  0  0  0  0  0  0
  139.4220   76.7250  222.3370 C   0  0  2  0  0  0  0  0  0  0  0  0
  140.3650   77.6880  221.7510 N   0  0  0  0  0  0  0  0  0  0  0  0
  141.3600   78.2540  222.5820 C   0  0  0  0  0  0  0  0  0  0  0  0
  141.4560   77.9480  223.8180 O   0  0  0  0  0  0  0  0  0  0  0  0
  142.3270   79.2310  222.0080 C   0  0  2  0  0  0  0  0  0  0  0  0
  142.9430   79.9500  223.2070 C   0  0  0  0  0  0  0  0  0  0  0  0
  141.9160   81.0680  223.4120 C   0  0  1  0  0  0  0  0  0  0  0  0
  142.4040   82.0530  224.2490 O   0  0  0  0  0  0  0  0  0  0  0  0
  141.7460   81.5380  221.9820 C   0  0  0  0  0  0  0  0  0  0  0  0
  141.5860   80.2710  221.2920 N   0  0  0  0  0  0  0  0  0  0  0  0
  140.8500   79.9830  220.1110 C   0  0  0  0  0  0  0  0  0  0  0  0
  139.6110   79.8600  220.0630 O   0  0  0  0  0  0  0  0  0  0  0  0
  141.6140   79.8170  218.8510 C   0  0  0  0  0  0  0  0  0  0  0  0
  142.4960   78.6780  218.8950 N   0  0  0  0  0  0  0  0  0  0  0  0
  141.8870   77.3840  218.8270 C   0  0  0  0  0  0  0  0  0  0  0  0
  140.6230   77.3830  218.7350 O   0  0  0  0  0  0  0  0  0  0  0  0
  142.6740   76.1610  218.8630 C   0  0  0  0  0  0  0  0  0  0  0  0
  142.4480   75.2270  217.8760 C   0  0  0  0  0  0  0  0  0  0  0  0
  143.1630   74.0300  217.8440 C   0  0  0  0  0  0  0  0  0  0  0  0
  144.1060   73.7900  218.8180 C   0  0  0  0  0  0  0  0  0  0  0  0
  144.8220   72.6080  218.7980 C   0  0  0  0  0  0  0  0  0  0  0  0
  145.7650   72.3600  219.7680 C   0  0  0  0  0  0  0  0  0  0  0  0
  146.4500   71.1960  219.7230 F   0  0  0  0  0  0  0  0  0  0  0  0
  145.9780   73.3100  220.7510 C   0  0  0  0  0  0  0  0  0  0  0  0
  145.2460   74.4980  220.7550 C   0  0  0  0  0  0  0  0  0  0  0  0
  144.3090   74.7350  219.7850 C   0  0  0  0  0  0  0  0  0  0  0  0
  143.6010   75.8990  219.8020 N   0  0  0  0  0  0  0  0  0  0  0  0
  139.8750   75.3780  221.8750 C   0  0  0  0  0  0  0  0  0  0  0  0
  141.1970   75.1040  221.6010 C   0  0  0  0  0  0  0  0  0  0  0  0
  141.5980   73.8550  221.1770 C   0  0  0  0  0  0  0  0  0  0  0  0
  140.6710   72.8490  221.0160 C   0  0  0  0  0  0  0  0  0  0  0  0
  141.1240   71.2310  220.4760 Cl  0  0  0  0  0  0  0  0  0  0  0  0
  139.3280   73.0920  221.2840 C   0  0  0  0  0  0  0  0  0  0  0  0
  138.9470   74.3670  221.7140 C   0  0  0  0  0  0  0  0  0  0  0  0
  137.7773   78.3237  220.2673 H   0  0  0  0  0  0  0  0  0  0  0  0
  138.9330   76.9719  220.0151 H   0  0  0  0  0  0  0  0  0  0  0  0
  137.1651   76.6539  220.0151 H   0  0  0  0  0  0  0  0  0  0  0  0
  137.3438   76.1759  222.1685 H   0  0  0  0  0  0  0  0  0  0  0  0
  137.6262   78.0169  223.7854 H   0  0  0  0  0  0  0  0  0  0  0  0
  138.1763   79.0845  222.4497 H   0  0  0  0  0  0  0  0  0  0  0  0
  136.5009   78.4367  222.4497 H   0  0  0  0  0  0  0  0  0  0  0  0
  139.4207   76.7807  223.4356 H   0  0  0  0  0  0  0  0  0  0  0  0
  140.2910   77.9390  220.7410 H   0  0  0  0  0  0  0  0  0  0  0  0
  143.0511   78.7254  221.3522 H   0  0  0  0  0  0  0  0  0  0  0  0
  143.0095   79.2921  224.0861 H   0  0  0  0  0  0  0  0  0  0  0  0
  143.9763   80.2956  223.0559 H   0  0  0  0  0  0  0  0  0  0  0  0
  140.9768   80.7657  223.8984 H   0  0  0  0  0  0  0  0  0  0  0  0
  143.3750   81.8330  224.4060 H   0  0  0  0  0  0  0  0  0  0  0  0
  140.8562   82.1748  221.8690 H   0  0  0  0  0  0  0  0  0  0  0  0
  142.5737   82.1577  221.6066 H   0  0  0  0  0  0  0  0  0  0  0  0
  140.9042   79.6835  218.0213 H   0  0  0  0  0  0  0  0  0  0  0  0
  142.2310   80.7166  218.7093 H   0  0  0  0  0  0  0  0  0  0  0  0
  143.5450   78.7600  218.9740 H   0  0  0  0  0  0  0  0  0  0  0  0
  141.6927   75.4282  217.1020 H   0  0  0  0  0  0  0  0  0  0  0  0
  142.9764   73.2890  217.0527 H   0  0  0  0  0  0  0  0  0  0  0  0
  144.6378   71.8662  218.0069 H   0  0  0  0  0  0  0  0  0  0  0  0
  146.7288   73.1277  221.5340 H   0  0  0  0  0  0  0  0  0  0  0  0
  145.4224   75.2473  221.5407 H   0  0  0  0  0  0  0  0  0  0  0  0
  141.9482   75.8982  221.7231 H   0  0  0  0  0  0  0  0  0  0  0  0
  142.6603   73.6614  220.9669 H   0  0  0  0  0  0  0  0  0  0  0  0
  138.5792   72.2958  221.1600 H   0  0  0  0  0  0  0  0  0  0  0  0
  137.8872   74.5691  221.9284 H   0  0  0  0  0  0  0  0  0  0  0  0
  1  2  1  0
  2  3  1  0
  2  4  1  0
  4  5  1  0
  5  6  1  0
  6  7  2  0
  6  8  1  0
  8  9  1  0
  9 10  1  0
 10 11  1  0
 10 12  1  0
 12 13  1  0
 13 14  1  0
 14 15  2  0
 14 16  1  0
 16 17  1  0
 17 18  1  0
 18 19  2  0
 18 20  1  0
 20 21  2  0
 21 22  1  0
 22 23  2  0
 23 24  1  0
 24 25  2  0
 25 26  1  0
 25 27  1  0
 27 28  2  0
 28 29  1  0
 29 30  2  0
  4 31  1  0
 31 32  2  0
 32 33  1  0
 33 34  2  0
 34 35  1  0
 34 36  1  0
 36 37  2  0
 13  8  1  0
 30 20  1  0
 37 31  1  0
 29 23  1  0
  1 38  1  0
  1 39  1  0
  1 40  1  0
  2 41  1  0
  3 42  1  0
  3 43  1  0
  3 44  1  0
  4 45  1  1
  5 46  1  0
  8 47  1  6
  9 48  1  0
  9 49  1  0
 10 50  1  1
 11 51  1  0
 12 52  1  0
 12 53  1  0
 16 54  1  0
 16 55  1  0
 17 56  1  0
 21 57  1  0
 22 58  1  0
 24 59  1  0
 27 60  1  0
 28 61  1  0
 32 62  1  0
 33 63  1  0
 36 64  1  0
 37 65  1  0
M  END
>  <smiles>  (5) 
CC(C)C(NC(=O)[C@@H]1C[C@@H](O)CN1C(=O)CNC(=O)c1ccc2cc(F)ccc2n1)c1ccc(Cl)cc1

>  <score_type>  (5) 
oracle

>  <origin>  (5) 
autodockgpu

>  <m_score__min__energy>  (5) 
-9.9700000000000006

>  <m_primary>  (5) 
energy

>  <meeko>  (5) 
{"free_energy": -6.64, "intermolecular_energy": -9.32, "internal_energy": -5.31, "cluster_size": 5, "cluster_id": 7, "rank_in_cluster": 2}

>  <energy>  (5) 
-9.34

>  <cluster_rmsd>  (5) 
0.12

>  <rmsd>  (5) 
270.57

>  <cluster>  (5) 
2

$$$$

     RDKit          3D

 65 68  0  0  1  0  0  0  0  0999 V2000
  143.3940   80.1770  222.7220 C   0  0  0  0  0  0  0  0  0  0  0  0
  141.9650   80.4870  223.0440 C   0  0  0  0  0  0  0  0  0  0  0  0
  141.8510   81.4070  224.2220 C   0  0  0  0  0  0  0  0  0  0  0  0
  141.2600   79.2130  223.3760 C   0  0  2  0  0  0  0  0  0  0  0  0
  141.6280   78.1300  222.4520 N   0  0  0  0  0  0  0  0  0  0  0  0
  141.5470   78.3700  221.0610 C   0  0  0  0  0  0  0  0  0  0  0  0
  141.1660   79.4960  220.5940 O   0  0  0  0  0  0  0  0  0  0  0  0
  141.9160   77.2860  220.1080 C   0  0  2  0  0  0  0  0  0  0  0  0
  141.8650   77.9260  218.7210 C   0  0  0  0  0  0  0  0  0  0  0  0
  140.3830   77.7330  218.3860 C   0  0  1  0  0  0  0  0  0  0  0  0
  140.1380   77.9500  217.0440 O   0  0  0  0  0  0  0  0  0  0  0  0
  140.2050   76.2850  218.7920 C   0  0  0  0  0  0  0  0  0  0  0  0
  140.8510   76.2810  220.0920 N   0  0  0  0  0  0  0  0  0  0  0  0
  140.5680   75.4760  221.2280 C   0  0  0  0  0  0  0  0  0  0  0  0
  141.0740   75.6420  222.3550 O   0  0  0  0  0  0  0  0  0  0  0  0
  139.6060   74.3610  221.0560 C   0  0  0  0  0  0  0  0  0  0  0  0
  139.4450   73.5890  222.2620 N   0  0  0  0  0  0  0  0  0  0  0  0
  140.2420   72.4070  222.3860 C   0  0  0  0  0  0  0  0  0  0  0  0
  141.0130   72.1670  221.4080 O   0  0  0  0  0  0  0  0  0  0  0  0
  140.1660   71.5470  223.5570 C   0  0  0  0  0  0  0  0  0  0  0  0
  139.5650   70.3170  223.4090 C   0  0  0  0  0  0  0  0  0  0  0  0
  139.4560   69.4380  224.4860 C   0  0  0  0  0  0  0  0  0  0  0  0
  139.9590   69.8170  225.7110 C   0  0  0  0  0  0  0  0  0  0  0  0
  139.8560   68.9550  226.7860 C   0  0  0  0  0  0  0  0  0  0  0  0
  140.3560   69.3270  228.0130 C   0  0  0  0  0  0  0  0  0  0  0  0
  140.2420   68.4640  229.0470 F   0  0  0  0  0  0  0  0  0  0  0  0
  140.9560   70.5660  228.1420 C   0  0  0  0  0  0  0  0  0  0  0  0
  141.0510   71.4240  227.0450 C   0  0  0  0  0  0  0  0  0  0  0  0
  140.5500   71.0440  225.8280 C   0  0  0  0  0  0  0  0  0  0  0  0
  140.6480   71.8910  224.7660 N   0  0  0  0  0  0  0  0  0  0  0  0
  139.7750   79.3430  223.2810 C   0  0  0  0  0  0  0  0  0  0  0  0
  139.1130   80.4870  223.6700 C   0  0  0  0  0  0  0  0  0  0  0  0
  137.7410   80.5910  223.5760 C   0  0  0  0  0  0  0  0  0  0  0  0
  137.0000   79.5380  223.0860 C   0  0  0  0  0  0  0  0  0  0  0  0
  135.2430   79.6110  222.9420 Cl  0  0  0  0  0  0  0  0  0  0  0  0
  137.6370   78.3680  222.6850 C   0  0  0  0  0  0  0  0  0  0  0  0
  139.0290   78.2880  222.7900 C   0  0  0  0  0  0  0  0  0  0  0  0
  143.9619   80.0538  223.6560 H   0  0  0  0  0  0  0  0  0  0  0  0
  143.4446   79.2470  222.1367 H   0  0  0  0  0  0  0  0  0  0  0  0
  143.8254   81.0025  222.1367 H   0  0  0  0  0  0  0  0  0  0  0  0
  141.5166   80.9797  222.1687 H   0  0  0  0  0  0  0  0  0  0  0  0
  141.9233   80.8232  225.1515 H   0  0  0  0  0  0  0  0  0  0  0  0
  142.6643   82.1469  224.1895 H   0  0  0  0  0  0  0  0  0  0  0  0
  140.8817   81.9260  224.1895 H   0  0  0  0  0  0  0  0  0  0  0  0
  141.5666   78.9834  224.4072 H   0  0  0  0  0  0  0  0  0  0  0  0
  141.9400   77.2090  222.8300 H   0  0  0  0  0  0  0  0  0  0  0  0
  142.8865   76.8432  220.3763 H   0  0  0  0  0  0  0  0  0  0  0  0
  142.1398   78.9906  218.7535 H   0  0  0  0  0  0  0  0  0  0  0  0
  142.5630   77.4945  217.9885 H   0  0  0  0  0  0  0  0  0  0  0  0
  139.6901   78.4263  218.8852 H   0  0  0  0  0  0  0  0  0  0  0  0
  140.8610   78.5750  216.7230 H   0  0  0  0  0  0  0  0  0  0  0  0
  139.1415   76.0146  218.8685 H   0  0  0  0  0  0  0  0  0  0  0  0
  140.6197   75.5591  218.0771 H   0  0  0  0  0  0  0  0  0  0  0  0
  138.6291   74.7773  220.7690 H   0  0  0  0  0  0  0  0  0  0  0  0
  140.0009   73.6919  220.2773 H   0  0  0  0  0  0  0  0  0  0  0  0
  138.7780   73.8550  223.0350 H   0  0  0  0  0  0  0  0  0  0  0  0
  139.1652   70.0236  222.4271 H   0  0  0  0  0  0  0  0  0  0  0  0
  138.9755   68.4566  224.3592 H   0  0  0  0  0  0  0  0  0  0  0  0
  139.3753   67.9735  226.6613 H   0  0  0  0  0  0  0  0  0  0  0  0
  141.3613   70.8778  229.1159 H   0  0  0  0  0  0  0  0  0  0  0  0
  141.5295   72.4080  227.1581 H   0  0  0  0  0  0  0  0  0  0  0  0
  139.6913   81.3357  224.0640 H   0  0  0  0  0  0  0  0  0  0  0  0
  137.2375   81.5163  223.8928 H   0  0  0  0  0  0  0  0  0  0  0  0
  137.0558   77.5207  222.2922 H   0  0  0  0  0  0  0  0  0  0  0  0
  139.5409   77.3666  222.4754 H   0  0  0  0  0  0  0  0  0  0  0  0
  1  2  1  0
  2  3  1  0
  2  4  1  0
  4  5  1  0
  5  6  1  0
  6  7  2  0
  6  8  1  0
  8  9  1  0
  9 10  1  0
 10 11  1  0
 10 12  1  0
 12 13  1  0
 13 14  1  0
 14 15  2  0
 14 16  1  0
 16 17  1  0
 17 18  1  0
 18 19  2  0
 18 20  1  0
 20 21  2  0
 21 22  1  0
 22 23  2  0
 23 24  1  0
 24 25  2  0
 25 26  1  0
 25 27  1  0
 27 28  2  0
 28 29  1  0
 29 30  2  0
  4 31  1  0
 31 32  2  0
 32 33  1  0
 33 34  2  0
 34 35  1  0
 34 36  1  0
 36 37  2  0
 13  8  1  0
 30 20  1  0
 37 31  1  0
 29 23  1  0
  1 38  1  0
  1 39  1  0
  1 40  1  0
  2 41  1  0
  3 42  1  0
  3 43  1  0
  3 44  1  0
  4 45  1  1
  5 46  1  0
  8 47  1  1
  9 48  1  0
  9 49  1  0
 10 50  1  1
 11 51  1  0
 12 52  1  0
 12 53  1  0
 16 54  1  0
 16 55  1  0
 17 56  1  0
 21 57  1  0
 22 58  1  0
 24 59  1  0
 27 60  1  0
 28 61  1  0
 32 62  1  0
 33 63  1  0
 36 64  1  0
 37 65  1  0
M  END
>  <smiles>  (6) 
CC(C)C(NC(=O)[C@@H]1C[C@@H](O)CN1C(=O)CNC(=O)c1ccc2cc(F)ccc2n1)c1ccc(Cl)cc1

>  <score_type>  (6) 
oracle

>  <origin>  (6) 
autodockgpu

>  <m_score__min__energy>  (6) 
-9.9700000000000006

>  <m_primary>  (6) 
energy

>  <meeko>  (6) 
{"free_energy": -9.44, "intermolecular_energy": -12.12, "internal_energy": -2.54, "cluster_size": 3, "cluster_id": 2, "rank_in_cluster": 1}

>  <energy>  (6) 
-9.21

>  <cluster_rmsd>  (6) 
0.46

>  <rmsd>  (6) 
270.65

>  <cluster>  (6) 
2

$$$$

     RDKit          3D

 65 68  0  0  1  0  0  0  0  0999 V2000
  139.5140   76.4470  218.7350 C   0  0  0  0  0  0  0  0  0  0  0  0
  139.8950   77.7600  219.3460 C   0  0  0  0  0  0  0  0  0  0  0  0
  139.7840   78.8820  218.3580 C   0  0  0  0  0  0  0  0  0  0  0  0
  141.3130   77.6810  219.8080 C   0  0  2  0  0  0  0  0  0  0  0  0
  141.6240   76.3680  220.3910 N   0  0  0  0  0  0  0  0  0  0  0  0
  142.6590   75.5990  219.8120 C   0  0  0  0  0  0  0  0  0  0  0  0
  143.3240   76.0160  218.8030 O   0  0  0  0  0  0  0  0  0  0  0  0
  142.9920   74.2650  220.3870 C   0  0  2  0  0  0  0  0  0  0  0  0
  144.5160   74.2250  220.4720 C   0  0  0  0  0  0  0  0  0  0  0  0
  144.8550   73.7160  219.0670 C   0  0  1  0  0  0  0  0  0  0  0  0
  146.1670   73.2930  218.9870 O   0  0  0  0  0  0  0  0  0  0  0  0
  143.8590   72.5800  218.9490 C   0  0  0  0  0  0  0  0  0  0  0  0
  142.6460   73.2270  219.4150 N   0  0  0  0  0  0  0  0  0  0  0  0
  141.2980   72.9680  219.0470 C   0  0  0  0  0  0  0  0  0  0  0  0
  140.8610   73.0190  217.8810 O   0  0  0  0  0  0  0  0  0  0  0  0
  140.3480   72.6160  220.1300 C   0  0  0  0  0  0  0  0  0  0  0  0
  139.4230   73.6840  220.4130 N   0  0  0  0  0  0  0  0  0  0  0  0
  139.6720   74.4610  221.5890 C   0  0  0  0  0  0  0  0  0  0  0  0
  140.6920   74.1200  222.2600 O   0  0  0  0  0  0  0  0  0  0  0  0
  138.8080   75.5650  221.9780 C   0  0  0  0  0  0  0  0  0  0  0  0
  137.4500   75.3340  222.0080 C   0  0  0  0  0  0  0  0  0  0  0  0
  136.5590   76.3440  222.3720 C   0  0  0  0  0  0  0  0  0  0  0  0
  137.0550   77.5850  222.7030 C   0  0  0  0  0  0  0  0  0  0  0  0
  136.1830   78.5930  223.0640 C   0  0  0  0  0  0  0  0  0  0  0  0
  136.6710   79.8360  223.3960 C   0  0  0  0  0  0  0  0  0  0  0  0
  135.7940   80.8040  223.7460 F   0  0  0  0  0  0  0  0  0  0  0  0
  138.0370   80.0490  223.3600 C   0  0  0  0  0  0  0  0  0  0  0  0
  138.9030   79.0180  222.9920 C   0  0  0  0  0  0  0  0  0  0  0  0
  138.4070   77.7850  222.6640 C   0  0  0  0  0  0  0  0  0  0  0  0
  139.2640   76.7880  222.3060 N   0  0  0  0  0  0  0  0  0  0  0  0
  141.6210   78.6830  220.8720 C   0  0  0  0  0  0  0  0  0  0  0  0
  141.7050   80.0330  220.6060 C   0  0  0  0  0  0  0  0  0  0  0  0
  141.9910   80.9450  221.6010 C   0  0  0  0  0  0  0  0  0  0  0  0
  142.2000   80.5150  222.8930 C   0  0  0  0  0  0  0  0  0  0  0  0
  142.5690   81.6340  224.2070 Cl  0  0  0  0  0  0  0  0  0  0  0  0
  142.1230   79.1600  223.1960 C   0  0  0  0  0  0  0  0  0  0  0  0
  141.8310   78.2550  222.1700 C   0  0  0  0  0  0  0  0  0  0  0  0
  139.3028   75.7191  219.5322 H   0  0  0  0  0  0  0  0  0  0  0  0
  138.6171   76.5790  218.1120 H   0  0  0  0  0  0  0  0  0  0  0  0
  140.3422   76.0784  218.1120 H   0  0  0  0  0  0  0  0  0  0  0  0
  139.2094   77.9601  220.1826 H   0  0  0  0  0  0  0  0  0  0  0  0
  139.6896   79.8366  218.8963 H   0  0  0  0  0  0  0  0  0  0  0  0
  140.6843   78.9048  217.7264 H   0  0  0  0  0  0  0  0  0  0  0  0
  138.8967   78.7279  217.7264 H   0  0  0  0  0  0  0  0  0  0  0  0
  141.9128   77.8722  218.9060 H   0  0  0  0  0  0  0  0  0  0  0  0
  141.0850   76.0250  221.2150 H   0  0  0  0  0  0  0  0  0  0  0  0
  142.4735   74.1112  221.3448 H   0  0  0  0  0  0  0  0  0  0  0  0
  144.9397   75.2232  220.6565 H   0  0  0  0  0  0  0  0  0  0  0  0
  144.9155   73.6115  221.2929 H   0  0  0  0  0  0  0  0  0  0  0  0
  144.7811   74.4620  218.2620 H   0  0  0  0  0  0  0  0  0  0  0  0
  146.7300   74.1280  218.9360 H   0  0  0  0  0  0  0  0  0  0  0  0
  143.7596   72.2361  217.9089 H   0  0  0  0  0  0  0  0  0  0  0  0
  144.1346   71.6747  219.5097 H   0  0  0  0  0  0  0  0  0  0  0  0
  139.7783   71.7256  219.8256 H   0  0  0  0  0  0  0  0  0  0  0  0
  140.9324   72.4257  221.0423 H   0  0  0  0  0  0  0  0  0  0  0  0
  138.5920   73.9070  219.8030 H   0  0  0  0  0  0  0  0  0  0  0  0
  137.0630   74.3395  221.7413 H   0  0  0  0  0  0  0  0  0  0  0  0
  135.4762   76.1517  222.3942 H   0  0  0  0  0  0  0  0  0  0  0  0
  135.0998   78.4026  223.0861 H   0  0  0  0  0  0  0  0  0  0  0  0
  138.4434   81.0368  223.6229 H   0  0  0  0  0  0  0  0  0  0  0  0
  139.9880   79.1970  222.9655 H   0  0  0  0  0  0  0  0  0  0  0  0
  141.5406   80.3906  219.5789 H   0  0  0  0  0  0  0  0  0  0  0  0
  142.0522   82.0170  221.3623 H   0  0  0  0  0  0  0  0  0  0  0  0
  142.2888   78.8061  224.2242 H   0  0  0  0  0  0  0  0  0  0  0  0
  141.7671   77.1813  222.4004 H   0  0  0  0  0  0  0  0  0  0  0  0
  1  2  1  0
  2  3  1  0
  2  4  1  0
  4  5  1  0
  5  6  1  0
  6  7  2  0
  6  8  1  0
  8  9  1  0
  9 10  1  0
 10 11  1  0
 10 12  1  0
 12 13  1  0
 13 14  1  0
 14 15  2  0
 14 16  1  0
 16 17  1  0
 17 18  1  0
 18 19  2  0
 18 20  1  0
 20 21  2  0
 21 22  1  0
 22 23  2  0
 23 24  1  0
 24 25  2  0
 25 26  1  0
 25 27  1  0
 27 28  2  0
 28 29  1  0
 29 30  2  0
  4 31  1  0
 31 32  2  0
 32 33  1  0
 33 34  2  0
 34 35  1  0
 34 36  1  0
 36 37  2  0
 13  8  1  0
 30 20  1  0
 37 31  1  0
 29 23  1  0
  1 38  1  0
  1 39  1  0
  1 40  1  0
  2 41  1  0
  3 42  1  0
  3 43  1  0
  3 44  1  0
  4 45  1  6
  5 46  1  0
  8 47  1  1
  9 48  1  0
  9 49  1  0
 10 50  1  6
 11 51  1  0
 12 52  1  0
 12 53  1  0
 16 54  1  0
 16 55  1  0
 17 56  1  0
 21 57  1  0
 22 58  1  0
 24 59  1  0
 27 60  1  0
 28 61  1  0
 32 62  1  0
 33 63  1  0
 36 64  1  0
 37 65  1  0
M  END
>  <smiles>  (7) 
CC(C)C(NC(=O)[C@@H]1C[C@@H](O)CN1C(=O)CNC(=O)c1ccc2cc(F)ccc2n1)c1ccc(Cl)cc1

>  <score_type>  (7) 
oracle

>  <origin>  (7) 
autodockgpu

>  <m_score__min__energy>  (7) 
-9.9700000000000006

>  <m_primary>  (7) 
energy

>  <meeko>  (7) 
{"free_energy": -7.12, "intermolecular_energy": -9.8, "internal_energy": -4.96, "cluster_size": 2, "cluster_id": 6, "rank_in_cluster": 1}

>  <energy>  (7) 
-8.98

>  <cluster_rmsd>  (7) 
0.0

>  <rmsd>  (7) 
269.93

>  <cluster>  (7) 
3

$$$$

     RDKit          3D

 65 68  0  0  1  0  0  0  0  0999 V2000
  138.3250   75.2790  221.1300 C   0  0  0  0  0  0  0  0  0  0  0  0
  139.0860   76.1970  222.0350 C   0  0  0  0  0  0  0  0  0  0  0  0
  138.1780   77.1630  222.7350 C   0  0  0  0  0  0  0  0  0  0  0  0
  140.0600   76.9800  221.2170 C   0  0  2  0  0  0  0  0  0  0  0  0
  141.1770   76.1450  220.7520 N   0  0  0  0  0  0  0  0  0  0  0  0
  141.9540   76.5990  219.6620 C   0  0  0  0  0  0  0  0  0  0  0  0
  141.7110   77.7100  219.0790 O   0  0  0  0  0  0  0  0  0  0  0  0
  143.0910   75.7690  219.1750 C   0  0  2  0  0  0  0  0  0  0  0  0
  143.3750   76.2550  217.7550 C   0  0  0  0  0  0  0  0  0  0  0  0
  142.3880   75.3880  216.9670 C   0  0  1  0  0  0  0  0  0  0  0  0
  142.6650   75.4120  215.6140 O   0  0  0  0  0  0  0  0  0  0  0  0
  142.6560   74.0380  217.6010 C   0  0  0  0  0  0  0  0  0  0  0  0
  142.6360   74.3870  219.0100 N   0  0  0  0  0  0  0  0  0  0  0  0
  142.2540   73.5900  220.1230 C   0  0  0  0  0  0  0  0  0  0  0  0
  142.8560   73.5630  221.2130 O   0  0  0  0  0  0  0  0  0  0  0  0
  141.0540   72.7320  219.9700 C   0  0  0  0  0  0  0  0  0  0  0  0
  140.8860   71.8270  221.0800 N   0  0  0  0  0  0  0  0  0  0  0  0
  140.5140   72.4040  222.3350 C   0  0  0  0  0  0  0  0  0  0  0  0
  140.3700   73.6640  222.3320 O   0  0  0  0  0  0  0  0  0  0  0  0
  140.3150   71.5930  223.5260 C   0  0  0  0  0  0  0  0  0  0  0  0
  139.6050   70.4210  223.3900 C   0  0  0  0  0  0  0  0  0  0  0  0
  139.3740   69.5900  224.4870 C   0  0  0  0  0  0  0  0  0  0  0  0
  139.8680   69.9580  225.7180 C   0  0  0  0  0  0  0  0  0  0  0  0
  139.6470   69.1450  226.8130 C   0  0  0  0  0  0  0  0  0  0  0  0
  140.1370   69.5060  228.0460 C   0  0  0  0  0  0  0  0  0  0  0  0
  139.9050   68.6900  229.0990 F   0  0  0  0  0  0  0  0  0  0  0  0
  140.8480   70.6860  228.1640 C   0  0  0  0  0  0  0  0  0  0  0  0
  141.0620   71.4960  227.0460 C   0  0  0  0  0  0  0  0  0  0  0  0
  140.5700   71.1270  225.8230 C   0  0  0  0  0  0  0  0  0  0  0  0
  140.7860   71.9270  224.7420 N   0  0  0  0  0  0  0  0  0  0  0  0
  140.6810   78.0990  221.9870 C   0  0  0  0  0  0  0  0  0  0  0  0
  141.3530   77.8890  223.1720 C   0  0  0  0  0  0  0  0  0  0  0  0
  141.9210   78.9330  223.8710 C   0  0  0  0  0  0  0  0  0  0  0  0
  141.8230   80.2200  223.3900 C   0  0  0  0  0  0  0  0  0  0  0  0
  142.5290   81.5970  224.2390 Cl  0  0  0  0  0  0  0  0  0  0  0  0
  141.1520   80.4680  222.1970 C   0  0  0  0  0  0  0  0  0  0  0  0
  140.5850   79.3910  221.5070 C   0  0  0  0  0  0  0  0  0  0  0  0
  137.7385   74.5715  221.7344 H   0  0  0  0  0  0  0  0  0  0  0  0
  137.6472   75.8687  220.4953 H   0  0  0  0  0  0  0  0  0  0  0  0
  139.0301   74.7223  220.4953 H   0  0  0  0  0  0  0  0  0  0  0  0
  139.5963   75.5835  222.7921 H   0  0  0  0  0  0  0  0  0  0  0  0
  138.2876   77.0464  223.8233 H   0  0  0  0  0  0  0  0  0  0  0  0
  138.4445   78.1908  222.4476 H   0  0  0  0  0  0  0  0  0  0  0  0
  137.1357   76.9605  222.4476 H   0  0  0  0  0  0  0  0  0  0  0  0
  139.4691   77.3672  220.3739 H   0  0  0  0  0  0  0  0  0  0  0  0
  141.3790   75.2380  221.2260 H   0  0  0  0  0  0  0  0  0  0  0  0
  143.9461   75.8349  219.8638 H   0  0  0  0  0  0  0  0  0  0  0  0
  143.1567   77.3270  217.6404 H   0  0  0  0  0  0  0  0  0  0  0  0
  144.4242   76.1628  217.4378 H   0  0  0  0  0  0  0  0  0  0  0  0
  141.3357   75.7048  217.0152 H   0  0  0  0  0  0  0  0  0  0  0  0
  143.1150   76.2960  215.4340 H   0  0  0  0  0  0  0  0  0  0  0  0
  141.8682   73.3114  217.3532 H   0  0  0  0  0  0  0  0  0  0  0  0
  143.5859   73.5553  217.2658 H   0  0  0  0  0  0  0  0  0  0  0  0
  140.1648   73.3758  219.9002 H   0  0  0  0  0  0  0  0  0  0  0  0
  141.1842   72.1288  219.0594 H   0  0  0  0  0  0  0  0  0  0  0  0
  141.0260   70.7840  221.0030 H   0  0  0  0  0  0  0  0  0  0  0  0
  139.2142   70.1356  222.4022 H   0  0  0  0  0  0  0  0  0  0  0  0
  138.8059   68.6553  224.3698 H   0  0  0  0  0  0  0  0  0  0  0  0
  139.0795   68.2097  226.6985 H   0  0  0  0  0  0  0  0  0  0  0  0
  141.2473   70.9886  229.1433 H   0  0  0  0  0  0  0  0  0  0  0  0
  141.6279   72.4337  227.1489 H   0  0  0  0  0  0  0  0  0  0  0  0
  141.4380   76.8665  223.5686 H   0  0  0  0  0  0  0  0  0  0  0  0
  142.4530   78.7379  224.8138 H   0  0  0  0  0  0  0  0  0  0  0  0
  141.0687   81.4918  221.8034 H   0  0  0  0  0  0  0  0  0  0  0  0
  140.0518   79.5767  220.5629 H   0  0  0  0  0  0  0  0  0  0  0  0
  1  2  1  0
  2  3  1  0
  2  4  1  0
  4  5  1  0
  5  6  1  0
  6  7  2  0
  6  8  1  0
  8  9  1  0
  9 10  1  0
 10 11  1  0
 10 12  1  0
 12 13  1  0
 13 14  1  0
 14 15  2  0
 14 16  1  0
 16 17  1  0
 17 18  1  0
 18 19  2  0
 18 20  1  0
 20 21  2  0
 21 22  1  0
 22 23  2  0
 23 24  1  0
 24 25  2  0
 25 26  1  0
 25 27  1  0
 27 28  2  0
 28 29  1  0
 29 30  2  0
  4 31  1  0
 31 32  2  0
 32 33  1  0
 33 34  2  0
 34 35  1  0
 34 36  1  0
 36 37  2  0
 13  8  1  0
 30 20  1  0
 37 31  1  0
 29 23  1  0
  1 38  1  0
  1 39  1  0
  1 40  1  0
  2 41  1  0
  3 42  1  0
  3 43  1  0
  3 44  1  0
  4 45  1  6
  5 46  1  0
  8 47  1  1
  9 48  1  0
  9 49  1  0
 10 50  1  6
 11 51  1  0
 12 52  1  0
 12 53  1  0
 16 54  1  0
 16 55  1  0
 17 56  1  0
 21 57  1  0
 22 58  1  0
 24 59  1  0
 27 60  1  0
 28 61  1  0
 32 62  1  0
 33 63  1  0
 36 64  1  0
 37 65  1  0
M  END
>  <smiles>  (8) 
CC(C)C(NC(=O)[C@@H]1C[C@@H](O)CN1C(=O)CNC(=O)c1ccc2cc(F)ccc2n1)c1ccc(Cl)cc1

>  <score_type>  (8) 
oracle

>  <origin>  (8) 
autodockgpu

>  <m_score__min__energy>  (8) 
-9.9700000000000006

>  <m_primary>  (8) 
energy

>  <meeko>  (8) 
{"free_energy": -8.6, "intermolecular_energy": -11.29, "internal_energy": -3.54, "cluster_size": 3, "cluster_id": 1, "rank_in_cluster": 3}

>  <energy>  (8) 
-8.29

>  <cluster_rmsd>  (8) 
0.0

>  <rmsd>  (8) 
269.53

>  <cluster>  (8) 
4

$$$$

     RDKit          3D

 65 68  0  0  1  0  0  0  0  0999 V2000
  137.9270   68.9580  221.3890 C   0  0  0  0  0  0  0  0  0  0  0  0
  138.6640   68.5460  222.6260 C   0  0  0  0  0  0  0  0  0  0  0  0
  138.8080   67.0570  222.7140 C   0  0  0  0  0  0  0  0  0  0  0  0
  137.8970   69.0130  223.8190 C   0  0  2  0  0  0  0  0  0  0  0  0
  136.8330   69.9570  223.4480 N   0  0  0  0  0  0  0  0  0  0  0  0
  135.4890   69.5880  223.6820 C   0  0  0  0  0  0  0  0  0  0  0  0
  135.1810   68.4640  224.2040 O   0  0  0  0  0  0  0  0  0  0  0  0
  134.3950   70.5310  223.3150 C   0  0  2  0  0  0  0  0  0  0  0  0
  133.5620   69.8020  222.2620 C   0  0  0  0  0  0  0  0  0  0  0  0
  134.3330   70.1820  220.9930 C   0  0  1  0  0  0  0  0  0  0  0  0
  133.6010   69.9020  219.8560 O   0  0  0  0  0  0  0  0  0  0  0  0
  134.5130   71.6680  221.2280 C   0  0  0  0  0  0  0  0  0  0  0  0
  134.9700   71.6760  222.6060 N   0  0  0  0  0  0  0  0  0  0  0  0
  135.8340   72.5980  223.2570 C   0  0  0  0  0  0  0  0  0  0  0  0
  136.2740   72.4580  224.4140 O   0  0  0  0  0  0  0  0  0  0  0  0
  136.2350   73.8090  222.5020 C   0  0  0  0  0  0  0  0  0  0  0  0
  137.6630   73.8950  222.3280 N   0  0  0  0  0  0  0  0  0  0  0  0
  138.2910   72.8400  221.5920 C   0  0  0  0  0  0  0  0  0  0  0  0
  137.5100   71.9350  221.1680 O   0  0  0  0  0  0  0  0  0  0  0  0
  139.7250   72.8180  221.3520 C   0  0  0  0  0  0  0  0  0  0  0  0
  140.3660   71.6000  221.4250 C   0  0  0  0  0  0  0  0  0  0  0  0
  141.7400   71.4990  221.2060 C   0  0  0  0  0  0  0  0  0  0  0  0
  142.4550   72.6390  220.9140 C   0  0  0  0  0  0  0  0  0  0  0  0
  143.8170   72.5530  220.6960 C   0  0  0  0  0  0  0  0  0  0  0  0
  144.5380   73.6870  220.4040 C   0  0  0  0  0  0  0  0  0  0  0  0
  145.8690   73.5720  220.1950 F   0  0  0  0  0  0  0  0  0  0  0  0
  143.8770   74.9000  220.3350 C   0  0  0  0  0  0  0  0  0  0  0  0
  142.5010   74.9680  220.5590 C   0  0  0  0  0  0  0  0  0  0  0  0
  141.7920   73.8330  220.8480 C   0  0  0  0  0  0  0  0  0  0  0  0
  140.4500   73.9140  221.0650 N   0  0  0  0  0  0  0  0  0  0  0  0
  138.7590   69.7360  224.8030 C   0  0  0  0  0  0  0  0  0  0  0  0
  139.4760   70.8620  224.4610 C   0  0  0  0  0  0  0  0  0  0  0  0
  140.2670   71.5170  225.3810 C   0  0  0  0  0  0  0  0  0  0  0  0
  140.3550   71.0490  226.6740 C   0  0  0  0  0  0  0  0  0  0  0  0
  141.3500   71.8440  227.8950 Cl  0  0  0  0  0  0  0  0  0  0  0  0
  139.6450   69.9150  227.0520 C   0  0  0  0  0  0  0  0  0  0  0  0
  138.8490   69.2690  226.1000 C   0  0  0  0  0  0  0  0  0  0  0  0
  136.9989   69.4768  221.6708 H   0  0  0  0  0  0  0  0  0  0  0  0
  138.5587   69.6338  220.7938 H   0  0  0  0  0  0  0  0  0  0  0  0
  137.6821   68.0659  220.7938 H   0  0  0  0  0  0  0  0  0  0  0  0
  139.6681   68.9939  222.5910 H   0  0  0  0  0  0  0  0  0  0  0  0
  138.8374   66.7533  223.7708 H   0  0  0  0  0  0  0  0  0  0  0  0
  137.9522   66.5759  222.2179 H   0  0  0  0  0  0  0  0  0  0  0  0
  139.7401   66.7488  222.2179 H   0  0  0  0  0  0  0  0  0  0  0  0
  137.4833   68.0953  224.2625 H   0  0  0  0  0  0  0  0  0  0  0  0
  137.0810   70.8770  223.0230 H   0  0  0  0  0  0  0  0  0  0  0  0
  133.8351   70.8468  224.2076 H   0  0  0  0  0  0  0  0  0  0  0  0
  133.5593   68.7144  222.4264 H   0  0  0  0  0  0  0  0  0  0  0  0
  132.4954   70.0709  222.2510 H   0  0  0  0  0  0  0  0  0  0  0  0
  135.2740   69.6365  220.8287 H   0  0  0  0  0  0  0  0  0  0  0  0
  134.1730   70.1830  219.0760 H   0  0  0  0  0  0  0  0  0  0  0  0
  135.2660   72.0961  220.5500 H   0  0  0  0  0  0  0  0  0  0  0  0
  133.6099   72.2690  221.0458 H   0  0  0  0  0  0  0  0  0  0  0  0
  135.7585   73.7823  221.5109 H   0  0  0  0  0  0  0  0  0  0  0  0
  135.9119   74.6883  223.0785 H   0  0  0  0  0  0  0  0  0  0  0  0
  138.2470   74.6850  222.7140 H   0  0  0  0  0  0  0  0  0  0  0  0
  139.7861   70.6951  221.6592 H   0  0  0  0  0  0  0  0  0  0  0  0
  142.2446   70.5234  221.2657 H   0  0  0  0  0  0  0  0  0  0  0  0
  144.3238   71.5785  220.7560 H   0  0  0  0  0  0  0  0  0  0  0  0
  144.4390   75.8165  220.1022 H   0  0  0  0  0  0  0  0  0  0  0  0
  141.9842   75.9374  220.5031 H   0  0  0  0  0  0  0  0  0  0  0  0
  139.4160   71.2465  223.4321 H   0  0  0  0  0  0  0  0  0  0  0  0
  140.8286   72.4144  225.0823 H   0  0  0  0  0  0  0  0  0  0  0  0
  139.7080   69.5325  228.0814 H   0  0  0  0  0  0  0  0  0  0  0  0
  138.2834   68.3712  226.3901 H   0  0  0  0  0  0  0  0  0  0  0  0
  1  2  1  0
  2  3  1  0
  2  4  1  0
  4  5  1  0
  5  6  1  0
  6  7  2  0
  6  8  1  0
  8  9  1  0
  9 10  1  0
 10 11  1  0
 10 12  1  0
 12 13  1  0
 13 14  1  0
 14 15  2  0
 14 16  1  0
 16 17  1  0
 17 18  1  0
 18 19  2  0
 18 20  1  0
 20 21  2  0
 21 22  1  0
 22 23  2  0
 23 24  1  0
 24 25  2  0
 25 26  1  0
 25 27  1  0
 27 28  2  0
 28 29  1  0
 29 30  2  0
  4 31  1  0
 31 32  2  0
 32 33  1  0
 33 34  2  0
 34 35  1  0
 34 36  1  0
 36 37  2  0
 13  8  1  0
 30 20  1  0
 37 31  1  0
 29 23  1  0
  1 38  1  0
  1 39  1  0
  1 40  1  0
  2 41  1  0
  3 42  1  0
  3 43  1  0
  3 44  1  0
  4 45  1  1
  5 46  1  0
  8 47  1  1
  9 48  1  0
  9 49  1  0
 10 50  1  6
 11 51  1  0
 12 52  1  0
 12 53  1  0
 16 54  1  0
 16 55  1  0
 17 56  1  0
 21 57  1  0
 22 58  1  0
 24 59  1  0
 27 60  1  0
 28 61  1  0
 32 62  1  0
 33 63  1  0
 36 64  1  0
 37 65  1  0
M  END
>  <smiles>  (9) 
CC(C)C(NC(=O)[C@@H]1C[C@@H](O)CN1C(=O)CNC(=O)c1ccc2cc(F)ccc2n1)c1ccc(Cl)cc1

>  <score_type>  (9) 
oracle

>  <origin>  (9) 
autodockgpu

>  <m_score__min__energy>  (9) 
-9.9700000000000006

>  <m_primary>  (9) 
energy

>  <meeko>  (9) 
{"free_energy": -6.37, "intermolecular_energy": -9.06, "internal_energy": -4.7, "cluster_size": 1, "cluster_id": 8, "rank_in_cluster": 1}

>  <energy>  (9) 
-7.97

>  <cluster_rmsd>  (9) 
0.57

>  <rmsd>  (9) 
269.56

>  <cluster>  (9) 
4

$$$$

     RDKit          3D

 65 68  0  0  1  0  0  0  0  0999 V2000
  143.6480   80.1380  222.7900 C   0  0  0  0  0  0  0  0  0  0  0  0
  142.2520   80.6130  223.0520 C   0  0  0  0  0  0  0  0  0  0  0  0
  142.1950   81.5450  224.2240 C   0  0  0  0  0  0  0  0  0  0  0  0
  141.3910   79.4300  223.3520 C   0  0  2  0  0  0  0  0  0  0  0  0
  141.7190   78.2840  222.4920 N   0  0  0  0  0  0  0  0  0  0  0  0
  141.6300   78.4420  221.0900 C   0  0  0  0  0  0  0  0  0  0  0  0
  141.2750   79.5490  220.5590 O   0  0  0  0  0  0  0  0  0  0  0  0
  141.9590   77.2940  220.2000 C   0  0  2  0  0  0  0  0  0  0  0  0
  142.0830   77.8850  218.7970 C   0  0  0  0  0  0  0  0  0  0  0  0
  140.6200   77.8310  218.3470 C   0  0  1  0  0  0  0  0  0  0  0  0
  140.5040   78.0240  216.9840 O   0  0  0  0  0  0  0  0  0  0  0  0
  140.2620   76.4230  218.7770 C   0  0  0  0  0  0  0  0  0  0  0  0
  140.8010   76.4010  220.1250 N   0  0  0  0  0  0  0  0  0  0  0  0
  140.3490   75.6700  221.2560 C   0  0  0  0  0  0  0  0  0  0  0  0
  140.3110   76.1170  222.4180 O   0  0  0  0  0  0  0  0  0  0  0  0
  139.8940   74.2760  221.0330 C   0  0  0  0  0  0  0  0  0  0  0  0
  139.7190   73.5550  222.2700 N   0  0  0  0  0  0  0  0  0  0  0  0
  140.3250   72.2620  222.3560 C   0  0  0  0  0  0  0  0  0  0  0  0
  140.9580   71.8880  221.3230 O   0  0  0  0  0  0  0  0  0  0  0  0
  140.2170   71.4400  223.5520 C   0  0  0  0  0  0  0  0  0  0  0  0
  139.5840   70.2230  223.4360 C   0  0  0  0  0  0  0  0  0  0  0  0
  139.4430   69.3800  224.5390 C   0  0  0  0  0  0  0  0  0  0  0  0
  139.9470   69.7830  225.7550 C   0  0  0  0  0  0  0  0  0  0  0  0
  139.8130   68.9570  226.8560 C   0  0  0  0  0  0  0  0  0  0  0  0
  140.3140   69.3520  228.0740 C   0  0  0  0  0  0  0  0  0  0  0  0
  140.1690   68.5250  229.1330 F   0  0  0  0  0  0  0  0  0  0  0  0
  140.9460   70.5790  228.1710 C   0  0  0  0  0  0  0  0  0  0  0  0
  141.0720   71.4000  227.0490 C   0  0  0  0  0  0  0  0  0  0  0  0
  140.5700   70.9960  225.8400 C   0  0  0  0  0  0  0  0  0  0  0  0
  140.7000   71.8080  224.7530 N   0  0  0  0  0  0  0  0  0  0  0  0
  139.9410   79.7090  223.1240 C   0  0  0  0  0  0  0  0  0  0  0  0
  138.9930   78.7080  223.1230 C   0  0  0  0  0  0  0  0  0  0  0  0
  137.6590   78.9830  222.9120 C   0  0  0  0  0  0  0  0  0  0  0  0
  137.2460   80.2790  222.6940 C   0  0  0  0  0  0  0  0  0  0  0  0
  135.5530   80.6920  222.4170 Cl  0  0  0  0  0  0  0  0  0  0  0  0
  138.1760   81.3130  222.6880 C   0  0  0  0  0  0  0  0  0  0  0  0
  139.5240   81.0080  222.9060 C   0  0  0  0  0  0  0  0  0  0  0  0
  144.1615   79.9633  223.7469 H   0  0  0  0  0  0  0  0  0  0  0  0
  143.6146   79.2007  222.2153 H   0  0  0  0  0  0  0  0  0  0  0  0
  144.1932   80.9012  222.2153 H   0  0  0  0  0  0  0  0  0  0  0  0
  141.9011   81.1513  222.1592 H   0  0  0  0  0  0  0  0  0  0  0  0
  142.2306   80.9634  225.1570 H   0  0  0  0  0  0  0  0  0  0  0  0
  143.0528   82.2327  224.1877 H   0  0  0  0  0  0  0  0  0  0  0  0
  141.2598   82.1230  224.1877 H   0  0  0  0  0  0  0  0  0  0  0  0
  141.5839   79.2052  224.4114 H   0  0  0  0  0  0  0  0  0  0  0  0
  142.0100   77.3790  222.9220 H   0  0  0  0  0  0  0  0  0  0  0  0
  142.8552   76.7664  220.5584 H   0  0  0  0  0  0  0  0  0  0  0  0
  142.4632   78.9169  218.8222 H   0  0  0  0  0  0  0  0  0  0  0  0
  142.7876   77.3587  218.1363 H   0  0  0  0  0  0  0  0  0  0  0  0
  139.9657   78.6083  218.7685 H   0  0  0  0  0  0  0  0  0  0  0  0
  141.4010   78.3580  216.6700 H   0  0  0  0  0  0  0  0  0  0  0  0
  139.1736   76.2640  218.7742 H   0  0  0  0  0  0  0  0  0  0  0  0
  140.6537   75.6338  218.1185 H   0  0  0  0  0  0  0  0  0  0  0  0
  138.9336   74.2984  220.4972 H   0  0  0  0  0  0  0  0  0  0  0  0
  140.6676   73.7581  220.4471 H   0  0  0  0  0  0  0  0  0  0  0  0
  139.1750   73.9360  223.0900 H   0  0  0  0  0  0  0  0  0  0  0  0
  139.1838   69.9107  222.4601 H   0  0  0  0  0  0  0  0  0  0  0  0
  138.9370   68.4085  224.4384 H   0  0  0  0  0  0  0  0  0  0  0  0
  139.3064   67.9856  226.7575 H   0  0  0  0  0  0  0  0  0  0  0  0
  141.3518   70.9097  229.1385 H   0  0  0  0  0  0  0  0  0  0  0  0
  141.5758   72.3740  227.1359 H   0  0  0  0  0  0  0  0  0  0  0  0
  139.3079   77.6680  223.2942 H   0  0  0  0  0  0  0  0  0  0  0  0
  136.9226   78.1659  222.9177 H   0  0  0  0  0  0  0  0  0  0  0  0
  137.8576   82.3516  222.5150 H   0  0  0  0  0  0  0  0  0  0  0  0
  140.2670   81.8191  222.9038 H   0  0  0  0  0  0  0  0  0  0  0  0
  1  2  1  0
  2  3  1  0
  2  4  1  0
  4  5  1  0
  5  6  1  0
  6  7  2  0
  6  8  1  0
  8  9  1  0
  9 10  1  0
 10 11  1  0
 10 12  1  0
 12 13  1  0
 13 14  1  0
 14 15  2  0
 14 16  1  0
 16 17  1  0
 17 18  1  0
 18 19  2  0
 18 20  1  0
 20 21  2  0
 21 22  1  0
 22 23  2  0
 23 24  1  0
 24 25  2  0
 25 26  1  0
 25 27  1  0
 27 28  2  0
 28 29  1  0
 29 30  2  0
  4 31  1  0
 31 32  2  0
 32 33  1  0
 33 34  2  0
 34 35  1  0
 34 36  1  0
 36 37  2  0
 13  8  1  0
 30 20  1  0
 37 31  1  0
 29 23  1  0
  1 38  1  0
  1 39  1  0
  1 40  1  0
  2 41  1  0
  3 42  1  0
  3 43  1  0
  3 44  1  0
  4 45  1  1
  5 46  1  0
  8 47  1  1
  9 48  1  0
  9 49  1  0
 10 50  1  1
 11 51  1  0
 12 52  1  0
 12 53  1  0
 16 54  1  0
 16 55  1  0
 17 56  1  0
 21 57  1  0
 22 58  1  0
 24 59  1  0
 27 60  1  0
 28 61  1  0
 32 62  1  0
 33 63  1  0
 36 64  1  0
 37 65  1  0
M  END
>  <smiles>  (10) 
CC(C)C(NC(=O)[C@@H]1C[C@@H](O)CN1C(=O)CNC(=O)c1ccc2cc(F)ccc2n1)c1ccc(Cl)cc1

>  <score_type>  (10) 
oracle

>  <origin>  (10) 
autodockgpu

>  <m_score__min__energy>  (10) 
-9.9700000000000006

>  <m_primary>  (10) 
energy

>  <meeko>  (10) 
{"free_energy": -9.21, "intermolecular_energy": -11.89, "internal_energy": -2.82, "cluster_size": 3, "cluster_id": 2, "rank_in_cluster": 3}

>  <energy>  (10) 
-7.16

>  <cluster_rmsd>  (10) 
0.0

>  <rmsd>  (10) 
269.78

>  <cluster>  (10) 
5

$$$$

     RDKit          3D

 65 68  0  0  1  0  0  0  0  0999 V2000
  139.4860   76.2940  218.8550 C   0  0  0  0  0  0  0  0  0  0  0  0
  139.8310   77.5630  219.5710 C   0  0  0  0  0  0  0  0  0  0  0  0
  139.6630   78.7610  218.6860 C   0  0  0  0  0  0  0  0  0  0  0  0
  141.2590   77.4970  220.0040 C   0  0  2  0  0  0  0  0  0  0  0  0
  141.5970   76.1840  220.5720 N   0  0  0  0  0  0  0  0  0  0  0  0
  142.6860   75.4690  220.0230 C   0  0  0  0  0  0  0  0  0  0  0  0
  143.3770   75.9350  219.0550 O   0  0  0  0  0  0  0  0  0  0  0  0
  143.0460   74.1360  220.5830 C   0  0  2  0  0  0  0  0  0  0  0  0
  144.5650   74.1570  220.7450 C   0  0  0  0  0  0  0  0  0  0  0  0
  144.9940   73.6980  219.3470 C   0  0  1  0  0  0  0  0  0  0  0  0
  146.3260   73.3320  219.3240 O   0  0  0  0  0  0  0  0  0  0  0  0
  144.0550   72.5250  219.1530 C   0  0  0  0  0  0  0  0  0  0  0  0
  142.7930   73.1090  219.5710 N   0  0  0  0  0  0  0  0  0  0  0  0
  141.4780   72.8040  219.1300 C   0  0  0  0  0  0  0  0  0  0  0  0
  141.0930   72.8830  217.9470 O   0  0  0  0  0  0  0  0  0  0  0  0
  140.4970   72.3650  220.1520 C   0  0  0  0  0  0  0  0  0  0  0  0
  139.5000   73.3710  220.4190 N   0  0  0  0  0  0  0  0  0  0  0  0
  139.6690   74.1510  221.6070 C   0  0  0  0  0  0  0  0  0  0  0  0
  140.6910   73.8670  222.3020 O   0  0  0  0  0  0  0  0  0  0  0  0
  138.7280   75.1950  221.9820 C   0  0  0  0  0  0  0  0  0  0  0  0
  137.3910   74.8650  222.0230 C   0  0  0  0  0  0  0  0  0  0  0  0
  136.4300   75.8140  222.3740 C   0  0  0  0  0  0  0  0  0  0  0  0
  136.8350   77.0930  222.6820 C   0  0  0  0  0  0  0  0  0  0  0  0
  135.8920   78.0410  223.0310 C   0  0  0  0  0  0  0  0  0  0  0  0
  136.2900   79.3220  223.3390 C   0  0  0  0  0  0  0  0  0  0  0  0
  135.3460   80.2290  223.6770 F   0  0  0  0  0  0  0  0  0  0  0  0
  137.6360   79.6340  223.2920 C   0  0  0  0  0  0  0  0  0  0  0  0
  138.5740   78.6630  222.9360 C   0  0  0  0  0  0  0  0  0  0  0  0
  138.1680   77.3910  222.6320 C   0  0  0  0  0  0  0  0  0  0  0  0
  139.0940   76.4530  222.2870 N   0  0  0  0  0  0  0  0  0  0  0  0
  141.5780   78.4960  221.0690 C   0  0  0  0  0  0  0  0  0  0  0  0
  141.5860   78.1640  222.4060 C   0  0  0  0  0  0  0  0  0  0  0  0
  141.8830   79.0980  223.3760 C   0  0  0  0  0  0  0  0  0  0  0  0
  142.1780   80.3950  223.0190 C   0  0  0  0  0  0  0  0  0  0  0  0
  142.5650   81.6340  224.2150 Cl  0  0  0  0  0  0  0  0  0  0  0  0
  142.1780   80.7640  221.6780 C   0  0  0  0  0  0  0  0  0  0  0  0
  141.8750   79.7980  220.7130 C   0  0  0  0  0  0  0  0  0  0  0  0
  139.2714   75.5047  219.5905 H   0  0  0  0  0  0  0  0  0  0  0  0
  138.5999   76.4581  218.2242 H   0  0  0  0  0  0  0  0  0  0  0  0
  140.3332   75.9869  218.2242 H   0  0  0  0  0  0  0  0  0  0  0  0
  139.1532   77.6651  220.4313 H   0  0  0  0  0  0  0  0  0  0  0  0
  139.5369   79.6605  219.3065 H   0  0  0  0  0  0  0  0  0  0  0  0
  140.5539   78.8756  218.0510 H   0  0  0  0  0  0  0  0  0  0  0  0
  138.7750   78.6261  218.0510 H   0  0  0  0  0  0  0  0  0  0  0  0
  141.8376   77.7009  219.0909 H   0  0  0  0  0  0  0  0  0  0  0  0
  141.0350   75.8000  221.3630 H   0  0  0  0  0  0  0  0  0  0  0  0
  142.4872   73.9367  221.5093 H   0  0  0  0  0  0  0  0  0  0  0  0
  144.9363   75.1668  220.9739 H   0  0  0  0  0  0  0  0  0  0  0  0
  144.9492   73.5404  221.5709 H   0  0  0  0  0  0  0  0  0  0  0  0
  144.9276   74.4600  218.5564 H   0  0  0  0  0  0  0  0  0  0  0  0
  146.8530   74.1890  219.2640 H   0  0  0  0  0  0  0  0  0  0  0  0
  144.0226   72.2029  218.1017 H   0  0  0  0  0  0  0  0  0  0  0  0
  144.3409   71.6186  219.7067 H   0  0  0  0  0  0  0  0  0  0  0  0
  139.9943   71.4551  219.7923 H   0  0  0  0  0  0  0  0  0  0  0  0
  141.0453   72.1773  221.0869 H   0  0  0  0  0  0  0  0  0  0  0  0
  138.6730   73.5480  219.7880 H   0  0  0  0  0  0  0  0  0  0  0  0
  137.0770   73.8402  221.7758 H   0  0  0  0  0  0  0  0  0  0  0  0
  135.3641   75.5439  222.4041 H   0  0  0  0  0  0  0  0  0  0  0  0
  134.8258   77.7724  223.0626 H   0  0  0  0  0  0  0  0  0  0  0  0
  137.9699   80.6532  223.5365 H   0  0  0  0  0  0  0  0  0  0  0  0
  139.6428   78.9207  222.8996 H   0  0  0  0  0  0  0  0  0  0  0  0
  141.3505   77.1322  222.7061 H   0  0  0  0  0  0  0  0  0  0  0  0
  141.8843   78.8066  224.4367 H   0  0  0  0  0  0  0  0  0  0  0  0
  142.4121   81.7971  221.3817 H   0  0  0  0  0  0  0  0  0  0  0  0
  141.8730   80.0801  219.6498 H   0  0  0  0  0  0  0  0  0  0  0  0
  1  2  1  0
  2  3  1  0
  2  4  1  0
  4  5  1  0
  5  6  1  0
  6  7  2  0
  6  8  1  0
  8  9  1  0
  9 10  1  0
 10 11  1  0
 10 12  1  0
 12 13  1  0
 13 14  1  0
 14 15  2  0
 14 16  1  0
 16 17  1  0
 17 18  1  0
 18 19  2  0
 18 20  1  0
 20 21  2  0
 21 22  1  0
 22 23  2  0
 23 24  1  0
 24 25  2  0
 25 26  1  0
 25 27  1  0
 27 28  2  0
 28 29  1  0
 29 30  2  0
  4 31  1  0
 31 32  2  0
 32 33  1  0
 33 34  2  0
 34 35  1  0
 34 36  1  0
 36 37  2  0
 13  8  1  0
 30 20  1  0
 37 31  1  0
 29 23  1  0
  1 38  1  0
  1 39  1  0
  1 40  1  0
  2 41  1  0
  3 42  1  0
  3 43  1  0
  3 44  1  0
  4 45  1  6
  5 46  1  0
  8 47  1  1
  9 48  1  0
  9 49  1  0
 10 50  1  6
 11 51  1  0
 12 52  1  0
 12 53  1  0
 16 54  1  0
 16 55  1  0
 17 56  1  0
 21 57  1  0
 22 58  1  0
 24 59  1  0
 27 60  1  0
 28 61  1  0
 32 62  1  0
 33 63  1  0
 36 64  1  0
 37 65  1  0
M  END
>  <smiles>  (11) 
CC(C)C(NC(=O)[C@@H]1C[C@@H](O)CN1C(=O)CNC(=O)c1ccc2cc(F)ccc2n1)c1ccc(Cl)cc1

>  <score_type>  (11) 
oracle

>  <origin>  (11) 
autodockgpu

>  <m_score__min__energy>  (11) 
-9.9700000000000006

>  <m_primary>  (11) 
energy

>  <meeko>  (11) 
{"free_energy": -7.07, "intermolecular_energy": -9.76, "internal_energy": -4.92, "cluster_size": 2, "cluster_id": 6, "rank_in_cluster": 2}

>  <energy>  (11) 
-7.12

>  <cluster_rmsd>  (11) 
0.0

>  <rmsd>  (11) 
269.61

>  <cluster>  (11) 
6

$$$$

     RDKit          3D

 65 68  0  0  1  0  0  0  0  0999 V2000
  140.5910   74.8260  216.3640 C   0  0  0  0  0  0  0  0  0  0  0  0
  140.5620   76.2780  216.7290 C   0  0  0  0  0  0  0  0  0  0  0  0
  140.6890   77.1550  215.5210 C   0  0  0  0  0  0  0  0  0  0  0  0
  141.7110   76.5660  217.6400 C   0  0  2  0  0  0  0  0  0  0  0  0
  141.8120   75.5760  218.7210 N   0  0  0  0  0  0  0  0  0  0  0  0
  143.0410   75.4460  219.4070 C   0  0  0  0  0  0  0  0  0  0  0  0
  144.0560   76.1640  219.1120 O   0  0  0  0  0  0  0  0  0  0  0  0
  143.1650   74.4490  220.5070 C   0  0  2  0  0  0  0  0  0  0  0  0
  144.6570   74.1370  220.6120 C   0  0  0  0  0  0  0  0  0  0  0  0
  144.7750   73.0200  219.5700 C   0  0  1  0  0  0  0  0  0  0  0  0
  145.9740   72.3440  219.6900 O   0  0  0  0  0  0  0  0  0  0  0  0
  143.5780   72.1730  219.9520 C   0  0  0  0  0  0  0  0  0  0  0  0
  142.5510   73.1900  220.0820 N   0  0  0  0  0  0  0  0  0  0  0  0
  141.1530   73.0810  219.8540 C   0  0  0  0  0  0  0  0  0  0  0  0
  140.6330   72.8320  218.7490 O   0  0  0  0  0  0  0  0  0  0  0  0
  140.2520   73.2820  221.0160 C   0  0  0  0  0  0  0  0  0  0  0  0
  140.5720   74.4780  221.7540 N   0  0  0  0  0  0  0  0  0  0  0  0
  140.0320   75.7080  221.2590 C   0  0  0  0  0  0  0  0  0  0  0  0
  139.3220   75.6070  220.2130 O   0  0  0  0  0  0  0  0  0  0  0  0
  140.2850   76.9790  221.9180 C   0  0  0  0  0  0  0  0  0  0  0  0
  139.2100   77.6310  222.4820 C   0  0  0  0  0  0  0  0  0  0  0  0
  139.3750   78.8550  223.1320 C   0  0  0  0  0  0  0  0  0  0  0  0
  140.6330   79.4090  223.2030 C   0  0  0  0  0  0  0  0  0  0  0  0
  140.8090   80.6210  223.8430 C   0  0  0  0  0  0  0  0  0  0  0  0
  142.0640   81.1810  223.9190 C   0  0  0  0  0  0  0  0  0  0  0  0
  142.2060   82.3670  224.5510 F   0  0  0  0  0  0  0  0  0  0  0  0
  143.1300   80.5110  223.3460 C   0  0  0  0  0  0  0  0  0  0  0  0
  142.9330   79.2880  222.7030 C   0  0  0  0  0  0  0  0  0  0  0  0
  141.6800   78.7390  222.6340 C   0  0  0  0  0  0  0  0  0  0  0  0
  141.5030   77.5450  222.0030 N   0  0  0  0  0  0  0  0  0  0  0  0
  141.5840   77.8940  218.3130 C   0  0  0  0  0  0  0  0  0  0  0  0
  142.6180   78.8050  218.3360 C   0  0  0  0  0  0  0  0  0  0  0  0
  142.4840   80.0270  218.9620 C   0  0  0  0  0  0  0  0  0  0  0  0
  141.3000   80.3590  219.5830 C   0  0  0  0  0  0  0  0  0  0  0  0
  141.0700   81.9060  220.4000 Cl  0  0  0  0  0  0  0  0  0  0  0  0
  140.2370   79.4620  219.5780 C   0  0  0  0  0  0  0  0  0  0  0  0
  140.3980   78.2300  218.9360 C   0  0  0  0  0  0  0  0  0  0  0  0
  140.6032   74.2177  217.2804 H   0  0  0  0  0  0  0  0  0  0  0  0
  139.6976   74.5789  215.7717 H   0  0  0  0  0  0  0  0  0  0  0  0
  141.4935   74.6148  215.7717 H   0  0  0  0  0  0  0  0  0  0  0  0
  139.5982   76.4894  217.2152 H   0  0  0  0  0  0  0  0  0  0  0  0
  140.8399   78.1972  215.8388 H   0  0  0  0  0  0  0  0  0  0  0  0
  141.5490   76.8271  214.9186 H   0  0  0  0  0  0  0  0  0  0  0  0
  139.7713   77.0846  214.9186 H   0  0  0  0  0  0  0  0  0  0  0  0
  142.5974   76.5409  216.9891 H   0  0  0  0  0  0  0  0  0  0  0  0
  140.9850   74.9890  218.9660 H   0  0  0  0  0  0  0  0  0  0  0  0
  142.7082   74.8298  221.4324 H   0  0  0  0  0  0  0  0  0  0  0  0
  145.2748   75.0078  220.3474 H   0  0  0  0  0  0  0  0  0  0  0  0
  145.0014   73.8650  221.6207 H   0  0  0  0  0  0  0  0  0  0  0  0
  144.7741   73.3488  218.5203 H   0  0  0  0  0  0  0  0  0  0  0  0
  145.9470   71.8780  220.5830 H   0  0  0  0  0  0  0  0  0  0  0  0
  143.3295   71.4460  219.1648 H   0  0  0  0  0  0  0  0  0  0  0  0
  143.7253   71.5588  220.8526 H   0  0  0  0  0  0  0  0  0  0  0  0
  139.2165   73.3568  220.6523 H   0  0  0  0  0  0  0  0  0  0  0  0
  140.3782   72.4242  221.6929 H   0  0  0  0  0  0  0  0  0  0  0  0
  141.1740   74.4800  222.6200 H   0  0  0  0  0  0  0  0  0  0  0  0
  138.2084   77.1807  222.4191 H   0  0  0  0  0  0  0  0  0  0  0  0
  138.5125   79.3693  223.5809 H   0  0  0  0  0  0  0  0  0  0  0  0
  139.9473   81.1375  224.2911 H   0  0  0  0  0  0  0  0  0  0  0  0
  144.1395   80.9449  223.3974 H   0  0  0  0  0  0  0  0  0  0  0  0
  143.7870   78.7631  222.2500 H   0  0  0  0  0  0  0  0  0  0  0  0
  143.5695   78.5525  217.8452 H   0  0  0  0  0  0  0  0  0  0  0  0
  143.3239   80.7374  218.9653 H   0  0  0  0  0  0  0  0  0  0  0  0
  139.2868   79.7170  220.0701 H   0  0  0  0  0  0  0  0  0  0  0  0
  139.5630   77.5140  218.9270 H   0  0  0  0  0  0  0  0  0  0  0  0
  1  2  1  0
  2  3  1  0
  2  4  1  0
  4  5  1  0
  5  6  1  0
  6  7  2  0
  6  8  1  0
  8  9  1  0
  9 10  1  0
 10 11  1  0
 10 12  1  0
 12 13  1  0
 13 14  1  0
 14 15  2  0
 14 16  1  0
 16 17  1  0
 17 18  1  0
 18 19  2  0
 18 20  1  0
 20 21  2  0
 21 22  1  0
 22 23  2  0
 23 24  1  0
 24 25  2  0
 25 26  1  0
 25 27  1  0
 27 28  2  0
 28 29  1  0
 29 30  2  0
  4 31  1  0
 31 32  2  0
 32 33  1  0
 33 34  2  0
 34 35  1  0
 34 36  1  0
 36 37  2  0
 13  8  1  0
 30 20  1  0
 37 31  1  0
 29 23  1  0
  1 38  1  0
  1 39  1  0
  1 40  1  0
  2 41  1  0
  3 42  1  0
  3 43  1  0
  3 44  1  0
  4 45  1  6
  5 46  1  0
  8 47  1  1
  9 48  1  0
  9 49  1  0
 10 50  1  6
 11 51  1  0
 12 52  1  0
 12 53  1  0
 16 54  1  0
 16 55  1  0
 17 56  1  0
 21 57  1  0
 22 58  1  0
 24 59  1  0
 27 60  1  0
 28 61  1  0
 32 62  1  0
 33 63  1  0
 36 64  1  0
 37 65  1  0
M  END
>  <smiles>  (12) 
CC(C)C(NC(=O)[C@@H]1C[C@@H](O)CN1C(=O)CNC(=O)c1ccc2cc(F)ccc2n1)c1ccc(Cl)cc1

>  <score_type>  (12) 
oracle

>  <origin>  (12) 
autodockgpu

>  <m_score__min__energy>  (12) 
-9.9700000000000006

>  <m_primary>  (12) 
energy

>  <meeko>  (12) 
{"free_energy": -6.16, "intermolecular_energy": -8.84, "internal_energy": -5.62, "cluster_size": 2, "cluster_id": 9, "rank_in_cluster": 1}

>  <energy>  (12) 
-7.07

>  <cluster_rmsd>  (12) 
0.37

>  <rmsd>  (12) 
269.61

>  <cluster>  (12) 
6

$$$$

     RDKit          3D

 65 68  0  0  1  0  0  0  0  0999 V2000
  140.5730   74.7930  216.3670 C   0  0  0  0  0  0  0  0  0  0  0  0
  140.5430   76.2450  216.7330 C   0  0  0  0  0  0  0  0  0  0  0  0
  140.6610   77.1220  215.5230 C   0  0  0  0  0  0  0  0  0  0  0  0
  141.6960   76.5370  217.6370 C   0  0  2  0  0  0  0  0  0  0  0  0
  141.8020   75.5500  218.7210 N   0  0  0  0  0  0  0  0  0  0  0  0
  143.0400   75.4070  219.3880 C   0  0  0  0  0  0  0  0  0  0  0  0
  144.0590   76.1100  219.0720 O   0  0  0  0  0  0  0  0  0  0  0  0
  143.1690   74.4140  220.4910 C   0  0  2  0  0  0  0  0  0  0  0  0
  144.6590   74.0880  220.5770 C   0  0  0  0  0  0  0  0  0  0  0  0
  144.7530   72.9650  219.5390 C   0  0  1  0  0  0  0  0  0  0  0  0
  145.9470   72.2780  219.6470 O   0  0  0  0  0  0  0  0  0  0  0  0
  143.5530   72.1320  219.9400 C   0  0  0  0  0  0  0  0  0  0  0  0
  142.5370   73.1590  220.0790 N   0  0  0  0  0  0  0  0  0  0  0  0
  141.1350   73.0630  219.8710 C   0  0  0  0  0  0  0  0  0  0  0  0
  140.5980   72.8330  218.7700 O   0  0  0  0  0  0  0  0  0  0  0  0
  140.2530   73.2530  221.0470 C   0  0  0  0  0  0  0  0  0  0  0  0
  140.5710   74.4540  221.7790 N   0  0  0  0  0  0  0  0  0  0  0  0
  140.0250   75.6800  221.2800 C   0  0  0  0  0  0  0  0  0  0  0  0
  139.3130   75.5720  220.2360 O   0  0  0  0  0  0  0  0  0  0  0  0
  140.2760   76.9550  221.9330 C   0  0  0  0  0  0  0  0  0  0  0  0
  139.2000   77.6090  222.4920 C   0  0  0  0  0  0  0  0  0  0  0  0
  139.3630   78.8370  223.1350 C   0  0  0  0  0  0  0  0  0  0  0  0
  140.6210   79.3920  223.2050 C   0  0  0  0  0  0  0  0  0  0  0  0
  140.7950   80.6080  223.8380 C   0  0  0  0  0  0  0  0  0  0  0  0
  142.0480   81.1690  223.9120 C   0  0  0  0  0  0  0  0  0  0  0  0
  142.1890   82.3590  224.5380 F   0  0  0  0  0  0  0  0  0  0  0  0
  143.1160   80.4980  223.3440 C   0  0  0  0  0  0  0  0  0  0  0  0
  142.9210   79.2710  222.7080 C   0  0  0  0  0  0  0  0  0  0  0  0
  141.6690   78.7210  222.6400 C   0  0  0  0  0  0  0  0  0  0  0  0
  141.4930   77.5230  222.0160 N   0  0  0  0  0  0  0  0  0  0  0  0
  141.5730   77.8670  218.3050 C   0  0  0  0  0  0  0  0  0  0  0  0
  142.6050   78.7800  218.3160 C   0  0  0  0  0  0  0  0  0  0  0  0
  142.4740   80.0040  218.9380 C   0  0  0  0  0  0  0  0  0  0  0  0
  141.2950   80.3370  219.5680 C   0  0  0  0  0  0  0  0  0  0  0  0
  141.0690   81.8870  220.3810 Cl  0  0  0  0  0  0  0  0  0  0  0  0
  140.2340   79.4380  219.5760 C   0  0  0  0  0  0  0  0  0  0  0  0
  140.3910   78.2040  218.9380 C   0  0  0  0  0  0  0  0  0  0  0  0
  140.5856   74.1841  217.2831 H   0  0  0  0  0  0  0  0  0  0  0  0
  139.6798   74.5457  215.7746 H   0  0  0  0  0  0  0  0  0  0  0  0
  141.4757   74.5828  215.7746 H   0  0  0  0  0  0  0  0  0  0  0  0
  139.5820   76.4536  217.2259 H   0  0  0  0  0  0  0  0  0  0  0  0
  140.8015   78.1662  215.8392 H   0  0  0  0  0  0  0  0  0  0  0  0
  141.5242   76.8019  214.9209 H   0  0  0  0  0  0  0  0  0  0  0  0
  139.7439   77.0415  214.9209 H   0  0  0  0  0  0  0  0  0  0  0  0
  142.5794   76.5103  216.9821 H   0  0  0  0  0  0  0  0  0  0  0  0
  140.9710   74.9750  218.9830 H   0  0  0  0  0  0  0  0  0  0  0  0
  142.7287   74.8030  221.4209 H   0  0  0  0  0  0  0  0  0  0  0  0
  145.2814   74.9516  220.2999 H   0  0  0  0  0  0  0  0  0  0  0  0
  145.0141   73.8172  221.5823 H   0  0  0  0  0  0  0  0  0  0  0  0
  144.7421   73.2886  218.4877 H   0  0  0  0  0  0  0  0  0  0  0  0
  145.9400   71.8430  220.5550 H   0  0  0  0  0  0  0  0  0  0  0  0
  143.2874   71.4041  219.1592 H   0  0  0  0  0  0  0  0  0  0  0  0
  143.7062   71.5207  220.8416 H   0  0  0  0  0  0  0  0  0  0  0  0
  139.2105   73.3145  220.7015 H   0  0  0  0  0  0  0  0  0  0  0  0
  140.4017   72.3972  221.7219 H   0  0  0  0  0  0  0  0  0  0  0  0
  141.1750   74.4620  222.6440 H   0  0  0  0  0  0  0  0  0  0  0  0
  138.1989   77.1573  222.4308 H   0  0  0  0  0  0  0  0  0  0  0  0
  138.4994   79.3536  223.5791 H   0  0  0  0  0  0  0  0  0  0  0  0
  139.9323   81.1263  224.2820 H   0  0  0  0  0  0  0  0  0  0  0  0
  144.1247   80.9339  223.3938 H   0  0  0  0  0  0  0  0  0  0  0  0
  143.7762   78.7440  222.2598 H   0  0  0  0  0  0  0  0  0  0  0  0
  143.5529   78.5274  217.8184 H   0  0  0  0  0  0  0  0  0  0  0  0
  143.3126   80.7158  218.9310 H   0  0  0  0  0  0  0  0  0  0  0  0
  139.2878   79.6934  220.0756 H   0  0  0  0  0  0  0  0  0  0  0  0
  139.5571   77.4866  218.9397 H   0  0  0  0  0  0  0  0  0  0  0  0
  1  2  1  0
  2  3  1  0
  2  4  1  0
  4  5  1  0
  5  6  1  0
  6  7  2  0
  6  8  1  0
  8  9  1  0
  9 10  1  0
 10 11  1  0
 10 12  1  0
 12 13  1  0
 13 14  1  0
 14 15  2  0
 14 16  1  0
 16 17  1  0
 17 18  1  0
 18 19  2  0
 18 20  1  0
 20 21  2  0
 21 22  1  0
 22 23  2  0
 23 24  1  0
 24 25  2  0
 25 26  1  0
 25 27  1  0
 27 28  2  0
 28 29  1  0
 29 30  2  0
  4 31  1  0
 31 32  2  0
 32 33  1  0
 33 34  2  0
 34 35  1  0
 34 36  1  0
 36 37  2  0
 13  8  1  0
 30 20  1  0
 37 31  1  0
 29 23  1  0
  1 38  1  0
  1 39  1  0
  1 40  1  0
  2 41  1  0
  3 42  1  0
  3 43  1  0
  3 44  1  0
  4 45  1  6
  5 46  1  0
  8 47  1  1
  9 48  1  0
  9 49  1  0
 10 50  1  6
 11 51  1  0
 12 52  1  0
 12 53  1  0
 16 54  1  0
 16 55  1  0
 17 56  1  0
 21 57  1  0
 22 58  1  0
 24 59  1  0
 27 60  1  0
 28 61  1  0
 32 62  1  0
 33 63  1  0
 36 64  1  0
 37 65  1  0
M  END
>  <smiles>  (13) 
CC(C)C(NC(=O)[C@@H]1C[C@@H](O)CN1C(=O)CNC(=O)c1ccc2cc(F)ccc2n1)c1ccc(Cl)cc1

>  <score_type>  (13) 
oracle

>  <origin>  (13) 
autodockgpu

>  <m_score__min__energy>  (13) 
-9.9700000000000006

>  <m_primary>  (13) 
energy

>  <meeko>  (13) 
{"free_energy": -6.13, "intermolecular_energy": -8.82, "internal_energy": -5.62, "cluster_size": 2, "cluster_id": 9, "rank_in_cluster": 2}

>  <energy>  (13) 
-6.66

>  <cluster_rmsd>  (13) 
0.0

>  <rmsd>  (13) 
270.06

>  <cluster>  (13) 
7

$$$$

     RDKit          3D

 65 68  0  0  1  0  0  0  0  0999 V2000
  142.6530   79.5020  217.8480 C   0  0  0  0  0  0  0  0  0  0  0  0
  142.9680   78.1010  217.4220 C   0  0  0  0  0  0  0  0  0  0  0  0
  142.5270   77.8400  216.0130 C   0  0  0  0  0  0  0  0  0  0  0  0
  142.2450   77.1520  218.3210 C   0  0  2  0  0  0  0  0  0  0  0  0
  141.8520   77.7910  219.5850 N   0  0  0  0  0  0  0  0  0  0  0  0
  140.5200   78.2440  219.7290 C   0  0  0  0  0  0  0  0  0  0  0  0
  139.6590   78.1100  218.7940 O   0  0  0  0  0  0  0  0  0  0  0  0
  140.1000   78.8940  221.0020 C   0  0  2  0  0  0  0  0  0  0  0  0
  141.1600   79.9550  221.2900 C   0  0  0  0  0  0  0  0  0  0  0  0
  142.1910   79.1120  222.0470 C   0  0  1  0  0  0  0  0  0  0  0  0
  143.1160   79.9080  222.6950 O   0  0  0  0  0  0  0  0  0  0  0  0
  141.2780   78.3690  223.0010 C   0  0  0  0  0  0  0  0  0  0  0  0
  140.2320   77.9300  222.0960 N   0  0  0  0  0  0  0  0  0  0  0  0
  139.4140   76.7700  222.1700 C   0  0  0  0  0  0  0  0  0  0  0  0
  138.2830   76.7350  222.6900 O   0  0  0  0  0  0  0  0  0  0  0  0
  139.9510   75.5160  221.5890 C   0  0  0  0  0  0  0  0  0  0  0  0
  139.5590   74.3530  222.3460 N   0  0  0  0  0  0  0  0  0  0  0  0
  140.4210   73.2130  222.2740 C   0  0  0  0  0  0  0  0  0  0  0  0
  141.4480   73.3540  221.5440 O   0  0  0  0  0  0  0  0  0  0  0  0
  140.1300   71.9820  222.9940 C   0  0  0  0  0  0  0  0  0  0  0  0
  139.4390   70.9980  222.3220 C   0  0  0  0  0  0  0  0  0  0  0  0
  139.1240   69.7900  222.9460 C   0  0  0  0  0  0  0  0  0  0  0  0
  139.5140   69.5920  224.2520 C   0  0  0  0  0  0  0  0  0  0  0  0
  139.2080   68.4010  224.8810 C   0  0  0  0  0  0  0  0  0  0  0  0
  139.5940   68.1950  226.1860 C   0  0  0  0  0  0  0  0  0  0  0  0
  139.2810   67.0200  226.7760 F   0  0  0  0  0  0  0  0  0  0  0  0
  140.2870   69.1960  226.8430 C   0  0  0  0  0  0  0  0  0  0  0  0
  140.5870   70.3930  226.1910 C   0  0  0  0  0  0  0  0  0  0  0  0
  140.1980   70.5870  224.8930 C   0  0  0  0  0  0  0  0  0  0  0  0
  140.4980   71.7610  224.2690 N   0  0  0  0  0  0  0  0  0  0  0  0
  143.0860   75.9770  218.7030 C   0  0  0  0  0  0  0  0  0  0  0  0
  143.6480   75.1420  217.7620 C   0  0  0  0  0  0  0  0  0  0  0  0
  144.4220   74.0620  218.1310 C   0  0  0  0  0  0  0  0  0  0  0  0
  144.6470   73.7970  219.4640 C   0  0  0  0  0  0  0  0  0  0  0  0
  145.6280   72.4300  219.9980 Cl  0  0  0  0  0  0  0  0  0  0  0  0
  144.0940   74.6200  220.4400 C   0  0  0  0  0  0  0  0  0  0  0  0
  143.3140   75.7090  220.0390 C   0  0  0  0  0  0  0  0  0  0  0  0
  142.6406   79.5572  218.9466 H   0  0  0  0  0  0  0  0  0  0  0  0
  143.4198   80.1859  217.4552 H   0  0  0  0  0  0  0  0  0  0  0  0
  141.6673   79.7918  217.4552 H   0  0  0  0  0  0  0  0  0  0  0  0
  144.0576   77.9621  217.4810 H   0  0  0  0  0  0  0  0  0  0  0  0
  141.5804   77.2798  216.0229 H   0  0  0  0  0  0  0  0  0  0  0  0
  142.3811   78.7973  215.4912 H   0  0  0  0  0  0  0  0  0  0  0  0
  143.2960   77.2514  215.4912 H   0  0  0  0  0  0  0  0  0  0  0  0
  141.3663   76.8320  217.7418 H   0  0  0  0  0  0  0  0  0  0  0  0
  142.5510   77.9010  220.3510 H   0  0  0  0  0  0  0  0  0  0  0  0
  139.0727   79.2794  220.9237 H   0  0  0  0  0  0  0  0  0  0  0  0
  141.5785   80.3745  220.3632 H   0  0  0  0  0  0  0  0  0  0  0  0
  140.7935   80.8358  221.8376 H   0  0  0  0  0  0  0  0  0  0  0  0
  142.8162   78.4560  221.4235 H   0  0  0  0  0  0  0  0  0  0  0  0
  144.0180   79.6420  222.3360 H   0  0  0  0  0  0  0  0  0  0  0  0
  141.7910   77.5163  223.4698 H   0  0  0  0  0  0  0  0  0  0  0  0
  140.9209   78.9714  223.8493 H   0  0  0  0  0  0  0  0  0  0  0  0
  139.5747   75.4126  220.5606 H   0  0  0  0  0  0  0  0  0  0  0  0
  141.0491   75.5777  221.6094 H   0  0  0  0  0  0  0  0  0  0  0  0
  138.6830   74.3130  222.9340 H   0  0  0  0  0  0  0  0  0  0  0  0
  139.1313   71.1666  221.2795 H   0  0  0  0  0  0  0  0  0  0  0  0
  138.5727   69.0081  222.4031 H   0  0  0  0  0  0  0  0  0  0  0  0
  138.6565   67.6181  224.3397 H   0  0  0  0  0  0  0  0  0  0  0  0
  140.6036   69.0476  227.8859 H   0  0  0  0  0  0  0  0  0  0  0  0
  141.1380   71.1832  226.7220 H   0  0  0  0  0  0  0  0  0  0  0  0
  143.4756   75.3411  216.6940 H   0  0  0  0  0  0  0  0  0  0  0  0
  144.8603   73.4113  217.3600 H   0  0  0  0  0  0  0  0  0  0  0  0
  144.2672   74.4177  221.5073 H   0  0  0  0  0  0  0  0  0  0  0  0
  142.8728   76.3659  220.8031 H   0  0  0  0  0  0  0  0  0  0  0  0
  1  2  1  0
  2  3  1  0
  2  4  1  0
  4  5  1  0
  5  6  1  0
  6  7  2  0
  6  8  1  0
  8  9  1  0
  9 10  1  0
 10 11  1  0
 10 12  1  0
 12 13  1  0
 13 14  1  0
 14 15  2  0
 14 16  1  0
 16 17  1  0
 17 18  1  0
 18 19  2  0
 18 20  1  0
 20 21  2  0
 21 22  1  0
 22 23  2  0
 23 24  1  0
 24 25  2  0
 25 26  1  0
 25 27  1  0
 27 28  2  0
 28 29  1  0
 29 30  2  0
  4 31  1  0
 31 32  2  0
 32 33  1  0
 33 34  2  0
 34 35  1  0
 34 36  1  0
 36 37  2  0
 13  8  1  0
 30 20  1  0
 37 31  1  0
 29 23  1  0
  1 38  1  0
  1 39  1  0
  1 40  1  0
  2 41  1  0
  3 42  1  0
  3 43  1  0
  3 44  1  0
  4 45  1  6
  5 46  1  0
  8 47  1  6
  9 48  1  0
  9 49  1  0
 10 50  1  6
 11 51  1  0
 12 52  1  0
 12 53  1  0
 16 54  1  0
 16 55  1  0
 17 56  1  0
 21 57  1  0
 22 58  1  0
 24 59  1  0
 27 60  1  0
 28 61  1  0
 32 62  1  0
 33 63  1  0
 36 64  1  0
 37 65  1  0
M  END
>  <smiles>  (14) 
CC(C)C(NC(=O)[C@@H]1C[C@@H](O)CN1C(=O)CNC(=O)c1ccc2cc(F)ccc2n1)c1ccc(Cl)cc1

>  <score_type>  (14) 
oracle

>  <origin>  (14) 
autodockgpu

>  <m_score__min__energy>  (14) 
-9.9700000000000006

>  <m_primary>  (14) 
energy

>  <meeko>  (14) 
{"free_energy": -8.98, "intermolecular_energy": -11.67, "internal_energy": -2.65, "cluster_size": 1, "cluster_id": 3, "rank_in_cluster": 1}

>  <energy>  (14) 
-6.64

>  <cluster_rmsd>  (14) 
0.27

>  <rmsd>  (14) 
270.07

>  <cluster>  (14) 
7

$$$$

     RDKit          3D

 65 68  0  0  1  0  0  0  0  0999 V2000
  139.1000   75.7610  221.3940 C   0  0  0  0  0  0  0  0  0  0  0  0
  139.5810   76.5910  220.2440 C   0  0  0  0  0  0  0  0  0  0  0  0
  139.2850   75.9370  218.9280 C   0  0  0  0  0  0  0  0  0  0  0  0
  141.0600   76.7600  220.3600 C   0  0  2  0  0  0  0  0  0  0  0  0
  141.7060   75.5580  220.9040 N   0  0  0  0  0  0  0  0  0  0  0  0
  142.4590   74.7400  220.0300 C   0  0  0  0  0  0  0  0  0  0  0  0
  142.5900   75.0210  218.7910 O   0  0  0  0  0  0  0  0  0  0  0  0
  143.1230   73.5160  220.5610 C   0  0  2  0  0  0  0  0  0  0  0  0
  144.6120   73.8510  220.6210 C   0  0  0  0  0  0  0  0  0  0  0  0
  145.0330   73.4760  219.1960 C   0  0  1  0  0  0  0  0  0  0  0  0
  146.4080   73.3930  219.0830 O   0  0  0  0  0  0  0  0  0  0  0  0
  144.3460   72.1330  219.0610 C   0  0  0  0  0  0  0  0  0  0  0  0
  143.0220   72.4480  219.5650 N   0  0  0  0  0  0  0  0  0  0  0  0
  141.7710   71.8740  219.2110 C   0  0  0  0  0  0  0  0  0  0  0  0
  141.6110   71.0270  218.3110 O   0  0  0  0  0  0  0  0  0  0  0  0
  140.5760   72.3180  219.9680 C   0  0  0  0  0  0  0  0  0  0  0  0
  140.3290   71.4980  221.1280 N   0  0  0  0  0  0  0  0  0  0  0  0
  140.4260   72.1380  222.4050 C   0  0  0  0  0  0  0  0  0  0  0  0
  140.7210   73.3700  222.3740 O   0  0  0  0  0  0  0  0  0  0  0  0
  140.1990   71.4140  223.6460 C   0  0  0  0  0  0  0  0  0  0  0  0
  139.4610   70.2530  223.5830 C   0  0  0  0  0  0  0  0  0  0  0  0
  139.2020   69.5050  224.7320 C   0  0  0  0  0  0  0  0  0  0  0  0
  139.6950   69.9440  225.9400 C   0  0  0  0  0  0  0  0  0  0  0  0
  139.4450   69.2130  227.0850 C   0  0  0  0  0  0  0  0  0  0  0  0
  139.9350   69.6450  228.2960 C   0  0  0  0  0  0  0  0  0  0  0  0
  139.6750   68.9090  229.4000 F   0  0  0  0  0  0  0  0  0  0  0  0
  140.6740   70.8140  228.3390 C   0  0  0  0  0  0  0  0  0  0  0  0
  140.9160   71.5400  227.1720 C   0  0  0  0  0  0  0  0  0  0  0  0
  140.4240   71.1000  225.9720 C   0  0  0  0  0  0  0  0  0  0  0  0
  140.6680   71.8190  224.8410 N   0  0  0  0  0  0  0  0  0  0  0  0
  141.4350   77.8760  221.2800 C   0  0  0  0  0  0  0  0  0  0  0  0
  141.8340   79.1100  220.8120 C   0  0  0  0  0  0  0  0  0  0  0  0
  142.1760   80.1290  221.6750 C   0  0  0  0  0  0  0  0  0  0  0  0
  142.1250   79.9270  223.0370 C   0  0  0  0  0  0  0  0  0  0  0  0
  142.5520   81.1930  224.1910 Cl  0  0  0  0  0  0  0  0  0  0  0  0
  141.7270   78.6950  223.5430 C   0  0  0  0  0  0  0  0  0  0  0  0
  141.3840   77.6770  222.6460 C   0  0  0  0  0  0  0  0  0  0  0  0
  139.3815   76.2468  222.3399 H   0  0  0  0  0  0  0  0  0  0  0  0
  138.0055   75.6636  221.3434 H   0  0  0  0  0  0  0  0  0  0  0  0
  139.5597   74.7629  221.3434 H   0  0  0  0  0  0  0  0  0  0  0  0
  139.0602   77.5592  220.2796 H   0  0  0  0  0  0  0  0  0  0  0  0
  138.8372   74.9476  219.1027 H   0  0  0  0  0  0  0  0  0  0  0  0
  138.5821   76.5621  218.3578 H   0  0  0  0  0  0  0  0  0  0  0  0
  140.2185   75.8214  218.3578 H   0  0  0  0  0  0  0  0  0  0  0  0
  141.3985   76.9683  219.3343 H   0  0  0  0  0  0  0  0  0  0  0  0
  141.6030   75.3250  221.9150 H   0  0  0  0  0  0  0  0  0  0  0  0
  142.6795   73.2163  221.5220 H   0  0  0  0  0  0  0  0  0  0  0  0
  144.7814   74.9179  220.8282 H   0  0  0  0  0  0  0  0  0  0  0  0
  145.1689   73.3351  221.4171 H   0  0  0  0  0  0  0  0  0  0  0  0
  144.7584   74.1993  218.4141 H   0  0  0  0  0  0  0  0  0  0  0  0
  146.7680   74.2970  219.3440 H   0  0  0  0  0  0  0  0  0  0  0  0
  144.3109   71.8006  218.0130 H   0  0  0  0  0  0  0  0  0  0  0  0
  144.8493   71.3107  219.5906 H   0  0  0  0  0  0  0  0  0  0  0  0
  140.7300   73.3569  220.2951 H   0  0  0  0  0  0  0  0  0  0  0  0
  139.7043   72.2322  219.3026 H   0  0  0  0  0  0  0  0  0  0  0  0
  140.0880   70.4730  221.0720 H   0  0  0  0  0  0  0  0  0  0  0  0
  139.0703   69.9106  222.6134 H   0  0  0  0  0  0  0  0  0  0  0  0
  138.6125   68.5781  224.6734 H   0  0  0  0  0  0  0  0  0  0  0  0
  138.8548   68.2864  227.0288 H   0  0  0  0  0  0  0  0  0  0  0  0
  141.0732   71.1733  229.2990 H   0  0  0  0  0  0  0  0  0  0  0  0
  141.5039   72.4687  227.2161 H   0  0  0  0  0  0  0  0  0  0  0  0
  141.8804   79.2850  219.7270 H   0  0  0  0  0  0  0  0  0  0  0  0
  142.4900   81.1047  221.2758 H   0  0  0  0  0  0  0  0  0  0  0  0
  141.6825   78.5234  224.6286 H   0  0  0  0  0  0  0  0  0  0  0  0
  141.0674   76.6986  223.0366 H   0  0  0  0  0  0  0  0  0  0  0  0
  1  2  1  0
  2  3  1  0
  2  4  1  0
  4  5  1  0
  5  6  1  0
  6  7  2  0
  6  8  1  0
  8  9  1  0
  9 10  1  0
 10 11  1  0
 10 12  1  0
 12 13  1  0
 13 14  1  0
 14 15  2  0
 14 16  1  0
 16 17  1  0
 17 18  1  0
 18 19  2  0
 18 20  1  0
 20 21  2  0
 21 22  1  0
 22 23  2  0
 23 24  1  0
 24 25  2  0
 25 26  1  0
 25 27  1  0
 27 28  2  0
 28 29  1  0
 29 30  2  0
  4 31  1  0
 31 32  2  0
 32 33  1  0
 33 34  2  0
 34 35  1  0
 34 36  1  0
 36 37  2  0
 13  8  1  0
 30 20  1  0
 37 31  1  0
 29 23  1  0
  1 38  1  0
  1 39  1  0
  1 40  1  0
  2 41  1  0
  3 42  1  0
  3 43  1  0
  3 44  1  0
  4 45  1  6
  5 46  1  0
  8 47  1  1
  9 48  1  0
  9 49  1  0
 10 50  1  6
 11 51  1  0
 12 52  1  0
 12 53  1  0
 16 54  1  0
 16 55  1  0
 17 56  1  0
 21 57  1  0
 22 58  1  0
 24 59  1  0
 27 60  1  0
 28 61  1  0
 32 62  1  0
 33 63  1  0
 36 64  1  0
 37 65  1  0
M  END
>  <smiles>  (15) 
CC(C)C(NC(=O)[C@@H]1C[C@@H](O)CN1C(=O)CNC(=O)c1ccc2cc(F)ccc2n1)c1ccc(Cl)cc1

>  <score_type>  (15) 
oracle

>  <origin>  (15) 
autodockgpu

>  <m_score__min__energy>  (15) 
-9.9700000000000006

>  <m_primary>  (15) 
energy

>  <meeko>  (15) 
{"free_energy": -9.97, "intermolecular_energy": -12.66, "internal_energy": -3.03, "cluster_size": 3, "cluster_id": 1, "rank_in_cluster": 1}

>  <energy>  (15) 
-6.62

>  <cluster_rmsd>  (15) 
0.05

>  <rmsd>  (15) 
270.05

>  <cluster>  (15) 
7

$$$$

     RDKit          3D

 65 68  0  0  1  0  0  0  0  0999 V2000
  137.9250   78.4440  222.2950 C   0  0  0  0  0  0  0  0  0  0  0  0
  138.1560   77.0110  221.9240 C   0  0  0  0  0  0  0  0  0  0  0  0
  137.3290   76.0830  222.7610 C   0  0  0  0  0  0  0  0  0  0  0  0
  139.5960   76.6840  222.1460 C   0  0  2  0  0  0  0  0  0  0  0  0
  140.4810   77.7430  221.6410 N   0  0  0  0  0  0  0  0  0  0  0  0
  141.4490   78.2910  222.5130 C   0  0  0  0  0  0  0  0  0  0  0  0
  141.5720   77.8880  223.7200 O   0  0  0  0  0  0  0  0  0  0  0  0
  142.3560   79.3650  222.0210 C   0  0  2  0  0  0  0  0  0  0  0  0
  142.9120   80.0390  223.2750 C   0  0  0  0  0  0  0  0  0  0  0  0
  141.8120   81.0720  223.5390 C   0  0  1  0  0  0  0  0  0  0  0  0
  142.2260   82.0270  224.4470 O   0  0  0  0  0  0  0  0  0  0  0  0
  141.6270   81.6260  222.1410 C   0  0  0  0  0  0  0  0  0  0  0  0
  141.5570   80.4020  221.3650 N   0  0  0  0  0  0  0  0  0  0  0  0
  140.8540   80.1480  220.1570 C   0  0  0  0  0  0  0  0  0  0  0  0
  139.6180   80.0150  220.0730 O   0  0  0  0  0  0  0  0  0  0  0  0
  141.6510   80.0330  218.9120 C   0  0  0  0  0  0  0  0  0  0  0  0
  142.5150   78.8790  218.9220 N   0  0  0  0  0  0  0  0  0  0  0  0
  141.8830   77.5960  218.8700 C   0  0  0  0  0  0  0  0  0  0  0  0
  140.6160   77.6170  218.8200 O   0  0  0  0  0  0  0  0  0  0  0  0
  142.6490   76.3600  218.8750 C   0  0  0  0  0  0  0  0  0  0  0  0
  142.5020   75.5130  217.7990 C   0  0  0  0  0  0  0  0  0  0  0  0
  143.2050   74.3100  217.7320 C   0  0  0  0  0  0  0  0  0  0  0  0
  144.0530   73.9740  218.7630 C   0  0  0  0  0  0  0  0  0  0  0  0
  144.7540   72.7850  218.7100 C   0  0  0  0  0  0  0  0  0  0  0  0
  145.6040   72.4430  219.7360 C   0  0  0  0  0  0  0  0  0  0  0  0
  146.2770   71.2730  219.6570 F   0  0  0  0  0  0  0  0  0  0  0  0
  145.7380   73.3060  220.8090 C   0  0  0  0  0  0  0  0  0  0  0  0
  145.0210   74.5030  220.8460 C   0  0  0  0  0  0  0  0  0  0  0  0
  144.1790   74.8340  219.8190 C   0  0  0  0  0  0  0  0  0  0  0  0
  143.4850   76.0060  219.8680 N   0  0  0  0  0  0  0  0  0  0  0  0
  140.0120   75.4350  221.4400 C   0  0  0  0  0  0  0  0  0  0  0  0
  141.0680   74.6640  221.8750 C   0  0  0  0  0  0  0  0  0  0  0  0
  141.4380   73.5130  221.2110 C   0  0  0  0  0  0  0  0  0  0  0  0
  140.7490   73.1110  220.0880 C   0  0  0  0  0  0  0  0  0  0  0  0
  141.1760   71.6480  219.1970 Cl  0  0  0  0  0  0  0  0  0  0  0  0
  139.6780   73.8660  219.6230 C   0  0  0  0  0  0  0  0  0  0  0  0
  139.3220   75.0290  220.3130 C   0  0  0  0  0  0  0  0  0  0  0  0
  137.9093   78.5412  223.3906 H   0  0  0  0  0  0  0  0  0  0  0  0
  138.7347   79.0644  221.8834 H   0  0  0  0  0  0  0  0  0  0  0  0
  136.9613   78.7786  221.8834 H   0  0  0  0  0  0  0  0  0  0  0  0
  137.8708   76.8804  220.8697 H   0  0  0  0  0  0  0  0  0  0  0  0
  137.5120   76.2884  223.8260 H   0  0  0  0  0  0  0  0  0  0  0  0
  136.2634   76.2373  222.5357 H   0  0  0  0  0  0  0  0  0  0  0  0
  137.6045   75.0422  222.5357 H   0  0  0  0  0  0  0  0  0  0  0  0
  139.6905   76.5671  223.2357 H   0  0  0  0  0  0  0  0  0  0  0  0
  140.3840   78.0740  220.6560 H   0  0  0  0  0  0  0  0  0  0  0  0
  143.1182   78.9524  221.3436 H   0  0  0  0  0  0  0  0  0  0  0  0
  143.0121   79.3286  224.1088 H   0  0  0  0  0  0  0  0  0  0  0  0
  143.9222   80.4596  223.1630 H   0  0  0  0  0  0  0  0  0  0  0  0
  140.8893   80.6777  223.9899 H   0  0  0  0  0  0  0  0  0  0  0  0
  143.2000   82.1970  224.2530 H   0  0  0  0  0  0  0  0  0  0  0  0
  140.6990   82.2107  222.0577 H   0  0  0  0  0  0  0  0  0  0  0  0
  142.4168   82.3214  221.8207 H   0  0  0  0  0  0  0  0  0  0  0  0
  140.9631   79.9529  218.0574 H   0  0  0  0  0  0  0  0  0  0  0  0
  142.2851   80.9284  218.8336 H   0  0  0  0  0  0  0  0  0  0  0  0
  143.5670   78.9440  218.9660 H   0  0  0  0  0  0  0  0  0  0  0  0
  141.8206   75.7891  216.9808 H   0  0  0  0  0  0  0  0  0  0  0  0
  143.0836   73.6399  216.8682 H   0  0  0  0  0  0  0  0  0  0  0  0
  144.6326   72.1123  217.8482 H   0  0  0  0  0  0  0  0  0  0  0  0
  146.4135   73.0473  221.6378 H   0  0  0  0  0  0  0  0  0  0  0  0
  145.1331   75.1827  221.7036 H   0  0  0  0  0  0  0  0  0  0  0  0
  141.6275   74.9728  222.7703 H   0  0  0  0  0  0  0  0  0  0  0  0
  142.2848   72.9150  221.5789 H   0  0  0  0  0  0  0  0  0  0  0  0
  139.1203   73.5538  218.7277 H   0  0  0  0  0  0  0  0  0  0  0  0
  138.4763   75.6327  219.9519 H   0  0  0  0  0  0  0  0  0  0  0  0
  1  2  1  0
  2  3  1  0
  2  4  1  0
  4  5  1  0
  5  6  1  0
  6  7  2  0
  6  8  1  0
  8  9  1  0
  9 10  1  0
 10 11  1  0
 10 12  1  0
 12 13  1  0
 13 14  1  0
 14 15  2  0
 14 16  1  0
 16 17  1  0
 17 18  1  0
 18 19  2  0
 18 20  1  0
 20 21  2  0
 21 22  1  0
 22 23  2  0
 23 24  1  0
 24 25  2  0
 25 26  1  0
 25 27  1  0
 27 28  2  0
 28 29  1  0
 29 30  2  0
  4 31  1  0
 31 32  2  0
 32 33  1  0
 33 34  2  0
 34 35  1  0
 34 36  1  0
 36 37  2  0
 13  8  1  0
 30 20  1  0
 37 31  1  0
 29 23  1  0
  1 38  1  0
  1 39  1  0
  1 40  1  0
  2 41  1  0
  3 42  1  0
  3 43  1  0
  3 44  1  0
  4 45  1  1
  5 46  1  0
  8 47  1  6
  9 48  1  0
  9 49  1  0
 10 50  1  1
 11 51  1  0
 12 52  1  0
 12 53  1  0
 16 54  1  0
 16 55  1  0
 17 56  1  0
 21 57  1  0
 22 58  1  0
 24 59  1  0
 27 60  1  0
 28 61  1  0
 32 62  1  0
 33 63  1  0
 36 64  1  0
 37 65  1  0
M  END
>  <smiles>  (16) 
CC(C)C(NC(=O)[C@@H]1C[C@@H](O)CN1C(=O)CNC(=O)c1ccc2cc(F)ccc2n1)c1ccc(Cl)cc1

>  <score_type>  (16) 
oracle

>  <origin>  (16) 
autodockgpu

>  <m_score__min__energy>  (16) 
-9.9700000000000006

>  <m_primary>  (16) 
energy

>  <meeko>  (16) 
{"free_energy": -6.24, "intermolecular_energy": -8.93, "internal_energy": -5.67, "cluster_size": 5, "cluster_id": 7, "rank_in_cluster": 4}

>  <energy>  (16) 
-6.24

>  <cluster_rmsd>  (16) 
0.64

>  <rmsd>  (16) 
270.02

>  <cluster>  (16) 
7

$$$$

     RDKit          3D

 65 68  0  0  1  0  0  0  0  0999 V2000
  138.9180   73.1430  221.9430 C   0  0  0  0  0  0  0  0  0  0  0  0
  139.7310   72.2660  222.8440 C   0  0  0  0  0  0  0  0  0  0  0  0
  140.9470   71.7350  222.1480 C   0  0  0  0  0  0  0  0  0  0  0  0
  138.8910   71.1060  223.2700 C   0  0  2  0  0  0  0  0  0  0  0  0
  137.5100   71.5120  223.5640 N   0  0  0  0  0  0  0  0  0  0  0  0
  136.4510   70.8170  222.9350 C   0  0  0  0  0  0  0  0  0  0  0  0
  136.6670   69.8520  222.1260 O   0  0  0  0  0  0  0  0  0  0  0  0
  135.0430   71.2110  223.2200 C   0  0  2  0  0  0  0  0  0  0  0  0
  134.1840   70.3720  222.2760 C   0  0  0  0  0  0  0  0  0  0  0  0
  134.1950   71.2650  221.0310 C   0  0  1  0  0  0  0  0  0  0  0  0
  133.2260   70.8780  220.1250 O   0  0  0  0  0  0  0  0  0  0  0  0
  133.9080   72.6100  221.6660 C   0  0  0  0  0  0  0  0  0  0  0  0
  134.8370   72.5920  222.7810 N   0  0  0  0  0  0  0  0  0  0  0  0
  135.4940   73.6820  223.4140 C   0  0  0  0  0  0  0  0  0  0  0  0
  135.8300   73.7040  224.6140 O   0  0  0  0  0  0  0  0  0  0  0  0
  135.7960   74.8740  222.5860 C   0  0  0  0  0  0  0  0  0  0  0  0
  137.1000   75.4190  222.8710 N   0  0  0  0  0  0  0  0  0  0  0  0
  137.3910   76.7150  222.3370 C   0  0  0  0  0  0  0  0  0  0  0  0
  136.4570   77.2470  221.6650 O   0  0  0  0  0  0  0  0  0  0  0  0
  138.6720   77.3670  222.5570 C   0  0  0  0  0  0  0  0  0  0  0  0
  139.8130   76.6330  222.3180 C   0  0  0  0  0  0  0  0  0  0  0  0
  141.0780   77.1910  222.5060 C   0  0  0  0  0  0  0  0  0  0  0  0
  141.1740   78.4940  222.9380 C   0  0  0  0  0  0  0  0  0  0  0  0
  142.4210   79.0580  223.1290 C   0  0  0  0  0  0  0  0  0  0  0  0
  142.5260   80.3600  223.5610 C   0  0  0  0  0  0  0  0  0  0  0  0
  143.7590   80.8860  223.7390 F   0  0  0  0  0  0  0  0  0  0  0  0
  141.3700   81.0820  223.7960 C   0  0  0  0  0  0  0  0  0  0  0  0
  140.1180   80.4950  223.5980 C   0  0  0  0  0  0  0  0  0  0  0  0
  140.0250   79.1980  223.1680 C   0  0  0  0  0  0  0  0  0  0  0  0
  138.7980   78.6380  222.9790 N   0  0  0  0  0  0  0  0  0  0  0  0
  139.4020   70.4620  224.5180 C   0  0  0  0  0  0  0  0  0  0  0  0
  139.0850   69.1640  224.8550 C   0  0  0  0  0  0  0  0  0  0  0  0
  139.5650   68.5840  226.0100 C   0  0  0  0  0  0  0  0  0  0  0  0
  140.3780   69.3040  226.8580 C   0  0  0  0  0  0  0  0  0  0  0  0
  141.0220   68.6160  228.3510 Cl  0  0  0  0  0  0  0  0  0  0  0  0
  140.7170   70.6160  226.5480 C   0  0  0  0  0  0  0  0  0  0  0  0
  140.2180   71.1810  225.3700 C   0  0  0  0  0  0  0  0  0  0  0  0
  138.2946   73.8154  222.5507 H   0  0  0  0  0  0  0  0  0  0  0  0
  139.5897   73.7395  221.3082 H   0  0  0  0  0  0  0  0  0  0  0  0
  138.2724   72.5183  221.3082 H   0  0  0  0  0  0  0  0  0  0  0  0
  140.0550   72.8675  223.7061 H   0  0  0  0  0  0  0  0  0  0  0  0
  141.6861   71.4123  222.8961 H   0  0  0  0  0  0  0  0  0  0  0  0
  140.6644   70.8784  221.5185 H   0  0  0  0  0  0  0  0  0  0  0  0
  141.3833   72.5245  221.5185 H   0  0  0  0  0  0  0  0  0  0  0  0
  138.9315   70.4045  222.4237 H   0  0  0  0  0  0  0  0  0  0  0  0
  137.3290   72.2980  224.2260 H   0  0  0  0  0  0  0  0  0  0  0  0
  134.8100   71.0861  224.2878 H   0  0  0  0  0  0  0  0  0  0  0  0
  134.6380   69.3901  222.0768 H   0  0  0  0  0  0  0  0  0  0  0  0
  133.1822   70.1278  222.6591 H   0  0  0  0  0  0  0  0  0  0  0  0
  135.1206   71.2392  220.4371 H   0  0  0  0  0  0  0  0  0  0  0  0
  133.3230   69.8810  220.0170 H   0  0  0  0  0  0  0  0  0  0  0  0
  134.1229   73.4377  220.9741 H   0  0  0  0  0  0  0  0  0  0  0  0
  132.8570   72.7616  221.9531 H   0  0  0  0  0  0  0  0  0  0  0  0
  135.7561   74.5875  221.5247 H   0  0  0  0  0  0  0  0  0  0  0  0
  135.0486   75.6463  222.8206 H   0  0  0  0  0  0  0  0  0  0  0  0
  137.8280   74.9110  223.4410 H   0  0  0  0  0  0  0  0  0  0  0  0
  139.7256   75.5919  221.9739 H   0  0  0  0  0  0  0  0  0  0  0  0
  141.9843   76.5986  222.3119 H   0  0  0  0  0  0  0  0  0  0  0  0
  143.3283   78.4668  222.9359 H   0  0  0  0  0  0  0  0  0  0  0  0
  141.4369   82.1244  224.1408 H   0  0  0  0  0  0  0  0  0  0  0  0
  139.2037   81.0764  223.7881 H   0  0  0  0  0  0  0  0  0  0  0  0
  138.4352   68.5781  224.1883 H   0  0  0  0  0  0  0  0  0  0  0  0
  139.2986   67.5452  226.2548 H   0  0  0  0  0  0  0  0  0  0  0  0
  141.3662   71.1995  227.2174 H   0  0  0  0  0  0  0  0  0  0  0  0
  140.4805   72.2188  225.1167 H   0  0  0  0  0  0  0  0  0  0  0  0
  1  2  1  0
  2  3  1  0
  2  4  1  0
  4  5  1  0
  5  6  1  0
  6  7  2  0
  6  8  1  0
  8  9  1  0
  9 10  1  0
 10 11  1  0
 10 12  1  0
 12 13  1  0
 13 14  1  0
 14 15  2  0
 14 16  1  0
 16 17  1  0
 17 18  1  0
 18 19  2  0
 18 20  1  0
 20 21  2  0
 21 22  1  0
 22 23  2  0
 23 24  1  0
 24 25  2  0
 25 26  1  0
 25 27  1  0
 27 28  2  0
 28 29  1  0
 29 30  2  0
  4 31  1  0
 31 32  2  0
 32 33  1  0
 33 34  2  0
 34 35  1  0
 34 36  1  0
 36 37  2  0
 13  8  1  0
 30 20  1  0
 37 31  1  0
 29 23  1  0
  1 38  1  0
  1 39  1  0
  1 40  1  0
  2 41  1  0
  3 42  1  0
  3 43  1  0
  3 44  1  0
  4 45  1  6
  5 46  1  0
  8 47  1  1
  9 48  1  0
  9 49  1  0
 10 50  1  6
 11 51  1  0
 12 52  1  0
 12 53  1  0
 16 54  1  0
 16 55  1  0
 17 56  1  0
 21 57  1  0
 22 58  1  0
 24 59  1  0
 27 60  1  0
 28 61  1  0
 32 62  1  0
 33 63  1  0
 36 64  1  0
 37 65  1  0
M  END
>  <smiles>  (17) 
CC(C)C(NC(=O)[C@@H]1C[C@@H](O)CN1C(=O)CNC(=O)c1ccc2cc(F)ccc2n1)c1ccc(Cl)cc1

>  <score_type>  (17) 
oracle

>  <origin>  (17) 
autodockgpu

>  <m_score__min__energy>  (17) 
-9.9700000000000006

>  <m_primary>  (17) 
energy

>  <meeko>  (17) 
{"free_energy": -8.29, "intermolecular_energy": -10.98, "internal_energy": -3.22, "cluster_size": 2, "cluster_id": 4, "rank_in_cluster": 1}

>  <energy>  (17) 
-6.17

>  <cluster_rmsd>  (17) 
0.64

>  <rmsd>  (17) 
270.0

>  <cluster>  (17) 
7

$$$$

     RDKit          3D

 65 68  0  0  1  0  0  0  0  0999 V2000
  137.8920   77.2770  220.4680 C   0  0  0  0  0  0  0  0  0  0  0  0
  137.9380   77.1140  221.9560 C   0  0  0  0  0  0  0  0  0  0  0  0
  137.5150   78.3660  222.6620 C   0  0  0  0  0  0  0  0  0  0  0  0
  139.3410   76.8000  222.3610 C   0  0  2  0  0  0  0  0  0  0  0  0
  140.3040   77.7360  221.7640 N   0  0  0  0  0  0  0  0  0  0  0  0
  141.3310   78.2630  222.5800 C   0  0  0  0  0  0  0  0  0  0  0  0
  141.4400   77.9460  223.8130 O   0  0  0  0  0  0  0  0  0  0  0  0
  142.3180   79.2130  221.9940 C   0  0  2  0  0  0  0  0  0  0  0  0
  142.9780   79.9050  223.1860 C   0  0  0  0  0  0  0  0  0  0  0  0
  141.9900   81.0540  223.4140 C   0  0  1  0  0  0  0  0  0  0  0  0
  142.5230   82.0180  224.2480 O   0  0  0  0  0  0  0  0  0  0  0  0
  141.8110   81.5370  221.9900 C   0  0  0  0  0  0  0  0  0  0  0  0
  141.5980   80.2790  221.2960 N   0  0  0  0  0  0  0  0  0  0  0  0
  140.8330   80.0220  220.1270 C   0  0  0  0  0  0  0  0  0  0  0  0
  139.5900   79.9440  220.0990 O   0  0  0  0  0  0  0  0  0  0  0  0
  141.5710   79.8300  218.8550 C   0  0  0  0  0  0  0  0  0  0  0  0
  142.4450   78.6850  218.8980 N   0  0  0  0  0  0  0  0  0  0  0  0
  141.8270   77.3950  218.8350 C   0  0  0  0  0  0  0  0  0  0  0  0
  140.5620   77.4040  218.7450 O   0  0  0  0  0  0  0  0  0  0  0  0
  142.6050   76.1670  218.8700 C   0  0  0  0  0  0  0  0  0  0  0  0
  142.3750   75.2360  217.8810 C   0  0  0  0  0  0  0  0  0  0  0  0
  143.0830   74.0340  217.8490 C   0  0  0  0  0  0  0  0  0  0  0  0
  144.0210   73.7860  218.8260 C   0  0  0  0  0  0  0  0  0  0  0  0
  144.7280   72.5990  218.8050 C   0  0  0  0  0  0  0  0  0  0  0  0
  145.6670   72.3430  219.7780 C   0  0  0  0  0  0  0  0  0  0  0  0
  146.3440   71.1740  219.7330 F   0  0  0  0  0  0  0  0  0  0  0  0
  145.8840   73.2900  220.7630 C   0  0  0  0  0  0  0  0  0  0  0  0
  145.1590   74.4830  220.7680 C   0  0  0  0  0  0  0  0  0  0  0  0
  144.2270   74.7280  219.7950 C   0  0  0  0  0  0  0  0  0  0  0  0
  143.5270   75.8960  219.8120 N   0  0  0  0  0  0  0  0  0  0  0  0
  139.7690   75.4380  221.9210 C   0  0  0  0  0  0  0  0  0  0  0  0
  138.8780   74.3930  221.7990 C   0  0  0  0  0  0  0  0  0  0  0  0
  139.2900   73.1420  221.3910 C   0  0  0  0  0  0  0  0  0  0  0  0
  140.6160   72.9130  221.0960 C   0  0  0  0  0  0  0  0  0  0  0  0
  141.2020   71.3340  220.5700 Cl  0  0  0  0  0  0  0  0  0  0  0  0
  141.5410   73.9450  221.2090 C   0  0  0  0  0  0  0  0  0  0  0  0
  141.0980   75.2050  221.6240 C   0  0  0  0  0  0  0  0  0  0  0  0
  137.6008   78.3086  220.2210 H   0  0  0  0  0  0  0  0  0  0  0  0
  138.8851   77.0650  220.0450 H   0  0  0  0  0  0  0  0  0  0  0  0
  137.1563   76.5771  220.0450 H   0  0  0  0  0  0  0  0  0  0  0  0
  137.2472   76.3041  222.2331 H   0  0  0  0  0  0  0  0  0  0  0  0
  137.5679   78.2094  223.7495 H   0  0  0  0  0  0  0  0  0  0  0  0
  138.1842   79.1914  222.3774 H   0  0  0  0  0  0  0  0  0  0  0  0
  136.4824   78.6164  222.3774 H   0  0  0  0  0  0  0  0  0  0  0  0
  139.3382   76.8729  223.4586 H   0  0  0  0  0  0  0  0  0  0  0  0
  140.2190   77.9960  220.7570 H   0  0  0  0  0  0  0  0  0  0  0  0
  143.0144   78.6890  221.3228 H   0  0  0  0  0  0  0  0  0  0  0  0
  143.0387   79.2404  224.0604 H   0  0  0  0  0  0  0  0  0  0  0  0
  144.0192   80.2182  223.0191 H   0  0  0  0  0  0  0  0  0  0  0  0
  141.0498   80.7789  223.9144 H   0  0  0  0  0  0  0  0  0  0  0  0
  141.9130   82.0680  225.0470 H   0  0  0  0  0  0  0  0  0  0  0  0
  140.9406   82.2030  221.8956 H   0  0  0  0  0  0  0  0  0  0  0  0
  142.6519   82.1316  221.6035 H   0  0  0  0  0  0  0  0  0  0  0  0
  140.8438   79.6897  218.0417 H   0  0  0  0  0  0  0  0  0  0  0  0
  142.1926   80.7221  218.6883 H   0  0  0  0  0  0  0  0  0  0  0  0
  143.4950   78.7600  218.9740 H   0  0  0  0  0  0  0  0  0  0  0  0
  141.6227   75.4431  217.1057 H   0  0  0  0  0  0  0  0  0  0  0  0
  142.8946   73.2959  217.0554 H   0  0  0  0  0  0  0  0  0  0  0  0
  144.5406   71.8600  218.0120 H   0  0  0  0  0  0  0  0  0  0  0  0
  146.6323   73.1018  221.5470 H   0  0  0  0  0  0  0  0  0  0  0  0
  145.3370   75.2291  221.5565 H   0  0  0  0  0  0  0  0  0  0  0  0
  137.8161   74.5608  222.0320 H   0  0  0  0  0  0  0  0  0  0  0  0
  138.5585   72.3254  221.3009 H   0  0  0  0  0  0  0  0  0  0  0  0
  142.6023   73.7735  220.9761 H   0  0  0  0  0  0  0  0  0  0  0  0
  141.8227   76.0274  221.7158 H   0  0  0  0  0  0  0  0  0  0  0  0
  1  2  1  0
  2  3  1  0
  2  4  1  0
  4  5  1  0
  5  6  1  0
  6  7  2  0
  6  8  1  0
  8  9  1  0
  9 10  1  0
 10 11  1  0
 10 12  1  0
 12 13  1  0
 13 14  1  0
 14 15  2  0
 14 16  1  0
 16 17  1  0
 17 18  1  0
 18 19  2  0
 18 20  1  0
 20 21  2  0
 21 22  1  0
 22 23  2  0
 23 24  1  0
 24 25  2  0
 25 26  1  0
 25 27  1  0
 27 28  2  0
 28 29  1  0
 29 30  2  0
  4 31  1  0
 31 32  2  0
 32 33  1  0
 33 34  2  0
 34 35  1  0
 34 36  1  0
 36 37  2  0
 13  8  1  0
 30 20  1  0
 37 31  1  0
 29 23  1  0
  1 38  1  0
  1 39  1  0
  1 40  1  0
  2 41  1  0
  3 42  1  0
  3 43  1  0
  3 44  1  0
  4 45  1  1
  5 46  1  0
  8 47  1  6
  9 48  1  0
  9 49  1  0
 10 50  1  1
 11 51  1  0
 12 52  1  0
 12 53  1  0
 16 54  1  0
 16 55  1  0
 17 56  1  0
 21 57  1  0
 22 58  1  0
 24 59  1  0
 27 60  1  0
 28 61  1  0
 32 62  1  0
 33 63  1  0
 36 64  1  0
 37 65  1  0
M  END
>  <smiles>  (18) 
CC(C)C(NC(=O)[C@@H]1C[C@@H](O)CN1C(=O)CNC(=O)c1ccc2cc(F)ccc2n1)c1ccc(Cl)cc1

>  <score_type>  (18) 
oracle

>  <origin>  (18) 
autodockgpu

>  <m_score__min__energy>  (18) 
-9.9700000000000006

>  <m_primary>  (18) 
energy

>  <meeko>  (18) 
{"free_energy": -6.66, "intermolecular_energy": -9.35, "internal_energy": -5.32, "cluster_size": 5, "cluster_id": 7, "rank_in_cluster": 1}

>  <energy>  (18) 
-6.37

>  <cluster_rmsd>  (18) 
0.0

>  <rmsd>  (18) 
268.44

>  <cluster>  (18) 
8

$$$$

     RDKit          3D

 65 68  0  0  1  0  0  0  0  0999 V2000
  138.6900   76.0170  221.1980 C   0  0  0  0  0  0  0  0  0  0  0  0
  139.2720   76.7500  220.0290 C   0  0  0  0  0  0  0  0  0  0  0  0
  138.9260   76.0850  218.7310 C   0  0  0  0  0  0  0  0  0  0  0  0
  140.7600   76.7650  220.1650 C   0  0  2  0  0  0  0  0  0  0  0  0
  141.2740   75.4850  220.6730 N   0  0  0  0  0  0  0  0  0  0  0  0
  142.4850   74.9830  220.1430 C   0  0  0  0  0  0  0  0  0  0  0  0
  143.1360   75.6120  219.2420 O   0  0  0  0  0  0  0  0  0  0  0  0
  143.0240   73.6880  220.6450 C   0  0  2  0  0  0  0  0  0  0  0  0
  144.5280   73.9030  220.8010 C   0  0  0  0  0  0  0  0  0  0  0  0
  145.0000   73.5650  219.3830 C   0  0  1  0  0  0  0  0  0  0  0  0
  146.3690   73.3810  219.3390 O   0  0  0  0  0  0  0  0  0  0  0  0
  144.2240   72.2870  219.1420 C   0  0  0  0  0  0  0  0  0  0  0  0
  142.9000   72.6800  219.5900 N   0  0  0  0  0  0  0  0  0  0  0  0
  141.6320   72.2210  219.1420 C   0  0  0  0  0  0  0  0  0  0  0  0
  141.4390   71.6100  218.0730 O   0  0  0  0  0  0  0  0  0  0  0  0
  140.4600   72.4930  220.0080 C   0  0  0  0  0  0  0  0  0  0  0  0
  140.3870   71.5870  221.1270 N   0  0  0  0  0  0  0  0  0  0  0  0
  140.2700   72.1730  222.4280 C   0  0  0  0  0  0  0  0  0  0  0  0
  140.2430   73.4400  222.4520 O   0  0  0  0  0  0  0  0  0  0  0  0
  140.1880   71.3610  223.6320 C   0  0  0  0  0  0  0  0  0  0  0  0
  139.5640   70.1360  223.5350 C   0  0  0  0  0  0  0  0  0  0  0  0
  139.4470   69.3020  224.6470 C   0  0  0  0  0  0  0  0  0  0  0  0
  139.9660   69.7190  225.8530 C   0  0  0  0  0  0  0  0  0  0  0  0
  139.8560   68.9020  226.9620 C   0  0  0  0  0  0  0  0  0  0  0  0
  140.3710   69.3130  228.1700 C   0  0  0  0  0  0  0  0  0  0  0  0
  140.2490   68.4930  229.2370 F   0  0  0  0  0  0  0  0  0  0  0  0
  140.9930   70.5460  228.2470 C   0  0  0  0  0  0  0  0  0  0  0  0
  141.0940   71.3580  227.1160 C   0  0  0  0  0  0  0  0  0  0  0  0
  140.5780   70.9400  225.9180 C   0  0  0  0  0  0  0  0  0  0  0  0
  140.6840   71.7430  224.8230 N   0  0  0  0  0  0  0  0  0  0  0  0
  141.2330   77.8050  221.1280 C   0  0  0  0  0  0  0  0  0  0  0  0
  141.7580   79.0080  220.7070 C   0  0  0  0  0  0  0  0  0  0  0  0
  142.1890   79.9580  221.6090 C   0  0  0  0  0  0  0  0  0  0  0  0
  142.1030   79.7150  222.9630 C   0  0  0  0  0  0  0  0  0  0  0  0
  142.6400   80.8910  224.1640 Cl  0  0  0  0  0  0  0  0  0  0  0  0
  141.5790   78.5110  223.4210 C   0  0  0  0  0  0  0  0  0  0  0  0
  141.1480   77.5640  222.4860 C   0  0  0  0  0  0  0  0  0  0  0  0
  139.0509   76.4715  222.1324 H   0  0  0  0  0  0  0  0  0  0  0  0
  137.5924   76.0790  221.1601 H   0  0  0  0  0  0  0  0  0  0  0  0
  138.9992   74.9620  221.1601 H   0  0  0  0  0  0  0  0  0  0  0  0
  138.8568   77.7686  220.0228 H   0  0  0  0  0  0  0  0  0  0  0  0
  138.4268   75.1256  218.9322 H   0  0  0  0  0  0  0  0  0  0  0  0
  138.2519   76.7352  218.1542 H   0  0  0  0  0  0  0  0  0  0  0  0
  139.8454   75.9061  218.1542 H   0  0  0  0  0  0  0  0  0  0  0  0
  141.1317   76.9735  219.1509 H   0  0  0  0  0  0  0  0  0  0  0  0
  140.7450   74.9690  221.4100 H   0  0  0  0  0  0  0  0  0  0  0  0
  142.5058   73.3783  221.5646 H   0  0  0  0  0  0  0  0  0  0  0  0
  144.7648   74.9424  221.0721 H   0  0  0  0  0  0  0  0  0  0  0  0
  144.9985   73.3079  221.5975 H   0  0  0  0  0  0  0  0  0  0  0  0
  144.8248   74.3441  218.6265 H   0  0  0  0  0  0  0  0  0  0  0  0
  146.7770   74.3020  219.3180 H   0  0  0  0  0  0  0  0  0  0  0  0
  144.2245   72.0083  218.0779 H   0  0  0  0  0  0  0  0  0  0  0  0
  144.6332   71.4038  219.6544 H   0  0  0  0  0  0  0  0  0  0  0  0
  140.5330   73.5221  220.3897 H   0  0  0  0  0  0  0  0  0  0  0  0
  139.5529   72.3540  219.4016 H   0  0  0  0  0  0  0  0  0  0  0  0
  140.4160   70.5370  221.0250 H   0  0  0  0  0  0  0  0  0  0  0  0
  139.1527   69.8116  222.5677 H   0  0  0  0  0  0  0  0  0  0  0  0
  138.9476   68.3256  224.5621 H   0  0  0  0  0  0  0  0  0  0  0  0
  139.3577   67.9249  226.8793 H   0  0  0  0  0  0  0  0  0  0  0  0
  141.4106   70.8888  229.2052 H   0  0  0  0  0  0  0  0  0  0  0  0
  141.5899   72.3373  227.1871 H   0  0  0  0  0  0  0  0  0  0  0  0
  141.8348   79.2145  219.6293 H   0  0  0  0  0  0  0  0  0  0  0  0
  142.6021   80.9112  221.2473 H   0  0  0  0  0  0  0  0  0  0  0  0
  141.5048   78.3070  224.4994 H   0  0  0  0  0  0  0  0  0  0  0  0
  140.7331   76.6083  222.8388 H   0  0  0  0  0  0  0  0  0  0  0  0
  1  2  1  0
  2  3  1  0
  2  4  1  0
  4  5  1  0
  5  6  1  0
  6  7  2  0
  6  8  1  0
  8  9  1  0
  9 10  1  0
 10 11  1  0
 10 12  1  0
 12 13  1  0
 13 14  1  0
 14 15  2  0
 14 16  1  0
 16 17  1  0
 17 18  1  0
 18 19  2  0
 18 20  1  0
 20 21  2  0
 21 22  1  0
 22 23  2  0
 23 24  1  0
 24 25  2  0
 25 26  1  0
 25 27  1  0
 27 28  2  0
 28 29  1  0
 29 30  2  0
  4 31  1  0
 31 32  2  0
 32 33  1  0
 33 34  2  0
 34 35  1  0
 34 36  1  0
 36 37  2  0
 13  8  1  0
 30 20  1  0
 37 31  1  0
 29 23  1  0
  1 38  1  0
  1 39  1  0
  1 40  1  0
  2 41  1  0
  3 42  1  0
  3 43  1  0
  3 44  1  0
  4 45  1  6
  5 46  1  0
  8 47  1  1
  9 48  1  0
  9 49  1  0
 10 50  1  6
 11 51  1  0
 12 52  1  0
 12 53  1  0
 16 54  1  0
 16 55  1  0
 17 56  1  0
 21 57  1  0
 22 58  1  0
 24 59  1  0
 27 60  1  0
 28 61  1  0
 32 62  1  0
 33 63  1  0
 36 64  1  0
 37 65  1  0
M  END
>  <smiles>  (19) 
CC(C)C(NC(=O)[C@@H]1C[C@@H](O)CN1C(=O)CNC(=O)c1ccc2cc(F)ccc2n1)c1ccc(Cl)cc1

>  <score_type>  (19) 
oracle

>  <origin>  (19) 
autodockgpu

>  <m_score__min__energy>  (19) 
-9.9700000000000006

>  <m_primary>  (19) 
energy

>  <meeko>  (19) 
{"free_energy": -9.84, "intermolecular_energy": -12.52, "internal_energy": -3.08, "cluster_size": 3, "cluster_id": 1, "rank_in_cluster": 2}

>  <energy>  (19) 
-6.16

>  <cluster_rmsd>  (19) 
0.0

>  <rmsd>  (19) 
269.69

>  <cluster>  (19) 
9

$$$$

     RDKit          3D

 65 68  0  0  1  0  0  0  0  0999 V2000
  138.7250   72.9540  221.9830 C   0  0  0  0  0  0  0  0  0  0  0  0
  139.5660   72.1630  222.9370 C   0  0  0  0  0  0  0  0  0  0  0  0
  140.7790   71.5950  222.2640 C   0  0  0  0  0  0  0  0  0  0  0  0
  138.7510   71.0290  223.4680 C   0  0  2  0  0  0  0  0  0  0  0  0
  137.3920   71.4560  223.8290 N   0  0  0  0  0  0  0  0  0  0  0  0
  136.3010   70.6480  223.4340 C   0  0  0  0  0  0  0  0  0  0  0  0
  136.4690   69.5650  222.7770 O   0  0  0  0  0  0  0  0  0  0  0  0
  134.9150   71.0620  223.7910 C   0  0  2  0  0  0  0  0  0  0  0  0
  133.9940   70.1310  223.0040 C   0  0  0  0  0  0  0  0  0  0  0  0
  133.8960   70.8990  221.6810 C   0  0  1  0  0  0  0  0  0  0  0  0
  132.8630   70.4220  220.8980 O   0  0  0  0  0  0  0  0  0  0  0  0
  133.6430   72.2980  222.2050 C   0  0  0  0  0  0  0  0  0  0  0  0
  134.6580   72.3930  223.2390 N   0  0  0  0  0  0  0  0  0  0  0  0
  135.3490   73.5420  223.7090 C   0  0  0  0  0  0  0  0  0  0  0  0
  135.6760   73.7340  224.8960 O   0  0  0  0  0  0  0  0  0  0  0  0
  135.7030   74.5840  222.7140 C   0  0  0  0  0  0  0  0  0  0  0  0
  136.8710   75.3340  223.1020 N   0  0  0  0  0  0  0  0  0  0  0  0
  137.4820   76.1470  222.0960 C   0  0  0  0  0  0  0  0  0  0  0  0
  136.9210   76.1160  220.9590 O   0  0  0  0  0  0  0  0  0  0  0  0
  138.6650   76.9490  222.3680 C   0  0  0  0  0  0  0  0  0  0  0  0
  139.8940   76.3800  222.1180 C   0  0  0  0  0  0  0  0  0  0  0  0
  141.0730   77.0870  222.3540 C   0  0  0  0  0  0  0  0  0  0  0  0
  140.9940   78.3710  222.8450 C   0  0  0  0  0  0  0  0  0  0  0  0
  142.1550   79.0820  223.0840 C   0  0  0  0  0  0  0  0  0  0  0  0
  142.0840   80.3660  223.5740 C   0  0  0  0  0  0  0  0  0  0  0  0
  143.2350   81.0380  223.7980 F   0  0  0  0  0  0  0  0  0  0  0  0
  140.8410   80.9200  223.8190 C   0  0  0  0  0  0  0  0  0  0  0  0
  139.6790   80.1860  223.5720 C   0  0  0  0  0  0  0  0  0  0  0  0
  139.7610   78.9100  223.0840 C   0  0  0  0  0  0  0  0  0  0  0  0
  138.6190   78.2050  222.8480 N   0  0  0  0  0  0  0  0  0  0  0  0
  139.3370   70.4390  224.7090 C   0  0  0  0  0  0  0  0  0  0  0  0
  140.1570   71.1630  225.5480 C   0  0  0  0  0  0  0  0  0  0  0  0
  140.6890   70.6040  226.6900 C   0  0  0  0  0  0  0  0  0  0  0  0
  140.4080   69.2950  227.0150 C   0  0  0  0  0  0  0  0  0  0  0  0
  141.0600   68.5240  228.4620 Cl  0  0  0  0  0  0  0  0  0  0  0  0
  139.5850   68.5360  226.1900 C   0  0  0  0  0  0  0  0  0  0  0  0
  139.0570   69.1260  225.0370 C   0  0  0  0  0  0  0  0  0  0  0  0
  138.0379   73.6003  222.5489 H   0  0  0  0  0  0  0  0  0  0  0  0
  139.3751   73.5756  221.3497 H   0  0  0  0  0  0  0  0  0  0  0  0
  138.1444   72.2671  221.3497 H   0  0  0  0  0  0  0  0  0  0  0  0
  139.8945   72.8357  223.7429 H   0  0  0  0  0  0  0  0  0  0  0  0
  141.4974   71.2586  223.0261 H   0  0  0  0  0  0  0  0  0  0  0  0
  140.4840   70.7414  221.6360 H   0  0  0  0  0  0  0  0  0  0  0  0
  141.2458   72.3682  221.6360 H   0  0  0  0  0  0  0  0  0  0  0  0
  138.7363   70.2896  222.6537 H   0  0  0  0  0  0  0  0  0  0  0  0
  137.2510   72.3390  224.3660 H   0  0  0  0  0  0  0  0  0  0  0  0
  134.7687   71.0407  224.8810 H   0  0  0  0  0  0  0  0  0  0  0  0
  134.4427   69.1363  222.8651 H   0  0  0  0  0  0  0  0  0  0  0  0
  133.0286   69.9208  223.4876 H   0  0  0  0  0  0  0  0  0  0  0  0
  134.7718   70.8198  221.0202 H   0  0  0  0  0  0  0  0  0  0  0  0
  132.5220   71.2100  220.3710 H   0  0  0  0  0  0  0  0  0  0  0  0
  133.7917   73.0560  221.4218 H   0  0  0  0  0  0  0  0  0  0  0  0
  132.6162   72.4711  222.5596 H   0  0  0  0  0  0  0  0  0  0  0  0
  135.8994   74.0980  221.7469 H   0  0  0  0  0  0  0  0  0  0  0  0
  134.8588   75.2859  222.6457 H   0  0  0  0  0  0  0  0  0  0  0  0
  137.2800   75.3060  224.0750 H   0  0  0  0  0  0  0  0  0  0  0  0
  139.9466   75.3533  221.7266 H   0  0  0  0  0  0  0  0  0  0  0  0
  142.0508   76.6259  222.1510 H   0  0  0  0  0  0  0  0  0  0  0  0
  143.1339   78.6223  222.8829 H   0  0  0  0  0  0  0  0  0  0  0  0
  140.7671   81.9452  224.2109 H   0  0  0  0  0  0  0  0  0  0  0  0
  138.6945   80.6349  223.7703 H   0  0  0  0  0  0  0  0  0  0  0  0
  140.3916   72.2089  225.3008 H   0  0  0  0  0  0  0  0  0  0  0  0
  141.3393   71.2043  227.3433 H   0  0  0  0  0  0  0  0  0  0  0  0
  139.3534   67.4901  226.4398 H   0  0  0  0  0  0  0  0  0  0  0  0
  138.4058   68.5330  224.3780 H   0  0  0  0  0  0  0  0  0  0  0  0
  1  2  1  0
  2  3  1  0
  2  4  1  0
  4  5  1  0
  5  6  1  0
  6  7  2  0
  6  8  1  0
  8  9  1  0
  9 10  1  0
 10 11  1  0
 10 12  1  0
 12 13  1  0
 13 14  1  0
 14 15  2  0
 14 16  1  0
 16 17  1  0
 17 18  1  0
 18 19  2  0
 18 20  1  0
 20 21  2  0
 21 22  1  0
 22 23  2  0
 23 24  1  0
 24 25  2  0
 25 26  1  0
 25 27  1  0
 27 28  2  0
 28 29  1  0
 29 30  2  0
  4 31  1  0
 31 32  2  0
 32 33  1  0
 33 34  2  0
 34 35  1  0
 34 36  1  0
 36 37  2  0
 13  8  1  0
 30 20  1  0
 37 31  1  0
 29 23  1  0
  1 38  1  0
  1 39  1  0
  1 40  1  0
  2 41  1  0
  3 42  1  0
  3 43  1  0
  3 44  1  0
  4 45  1  6
  5 46  1  0
  8 47  1  1
  9 48  1  0
  9 49  1  0
 10 50  1  6
 11 51  1  0
 12 52  1  0
 12 53  1  0
 16 54  1  0
 16 55  1  0
 17 56  1  0
 21 57  1  0
 22 58  1  0
 24 59  1  0
 27 60  1  0
 28 61  1  0
 32 62  1  0
 33 63  1  0
 36 64  1  0
 37 65  1  0
M  END
>  <smiles>  (20) 
CC(C)C(NC(=O)[C@@H]1C[C@@H](O)CN1C(=O)CNC(=O)c1ccc2cc(F)ccc2n1)c1ccc(Cl)cc1

>  <score_type>  (20) 
oracle

>  <origin>  (20) 
autodockgpu

>  <m_score__min__energy>  (20) 
-9.9700000000000006

>  <m_primary>  (20) 
energy

>  <meeko>  (20) 
{"free_energy": -7.97, "intermolecular_energy": -10.66, "internal_energy": -3.47, "cluster_size": 2, "cluster_id": 4, "rank_in_cluster": 2}

>  <energy>  (20) 
-6.13

>  <cluster_rmsd>  (20) 
0.04

>  <rmsd>  (20) 
269.68

>  <cluster>  (20) 
9

$$$$

     RDKit          3D

 65 68  0  0  1  0  0  0  0  0999 V2000
  138.6020   76.4750  219.8080 C   0  0  0  0  0  0  0  0  0  0  0  0
  138.5280   76.9220  221.2810 C   0  0  0  0  0  0  0  0  0  0  0  0
  137.5020   76.0070  221.9360 C   0  0  0  0  0  0  0  0  0  0  0  0
  139.8810   76.6680  221.8590 C   0  0  1  0  0  0  0  0  0  0  0  0
  140.8060   76.0420  220.9030 N   0  0  0  0  0  0  0  0  0  0  0  0
  141.2340   74.6890  221.0560 C   0  0  0  0  0  0  0  0  0  0  0  0
  140.8120   74.0120  222.0300 O   0  0  0  0  0  0  0  0  0  0  0  0
  142.1680   74.1340  220.0460 C   0  0  2  0  0  0  0  0  0  0  0  0
  143.3420   73.4660  220.7320 C   0  0  0  0  0  0  0  0  0  0  0  0
  144.5850   74.1470  220.1580 C   0  0  1  0  0  0  0  0  0  0  0  0
  144.8390   73.5670  218.9380 O   0  0  0  0  0  0  0  0  0  0  0  0
  144.0160   75.5410  219.9140 C   0  0  0  0  0  0  0  0  0  0  0  0
  142.7780   75.1800  219.2190 N   0  0  0  0  0  0  0  0  0  0  0  0
  142.2610   75.7150  218.0050 C   0  0  0  0  0  0  0  0  0  0  0  0
  141.5990   74.9920  217.2080 O   0  0  0  0  0  0  0  0  0  0  0  0
  142.5340   77.1470  217.7190 C   0  0  0  0  0  0  0  0  0  0  0  0
  141.7490   78.0400  218.5080 N   0  0  0  0  0  0  0  0  0  0  0  0
  142.1500   79.3800  218.6780 C   0  0  0  0  0  0  0  0  0  0  0  0
  143.2040   79.8490  218.1530 O   0  0  0  0  0  0  0  0  0  0  0  0
  141.3120   80.2720  219.5010 C   0  0  0  0  0  0  0  0  0  0  0  0
  141.7600   81.5230  219.8730 C   0  0  0  0  0  0  0  0  0  0  0  0
  140.9640   82.3690  220.6540 C   0  0  0  0  0  0  0  0  0  0  0  0
  139.7160   81.9250  221.0480 C   0  0  0  0  0  0  0  0  0  0  0  0
  138.8540   82.6780  221.8160 C   0  0  0  0  0  0  0  0  0  0  0  0
  137.5990   82.2010  222.1980 C   0  0  0  0  0  0  0  0  0  0  0  0
  136.7550   82.9520  222.9570 F   0  0  0  0  0  0  0  0  0  0  0  0
  137.1860   80.9440  221.8050 C   0  0  0  0  0  0  0  0  0  0  0  0
  138.0370   80.1710  221.0320 C   0  0  0  0  0  0  0  0  0  0  0  0
  139.2910   80.6680  220.6610 C   0  0  0  0  0  0  0  0  0  0  0  0
  140.0860   79.8830  219.9100 N   0  0  0  0  0  0  0  0  0  0  0  0
  140.5550   77.8710  222.3980 C   0  0  0  0  0  0  0  0  0  0  0  0
  141.8130   78.2870  222.0660 C   0  0  0  0  0  0  0  0  0  0  0  0
  142.3430   79.4410  222.6260 C   0  0  0  0  0  0  0  0  0  0  0  0
  141.6390   80.2110  223.5310 C   0  0  0  0  0  0  0  0  0  0  0  0
  142.3050   81.6730  224.2430 Cl  0  0  0  0  0  0  0  0  0  0  0  0
  140.3600   79.7850  223.8660 C   0  0  0  0  0  0  0  0  0  0  0  0
  139.8460   78.6360  223.3020 C   0  0  0  0  0  0  0  0  0  0  0  0
  138.7815   75.3907  219.7624 H   0  0  0  0  0  0  0  0  0  0  0  0
  137.6526   76.7109  219.3051 H   0  0  0  0  0  0  0  0  0  0  0  0
  139.4247   77.0043  219.3051 H   0  0  0  0  0  0  0  0  0  0  0  0
  138.2491   77.9771  221.4188 H   0  0  0  0  0  0  0  0  0  0  0  0
  137.5879   76.0836  223.0300 H   0  0  0  0  0  0  0  0  0  0  0  0
  136.4907   76.3085  221.6256 H   0  0  0  0  0  0  0  0  0  0  0  0
  137.6863   74.9679  221.6256 H   0  0  0  0  0  0  0  0  0  0  0  0
  139.6612   75.9811  222.6896 H   0  0  0  0  0  0  0  0  0  0  0  0
  141.1190   76.6490  220.1210 H   0  0  0  0  0  0  0  0  0  0  0  0
  141.5676   73.4425  219.4367 H   0  0  0  0  0  0  0  0  0  0  0  0
  143.2885   73.6157  221.8204 H   0  0  0  0  0  0  0  0  0  0  0  0
  143.3534   72.3795  220.5606 H   0  0  0  0  0  0  0  0  0  0  0  0
  145.4976   74.1045  220.7707 H   0  0  0  0  0  0  0  0  0  0  0  0
  145.1910   74.2190  218.2610 H   0  0  0  0  0  0  0  0  0  0  0  0
  143.8173   76.0735  220.8558 H   0  0  0  0  0  0  0  0  0  0  0  0
  144.6778   76.2267  219.3647 H   0  0  0  0  0  0  0  0  0  0  0  0
  143.5970   77.3465  217.9194 H   0  0  0  0  0  0  0  0  0  0  0  0
  142.2701   77.3249  216.6660 H   0  0  0  0  0  0  0  0  0  0  0  0
  140.8530   77.7270  218.9820 H   0  0  0  0  0  0  0  0  0  0  0  0
  142.7564   81.8601  219.5513 H   0  0  0  0  0  0  0  0  0  0  0  0
  141.3241   83.3660  220.9479 H   0  0  0  0  0  0  0  0  0  0  0  0
  139.1639   83.6835  222.1370 H   0  0  0  0  0  0  0  0  0  0  0  0
  136.1976   80.5623  222.1006 H   0  0  0  0  0  0  0  0  0  0  0  0
  137.7266   79.1661  220.7098 H   0  0  0  0  0  0  0  0  0  0  0  0
  142.4101   77.7034  221.3499 H   0  0  0  0  0  0  0  0  0  0  0  0
  143.3582   79.7529  222.3394 H   0  0  0  0  0  0  0  0  0  0  0  0
  139.7571   80.3640  224.5810 H   0  0  0  0  0  0  0  0  0  0  0  0
  138.8316   78.3169  223.5836 H   0  0  0  0  0  0  0  0  0  0  0  0
  1  2  1  0
  2  3  1  0
  2  4  1  0
  4  5  1  0
  5  6  1  0
  6  7  2  0
  6  8  1  0
  8  9  1  0
  9 10  1  0
 10 11  1  0
 10 12  1  0
 12 13  1  0
 13 14  1  0
 14 15  2  0
 14 16  1  0
 16 17  1  0
 17 18  1  0
 18 19  2  0
 18 20  1  0
 20 21  2  0
 21 22  1  0
 22 23  2  0
 23 24  1  0
 24 25  2  0
 25 26  1  0
 25 27  1  0
 27 28  2  0
 28 29  1  0
 29 30  2  0
  4 31  1  0
 31 32  2  0
 32 33  1  0
 33 34  2  0
 34 35  1  0
 34 36  1  0
 36 37  2  0
 13  8  1  0
 30 20  1  0
 37 31  1  0
 29 23  1  0
  1 38  1  0
  1 39  1  0
  1 40  1  0
  2 41  1  0
  3 42  1  0
  3 43  1  0
  3 44  1  0
  4 45  1  1
  5 46  1  0
  8 47  1  6
  9 48  1  0
  9 49  1  0
 10 50  1  1
 11 51  1  0
 12 52  1  0
 12 53  1  0
 16 54  1  0
 16 55  1  0
 17 56  1  0
 21 57  1  0
 22 58  1  0
 24 59  1  0
 27 60  1  0
 28 61  1  0
 32 62  1  0
 33 63  1  0
 36 64  1  0
 37 65  1  0
M  END
>  <smiles>  (21) 
CC(C)C(NC(=O)[C@@H]1C[C@@H](O)CN1C(=O)CNC(=O)c1ccc2cc(F)ccc2n1)c1ccc(Cl)cc1

>  <score_type>  (21) 
oracle

>  <origin>  (21) 
autodockgpu

>  <m_score__min__energy>  (21) 
-9.3399999999999999

>  <m_primary>  (21) 
energy

>  <meeko>  (21) 
{"free_energy": -6.11, "intermolecular_energy": -8.8, "internal_energy": -5.08, "cluster_size": 6, "cluster_id": 8, "rank_in_cluster": 5}

>  <energy>  (21) 
-9.34

>  <cluster_rmsd>  (21) 
0.0

>  <rmsd>  (21) 
270.65

>  <cluster>  (21) 
1

$$$$

     RDKit          3D

 65 68  0  0  1  0  0  0  0  0999 V2000
  143.2920   76.4760  219.4270 C   0  0  0  0  0  0  0  0  0  0  0  0
  142.7900   77.6860  218.6170 C   0  0  0  0  0  0  0  0  0  0  0  0
  142.4910   77.1510  217.2230 C   0  0  0  0  0  0  0  0  0  0  0  0
  141.5250   78.1290  219.2750 C   0  0  1  0  0  0  0  0  0  0  0  0
  140.6980   77.0070  219.7430 N   0  0  0  0  0  0  0  0  0  0  0  0
  139.2950   77.1520  219.9540 C   0  0  0  0  0  0  0  0  0  0  0  0
  138.7470   78.2630  219.7340 O   0  0  0  0  0  0  0  0  0  0  0  0
  138.5330   75.9690  220.4270 C   0  0  2  0  0  0  0  0  0  0  0  0
  137.2760   76.4110  221.1470 C   0  0  0  0  0  0  0  0  0  0  0  0
  137.3540   75.7620  222.5300 C   0  0  1  0  0  0  0  0  0  0  0  0
  136.9370   74.4600  222.3900 O   0  0  0  0  0  0  0  0  0  0  0  0
  138.8670   75.7610  222.7200 C   0  0  0  0  0  0  0  0  0  0  0  0
  139.2740   75.1970  221.4300 N   0  0  0  0  0  0  0  0  0  0  0  0
  140.1870   74.1330  221.1830 C   0  0  0  0  0  0  0  0  0  0  0  0
  141.4310   74.3460  221.1320 O   0  0  0  0  0  0  0  0  0  0  0  0
  139.6170   72.7750  220.9870 C   0  0  0  0  0  0  0  0  0  0  0  0
  139.8960   71.8850  222.0670 N   0  0  0  0  0  0  0  0  0  0  0  0
  138.8620   71.4580  222.9230 C   0  0  0  0  0  0  0  0  0  0  0  0
  137.6600   71.8330  222.7820 O   0  0  0  0  0  0  0  0  0  0  0  0
  139.1910   70.5370  224.0280 C   0  0  0  0  0  0  0  0  0  0  0  0
  138.8750   69.1960  223.9520 C   0  0  0  0  0  0  0  0  0  0  0  0
  139.1870   68.3220  225.0000 C   0  0  0  0  0  0  0  0  0  0  0  0
  139.8200   68.8310  226.1170 C   0  0  0  0  0  0  0  0  0  0  0  0
  140.1720   68.0590  227.2040 C   0  0  0  0  0  0  0  0  0  0  0  0
  140.8110   68.6030  228.3190 C   0  0  0  0  0  0  0  0  0  0  0  0
  141.1550   67.8330  229.3880 F   0  0  0  0  0  0  0  0  0  0  0  0
  141.1120   69.9500  228.3580 C   0  0  0  0  0  0  0  0  0  0  0  0
  140.7670   70.7440  227.2760 C   0  0  0  0  0  0  0  0  0  0  0  0
  140.1260   70.1790  226.1680 C   0  0  0  0  0  0  0  0  0  0  0  0
  139.8090   70.9870  225.1400 N   0  0  0  0  0  0  0  0  0  0  0  0
  141.7170   79.0420  220.4250 C   0  0  0  0  0  0  0  0  0  0  0  0
  141.7880   80.4040  220.3490 C   0  0  0  0  0  0  0  0  0  0  0  0
  141.9590   81.1640  221.4970 C   0  0  0  0  0  0  0  0  0  0  0  0
  142.0640   80.5930  222.7500 C   0  0  0  0  0  0  0  0  0  0  0  0
  142.2810   81.5510  224.2080 Cl  0  0  0  0  0  0  0  0  0  0  0  0
  141.9910   79.2080  222.8240 C   0  0  0  0  0  0  0  0  0  0  0  0
  141.8210   78.4650  221.6740 C   0  0  0  0  0  0  0  0  0  0  0  0
  143.2025   76.6917  220.5019 H   0  0  0  0  0  0  0  0  0  0  0  0
  142.6864   75.5919  219.1788 H   0  0  0  0  0  0  0  0  0  0  0  0
  144.3456   76.2802  219.1788 H   0  0  0  0  0  0  0  0  0  0  0  0
  143.5036   78.5216  218.5661 H   0  0  0  0  0  0  0  0  0  0  0  0
  141.9558   76.1934  217.3048 H   0  0  0  0  0  0  0  0  0  0  0  0
  141.8666   77.8747  216.6786 H   0  0  0  0  0  0  0  0  0  0  0  0
  143.4346   76.9984  216.6786 H   0  0  0  0  0  0  0  0  0  0  0  0
  141.0141   78.6754  218.4685 H   0  0  0  0  0  0  0  0  0  0  0  0
  141.2060   76.1150  219.9070 H   0  0  0  0  0  0  0  0  0  0  0  0
  138.3314   75.3677  219.5282 H   0  0  0  0  0  0  0  0  0  0  0  0
  137.2484   77.5070  221.2367 H   0  0  0  0  0  0  0  0  0  0  0  0
  136.3664   76.1132  220.6048 H   0  0  0  0  0  0  0  0  0  0  0  0
  136.7730   76.2392  223.3329 H   0  0  0  0  0  0  0  0  0  0  0  0
  137.3060   73.8540  223.1000 H   0  0  0  0  0  0  0  0  0  0  0  0
  139.2626   76.7769  222.8665 H   0  0  0  0  0  0  0  0  0  0  0  0
  139.2269   75.2140  223.6039 H   0  0  0  0  0  0  0  0  0  0  0  0
  138.5258   72.8660  220.8825 H   0  0  0  0  0  0  0  0  0  0  0  0
  140.0855   72.3516  220.0863 H   0  0  0  0  0  0  0  0  0  0  0  0
  140.8750   71.5230  222.2540 H   0  0  0  0  0  0  0  0  0  0  0  0
  138.3705   68.8081  223.0548 H   0  0  0  0  0  0  0  0  0  0  0  0
  138.9336   67.2535  224.9353 H   0  0  0  0  0  0  0  0  0  0  0  0
  139.9425   66.9833  227.1919 H   0  0  0  0  0  0  0  0  0  0  0  0
  141.6170   70.3853  229.2329 H   0  0  0  0  0  0  0  0  0  0  0  0
  140.9973   71.8196  227.2882 H   0  0  0  0  0  0  0  0  0  0  0  0
  141.7091   80.9015  219.3711 H   0  0  0  0  0  0  0  0  0  0  0  0
  142.0128   82.2589  221.4060 H   0  0  0  0  0  0  0  0  0  0  0  0
  142.0687   78.7039  223.7986 H   0  0  0  0  0  0  0  0  0  0  0  0
  141.7662   77.3694  221.7561 H   0  0  0  0  0  0  0  0  0  0  0  0
  1  2  1  0
  2  3  1  0
  2  4  1  0
  4  5  1  0
  5  6  1  0
  6  7  2  0
  6  8  1  0
  8  9  1  0
  9 10  1  0
 10 11  1  0
 10 12  1  0
 12 13  1  0
 13 14  1  0
 14 15  2  0
 14 16  1  0
 16 17  1  0
 17 18  1  0
 18 19  2  0
 18 20  1  0
 20 21  2  0
 21 22  1  0
 22 23  2  0
 23 24  1  0
 24 25  2  0
 25 26  1  0
 25 27  1  0
 27 28  2  0
 28 29  1  0
 29 30  2  0
  4 31  1  0
 31 32  2  0
 32 33  1  0
 33 34  2  0
 34 35  1  0
 34 36  1  0
 36 37  2  0
 13  8  1  0
 30 20  1  0
 37 31  1  0
 29 23  1  0
  1 38  1  0
  1 39  1  0
  1 40  1  0
  2 41  1  0
  3 42  1  0
  3 43  1  0
  3 44  1  0
  4 45  1  6
  5 46  1  0
  8 47  1  6
  9 48  1  0
  9 49  1  0
 10 50  1  1
 11 51  1  0
 12 52  1  0
 12 53  1  0
 16 54  1  0
 16 55  1  0
 17 56  1  0
 21 57  1  0
 22 58  1  0
 24 59  1  0
 27 60  1  0
 28 61  1  0
 32 62  1  0
 33 63  1  0
 36 64  1  0
 37 65  1  0
M  END
>  <smiles>  (22) 
CC(C)C(NC(=O)[C@@H]1C[C@@H](O)CN1C(=O)CNC(=O)c1ccc2cc(F)ccc2n1)c1ccc(Cl)cc1

>  <score_type>  (22) 
oracle

>  <origin>  (22) 
autodockgpu

>  <m_score__min__energy>  (22) 
-9.3399999999999999

>  <m_primary>  (22) 
energy

>  <meeko>  (22) 
{"free_energy": -8.32, "intermolecular_energy": -11.0, "internal_energy": -3.77, "cluster_size": 3, "cluster_id": 2, "rank_in_cluster": 2}

>  <energy>  (22) 
-9.23

>  <cluster_rmsd>  (22) 
0.75

>  <rmsd>  (22) 
270.53

>  <cluster>  (22) 
1

$$$$

     RDKit          3D

 65 68  0  0  1  0  0  0  0  0999 V2000
  138.2220   75.5880  219.8130 C   0  0  0  0  0  0  0  0  0  0  0  0
  138.2080   76.3920  221.1280 C   0  0  0  0  0  0  0  0  0  0  0  0
  137.1960   75.6920  222.0250 C   0  0  0  0  0  0  0  0  0  0  0  0
  139.5790   76.2620  221.7060 C   0  0  1  0  0  0  0  0  0  0  0  0
  140.5580   75.7290  220.7480 N   0  0  0  0  0  0  0  0  0  0  0  0
  141.2300   74.4910  220.9780 C   0  0  0  0  0  0  0  0  0  0  0  0
  140.9810   73.8370  222.0240 O   0  0  0  0  0  0  0  0  0  0  0  0
  142.2040   74.0250  219.9600 C   0  0  2  0  0  0  0  0  0  0  0  0
  143.3120   73.2330  220.6220 C   0  0  0  0  0  0  0  0  0  0  0  0
  144.6090   73.9290  220.2040 C   0  0  1  0  0  0  0  0  0  0  0  0
  144.9140   73.4900  218.9390 O   0  0  0  0  0  0  0  0  0  0  0  0
  144.1000   75.3630  220.1020 C   0  0  0  0  0  0  0  0  0  0  0  0
  142.8950   75.1380  219.3010 N   0  0  0  0  0  0  0  0  0  0  0  0
  142.4680   75.8350  218.1360 C   0  0  0  0  0  0  0  0  0  0  0  0
  141.6040   75.3350  217.3620 O   0  0  0  0  0  0  0  0  0  0  0  0
  143.0800   77.1630  217.8720 C   0  0  0  0  0  0  0  0  0  0  0  0
  142.4130   78.2350  218.5370 N   0  0  0  0  0  0  0  0  0  0  0  0
  141.0060   78.2730  218.5910 C   0  0  0  0  0  0  0  0  0  0  0  0
  140.2780   77.3790  218.0650 O   0  0  0  0  0  0  0  0  0  0  0  0
  140.3530   79.3980  219.2890 C   0  0  0  0  0  0  0  0  0  0  0  0
  139.0140   79.3490  219.6150 C   0  0  0  0  0  0  0  0  0  0  0  0
  138.3950   80.4160  220.2760 C   0  0  0  0  0  0  0  0  0  0  0  0
  139.1550   81.5240  220.5970 C   0  0  0  0  0  0  0  0  0  0  0  0
  138.6450   82.6280  221.2470 C   0  0  0  0  0  0  0  0  0  0  0  0
  139.4380   83.7330  221.5570 C   0  0  0  0  0  0  0  0  0  0  0  0
  138.9260   84.8190  222.1990 F   0  0  0  0  0  0  0  0  0  0  0  0
  140.7760   83.7450  221.2140 C   0  0  0  0  0  0  0  0  0  0  0  0
  141.3090   82.6450  220.5610 C   0  0  0  0  0  0  0  0  0  0  0  0
  140.4950   81.5470  220.2590 C   0  0  0  0  0  0  0  0  0  0  0  0
  141.0540   80.5020  219.6230 N   0  0  0  0  0  0  0  0  0  0  0  0
  140.1380   77.5200  222.2510 C   0  0  0  0  0  0  0  0  0  0  0  0
  139.4670   78.4040  223.0450 C   0  0  0  0  0  0  0  0  0  0  0  0
  140.0960   79.5510  223.5100 C   0  0  0  0  0  0  0  0  0  0  0  0
  141.4080   79.8490  223.1980 C   0  0  0  0  0  0  0  0  0  0  0  0
  142.2090   81.3000  223.7830 Cl  0  0  0  0  0  0  0  0  0  0  0  0
  142.0880   78.9470  222.3890 C   0  0  0  0  0  0  0  0  0  0  0  0
  141.4500   77.8120  221.9350 C   0  0  0  0  0  0  0  0  0  0  0  0
  138.2407   74.5121  220.0412 H   0  0  0  0  0  0  0  0  0  0  0  0
  137.3196   75.8234  219.2297 H   0  0  0  0  0  0  0  0  0  0  0  0
  139.1156   75.8547  219.2297 H   0  0  0  0  0  0  0  0  0  0  0  0
  137.9472   77.4536  221.0059 H   0  0  0  0  0  0  0  0  0  0  0  0
  137.4547   75.8710  223.0790 H   0  0  0  0  0  0  0  0  0  0  0  0
  136.1902   76.0883  221.8220 H   0  0  0  0  0  0  0  0  0  0  0  0
  137.2120   74.6110  221.8220 H   0  0  0  0  0  0  0  0  0  0  0  0
  139.4240   75.5538  222.5333 H   0  0  0  0  0  0  0  0  0  0  0  0
  140.7220   76.3130  219.9040 H   0  0  0  0  0  0  0  0  0  0  0  0
  141.6187   73.4360  219.2385 H   0  0  0  0  0  0  0  0  0  0  0  0
  143.1992   73.2525  221.7160 H   0  0  0  0  0  0  0  0  0  0  0  0
  143.2977   72.1754  220.3200 H   0  0  0  0  0  0  0  0  0  0  0  0
  145.4827   73.7780  220.8550 H   0  0  0  0  0  0  0  0  0  0  0  0
  145.2820   74.2170  218.3510 H   0  0  0  0  0  0  0  0  0  0  0  0
  143.8628   75.7850  221.0897 H   0  0  0  0  0  0  0  0  0  0  0  0
  144.8150   76.0835  219.6782 H   0  0  0  0  0  0  0  0  0  0  0  0
  144.1261   77.1388  218.2113 H   0  0  0  0  0  0  0  0  0  0  0  0
  142.9986   77.3497  216.7910 H   0  0  0  0  0  0  0  0  0  0  0  0
  142.9480   79.0230  219.0040 H   0  0  0  0  0  0  0  0  0  0  0  0
  138.4241   78.4586  219.3518 H   0  0  0  0  0  0  0  0  0  0  0  0
  137.3266   80.3733  220.5343 H   0  0  0  0  0  0  0  0  0  0  0  0
  137.5819   82.6376  221.5293 H   0  0  0  0  0  0  0  0  0  0  0  0
  141.4076   84.6128  221.4550 H   0  0  0  0  0  0  0  0  0  0  0  0
  142.3724   82.6347  220.2798 H   0  0  0  0  0  0  0  0  0  0  0  0
  138.4201   78.2064  223.3186 H   0  0  0  0  0  0  0  0  0  0  0  0
  139.5304   80.2458  224.1483 H   0  0  0  0  0  0  0  0  0  0  0  0
  143.1349   79.1382  222.1108 H   0  0  0  0  0  0  0  0  0  0  0  0
  142.0081   77.1118  221.2961 H   0  0  0  0  0  0  0  0  0  0  0  0
  1  2  1  0
  2  3  1  0
  2  4  1  0
  4  5  1  0
  5  6  1  0
  6  7  2  0
  6  8  1  0
  8  9  1  0
  9 10  1  0
 10 11  1  0
 10 12  1  0
 12 13  1  0
 13 14  1  0
 14 15  2  0
 14 16  1  0
 16 17  1  0
 17 18  1  0
 18 19  2  0
 18 20  1  0
 20 21  2  0
 21 22  1  0
 22 23  2  0
 23 24  1  0
 24 25  2  0
 25 26  1  0
 25 27  1  0
 27 28  2  0
 28 29  1  0
 29 30  2  0
  4 31  1  0
 31 32  2  0
 32 33  1  0
 33 34  2  0
 34 35  1  0
 34 36  1  0
 36 37  2  0
 13  8  1  0
 30 20  1  0
 37 31  1  0
 29 23  1  0
  1 38  1  0
  1 39  1  0
  1 40  1  0
  2 41  1  0
  3 42  1  0
  3 43  1  0
  3 44  1  0
  4 45  1  1
  5 46  1  0
  8 47  1  6
  9 48  1  0
  9 49  1  0
 10 50  1  1
 11 51  1  0
 12 52  1  0
 12 53  1  0
 16 54  1  0
 16 55  1  0
 17 56  1  0
 21 57  1  0
 22 58  1  0
 24 59  1  0
 27 60  1  0
 28 61  1  0
 32 62  1  0
 33 63  1  0
 36 64  1  0
 37 65  1  0
M  END
>  <smiles>  (23) 
CC(C)C(NC(=O)[C@@H]1C[C@@H](O)CN1C(=O)CNC(=O)c1ccc2cc(F)ccc2n1)c1ccc(Cl)cc1

>  <score_type>  (23) 
oracle

>  <origin>  (23) 
autodockgpu

>  <m_score__min__energy>  (23) 
-9.3399999999999999

>  <m_primary>  (23) 
energy

>  <meeko>  (23) 
{"free_energy": -6.17, "intermolecular_energy": -8.85, "internal_energy": -5.6, "cluster_size": 6, "cluster_id": 8, "rank_in_cluster": 4}

>  <energy>  (23) 
-9.18

>  <cluster_rmsd>  (23) 
0.77

>  <rmsd>  (23) 
270.49

>  <cluster>  (23) 
1

$$$$

     RDKit          3D

 65 68  0  0  1  0  0  0  0  0999 V2000
  142.9350   77.8870  216.3900 C   0  0  0  0  0  0  0  0  0  0  0  0
  143.2670   76.4140  216.6960 C   0  0  0  0  0  0  0  0  0  0  0  0
  144.5080   76.0940  215.8730 C   0  0  0  0  0  0  0  0  0  0  0  0
  143.5910   76.3560  218.1520 C   0  0  1  0  0  0  0  0  0  0  0  0
  142.6220   77.0830  218.9850 N   0  0  0  0  0  0  0  0  0  0  0  0
  141.2160   76.8990  218.8270 C   0  0  0  0  0  0  0  0  0  0  0  0
  140.7910   76.0960  217.9560 O   0  0  0  0  0  0  0  0  0  0  0  0
  140.3070   77.6720  219.7090 C   0  0  2  0  0  0  0  0  0  0  0  0
  140.6880   79.1380  219.6960 C   0  0  0  0  0  0  0  0  0  0  0  0
  140.9230   79.5060  221.1620 C   0  0  1  0  0  0  0  0  0  0  0  0
  139.6910   79.7280  221.7270 O   0  0  0  0  0  0  0  0  0  0  0  0
  141.4490   78.1690  221.6730 C   0  0  0  0  0  0  0  0  0  0  0  0
  140.4290   77.2770  221.1160 N   0  0  0  0  0  0  0  0  0  0  0  0
  139.7040   76.2460  221.7770 C   0  0  0  0  0  0  0  0  0  0  0  0
  138.9150   76.5160  222.7260 O   0  0  0  0  0  0  0  0  0  0  0  0
  139.9140   74.8530  221.3070 C   0  0  0  0  0  0  0  0  0  0  0  0
  139.7770   73.8800  222.3420 N   0  0  0  0  0  0  0  0  0  0  0  0
  140.3720   72.6100  222.2090 C   0  0  0  0  0  0  0  0  0  0  0  0
  141.0430   72.2740  221.1880 O   0  0  0  0  0  0  0  0  0  0  0  0
  140.2060   71.6320  223.3010 C   0  0  0  0  0  0  0  0  0  0  0  0
  139.6470   70.3930  223.0650 C   0  0  0  0  0  0  0  0  0  0  0  0
  139.4890   69.4650  224.1010 C   0  0  0  0  0  0  0  0  0  0  0  0
  139.9080   69.8160  225.3710 C   0  0  0  0  0  0  0  0  0  0  0  0
  139.8000   68.9780  226.4600 C   0  0  0  0  0  0  0  0  0  0  0  0
  140.2320   69.3610  227.7310 C   0  0  0  0  0  0  0  0  0  0  0  0
  140.1210   68.5270  228.8010 F   0  0  0  0  0  0  0  0  0  0  0  0
  140.7880   70.6100  227.9280 C   0  0  0  0  0  0  0  0  0  0  0  0
  140.9070   71.4670  226.8450 C   0  0  0  0  0  0  0  0  0  0  0  0
  140.4670   71.0630  225.5800 C   0  0  0  0  0  0  0  0  0  0  0  0
  140.6000   71.9280  224.5580 N   0  0  0  0  0  0  0  0  0  0  0  0
  143.7020   74.9860  218.7040 C   0  0  0  0  0  0  0  0  0  0  0  0
  144.1910   74.6690  219.9380 C   0  0  0  0  0  0  0  0  0  0  0  0
  144.2390   73.3470  220.3580 C   0  0  0  0  0  0  0  0  0  0  0  0
  143.8020   72.3060  219.5630 C   0  0  0  0  0  0  0  0  0  0  0  0
  143.8600   70.6290  220.0890 Cl  0  0  0  0  0  0  0  0  0  0  0  0
  143.3050   72.6320  218.3070 C   0  0  0  0  0  0  0  0  0  0  0  0
  143.2640   73.9500  217.9030 C   0  0  0  0  0  0  0  0  0  0  0  0
  142.8107   78.4385  217.3336 H   0  0  0  0  0  0  0  0  0  0  0  0
  143.7548   78.3346  215.8090 H   0  0  0  0  0  0  0  0  0  0  0  0
  142.0025   77.9396  215.8090 H   0  0  0  0  0  0  0  0  0  0  0  0
  142.4548   75.7104  216.4608 H   0  0  0  0  0  0  0  0  0  0  0  0
  145.3494   75.8770  216.5475 H   0  0  0  0  0  0  0  0  0  0  0  0
  144.3112   75.2172  215.2385 H   0  0  0  0  0  0  0  0  0  0  0  0
  144.7597   76.9566  215.2385 H   0  0  0  0  0  0  0  0  0  0  0  0
  144.5785   76.8386  218.1965 H   0  0  0  0  0  0  0  0  0  0  0  0
  143.0320   77.7310  219.6860 H   0  0  0  0  0  0  0  0  0  0  0  0
  139.2930   77.4820  219.3274 H   0  0  0  0  0  0  0  0  0  0  0  0
  141.6047   79.2928  219.1080 H   0  0  0  0  0  0  0  0  0  0  0  0
  139.9066   79.7611  219.2365 H   0  0  0  0  0  0  0  0  0  0  0  0
  141.5663   80.3771  221.3552 H   0  0  0  0  0  0  0  0  0  0  0  0
  139.2810   78.8950  222.1100 H   0  0  0  0  0  0  0  0  0  0  0  0
  142.4505   77.9442  221.2775 H   0  0  0  0  0  0  0  0  0  0  0  0
  141.5816   78.1046  222.7631 H   0  0  0  0  0  0  0  0  0  0  0  0
  139.1746   74.6343  220.5225 H   0  0  0  0  0  0  0  0  0  0  0  0
  140.9468   74.7878  220.9340 H   0  0  0  0  0  0  0  0  0  0  0  0
  139.2310   74.0810  223.2290 H   0  0  0  0  0  0  0  0  0  0  0  0
  139.3207   70.1305  222.0478 H   0  0  0  0  0  0  0  0  0  0  0  0
  139.0415   68.4786  223.9090 H   0  0  0  0  0  0  0  0  0  0  0  0
  139.3608   67.9787  226.3237 H   0  0  0  0  0  0  0  0  0  0  0  0
  141.1303   70.9191  228.9266 H   0  0  0  0  0  0  0  0  0  0  0  0
  141.3478   72.4657  226.9804 H   0  0  0  0  0  0  0  0  0  0  0  0
  144.5497   75.4670  220.6047 H   0  0  0  0  0  0  0  0  0  0  0  0
  144.6385   73.1210  221.3576 H   0  0  0  0  0  0  0  0  0  0  0  0
  142.9444   71.8391  217.6352 H   0  0  0  0  0  0  0  0  0  0  0  0
  142.8672   74.1850  216.9043 H   0  0  0  0  0  0  0  0  0  0  0  0
  1  2  1  0
  2  3  1  0
  2  4  1  0
  4  5  1  0
  5  6  1  0
  6  7  2  0
  6  8  1  0
  8  9  1  0
  9 10  1  0
 10 11  1  0
 10 12  1  0
 12 13  1  0
 13 14  1  0
 14 15  2  0
 14 16  1  0
 16 17  1  0
 17 18  1  0
 18 19  2  0
 18 20  1  0
 20 21  2  0
 21 22  1  0
 22 23  2  0
 23 24  1  0
 24 25  2  0
 25 26  1  0
 25 27  1  0
 27 28  2  0
 28 29  1  0
 29 30  2  0
  4 31  1  0
 31 32  2  0
 32 33  1  0
 33 34  2  0
 34 35  1  0
 34 36  1  0
 36 37  2  0
 13  8  1  0
 30 20  1  0
 37 31  1  0
 29 23  1  0
  1 38  1  0
  1 39  1  0
  1 40  1  0
  2 41  1  0
  3 42  1  0
  3 43  1  0
  3 44  1  0
  4 45  1  6
  5 46  1  0
  8 47  1  6
  9 48  1  0
  9 49  1  0
 10 50  1  6
 11 51  1  0
 12 52  1  0
 12 53  1  0
 16 54  1  0
 16 55  1  0
 17 56  1  0
 21 57  1  0
 22 58  1  0
 24 59  1  0
 27 60  1  0
 28 61  1  0
 32 62  1  0
 33 63  1  0
 36 64  1  0
 37 65  1  0
M  END
>  <smiles>  (24) 
CC(C)C(NC(=O)[C@@H]1C[C@@H](O)CN1C(=O)CNC(=O)c1ccc2cc(F)ccc2n1)c1ccc(Cl)cc1

>  <score_type>  (24) 
oracle

>  <origin>  (24) 
autodockgpu

>  <m_score__min__energy>  (24) 
-9.3399999999999999

>  <m_primary>  (24) 
energy

>  <meeko>  (24) 
{"free_energy": -7.56, "intermolecular_energy": -10.25, "internal_energy": -3.19, "cluster_size": 1, "cluster_id": 7, "rank_in_cluster": 1}

>  <energy>  (24) 
-8.29

>  <cluster_rmsd>  (24) 
1.75

>  <rmsd>  (24) 
270.67

>  <cluster>  (24) 
1

$$$$

     RDKit          3D

 65 68  0  0  1  0  0  0  0  0999 V2000
  141.8290   78.6600  224.2770 C   0  0  0  0  0  0  0  0  0  0  0  0
  141.5690   80.0640  223.6990 C   0  0  0  0  0  0  0  0  0  0  0  0
  142.8720   80.4800  223.0290 C   0  0  0  0  0  0  0  0  0  0  0  0
  140.4980   79.8970  222.6710 C   0  0  1  0  0  0  0  0  0  0  0  0
  140.5730   78.6080  221.9690 N   0  0  0  0  0  0  0  0  0  0  0  0
  141.2720   78.4720  220.7320 C   0  0  0  0  0  0  0  0  0  0  0  0
  141.8400   79.4760  220.2280 O   0  0  0  0  0  0  0  0  0  0  0  0
  141.3000   77.1350  220.0880 C   0  0  2  0  0  0  0  0  0  0  0  0
  141.3110   77.2820  218.5810 C   0  0  0  0  0  0  0  0  0  0  0  0
  140.1090   76.4740  218.0890 C   0  0  1  0  0  0  0  0  0  0  0  0
  140.4900   75.1550  218.0640 O   0  0  0  0  0  0  0  0  0  0  0  0
  139.1700   76.6780  219.2730 C   0  0  0  0  0  0  0  0  0  0  0  0
  140.0880   76.3590  220.3690 N   0  0  0  0  0  0  0  0  0  0  0  0
  139.8720   75.4880  221.4750 C   0  0  0  0  0  0  0  0  0  0  0  0
  139.9990   75.9030  222.6610 O   0  0  0  0  0  0  0  0  0  0  0  0
  139.4950   74.0830  221.1740 C   0  0  0  0  0  0  0  0  0  0  0  0
  139.5550   73.2250  222.3130 N   0  0  0  0  0  0  0  0  0  0  0  0
  139.5760   71.8260  222.1510 C   0  0  0  0  0  0  0  0  0  0  0  0
  139.5440   71.2700  221.0120 O   0  0  0  0  0  0  0  0  0  0  0  0
  139.6380   70.9740  223.3530 C   0  0  0  0  0  0  0  0  0  0  0  0
  139.1770   69.6740  223.3260 C   0  0  0  0  0  0  0  0  0  0  0  0
  139.2350   68.8650  224.4670 C   0  0  0  0  0  0  0  0  0  0  0  0
  139.7660   69.3970  225.6270 C   0  0  0  0  0  0  0  0  0  0  0  0
  139.8710   68.6880  226.8040 C   0  0  0  0  0  0  0  0  0  0  0  0
  140.4120   69.2530  227.9600 C   0  0  0  0  0  0  0  0  0  0  0  0
  140.5110   68.5450  229.1180 F   0  0  0  0  0  0  0  0  0  0  0  0
  140.8640   70.5580  227.9480 C   0  0  0  0  0  0  0  0  0  0  0  0
  140.7680   71.2880  226.7740 C   0  0  0  0  0  0  0  0  0  0  0  0
  140.2220   70.7020  225.6270 C   0  0  0  0  0  0  0  0  0  0  0  0
  140.1480   71.4480  224.5090 N   0  0  0  0  0  0  0  0  0  0  0  0
  139.1190   80.0320  223.1930 C   0  0  0  0  0  0  0  0  0  0  0  0
  138.7370   80.8570  224.2130 C   0  0  0  0  0  0  0  0  0  0  0  0
  137.4100   80.9110  224.6140 C   0  0  0  0  0  0  0  0  0  0  0  0
  136.4270   80.1500  224.0130 C   0  0  0  0  0  0  0  0  0  0  0  0
  134.7440   80.2150  224.5160 Cl  0  0  0  0  0  0  0  0  0  0  0  0
  136.8180   79.3120  222.9760 C   0  0  0  0  0  0  0  0  0  0  0  0
  138.1410   79.2680  222.5880 C   0  0  0  0  0  0  0  0  0  0  0  0
  141.8200   78.7084  225.3759 H   0  0  0  0  0  0  0  0  0  0  0  0
  141.0432   77.9710  223.9339 H   0  0  0  0  0  0  0  0  0  0  0  0
  142.8094   78.2980  223.9339 H   0  0  0  0  0  0  0  0  0  0  0  0
  141.2634   80.8098  224.4476 H   0  0  0  0  0  0  0  0  0  0  0  0
  143.6203   80.7189  223.7991 H   0  0  0  0  0  0  0  0  0  0  0  0
  143.2415   79.6552  222.4020 H   0  0  0  0  0  0  0  0  0  0  0  0
  142.6952   81.3664  222.4020 H   0  0  0  0  0  0  0  0  0  0  0  0
  140.6992   80.7270  221.9778 H   0  0  0  0  0  0  0  0  0  0  0  0
  140.0860   77.8160  222.4330 H   0  0  0  0  0  0  0  0  0  0  0  0
  142.1960   76.6340  220.4832 H   0  0  0  0  0  0  0  0  0  0  0  0
  141.2074   78.3394  218.2960 H   0  0  0  0  0  0  0  0  0  0  0  0
  142.2537   76.9251  218.1405 H   0  0  0  0  0  0  0  0  0  0  0  0
  139.7010   76.7462  217.1044 H   0  0  0  0  0  0  0  0  0  0  0  0
  141.4170   75.0230  217.7010 H   0  0  0  0  0  0  0  0  0  0  0  0
  138.8042   77.7137  219.3327 H   0  0  0  0  0  0  0  0  0  0  0  0
  138.2473   76.0798  219.2466 H   0  0  0  0  0  0  0  0  0  0  0  0
  138.4666   74.0736  220.7838 H   0  0  0  0  0  0  0  0  0  0  0  0
  140.2206   73.7014  220.4406 H   0  0  0  0  0  0  0  0  0  0  0  0
  139.5840   73.6100  223.3010 H   0  0  0  0  0  0  0  0  0  0  0  0
  138.7576   69.2671  222.3941 H   0  0  0  0  0  0  0  0  0  0  0  0
  138.8662   67.8290  224.4410 H   0  0  0  0  0  0  0  0  0  0  0  0
  139.5182   67.6465  226.8333 H   0  0  0  0  0  0  0  0  0  0  0  0
  141.2927   71.0101  228.8545 H   0  0  0  0  0  0  0  0  0  0  0  0
  141.1215   72.3292  226.7440 H   0  0  0  0  0  0  0  0  0  0  0  0
  139.4867   81.4826  224.7196 H   0  0  0  0  0  0  0  0  0  0  0  0
  137.1314   81.5831  225.4390 H   0  0  0  0  0  0  0  0  0  0  0  0
  136.0732   78.6842  222.4649 H   0  0  0  0  0  0  0  0  0  0  0  0
  138.4281   78.5979  221.7642 H   0  0  0  0  0  0  0  0  0  0  0  0
  1  2  1  0
  2  3  1  0
  2  4  1  0
  4  5  1  0
  5  6  1  0
  6  7  2  0
  6  8  1  0
  8  9  1  0
  9 10  1  0
 10 11  1  0
 10 12  1  0
 12 13  1  0
 13 14  1  0
 14 15  2  0
 14 16  1  0
 16 17  1  0
 17 18  1  0
 18 19  2  0
 18 20  1  0
 20 21  2  0
 21 22  1  0
 22 23  2  0
 23 24  1  0
 24 25  2  0
 25 26  1  0
 25 27  1  0
 27 28  2  0
 28 29  1  0
 29 30  2  0
  4 31  1  0
 31 32  2  0
 32 33  1  0
 33 34  2  0
 34 35  1  0
 34 36  1  0
 36 37  2  0
 13  8  1  0
 30 20  1  0
 37 31  1  0
 29 23  1  0
  1 38  1  0
  1 39  1  0
  1 40  1  0
  2 41  1  0
  3 42  1  0
  3 43  1  0
  3 44  1  0
  4 45  1  6
  5 46  1  0
  8 47  1  1
  9 48  1  0
  9 49  1  0
 10 50  1  6
 11 51  1  0
 12 52  1  0
 12 53  1  0
 16 54  1  0
 16 55  1  0
 17 56  1  0
 21 57  1  0
 22 58  1  0
 24 59  1  0
 27 60  1  0
 28 61  1  0
 32 62  1  0
 33 63  1  0
 36 64  1  0
 37 65  1  0
M  END
>  <smiles>  (25) 
CC(C)C(NC(=O)[C@@H]1C[C@@H](O)CN1C(=O)CNC(=O)c1ccc2cc(F)ccc2n1)c1ccc(Cl)cc1

>  <score_type>  (25) 
oracle

>  <origin>  (25) 
autodockgpu

>  <m_score__min__energy>  (25) 
-9.3399999999999999

>  <m_primary>  (25) 
energy

>  <meeko>  (25) 
{"free_energy": -8.29, "intermolecular_energy": -10.97, "internal_energy": -3.41, "cluster_size": 5, "cluster_id": 1, "rank_in_cluster": 4}

>  <energy>  (25) 
-8.29

>  <cluster_rmsd>  (25) 
1.84

>  <rmsd>  (25) 
270.68

>  <cluster>  (25) 
1

$$$$

     RDKit          3D

 65 68  0  0  1  0  0  0  0  0999 V2000
  138.1900   75.9860  219.6870 C   0  0  0  0  0  0  0  0  0  0  0  0
  138.2370   76.8820  220.9400 C   0  0  0  0  0  0  0  0  0  0  0  0
  137.0850   76.4160  221.8210 C   0  0  0  0  0  0  0  0  0  0  0  0
  139.5400   76.5910  221.6080 C   0  0  1  0  0  0  0  0  0  0  0  0
  140.5270   75.9840  220.7030 N   0  0  0  0  0  0  0  0  0  0  0  0
  141.1310   74.7250  220.9940 C   0  0  0  0  0  0  0  0  0  0  0  0
  140.8150   74.1150  222.0480 O   0  0  0  0  0  0  0  0  0  0  0  0
  142.1180   74.1830  220.0260 C   0  0  2  0  0  0  0  0  0  0  0  0
  143.2300   73.4660  220.7620 C   0  0  0  0  0  0  0  0  0  0  0  0
  144.5220   74.1380  220.2930 C   0  0  1  0  0  0  0  0  0  0  0  0
  144.8420   73.5940  219.0720 O   0  0  0  0  0  0  0  0  0  0  0  0
  143.9980   75.5520  220.0630 C   0  0  0  0  0  0  0  0  0  0  0  0
  142.8010   75.2430  219.2780 N   0  0  0  0  0  0  0  0  0  0  0  0
  142.3750   75.8310  218.0530 C   0  0  0  0  0  0  0  0  0  0  0  0
  141.4510   75.3070  217.3700 O   0  0  0  0  0  0  0  0  0  0  0  0
  143.0610   77.0760  217.6180 C   0  0  0  0  0  0  0  0  0  0  0  0
  142.6530   78.2310  218.3510 N   0  0  0  0  0  0  0  0  0  0  0  0
  141.2850   78.5040  218.5460 C   0  0  0  0  0  0  0  0  0  0  0  0
  140.3680   77.7560  218.0920 O   0  0  0  0  0  0  0  0  0  0  0  0
  140.9040   79.7070  219.3090 C   0  0  0  0  0  0  0  0  0  0  0  0
  141.8130   80.7190  219.5380 C   0  0  0  0  0  0  0  0  0  0  0  0
  141.4520   81.8610  220.2620 C   0  0  0  0  0  0  0  0  0  0  0  0
  140.1600   81.9560  220.7450 C   0  0  0  0  0  0  0  0  0  0  0  0
  139.7010   83.0360  221.4680 C   0  0  0  0  0  0  0  0  0  0  0  0
  138.3910   83.1020  221.9430 C   0  0  0  0  0  0  0  0  0  0  0  0
  137.9470   84.1730  222.6570 F   0  0  0  0  0  0  0  0  0  0  0  0
  137.5090   82.0690  221.6930 C   0  0  0  0  0  0  0  0  0  0  0  0
  137.9500   80.9750  220.9670 C   0  0  0  0  0  0  0  0  0  0  0  0
  139.2690   80.9280  220.5010 C   0  0  0  0  0  0  0  0  0  0  0  0
  139.6540   79.8450  219.8010 N   0  0  0  0  0  0  0  0  0  0  0  0
  140.1860   77.7660  222.2360 C   0  0  0  0  0  0  0  0  0  0  0  0
  139.5750   78.6420  223.0880 C   0  0  0  0  0  0  0  0  0  0  0  0
  140.2820   79.7060  223.6280 C   0  0  0  0  0  0  0  0  0  0  0  0
  141.6140   79.9300  223.3370 C   0  0  0  0  0  0  0  0  0  0  0  0
  142.5140   81.2770  224.0180 Cl  0  0  0  0  0  0  0  0  0  0  0  0
  142.2320   79.0380  222.4700 C   0  0  0  0  0  0  0  0  0  0  0  0
  141.5160   77.9840  221.9400 C   0  0  0  0  0  0  0  0  0  0  0  0
  138.1347   74.9308  219.9927 H   0  0  0  0  0  0  0  0  0  0  0  0
  137.3040   76.2409  219.0870 H   0  0  0  0  0  0  0  0  0  0  0  0
  139.0978   76.1468  219.0870 H   0  0  0  0  0  0  0  0  0  0  0  0
  138.1514   77.9581  220.7285 H   0  0  0  0  0  0  0  0  0  0  0  0
  137.3638   76.5288  222.8791 H   0  0  0  0  0  0  0  0  0  0  0  0
  136.1929   77.0240  221.6100 H   0  0  0  0  0  0  0  0  0  0  0  0
  136.8665   75.3588  221.6100 H   0  0  0  0  0  0  0  0  0  0  0  0
  139.2502   75.8807  222.3963 H   0  0  0  0  0  0  0  0  0  0  0  0
  140.7470   76.5340  219.8490 H   0  0  0  0  0  0  0  0  0  0  0  0
  141.5453   73.5261  219.3548 H   0  0  0  0  0  0  0  0  0  0  0  0
  143.1088   73.5802  221.8493 H   0  0  0  0  0  0  0  0  0  0  0  0
  143.2302   72.3859  220.5539 H   0  0  0  0  0  0  0  0  0  0  0  0
  145.3923   74.0542  220.9605 H   0  0  0  0  0  0  0  0  0  0  0  0
  145.3000   74.2470  218.4620 H   0  0  0  0  0  0  0  0  0  0  0  0
  143.7495   76.0561  221.0086 H   0  0  0  0  0  0  0  0  0  0  0  0
  144.7076   76.2412  219.5820 H   0  0  0  0  0  0  0  0  0  0  0  0
  144.1447   76.9425  217.7516 H   0  0  0  0  0  0  0  0  0  0  0  0
  142.7910   77.2460  216.5653 H   0  0  0  0  0  0  0  0  0  0  0  0
  143.3570   78.9080  218.7640 H   0  0  0  0  0  0  0  0  0  0  0  0
  142.8366   80.6271  219.1458 H   0  0  0  0  0  0  0  0  0  0  0  0
  142.1802   82.6654  220.4428 H   0  0  0  0  0  0  0  0  0  0  0  0
  140.3874   83.8699  221.6765 H   0  0  0  0  0  0  0  0  0  0  0  0
  136.4744   82.1143  222.0640 H   0  0  0  0  0  0  0  0  0  0  0  0
  137.2629   80.1422  220.7564 H   0  0  0  0  0  0  0  0  0  0  0  0
  138.5152   78.5025  223.3474 H   0  0  0  0  0  0  0  0  0  0  0  0
  139.7645   80.3953  224.3115 H   0  0  0  0  0  0  0  0  0  0  0  0
  143.2915   79.1716  222.2060 H   0  0  0  0  0  0  0  0  0  0  0  0
  142.0255   77.2905  221.2548 H   0  0  0  0  0  0  0  0  0  0  0  0
  1  2  1  0
  2  3  1  0
  2  4  1  0
  4  5  1  0
  5  6  1  0
  6  7  2  0
  6  8  1  0
  8  9  1  0
  9 10  1  0
 10 11  1  0
 10 12  1  0
 12 13  1  0
 13 14  1  0
 14 15  2  0
 14 16  1  0
 16 17  1  0
 17 18  1  0
 18 19  2  0
 18 20  1  0
 20 21  2  0
 21 22  1  0
 22 23  2  0
 23 24  1  0
 24 25  2  0
 25 26  1  0
 25 27  1  0
 27 28  2  0
 28 29  1  0
 29 30  2  0
  4 31  1  0
 31 32  2  0
 32 33  1  0
 33 34  2  0
 34 35  1  0
 34 36  1  0
 36 37  2  0
 13  8  1  0
 30 20  1  0
 37 31  1  0
 29 23  1  0
  1 38  1  0
  1 39  1  0
  1 40  1  0
  2 41  1  0
  3 42  1  0
  3 43  1  0
  3 44  1  0
  4 45  1  1
  5 46  1  0
  8 47  1  6
  9 48  1  0
  9 49  1  0
 10 50  1  1
 11 51  1  0
 12 52  1  0
 12 53  1  0
 16 54  1  0
 16 55  1  0
 17 56  1  0
 21 57  1  0
 22 58  1  0
 24 59  1  0
 27 60  1  0
 28 61  1  0
 32 62  1  0
 33 63  1  0
 36 64  1  0
 37 65  1  0
M  END
>  <smiles>  (26) 
CC(C)C(NC(=O)[C@@H]1C[C@@H](O)CN1C(=O)CNC(=O)c1ccc2cc(F)ccc2n1)c1ccc(Cl)cc1

>  <score_type>  (26) 
oracle

>  <origin>  (26) 
autodockgpu

>  <m_score__min__energy>  (26) 
-9.3399999999999999

>  <m_primary>  (26) 
energy

>  <meeko>  (26) 
{"free_energy": -6.39, "intermolecular_energy": -9.08, "internal_energy": -5.5, "cluster_size": 6, "cluster_id": 8, "rank_in_cluster": 2}

>  <energy>  (26) 
-8.73

>  <cluster_rmsd>  (26) 
0.0

>  <rmsd>  (26) 
270.31

>  <cluster>  (26) 
2

$$$$

     RDKit          3D

 65 68  0  0  1  0  0  0  0  0999 V2000
  138.2330   77.3920  219.7830 C   0  0  0  0  0  0  0  0  0  0  0  0
  138.0670   76.2020  220.7470 C   0  0  0  0  0  0  0  0  0  0  0  0
  137.7750   74.9960  219.8640 C   0  0  0  0  0  0  0  0  0  0  0  0
  139.3860   76.0300  221.4260 C   0  0  1  0  0  0  0  0  0  0  0  0
  140.4240   75.4920  220.5350 N   0  0  0  0  0  0  0  0  0  0  0  0
  141.2320   74.3800  220.9180 C   0  0  0  0  0  0  0  0  0  0  0  0
  141.0550   73.8440  222.0430 O   0  0  0  0  0  0  0  0  0  0  0  0
  142.2570   73.8980  219.9580 C   0  0  2  0  0  0  0  0  0  0  0  0
  143.3790   73.2020  220.7000 C   0  0  0  0  0  0  0  0  0  0  0  0
  144.6550   73.9310  220.2760 C   0  0  1  0  0  0  0  0  0  0  0  0
  145.0200   73.4300  219.0500 O   0  0  0  0  0  0  0  0  0  0  0  0
  144.0860   75.3310  220.0710 C   0  0  0  0  0  0  0  0  0  0  0  0
  142.9170   75.0000  219.2520 N   0  0  0  0  0  0  0  0  0  0  0  0
  142.4960   75.6040  218.0330 C   0  0  0  0  0  0  0  0  0  0  0  0
  141.5190   75.1380  217.3830 O   0  0  0  0  0  0  0  0  0  0  0  0
  143.2520   76.7950  217.5640 C   0  0  0  0  0  0  0  0  0  0  0  0
  142.8910   77.9960  218.2450 N   0  0  0  0  0  0  0  0  0  0  0  0
  141.5360   78.3040  218.4770 C   0  0  0  0  0  0  0  0  0  0  0  0
  140.5910   77.5480  218.1020 O   0  0  0  0  0  0  0  0  0  0  0  0
  141.2040   79.5560  219.1830 C   0  0  0  0  0  0  0  0  0  0  0  0
  142.1480   80.5480  219.3490 C   0  0  0  0  0  0  0  0  0  0  0  0
  141.8330   81.7360  220.0200 C   0  0  0  0  0  0  0  0  0  0  0  0
  140.5530   81.8960  220.5140 C   0  0  0  0  0  0  0  0  0  0  0  0
  140.1390   83.0240  221.1890 C   0  0  0  0  0  0  0  0  0  0  0  0
  138.8380   83.1560  221.6770 C   0  0  0  0  0  0  0  0  0  0  0  0
  138.4380   84.2740  222.3420 F   0  0  0  0  0  0  0  0  0  0  0  0
  137.9200   82.1410  221.4900 C   0  0  0  0  0  0  0  0  0  0  0  0
  138.3170   80.9980  220.8140 C   0  0  0  0  0  0  0  0  0  0  0  0
  139.6260   80.8860  220.3330 C   0  0  0  0  0  0  0  0  0  0  0  0
  139.9670   79.7580  219.6840 N   0  0  0  0  0  0  0  0  0  0  0  0
  139.9290   77.2650  222.0360 C   0  0  0  0  0  0  0  0  0  0  0  0
  139.2270   78.1320  222.8240 C   0  0  0  0  0  0  0  0  0  0  0  0
  139.8430   79.2570  223.3530 C   0  0  0  0  0  0  0  0  0  0  0  0
  141.1710   79.5510  223.1150 C   0  0  0  0  0  0  0  0  0  0  0  0
  141.9560   80.9750  223.7830 Cl  0  0  0  0  0  0  0  0  0  0  0  0
  141.8820   78.6670  222.3130 C   0  0  0  0  0  0  0  0  0  0  0  0
  141.2570   77.5530  221.7930 C   0  0  0  0  0  0  0  0  0  0  0  0
  138.3622   78.3180  220.3625 H   0  0  0  0  0  0  0  0  0  0  0  0
  139.1172   77.2298  219.1491 H   0  0  0  0  0  0  0  0  0  0  0  0
  137.3382   77.4779  219.1491 H   0  0  0  0  0  0  0  0  0  0  0  0
  137.2713   76.3360  221.4946 H   0  0  0  0  0  0  0  0  0  0  0  0
  137.5632   74.1212  220.4964 H   0  0  0  0  0  0  0  0  0  0  0  0
  136.9025   75.2092  219.2289 H   0  0  0  0  0  0  0  0  0  0  0  0
  138.6484   74.7865  219.2289 H   0  0  0  0  0  0  0  0  0  0  0  0
  139.1523   75.3114  222.2253 H   0  0  0  0  0  0  0  0  0  0  0  0
  140.5230   75.9750  219.6200 H   0  0  0  0  0  0  0  0  0  0  0  0
  141.7220   73.2389  219.2584 H   0  0  0  0  0  0  0  0  0  0  0  0
  143.2313   73.2839  221.7870 H   0  0  0  0  0  0  0  0  0  0  0  0
  143.4224   72.1282  220.4652 H   0  0  0  0  0  0  0  0  0  0  0  0
  145.5139   73.8610  220.9597 H   0  0  0  0  0  0  0  0  0  0  0  0
  145.3590   74.1380  218.4240 H   0  0  0  0  0  0  0  0  0  0  0  0
  143.7998   75.8011  221.0234 H   0  0  0  0  0  0  0  0  0  0  0  0
  144.7803   76.0575  219.6236 H   0  0  0  0  0  0  0  0  0  0  0  0
  144.3250   76.6124  217.7229 H   0  0  0  0  0  0  0  0  0  0  0  0
  143.0092   76.9375  216.5006 H   0  0  0  0  0  0  0  0  0  0  0  0
  143.6210   78.6840  218.5910 H   0  0  0  0  0  0  0  0  0  0  0  0
  143.1624   80.4038  218.9487 H   0  0  0  0  0  0  0  0  0  0  0  0
  142.5885   82.5247  220.1509 H   0  0  0  0  0  0  0  0  0  0  0  0
  140.8547   83.8441  221.3478 H   0  0  0  0  0  0  0  0  0  0  0  0
  136.8925   82.2381  221.8707 H   0  0  0  0  0  0  0  0  0  0  0  0
  137.6017   80.1775  220.6554 H   0  0  0  0  0  0  0  0  0  0  0  0
  138.1663   77.9370  223.0407 H   0  0  0  0  0  0  0  0  0  0  0  0
  139.2531   79.9383  223.9838 H   0  0  0  0  0  0  0  0  0  0  0  0
  142.9431   78.8556  222.0928 H   0  0  0  0  0  0  0  0  0  0  0  0
  141.8394   76.8673  221.1600 H   0  0  0  0  0  0  0  0  0  0  0  0
  1  2  1  0
  2  3  1  0
  2  4  1  0
  4  5  1  0
  5  6  1  0
  6  7  2  0
  6  8  1  0
  8  9  1  0
  9 10  1  0
 10 11  1  0
 10 12  1  0
 12 13  1  0
 13 14  1  0
 14 15  2  0
 14 16  1  0
 16 17  1  0
 17 18  1  0
 18 19  2  0
 18 20  1  0
 20 21  2  0
 21 22  1  0
 22 23  2  0
 23 24  1  0
 24 25  2  0
 25 26  1  0
 25 27  1  0
 27 28  2  0
 28 29  1  0
 29 30  2  0
  4 31  1  0
 31 32  2  0
 32 33  1  0
 33 34  2  0
 34 35  1  0
 34 36  1  0
 36 37  2  0
 13  8  1  0
 30 20  1  0
 37 31  1  0
 29 23  1  0
  1 38  1  0
  1 39  1  0
  1 40  1  0
  2 41  1  0
  3 42  1  0
  3 43  1  0
  3 44  1  0
  4 45  1  1
  5 46  1  0
  8 47  1  6
  9 48  1  0
  9 49  1  0
 10 50  1  1
 11 51  1  0
 12 52  1  0
 12 53  1  0
 16 54  1  0
 16 55  1  0
 17 56  1  0
 21 57  1  0
 22 58  1  0
 24 59  1  0
 27 60  1  0
 28 61  1  0
 32 62  1  0
 33 63  1  0
 36 64  1  0
 37 65  1  0
M  END
>  <smiles>  (27) 
CC(C)C(NC(=O)[C@@H]1C[C@@H](O)CN1C(=O)CNC(=O)c1ccc2cc(F)ccc2n1)c1ccc(Cl)cc1

>  <score_type>  (27) 
oracle

>  <origin>  (27) 
autodockgpu

>  <m_score__min__energy>  (27) 
-9.3399999999999999

>  <m_primary>  (27) 
energy

>  <meeko>  (27) 
{"free_energy": -6.19, "intermolecular_energy": -8.87, "internal_energy": -5.41, "cluster_size": 6, "cluster_id": 8, "rank_in_cluster": 3}

>  <energy>  (27) 
-8.32

>  <cluster_rmsd>  (27) 
1.64

>  <rmsd>  (27) 
270.37

>  <cluster>  (27) 
2

$$$$

     RDKit          3D

 65 68  0  0  1  0  0  0  0  0999 V2000
  142.0860   75.4710  217.9220 C   0  0  0  0  0  0  0  0  0  0  0  0
  142.4180   76.6950  218.7970 C   0  0  0  0  0  0  0  0  0  0  0  0
  142.5970   77.8560  217.8270 C   0  0  0  0  0  0  0  0  0  0  0  0
  141.2190   76.9280  219.6560 C   0  0  1  0  0  0  0  0  0  0  0  0
  140.7000   75.6940  220.2630 N   0  0  0  0  0  0  0  0  0  0  0  0
  141.5700   74.7310  220.8550 C   0  0  0  0  0  0  0  0  0  0  0  0
  142.8120   74.9380  220.8600 O   0  0  0  0  0  0  0  0  0  0  0  0
  140.9640   73.5120  221.4470 C   0  0  2  0  0  0  0  0  0  0  0  0
  141.8060   72.2970  221.1170 C   0  0  0  0  0  0  0  0  0  0  0  0
  140.8510   71.3190  220.4310 C   0  0  1  0  0  0  0  0  0  0  0  0
  140.1410   70.6840  221.4200 O   0  0  0  0  0  0  0  0  0  0  0  0
  139.9240   72.3180  219.7440 C   0  0  0  0  0  0  0  0  0  0  0  0
  139.6490   73.2110  220.8720 N   0  0  0  0  0  0  0  0  0  0  0  0
  138.3890   73.6920  221.3280 C   0  0  0  0  0  0  0  0  0  0  0  0
  138.0660   74.9040  221.1760 O   0  0  0  0  0  0  0  0  0  0  0  0
  137.4820   72.7170  221.9850 C   0  0  0  0  0  0  0  0  0  0  0  0
  138.1050   71.9900  223.0440 N   0  0  0  0  0  0  0  0  0  0  0  0
  138.0290   70.5840  223.0830 C   0  0  0  0  0  0  0  0  0  0  0  0
  137.4190   69.9080  222.2020 O   0  0  0  0  0  0  0  0  0  0  0  0
  138.6860   69.8700  224.1950 C   0  0  0  0  0  0  0  0  0  0  0  0
  138.7210   68.4910  224.2290 C   0  0  0  0  0  0  0  0  0  0  0  0
  139.3440   67.8130  225.2830 C   0  0  0  0  0  0  0  0  0  0  0  0
  139.9250   68.5550  226.2940 C   0  0  0  0  0  0  0  0  0  0  0  0
  140.5630   67.9880  227.3770 C   0  0  0  0  0  0  0  0  0  0  0  0
  141.1400   68.7650  228.3820 C   0  0  0  0  0  0  0  0  0  0  0  0
  141.7690   68.1970  229.4470 F   0  0  0  0  0  0  0  0  0  0  0  0
  141.0850   70.1430  228.3120 C   0  0  0  0  0  0  0  0  0  0  0  0
  140.4480   70.7330  227.2320 C   0  0  0  0  0  0  0  0  0  0  0  0
  139.8760   69.9360  226.2350 C   0  0  0  0  0  0  0  0  0  0  0  0
  139.2670   70.5510  225.2040 N   0  0  0  0  0  0  0  0  0  0  0  0
  141.4280   77.9020  220.7510 C   0  0  0  0  0  0  0  0  0  0  0  0
  141.2960   77.6330  222.0840 C   0  0  0  0  0  0  0  0  0  0  0  0
  141.5270   78.6240  223.0270 C   0  0  0  0  0  0  0  0  0  0  0  0
  141.8960   79.9070  222.6740 C   0  0  0  0  0  0  0  0  0  0  0  0
  142.1900   81.1650  223.8650 Cl  0  0  0  0  0  0  0  0  0  0  0  0
  142.0300   80.1770  221.3170 C   0  0  0  0  0  0  0  0  0  0  0  0
  141.7960   79.1830  220.3910 C   0  0  0  0  0  0  0  0  0  0  0  0
  141.8528   74.6113  218.5674 H   0  0  0  0  0  0  0  0  0  0  0  0
  141.2173   75.6990  217.2870 H   0  0  0  0  0  0  0  0  0  0  0  0
  142.9509   75.2288  217.2870 H   0  0  0  0  0  0  0  0  0  0  0  0
  143.3141   76.5719  219.4230 H   0  0  0  0  0  0  0  0  0  0  0  0
  142.7407   78.7881  218.3932 H   0  0  0  0  0  0  0  0  0  0  0  0
  143.4774   77.6723  217.1937 H   0  0  0  0  0  0  0  0  0  0  0  0
  141.7021   77.9460  217.1937 H   0  0  0  0  0  0  0  0  0  0  0  0
  140.4906   77.3441  218.9444 H   0  0  0  0  0  0  0  0  0  0  0  0
  139.6680   75.5790  220.2300 H   0  0  0  0  0  0  0  0  0  0  0  0
  140.8919   73.7113  222.5264 H   0  0  0  0  0  0  0  0  0  0  0  0
  142.6290   72.5707  220.4404 H   0  0  0  0  0  0  0  0  0  0  0  0
  142.2653   71.8597  222.0158 H   0  0  0  0  0  0  0  0  0  0  0  0
  141.3065   70.5615  219.7763 H   0  0  0  0  0  0  0  0  0  0  0  0
  139.2210   70.4090  221.1260 H   0  0  0  0  0  0  0  0  0  0  0  0
  140.4267   72.8431  218.9184 H   0  0  0  0  0  0  0  0  0  0  0  0
  139.0348   71.8794  219.2676 H   0  0  0  0  0  0  0  0  0  0  0  0
  136.6209   73.2639  222.3965 H   0  0  0  0  0  0  0  0  0  0  0  0
  137.1819   71.9853  221.2205 H   0  0  0  0  0  0  0  0  0  0  0  0
  138.6350   72.4800  223.8210 H   0  0  0  0  0  0  0  0  0  0  0  0
  138.2526   67.9165  223.4163 H   0  0  0  0  0  0  0  0  0  0  0  0
  139.3707   66.7136  225.3063 H   0  0  0  0  0  0  0  0  0  0  0  0
  140.6186   66.8919  227.4507 H   0  0  0  0  0  0  0  0  0  0  0  0
  141.5391   70.7618  229.1000 H   0  0  0  0  0  0  0  0  0  0  0  0
  140.3921   71.8291  227.1587 H   0  0  0  0  0  0  0  0  0  0  0  0
  141.0047   76.6241  222.4116 H   0  0  0  0  0  0  0  0  0  0  0  0
  141.4122   78.3792  224.0932 H   0  0  0  0  0  0  0  0  0  0  0  0
  142.3226   81.1832  220.9823 H   0  0  0  0  0  0  0  0  0  0  0  0
  141.9069   79.4199  219.3226 H   0  0  0  0  0  0  0  0  0  0  0  0
  1  2  1  0
  2  3  1  0
  2  4  1  0
  4  5  1  0
  5  6  1  0
  6  7  2  0
  6  8  1  0
  8  9  1  0
  9 10  1  0
 10 11  1  0
 10 12  1  0
 12 13  1  0
 13 14  1  0
 14 15  2  0
 14 16  1  0
 16 17  1  0
 17 18  1  0
 18 19  2  0
 18 20  1  0
 20 21  2  0
 21 22  1  0
 22 23  2  0
 23 24  1  0
 24 25  2  0
 25 26  1  0
 25 27  1  0
 27 28  2  0
 28 29  1  0
 29 30  2  0
  4 31  1  0
 31 32  2  0
 32 33  1  0
 33 34  2  0
 34 35  1  0
 34 36  1  0
 36 37  2  0
 13  8  1  0
 30 20  1  0
 37 31  1  0
 29 23  1  0
  1 38  1  0
  1 39  1  0
  1 40  1  0
  2 41  1  0
  3 42  1  0
  3 43  1  0
  3 44  1  0
  4 45  1  6
  5 46  1  0
  8 47  1  1
  9 48  1  0
  9 49  1  0
 10 50  1  6
 11 51  1  0
 12 52  1  0
 12 53  1  0
 16 54  1  0
 16 55  1  0
 17 56  1  0
 21 57  1  0
 22 58  1  0
 24 59  1  0
 27 60  1  0
 28 61  1  0
 32 62  1  0
 33 63  1  0
 36 64  1  0
 37 65  1  0
M  END
>  <smiles>  (28) 
CC(C)C(NC(=O)[C@@H]1C[C@@H](O)CN1C(=O)CNC(=O)c1ccc2cc(F)ccc2n1)c1ccc(Cl)cc1

>  <score_type>  (28) 
oracle

>  <origin>  (28) 
autodockgpu

>  <m_score__min__energy>  (28) 
-9.3399999999999999

>  <m_primary>  (28) 
energy

>  <meeko>  (28) 
{"free_energy": -7.91, "intermolecular_energy": -10.59, "internal_energy": -3.68, "cluster_size": 3, "cluster_id": 2, "rank_in_cluster": 3}

>  <energy>  (28) 
-7.91

>  <cluster_rmsd>  (28) 
1.43

>  <rmsd>  (28) 
270.14

>  <cluster>  (28) 
2

$$$$

     RDKit          3D

 65 68  0  0  1  0  0  0  0  0999 V2000
  142.3860   77.5120  217.1470 C   0  0  0  0  0  0  0  0  0  0  0  0
  142.5330   78.5990  218.2290 C   0  0  0  0  0  0  0  0  0  0  0  0
  142.1990   79.9140  217.5380 C   0  0  0  0  0  0  0  0  0  0  0  0
  141.5040   78.2920  219.2670 C   0  0  1  0  0  0  0  0  0  0  0  0
  141.4300   76.8610  219.5960 N   0  0  0  0  0  0  0  0  0  0  0  0
  142.6040   76.0960  219.8640 C   0  0  0  0  0  0  0  0  0  0  0  0
  143.7310   76.6540  219.8190 O   0  0  0  0  0  0  0  0  0  0  0  0
  142.4410   74.6570  220.1900 C   0  0  2  0  0  0  0  0  0  0  0  0
  143.0590   73.8030  219.1030 C   0  0  0  0  0  0  0  0  0  0  0  0
  141.9370   72.8750  218.6320 C   0  0  1  0  0  0  0  0  0  0  0  0
  141.8570   71.8450  219.5360 O   0  0  0  0  0  0  0  0  0  0  0  0
  140.7420   73.7980  218.8520 C   0  0  0  0  0  0  0  0  0  0  0  0
  141.0320   74.2500  220.2150 N   0  0  0  0  0  0  0  0  0  0  0  0
  140.1530   74.2920  221.3350 C   0  0  0  0  0  0  0  0  0  0  0  0
  140.3070   75.1540  222.2460 O   0  0  0  0  0  0  0  0  0  0  0  0
  139.0600   73.2880  221.3830 C   0  0  0  0  0  0  0  0  0  0  0  0
  139.1140   72.4490  222.5360 N   0  0  0  0  0  0  0  0  0  0  0  0
  139.7320   71.1850  222.4690 C   0  0  0  0  0  0  0  0  0  0  0  0
  140.2590   70.7390  221.4060 O   0  0  0  0  0  0  0  0  0  0  0  0
  139.7680   70.3470  223.6830 C   0  0  0  0  0  0  0  0  0  0  0  0
  139.2290   69.0770  223.6840 C   0  0  0  0  0  0  0  0  0  0  0  0
  139.2620   68.2820  224.8350 C   0  0  0  0  0  0  0  0  0  0  0  0
  139.8480   68.7970  225.9760 C   0  0  0  0  0  0  0  0  0  0  0  0
  139.9340   68.0990  227.1620 C   0  0  0  0  0  0  0  0  0  0  0  0
  140.5310   68.6460  228.2980 C   0  0  0  0  0  0  0  0  0  0  0  0
  140.6120   67.9500  229.4650 F   0  0  0  0  0  0  0  0  0  0  0  0
  141.0610   69.9210  228.2580 C   0  0  0  0  0  0  0  0  0  0  0  0
  140.9850   70.6390  227.0750 C   0  0  0  0  0  0  0  0  0  0  0  0
  140.3810   70.0720  225.9480 C   0  0  0  0  0  0  0  0  0  0  0  0
  140.3290   70.8060  224.8210 N   0  0  0  0  0  0  0  0  0  0  0  0
  141.6760   79.0270  220.5400 C   0  0  0  0  0  0  0  0  0  0  0  0
  141.8370   78.4530  221.7690 C   0  0  0  0  0  0  0  0  0  0  0  0
  142.0020   79.2420  222.8980 C   0  0  0  0  0  0  0  0  0  0  0  0
  142.0110   80.6210  222.8380 C   0  0  0  0  0  0  0  0  0  0  0  0
  142.2200   81.6260  224.2650 Cl  0  0  0  0  0  0  0  0  0  0  0  0
  141.8470   81.2030  221.5870 C   0  0  0  0  0  0  0  0  0  0  0  0
  141.6840   80.4060  220.4730 C   0  0  0  0  0  0  0  0  0  0  0  0
  142.2534   76.5316  217.6278 H   0  0  0  0  0  0  0  0  0  0  0  0
  141.5098   77.7346  216.5203 H   0  0  0  0  0  0  0  0  0  0  0  0
  143.2899   77.4938  216.5203 H   0  0  0  0  0  0  0  0  0  0  0  0
  143.5317   78.6462  218.6877 H   0  0  0  0  0  0  0  0  0  0  0  0
  142.0027   80.6869  218.2957 H   0  0  0  0  0  0  0  0  0  0  0  0
  143.0470   80.2237  216.9095 H   0  0  0  0  0  0  0  0  0  0  0  0
  141.3060   79.7815  216.9095 H   0  0  0  0  0  0  0  0  0  0  0  0
  140.5725   78.6266  218.7871 H   0  0  0  0  0  0  0  0  0  0  0  0
  140.4730   76.4560  219.6190 H   0  0  0  0  0  0  0  0  0  0  0  0
  142.9140   74.5203  221.1736 H   0  0  0  0  0  0  0  0  0  0  0  0
  143.4126   74.4322  218.2729 H   0  0  0  0  0  0  0  0  0  0  0  0
  143.9303   73.2402  219.4691 H   0  0  0  0  0  0  0  0  0  0  0  0
  142.0356   72.4550  217.6202 H   0  0  0  0  0  0  0  0  0  0  0  0
  140.9530   71.7710  219.9670 H   0  0  0  0  0  0  0  0  0  0  0  0
  140.7317   74.6333  218.1363 H   0  0  0  0  0  0  0  0  0  0  0  0
  139.7568   73.3285  218.7145 H   0  0  0  0  0  0  0  0  0  0  0  0
  138.0972   73.8199  221.3831 H   0  0  0  0  0  0  0  0  0  0  0  0
  139.1751   72.6390  220.5023 H   0  0  0  0  0  0  0  0  0  0  0  0
  138.6960   72.7470  223.4650 H   0  0  0  0  0  0  0  0  0  0  0  0
  138.7666   68.6837  222.7667 H   0  0  0  0  0  0  0  0  0  0  0  0
  138.8312   67.2699  224.8319 H   0  0  0  0  0  0  0  0  0  0  0  0
  139.5198   67.0813  227.2139 H   0  0  0  0  0  0  0  0  0  0  0  0
  141.5349   70.3586  229.1491 H   0  0  0  0  0  0  0  0  0  0  0  0
  141.4003   71.6562  227.0223 H   0  0  0  0  0  0  0  0  0  0  0  0
  141.8358   77.3571  221.8642 H   0  0  0  0  0  0  0  0  0  0  0  0
  142.1300   78.7519  223.8744 H   0  0  0  0  0  0  0  0  0  0  0  0
  141.8471   82.2983  221.4851 H   0  0  0  0  0  0  0  0  0  0  0  0
  141.5553   80.8881  219.4927 H   0  0  0  0  0  0  0  0  0  0  0  0
  1  2  1  0
  2  3  1  0
  2  4  1  0
  4  5  1  0
  5  6  1  0
  6  7  2  0
  6  8  1  0
  8  9  1  0
  9 10  1  0
 10 11  1  0
 10 12  1  0
 12 13  1  0
 13 14  1  0
 14 15  2  0
 14 16  1  0
 16 17  1  0
 17 18  1  0
 18 19  2  0
 18 20  1  0
 20 21  2  0
 21 22  1  0
 22 23  2  0
 23 24  1  0
 24 25  2  0
 25 26  1  0
 25 27  1  0
 27 28  2  0
 28 29  1  0
 29 30  2  0
  4 31  1  0
 31 32  2  0
 32 33  1  0
 33 34  2  0
 34 35  1  0
 34 36  1  0
 36 37  2  0
 13  8  1  0
 30 20  1  0
 37 31  1  0
 29 23  1  0
  1 38  1  0
  1 39  1  0
  1 40  1  0
  2 41  1  0
  3 42  1  0
  3 43  1  0
  3 44  1  0
  4 45  1  6
  5 46  1  0
  8 47  1  1
  9 48  1  0
  9 49  1  0
 10 50  1  6
 11 51  1  0
 12 52  1  0
 12 53  1  0
 16 54  1  0
 16 55  1  0
 17 56  1  0
 21 57  1  0
 22 58  1  0
 24 59  1  0
 27 60  1  0
 28 61  1  0
 32 62  1  0
 33 63  1  0
 36 64  1  0
 37 65  1  0
M  END
>  <smiles>  (29) 
CC(C)C(NC(=O)[C@@H]1C[C@@H](O)CN1C(=O)CNC(=O)c1ccc2cc(F)ccc2n1)c1ccc(Cl)cc1

>  <score_type>  (29) 
oracle

>  <origin>  (29) 
autodockgpu

>  <m_score__min__energy>  (29) 
-9.3399999999999999

>  <m_primary>  (29) 
energy

>  <meeko>  (29) 
{"free_energy": -8.73, "intermolecular_energy": -11.41, "internal_energy": -2.88, "cluster_size": 3, "cluster_id": 2, "rank_in_cluster": 1}

>  <energy>  (29) 
-8.46

>  <cluster_rmsd>  (29) 
0.0

>  <rmsd>  (29) 
270.86

>  <cluster>  (29) 
3

$$$$

     RDKit          3D

 65 68  0  0  1  0  0  0  0  0999 V2000
  141.8360   78.7890  224.1220 C   0  0  0  0  0  0  0  0  0  0  0  0
  141.0810   79.8250  223.2670 C   0  0  0  0  0  0  0  0  0  0  0  0
  142.1490   80.7610  222.7190 C   0  0  0  0  0  0  0  0  0  0  0  0
  140.4510   79.0600  222.1500 C   0  0  1  0  0  0  0  0  0  0  0  0
  141.2950   77.9610  221.6600 N   0  0  0  0  0  0  0  0  0  0  0  0
  141.8890   77.9980  220.3630 C   0  0  0  0  0  0  0  0  0  0  0  0
  141.6900   78.9940  219.6190 O   0  0  0  0  0  0  0  0  0  0  0  0
  142.7280   76.8470  219.9450 C   0  0  2  0  0  0  0  0  0  0  0  0
  143.3030   77.0940  218.5660 C   0  0  0  0  0  0  0  0  0  0  0  0
  142.8630   75.8940  217.7260 C   0  0  1  0  0  0  0  0  0  0  0  0
  143.7250   74.8620  218.0110 O   0  0  0  0  0  0  0  0  0  0  0  0
  141.5250   75.5970  218.3960 C   0  0  0  0  0  0  0  0  0  0  0  0
  141.9470   75.6150  219.7990 N   0  0  0  0  0  0  0  0  0  0  0  0
  141.6690   74.6570  220.8140 C   0  0  0  0  0  0  0  0  0  0  0  0
  141.4820   75.0160  222.0110 O   0  0  0  0  0  0  0  0  0  0  0  0
  141.6120   73.2290  220.4080 C   0  0  0  0  0  0  0  0  0  0  0  0
  141.4310   72.3360  221.5070 N   0  0  0  0  0  0  0  0  0  0  0  0
  140.3630   72.5210  222.4070 C   0  0  0  0  0  0  0  0  0  0  0  0
  139.5280   73.4670  222.2890 O   0  0  0  0  0  0  0  0  0  0  0  0
  140.2100   71.5770  223.5300 C   0  0  0  0  0  0  0  0  0  0  0  0
  139.5860   70.3600  223.3530 C   0  0  0  0  0  0  0  0  0  0  0  0
  139.4400   69.4640  224.4190 C   0  0  0  0  0  0  0  0  0  0  0  0
  139.9360   69.8250  225.6570 C   0  0  0  0  0  0  0  0  0  0  0  0
  139.8460   69.0180  226.7710 C   0  0  0  0  0  0  0  0  0  0  0  0
  140.3570   69.4110  228.0090 C   0  0  0  0  0  0  0  0  0  0  0  0
  140.2640   68.6080  229.1040 F   0  0  0  0  0  0  0  0  0  0  0  0
  140.9770   70.6370  228.1470 C   0  0  0  0  0  0  0  0  0  0  0  0
  141.0780   71.4630  227.0390 C   0  0  0  0  0  0  0  0  0  0  0  0
  140.5580   71.0500  225.8070 C   0  0  0  0  0  0  0  0  0  0  0  0
  140.6780   71.8850  224.7580 N   0  0  0  0  0  0  0  0  0  0  0  0
  139.1240   78.4850  222.4690 C   0  0  0  0  0  0  0  0  0  0  0  0
  138.0010   79.2050  222.7600 C   0  0  0  0  0  0  0  0  0  0  0  0
  136.8030   78.5590  223.0350 C   0  0  0  0  0  0  0  0  0  0  0  0
  136.6900   77.1830  223.0270 C   0  0  0  0  0  0  0  0  0  0  0  0
  135.1760   76.3600  223.3730 Cl  0  0  0  0  0  0  0  0  0  0  0  0
  137.8350   76.4540  222.7300 C   0  0  0  0  0  0  0  0  0  0  0  0
  139.0180   77.1090  222.4600 C   0  0  0  0  0  0  0  0  0  0  0  0
  141.6767   79.0075  225.1882 H   0  0  0  0  0  0  0  0  0  0  0  0
  141.4593   77.7810  223.8941 H   0  0  0  0  0  0  0  0  0  0  0  0
  142.9110   78.8389  223.8941 H   0  0  0  0  0  0  0  0  0  0  0  0
  140.3154   80.3917  223.8172 H   0  0  0  0  0  0  0  0  0  0  0  0
  142.6871   81.2326  223.5545 H   0  0  0  0  0  0  0  0  0  0  0  0
  142.8578   80.1880  222.1032 H   0  0  0  0  0  0  0  0  0  0  0  0
  141.6739   81.5389  222.1032 H   0  0  0  0  0  0  0  0  0  0  0  0
  140.3276   79.8290  221.3732 H   0  0  0  0  0  0  0  0  0  0  0  0
  141.4230   77.1670  222.3180 H   0  0  0  0  0  0  0  0  0  0  0  0
  143.4967   76.7420  220.7248 H   0  0  0  0  0  0  0  0  0  0  0  0
  142.9036   78.0277  218.1433 H   0  0  0  0  0  0  0  0  0  0  0  0
  144.3977   77.1990  218.5903 H   0  0  0  0  0  0  0  0  0  0  0  0
  142.8286   76.0406  216.6364 H   0  0  0  0  0  0  0  0  0  0  0  0
  144.6900   75.1290  217.9410 H   0  0  0  0  0  0  0  0  0  0  0  0
  140.7776   76.3753  218.1824 H   0  0  0  0  0  0  0  0  0  0  0  0
  141.0327   74.6699  218.0673 H   0  0  0  0  0  0  0  0  0  0  0  0
  140.7723   73.0979  219.7097 H   0  0  0  0  0  0  0  0  0  0  0  0
  142.5789   72.9833  219.9446 H   0  0  0  0  0  0  0  0  0  0  0  0
  142.0850   71.5190  221.6770 H   0  0  0  0  0  0  0  0  0  0  0  0
  139.1974   70.0893  222.3602 H   0  0  0  0  0  0  0  0  0  0  0  0
  138.9415   68.4942  224.2741 H   0  0  0  0  0  0  0  0  0  0  0  0
  139.3576   68.0364  226.6817 H   0  0  0  0  0  0  0  0  0  0  0  0
  141.3835   70.9524  229.1192 H   0  0  0  0  0  0  0  0  0  0  0  0
  141.5673   72.4442  227.1278 H   0  0  0  0  0  0  0  0  0  0  0  0
  138.0456   80.3040  222.7767 H   0  0  0  0  0  0  0  0  0  0  0  0
  135.9140   79.1639  223.2671 H   0  0  0  0  0  0  0  0  0  0  0  0
  137.7978   75.3548  222.7103 H   0  0  0  0  0  0  0  0  0  0  0  0
  139.9121   76.5115  222.2284 H   0  0  0  0  0  0  0  0  0  0  0  0
  1  2  1  0
  2  3  1  0
  2  4  1  0
  4  5  1  0
  5  6  1  0
  6  7  2  0
  6  8  1  0
  8  9  1  0
  9 10  1  0
 10 11  1  0
 10 12  1  0
 12 13  1  0
 13 14  1  0
 14 15  2  0
 14 16  1  0
 16 17  1  0
 17 18  1  0
 18 19  2  0
 18 20  1  0
 20 21  2  0
 21 22  1  0
 22 23  2  0
 23 24  1  0
 24 25  2  0
 25 26  1  0
 25 27  1  0
 27 28  2  0
 28 29  1  0
 29 30  2  0
  4 31  1  0
 31 32  2  0
 32 33  1  0
 33 34  2  0
 34 35  1  0
 34 36  1  0
 36 37  2  0
 13  8  1  0
 30 20  1  0
 37 31  1  0
 29 23  1  0
  1 38  1  0
  1 39  1  0
  1 40  1  0
  2 41  1  0
  3 42  1  0
  3 43  1  0
  3 44  1  0
  4 45  1  6
  5 46  1  0
  8 47  1  1
  9 48  1  0
  9 49  1  0
 10 50  1  6
 11 51  1  0
 12 52  1  0
 12 53  1  0
 16 54  1  0
 16 55  1  0
 17 56  1  0
 21 57  1  0
 22 58  1  0
 24 59  1  0
 27 60  1  0
 28 61  1  0
 32 62  1  0
 33 63  1  0
 36 64  1  0
 37 65  1  0
M  END
>  <smiles>  (30) 
CC(C)C(NC(=O)[C@@H]1C[C@@H](O)CN1C(=O)CNC(=O)c1ccc2cc(F)ccc2n1)c1ccc(Cl)cc1

>  <score_type>  (30) 
oracle

>  <origin>  (30) 
autodockgpu

>  <m_score__min__energy>  (30) 
-9.3399999999999999

>  <m_primary>  (30) 
energy

>  <meeko>  (30) 
{"free_energy": -9.34, "intermolecular_energy": -12.02, "internal_energy": -2.85, "cluster_size": 5, "cluster_id": 1, "rank_in_cluster": 1}

>  <energy>  (30) 
-8.19

>  <cluster_rmsd>  (30) 
0.0

>  <rmsd>  (30) 
269.96

>  <cluster>  (30) 
4

$$$$

     RDKit          3D

 65 68  0  0  1  0  0  0  0  0999 V2000
  137.5480   70.6240  221.2440 C   0  0  0  0  0  0  0  0  0  0  0  0
  138.2850   69.7650  222.2890 C   0  0  0  0  0  0  0  0  0  0  0  0
  139.5560   69.2840  221.6020 C   0  0  0  0  0  0  0  0  0  0  0  0
  138.6290   70.6840  223.4140 C   0  0  1  0  0  0  0  0  0  0  0  0
  137.4890   71.4980  223.8590 N   0  0  0  0  0  0  0  0  0  0  0  0
  136.2510   70.9020  224.2410 C   0  0  0  0  0  0  0  0  0  0  0  0
  136.1270   69.6500  224.1990 O   0  0  0  0  0  0  0  0  0  0  0  0
  135.1500   71.7960  224.6790 C   0  0  2  0  0  0  0  0  0  0  0  0
  133.9170   70.9820  225.0110 C   0  0  0  0  0  0  0  0  0  0  0  0
  132.8030   71.5630  224.1380 C   0  0  1  0  0  0  0  0  0  0  0  0
  132.3470   72.6970  224.7660 O   0  0  0  0  0  0  0  0  0  0  0  0
  133.6300   71.9870  222.9290 C   0  0  0  0  0  0  0  0  0  0  0  0
  134.7120   72.7010  223.6120 N   0  0  0  0  0  0  0  0  0  0  0  0
  135.2380   73.9910  223.3190 C   0  0  0  0  0  0  0  0  0  0  0  0
  134.9790   74.9800  224.0620 O   0  0  0  0  0  0  0  0  0  0  0  0
  136.0960   74.1220  222.1140 C   0  0  0  0  0  0  0  0  0  0  0  0
  137.3130   74.8270  222.3600 N   0  0  0  0  0  0  0  0  0  0  0  0
  137.3880   76.2160  222.1370 C   0  0  0  0  0  0  0  0  0  0  0  0
  136.4040   76.8940  221.7170 O   0  0  0  0  0  0  0  0  0  0  0  0
  138.6640   76.9080  222.4040 C   0  0  0  0  0  0  0  0  0  0  0  0
  139.8700   76.2570  222.2490 C   0  0  0  0  0  0  0  0  0  0  0  0
  141.0800   76.9130  222.5020 C   0  0  0  0  0  0  0  0  0  0  0  0
  141.0420   78.2330  222.9110 C   0  0  0  0  0  0  0  0  0  0  0  0
  142.1740   78.9710  223.1850 C   0  0  0  0  0  0  0  0  0  0  0  0
  142.1030   80.3030  223.5970 C   0  0  0  0  0  0  0  0  0  0  0  0
  143.2250   81.0240  223.8660 F   0  0  0  0  0  0  0  0  0  0  0  0
  140.8760   80.9210  223.7390 C   0  0  0  0  0  0  0  0  0  0  0  0
  139.7270   80.1970  223.4670 C   0  0  0  0  0  0  0  0  0  0  0  0
  139.8200   78.8620  223.0570 C   0  0  0  0  0  0  0  0  0  0  0  0
  138.6780   78.1970  222.8050 N   0  0  0  0  0  0  0  0  0  0  0  0
  139.1820   70.0120  224.6110 C   0  0  0  0  0  0  0  0  0  0  0  0
  138.9940   68.6990  224.9380 C   0  0  0  0  0  0  0  0  0  0  0  0
  139.5710   68.1700  226.0840 C   0  0  0  0  0  0  0  0  0  0  0  0
  140.3490   68.9290  226.9350 C   0  0  0  0  0  0  0  0  0  0  0  0
  141.0820   68.2640  228.3870 Cl  0  0  0  0  0  0  0  0  0  0  0  0
  140.5390   70.2640  226.6000 C   0  0  0  0  0  0  0  0  0  0  0  0
  139.9590   70.7770  225.4580 C   0  0  0  0  0  0  0  0  0  0  0  0
  136.9145   71.3624  221.7573 H   0  0  0  0  0  0  0  0  0  0  0  0
  138.2833   71.1463  220.6143 H   0  0  0  0  0  0  0  0  0  0  0  0
  136.9200   69.9767  220.6143 H   0  0  0  0  0  0  0  0  0  0  0  0
  137.7009   68.9114  222.6633 H   0  0  0  0  0  0  0  0  0  0  0  0
  140.2996   69.0026  222.3621 H   0  0  0  0  0  0  0  0  0  0  0  0
  139.3254   68.4110  220.9738 H   0  0  0  0  0  0  0  0  0  0  0  0
  139.9611   70.0910  220.9738 H   0  0  0  0  0  0  0  0  0  0  0  0
  139.4096   71.3207  222.9721 H   0  0  0  0  0  0  0  0  0  0  0  0
  137.6500   72.5250  223.8740 H   0  0  0  0  0  0  0  0  0  0  0  0
  135.5473   72.3551  225.5390 H   0  0  0  0  0  0  0  0  0  0  0  0
  134.0800   69.9207  224.7720 H   0  0  0  0  0  0  0  0  0  0  0  0
  133.6680   71.0325  226.0813 H   0  0  0  0  0  0  0  0  0  0  0  0
  131.9484   70.9042  223.9242 H   0  0  0  0  0  0  0  0  0  0  0  0
  132.9380   73.4930  224.6120 H   0  0  0  0  0  0  0  0  0  0  0  0
  134.0035   71.1206  222.3635 H   0  0  0  0  0  0  0  0  0  0  0  0
  133.0867   72.5737  222.1736 H   0  0  0  0  0  0  0  0  0  0  0  0
  136.3441   73.1137  221.7510 H   0  0  0  0  0  0  0  0  0  0  0  0
  135.5282   74.7023  221.3718 H   0  0  0  0  0  0  0  0  0  0  0  0
  138.1830   74.3330  222.7120 H   0  0  0  0  0  0  0  0  0  0  0  0
  139.8809   75.2069  221.9217 H   0  0  0  0  0  0  0  0  0  0  0  0
  142.0398   76.3900  222.3782 H   0  0  0  0  0  0  0  0  0  0  0  0
  143.1606   78.4970  223.0759 H   0  0  0  0  0  0  0  0  0  0  0  0
  140.8124   81.9704  224.0626 H   0  0  0  0  0  0  0  0  0  0  0  0
  138.7404   80.6717  223.5733 H   0  0  0  0  0  0  0  0  0  0  0  0
  138.3811   68.0567  224.2886 H   0  0  0  0  0  0  0  0  0  0  0  0
  139.4026   67.1094  226.3224 H   0  0  0  0  0  0  0  0  0  0  0  0
  141.1514   70.9115  227.2448 H   0  0  0  0  0  0  0  0  0  0  0  0
  140.1220   71.8369  225.2128 H   0  0  0  0  0  0  0  0  0  0  0  0
  1  2  1  0
  2  3  1  0
  2  4  1  0
  4  5  1  0
  5  6  1  0
  6  7  2  0
  6  8  1  0
  8  9  1  0
  9 10  1  0
 10 11  1  0
 10 12  1  0
 12 13  1  0
 13 14  1  0
 14 15  2  0
 14 16  1  0
 16 17  1  0
 17 18  1  0
 18 19  2  0
 18 20  1  0
 20 21  2  0
 21 22  1  0
 22 23  2  0
 23 24  1  0
 24 25  2  0
 25 26  1  0
 25 27  1  0
 27 28  2  0
 28 29  1  0
 29 30  2  0
  4 31  1  0
 31 32  2  0
 32 33  1  0
 33 34  2  0
 34 35  1  0
 34 36  1  0
 36 37  2  0
 13  8  1  0
 30 20  1  0
 37 31  1  0
 29 23  1  0
  1 38  1  0
  1 39  1  0
  1 40  1  0
  2 41  1  0
  3 42  1  0
  3 43  1  0
  3 44  1  0
  4 45  1  6
  5 46  1  0
  8 47  1  1
  9 48  1  0
  9 49  1  0
 10 50  1  6
 11 51  1  0
 12 52  1  0
 12 53  1  0
 16 54  1  0
 16 55  1  0
 17 56  1  0
 21 57  1  0
 22 58  1  0
 24 59  1  0
 27 60  1  0
 28 61  1  0
 32 62  1  0
 33 63  1  0
 36 64  1  0
 37 65  1  0
M  END
>  <smiles>  (31) 
CC(C)C(NC(=O)[C@@H]1C[C@@H](O)CN1C(=O)CNC(=O)c1ccc2cc(F)ccc2n1)c1ccc(Cl)cc1

>  <score_type>  (31) 
oracle

>  <origin>  (31) 
autodockgpu

>  <m_score__min__energy>  (31) 
-9.3399999999999999

>  <m_primary>  (31) 
energy

>  <meeko>  (31) 
{"free_energy": -8.19, "intermolecular_energy": -10.87, "internal_energy": -2.45, "cluster_size": 2, "cluster_id": 4, "rank_in_cluster": 1}

>  <energy>  (31) 
-7.35

>  <cluster_rmsd>  (31) 
0.97

>  <rmsd>  (31) 
269.96

>  <cluster>  (31) 
4

$$$$

     RDKit          3D

 65 68  0  0  1  0  0  0  0  0999 V2000
  141.8330   78.6260  224.2700 C   0  0  0  0  0  0  0  0  0  0  0  0
  141.5250   80.0480  223.7630 C   0  0  0  0  0  0  0  0  0  0  0  0
  142.8160   80.5440  223.1250 C   0  0  0  0  0  0  0  0  0  0  0  0
  140.4670   79.8960  222.7210 C   0  0  1  0  0  0  0  0  0  0  0  0
  140.5440   78.6130  222.0070 N   0  0  0  0  0  0  0  0  0  0  0  0
  141.2710   78.4810  220.7870 C   0  0  0  0  0  0  0  0  0  0  0  0
  141.8630   79.4840  220.3070 O   0  0  0  0  0  0  0  0  0  0  0  0
  141.2990   77.1510  220.1300 C   0  0  2  0  0  0  0  0  0  0  0  0
  141.3230   77.3120  218.6250 C   0  0  0  0  0  0  0  0  0  0  0  0
  140.1220   76.5140  218.1140 C   0  0  1  0  0  0  0  0  0  0  0  0
  140.4990   75.1940  218.0790 O   0  0  0  0  0  0  0  0  0  0  0  0
  139.1740   76.7100  219.2930 C   0  0  0  0  0  0  0  0  0  0  0  0
  140.0820   76.3760  220.3930 N   0  0  0  0  0  0  0  0  0  0  0  0
  139.8530   75.4950  221.4880 C   0  0  0  0  0  0  0  0  0  0  0  0
  139.9170   75.9120  222.6790 O   0  0  0  0  0  0  0  0  0  0  0  0
  139.5400   74.0780  221.1710 C   0  0  0  0  0  0  0  0  0  0  0  0
  139.5880   73.2210  222.3110 N   0  0  0  0  0  0  0  0  0  0  0  0
  139.6250   71.8220  222.1480 C   0  0  0  0  0  0  0  0  0  0  0  0
  139.6180   71.2670  221.0090 O   0  0  0  0  0  0  0  0  0  0  0  0
  139.6730   70.9690  223.3510 C   0  0  0  0  0  0  0  0  0  0  0  0
  139.2080   69.6710  223.3190 C   0  0  0  0  0  0  0  0  0  0  0  0
  139.2530   68.8610  224.4600 C   0  0  0  0  0  0  0  0  0  0  0  0
  139.7750   69.3910  225.6250 C   0  0  0  0  0  0  0  0  0  0  0  0
  139.8660   68.6810  226.8030 C   0  0  0  0  0  0  0  0  0  0  0  0
  140.3990   69.2440  227.9630 C   0  0  0  0  0  0  0  0  0  0  0  0
  140.4850   68.5360  229.1230 F   0  0  0  0  0  0  0  0  0  0  0  0
  140.8560   70.5480  227.9560 C   0  0  0  0  0  0  0  0  0  0  0  0
  140.7730   71.2780  226.7820 C   0  0  0  0  0  0  0  0  0  0  0  0
  140.2350   70.6950  225.6290 C   0  0  0  0  0  0  0  0  0  0  0  0
  140.1740   71.4410  224.5110 N   0  0  0  0  0  0  0  0  0  0  0  0
  139.0820   80.0340  223.2270 C   0  0  0  0  0  0  0  0  0  0  0  0
  138.6830   80.8870  224.2160 C   0  0  0  0  0  0  0  0  0  0  0  0
  137.3520   80.9400  224.6040 C   0  0  0  0  0  0  0  0  0  0  0  0
  136.3820   80.1490  224.0200 C   0  0  0  0  0  0  0  0  0  0  0  0
  134.6940   80.2130  224.5070 Cl  0  0  0  0  0  0  0  0  0  0  0  0
  136.7910   79.2820  223.0140 C   0  0  0  0  0  0  0  0  0  0  0  0
  138.1170   79.2390  222.6400 C   0  0  0  0  0  0  0  0  0  0  0  0
  141.8340   78.6211  225.3700 H   0  0  0  0  0  0  0  0  0  0  0  0
  141.0646   77.9307  223.9010 H   0  0  0  0  0  0  0  0  0  0  0  0
  142.8202   78.3110  223.9010 H   0  0  0  0  0  0  0  0  0  0  0  0
  141.1882   80.7430  224.5463 H   0  0  0  0  0  0  0  0  0  0  0  0
  143.5323   80.8192  223.9131 H   0  0  0  0  0  0  0  0  0  0  0  0
  143.2461   79.7471  222.5005 H   0  0  0  0  0  0  0  0  0  0  0  0
  142.6019   81.4239  222.5005 H   0  0  0  0  0  0  0  0  0  0  0  0
  140.6815   80.7312  222.0380 H   0  0  0  0  0  0  0  0  0  0  0  0
  140.0360   77.8230  222.4510 H   0  0  0  0  0  0  0  0  0  0  0  0
  142.1901   76.6435  220.5281 H   0  0  0  0  0  0  0  0  0  0  0  0
  141.2263   78.3725  218.3494 H   0  0  0  0  0  0  0  0  0  0  0  0
  142.2678   76.9547  218.1895 H   0  0  0  0  0  0  0  0  0  0  0  0
  139.7229   76.7974  217.1289 H   0  0  0  0  0  0  0  0  0  0  0  0
  139.8860   74.5980  218.6080 H   0  0  0  0  0  0  0  0  0  0  0  0
  138.8120   77.7466  219.3603 H   0  0  0  0  0  0  0  0  0  0  0  0
  138.2490   76.1160  219.2532 H   0  0  0  0  0  0  0  0  0  0  0  0
  138.5284   74.0315  220.7415 H   0  0  0  0  0  0  0  0  0  0  0  0
  140.3064   73.7249  220.4653 H   0  0  0  0  0  0  0  0  0  0  0  0
  139.5960   73.6040  223.2990 H   0  0  0  0  0  0  0  0  0  0  0  0
  138.7956   69.2661  222.3830 H   0  0  0  0  0  0  0  0  0  0  0  0
  138.8813   67.8261  224.4301 H   0  0  0  0  0  0  0  0  0  0  0  0
  139.5083   67.6411  226.8292 H   0  0  0  0  0  0  0  0  0  0  0  0
  141.2782   70.9982  228.8665 H   0  0  0  0  0  0  0  0  0  0  0  0
  141.1306   72.3179  226.7557 H   0  0  0  0  0  0  0  0  0  0  0  0
  139.4218   81.5364  224.7083 H   0  0  0  0  0  0  0  0  0  0  0  0
  137.0593   81.6358  225.4041 H   0  0  0  0  0  0  0  0  0  0  0  0
  136.0573   78.6306  222.5166 H   0  0  0  0  0  0  0  0  0  0  0  0
  138.4186   78.5440  221.8425 H   0  0  0  0  0  0  0  0  0  0  0  0
  1  2  1  0
  2  3  1  0
  2  4  1  0
  4  5  1  0
  5  6  1  0
  6  7  2  0
  6  8  1  0
  8  9  1  0
  9 10  1  0
 10 11  1  0
 10 12  1  0
 12 13  1  0
 13 14  1  0
 14 15  2  0
 14 16  1  0
 16 17  1  0
 17 18  1  0
 18 19  2  0
 18 20  1  0
 20 21  2  0
 21 22  1  0
 22 23  2  0
 23 24  1  0
 24 25  2  0
 25 26  1  0
 25 27  1  0
 27 28  2  0
 28 29  1  0
 29 30  2  0
  4 31  1  0
 31 32  2  0
 32 33  1  0
 33 34  2  0
 34 35  1  0
 34 36  1  0
 36 37  2  0
 13  8  1  0
 30 20  1  0
 37 31  1  0
 29 23  1  0
  1 38  1  0
  1 39  1  0
  1 40  1  0
  2 41  1  0
  3 42  1  0
  3 43  1  0
  3 44  1  0
  4 45  1  6
  5 46  1  0
  8 47  1  1
  9 48  1  0
  9 49  1  0
 10 50  1  6
 11 51  1  0
 12 52  1  0
 12 53  1  0
 16 54  1  0
 16 55  1  0
 17 56  1  0
 21 57  1  0
 22 58  1  0
 24 59  1  0
 27 60  1  0
 28 61  1  0
 32 62  1  0
 33 63  1  0
 36 64  1  0
 37 65  1  0
M  END
>  <smiles>  (32) 
CC(C)C(NC(=O)[C@@H]1C[C@@H](O)CN1C(=O)CNC(=O)c1ccc2cc(F)ccc2n1)c1ccc(Cl)cc1

>  <score_type>  (32) 
oracle

>  <origin>  (32) 
autodockgpu

>  <m_score__min__energy>  (32) 
-9.3399999999999999

>  <m_primary>  (32) 
energy

>  <meeko>  (32) 
{"free_energy": -8.29, "intermolecular_energy": -10.97, "internal_energy": -3.42, "cluster_size": 5, "cluster_id": 1, "rank_in_cluster": 5}

>  <energy>  (32) 
-8.14

>  <cluster_rmsd>  (32) 
0.0

>  <rmsd>  (32) 
270.69

>  <cluster>  (32) 
5

$$$$

     RDKit          3D

 65 68  0  0  1  0  0  0  0  0999 V2000
  142.7140   81.5350  217.3490 C   0  0  0  0  0  0  0  0  0  0  0  0
  141.3390   80.8410  217.3980 C   0  0  0  0  0  0  0  0  0  0  0  0
  141.1320   80.2420  216.0130 C   0  0  0  0  0  0  0  0  0  0  0  0
  141.4610   79.7510  218.4120 C   0  0  1  0  0  0  0  0  0  0  0  0
  142.5460   78.8060  218.1120 N   0  0  0  0  0  0  0  0  0  0  0  0
  142.4240   77.4140  218.3990 C   0  0  0  0  0  0  0  0  0  0  0  0
  141.3640   76.9800  218.9210 O   0  0  0  0  0  0  0  0  0  0  0  0
  143.5660   76.5280  218.0630 C   0  0  2  0  0  0  0  0  0  0  0  0
  143.6660   76.3510  216.5630 C   0  0  0  0  0  0  0  0  0  0  0  0
  143.6200   74.8400  216.3310 C   0  0  1  0  0  0  0  0  0  0  0  0
  144.8820   74.3540  216.5740 O   0  0  0  0  0  0  0  0  0  0  0  0
  142.7210   74.4370  217.4960 C   0  0  0  0  0  0  0  0  0  0  0  0
  143.3840   75.1670  218.5790 N   0  0  0  0  0  0  0  0  0  0  0  0
  143.7740   74.6820  219.8590 C   0  0  0  0  0  0  0  0  0  0  0  0
  144.9920   74.4930  220.1360 O   0  0  0  0  0  0  0  0  0  0  0  0
  142.6960   74.4100  220.8440 C   0  0  0  0  0  0  0  0  0  0  0  0
  141.8270   75.5220  221.0520 N   0  0  0  0  0  0  0  0  0  0  0  0
  140.5440   75.3300  221.6020 C   0  0  0  0  0  0  0  0  0  0  0  0
  140.1070   74.1870  221.9320 O   0  0  0  0  0  0  0  0  0  0  0  0
  139.6750   76.5060  221.8010 C   0  0  0  0  0  0  0  0  0  0  0  0
  138.5360   76.6820  221.0430 C   0  0  0  0  0  0  0  0  0  0  0  0
  137.7110   77.7980  221.2320 C   0  0  0  0  0  0  0  0  0  0  0  0
  138.0620   78.7220  222.1980 C   0  0  0  0  0  0  0  0  0  0  0  0
  137.3210   79.8540  222.4650 C   0  0  0  0  0  0  0  0  0  0  0  0
  137.7020   80.7690  223.4460 C   0  0  0  0  0  0  0  0  0  0  0  0
  136.9640   81.8840  223.7030 F   0  0  0  0  0  0  0  0  0  0  0  0
  138.8480   80.5570  224.1860 C   0  0  0  0  0  0  0  0  0  0  0  0
  139.6070   79.4260  223.9340 C   0  0  0  0  0  0  0  0  0  0  0  0
  139.2080   78.5200  222.9440 C   0  0  0  0  0  0  0  0  0  0  0  0
  139.9750   77.4360  222.7320 N   0  0  0  0  0  0  0  0  0  0  0  0
  141.6630   80.2230  219.8010 C   0  0  0  0  0  0  0  0  0  0  0  0
  141.4750   81.5040  220.2350 C   0  0  0  0  0  0  0  0  0  0  0  0
  141.6840   81.8330  221.5670 C   0  0  0  0  0  0  0  0  0  0  0  0
  142.0840   80.8990  222.5030 C   0  0  0  0  0  0  0  0  0  0  0  0
  142.3500   81.3100  224.1910 Cl  0  0  0  0  0  0  0  0  0  0  0  0
  142.2740   79.5970  222.0570 C   0  0  0  0  0  0  0  0  0  0  0  0
  142.0630   79.2850  220.7310 C   0  0  0  0  0  0  0  0  0  0  0  0
  143.0706   81.7150  218.3739 H   0  0  0  0  0  0  0  0  0  0  0  0
  143.4311   80.8909  216.8191 H   0  0  0  0  0  0  0  0  0  0  0  0
  142.6218   82.4945  216.8191 H   0  0  0  0  0  0  0  0  0  0  0  0
  140.5056   81.5099  217.6588 H   0  0  0  0  0  0  0  0  0  0  0  0
  140.7742   79.2065  216.1111 H   0  0  0  0  0  0  0  0  0  0  0  0
  140.3873   80.8368  215.4638 H   0  0  0  0  0  0  0  0  0  0  0  0
  142.0851   80.2501  215.4638 H   0  0  0  0  0  0  0  0  0  0  0  0
  140.4835   79.2511  218.3442 H   0  0  0  0  0  0  0  0  0  0  0  0
  143.3950   79.2220  217.6810 H   0  0  0  0  0  0  0  0  0  0  0  0
  144.4520   77.0073  218.5049 H   0  0  0  0  0  0  0  0  0  0  0  0
  142.8212   76.8440  216.0597 H   0  0  0  0  0  0  0  0  0  0  0  0
  144.5844   76.8004  216.1573 H   0  0  0  0  0  0  0  0  0  0  0  0
  143.2927   74.5029  215.3364 H   0  0  0  0  0  0  0  0  0  0  0  0
  145.2130   74.5690  217.4970 H   0  0  0  0  0  0  0  0  0  0  0  0
  141.6841   74.7736  217.3493 H   0  0  0  0  0  0  0  0  0  0  0  0
  142.6203   73.3533  217.6558 H   0  0  0  0  0  0  0  0  0  0  0  0
  142.0969   73.5621  220.4805 H   0  0  0  0  0  0  0  0  0  0  0  0
  143.1820   74.1922  221.8065 H   0  0  0  0  0  0  0  0  0  0  0  0
  142.1160   76.5120  220.8030 H   0  0  0  0  0  0  0  0  0  0  0  0
  138.2720   75.9355  220.2795 H   0  0  0  0  0  0  0  0  0  0  0  0
  136.8040   77.9360  220.6251 H   0  0  0  0  0  0  0  0  0  0  0  0
  136.4034   80.0405  221.8878 H   0  0  0  0  0  0  0  0  0  0  0  0
  139.1532   81.2739  224.9624 H   0  0  0  0  0  0  0  0  0  0  0  0
  140.5240   79.2395  224.5122 H   0  0  0  0  0  0  0  0  0  0  0  0
  141.1558   82.2804  219.5241 H   0  0  0  0  0  0  0  0  0  0  0  0
  141.5257   82.8730  221.8884 H   0  0  0  0  0  0  0  0  0  0  0  0
  142.5928   78.8151  222.7620 H   0  0  0  0  0  0  0  0  0  0  0  0
  142.2196   78.2474  220.4011 H   0  0  0  0  0  0  0  0  0  0  0  0
  1  2  1  0
  2  3  1  0
  2  4  1  0
  4  5  1  0
  5  6  1  0
  6  7  2  0
  6  8  1  0
  8  9  1  0
  9 10  1  0
 10 11  1  0
 10 12  1  0
 12 13  1  0
 13 14  1  0
 14 15  2  0
 14 16  1  0
 16 17  1  0
 17 18  1  0
 18 19  2  0
 18 20  1  0
 20 21  2  0
 21 22  1  0
 22 23  2  0
 23 24  1  0
 24 25  2  0
 25 26  1  0
 25 27  1  0
 27 28  2  0
 28 29  1  0
 29 30  2  0
  4 31  1  0
 31 32  2  0
 32 33  1  0
 33 34  2  0
 34 35  1  0
 34 36  1  0
 36 37  2  0
 13  8  1  0
 30 20  1  0
 37 31  1  0
 29 23  1  0
  1 38  1  0
  1 39  1  0
  1 40  1  0
  2 41  1  0
  3 42  1  0
  3 43  1  0
  3 44  1  0
  4 45  1  1
  5 46  1  0
  8 47  1  1
  9 48  1  0
  9 49  1  0
 10 50  1  6
 11 51  1  0
 12 52  1  0
 12 53  1  0
 16 54  1  0
 16 55  1  0
 17 56  1  0
 21 57  1  0
 22 58  1  0
 24 59  1  0
 27 60  1  0
 28 61  1  0
 32 62  1  0
 33 63  1  0
 36 64  1  0
 37 65  1  0
M  END
>  <smiles>  (33) 
CC(C)C(NC(=O)[C@@H]1C[C@@H](O)CN1C(=O)CNC(=O)c1ccc2cc(F)ccc2n1)c1ccc(Cl)cc1

>  <score_type>  (33) 
oracle

>  <origin>  (33) 
autodockgpu

>  <m_score__min__energy>  (33) 
-9.3399999999999999

>  <m_primary>  (33) 
energy

>  <meeko>  (33) 
{"free_energy": -7.44, "intermolecular_energy": -10.12, "internal_energy": -4.39, "cluster_size": 6, "cluster_id": 8, "rank_in_cluster": 1}

>  <energy>  (33) 
-8.01

>  <cluster_rmsd>  (33) 
0.0

>  <rmsd>  (33) 
269.52

>  <cluster>  (33) 
6

$$$$

     RDKit          3D

 65 68  0  0  1  0  0  0  0  0999 V2000
  138.5930   76.4080  219.9750 C   0  0  0  0  0  0  0  0  0  0  0  0
  138.5440   76.8900  221.4380 C   0  0  0  0  0  0  0  0  0  0  0  0
  137.5270   75.9950  222.1320 C   0  0  0  0  0  0  0  0  0  0  0  0
  139.9060   76.6470  222.0000 C   0  0  1  0  0  0  0  0  0  0  0  0
  140.8160   76.0030  221.0410 N   0  0  0  0  0  0  0  0  0  0  0  0
  141.1410   74.6170  221.1360 C   0  0  0  0  0  0  0  0  0  0  0  0
  140.6400   73.9260  222.0610 O   0  0  0  0  0  0  0  0  0  0  0  0
  142.0680   74.0460  220.1270 C   0  0  2  0  0  0  0  0  0  0  0  0
  143.3740   73.6490  220.7830 C   0  0  0  0  0  0  0  0  0  0  0  0
  144.4590   74.3960  220.0050 C   0  0  1  0  0  0  0  0  0  0  0  0
  144.7010   73.6790  218.8580 O   0  0  0  0  0  0  0  0  0  0  0  0
  143.6770   75.6500  219.6280 C   0  0  0  0  0  0  0  0  0  0  0  0
  142.4550   75.0290  219.1100 N   0  0  0  0  0  0  0  0  0  0  0  0
  141.7770   75.3040  217.8890 C   0  0  0  0  0  0  0  0  0  0  0  0
  141.0970   74.4100  217.3110 O   0  0  0  0  0  0  0  0  0  0  0  0
  141.9040   76.6740  217.3310 C   0  0  0  0  0  0  0  0  0  0  0  0
  141.2760   77.6720  218.1350 N   0  0  0  0  0  0  0  0  0  0  0  0
  141.9860   78.8280  218.5170 C   0  0  0  0  0  0  0  0  0  0  0  0
  143.1880   79.0360  218.1740 O   0  0  0  0  0  0  0  0  0  0  0  0
  141.3020   79.8370  219.3490 C   0  0  0  0  0  0  0  0  0  0  0  0
  141.9070   81.0410  219.6440 C   0  0  0  0  0  0  0  0  0  0  0  0
  141.2590   81.9980  220.4340 C   0  0  0  0  0  0  0  0  0  0  0  0
  139.9950   81.7110  220.9140 C   0  0  0  0  0  0  0  0  0  0  0  0
  139.2700   82.5820  221.6990 C   0  0  0  0  0  0  0  0  0  0  0  0
  137.9950   82.2640  222.1690 C   0  0  0  0  0  0  0  0  0  0  0  0
  137.2860   83.1300  222.9440 F   0  0  0  0  0  0  0  0  0  0  0  0
  137.4220   81.0480  221.8520 C   0  0  0  0  0  0  0  0  0  0  0  0
  138.1340   80.1590  221.0640 C   0  0  0  0  0  0  0  0  0  0  0  0
  139.4110   80.4970  220.6030 C   0  0  0  0  0  0  0  0  0  0  0  0
  140.0670   79.6030  219.8410 N   0  0  0  0  0  0  0  0  0  0  0  0
  140.5890   77.8590  222.5060 C   0  0  0  0  0  0  0  0  0  0  0  0
  141.8440   78.2650  222.1530 C   0  0  0  0  0  0  0  0  0  0  0  0
  142.3820   79.4280  222.6830 C   0  0  0  0  0  0  0  0  0  0  0  0
  141.6890   80.2200  223.5780 C   0  0  0  0  0  0  0  0  0  0  0  0
  142.3660   81.6950  224.2530 Cl  0  0  0  0  0  0  0  0  0  0  0  0
  140.4120   79.8040  223.9350 C   0  0  0  0  0  0  0  0  0  0  0  0
  139.8900   78.6450  223.4010 C   0  0  0  0  0  0  0  0  0  0  0  0
  138.7042   75.3139  219.9530 H   0  0  0  0  0  0  0  0  0  0  0  0
  137.6613   76.6922  219.4639 H   0  0  0  0  0  0  0  0  0  0  0  0
  139.4484   76.8739  219.4639 H   0  0  0  0  0  0  0  0  0  0  0  0
  138.2695   77.9488  221.5545 H   0  0  0  0  0  0  0  0  0  0  0  0
  137.6370   76.0918  223.2222 H   0  0  0  0  0  0  0  0  0  0  0  0
  136.5112   76.2975  221.8377 H   0  0  0  0  0  0  0  0  0  0  0  0
  137.6979   74.9490  221.8377 H   0  0  0  0  0  0  0  0  0  0  0  0
  139.6986   75.9766  222.8471 H   0  0  0  0  0  0  0  0  0  0  0  0
  141.1970   76.6240  220.3000 H   0  0  0  0  0  0  0  0  0  0  0  0
  141.5309   73.1974  219.6782 H   0  0  0  0  0  0  0  0  0  0  0  0
  143.3813   73.9507  221.8408 H   0  0  0  0  0  0  0  0  0  0  0  0
  143.5296   72.5603  220.7618 H   0  0  0  0  0  0  0  0  0  0  0  0
  145.4118   74.5672  220.5274 H   0  0  0  0  0  0  0  0  0  0  0  0
  145.2800   74.1740  218.2030 H   0  0  0  0  0  0  0  0  0  0  0  0
  143.4748   76.2856  220.5028 H   0  0  0  0  0  0  0  0  0  0  0  0
  144.1892   76.3278  218.9292 H   0  0  0  0  0  0  0  0  0  0  0  0
  142.9731   76.9177  217.2440 H   0  0  0  0  0  0  0  0  0  0  0  0
  141.3973   76.6761  216.3546 H   0  0  0  0  0  0  0  0  0  0  0  0
  140.2730   77.5760  218.4650 H   0  0  0  0  0  0  0  0  0  0  0  0
  142.9132   81.2522  219.2528 H   0  0  0  0  0  0  0  0  0  0  0  0
  141.7449   82.9569  220.6675 H   0  0  0  0  0  0  0  0  0  0  0  0
  139.7091   83.5556  221.9625 H   0  0  0  0  0  0  0  0  0  0  0  0
  136.4176   80.7901  222.2190 H   0  0  0  0  0  0  0  0  0  0  0  0
  137.6948   79.1856  220.8002 H   0  0  0  0  0  0  0  0  0  0  0  0
  142.4325   77.6652  221.4431 H   0  0  0  0  0  0  0  0  0  0  0  0
  143.3954   79.7303  222.3804 H   0  0  0  0  0  0  0  0  0  0  0  0
  139.8176   80.3994  224.6437 H   0  0  0  0  0  0  0  0  0  0  0  0
  138.8778   78.3344  223.6993 H   0  0  0  0  0  0  0  0  0  0  0  0
  1  2  1  0
  2  3  1  0
  2  4  1  0
  4  5  1  0
  5  6  1  0
  6  7  2  0
  6  8  1  0
  8  9  1  0
  9 10  1  0
 10 11  1  0
 10 12  1  0
 12 13  1  0
 13 14  1  0
 14 15  2  0
 14 16  1  0
 16 17  1  0
 17 18  1  0
 18 19  2  0
 18 20  1  0
 20 21  2  0
 21 22  1  0
 22 23  2  0
 23 24  1  0
 24 25  2  0
 25 26  1  0
 25 27  1  0
 27 28  2  0
 28 29  1  0
 29 30  2  0
  4 31  1  0
 31 32  2  0
 32 33  1  0
 33 34  2  0
 34 35  1  0
 34 36  1  0
 36 37  2  0
 13  8  1  0
 30 20  1  0
 37 31  1  0
 29 23  1  0
  1 38  1  0
  1 39  1  0
  1 40  1  0
  2 41  1  0
  3 42  1  0
  3 43  1  0
  3 44  1  0
  4 45  1  1
  5 46  1  0
  8 47  1  6
  9 48  1  0
  9 49  1  0
 10 50  1  1
 11 51  1  0
 12 52  1  0
 12 53  1  0
 16 54  1  0
 16 55  1  0
 17 56  1  0
 21 57  1  0
 22 58  1  0
 24 59  1  0
 27 60  1  0
 28 61  1  0
 32 62  1  0
 33 63  1  0
 36 64  1  0
 37 65  1  0
M  END
>  <smiles>  (34) 
CC(C)C(NC(=O)[C@@H]1C[C@@H](O)CN1C(=O)CNC(=O)c1ccc2cc(F)ccc2n1)c1ccc(Cl)cc1

>  <score_type>  (34) 
oracle

>  <origin>  (34) 
autodockgpu

>  <m_score__min__energy>  (34) 
-9.3399999999999999

>  <m_primary>  (34) 
energy

>  <meeko>  (34) 
{"free_energy": -5.98, "intermolecular_energy": -8.66, "internal_energy": -5.24, "cluster_size": 6, "cluster_id": 8, "rank_in_cluster": 6}

>  <energy>  (34) 
-7.56

>  <cluster_rmsd>  (34) 
0.0

>  <rmsd>  (34) 
270.0

>  <cluster>  (34) 
7

$$$$

     RDKit          3D

 65 68  0  0  1  0  0  0  0  0999 V2000
  140.9400   80.9330  223.0660 C   0  0  0  0  0  0  0  0  0  0  0  0
  139.8460   81.0760  221.9910 C   0  0  0  0  0  0  0  0  0  0  0  0
  140.3880   80.3660  220.7570 C   0  0  0  0  0  0  0  0  0  0  0  0
  138.6520   80.3480  222.5150 C   0  0  1  0  0  0  0  0  0  0  0  0
  138.9560   78.9720  222.9310 N   0  0  0  0  0  0  0  0  0  0  0  0
  138.6160   77.8530  222.1140 C   0  0  0  0  0  0  0  0  0  0  0  0
  138.0420   78.0430  221.0100 O   0  0  0  0  0  0  0  0  0  0  0  0
  138.9590   76.4960  222.6090 C   0  0  2  0  0  0  0  0  0  0  0  0
  140.3390   76.0990  222.1290 C   0  0  0  0  0  0  0  0  0  0  0  0
  140.1420   74.7740  221.3890 C   0  0  1  0  0  0  0  0  0  0  0  0
  140.0790   73.7850  222.3400 O   0  0  0  0  0  0  0  0  0  0  0  0
  138.7370   75.0010  220.8410 C   0  0  0  0  0  0  0  0  0  0  0  0
  138.0720   75.4640  222.0610 N   0  0  0  0  0  0  0  0  0  0  0  0
  136.8350   75.0240  222.6120 C   0  0  0  0  0  0  0  0  0  0  0  0
  136.1270   75.7990  223.3140 O   0  0  0  0  0  0  0  0  0  0  0  0
  136.4210   73.6260  222.3290 C   0  0  0  0  0  0  0  0  0  0  0  0
  136.9540   72.6790  223.2550 N   0  0  0  0  0  0  0  0  0  0  0  0
  137.9900   71.8080  222.8650 C   0  0  0  0  0  0  0  0  0  0  0  0
  138.4900   71.8190  221.7010 O   0  0  0  0  0  0  0  0  0  0  0  0
  138.5140   70.8440  223.8520 C   0  0  0  0  0  0  0  0  0  0  0  0
  138.2670   69.4930  223.7230 C   0  0  0  0  0  0  0  0  0  0  0  0
  138.7630   68.5780  224.6590 C   0  0  0  0  0  0  0  0  0  0  0  0
  139.5100   69.0570  225.7190 C   0  0  0  0  0  0  0  0  0  0  0  0
  140.0460   68.2440  226.6950 C   0  0  0  0  0  0  0  0  0  0  0  0
  140.7950   68.7580  227.7530 C   0  0  0  0  0  0  0  0  0  0  0  0
  141.3200   67.9480  228.7130 F   0  0  0  0  0  0  0  0  0  0  0  0
  141.0220   70.1170  227.8470 C   0  0  0  0  0  0  0  0  0  0  0  0
  140.4930   70.9520  226.8760 C   0  0  0  0  0  0  0  0  0  0  0  0
  139.7440   70.4160  225.8230 C   0  0  0  0  0  0  0  0  0  0  0  0
  139.2480   71.2640  224.9030 N   0  0  0  0  0  0  0  0  0  0  0  0
  137.9780   81.0120  223.6540 C   0  0  0  0  0  0  0  0  0  0  0  0
  137.9640   80.5530  224.9400 C   0  0  0  0  0  0  0  0  0  0  0  0
  137.3070   81.2660  225.9330 C   0  0  0  0  0  0  0  0  0  0  0  0
  136.6480   82.4520  225.6770 C   0  0  0  0  0  0  0  0  0  0  0  0
  135.8150   83.3580  226.9310 Cl  0  0  0  0  0  0  0  0  0  0  0  0
  136.6650   82.9160  224.3670 C   0  0  0  0  0  0  0  0  0  0  0  0
  137.3200   82.1970  223.3900 C   0  0  0  0  0  0  0  0  0  0  0  0
  140.4828   80.9928  224.0647 H   0  0  0  0  0  0  0  0  0  0  0  0
  141.4428   79.9615  222.9505 H   0  0  0  0  0  0  0  0  0  0  0  0
  141.6756   81.7426  222.9505 H   0  0  0  0  0  0  0  0  0  0  0  0
  139.5809   82.1168  221.7536 H   0  0  0  0  0  0  0  0  0  0  0  0
  141.0282   79.5273  221.0681 H   0  0  0  0  0  0  0  0  0  0  0  0
  139.5497   79.9840  220.1559 H   0  0  0  0  0  0  0  0  0  0  0  0
  140.9775   81.0740  220.1559 H   0  0  0  0  0  0  0  0  0  0  0  0
  137.9723   80.3487  221.6501 H   0  0  0  0  0  0  0  0  0  0  0  0
  139.4300   78.8770  223.8510 H   0  0  0  0  0  0  0  0  0  0  0  0
  138.8779   76.5513  223.7046 H   0  0  0  0  0  0  0  0  0  0  0  0
  140.7456   76.8630  221.4501 H   0  0  0  0  0  0  0  0  0  0  0  0
  141.0513   76.0024  222.9616 H   0  0  0  0  0  0  0  0  0  0  0  0
  140.9062   74.5055  220.6447 H   0  0  0  0  0  0  0  0  0  0  0  0
  139.1520   73.6500  222.7030 H   0  0  0  0  0  0  0  0  0  0  0  0
  138.7236   75.7663  220.0510 H   0  0  0  0  0  0  0  0  0  0  0  0
  138.2755   74.1259  220.3602 H   0  0  0  0  0  0  0  0  0  0  0  0
  135.3230   73.5726  222.3685 H   0  0  0  0  0  0  0  0  0  0  0  0
  136.8141   73.3655  221.3352 H   0  0  0  0  0  0  0  0  0  0  0  0
  136.5910   72.6050  224.2490 H   0  0  0  0  0  0  0  0  0  0  0  0
  137.6717   69.1295  222.8724 H   0  0  0  0  0  0  0  0  0  0  0  0
  138.5628   67.5015  224.5534 H   0  0  0  0  0  0  0  0  0  0  0  0
  139.8780   67.1584  226.6375 H   0  0  0  0  0  0  0  0  0  0  0  0
  141.6126   70.5294  228.6783 H   0  0  0  0  0  0  0  0  0  0  0  0
  140.6621   72.0374  226.9332 H   0  0  0  0  0  0  0  0  0  0  0  0
  138.4766   79.6125  225.1904 H   0  0  0  0  0  0  0  0  0  0  0  0
  137.3114   80.8724  226.9602 H   0  0  0  0  0  0  0  0  0  0  0  0
  136.1560   83.8566  224.1098 H   0  0  0  0  0  0  0  0  0  0  0  0
  137.3184   82.5824  222.3597 H   0  0  0  0  0  0  0  0  0  0  0  0
  1  2  1  0
  2  3  1  0
  2  4  1  0
  4  5  1  0
  5  6  1  0
  6  7  2  0
  6  8  1  0
  8  9  1  0
  9 10  1  0
 10 11  1  0
 10 12  1  0
 12 13  1  0
 13 14  1  0
 14 15  2  0
 14 16  1  0
 16 17  1  0
 17 18  1  0
 18 19  2  0
 18 20  1  0
 20 21  2  0
 21 22  1  0
 22 23  2  0
 23 24  1  0
 24 25  2  0
 25 26  1  0
 25 27  1  0
 27 28  2  0
 28 29  1  0
 29 30  2  0
  4 31  1  0
 31 32  2  0
 32 33  1  0
 33 34  2  0
 34 35  1  0
 34 36  1  0
 36 37  2  0
 13  8  1  0
 30 20  1  0
 37 31  1  0
 29 23  1  0
  1 38  1  0
  1 39  1  0
  1 40  1  0
  2 41  1  0
  3 42  1  0
  3 43  1  0
  3 44  1  0
  4 45  1  6
  5 46  1  0
  8 47  1  1
  9 48  1  0
  9 49  1  0
 10 50  1  6
 11 51  1  0
 12 52  1  0
 12 53  1  0
 16 54  1  0
 16 55  1  0
 17 56  1  0
 21 57  1  0
 22 58  1  0
 24 59  1  0
 27 60  1  0
 28 61  1  0
 32 62  1  0
 33 63  1  0
 36 64  1  0
 37 65  1  0
M  END
>  <smiles>  (35) 
CC(C)C(NC(=O)[C@@H]1C[C@@H](O)CN1C(=O)CNC(=O)c1ccc2cc(F)ccc2n1)c1ccc(Cl)cc1

>  <score_type>  (35) 
oracle

>  <origin>  (35) 
autodockgpu

>  <m_score__min__energy>  (35) 
-9.3399999999999999

>  <m_primary>  (35) 
energy

>  <meeko>  (35) 
{"free_energy": -8.46, "intermolecular_energy": -11.14, "internal_energy": -2.78, "cluster_size": 1, "cluster_id": 3, "rank_in_cluster": 1}

>  <energy>  (35) 
-7.44

>  <cluster_rmsd>  (35) 
0.0

>  <rmsd>  (35) 
270.05

>  <cluster>  (35) 
8

$$$$

     RDKit          3D

 65 68  0  0  1  0  0  0  0  0999 V2000
  137.6850   71.3410  221.1840 C   0  0  0  0  0  0  0  0  0  0  0  0
  138.4860   70.4840  222.1820 C   0  0  0  0  0  0  0  0  0  0  0  0
  139.8610   70.2980  221.5530 C   0  0  0  0  0  0  0  0  0  0  0  0
  138.6020   71.2980  223.4280 C   0  0  1  0  0  0  0  0  0  0  0  0
  137.3230   71.8870  223.8500 N   0  0  0  0  0  0  0  0  0  0  0  0
  136.1950   71.0720  224.1670 C   0  0  0  0  0  0  0  0  0  0  0  0
  136.2940   69.8200  224.0850 O   0  0  0  0  0  0  0  0  0  0  0  0
  134.9410   71.7460  224.5850 C   0  0  2  0  0  0  0  0  0  0  0  0
  133.7530   70.8410  224.3350 C   0  0  0  0  0  0  0  0  0  0  0  0
  132.8070   71.6530  223.4490 C   0  0  1  0  0  0  0  0  0  0  0  0
  132.1120   72.5050  224.2720 O   0  0  0  0  0  0  0  0  0  0  0  0
  133.8340   72.4710  222.6720 C   0  0  0  0  0  0  0  0  0  0  0  0
  134.6610   72.9430  223.7860 N   0  0  0  0  0  0  0  0  0  0  0  0
  135.1060   74.2690  224.0520 C   0  0  0  0  0  0  0  0  0  0  0  0
  135.4470   74.6150  225.2180 O   0  0  0  0  0  0  0  0  0  0  0  0
  135.1510   75.2170  222.9090 C   0  0  0  0  0  0  0  0  0  0  0  0
  136.3040   76.0580  222.9180 N   0  0  0  0  0  0  0  0  0  0  0  0
  137.5710   75.5320  222.5970 C   0  0  0  0  0  0  0  0  0  0  0  0
  137.7480   74.3150  222.2930 O   0  0  0  0  0  0  0  0  0  0  0  0
  138.7390   76.4340  222.6180 C   0  0  0  0  0  0  0  0  0  0  0  0
  139.9750   76.0030  222.1840 C   0  0  0  0  0  0  0  0  0  0  0  0
  141.0830   76.8580  222.2040 C   0  0  0  0  0  0  0  0  0  0  0  0
  140.9130   78.1490  222.6680 C   0  0  0  0  0  0  0  0  0  0  0  0
  141.9360   79.0710  222.7290 C   0  0  0  0  0  0  0  0  0  0  0  0
  141.7320   80.3670  223.2030 C   0  0  0  0  0  0  0  0  0  0  0  0
  142.7490   81.2720  223.2600 F   0  0  0  0  0  0  0  0  0  0  0  0
  140.4790   80.7630  223.6280 C   0  0  0  0  0  0  0  0  0  0  0  0
  139.4370   79.8510  223.5740 C   0  0  0  0  0  0  0  0  0  0  0  0
  139.6630   78.5550  223.0960 C   0  0  0  0  0  0  0  0  0  0  0  0
  138.6220   77.7030  223.0620 N   0  0  0  0  0  0  0  0  0  0  0  0
  139.1540   70.5680  224.5920 C   0  0  0  0  0  0  0  0  0  0  0  0
  138.9470   69.2460  224.8650 C   0  0  0  0  0  0  0  0  0  0  0  0
  139.5250   68.6600  225.9830 C   0  0  0  0  0  0  0  0  0  0  0  0
  140.3220   69.3710  226.8580 C   0  0  0  0  0  0  0  0  0  0  0  0
  141.0560   68.6340  228.2750 Cl  0  0  0  0  0  0  0  0  0  0  0  0
  140.5310   70.7150  226.5770 C   0  0  0  0  0  0  0  0  0  0  0  0
  139.9500   71.2840  225.4630 C   0  0  0  0  0  0  0  0  0  0  0  0
  137.0354   72.0360  221.7363 H   0  0  0  0  0  0  0  0  0  0  0  0
  138.3799   71.9128  220.5515 H   0  0  0  0  0  0  0  0  0  0  0  0
  137.0676   70.6863  220.5515 H   0  0  0  0  0  0  0  0  0  0  0  0
  138.0282   69.5094  222.4071 H   0  0  0  0  0  0  0  0  0  0  0  0
  140.6163   70.1958  222.3462 H   0  0  0  0  0  0  0  0  0  0  0  0
  139.8594   69.3919  220.9293 H   0  0  0  0  0  0  0  0  0  0  0  0
  140.1002   71.1720  220.9293 H   0  0  0  0  0  0  0  0  0  0  0  0
  139.3118   72.0851  223.1335 H   0  0  0  0  0  0  0  0  0  0  0  0
  137.3020   72.9240  223.8990 H   0  0  0  0  0  0  0  0  0  0  0  0
  135.0805   71.9981  225.6466 H   0  0  0  0  0  0  0  0  0  0  0  0
  134.0701   69.9223  223.8198 H   0  0  0  0  0  0  0  0  0  0  0  0
  133.2702   70.5292  225.2729 H   0  0  0  0  0  0  0  0  0  0  0  0
  132.0909   71.0828  222.8390 H   0  0  0  0  0  0  0  0  0  0  0  0
  132.6580   73.2930  224.5700 H   0  0  0  0  0  0  0  0  0  0  0  0
  134.4081   71.8485  221.9699 H   0  0  0  0  0  0  0  0  0  0  0  0
  133.4153   73.2617  222.0321 H   0  0  0  0  0  0  0  0  0  0  0  0
  135.1491   74.6372  221.9742 H   0  0  0  0  0  0  0  0  0  0  0  0
  134.2703   75.8707  222.9931 H   0  0  0  0  0  0  0  0  0  0  0  0
  136.2430   77.0880  223.1620 H   0  0  0  0  0  0  0  0  0  0  0  0
  140.0918   74.9727  221.8169 H   0  0  0  0  0  0  0  0  0  0  0  0
  142.0676   76.5102  221.8580 H   0  0  0  0  0  0  0  0  0  0  0  0
  142.9416   78.7764  222.3944 H   0  0  0  0  0  0  0  0  0  0  0  0
  140.3112   81.7836  224.0025 H   0  0  0  0  0  0  0  0  0  0  0  0
  138.4310   80.1459  223.9072 H   0  0  0  0  0  0  0  0  0  0  0  0
  138.3182   68.6416  224.1947 H   0  0  0  0  0  0  0  0  0  0  0  0
  139.3418   67.5931  226.1783 H   0  0  0  0  0  0  0  0  0  0  0  0
  141.1594   71.3252  227.2424 H   0  0  0  0  0  0  0  0  0  0  0  0
  140.1280   72.3505  225.2608 H   0  0  0  0  0  0  0  0  0  0  0  0
  1  2  1  0
  2  3  1  0
  2  4  1  0
  4  5  1  0
  5  6  1  0
  6  7  2  0
  6  8  1  0
  8  9  1  0
  9 10  1  0
 10 11  1  0
 10 12  1  0
 12 13  1  0
 13 14  1  0
 14 15  2  0
 14 16  1  0
 16 17  1  0
 17 18  1  0
 18 19  2  0
 18 20  1  0
 20 21  2  0
 21 22  1  0
 22 23  2  0
 23 24  1  0
 24 25  2  0
 25 26  1  0
 25 27  1  0
 27 28  2  0
 28 29  1  0
 29 30  2  0
  4 31  1  0
 31 32  2  0
 32 33  1  0
 33 34  2  0
 34 35  1  0
 34 36  1  0
 36 37  2  0
 13  8  1  0
 30 20  1  0
 37 31  1  0
 29 23  1  0
  1 38  1  0
  1 39  1  0
  1 40  1  0
  2 41  1  0
  3 42  1  0
  3 43  1  0
  3 44  1  0
  4 45  1  6
  5 46  1  0
  8 47  1  1
  9 48  1  0
  9 49  1  0
 10 50  1  6
 11 51  1  0
 12 52  1  0
 12 53  1  0
 16 54  1  0
 16 55  1  0
 17 56  1  0
 21 57  1  0
 22 58  1  0
 24 59  1  0
 27 60  1  0
 28 61  1  0
 32 62  1  0
 33 63  1  0
 36 64  1  0
 37 65  1  0
M  END
>  <smiles>  (36) 
CC(C)C(NC(=O)[C@@H]1C[C@@H](O)CN1C(=O)CNC(=O)c1ccc2cc(F)ccc2n1)c1ccc(Cl)cc1

>  <score_type>  (36) 
oracle

>  <origin>  (36) 
autodockgpu

>  <m_score__min__energy>  (36) 
-9.3399999999999999

>  <m_primary>  (36) 
energy

>  <meeko>  (36) 
{"free_energy": -7.35, "intermolecular_energy": -10.04, "internal_energy": -3.73, "cluster_size": 2, "cluster_id": 4, "rank_in_cluster": 2}

>  <energy>  (36) 
-6.39

>  <cluster_rmsd>  (36) 
1.75

>  <rmsd>  (36) 
270.1

>  <cluster>  (36) 
8

$$$$

     RDKit          3D

 65 68  0  0  1  0  0  0  0  0999 V2000
  141.8330   78.7050  223.9550 C   0  0  0  0  0  0  0  0  0  0  0  0
  141.3260   79.6820  222.8770 C   0  0  0  0  0  0  0  0  0  0  0  0
  142.5650   80.3990  222.3580 C   0  0  0  0  0  0  0  0  0  0  0  0
  140.7360   78.8370  221.7960 C   0  0  1  0  0  0  0  0  0  0  0  0
  141.6830   77.8490  221.2590 N   0  0  0  0  0  0  0  0  0  0  0  0
  141.9130   77.7230  219.8560 C   0  0  0  0  0  0  0  0  0  0  0  0
  141.2950   78.4740  219.0570 O   0  0  0  0  0  0  0  0  0  0  0  0
  142.8860   76.7010  219.3970 C   0  0  2  0  0  0  0  0  0  0  0  0
  143.3120   76.9890  217.9730 C   0  0  0  0  0  0  0  0  0  0  0  0
  143.0020   75.7100  217.1930 C   0  0  1  0  0  0  0  0  0  0  0  0
  144.0300   74.8310  217.4290 O   0  0  0  0  0  0  0  0  0  0  0  0
  141.7790   75.2340  217.9710 C   0  0  0  0  0  0  0  0  0  0  0  0
  142.2950   75.3600  219.3360 N   0  0  0  0  0  0  0  0  0  0  0  0
  142.2450   74.4030  220.3880 C   0  0  0  0  0  0  0  0  0  0  0  0
  143.3060   73.9270  220.8830 O   0  0  0  0  0  0  0  0  0  0  0  0
  140.9020   73.9910  220.8740 C   0  0  0  0  0  0  0  0  0  0  0  0
  140.9530   73.0360  221.9330 N   0  0  0  0  0  0  0  0  0  0  0  0
  139.7630   72.5160  222.4800 C   0  0  0  0  0  0  0  0  0  0  0  0
  138.6150   72.8610  222.0700 O   0  0  0  0  0  0  0  0  0  0  0  0
  139.8580   71.5300  223.5740 C   0  0  0  0  0  0  0  0  0  0  0  0
  139.4560   70.2240  223.3880 C   0  0  0  0  0  0  0  0  0  0  0  0
  139.5450   69.2890  224.4260 C   0  0  0  0  0  0  0  0  0  0  0  0
  140.0460   69.7020  225.6460 C   0  0  0  0  0  0  0  0  0  0  0  0
  140.1760   68.8630  226.7320 C   0  0  0  0  0  0  0  0  0  0  0  0
  140.6850   69.3110  227.9520 C   0  0  0  0  0  0  0  0  0  0  0  0
  140.8100   68.4760  229.0200 F   0  0  0  0  0  0  0  0  0  0  0  0
  141.0780   70.6270  228.1000 C   0  0  0  0  0  0  0  0  0  0  0  0
  140.9550   71.4860  227.0190 C   0  0  0  0  0  0  0  0  0  0  0  0
  140.4420   71.0170  225.8050 C   0  0  0  0  0  0  0  0  0  0  0  0
  140.3400   71.8860  224.7830 N   0  0  0  0  0  0  0  0  0  0  0  0
  139.5120   78.1020  222.1900 C   0  0  0  0  0  0  0  0  0  0  0  0
  138.2910   78.6680  222.4190 C   0  0  0  0  0  0  0  0  0  0  0  0
  137.2050   77.8790  222.7740 C   0  0  0  0  0  0  0  0  0  0  0  0
  137.3040   76.5080  222.9080 C   0  0  0  0  0  0  0  0  0  0  0  0
  135.9330   75.5030  223.3560 Cl  0  0  0  0  0  0  0  0  0  0  0  0
  138.5480   75.9360  222.6740 C   0  0  0  0  0  0  0  0  0  0  0  0
  139.6180   76.7320  222.3230 C   0  0  0  0  0  0  0  0  0  0  0  0
  141.6194   79.1166  224.9525 H   0  0  0  0  0  0  0  0  0  0  0  0
  141.3236   77.7367  223.8411 H   0  0  0  0  0  0  0  0  0  0  0  0
  142.9180   78.5641  223.8411 H   0  0  0  0  0  0  0  0  0  0  0  0
  140.5825   80.4069  223.2399 H   0  0  0  0  0  0  0  0  0  0  0  0
  143.1693   80.7487  223.2080 H   0  0  0  0  0  0  0  0  0  0  0  0
  143.1602   79.7058  221.7455 H   0  0  0  0  0  0  0  0  0  0  0  0
  142.2605   81.2605  221.7455 H   0  0  0  0  0  0  0  0  0  0  0  0
  140.4740   79.5788  221.0271 H   0  0  0  0  0  0  0  0  0  0  0  0
  142.1640   77.2590  221.9660 H   0  0  0  0  0  0  0  0  0  0  0  0
  143.7172   76.7388  220.1165 H   0  0  0  0  0  0  0  0  0  0  0  0
  142.7428   77.8370  217.5645 H   0  0  0  0  0  0  0  0  0  0  0  0
  144.3761   77.2603  217.9100 H   0  0  0  0  0  0  0  0  0  0  0  0
  142.8655   75.8159  216.1066 H   0  0  0  0  0  0  0  0  0  0  0  0
  144.8710   75.2860  217.7350 H   0  0  0  0  0  0  0  0  0  0  0  0
  140.9068   75.8823  217.8008 H   0  0  0  0  0  0  0  0  0  0  0  0
  141.4129   74.2327  217.7000 H   0  0  0  0  0  0  0  0  0  0  0  0
  140.3722   74.8848  221.2352 H   0  0  0  0  0  0  0  0  0  0  0  0
  140.3826   73.5138  220.0299 H   0  0  0  0  0  0  0  0  0  0  0  0
  141.8730   72.6940  222.3340 H   0  0  0  0  0  0  0  0  0  0  0  0
  139.0598   69.9126  222.4102 H   0  0  0  0  0  0  0  0  0  0  0  0
  139.2232   68.2482  224.2739 H   0  0  0  0  0  0  0  0  0  0  0  0
  139.8700   67.8109  226.6344 H   0  0  0  0  0  0  0  0  0  0  0  0
  141.4812   70.9867  229.0582 H   0  0  0  0  0  0  0  0  0  0  0  0
  141.2613   72.5381  227.1159 H   0  0  0  0  0  0  0  0  0  0  0  0
  138.1667   79.7566  222.3216 H   0  0  0  0  0  0  0  0  0  0  0  0
  136.2334   78.3620  222.9545 H   0  0  0  0  0  0  0  0  0  0  0  0
  138.6796   74.8480  222.7687 H   0  0  0  0  0  0  0  0  0  0  0  0
  140.5935   76.2570  222.1420 H   0  0  0  0  0  0  0  0  0  0  0  0
  1  2  1  0
  2  3  1  0
  2  4  1  0
  4  5  1  0
  5  6  1  0
  6  7  2  0
  6  8  1  0
  8  9  1  0
  9 10  1  0
 10 11  1  0
 10 12  1  0
 12 13  1  0
 13 14  1  0
 14 15  2  0
 14 16  1  0
 16 17  1  0
 17 18  1  0
 18 19  2  0
 18 20  1  0
 20 21  2  0
 21 22  1  0
 22 23  2  0
 23 24  1  0
 24 25  2  0
 25 26  1  0
 25 27  1  0
 27 28  2  0
 28 29  1  0
 29 30  2  0
  4 31  1  0
 31 32  2  0
 32 33  1  0
 33 34  2  0
 34 35  1  0
 34 36  1  0
 36 37  2  0
 13  8  1  0
 30 20  1  0
 37 31  1  0
 29 23  1  0
  1 38  1  0
  1 39  1  0
  1 40  1  0
  2 41  1  0
  3 42  1  0
  3 43  1  0
  3 44  1  0
  4 45  1  6
  5 46  1  0
  8 47  1  1
  9 48  1  0
  9 49  1  0
 10 50  1  6
 11 51  1  0
 12 52  1  0
 12 53  1  0
 16 54  1  0
 16 55  1  0
 17 56  1  0
 21 57  1  0
 22 58  1  0
 24 59  1  0
 27 60  1  0
 28 61  1  0
 32 62  1  0
 33 63  1  0
 36 64  1  0
 37 65  1  0
M  END
>  <smiles>  (37) 
CC(C)C(NC(=O)[C@@H]1C[C@@H](O)CN1C(=O)CNC(=O)c1ccc2cc(F)ccc2n1)c1ccc(Cl)cc1

>  <score_type>  (37) 
oracle

>  <origin>  (37) 
autodockgpu

>  <m_score__min__energy>  (37) 
-9.3399999999999999

>  <m_primary>  (37) 
energy

>  <meeko>  (37) 
{"free_energy": -9.23, "intermolecular_energy": -11.92, "internal_energy": -2.96, "cluster_size": 5, "cluster_id": 1, "rank_in_cluster": 2}

>  <energy>  (37) 
-6.19

>  <cluster_rmsd>  (37) 
1.8

>  <rmsd>  (37) 
269.94

>  <cluster>  (37) 
8

$$$$

     RDKit          3D

 65 68  0  0  1  0  0  0  0  0999 V2000
  141.7350   78.6470  224.1860 C   0  0  0  0  0  0  0  0  0  0  0  0
  141.7430   79.9150  223.3110 C   0  0  0  0  0  0  0  0  0  0  0  0
  142.8720   80.7810  223.8550 C   0  0  0  0  0  0  0  0  0  0  0  0
  142.0700   79.4610  221.9270 C   0  0  1  0  0  0  0  0  0  0  0  0
  141.2950   78.2830  221.5110 N   0  0  0  0  0  0  0  0  0  0  0  0
  139.9000   78.3710  221.2250 C   0  0  0  0  0  0  0  0  0  0  0  0
  139.3150   79.4800  221.3300 O   0  0  0  0  0  0  0  0  0  0  0  0
  139.1920   77.1340  220.8120 C   0  0  2  0  0  0  0  0  0  0  0  0
  137.6980   77.3010  220.9950 C   0  0  0  0  0  0  0  0  0  0  0  0
  137.2700   76.1420  221.8960 C   0  0  1  0  0  0  0  0  0  0  0  0
  137.1490   75.0300  221.0980 O   0  0  0  0  0  0  0  0  0  0  0  0
  138.5380   75.9940  222.7310 C   0  0  0  0  0  0  0  0  0  0  0  0
  139.5360   75.9870  221.6590 N   0  0  0  0  0  0  0  0  0  0  0  0
  140.6120   75.0760  221.4630 C   0  0  0  0  0  0  0  0  0  0  0  0
  141.8100   75.4470  221.6150 O   0  0  0  0  0  0  0  0  0  0  0  0
  140.2670   73.6840  221.0760 C   0  0  0  0  0  0  0  0  0  0  0  0
  140.3130   72.7660  222.1670 N   0  0  0  0  0  0  0  0  0  0  0  0
  139.1670   72.0280  222.5260 C   0  0  0  0  0  0  0  0  0  0  0  0
  138.0640   72.1390  221.9120 O   0  0  0  0  0  0  0  0  0  0  0  0
  139.2550   71.0890  223.6600 C   0  0  0  0  0  0  0  0  0  0  0  0
  138.5550   69.9010  223.6530 C   0  0  0  0  0  0  0  0  0  0  0  0
  138.6380   69.0100  224.7300 C   0  0  0  0  0  0  0  0  0  0  0  0
  139.4380   69.3460  225.8050 C   0  0  0  0  0  0  0  0  0  0  0  0
  139.5910   68.5420  226.9140 C   0  0  0  0  0  0  0  0  0  0  0  0
  140.4070   68.9090  227.9840 C   0  0  0  0  0  0  0  0  0  0  0  0
  140.5510   68.1090  229.0760 F   0  0  0  0  0  0  0  0  0  0  0  0
  141.0930   70.1070  227.9550 C   0  0  0  0  0  0  0  0  0  0  0  0
  140.9540   70.9300  226.8490 C   0  0  0  0  0  0  0  0  0  0  0  0
  140.1300   70.5430  225.7860 C   0  0  0  0  0  0  0  0  0  0  0  0
  140.0240   71.3730  224.7330 N   0  0  0  0  0  0  0  0  0  0  0  0
  141.8900   80.4950  220.8820 C   0  0  0  0  0  0  0  0  0  0  0  0
  141.4540   81.7700  221.0990 C   0  0  0  0  0  0  0  0  0  0  0  0
  141.3340   82.6620  220.0430 C   0  0  0  0  0  0  0  0  0  0  0  0
  141.6430   82.3110  218.7430 C   0  0  0  0  0  0  0  0  0  0  0  0
  141.4920   83.4360  217.4010 Cl  0  0  0  0  0  0  0  0  0  0  0  0
  142.0870   81.0120  218.5260 C   0  0  0  0  0  0  0  0  0  0  0  0
  142.2010   80.1370  219.5850 C   0  0  0  0  0  0  0  0  0  0  0  0
  141.7368   78.9342  225.2478 H   0  0  0  0  0  0  0  0  0  0  0  0
  140.8331   78.0564  223.9675 H   0  0  0  0  0  0  0  0  0  0  0  0
  142.6294   78.0451  223.9675 H   0  0  0  0  0  0  0  0  0  0  0  0
  140.7935   80.4704  223.3130 H   0  0  0  0  0  0  0  0  0  0  0  0
  142.8499   80.7640  224.9546 H   0  0  0  0  0  0  0  0  0  0  0  0
  143.8373   80.3895  223.5016 H   0  0  0  0  0  0  0  0  0  0  0  0
  142.7440   81.8148  223.5016 H   0  0  0  0  0  0  0  0  0  0  0  0
  143.1391   79.2134  222.0027 H   0  0  0  0  0  0  0  0  0  0  0  0
  141.8310   77.3960  221.4430 H   0  0  0  0  0  0  0  0  0  0  0  0
  139.4863   76.9607  219.7664 H   0  0  0  0  0  0  0  0  0  0  0  0
  137.4740   78.2651  221.4748 H   0  0  0  0  0  0  0  0  0  0  0  0
  137.1635   77.2922  220.0336 H   0  0  0  0  0  0  0  0  0  0  0  0
  136.3375   76.2772  222.4635 H   0  0  0  0  0  0  0  0  0  0  0  0
  137.5010   74.1970  221.5330 H   0  0  0  0  0  0  0  0  0  0  0  0
  138.6788   76.8425  223.4168 H   0  0  0  0  0  0  0  0  0  0  0  0
  138.5602   75.1182  223.3962 H   0  0  0  0  0  0  0  0  0  0  0  0
  139.2490   73.6798  220.6592 H   0  0  0  0  0  0  0  0  0  0  0  0
  141.0174   73.3549  220.3421 H   0  0  0  0  0  0  0  0  0  0  0  0
  141.1970   72.6140  222.7330 H   0  0  0  0  0  0  0  0  0  0  0  0
  137.9223   69.6497  222.7890 H   0  0  0  0  0  0  0  0  0  0  0  0
  138.0784   68.0631  224.7203 H   0  0  0  0  0  0  0  0  0  0  0  0
  139.0539   67.5830  226.9565 H   0  0  0  0  0  0  0  0  0  0  0  0
  141.7385   70.4028  228.7952 H   0  0  0  0  0  0  0  0  0  0  0  0
  141.4919   71.8886  226.8064 H   0  0  0  0  0  0  0  0  0  0  0  0
  141.1959   82.0927  222.1184 H   0  0  0  0  0  0  0  0  0  0  0  0
  140.9808   83.6834  220.2479 H   0  0  0  0  0  0  0  0  0  0  0  0
  142.3474   80.6822  217.5094 H   0  0  0  0  0  0  0  0  0  0  0  0
  142.5535   79.1135  219.3893 H   0  0  0  0  0  0  0  0  0  0  0  0
  1  2  1  0
  2  3  1  0
  2  4  1  0
  4  5  1  0
  5  6  1  0
  6  7  2  0
  6  8  1  0
  8  9  1  0
  9 10  1  0
 10 11  1  0
 10 12  1  0
 12 13  1  0
 13 14  1  0
 14 15  2  0
 14 16  1  0
 16 17  1  0
 17 18  1  0
 18 19  2  0
 18 20  1  0
 20 21  2  0
 21 22  1  0
 22 23  2  0
 23 24  1  0
 24 25  2  0
 25 26  1  0
 25 27  1  0
 27 28  2  0
 28 29  1  0
 29 30  2  0
  4 31  1  0
 31 32  2  0
 32 33  1  0
 33 34  2  0
 34 35  1  0
 34 36  1  0
 36 37  2  0
 13  8  1  0
 30 20  1  0
 37 31  1  0
 29 23  1  0
  1 38  1  0
  1 39  1  0
  1 40  1  0
  2 41  1  0
  3 42  1  0
  3 43  1  0
  3 44  1  0
  4 45  1  1
  5 46  1  0
  8 47  1  6
  9 48  1  0
  9 49  1  0
 10 50  1  1
 11 51  1  0
 12 52  1  0
 12 53  1  0
 16 54  1  0
 16 55  1  0
 17 56  1  0
 21 57  1  0
 22 58  1  0
 24 59  1  0
 27 60  1  0
 28 61  1  0
 32 62  1  0
 33 63  1  0
 36 64  1  0
 37 65  1  0
M  END
>  <smiles>  (38) 
CC(C)C(NC(=O)[C@@H]1C[C@@H](O)CN1C(=O)CNC(=O)c1ccc2cc(F)ccc2n1)c1ccc(Cl)cc1

>  <score_type>  (38) 
oracle

>  <origin>  (38) 
autodockgpu

>  <m_score__min__energy>  (38) 
-9.3399999999999999

>  <m_primary>  (38) 
energy

>  <meeko>  (38) 
{"free_energy": -8.14, "intermolecular_energy": -10.82, "internal_energy": -3.79, "cluster_size": 1, "cluster_id": 5, "rank_in_cluster": 1}

>  <energy>  (38) 
-6.17

>  <cluster_rmsd>  (38) 
1.93

>  <rmsd>  (38) 
270.06

>  <cluster>  (38) 
8

$$$$

     RDKit          3D

 65 68  0  0  1  0  0  0  0  0999 V2000
  144.3120   74.8620  220.1780 C   0  0  0  0  0  0  0  0  0  0  0  0
  145.1430   73.5750  220.0170 C   0  0  0  0  0  0  0  0  0  0  0  0
  146.3540   73.7520  220.9230 C   0  0  0  0  0  0  0  0  0  0  0  0
  144.2860   72.4620  220.5240 C   0  0  1  0  0  0  0  0  0  0  0  0
  142.8510   72.7040  220.3160 N   0  0  0  0  0  0  0  0  0  0  0  0
  142.3010   72.8510  219.0070 C   0  0  0  0  0  0  0  0  0  0  0  0
  143.0580   72.7730  218.0050 O   0  0  0  0  0  0  0  0  0  0  0  0
  140.8410   73.0920  218.8860 C   0  0  2  0  0  0  0  0  0  0  0  0
  140.4990   73.5180  217.4730 C   0  0  0  0  0  0  0  0  0  0  0  0
  139.7730   74.8560  217.6200 C   0  0  1  0  0  0  0  0  0  0  0  0
  138.4710   74.5760  217.9590 O   0  0  0  0  0  0  0  0  0  0  0  0
  140.4840   75.3900  218.8590 C   0  0  0  0  0  0  0  0  0  0  0  0
  140.3910   74.2100  219.7210 N   0  0  0  0  0  0  0  0  0  0  0  0
  139.9610   74.1400  221.0770 C   0  0  0  0  0  0  0  0  0  0  0  0
  140.6520   74.6520  222.0030 O   0  0  0  0  0  0  0  0  0  0  0  0
  138.6770   73.4460  221.3510 C   0  0  0  0  0  0  0  0  0  0  0  0
  138.7350   72.5760  222.4810 N   0  0  0  0  0  0  0  0  0  0  0  0
  139.7460   71.5990  222.5760 C   0  0  0  0  0  0  0  0  0  0  0  0
  140.6340   71.4470  221.6850 O   0  0  0  0  0  0  0  0  0  0  0  0
  139.7720   70.7190  223.7600 C   0  0  0  0  0  0  0  0  0  0  0  0
  139.2190   69.4560  223.7170 C   0  0  0  0  0  0  0  0  0  0  0  0
  139.2430   68.6210  224.8400 C   0  0  0  0  0  0  0  0  0  0  0  0
  139.8350   69.0880  225.9970 C   0  0  0  0  0  0  0  0  0  0  0  0
  139.9140   68.3490  227.1580 C   0  0  0  0  0  0  0  0  0  0  0  0
  140.5180   68.8490  228.3120 C   0  0  0  0  0  0  0  0  0  0  0  0
  140.5910   68.1110  229.4540 F   0  0  0  0  0  0  0  0  0  0  0  0
  141.0620   70.1190  228.3160 C   0  0  0  0  0  0  0  0  0  0  0  0
  140.9940   70.8790  227.1590 C   0  0  0  0  0  0  0  0  0  0  0  0
  140.3830   70.3580  226.0130 C   0  0  0  0  0  0  0  0  0  0  0  0
  140.3390   71.1310  224.9130 N   0  0  0  0  0  0  0  0  0  0  0  0
  144.5950   71.1350  219.9450 C   0  0  0  0  0  0  0  0  0  0  0  0
  145.7510   70.8060  219.2960 C   0  0  0  0  0  0  0  0  0  0  0  0
  145.9390   69.5230  218.8020 C   0  0  0  0  0  0  0  0  0  0  0  0
  144.9860   68.5330  218.9400 C   0  0  0  0  0  0  0  0  0  0  0  0
  145.2190   66.9060  218.3170 Cl  0  0  0  0  0  0  0  0  0  0  0  0
  143.8120   68.8710  219.6010 C   0  0  0  0  0  0  0  0  0  0  0  0
  143.6380   70.1500  220.0860 C   0  0  0  0  0  0  0  0  0  0  0  0
  144.1730   75.0773  221.2477 H   0  0  0  0  0  0  0  0  0  0  0  0
  144.8393   75.7011  219.7006 H   0  0  0  0  0  0  0  0  0  0  0  0
  143.3303   74.7267  219.7006 H   0  0  0  0  0  0  0  0  0  0  0  0
  145.4593   73.3697  218.9837 H   0  0  0  0  0  0  0  0  0  0  0  0
  146.0350   73.7054  221.9747 H   0  0  0  0  0  0  0  0  0  0  0  0
  147.0808   72.9505  220.7244 H   0  0  0  0  0  0  0  0  0  0  0  0
  146.8210   74.7279  220.7244 H   0  0  0  0  0  0  0  0  0  0  0  0
  144.5243   72.4453  221.5977 H   0  0  0  0  0  0  0  0  0  0  0  0
  142.2760   72.7580  221.1800 H   0  0  0  0  0  0  0  0  0  0  0  0
  140.3593   72.1500  219.1871 H   0  0  0  0  0  0  0  0  0  0  0  0
  141.4142   73.6398  216.8750 H   0  0  0  0  0  0  0  0  0  0  0  0
  139.8794   72.7695  216.9574 H   0  0  0  0  0  0  0  0  0  0  0  0
  139.7789   75.5196  216.7427 H   0  0  0  0  0  0  0  0  0  0  0  0
  138.2500   74.8310  218.9050 H   0  0  0  0  0  0  0  0  0  0  0  0
  141.5287   75.6616  218.6471 H   0  0  0  0  0  0  0  0  0  0  0  0
  140.0580   76.3121  219.2813 H   0  0  0  0  0  0  0  0  0  0  0  0
  137.9021   74.2050  221.5342 H   0  0  0  0  0  0  0  0  0  0  0  0
  138.4490   72.8242  220.4727 H   0  0  0  0  0  0  0  0  0  0  0  0
  138.0300   72.6380  223.2710 H   0  0  0  0  0  0  0  0  0  0  0  0
  138.7524   69.1000  222.7867 H   0  0  0  0  0  0  0  0  0  0  0  0
  138.8000   67.6149  224.8019 H   0  0  0  0  0  0  0  0  0  0  0  0
  139.4881   67.3349  227.1751 H   0  0  0  0  0  0  0  0  0  0  0  0
  141.5407   70.5199  229.2216 H   0  0  0  0  0  0  0  0  0  0  0  0
  141.4208   71.8927  227.1416 H   0  0  0  0  0  0  0  0  0  0  0  0
  146.5381   71.5631  219.1641 H   0  0  0  0  0  0  0  0  0  0  0  0
  146.8793   69.2863  218.2826 H   0  0  0  0  0  0  0  0  0  0  0  0
  143.0213   68.1186  219.7375 H   0  0  0  0  0  0  0  0  0  0  0  0
  142.6999   70.3951  220.6056 H   0  0  0  0  0  0  0  0  0  0  0  0
  1  2  1  0
  2  3  1  0
  2  4  1  0
  4  5  1  0
  5  6  1  0
  6  7  2  0
  6  8  1  0
  8  9  1  0
  9 10  1  0
 10 11  1  0
 10 12  1  0
 12 13  1  0
 13 14  1  0
 14 15  2  0
 14 16  1  0
 16 17  1  0
 17 18  1  0
 18 19  2  0
 18 20  1  0
 20 21  2  0
 21 22  1  0
 22 23  2  0
 23 24  1  0
 24 25  2  0
 25 26  1  0
 25 27  1  0
 27 28  2  0
 28 29  1  0
 29 30  2  0
  4 31  1  0
 31 32  2  0
 32 33  1  0
 33 34  2  0
 34 35  1  0
 34 36  1  0
 36 37  2  0
 13  8  1  0
 30 20  1  0
 37 31  1  0
 29 23  1  0
  1 38  1  0
  1 39  1  0
  1 40  1  0
  2 41  1  0
  3 42  1  0
  3 43  1  0
  3 44  1  0
  4 45  1  1
  5 46  1  0
  8 47  1  1
  9 48  1  0
  9 49  1  0
 10 50  1  6
 11 51  1  0
 12 52  1  0
 12 53  1  0
 16 54  1  0
 16 55  1  0
 17 56  1  0
 21 57  1  0
 22 58  1  0
 24 59  1  0
 27 60  1  0
 28 61  1  0
 32 62  1  0
 33 63  1  0
 36 64  1  0
 37 65  1  0
M  END
>  <smiles>  (39) 
CC(C)C(NC(=O)[C@@H]1C[C@@H](O)CN1C(=O)CNC(=O)c1ccc2cc(F)ccc2n1)c1ccc(Cl)cc1

>  <score_type>  (39) 
oracle

>  <origin>  (39) 
autodockgpu

>  <m_score__min__energy>  (39) 
-9.3399999999999999

>  <m_primary>  (39) 
energy

>  <meeko>  (39) 
{"free_energy": -8.01, "intermolecular_energy": -10.69, "internal_energy": -3.34, "cluster_size": 1, "cluster_id": 6, "rank_in_cluster": 1}

>  <energy>  (39) 
-6.11

>  <cluster_rmsd>  (39) 
1.73

>  <rmsd>  (39) 
270.2

>  <cluster>  (39) 
8

$$$$

     RDKit          3D

 65 68  0  0  1  0  0  0  0  0999 V2000
  141.8290   78.6750  223.9590 C   0  0  0  0  0  0  0  0  0  0  0  0
  141.3080   79.6520  222.8880 C   0  0  0  0  0  0  0  0  0  0  0  0
  142.5400   80.3790  222.3640 C   0  0  0  0  0  0  0  0  0  0  0  0
  140.7170   78.8080  221.8090 C   0  0  1  0  0  0  0  0  0  0  0  0
  141.6640   77.8240  221.2650 N   0  0  0  0  0  0  0  0  0  0  0  0
  141.9130   77.7240  219.8640 C   0  0  0  0  0  0  0  0  0  0  0  0
  141.3100   78.4930  219.0710 O   0  0  0  0  0  0  0  0  0  0  0  0
  142.8860   76.7040  219.3980 C   0  0  2  0  0  0  0  0  0  0  0  0
  143.3280   77.0130  217.9830 C   0  0  0  0  0  0  0  0  0  0  0  0
  143.0200   75.7480  217.1790 C   0  0  1  0  0  0  0  0  0  0  0  0
  144.0410   74.8600  217.4120 O   0  0  0  0  0  0  0  0  0  0  0  0
  141.7860   75.2660  217.9370 C   0  0  0  0  0  0  0  0  0  0  0  0
  142.2890   75.3670  219.3090 N   0  0  0  0  0  0  0  0  0  0  0  0
  142.2230   74.3930  220.3450 C   0  0  0  0  0  0  0  0  0  0  0  0
  143.2760   73.8930  220.8320 O   0  0  0  0  0  0  0  0  0  0  0  0
  140.8740   73.9950  220.8230 C   0  0  0  0  0  0  0  0  0  0  0  0
  140.9090   73.0630  221.9030 N   0  0  0  0  0  0  0  0  0  0  0  0
  139.7190   72.4780  222.3790 C   0  0  0  0  0  0  0  0  0  0  0  0
  138.5830   72.7430  221.8840 O   0  0  0  0  0  0  0  0  0  0  0  0
  139.7980   71.5190  223.4970 C   0  0  0  0  0  0  0  0  0  0  0  0
  139.3050   70.2370  223.3680 C   0  0  0  0  0  0  0  0  0  0  0  0
  139.3790   69.3270  224.4290 C   0  0  0  0  0  0  0  0  0  0  0  0
  139.9590   69.7400  225.6130 C   0  0  0  0  0  0  0  0  0  0  0  0
  140.0830   68.9240  226.7180 C   0  0  0  0  0  0  0  0  0  0  0  0
  140.6740   69.3710  227.9010 C   0  0  0  0  0  0  0  0  0  0  0  0
  140.7920   68.5590  228.9870 F   0  0  0  0  0  0  0  0  0  0  0  0
  141.1570   70.6610  227.9920 C   0  0  0  0  0  0  0  0  0  0  0  0
  141.0420   71.4970  226.8920 C   0  0  0  0  0  0  0  0  0  0  0  0
  140.4460   71.0290  225.7160 C   0  0  0  0  0  0  0  0  0  0  0  0
  140.3550   71.8750  224.6730 N   0  0  0  0  0  0  0  0  0  0  0  0
  139.4970   78.0680  222.2050 C   0  0  0  0  0  0  0  0  0  0  0  0
  138.2910   78.6350  222.5050 C   0  0  0  0  0  0  0  0  0  0  0  0
  137.2080   77.8420  222.8550 C   0  0  0  0  0  0  0  0  0  0  0  0
  137.2930   76.4650  222.9170 C   0  0  0  0  0  0  0  0  0  0  0  0
  135.9250   75.4540  223.3600 Cl  0  0  0  0  0  0  0  0  0  0  0  0
  138.5210   75.8910  222.6110 C   0  0  0  0  0  0  0  0  0  0  0  0
  139.5890   76.6920  222.2660 C   0  0  0  0  0  0  0  0  0  0  0  0
  141.6137   79.0787  224.9594 H   0  0  0  0  0  0  0  0  0  0  0  0
  141.3301   77.7017  223.8412 H   0  0  0  0  0  0  0  0  0  0  0  0
  142.9151   78.5470  223.8412 H   0  0  0  0  0  0  0  0  0  0  0  0
  140.5616   80.3705  223.2577 H   0  0  0  0  0  0  0  0  0  0  0  0
  143.1437   80.7353  223.2117 H   0  0  0  0  0  0  0  0  0  0  0  0
  143.1394   79.6898  221.7510 H   0  0  0  0  0  0  0  0  0  0  0  0
  142.2265   81.2368  221.7510 H   0  0  0  0  0  0  0  0  0  0  0  0
  140.4501   79.5519  221.0439 H   0  0  0  0  0  0  0  0  0  0  0  0
  142.1320   77.2170  221.9670 H   0  0  0  0  0  0  0  0  0  0  0  0
  143.7099   76.7258  220.1265 H   0  0  0  0  0  0  0  0  0  0  0  0
  142.7670   77.8703  217.5825 H   0  0  0  0  0  0  0  0  0  0  0  0
  144.3940   77.2801  217.9352 H   0  0  0  0  0  0  0  0  0  0  0  0
  142.8957   75.8718  216.0931 H   0  0  0  0  0  0  0  0  0  0  0  0
  144.9400   75.3040  217.4660 H   0  0  0  0  0  0  0  0  0  0  0  0
  140.9191   75.9218  217.7686 H   0  0  0  0  0  0  0  0  0  0  0  0
  141.4171   74.2714  217.6460 H   0  0  0  0  0  0  0  0  0  0  0  0
  140.3422   74.8977  221.1582 H   0  0  0  0  0  0  0  0  0  0  0  0
  140.3640   73.5006  219.9831 H   0  0  0  0  0  0  0  0  0  0  0  0
  141.8190   72.7860  222.3730 H   0  0  0  0  0  0  0  0  0  0  0  0
  138.8471   69.9254  222.4176 H   0  0  0  0  0  0  0  0  0  0  0  0
  138.9842   68.3058  224.3225 H   0  0  0  0  0  0  0  0  0  0  0  0
  139.7056   67.8921  226.6656 H   0  0  0  0  0  0  0  0  0  0  0  0
  141.6248   71.0193  228.9209 H   0  0  0  0  0  0  0  0  0  0  0  0
  141.4196   72.5289  226.9439 H   0  0  0  0  0  0  0  0  0  0  0  0
  138.1778   79.7286  222.4688 H   0  0  0  0  0  0  0  0  0  0  0  0
  136.2490   78.3264  223.0911 H   0  0  0  0  0  0  0  0  0  0  0  0
  138.6410   74.7981  222.6440 H   0  0  0  0  0  0  0  0  0  0  0  0
  140.5521   76.2158  222.0301 H   0  0  0  0  0  0  0  0  0  0  0  0
  1  2  1  0
  2  3  1  0
  2  4  1  0
  4  5  1  0
  5  6  1  0
  6  7  2  0
  6  8  1  0
  8  9  1  0
  9 10  1  0
 10 11  1  0
 10 12  1  0
 12 13  1  0
 13 14  1  0
 14 15  2  0
 14 16  1  0
 16 17  1  0
 17 18  1  0
 18 19  2  0
 18 20  1  0
 20 21  2  0
 21 22  1  0
 22 23  2  0
 23 24  1  0
 24 25  2  0
 25 26  1  0
 25 27  1  0
 27 28  2  0
 28 29  1  0
 29 30  2  0
  4 31  1  0
 31 32  2  0
 32 33  1  0
 33 34  2  0
 34 35  1  0
 34 36  1  0
 36 37  2  0
 13  8  1  0
 30 20  1  0
 37 31  1  0
 29 23  1  0
  1 38  1  0
  1 39  1  0
  1 40  1  0
  2 41  1  0
  3 42  1  0
  3 43  1  0
  3 44  1  0
  4 45  1  6
  5 46  1  0
  8 47  1  1
  9 48  1  0
  9 49  1  0
 10 50  1  6
 11 51  1  0
 12 52  1  0
 12 53  1  0
 16 54  1  0
 16 55  1  0
 17 56  1  0
 21 57  1  0
 22 58  1  0
 24 59  1  0
 27 60  1  0
 28 61  1  0
 32 62  1  0
 33 63  1  0
 36 64  1  0
 37 65  1  0
M  END
>  <smiles>  (40) 
CC(C)C(NC(=O)[C@@H]1C[C@@H](O)CN1C(=O)CNC(=O)c1ccc2cc(F)ccc2n1)c1ccc(Cl)cc1

>  <score_type>  (40) 
oracle

>  <origin>  (40) 
autodockgpu

>  <m_score__min__energy>  (40) 
-9.3399999999999999

>  <m_primary>  (40) 
energy

>  <meeko>  (40) 
{"free_energy": -9.18, "intermolecular_energy": -11.86, "internal_energy": -2.98, "cluster_size": 5, "cluster_id": 1, "rank_in_cluster": 3}

>  <energy>  (40) 
-5.98

>  <cluster_rmsd>  (40) 
1.74

>  <rmsd>  (40) 
270.12

>  <cluster>  (40) 
8

$$$$
