AFKJZVLHPMIVAS-NNNXYCNANA-N
     RDKit          3D

 57 61  0  0  0  0  0  0  0  0999 V2000
  139.6150   74.1380  223.0920 H   0  0  0  0  0  0  0  0  0  0  0  0
  138.8300   77.5510  222.7550 N   0  0  0  0  0  0  0  0  0  0  0  0
  140.5160   74.7240  221.2820 C   0  0  0  0  0  0  0  0  0  0  0  0
  139.8260   75.9510  221.2010 C   0  0  0  0  0  0  0  0  0  0  0  0
  138.8460   76.3560  222.2340 C   0  0  0  0  0  0  0  0  0  0  0  0
  140.3200   73.9940  222.3430 N   0  0  0  0  0  0  0  0  0  0  0  0
  139.1310   78.8180  222.0760 C   0  0  2  0  0  0  0  0  0  0  0  0
  139.1190   78.6631  220.9870 H   0  0  0  0  0  0  0  0  0  0  0  0
  140.5040   79.3040  222.4810 C   0  0  0  0  0  0  0  0  0  0  0  0
  140.9610   79.1430  223.8030 C   0  0  0  0  0  0  0  0  0  0  0  0
  140.3391   78.6070  224.5351 H   0  0  0  0  0  0  0  0  0  0  0  0
  142.2020   79.6610  224.1910 C   0  0  0  0  0  0  0  0  0  0  0  0
  142.5536   79.5277  225.2247 H   0  0  0  0  0  0  0  0  0  0  0  0
  142.9950   80.3470  223.2680 C   0  0  0  0  0  0  0  0  0  0  0  0
  143.9703   80.7526  223.5750 H   0  0  0  0  0  0  0  0  0  0  0  0
  142.5490   80.5180  221.9540 C   0  0  0  0  0  0  0  0  0  0  0  0
  143.1726   81.0612  221.2287 H   0  0  0  0  0  0  0  0  0  0  0  0
  141.3100   79.9990  221.5600 C   0  0  0  0  0  0  0  0  0  0  0  0
  140.9644   80.1352  220.5246 H   0  0  0  0  0  0  0  0  0  0  0  0
  138.0720   79.8570  222.4460 C   0  0  0  0  0  0  0  0  0  0  0  0
  137.9972   79.9304  223.5410 H   0  0  0  0  0  0  0  0  0  0  0  0
  138.3575   80.8351  222.0316 H   0  0  0  0  0  0  0  0  0  0  0  0
  137.0995   79.5529  222.0316 H   0  0  0  0  0  0  0  0  0  0  0  0
  137.9210   75.4110  222.6730 O   0  0  0  0  0  0  0  0  0  0  0  0
  138.1860   74.4420  222.8000 H   0  0  0  0  0  0  0  0  0  0  0  0
  140.0980   76.8290  220.1580 C   0  0  0  0  0  0  0  0  0  0  0  0
  139.5971   77.8075  220.1186 H   0  0  0  0  0  0  0  0  0  0  0  0
  141.0060   76.4700  219.1610 C   0  0  0  0  0  0  0  0  0  0  0  0
  141.3050   77.3310  218.0860 C   0  0  0  0  0  0  0  0  0  0  0  0
  140.7630   78.4730  218.0340 O   0  0  0  0  0  0  0  0  0  0  0  0
  142.1770   76.9320  217.1020 N   0  0  0  0  0  0  0  0  0  0  0  0
  142.4730   77.7650  216.0520 C   0  0  0  0  0  0  0  0  0  0  0  0
  142.0196   78.7662  216.0084 H   0  0  0  0  0  0  0  0  0  0  0  0
  143.3430   77.3570  215.0380 C   0  0  0  0  0  0  0  0  0  0  0  0
  143.7050   78.4300  213.6970 Cl  0  0  0  0  0  0  0  0  0  0  0  0
  143.9170   76.0890  215.0960 C   0  0  0  0  0  0  0  0  0  0  0  0
  144.5936   75.7528  214.2964 H   0  0  0  0  0  0  0  0  0  0  0  0
  143.6320   75.2480  216.1690 C   0  0  0  0  0  0  0  0  0  0  0  0
  144.3780   73.6550  216.2340 Cl  0  0  0  0  0  0  0  0  0  0  0  0
  142.7540   75.6840  217.1730 C   0  0  0  0  0  0  0  0  0  0  0  0
  142.4770   74.8620  218.2160 N   0  0  0  0  0  0  0  0  0  0  0  0
  141.6270   75.2100  219.2190 C   0  0  0  0  0  0  0  0  0  0  0  0
  141.3830   74.3450  220.2670 N   0  0  0  0  0  0  0  0  0  0  0  0
  141.9710   72.9830  220.2070 C   0  0  0  0  0  0  0  0  0  0  0  0
  141.6397   72.4060  221.0830 H   0  0  0  0  0  0  0  0  0  0  0  0
  141.6370   72.4899  219.2822 H   0  0  0  0  0  0  0  0  0  0  0  0
  143.4810   73.0620  220.2040 C   0  0  0  0  0  0  0  0  0  0  0  0
  144.2430   72.0260  219.6330 C   0  0  0  0  0  0  0  0  0  0  0  0
  143.7364   71.1745  219.1552 H   0  0  0  0  0  0  0  0  0  0  0  0
  145.6400   72.0720  219.6690 C   0  0  0  0  0  0  0  0  0  0  0  0
  146.2286   71.2582  219.2203 H   0  0  0  0  0  0  0  0  0  0  0  0
  146.2880   73.1500  220.2740 C   0  0  0  0  0  0  0  0  0  0  0  0
  147.3871   73.1860  220.2995 H   0  0  0  0  0  0  0  0  0  0  0  0
  145.5430   74.1830  220.8470 C   0  0  0  0  0  0  0  0  0  0  0  0
  146.0562   75.0309  221.3242 H   0  0  0  0  0  0  0  0  0  0  0  0
  144.1460   74.1410  220.8150 C   0  0  0  0  0  0  0  0  0  0  0  0
  143.5636   74.9558  221.2699 H   0  0  0  0  0  0  0  0  0  0  0  0
  1  2  1  0
  2  3  2  0
  3  4  1  0
  4  5  1  0
  5  6  2  0
  6  7  1  0
  7  8  1  6
  7  9  1  0
  9 10  2  0
 10 11  1  0
 10 12  1  0
 12 13  1  0
 12 14  2  0
 14 15  1  0
 14 16  1  0
 16 17  1  0
 16 18  2  0
 18 19  1  0
  7 20  1  0
 20 21  1  0
 20 22  1  0
 20 23  1  0
  5 24  1  0
 24 25  1  0
  4 26  2  0
 26 27  1  0
 26 28  1  0
 28 29  1  0
 29 30  2  0
 29 31  1  0
 31 32  1  0
 32 33  1  0
 32 34  2  0
 34 35  1  0
 34 36  1  0
 36 37  1  0
 36 38  2  0
 38 39  1  0
 38 40  1  0
 40 41  2  0
 41 42  1  0
 42 43  1  0
 43 44  1  0
 44 45  1  0
 44 46  1  0
 44 47  1  0
 47 48  2  0
 48 49  1  0
 48 50  1  0
 50 51  1  0
 50 52  2  0
 52 53  1  0
 52 54  1  0
 54 55  1  0
 54 56  2  0
 56 57  1  0
 43  3  1  0
 56 47  1  0
 18  9  1  0
 42 28  2  0
 40 31  1  0
M  END
>  <UniqueID>  (1) 
96

>  <SMILES>  (1) 
[H]/N=c1/c(/C(O)=N\[C@@H](C)c2ccccc2)cc2c(=O)n3cc(Cl)cc(Cl)c3nc2n1Cc1ccccc1

>  <Energy>  (1) 
88.58360833133418

>  <Genealogy>  (1) 
C[C@H](N=C(O)c1cc2c(=O)n3cc(Cl)cc(Cl)c3nc2n(Cc2ccccc2)c1=N)c1ccccc1 (tautomer)
[H]/N=c1/c(/C(O)=N\[C@@H](C)c2ccccc2)cc2c(=O)n3cc(Cl)cc(Cl)c3nc2n1Cc1ccccc1 (cis-trans isomerization)
[H]/N=c1/c(/C(O)=N\[C@@H](C)c2ccccc2)cc2c(=O)n3cc(Cl)cc(Cl)c3nc2n1Cc1ccccc1 (3D coordinates assigned)
[H]/N=c1/c(/C(O)=N\[C@@H](C)c2ccccc2)cc2c(=O)n3cc(Cl)cc(Cl)c3nc2n1Cc1ccccc1 (optimized conformer: 88.58360833133418 kcal/mol)

>  <smiles>  (1) 
C[C@H](NC(=O)c1cc2c(=O)n3cc(Cl)cc(Cl)c3nc2n(Cc2ccccc2)c1=N)c1ccccc1

>  <score_type>  (1) 
oracle

>  <origin>  (1) 
autodockgpu

>  <m_score__min__energy>  (1) 
-8.6899999999999995

>  <m_primary>  (1) 
energy

>  <meeko>  (1) 
{"free_energy": -7.95, "intermolecular_energy": -10.34, "internal_energy": -2.54, "cluster_size": 5, "cluster_id": 2, "rank_in_cluster": 4}

>  <energy>  (1) 
-8.69

>  <cluster_rmsd>  (1) 
0.0

>  <rmsd>  (1) 
269.45

>  <cluster>  (1) 
1

$$$$
AFKJZVLHPMIVAS-NNNXYCNANA-N
     RDKit          3D

 57 61  0  0  0  0  0  0  0  0999 V2000
  143.2200   78.6150  216.8670 H   0  0  0  0  0  0  0  0  0  0  0  0
  140.9220   80.1890  219.3120 N   0  0  0  0  0  0  0  0  0  0  0  0
  142.6850   77.1180  218.2460 C   0  0  0  0  0  0  0  0  0  0  0  0
  141.8840   77.9600  219.0440 C   0  0  0  0  0  0  0  0  0  0  0  0
  141.8740   79.4270  218.8510 C   0  0  0  0  0  0  0  0  0  0  0  0
  143.3570   77.6700  217.2760 N   0  0  0  0  0  0  0  0  0  0  0  0
  141.0230   81.1800  220.3900 C   0  0  2  0  0  0  0  0  0  0  0  0
  141.8532   81.8699  220.1785 H   0  0  0  0  0  0  0  0  0  0  0  0
  141.2950   80.4830  221.7040 C   0  0  0  0  0  0  0  0  0  0  0  0
  142.5780   80.5210  222.2830 C   0  0  0  0  0  0  0  0  0  0  0  0
  143.3754   81.1111  221.8077 H   0  0  0  0  0  0  0  0  0  0  0  0
  142.8440   79.8120  223.4600 C   0  0  0  0  0  0  0  0  0  0  0  0
  143.8479   79.8492  223.9082 H   0  0  0  0  0  0  0  0  0  0  0  0
  141.8370   79.0570  224.0670 C   0  0  0  0  0  0  0  0  0  0  0  0
  142.0479   78.5015  224.9927 H   0  0  0  0  0  0  0  0  0  0  0  0
  140.5610   79.0080  223.4970 C   0  0  0  0  0  0  0  0  0  0  0  0
  139.7696   78.4108  223.9734 H   0  0  0  0  0  0  0  0  0  0  0  0
  140.2890   79.7170  222.3220 C   0  0  0  0  0  0  0  0  0  0  0  0
  139.2831   79.6755  221.8787 H   0  0  0  0  0  0  0  0  0  0  0  0
  139.7200   81.9750  220.4730 C   0  0  0  0  0  0  0  0  0  0  0  0
  139.4555   82.1364  221.5285 H   0  0  0  0  0  0  0  0  0  0  0  0
  139.8512   82.9471  219.9751 H   0  0  0  0  0  0  0  0  0  0  0  0
  138.9156   81.4137  219.9751 H   0  0  0  0  0  0  0  0  0  0  0  0
  142.9200   80.0050  218.1330 O   0  0  0  0  0  0  0  0  0  0  0  0
  143.7160   79.4530  217.8380 H   0  0  0  0  0  0  0  0  0  0  0  0
  141.0440   77.4070  220.0050 C   0  0  0  0  0  0  0  0  0  0  0  0
  140.3822   78.0572  220.5960 H   0  0  0  0  0  0  0  0  0  0  0  0
  141.0400   76.0290  220.2200 C   0  0  0  0  0  0  0  0  0  0  0  0
  140.2060   75.4310  221.1870 C   0  0  0  0  0  0  0  0  0  0  0  0
  139.4170   76.1550  221.8590 O   0  0  0  0  0  0  0  0  0  0  0  0
  140.2540   74.0750  221.3990 N   0  0  0  0  0  0  0  0  0  0  0  0
  139.4450   73.4860  222.3390 C   0  0  0  0  0  0  0  0  0  0  0  0
  138.7420   74.1051  222.9156 H   0  0  0  0  0  0  0  0  0  0  0  0
  139.5040   72.1100  222.5720 C   0  0  0  0  0  0  0  0  0  0  0  0
  138.4690   71.3730  223.7850 Cl  0  0  0  0  0  0  0  0  0  0  0  0
  140.3930   71.3270  221.8400 C   0  0  0  0  0  0  0  0  0  0  0  0
  140.4551   70.2444  222.0245 H   0  0  0  0  0  0  0  0  0  0  0  0
  141.2030   71.9180  220.8740 C   0  0  0  0  0  0  0  0  0  0  0  0
  142.3100   70.9110  219.9470 Cl  0  0  0  0  0  0  0  0  0  0  0  0
  141.1240   73.3030  220.6610 C   0  0  0  0  0  0  0  0  0  0  0  0
  141.9150   73.8770  219.7190 N   0  0  0  0  0  0  0  0  0  0  0  0
  141.9030   75.2130  219.4660 C   0  0  0  0  0  0  0  0  0  0  0  0
  142.7190   75.7520  218.4910 N   0  0  0  0  0  0  0  0  0  0  0  0
  143.6940   74.8590  217.8170 C   0  0  0  0  0  0  0  0  0  0  0  0
  143.1529   74.1599  217.1624 H   0  0  0  0  0  0  0  0  0  0  0  0
  144.3883   75.4718  217.2234 H   0  0  0  0  0  0  0  0  0  0  0  0
  144.4840   74.0740  218.8400 C   0  0  0  0  0  0  0  0  0  0  0  0
  144.7890   74.6450  220.0880 C   0  0  0  0  0  0  0  0  0  0  0  0
  144.4194   75.6517  220.3331 H   0  0  0  0  0  0  0  0  0  0  0  0
  145.5590   73.9420  221.0200 C   0  0  0  0  0  0  0  0  0  0  0  0
  145.7926   74.3958  221.9944 H   0  0  0  0  0  0  0  0  0  0  0  0
  146.0310   72.6650  220.7140 C   0  0  0  0  0  0  0  0  0  0  0  0
  146.6344   72.1117  221.4487 H   0  0  0  0  0  0  0  0  0  0  0  0
  145.7380   72.0880  219.4750 C   0  0  0  0  0  0  0  0  0  0  0  0
  146.1130   71.0822  219.2348 H   0  0  0  0  0  0  0  0  0  0  0  0
  144.9690   72.7880  218.5410 C   0  0  0  0  0  0  0  0  0  0  0  0
  144.7418   72.3306  217.5667 H   0  0  0  0  0  0  0  0  0  0  0  0
  1  2  1  0
  2  3  2  0
  3  4  1  0
  4  5  1  0
  5  6  2  0
  6  7  1  0
  7  8  1  1
  7  9  1  0
  9 10  2  0
 10 11  1  0
 10 12  1  0
 12 13  1  0
 12 14  2  0
 14 15  1  0
 14 16  1  0
 16 17  1  0
 16 18  2  0
 18 19  1  0
  7 20  1  0
 20 21  1  0
 20 22  1  0
 20 23  1  0
  5 24  1  0
 24 25  1  0
  4 26  2  0
 26 27  1  0
 26 28  1  0
 28 29  1  0
 29 30  2  0
 29 31  1  0
 31 32  1  0
 32 33  1  0
 32 34  2  0
 34 35  1  0
 34 36  1  0
 36 37  1  0
 36 38  2  0
 38 39  1  0
 38 40  1  0
 40 41  2  0
 41 42  1  0
 42 43  1  0
 43 44  1  0
 44 45  1  0
 44 46  1  0
 44 47  1  0
 47 48  2  0
 48 49  1  0
 48 50  1  0
 50 51  1  0
 50 52  2  0
 52 53  1  0
 52 54  1  0
 54 55  1  0
 54 56  2  0
 56 57  1  0
 43  3  1  0
 56 47  1  0
 18  9  1  0
 42 28  2  0
 40 31  1  0
M  END
>  <UniqueID>  (2) 
96

>  <SMILES>  (2) 
[H]/N=c1/c(/C(O)=N\[C@@H](C)c2ccccc2)cc2c(=O)n3cc(Cl)cc(Cl)c3nc2n1Cc1ccccc1

>  <Energy>  (2) 
88.58360833133418

>  <Genealogy>  (2) 
C[C@H](N=C(O)c1cc2c(=O)n3cc(Cl)cc(Cl)c3nc2n(Cc2ccccc2)c1=N)c1ccccc1 (tautomer)
[H]/N=c1/c(/C(O)=N\[C@@H](C)c2ccccc2)cc2c(=O)n3cc(Cl)cc(Cl)c3nc2n1Cc1ccccc1 (cis-trans isomerization)
[H]/N=c1/c(/C(O)=N\[C@@H](C)c2ccccc2)cc2c(=O)n3cc(Cl)cc(Cl)c3nc2n1Cc1ccccc1 (3D coordinates assigned)
[H]/N=c1/c(/C(O)=N\[C@@H](C)c2ccccc2)cc2c(=O)n3cc(Cl)cc(Cl)c3nc2n1Cc1ccccc1 (optimized conformer: 88.58360833133418 kcal/mol)

>  <smiles>  (2) 
C[C@H](NC(=O)c1cc2c(=O)n3cc(Cl)cc(Cl)c3nc2n(Cc2ccccc2)c1=N)c1ccccc1

>  <score_type>  (2) 
oracle

>  <origin>  (2) 
autodockgpu

>  <m_score__min__energy>  (2) 
-8.6899999999999995

>  <m_primary>  (2) 
energy

>  <meeko>  (2) 
{"free_energy": -7.82, "intermolecular_energy": -10.21, "internal_energy": -2.67, "cluster_size": 2, "cluster_id": 6, "rank_in_cluster": 2}

>  <energy>  (2) 
-8.63

>  <cluster_rmsd>  (2) 
0.12

>  <rmsd>  (2) 
269.4

>  <cluster>  (2) 
1

$$$$
AFKJZVLHPMIVAS-NNNXYCNANA-N
     RDKit          3D

 57 61  0  0  0  0  0  0  0  0999 V2000
  138.6250   75.0190  222.8720 H   0  0  0  0  0  0  0  0  0  0  0  0
  140.6490   73.2550  220.0630 N   0  0  0  0  0  0  0  0  0  0  0  0
  139.8800   76.3890  221.8840 C   0  0  0  0  0  0  0  0  0  0  0  0
  140.4290   75.5380  220.9030 C   0  0  0  0  0  0  0  0  0  0  0  0
  140.4020   74.0660  221.0530 C   0  0  0  0  0  0  0  0  0  0  0  0
  139.2740   75.8300  222.8920 N   0  0  0  0  0  0  0  0  0  0  0  0
  141.7030   72.2360  219.9930 C   0  0  2  0  0  0  0  0  0  0  0  0
  141.5396   71.4827  220.7778 H   0  0  0  0  0  0  0  0  0  0  0  0
  143.0540   72.8810  220.2120 C   0  0  0  0  0  0  0  0  0  0  0  0
  144.0800   72.1840  220.8780 C   0  0  0  0  0  0  0  0  0  0  0  0
  143.9199   71.1414  221.1902 H   0  0  0  0  0  0  0  0  0  0  0  0
  145.3030   72.8110  221.1450 C   0  0  0  0  0  0  0  0  0  0  0  0
  146.1020   72.2590  221.6617 H   0  0  0  0  0  0  0  0  0  0  0  0
  145.5100   74.1370  220.7560 C   0  0  0  0  0  0  0  0  0  0  0  0
  146.4715   74.6280  220.9669 H   0  0  0  0  0  0  0  0  0  0  0  0
  144.4960   74.8400  220.0990 C   0  0  0  0  0  0  0  0  0  0  0  0
  144.6594   75.8846  219.7955 H   0  0  0  0  0  0  0  0  0  0  0  0
  143.2730   74.2160  219.8270 C   0  0  0  0  0  0  0  0  0  0  0  0
  142.4783   74.7730  219.3090 H   0  0  0  0  0  0  0  0  0  0  0  0
  141.6590   71.5520  218.6260 C   0  0  0  0  0  0  0  0  0  0  0  0
  141.5889   70.4628  218.7631 H   0  0  0  0  0  0  0  0  0  0  0  0
  140.7819   71.9082  218.0658 H   0  0  0  0  0  0  0  0  0  0  0  0
  142.5745   71.7929  218.0658 H   0  0  0  0  0  0  0  0  0  0  0  0
  140.0820   73.5370  222.3020 O   0  0  0  0  0  0  0  0  0  0  0  0
  139.1870   73.7300  222.7360 H   0  0  0  0  0  0  0  0  0  0  0  0
  140.9680   76.0810  219.7410 C   0  0  0  0  0  0  0  0  0  0  0  0
  141.3522   75.4179  218.9519 H   0  0  0  0  0  0  0  0  0  0  0  0
  141.0220   77.4650  219.5750 C   0  0  0  0  0  0  0  0  0  0  0  0
  141.5640   78.0520  218.4140 C   0  0  0  0  0  0  0  0  0  0  0  0
  141.9870   77.3110  217.4820 O   0  0  0  0  0  0  0  0  0  0  0  0
  141.6340   79.4200  218.3000 N   0  0  0  0  0  0  0  0  0  0  0  0
  142.1610   79.9990  217.1720 C   0  0  0  0  0  0  0  0  0  0  0  0
  142.5151   79.3611  216.3488 H   0  0  0  0  0  0  0  0  0  0  0  0
  142.2530   81.3880  217.0570 C   0  0  0  0  0  0  0  0  0  0  0  0
  142.9380   82.1140  215.6130 Cl  0  0  0  0  0  0  0  0  0  0  0  0
  141.8030   82.1940  218.1010 C   0  0  0  0  0  0  0  0  0  0  0  0
  141.8828   83.2886  218.0264 H   0  0  0  0  0  0  0  0  0  0  0  0
  141.2520   81.6100  219.2390 C   0  0  0  0  0  0  0  0  0  0  0  0
  140.6740   82.6430  220.5410 Cl  0  0  0  0  0  0  0  0  0  0  0  0
  141.1720   80.2120  219.3270 C   0  0  0  0  0  0  0  0  0  0  0  0
  140.6360   79.6450  220.4380 N   0  0  0  0  0  0  0  0  0  0  0  0
  140.5380   78.2980  220.6000 C   0  0  0  0  0  0  0  0  0  0  0  0
  139.9760   77.7660  221.7430 N   0  0  0  0  0  0  0  0  0  0  0  0
  139.5980   78.6940  222.8380 C   0  0  0  0  0  0  0  0  0  0  0  0
  138.7616   79.3261  222.5050 H   0  0  0  0  0  0  0  0  0  0  0  0
  139.2995   78.1051  223.7179 H   0  0  0  0  0  0  0  0  0  0  0  0
  140.7700   79.5740  223.2110 C   0  0  0  0  0  0  0  0  0  0  0  0
  142.0860   79.1100  223.0380 C   0  0  0  0  0  0  0  0  0  0  0  0
  142.2622   78.1185  222.5954 H   0  0  0  0  0  0  0  0  0  0  0  0
  143.1720   79.9010  223.4250 C   0  0  0  0  0  0  0  0  0  0  0  0
  144.1985   79.5304  223.2871 H   0  0  0  0  0  0  0  0  0  0  0  0
  142.9550   81.1600  223.9860 C   0  0  0  0  0  0  0  0  0  0  0  0
  143.8106   81.7825  224.2869 H   0  0  0  0  0  0  0  0  0  0  0  0
  141.6510   81.6310  224.1660 C   0  0  0  0  0  0  0  0  0  0  0  0
  141.4813   82.6233  224.6094 H   0  0  0  0  0  0  0  0  0  0  0  0
  140.5630   80.8420  223.7830 C   0  0  0  0  0  0  0  0  0  0  0  0
  139.5386   81.2149  223.9298 H   0  0  0  0  0  0  0  0  0  0  0  0
  1  2  1  0
  2  3  2  0
  3  4  1  0
  4  5  1  0
  5  6  2  0
  6  7  1  0
  7  8  1  1
  7  9  1  0
  9 10  2  0
 10 11  1  0
 10 12  1  0
 12 13  1  0
 12 14  2  0
 14 15  1  0
 14 16  1  0
 16 17  1  0
 16 18  2  0
 18 19  1  0
  7 20  1  0
 20 21  1  0
 20 22  1  0
 20 23  1  0
  5 24  1  0
 24 25  1  0
  4 26  2  0
 26 27  1  0
 26 28  1  0
 28 29  1  0
 29 30  2  0
 29 31  1  0
 31 32  1  0
 32 33  1  0
 32 34  2  0
 34 35  1  0
 34 36  1  0
 36 37  1  0
 36 38  2  0
 38 39  1  0
 38 40  1  0
 40 41  2  0
 41 42  1  0
 42 43  1  0
 43 44  1  0
 44 45  1  0
 44 46  1  0
 44 47  1  0
 47 48  2  0
 48 49  1  0
 48 50  1  0
 50 51  1  0
 50 52  2  0
 52 53  1  0
 52 54  1  0
 54 55  1  0
 54 56  2  0
 56 57  1  0
 43  3  1  0
 56 47  1  0
 18  9  1  0
 42 28  2  0
 40 31  1  0
M  END
>  <UniqueID>  (3) 
96

>  <SMILES>  (3) 
[H]/N=c1/c(/C(O)=N\[C@@H](C)c2ccccc2)cc2c(=O)n3cc(Cl)cc(Cl)c3nc2n1Cc1ccccc1

>  <Energy>  (3) 
88.58360833133418

>  <Genealogy>  (3) 
C[C@H](N=C(O)c1cc2c(=O)n3cc(Cl)cc(Cl)c3nc2n(Cc2ccccc2)c1=N)c1ccccc1 (tautomer)
[H]/N=c1/c(/C(O)=N\[C@@H](C)c2ccccc2)cc2c(=O)n3cc(Cl)cc(Cl)c3nc2n1Cc1ccccc1 (cis-trans isomerization)
[H]/N=c1/c(/C(O)=N\[C@@H](C)c2ccccc2)cc2c(=O)n3cc(Cl)cc(Cl)c3nc2n1Cc1ccccc1 (3D coordinates assigned)
[H]/N=c1/c(/C(O)=N\[C@@H](C)c2ccccc2)cc2c(=O)n3cc(Cl)cc(Cl)c3nc2n1Cc1ccccc1 (optimized conformer: 88.58360833133418 kcal/mol)

>  <smiles>  (3) 
C[C@H](NC(=O)c1cc2c(=O)n3cc(Cl)cc(Cl)c3nc2n(Cc2ccccc2)c1=N)c1ccccc1

>  <score_type>  (3) 
oracle

>  <origin>  (3) 
autodockgpu

>  <m_score__min__energy>  (3) 
-8.6899999999999995

>  <m_primary>  (3) 
energy

>  <meeko>  (3) 
{"free_energy": -8.45, "intermolecular_energy": -10.84, "internal_energy": -2.22, "cluster_size": 9, "cluster_id": 1, "rank_in_cluster": 4}

>  <energy>  (3) 
-8.46

>  <cluster_rmsd>  (3) 
0.55

>  <rmsd>  (3) 
269.29

>  <cluster>  (3) 
1

$$$$
AFKJZVLHPMIVAS-NNNXYCNANA-N
     RDKit          3D

 57 61  0  0  0  0  0  0  0  0999 V2000
  139.5900   74.1690  223.0450 H   0  0  0  0  0  0  0  0  0  0  0  0
  139.0120   77.6660  222.8700 N   0  0  0  0  0  0  0  0  0  0  0  0
  140.5460   74.8240  221.2880 C   0  0  0  0  0  0  0  0  0  0  0  0
  139.8960   76.0740  221.2420 C   0  0  0  0  0  0  0  0  0  0  0  0
  138.9520   76.4940  222.3030 C   0  0  0  0  0  0  0  0  0  0  0  0
  140.3490   74.0830  222.3420 N   0  0  0  0  0  0  0  0  0  0  0  0
  139.2080   78.9620  222.2100 C   0  0  2  0  0  0  0  0  0  0  0  0
  139.2072   78.8222  221.1189 H   0  0  0  0  0  0  0  0  0  0  0  0
  140.5380   79.5520  222.6220 C   0  0  0  0  0  0  0  0  0  0  0  0
  141.7430   78.8990  222.2990 C   0  0  0  0  0  0  0  0  0  0  0  0
  141.7225   77.9829  221.6904 H   0  0  0  0  0  0  0  0  0  0  0  0
  142.9670   79.4090  222.7480 C   0  0  0  0  0  0  0  0  0  0  0  0
  143.9043   78.8950  222.4887 H   0  0  0  0  0  0  0  0  0  0  0  0
  143.0000   80.5700  223.5250 C   0  0  0  0  0  0  0  0  0  0  0  0
  143.9627   80.9700  223.8760 H   0  0  0  0  0  0  0  0  0  0  0  0
  141.8090   81.2230  223.8560 C   0  0  0  0  0  0  0  0  0  0  0  0
  141.8358   82.1352  224.4701 H   0  0  0  0  0  0  0  0  0  0  0  0
  140.5830   80.7190  223.4080 C   0  0  0  0  0  0  0  0  0  0  0  0
  139.6493   81.2375  223.6714 H   0  0  0  0  0  0  0  0  0  0  0  0
  138.0690   79.9060  222.5940 C   0  0  0  0  0  0  0  0  0  0  0  0
  137.9964   79.9662  223.6899 H   0  0  0  0  0  0  0  0  0  0  0  0
  138.2686   80.9071  222.1842 H   0  0  0  0  0  0  0  0  0  0  0  0
  137.1223   79.5241  222.1842 H   0  0  0  0  0  0  0  0  0  0  0  0
  137.9770   75.5880  222.7140 O   0  0  0  0  0  0  0  0  0  0  0  0
  138.1940   74.6050  222.8260 H   0  0  0  0  0  0  0  0  0  0  0  0
  140.1760   76.9600  220.2080 C   0  0  0  0  0  0  0  0  0  0  0  0
  139.7076   77.9552  220.1957 H   0  0  0  0  0  0  0  0  0  0  0  0
  141.0500   76.5890  219.1860 C   0  0  0  0  0  0  0  0  0  0  0  0
  141.3550   77.4580  218.1190 C   0  0  0  0  0  0  0  0  0  0  0  0
  140.8500   78.6170  218.0970 O   0  0  0  0  0  0  0  0  0  0  0  0
  142.1920   77.0460  217.1100 N   0  0  0  0  0  0  0  0  0  0  0  0
  142.4940   77.8870  216.0670 C   0  0  0  0  0  0  0  0  0  0  0  0
  142.0741   78.9036  216.0496 H   0  0  0  0  0  0  0  0  0  0  0  0
  143.3280   77.4670  215.0280 C   0  0  0  0  0  0  0  0  0  0  0  0
  143.6980   78.5510  213.6970 Cl  0  0  0  0  0  0  0  0  0  0  0  0
  143.8610   76.1810  215.0540 C   0  0  0  0  0  0  0  0  0  0  0  0
  144.5098   75.8368  214.2352 H   0  0  0  0  0  0  0  0  0  0  0  0
  143.5710   75.3310  216.1190 C   0  0  0  0  0  0  0  0  0  0  0  0
  144.2650   73.7140  216.1420 Cl  0  0  0  0  0  0  0  0  0  0  0  0
  142.7290   75.7790  217.1480 C   0  0  0  0  0  0  0  0  0  0  0  0
  142.4470   74.9490  218.1840 N   0  0  0  0  0  0  0  0  0  0  0  0
  141.6300   75.3080  219.2100 C   0  0  0  0  0  0  0  0  0  0  0  0
  141.3790   74.4340  220.2490 N   0  0  0  0  0  0  0  0  0  0  0  0
  141.9200   73.0550  220.1550 C   0  0  0  0  0  0  0  0  0  0  0  0
  141.5513   72.4621  221.0050 H   0  0  0  0  0  0  0  0  0  0  0  0
  141.5876   72.6045  219.2081 H   0  0  0  0  0  0  0  0  0  0  0  0
  143.4320   73.0800  220.1830 C   0  0  0  0  0  0  0  0  0  0  0  0
  144.1680   72.0030  219.6560 C   0  0  0  0  0  0  0  0  0  0  0  0
  143.6412   71.1578  219.1890 H   0  0  0  0  0  0  0  0  0  0  0  0
  145.5650   72.0000  219.7220 C   0  0  0  0  0  0  0  0  0  0  0  0
  146.1329   71.1535  219.3085 H   0  0  0  0  0  0  0  0  0  0  0  0
  146.2390   73.0700  220.3120 C   0  0  0  0  0  0  0  0  0  0  0  0
  147.3379   73.0678  220.3606 H   0  0  0  0  0  0  0  0  0  0  0  0
  145.5190   74.1440  220.8410 C   0  0  0  0  0  0  0  0  0  0  0  0
  146.0520   74.9857  221.3072 H   0  0  0  0  0  0  0  0  0  0  0  0
  144.1230   74.1510  220.7790 C   0  0  0  0  0  0  0  0  0  0  0  0
  143.5612   74.9986  221.1985 H   0  0  0  0  0  0  0  0  0  0  0  0
  1  2  1  0
  2  3  2  0
  3  4  1  0
  4  5  1  0
  5  6  2  0
  6  7  1  0
  7  8  1  6
  7  9  1  0
  9 10  2  0
 10 11  1  0
 10 12  1  0
 12 13  1  0
 12 14  2  0
 14 15  1  0
 14 16  1  0
 16 17  1  0
 16 18  2  0
 18 19  1  0
  7 20  1  0
 20 21  1  0
 20 22  1  0
 20 23  1  0
  5 24  1  0
 24 25  1  0
  4 26  2  0
 26 27  1  0
 26 28  1  0
 28 29  1  0
 29 30  2  0
 29 31  1  0
 31 32  1  0
 32 33  1  0
 32 34  2  0
 34 35  1  0
 34 36  1  0
 36 37  1  0
 36 38  2  0
 38 39  1  0
 38 40  1  0
 40 41  2  0
 41 42  1  0
 42 43  1  0
 43 44  1  0
 44 45  1  0
 44 46  1  0
 44 47  1  0
 47 48  2  0
 48 49  1  0
 48 50  1  0
 50 51  1  0
 50 52  2  0
 52 53  1  0
 52 54  1  0
 54 55  1  0
 54 56  2  0
 56 57  1  0
 43  3  1  0
 56 47  1  0
 18  9  1  0
 42 28  2  0
 40 31  1  0
M  END
>  <UniqueID>  (4) 
96

>  <SMILES>  (4) 
[H]/N=c1/c(/C(O)=N\[C@@H](C)c2ccccc2)cc2c(=O)n3cc(Cl)cc(Cl)c3nc2n1Cc1ccccc1

>  <Energy>  (4) 
88.58360833133418

>  <Genealogy>  (4) 
C[C@H](N=C(O)c1cc2c(=O)n3cc(Cl)cc(Cl)c3nc2n(Cc2ccccc2)c1=N)c1ccccc1 (tautomer)
[H]/N=c1/c(/C(O)=N\[C@@H](C)c2ccccc2)cc2c(=O)n3cc(Cl)cc(Cl)c3nc2n1Cc1ccccc1 (cis-trans isomerization)
[H]/N=c1/c(/C(O)=N\[C@@H](C)c2ccccc2)cc2c(=O)n3cc(Cl)cc(Cl)c3nc2n1Cc1ccccc1 (3D coordinates assigned)
[H]/N=c1/c(/C(O)=N\[C@@H](C)c2ccccc2)cc2c(=O)n3cc(Cl)cc(Cl)c3nc2n1Cc1ccccc1 (optimized conformer: 88.58360833133418 kcal/mol)

>  <smiles>  (4) 
C[C@H](NC(=O)c1cc2c(=O)n3cc(Cl)cc(Cl)c3nc2n(Cc2ccccc2)c1=N)c1ccccc1

>  <score_type>  (4) 
oracle

>  <origin>  (4) 
autodockgpu

>  <m_score__min__energy>  (4) 
-8.6899999999999995

>  <m_primary>  (4) 
energy

>  <meeko>  (4) 
{"free_energy": -8.19, "intermolecular_energy": -10.58, "internal_energy": -2.48, "cluster_size": 5, "cluster_id": 2, "rank_in_cluster": 1}

>  <energy>  (4) 
-8.45

>  <cluster_rmsd>  (4) 
0.54

>  <rmsd>  (4) 
269.22

>  <cluster>  (4) 
1

$$$$
AFKJZVLHPMIVAS-NNNXYCNANA-N
     RDKit          3D

 57 61  0  0  0  0  0  0  0  0999 V2000
  135.0800   69.6620  223.6250 H   0  0  0  0  0  0  0  0  0  0  0  0
  138.7060   68.5820  225.0570 N   0  0  0  0  0  0  0  0  0  0  0  0
  136.5540   71.1560  223.4600 C   0  0  0  0  0  0  0  0  0  0  0  0
  137.7170   70.4680  223.8600 C   0  0  0  0  0  0  0  0  0  0  0  0
  137.6460   69.2510  224.6990 C   0  0  0  0  0  0  0  0  0  0  0  0
  135.4050   70.6350  223.7880 N   0  0  0  0  0  0  0  0  0  0  0  0
  139.3090   68.5240  226.3940 C   0  0  2  0  0  0  0  0  0  0  0  0
  138.5313   68.2970  227.1381 H   0  0  0  0  0  0  0  0  0  0  0  0
  139.9310   69.8600  226.7350 C   0  0  0  0  0  0  0  0  0  0  0  0
  140.8110   70.4910  225.8350 C   0  0  0  0  0  0  0  0  0  0  0  0
  141.0036   70.0396  224.8505 H   0  0  0  0  0  0  0  0  0  0  0  0
  141.4420   71.6900  226.1870 C   0  0  0  0  0  0  0  0  0  0  0  0
  142.1247   72.1796  225.4770 H   0  0  0  0  0  0  0  0  0  0  0  0
  141.2070   72.2660  227.4370 C   0  0  0  0  0  0  0  0  0  0  0  0
  141.7045   73.2081  227.7108 H   0  0  0  0  0  0  0  0  0  0  0  0
  140.3390   71.6450  228.3410 C   0  0  0  0  0  0  0  0  0  0  0  0
  140.1567   72.0978  229.3268 H   0  0  0  0  0  0  0  0  0  0  0  0
  139.7020   70.4480  227.9930 C   0  0  0  0  0  0  0  0  0  0  0  0
  139.0188   69.9644  228.7066 H   0  0  0  0  0  0  0  0  0  0  0  0
  140.3690   67.4230  226.4270 C   0  0  0  0  0  0  0  0  0  0  0  0
  140.6077   67.1750  227.4718 H   0  0  0  0  0  0  0  0  0  0  0  0
  139.9840   66.5279  225.9165 H   0  0  0  0  0  0  0  0  0  0  0  0
  141.2780   67.7738  225.9165 H   0  0  0  0  0  0  0  0  0  0  0  0
  136.3900   68.8010  225.1030 O   0  0  0  0  0  0  0  0  0  0  0  0
  135.6630   69.4550  225.3680 H   0  0  0  0  0  0  0  0  0  0  0  0
  138.9630   70.9050  223.4230 C   0  0  0  0  0  0  0  0  0  0  0  0
  139.8687   70.3422  223.6932 H   0  0  0  0  0  0  0  0  0  0  0  0
  139.0650   72.0570  222.6420 C   0  0  0  0  0  0  0  0  0  0  0  0
  140.3100   72.5340  222.1840 C   0  0  0  0  0  0  0  0  0  0  0  0
  141.3620   71.8900  222.4580 O   0  0  0  0  0  0  0  0  0  0  0  0
  140.3770   73.6920  221.4470 N   0  0  0  0  0  0  0  0  0  0  0  0
  141.5860   74.1630  220.9970 C   0  0  0  0  0  0  0  0  0  0  0  0
  142.5044   73.5984  221.2158 H   0  0  0  0  0  0  0  0  0  0  0  0
  141.6640   75.3500  220.2650 C   0  0  0  0  0  0  0  0  0  0  0  0
  143.2180   75.9440  219.7040 Cl  0  0  0  0  0  0  0  0  0  0  0  0
  140.4990   76.0620  219.9870 C   0  0  0  0  0  0  0  0  0  0  0  0
  140.5504   77.0041  219.4214 H   0  0  0  0  0  0  0  0  0  0  0  0
  139.2690   75.5780  220.4270 C   0  0  0  0  0  0  0  0  0  0  0  0
  137.8070   76.4830  220.0540 Cl  0  0  0  0  0  0  0  0  0  0  0  0
  139.2210   74.3840  221.1620 C   0  0  0  0  0  0  0  0  0  0  0  0
  138.0220   73.9150  221.5900 N   0  0  0  0  0  0  0  0  0  0  0  0
  137.8990   72.7720  222.3170 C   0  0  0  0  0  0  0  0  0  0  0  0
  136.6560   72.3280  222.7240 N   0  0  0  0  0  0  0  0  0  0  0  0
  135.4780   73.1900  222.4560 C   0  0  0  0  0  0  0  0  0  0  0  0
  135.7282   73.9095  221.6625 H   0  0  0  0  0  0  0  0  0  0  0  0
  134.6364   72.5563  222.1395 H   0  0  0  0  0  0  0  0  0  0  0  0
  135.0820   73.9440  223.7060 C   0  0  0  0  0  0  0  0  0  0  0  0
  135.3990   75.3070  223.8400 C   0  0  0  0  0  0  0  0  0  0  0  0
  135.9036   75.8342  223.0169 H   0  0  0  0  0  0  0  0  0  0  0  0
  135.0770   75.9970  225.0130 C   0  0  0  0  0  0  0  0  0  0  0  0
  135.3293   77.0633  225.1103 H   0  0  0  0  0  0  0  0  0  0  0  0
  134.4360   75.3340  226.0600 C   0  0  0  0  0  0  0  0  0  0  0  0
  134.1806   75.8788  226.9808 H   0  0  0  0  0  0  0  0  0  0  0  0
  134.1180   73.9780  225.9400 C   0  0  0  0  0  0  0  0  0  0  0  0
  133.6141   73.4563  226.7669 H   0  0  0  0  0  0  0  0  0  0  0  0
  134.4400   73.2850  224.7700 C   0  0  0  0  0  0  0  0  0  0  0  0
  134.1899   72.2176  224.6806 H   0  0  0  0  0  0  0  0  0  0  0  0
  1  2  1  0
  2  3  2  0
  3  4  1  0
  4  5  1  0
  5  6  2  0
  6  7  1  0
  7  8  1  1
  7  9  1  0
  9 10  2  0
 10 11  1  0
 10 12  1  0
 12 13  1  0
 12 14  2  0
 14 15  1  0
 14 16  1  0
 16 17  1  0
 16 18  2  0
 18 19  1  0
  7 20  1  0
 20 21  1  0
 20 22  1  0
 20 23  1  0
  5 24  1  0
 24 25  1  0
  4 26  2  0
 26 27  1  0
 26 28  1  0
 28 29  1  0
 29 30  2  0
 29 31  1  0
 31 32  1  0
 32 33  1  0
 32 34  2  0
 34 35  1  0
 34 36  1  0
 36 37  1  0
 36 38  2  0
 38 39  1  0
 38 40  1  0
 40 41  2  0
 41 42  1  0
 42 43  1  0
 43 44  1  0
 44 45  1  0
 44 46  1  0
 44 47  1  0
 47 48  2  0
 48 49  1  0
 48 50  1  0
 50 51  1  0
 50 52  2  0
 52 53  1  0
 52 54  1  0
 54 55  1  0
 54 56  2  0
 56 57  1  0
 43  3  1  0
 56 47  1  0
 18  9  1  0
 42 28  2  0
 40 31  1  0
M  END
>  <UniqueID>  (5) 
96

>  <SMILES>  (5) 
[H]/N=c1/c(/C(O)=N\[C@@H](C)c2ccccc2)cc2c(=O)n3cc(Cl)cc(Cl)c3nc2n1Cc1ccccc1

>  <Energy>  (5) 
88.58360833133418

>  <Genealogy>  (5) 
C[C@H](N=C(O)c1cc2c(=O)n3cc(Cl)cc(Cl)c3nc2n(Cc2ccccc2)c1=N)c1ccccc1 (tautomer)
[H]/N=c1/c(/C(O)=N\[C@@H](C)c2ccccc2)cc2c(=O)n3cc(Cl)cc(Cl)c3nc2n1Cc1ccccc1 (cis-trans isomerization)
[H]/N=c1/c(/C(O)=N\[C@@H](C)c2ccccc2)cc2c(=O)n3cc(Cl)cc(Cl)c3nc2n1Cc1ccccc1 (3D coordinates assigned)
[H]/N=c1/c(/C(O)=N\[C@@H](C)c2ccccc2)cc2c(=O)n3cc(Cl)cc(Cl)c3nc2n1Cc1ccccc1 (optimized conformer: 88.58360833133418 kcal/mol)

>  <smiles>  (5) 
C[C@H](NC(=O)c1cc2c(=O)n3cc(Cl)cc(Cl)c3nc2n(Cc2ccccc2)c1=N)c1ccccc1

>  <score_type>  (5) 
oracle

>  <origin>  (5) 
autodockgpu

>  <m_score__min__energy>  (5) 
-8.6899999999999995

>  <m_primary>  (5) 
energy

>  <meeko>  (5) 
{"free_energy": -8.12, "intermolecular_energy": -10.5, "internal_energy": -2.48, "cluster_size": 1, "cluster_id": 4, "rank_in_cluster": 1}

>  <energy>  (5) 
-8.44

>  <cluster_rmsd>  (5) 
0.58

>  <rmsd>  (5) 
269.26

>  <cluster>  (5) 
1

$$$$
AFKJZVLHPMIVAS-NNNXYCNANA-N
     RDKit          3D

 57 61  0  0  0  0  0  0  0  0999 V2000
  139.5910   74.0520  223.0910 H   0  0  0  0  0  0  0  0  0  0  0  0
  138.7800   77.4660  222.7340 N   0  0  0  0  0  0  0  0  0  0  0  0
  140.4990   74.6410  221.2860 C   0  0  0  0  0  0  0  0  0  0  0  0
  139.8040   75.8640  221.2010 C   0  0  0  0  0  0  0  0  0  0  0  0
  138.8160   76.2650  222.2270 C   0  0  0  0  0  0  0  0  0  0  0  0
  140.3010   73.9100  222.3460 N   0  0  0  0  0  0  0  0  0  0  0  0
  138.9630   78.7350  222.0200 C   0  0  2  0  0  0  0  0  0  0  0  0
  138.8998   78.5591  220.9360 H   0  0  0  0  0  0  0  0  0  0  0  0
  140.3240   79.3120  222.3390 C   0  0  0  0  0  0  0  0  0  0  0  0
  141.0390   80.0420  221.3700 C   0  0  0  0  0  0  0  0  0  0  0  0
  140.5809   80.2469  220.3911 H   0  0  0  0  0  0  0  0  0  0  0  0
  142.3290   80.5080  221.6460 C   0  0  0  0  0  0  0  0  0  0  0  0
  142.8799   81.0806  220.8853 H   0  0  0  0  0  0  0  0  0  0  0  0
  142.9190   80.2480  222.8850 C   0  0  0  0  0  0  0  0  0  0  0  0
  143.9331   80.6163  223.0995 H   0  0  0  0  0  0  0  0  0  0  0  0
  142.2210   79.5200  223.8520 C   0  0  0  0  0  0  0  0  0  0  0  0
  142.6880   79.3134  224.8263 H   0  0  0  0  0  0  0  0  0  0  0  0
  140.9290   79.0530  223.5840 C   0  0  0  0  0  0  0  0  0  0  0  0
  140.3838   78.4811  224.3493 H   0  0  0  0  0  0  0  0  0  0  0  0
  137.8640   79.7140  222.4340 C   0  0  0  0  0  0  0  0  0  0  0  0
  137.8101   79.7620  223.5316 H   0  0  0  0  0  0  0  0  0  0  0  0
  138.0930   80.7128  222.0341 H   0  0  0  0  0  0  0  0  0  0  0  0
  136.8982   79.3715  222.0341 H   0  0  0  0  0  0  0  0  0  0  0  0
  137.9050   75.3100  222.6740 O   0  0  0  0  0  0  0  0  0  0  0  0
  138.1790   74.3420  222.7870 H   0  0  0  0  0  0  0  0  0  0  0  0
  140.0790   76.7430  220.1590 C   0  0  0  0  0  0  0  0  0  0  0  0
  139.5738   77.7192  220.1164 H   0  0  0  0  0  0  0  0  0  0  0  0
  140.9940   76.3890  219.1680 C   0  0  0  0  0  0  0  0  0  0  0  0
  141.2960   77.2510  218.0940 C   0  0  0  0  0  0  0  0  0  0  0  0
  140.7490   78.3890  218.0380 O   0  0  0  0  0  0  0  0  0  0  0  0
  142.1760   76.8550  217.1160 N   0  0  0  0  0  0  0  0  0  0  0  0
  142.4750   77.6890  216.0670 C   0  0  0  0  0  0  0  0  0  0  0  0
  142.0171   78.6881  216.0200 H   0  0  0  0  0  0  0  0  0  0  0  0
  143.3530   77.2850  215.0590 C   0  0  0  0  0  0  0  0  0  0  0  0
  143.7180   78.3600  213.7190 Cl  0  0  0  0  0  0  0  0  0  0  0  0
  143.9330   76.0200  215.1210 C   0  0  0  0  0  0  0  0  0  0  0  0
  144.6161   75.6871  214.3257 H   0  0  0  0  0  0  0  0  0  0  0  0
  143.6460   75.1780  216.1920 C   0  0  0  0  0  0  0  0  0  0  0  0
  144.3990   73.5890  216.2630 Cl  0  0  0  0  0  0  0  0  0  0  0  0
  142.7590   75.6100  217.1910 C   0  0  0  0  0  0  0  0  0  0  0  0
  142.4790   74.7870  218.2330 N   0  0  0  0  0  0  0  0  0  0  0  0
  141.6210   75.1320  219.2300 C   0  0  0  0  0  0  0  0  0  0  0  0
  141.3750   74.2650  220.2770 N   0  0  0  0  0  0  0  0  0  0  0  0
  141.9700   72.9070  220.2210 C   0  0  0  0  0  0  0  0  0  0  0  0
  141.6357   72.3284  221.0948 H   0  0  0  0  0  0  0  0  0  0  0  0
  141.6448   72.4126  219.2937 H   0  0  0  0  0  0  0  0  0  0  0  0
  143.4800   72.9930  220.2280 C   0  0  0  0  0  0  0  0  0  0  0  0
  144.2510   71.9480  219.6890 C   0  0  0  0  0  0  0  0  0  0  0  0
  143.7520   71.0825  219.2286 H   0  0  0  0  0  0  0  0  0  0  0  0
  145.6470   72.0010  219.7340 C   0  0  0  0  0  0  0  0  0  0  0  0
  146.2424   71.1790  219.3100 H   0  0  0  0  0  0  0  0  0  0  0  0
  146.2860   73.0970  220.3170 C   0  0  0  0  0  0  0  0  0  0  0  0
  147.3847   73.1389  220.3498 H   0  0  0  0  0  0  0  0  0  0  0  0
  145.5310   74.1410  220.8590 C   0  0  0  0  0  0  0  0  0  0  0  0
  146.0359   75.0033  221.3189 H   0  0  0  0  0  0  0  0  0  0  0  0
  144.1350   74.0900  220.8170 C   0  0  0  0  0  0  0  0  0  0  0  0
  143.5447   74.9126  221.2471 H   0  0  0  0  0  0  0  0  0  0  0  0
  1  2  1  0
  2  3  2  0
  3  4  1  0
  4  5  1  0
  5  6  2  0
  6  7  1  0
  7  8  1  6
  7  9  1  0
  9 10  2  0
 10 11  1  0
 10 12  1  0
 12 13  1  0
 12 14  2  0
 14 15  1  0
 14 16  1  0
 16 17  1  0
 16 18  2  0
 18 19  1  0
  7 20  1  0
 20 21  1  0
 20 22  1  0
 20 23  1  0
  5 24  1  0
 24 25  1  0
  4 26  2  0
 26 27  1  0
 26 28  1  0
 28 29  1  0
 29 30  2  0
 29 31  1  0
 31 32  1  0
 32 33  1  0
 32 34  2  0
 34 35  1  0
 34 36  1  0
 36 37  1  0
 36 38  2  0
 38 39  1  0
 38 40  1  0
 40 41  2  0
 41 42  1  0
 42 43  1  0
 43 44  1  0
 44 45  1  0
 44 46  1  0
 44 47  1  0
 47 48  2  0
 48 49  1  0
 48 50  1  0
 50 51  1  0
 50 52  2  0
 52 53  1  0
 52 54  1  0
 54 55  1  0
 54 56  2  0
 56 57  1  0
 43  3  1  0
 56 47  1  0
 18  9  1  0
 42 28  2  0
 40 31  1  0
M  END
>  <UniqueID>  (6) 
96

>  <SMILES>  (6) 
[H]/N=c1/c(/C(O)=N\[C@@H](C)c2ccccc2)cc2c(=O)n3cc(Cl)cc(Cl)c3nc2n1Cc1ccccc1

>  <Energy>  (6) 
88.58360833133418

>  <Genealogy>  (6) 
C[C@H](N=C(O)c1cc2c(=O)n3cc(Cl)cc(Cl)c3nc2n(Cc2ccccc2)c1=N)c1ccccc1 (tautomer)
[H]/N=c1/c(/C(O)=N\[C@@H](C)c2ccccc2)cc2c(=O)n3cc(Cl)cc(Cl)c3nc2n1Cc1ccccc1 (cis-trans isomerization)
[H]/N=c1/c(/C(O)=N\[C@@H](C)c2ccccc2)cc2c(=O)n3cc(Cl)cc(Cl)c3nc2n1Cc1ccccc1 (3D coordinates assigned)
[H]/N=c1/c(/C(O)=N\[C@@H](C)c2ccccc2)cc2c(=O)n3cc(Cl)cc(Cl)c3nc2n1Cc1ccccc1 (optimized conformer: 88.58360833133418 kcal/mol)

>  <smiles>  (6) 
C[C@H](NC(=O)c1cc2c(=O)n3cc(Cl)cc(Cl)c3nc2n(Cc2ccccc2)c1=N)c1ccccc1

>  <score_type>  (6) 
oracle

>  <origin>  (6) 
autodockgpu

>  <m_score__min__energy>  (6) 
-8.6899999999999995

>  <m_primary>  (6) 
energy

>  <meeko>  (6) 
{"free_energy": -7.85, "intermolecular_energy": -10.24, "internal_energy": -2.61, "cluster_size": 5, "cluster_id": 2, "rank_in_cluster": 5}

>  <energy>  (6) 
-8.28

>  <cluster_rmsd>  (6) 
0.67

>  <rmsd>  (6) 
269.32

>  <cluster>  (6) 
1

$$$$
AFKJZVLHPMIVAS-NNNXYCNANA-N
     RDKit          3D

 57 61  0  0  0  0  0  0  0  0999 V2000
  139.4780   75.0680  223.4620 H   0  0  0  0  0  0  0  0  0  0  0  0
  140.6970   73.3050  220.1980 N   0  0  0  0  0  0  0  0  0  0  0  0
  139.8330   76.4720  221.9350 C   0  0  0  0  0  0  0  0  0  0  0  0
  140.3660   75.6010  220.9630 C   0  0  0  0  0  0  0  0  0  0  0  0
  140.3160   74.1320  221.1320 C   0  0  0  0  0  0  0  0  0  0  0  0
  139.2200   75.9350  222.9520 N   0  0  0  0  0  0  0  0  0  0  0  0
  141.7190   72.2580  220.3040 C   0  0  2  0  0  0  0  0  0  0  0  0
  141.5460   71.6666  221.2152 H   0  0  0  0  0  0  0  0  0  0  0  0
  143.0920   72.8880  220.3870 C   0  0  0  0  0  0  0  0  0  0  0  0
  144.1930   72.1480  220.8610 C   0  0  0  0  0  0  0  0  0  0  0  0
  144.0688   71.0856  221.1176 H   0  0  0  0  0  0  0  0  0  0  0  0
  145.4440   72.7580  221.0070 C   0  0  0  0  0  0  0  0  0  0  0  0
  146.3002   72.1730  221.3739 H   0  0  0  0  0  0  0  0  0  0  0  0
  145.6080   74.1080  220.6880 C   0  0  0  0  0  0  0  0  0  0  0  0
  146.5927   74.5846  220.8028 H   0  0  0  0  0  0  0  0  0  0  0  0
  144.5210   74.8530  220.2230 C   0  0  0  0  0  0  0  0  0  0  0  0
  144.6504   75.9169  219.9752 H   0  0  0  0  0  0  0  0  0  0  0  0
  143.2680   74.2480  220.0720 C   0  0  0  0  0  0  0  0  0  0  0  0
  142.4160   74.8391  219.7050 H   0  0  0  0  0  0  0  0  0  0  0  0
  141.6330   71.3380  219.0860 C   0  0  0  0  0  0  0  0  0  0  0  0
  141.5355   70.2947  219.4207 H   0  0  0  0  0  0  0  0  0  0  0  0
  140.7566   71.6123  218.4805 H   0  0  0  0  0  0  0  0  0  0  0  0
  142.5451   71.4451  218.4805 H   0  0  0  0  0  0  0  0  0  0  0  0
  139.8270   73.6220  222.3330 O   0  0  0  0  0  0  0  0  0  0  0  0
  138.9420   73.9390  222.7110 H   0  0  0  0  0  0  0  0  0  0  0  0
  140.9110   76.1210  219.7940 C   0  0  0  0  0  0  0  0  0  0  0  0
  141.2842   75.4426  219.0127 H   0  0  0  0  0  0  0  0  0  0  0  0
  140.9850   77.5020  219.6110 C   0  0  0  0  0  0  0  0  0  0  0  0
  141.5330   78.0670  218.4420 C   0  0  0  0  0  0  0  0  0  0  0  0
  141.9430   77.3080  217.5180 O   0  0  0  0  0  0  0  0  0  0  0  0
  141.6240   79.4320  218.3100 N   0  0  0  0  0  0  0  0  0  0  0  0
  142.1570   79.9890  217.1740 C   0  0  0  0  0  0  0  0  0  0  0  0
  142.4984   79.3360  216.3572 H   0  0  0  0  0  0  0  0  0  0  0  0
  142.2710   81.3750  217.0430 C   0  0  0  0  0  0  0  0  0  0  0  0
  142.9630   82.0720  215.5880 Cl  0  0  0  0  0  0  0  0  0  0  0  0
  141.8350   82.2000  218.0770 C   0  0  0  0  0  0  0  0  0  0  0  0
  141.9305   83.2923  217.9884 H   0  0  0  0  0  0  0  0  0  0  0  0
  141.2780   81.6390  219.2230 C   0  0  0  0  0  0  0  0  0  0  0  0
  140.7190   82.6970  220.5140 Cl  0  0  0  0  0  0  0  0  0  0  0  0
  141.1770   80.2430  219.3290 C   0  0  0  0  0  0  0  0  0  0  0  0
  140.6350   79.6980  220.4470 N   0  0  0  0  0  0  0  0  0  0  0  0
  140.5170   78.3550  220.6260 C   0  0  0  0  0  0  0  0  0  0  0  0
  139.9490   77.8460  221.7770 N   0  0  0  0  0  0  0  0  0  0  0  0
  139.5880   78.7930  222.8620 C   0  0  0  0  0  0  0  0  0  0  0  0
  138.8037   79.4750  222.5017 H   0  0  0  0  0  0  0  0  0  0  0  0
  139.2232   78.2211  223.7279 H   0  0  0  0  0  0  0  0  0  0  0  0
  140.7960   79.6000  223.2810 C   0  0  0  0  0  0  0  0  0  0  0  0
  140.6330   80.8800  223.8390 C   0  0  0  0  0  0  0  0  0  0  0  0
  139.6214   81.2787  224.0054 H   0  0  0  0  0  0  0  0  0  0  0  0
  141.7490   81.6500  224.1840 C   0  0  0  0  0  0  0  0  0  0  0  0
  141.6128   82.6509  224.6195 H   0  0  0  0  0  0  0  0  0  0  0  0
  143.0350   81.1490  223.9760 C   0  0  0  0  0  0  0  0  0  0  0  0
  143.9118   81.7539  224.2505 H   0  0  0  0  0  0  0  0  0  0  0  0
  143.2090   79.8790  223.4190 C   0  0  0  0  0  0  0  0  0  0  0  0
  144.2232   79.4862  223.2542 H   0  0  0  0  0  0  0  0  0  0  0  0
  142.0970   79.1070  223.0710 C   0  0  0  0  0  0  0  0  0  0  0  0
  142.2397   78.1091  222.6308 H   0  0  0  0  0  0  0  0  0  0  0  0
  1  2  1  0
  2  3  2  0
  3  4  1  0
  4  5  1  0
  5  6  2  0
  6  7  1  0
  7  8  1  1
  7  9  1  0
  9 10  2  0
 10 11  1  0
 10 12  1  0
 12 13  1  0
 12 14  2  0
 14 15  1  0
 14 16  1  0
 16 17  1  0
 16 18  2  0
 18 19  1  0
  7 20  1  0
 20 21  1  0
 20 22  1  0
 20 23  1  0
  5 24  1  0
 24 25  1  0
  4 26  2  0
 26 27  1  0
 26 28  1  0
 28 29  1  0
 29 30  2  0
 29 31  1  0
 31 32  1  0
 32 33  1  0
 32 34  2  0
 34 35  1  0
 34 36  1  0
 36 37  1  0
 36 38  2  0
 38 39  1  0
 38 40  1  0
 40 41  2  0
 41 42  1  0
 42 43  1  0
 43 44  1  0
 44 45  1  0
 44 46  1  0
 44 47  1  0
 47 48  2  0
 48 49  1  0
 48 50  1  0
 50 51  1  0
 50 52  2  0
 52 53  1  0
 52 54  1  0
 54 55  1  0
 54 56  2  0
 56 57  1  0
 43  3  1  0
 56 47  1  0
 18  9  1  0
 42 28  2  0
 40 31  1  0
M  END
>  <UniqueID>  (7) 
96

>  <SMILES>  (7) 
[H]/N=c1/c(/C(O)=N\[C@@H](C)c2ccccc2)cc2c(=O)n3cc(Cl)cc(Cl)c3nc2n1Cc1ccccc1

>  <Energy>  (7) 
88.58360833133418

>  <Genealogy>  (7) 
C[C@H](N=C(O)c1cc2c(=O)n3cc(Cl)cc(Cl)c3nc2n(Cc2ccccc2)c1=N)c1ccccc1 (tautomer)
[H]/N=c1/c(/C(O)=N\[C@@H](C)c2ccccc2)cc2c(=O)n3cc(Cl)cc(Cl)c3nc2n1Cc1ccccc1 (cis-trans isomerization)
[H]/N=c1/c(/C(O)=N\[C@@H](C)c2ccccc2)cc2c(=O)n3cc(Cl)cc(Cl)c3nc2n1Cc1ccccc1 (3D coordinates assigned)
[H]/N=c1/c(/C(O)=N\[C@@H](C)c2ccccc2)cc2c(=O)n3cc(Cl)cc(Cl)c3nc2n1Cc1ccccc1 (optimized conformer: 88.58360833133418 kcal/mol)

>  <smiles>  (7) 
C[C@H](NC(=O)c1cc2c(=O)n3cc(Cl)cc(Cl)c3nc2n(Cc2ccccc2)c1=N)c1ccccc1

>  <score_type>  (7) 
oracle

>  <origin>  (7) 
autodockgpu

>  <m_score__min__energy>  (7) 
-8.6899999999999995

>  <m_primary>  (7) 
energy

>  <meeko>  (7) 
{"free_energy": -8.46, "intermolecular_energy": -10.85, "internal_energy": -2.35, "cluster_size": 9, "cluster_id": 1, "rank_in_cluster": 3}

>  <energy>  (7) 
-8.18

>  <cluster_rmsd>  (7) 
0.71

>  <rmsd>  (7) 
269.27

>  <cluster>  (7) 
1

$$$$
AFKJZVLHPMIVAS-NNNXYCNANA-N
     RDKit          3D

 57 61  0  0  0  0  0  0  0  0999 V2000
  138.7690   74.9730  222.6980 H   0  0  0  0  0  0  0  0  0  0  0  0
  141.3980   73.2850  220.0740 N   0  0  0  0  0  0  0  0  0  0  0  0
  140.1490   76.3080  221.8350 C   0  0  0  0  0  0  0  0  0  0  0  0
  140.7780   75.5140  220.8560 C   0  0  0  0  0  0  0  0  0  0  0  0
  140.7990   74.0380  220.9530 C   0  0  0  0  0  0  0  0  0  0  0  0
  139.5130   75.6910  222.7910 N   0  0  0  0  0  0  0  0  0  0  0  0
  142.3200   72.1740  220.3380 C   0  0  2  0  0  0  0  0  0  0  0  0
  142.0491   71.6908  221.2883 H   0  0  0  0  0  0  0  0  0  0  0  0
  143.7360   72.6960  220.4450 C   0  0  0  0  0  0  0  0  0  0  0  0
  143.9810   74.0330  220.8130 C   0  0  0  0  0  0  0  0  0  0  0  0
  143.1402   74.6892  221.0822 H   0  0  0  0  0  0  0  0  0  0  0  0
  145.2880   74.5310  220.8380 C   0  0  0  0  0  0  0  0  0  0  0  0
  145.4721   75.5750  221.1314 H   0  0  0  0  0  0  0  0  0  0  0  0
  146.3600   73.7050  220.4910 C   0  0  0  0  0  0  0  0  0  0  0  0
  147.3868   74.0992  220.5106 H   0  0  0  0  0  0  0  0  0  0  0  0
  146.1280   72.3780  220.1190 C   0  0  0  0  0  0  0  0  0  0  0  0
  146.9727   71.7293  219.8438 H   0  0  0  0  0  0  0  0  0  0  0  0
  144.8230   71.8730  220.0960 C   0  0  0  0  0  0  0  0  0  0  0  0
  144.6460   70.8275  219.8036 H   0  0  0  0  0  0  0  0  0  0  0  0
  142.2190   71.1480  219.2090 C   0  0  0  0  0  0  0  0  0  0  0  0
  142.1197   70.1398  219.6376 H   0  0  0  0  0  0  0  0  0  0  0  0
  141.3385   71.3710  218.5886 H   0  0  0  0  0  0  0  0  0  0  0  0
  143.1261   71.1950  218.5886 H   0  0  0  0  0  0  0  0  0  0  0  0
  140.1360   73.4380  222.0220 O   0  0  0  0  0  0  0  0  0  0  0  0
  139.7590   73.9950  222.7800 H   0  0  0  0  0  0  0  0  0  0  0  0
  141.3550   76.1180  219.7430 C   0  0  0  0  0  0  0  0  0  0  0  0
  141.8045   75.4985  218.9530 H   0  0  0  0  0  0  0  0  0  0  0  0
  141.3640   77.5080  219.6280 C   0  0  0  0  0  0  0  0  0  0  0  0
  141.9410   78.1570  218.5180 C   0  0  0  0  0  0  0  0  0  0  0  0
  142.4390   77.4660  217.5840 O   0  0  0  0  0  0  0  0  0  0  0  0
  141.9650   79.5290  218.4540 N   0  0  0  0  0  0  0  0  0  0  0  0
  142.5260   80.1680  217.3760 C   0  0  0  0  0  0  0  0  0  0  0  0
  142.9452   79.5743  216.5503 H   0  0  0  0  0  0  0  0  0  0  0  0
  142.5710   81.5630  217.3150 C   0  0  0  0  0  0  0  0  0  0  0  0
  143.3000   82.3650  215.9340 Cl  0  0  0  0  0  0  0  0  0  0  0  0
  142.0380   82.3130  218.3610 C   0  0  0  0  0  0  0  0  0  0  0  0
  142.0797   83.4117  218.3288 H   0  0  0  0  0  0  0  0  0  0  0  0
  141.4520   81.6680  219.4480 C   0  0  0  0  0  0  0  0  0  0  0  0
  140.7700   82.6320  220.7530 Cl  0  0  0  0  0  0  0  0  0  0  0  0
  141.4220   80.2660  219.4830 C   0  0  0  0  0  0  0  0  0  0  0  0
  140.8520   79.6400  220.5440 N   0  0  0  0  0  0  0  0  0  0  0  0
  140.7970   78.2850  220.6540 C   0  0  0  0  0  0  0  0  0  0  0  0
  140.1980   77.6920  221.7480 N   0  0  0  0  0  0  0  0  0  0  0  0
  139.7300   78.5650  222.8530 C   0  0  0  0  0  0  0  0  0  0  0  0
  138.8779   79.1666  222.5037 H   0  0  0  0  0  0  0  0  0  0  0  0
  139.4249   77.9346  223.7012 H   0  0  0  0  0  0  0  0  0  0  0  0
  140.8410   79.4880  223.3020 C   0  0  0  0  0  0  0  0  0  0  0  0
  140.5370   80.7520  223.8370 C   0  0  0  0  0  0  0  0  0  0  0  0
  139.4868   81.0538  223.9630 H   0  0  0  0  0  0  0  0  0  0  0  0
  141.5610   81.6280  224.2100 C   0  0  0  0  0  0  0  0  0  0  0  0
  141.3148   82.6155  224.6274 H   0  0  0  0  0  0  0  0  0  0  0  0
  142.8960   81.2500  224.0530 C   0  0  0  0  0  0  0  0  0  0  0  0
  143.7009   81.9386  224.3497 H   0  0  0  0  0  0  0  0  0  0  0  0
  143.2100   79.9970  223.5190 C   0  0  0  0  0  0  0  0  0  0  0  0
  144.2620   79.7011  223.3939 H   0  0  0  0  0  0  0  0  0  0  0  0
  142.1890   79.1200  223.1440 C   0  0  0  0  0  0  0  0  0  0  0  0
  142.4412   78.1357  222.7226 H   0  0  0  0  0  0  0  0  0  0  0  0
  1  2  1  0
  2  3  2  0
  3  4  1  0
  4  5  1  0
  5  6  2  0
  6  7  1  0
  7  8  1  1
  7  9  1  0
  9 10  2  0
 10 11  1  0
 10 12  1  0
 12 13  1  0
 12 14  2  0
 14 15  1  0
 14 16  1  0
 16 17  1  0
 16 18  2  0
 18 19  1  0
  7 20  1  0
 20 21  1  0
 20 22  1  0
 20 23  1  0
  5 24  1  0
 24 25  1  0
  4 26  2  0
 26 27  1  0
 26 28  1  0
 28 29  1  0
 29 30  2  0
 29 31  1  0
 31 32  1  0
 32 33  1  0
 32 34  2  0
 34 35  1  0
 34 36  1  0
 36 37  1  0
 36 38  2  0
 38 39  1  0
 38 40  1  0
 40 41  2  0
 41 42  1  0
 42 43  1  0
 43 44  1  0
 44 45  1  0
 44 46  1  0
 44 47  1  0
 47 48  2  0
 48 49  1  0
 48 50  1  0
 50 51  1  0
 50 52  2  0
 52 53  1  0
 52 54  1  0
 54 55  1  0
 54 56  2  0
 56 57  1  0
 43  3  1  0
 56 47  1  0
 18  9  1  0
 42 28  2  0
 40 31  1  0
M  END
>  <UniqueID>  (8) 
96

>  <SMILES>  (8) 
[H]/N=c1/c(/C(O)=N\[C@@H](C)c2ccccc2)cc2c(=O)n3cc(Cl)cc(Cl)c3nc2n1Cc1ccccc1

>  <Energy>  (8) 
88.58360833133418

>  <Genealogy>  (8) 
C[C@H](N=C(O)c1cc2c(=O)n3cc(Cl)cc(Cl)c3nc2n(Cc2ccccc2)c1=N)c1ccccc1 (tautomer)
[H]/N=c1/c(/C(O)=N\[C@@H](C)c2ccccc2)cc2c(=O)n3cc(Cl)cc(Cl)c3nc2n1Cc1ccccc1 (cis-trans isomerization)
[H]/N=c1/c(/C(O)=N\[C@@H](C)c2ccccc2)cc2c(=O)n3cc(Cl)cc(Cl)c3nc2n1Cc1ccccc1 (3D coordinates assigned)
[H]/N=c1/c(/C(O)=N\[C@@H](C)c2ccccc2)cc2c(=O)n3cc(Cl)cc(Cl)c3nc2n1Cc1ccccc1 (optimized conformer: 88.58360833133418 kcal/mol)

>  <smiles>  (8) 
C[C@H](NC(=O)c1cc2c(=O)n3cc(Cl)cc(Cl)c3nc2n(Cc2ccccc2)c1=N)c1ccccc1

>  <score_type>  (8) 
oracle

>  <origin>  (8) 
autodockgpu

>  <m_score__min__energy>  (8) 
-8.6899999999999995

>  <m_primary>  (8) 
energy

>  <meeko>  (8) 
{"free_energy": -8.69, "intermolecular_energy": -11.07, "internal_energy": -2.22, "cluster_size": 9, "cluster_id": 1, "rank_in_cluster": 1}

>  <energy>  (8) 
-8.15

>  <cluster_rmsd>  (8) 
0.71

>  <rmsd>  (8) 
269.28

>  <cluster>  (8) 
1

$$$$
AFKJZVLHPMIVAS-NNNXYCNANA-N
     RDKit          3D

 57 61  0  0  0  0  0  0  0  0999 V2000
  139.5780   74.1380  223.0350 H   0  0  0  0  0  0  0  0  0  0  0  0
  139.0060   77.6550  222.8530 N   0  0  0  0  0  0  0  0  0  0  0  0
  140.5500   74.8020  221.2900 C   0  0  0  0  0  0  0  0  0  0  0  0
  139.9010   76.0530  221.2410 C   0  0  0  0  0  0  0  0  0  0  0  0
  138.9570   76.4750  222.2990 C   0  0  0  0  0  0  0  0  0  0  0  0
  140.3500   74.0620  222.3440 N   0  0  0  0  0  0  0  0  0  0  0  0
  139.2000   78.9440  222.1770 C   0  0  2  0  0  0  0  0  0  0  0  0
  139.2113   78.7907  221.0878 H   0  0  0  0  0  0  0  0  0  0  0  0
  140.5210   79.5480  222.5950 C   0  0  0  0  0  0  0  0  0  0  0  0
  141.7350   78.9080  222.2780 C   0  0  0  0  0  0  0  0  0  0  0  0
  141.7279   77.9910  221.6706 H   0  0  0  0  0  0  0  0  0  0  0  0
  142.9500   79.4330  222.7320 C   0  0  0  0  0  0  0  0  0  0  0  0
  143.8944   78.9299  222.4770 H   0  0  0  0  0  0  0  0  0  0  0  0
  142.9670   80.5940  223.5080 C   0  0  0  0  0  0  0  0  0  0  0  0
  143.9238   81.0040  223.8635 H   0  0  0  0  0  0  0  0  0  0  0  0
  141.7680   81.2350  223.8330 C   0  0  0  0  0  0  0  0  0  0  0  0
  141.7820   82.1479  224.4465 H   0  0  0  0  0  0  0  0  0  0  0  0
  140.5500   80.7170  223.3790 C   0  0  0  0  0  0  0  0  0  0  0  0
  139.6095   81.2262  223.6362 H   0  0  0  0  0  0  0  0  0  0  0  0
  138.0500   79.8850  222.5390 C   0  0  0  0  0  0  0  0  0  0  0  0
  137.9643   79.9551  223.6334 H   0  0  0  0  0  0  0  0  0  0  0  0
  138.2481   80.8834  222.1220 H   0  0  0  0  0  0  0  0  0  0  0  0
  137.1105   79.4932  222.1220 H   0  0  0  0  0  0  0  0  0  0  0  0
  137.9920   75.5640  222.7250 O   0  0  0  0  0  0  0  0  0  0  0  0
  138.2110   74.5800  222.8180 H   0  0  0  0  0  0  0  0  0  0  0  0
  140.1840   76.9370  220.2060 C   0  0  0  0  0  0  0  0  0  0  0  0
  139.7172   77.9329  220.1914 H   0  0  0  0  0  0  0  0  0  0  0  0
  141.0590   76.5630  219.1860 C   0  0  0  0  0  0  0  0  0  0  0  0
  141.3680   77.4300  218.1180 C   0  0  0  0  0  0  0  0  0  0  0  0
  140.8650   78.5900  218.0940 O   0  0  0  0  0  0  0  0  0  0  0  0
  142.2060   77.0150  217.1110 N   0  0  0  0  0  0  0  0  0  0  0  0
  142.5110   77.8540  216.0670 C   0  0  0  0  0  0  0  0  0  0  0  0
  142.0921   78.8709  216.0471 H   0  0  0  0  0  0  0  0  0  0  0  0
  143.3460   77.4320  215.0310 C   0  0  0  0  0  0  0  0  0  0  0  0
  143.7200   78.5130  213.6990 Cl  0  0  0  0  0  0  0  0  0  0  0  0
  143.8760   76.1440  215.0590 C   0  0  0  0  0  0  0  0  0  0  0  0
  144.5242   75.7970  214.2408 H   0  0  0  0  0  0  0  0  0  0  0  0
  143.5840   75.2970  216.1240 C   0  0  0  0  0  0  0  0  0  0  0  0
  144.2750   73.6780  216.1510 Cl  0  0  0  0  0  0  0  0  0  0  0  0
  142.7400   75.7470  217.1520 C   0  0  0  0  0  0  0  0  0  0  0  0
  142.4550   74.9190  218.1880 N   0  0  0  0  0  0  0  0  0  0  0  0
  141.6370   75.2810  219.2130 C   0  0  0  0  0  0  0  0  0  0  0  0
  141.3830   74.4080  220.2520 N   0  0  0  0  0  0  0  0  0  0  0  0
  141.9220   73.0280  220.1600 C   0  0  0  0  0  0  0  0  0  0  0  0
  141.5212   72.4260  220.9889 H   0  0  0  0  0  0  0  0  0  0  0  0
  141.6218   72.5904  219.1965 H   0  0  0  0  0  0  0  0  0  0  0  0
  143.4320   73.0470  220.2420 C   0  0  0  0  0  0  0  0  0  0  0  0
  144.0970   74.1450  220.8170 C   0  0  0  0  0  0  0  0  0  0  0  0
  143.5139   74.9756  221.2413 H   0  0  0  0  0  0  0  0  0  0  0  0
  145.4940   74.1880  220.8530 C   0  0  0  0  0  0  0  0  0  0  0  0
  146.0060   75.0508  221.3041 H   0  0  0  0  0  0  0  0  0  0  0  0
  146.2390   73.1370  220.3170 C   0  0  0  0  0  0  0  0  0  0  0  0
  147.3380   73.1706  220.3488 H   0  0  0  0  0  0  0  0  0  0  0  0
  145.5910   72.0420  219.7400 C   0  0  0  0  0  0  0  0  0  0  0  0
  146.1805   71.2158  219.3159 H   0  0  0  0  0  0  0  0  0  0  0  0
  144.1940   71.9950  219.7010 C   0  0  0  0  0  0  0  0  0  0  0  0
  143.6881   71.1312  219.2450 H   0  0  0  0  0  0  0  0  0  0  0  0
  1  2  1  0
  2  3  2  0
  3  4  1  0
  4  5  1  0
  5  6  2  0
  6  7  1  0
  7  8  1  6
  7  9  1  0
  9 10  2  0
 10 11  1  0
 10 12  1  0
 12 13  1  0
 12 14  2  0
 14 15  1  0
 14 16  1  0
 16 17  1  0
 16 18  2  0
 18 19  1  0
  7 20  1  0
 20 21  1  0
 20 22  1  0
 20 23  1  0
  5 24  1  0
 24 25  1  0
  4 26  2  0
 26 27  1  0
 26 28  1  0
 28 29  1  0
 29 30  2  0
 29 31  1  0
 31 32  1  0
 32 33  1  0
 32 34  2  0
 34 35  1  0
 34 36  1  0
 36 37  1  0
 36 38  2  0
 38 39  1  0
 38 40  1  0
 40 41  2  0
 41 42  1  0
 42 43  1  0
 43 44  1  0
 44 45  1  0
 44 46  1  0
 44 47  1  0
 47 48  2  0
 48 49  1  0
 48 50  1  0
 50 51  1  0
 50 52  2  0
 52 53  1  0
 52 54  1  0
 54 55  1  0
 54 56  2  0
 56 57  1  0
 43  3  1  0
 56 47  1  0
 18  9  1  0
 42 28  2  0
 40 31  1  0
M  END
>  <UniqueID>  (9) 
96

>  <SMILES>  (9) 
[H]/N=c1/c(/C(O)=N\[C@@H](C)c2ccccc2)cc2c(=O)n3cc(Cl)cc(Cl)c3nc2n1Cc1ccccc1

>  <Energy>  (9) 
88.58360833133418

>  <Genealogy>  (9) 
C[C@H](N=C(O)c1cc2c(=O)n3cc(Cl)cc(Cl)c3nc2n(Cc2ccccc2)c1=N)c1ccccc1 (tautomer)
[H]/N=c1/c(/C(O)=N\[C@@H](C)c2ccccc2)cc2c(=O)n3cc(Cl)cc(Cl)c3nc2n1Cc1ccccc1 (cis-trans isomerization)
[H]/N=c1/c(/C(O)=N\[C@@H](C)c2ccccc2)cc2c(=O)n3cc(Cl)cc(Cl)c3nc2n1Cc1ccccc1 (3D coordinates assigned)
[H]/N=c1/c(/C(O)=N\[C@@H](C)c2ccccc2)cc2c(=O)n3cc(Cl)cc(Cl)c3nc2n1Cc1ccccc1 (optimized conformer: 88.58360833133418 kcal/mol)

>  <smiles>  (9) 
C[C@H](NC(=O)c1cc2c(=O)n3cc(Cl)cc(Cl)c3nc2n(Cc2ccccc2)c1=N)c1ccccc1

>  <score_type>  (9) 
oracle

>  <origin>  (9) 
autodockgpu

>  <m_score__min__energy>  (9) 
-8.6899999999999995

>  <m_primary>  (9) 
energy

>  <meeko>  (9) 
{"free_energy": -8.17, "intermolecular_energy": -10.55, "internal_energy": -2.51, "cluster_size": 5, "cluster_id": 2, "rank_in_cluster": 2}

>  <energy>  (9) 
-8.03

>  <cluster_rmsd>  (9) 
0.81

>  <rmsd>  (9) 
269.26

>  <cluster>  (9) 
1

$$$$
AFKJZVLHPMIVAS-NNNXYCNANA-N
     RDKit          3D

 57 61  0  0  0  0  0  0  0  0999 V2000
  139.6080   74.2240  223.0660 H   0  0  0  0  0  0  0  0  0  0  0  0
  138.9650   77.6970  222.8260 N   0  0  0  0  0  0  0  0  0  0  0  0
  140.5330   74.8440  221.2800 C   0  0  0  0  0  0  0  0  0  0  0  0
  139.8770   76.0910  221.2280 C   0  0  0  0  0  0  0  0  0  0  0  0
  138.9310   76.5110  222.2860 C   0  0  0  0  0  0  0  0  0  0  0  0
  140.3370   74.1060  222.3360 N   0  0  0  0  0  0  0  0  0  0  0  0
  139.1950   78.9760  222.1430 C   0  0  2  0  0  0  0  0  0  0  0  0
  139.2215   78.8130  221.0555 H   0  0  0  0  0  0  0  0  0  0  0  0
  140.5210   79.5580  222.5790 C   0  0  0  0  0  0  0  0  0  0  0  0
  141.7280   78.9000  222.2750 C   0  0  0  0  0  0  0  0  0  0  0  0
  141.7135   77.9855  221.6639 H   0  0  0  0  0  0  0  0  0  0  0  0
  142.9460   79.4030  222.7460 C   0  0  0  0  0  0  0  0  0  0  0  0
  143.8850   78.8845  222.5022 H   0  0  0  0  0  0  0  0  0  0  0  0
  142.9720   80.5620  223.5250 C   0  0  0  0  0  0  0  0  0  0  0  0
  143.9309   80.9560  223.8929 H   0  0  0  0  0  0  0  0  0  0  0  0
  141.7800   81.2210  223.8370 C   0  0  0  0  0  0  0  0  0  0  0  0
  141.8015   82.1320  224.4531 H   0  0  0  0  0  0  0  0  0  0  0  0
  140.5580   80.7240  223.3670 C   0  0  0  0  0  0  0  0  0  0  0  0
  139.6226   81.2472  223.6147 H   0  0  0  0  0  0  0  0  0  0  0  0
  138.0580   79.9420  222.4760 C   0  0  0  0  0  0  0  0  0  0  0  0
  137.9574   80.0274  223.5681 H   0  0  0  0  0  0  0  0  0  0  0  0
  138.2807   80.9313  222.0498 H   0  0  0  0  0  0  0  0  0  0  0  0
  137.1177   79.5624  222.0498 H   0  0  0  0  0  0  0  0  0  0  0  0
  137.9820   75.5900  222.7250 O   0  0  0  0  0  0  0  0  0  0  0  0
  138.2170   74.6110  222.8320 H   0  0  0  0  0  0  0  0  0  0  0  0
  140.1550   76.9740  220.1910 C   0  0  0  0  0  0  0  0  0  0  0  0
  139.6824   77.9672  220.1741 H   0  0  0  0  0  0  0  0  0  0  0  0
  141.0320   76.6030  219.1720 C   0  0  0  0  0  0  0  0  0  0  0  0
  141.3360   77.4680  218.1010 C   0  0  0  0  0  0  0  0  0  0  0  0
  140.8260   78.6250  218.0740 O   0  0  0  0  0  0  0  0  0  0  0  0
  142.1760   77.0560  217.0950 N   0  0  0  0  0  0  0  0  0  0  0  0
  142.4760   77.8940  216.0490 C   0  0  0  0  0  0  0  0  0  0  0  0
  142.0515   78.9085  216.0266 H   0  0  0  0  0  0  0  0  0  0  0  0
  143.3130   77.4740  215.0140 C   0  0  0  0  0  0  0  0  0  0  0  0
  143.6800   78.5540  213.6790 Cl  0  0  0  0  0  0  0  0  0  0  0  0
  143.8510   76.1890  215.0450 C   0  0  0  0  0  0  0  0  0  0  0  0
  144.5018   75.8440  214.2280 H   0  0  0  0  0  0  0  0  0  0  0  0
  143.5630   75.3430  216.1120 C   0  0  0  0  0  0  0  0  0  0  0  0
  144.2630   73.7290  216.1430 Cl  0  0  0  0  0  0  0  0  0  0  0  0
  142.7170   75.7910  217.1390 C   0  0  0  0  0  0  0  0  0  0  0  0
  142.4370   74.9640  218.1780 N   0  0  0  0  0  0  0  0  0  0  0  0
  141.6170   75.3240  219.2020 C   0  0  0  0  0  0  0  0  0  0  0  0
  141.3680   74.4530  220.2430 N   0  0  0  0  0  0  0  0  0  0  0  0
  141.9150   73.0760  220.1550 C   0  0  0  0  0  0  0  0  0  0  0  0
  141.5551   72.4875  221.0118 H   0  0  0  0  0  0  0  0  0  0  0  0
  141.5781   72.6174  219.2137 H   0  0  0  0  0  0  0  0  0  0  0  0
  143.4270   73.1080  220.1720 C   0  0  0  0  0  0  0  0  0  0  0  0
  144.1640   72.0630  219.5840 C   0  0  0  0  0  0  0  0  0  0  0  0
  143.6374   71.2395  219.0795 H   0  0  0  0  0  0  0  0  0  0  0  0
  145.5610   72.0650  219.6370 C   0  0  0  0  0  0  0  0  0  0  0  0
  146.1296   71.2447  219.1747 H   0  0  0  0  0  0  0  0  0  0  0  0
  146.2350   73.1070  220.2760 C   0  0  0  0  0  0  0  0  0  0  0  0
  147.3343   73.1087  220.3144 H   0  0  0  0  0  0  0  0  0  0  0  0
  145.5140   74.1480  220.8670 C   0  0  0  0  0  0  0  0  0  0  0  0
  146.0466   74.9671  221.3724 H   0  0  0  0  0  0  0  0  0  0  0  0
  144.1170   74.1500  220.8170 C   0  0  0  0  0  0  0  0  0  0  0  0
  143.5542   74.9712  221.2848 H   0  0  0  0  0  0  0  0  0  0  0  0
  1  2  1  0
  2  3  2  0
  3  4  1  0
  4  5  1  0
  5  6  2  0
  6  7  1  0
  7  8  1  6
  7  9  1  0
  9 10  2  0
 10 11  1  0
 10 12  1  0
 12 13  1  0
 12 14  2  0
 14 15  1  0
 14 16  1  0
 16 17  1  0
 16 18  2  0
 18 19  1  0
  7 20  1  0
 20 21  1  0
 20 22  1  0
 20 23  1  0
  5 24  1  0
 24 25  1  0
  4 26  2  0
 26 27  1  0
 26 28  1  0
 28 29  1  0
 29 30  2  0
 29 31  1  0
 31 32  1  0
 32 33  1  0
 32 34  2  0
 34 35  1  0
 34 36  1  0
 36 37  1  0
 36 38  2  0
 38 39  1  0
 38 40  1  0
 40 41  2  0
 41 42  1  0
 42 43  1  0
 43 44  1  0
 44 45  1  0
 44 46  1  0
 44 47  1  0
 47 48  2  0
 48 49  1  0
 48 50  1  0
 50 51  1  0
 50 52  2  0
 52 53  1  0
 52 54  1  0
 54 55  1  0
 54 56  2  0
 56 57  1  0
 43  3  1  0
 56 47  1  0
 18  9  1  0
 42 28  2  0
 40 31  1  0
M  END
>  <UniqueID>  (10) 
96

>  <SMILES>  (10) 
[H]/N=c1/c(/C(O)=N\[C@@H](C)c2ccccc2)cc2c(=O)n3cc(Cl)cc(Cl)c3nc2n1Cc1ccccc1

>  <Energy>  (10) 
88.58360833133418

>  <Genealogy>  (10) 
C[C@H](N=C(O)c1cc2c(=O)n3cc(Cl)cc(Cl)c3nc2n(Cc2ccccc2)c1=N)c1ccccc1 (tautomer)
[H]/N=c1/c(/C(O)=N\[C@@H](C)c2ccccc2)cc2c(=O)n3cc(Cl)cc(Cl)c3nc2n1Cc1ccccc1 (cis-trans isomerization)
[H]/N=c1/c(/C(O)=N\[C@@H](C)c2ccccc2)cc2c(=O)n3cc(Cl)cc(Cl)c3nc2n1Cc1ccccc1 (3D coordinates assigned)
[H]/N=c1/c(/C(O)=N\[C@@H](C)c2ccccc2)cc2c(=O)n3cc(Cl)cc(Cl)c3nc2n1Cc1ccccc1 (optimized conformer: 88.58360833133418 kcal/mol)

>  <smiles>  (10) 
C[C@H](NC(=O)c1cc2c(=O)n3cc(Cl)cc(Cl)c3nc2n(Cc2ccccc2)c1=N)c1ccccc1

>  <score_type>  (10) 
oracle

>  <origin>  (10) 
autodockgpu

>  <m_score__min__energy>  (10) 
-8.6899999999999995

>  <m_primary>  (10) 
energy

>  <meeko>  (10) 
{"free_energy": -8.14, "intermolecular_energy": -10.52, "internal_energy": -2.5, "cluster_size": 5, "cluster_id": 2, "rank_in_cluster": 3}

>  <energy>  (10) 
-8.19

>  <cluster_rmsd>  (10) 
0.0

>  <rmsd>  (10) 
268.63

>  <cluster>  (10) 
2

$$$$
AFKJZVLHPMIVAS-NNNXYCNANA-N
     RDKit          3D

 57 61  0  0  0  0  0  0  0  0999 V2000
  139.0080   74.7640  222.6860 H   0  0  0  0  0  0  0  0  0  0  0  0
  140.7350   73.3150  219.7590 N   0  0  0  0  0  0  0  0  0  0  0  0
  140.0960   76.3200  221.7780 C   0  0  0  0  0  0  0  0  0  0  0  0
  140.6890   75.5400  220.7640 C   0  0  0  0  0  0  0  0  0  0  0  0
  140.6880   74.0610  220.8260 C   0  0  0  0  0  0  0  0  0  0  0  0
  139.4750   75.6900  222.7350 N   0  0  0  0  0  0  0  0  0  0  0  0
  141.9360   72.8640  219.0450 C   0  0  2  0  0  0  0  0  0  0  0  0
  141.9131   71.7690  218.9428 H   0  0  0  0  0  0  0  0  0  0  0  0
  143.1720   73.2530  219.8240 C   0  0  0  0  0  0  0  0  0  0  0  0
  143.6720   74.5680  219.7650 C   0  0  0  0  0  0  0  0  0  0  0  0
  143.1277   75.3352  219.1949 H   0  0  0  0  0  0  0  0  0  0  0  0
  144.8580   74.9040  220.4280 C   0  0  0  0  0  0  0  0  0  0  0  0
  145.2397   75.9346  220.3811 H   0  0  0  0  0  0  0  0  0  0  0  0
  145.5580   73.9340  221.1490 C   0  0  0  0  0  0  0  0  0  0  0  0
  146.4900   74.2009  221.6688 H   0  0  0  0  0  0  0  0  0  0  0  0
  145.0740   72.6240  221.2100 C   0  0  0  0  0  0  0  0  0  0  0  0
  145.6268   71.8600  221.7763 H   0  0  0  0  0  0  0  0  0  0  0  0
  143.8860   72.2830  220.5510 C   0  0  0  0  0  0  0  0  0  0  0  0
  143.5091   71.2508  220.6022 H   0  0  0  0  0  0  0  0  0  0  0  0
  141.9680   73.4960  217.6530 C   0  0  0  0  0  0  0  0  0  0  0  0
  142.0234   74.5905  217.7484 H   0  0  0  0  0  0  0  0  0  0  0  0
  142.8488   73.1307  217.1046 H   0  0  0  0  0  0  0  0  0  0  0  0
  141.0548   73.2215  217.1046 H   0  0  0  0  0  0  0  0  0  0  0  0
  140.6160   73.4540  222.0780 O   0  0  0  0  0  0  0  0  0  0  0  0
  139.7950   73.5590  222.6620 H   0  0  0  0  0  0  0  0  0  0  0  0
  141.2470   76.1620  219.6520 C   0  0  0  0  0  0  0  0  0  0  0  0
  141.6658   75.5553  218.8356 H   0  0  0  0  0  0  0  0  0  0  0  0
  141.2760   77.5540  219.5710 C   0  0  0  0  0  0  0  0  0  0  0  0
  141.8360   78.2210  218.4620 C   0  0  0  0  0  0  0  0  0  0  0  0
  142.2990   77.5440  217.4990 O   0  0  0  0  0  0  0  0  0  0  0  0
  141.8800   79.5930  218.4310 N   0  0  0  0  0  0  0  0  0  0  0  0
  142.4250   80.2500  217.3550 C   0  0  0  0  0  0  0  0  0  0  0  0
  142.8145   79.6702  216.5052 H   0  0  0  0  0  0  0  0  0  0  0  0
  142.4910   81.6440  217.3260 C   0  0  0  0  0  0  0  0  0  0  0  0
  143.1990   82.4680  215.9460 Cl  0  0  0  0  0  0  0  0  0  0  0  0
  141.9970   82.3770  218.4020 C   0  0  0  0  0  0  0  0  0  0  0  0
  142.0560   83.4754  218.3943 H   0  0  0  0  0  0  0  0  0  0  0  0
  141.4280   81.7160  219.4880 C   0  0  0  0  0  0  0  0  0  0  0  0
  140.7950   82.6580  220.8330 Cl  0  0  0  0  0  0  0  0  0  0  0  0
  141.3760   80.3130  219.4910 C   0  0  0  0  0  0  0  0  0  0  0  0
  140.8220   79.6710  220.5500 N   0  0  0  0  0  0  0  0  0  0  0  0
  140.7480   78.3150  220.6290 C   0  0  0  0  0  0  0  0  0  0  0  0
  140.1670   77.7050  221.7230 N   0  0  0  0  0  0  0  0  0  0  0  0
  139.7400   78.5570  222.8610 C   0  0  0  0  0  0  0  0  0  0  0  0
  138.8676   79.1551  222.5591 H   0  0  0  0  0  0  0  0  0  0  0  0
  139.4782   77.9117  223.7125 H   0  0  0  0  0  0  0  0  0  0  0  0
  140.8620   79.4840  223.2730 C   0  0  0  0  0  0  0  0  0  0  0  0
  140.5740   80.7690  223.7670 C   0  0  0  0  0  0  0  0  0  0  0  0
  139.5276   81.0858  223.8881 H   0  0  0  0  0  0  0  0  0  0  0  0
  141.6080   81.6460  224.1050 C   0  0  0  0  0  0  0  0  0  0  0  0
  141.3738   82.6499  224.4888 H   0  0  0  0  0  0  0  0  0  0  0  0
  142.9380   81.2490  223.9560 C   0  0  0  0  0  0  0  0  0  0  0  0
  143.7511   81.9389  224.2261 H   0  0  0  0  0  0  0  0  0  0  0  0
  143.2370   79.9760  223.4640 C   0  0  0  0  0  0  0  0  0  0  0  0
  144.2855   79.6654  223.3450 H   0  0  0  0  0  0  0  0  0  0  0  0
  142.2060   79.0970  223.1230 C   0  0  0  0  0  0  0  0  0  0  0  0
  142.4467   78.0963  222.7349 H   0  0  0  0  0  0  0  0  0  0  0  0
  1  2  1  0
  2  3  2  0
  3  4  1  0
  4  5  1  0
  5  6  2  0
  6  7  1  0
  7  8  1  6
  7  9  1  0
  9 10  2  0
 10 11  1  0
 10 12  1  0
 12 13  1  0
 12 14  2  0
 14 15  1  0
 14 16  1  0
 16 17  1  0
 16 18  2  0
 18 19  1  0
  7 20  1  0
 20 21  1  0
 20 22  1  0
 20 23  1  0
  5 24  1  0
 24 25  1  0
  4 26  2  0
 26 27  1  0
 26 28  1  0
 28 29  1  0
 29 30  2  0
 29 31  1  0
 31 32  1  0
 32 33  1  0
 32 34  2  0
 34 35  1  0
 34 36  1  0
 36 37  1  0
 36 38  2  0
 38 39  1  0
 38 40  1  0
 40 41  2  0
 41 42  1  0
 42 43  1  0
 43 44  1  0
 44 45  1  0
 44 46  1  0
 44 47  1  0
 47 48  2  0
 48 49  1  0
 48 50  1  0
 50 51  1  0
 50 52  2  0
 52 53  1  0
 52 54  1  0
 54 55  1  0
 54 56  2  0
 56 57  1  0
 43  3  1  0
 56 47  1  0
 18  9  1  0
 42 28  2  0
 40 31  1  0
M  END
>  <UniqueID>  (11) 
96

>  <SMILES>  (11) 
[H]/N=c1/c(/C(O)=N\[C@@H](C)c2ccccc2)cc2c(=O)n3cc(Cl)cc(Cl)c3nc2n1Cc1ccccc1

>  <Energy>  (11) 
88.58360833133418

>  <Genealogy>  (11) 
C[C@H](N=C(O)c1cc2c(=O)n3cc(Cl)cc(Cl)c3nc2n(Cc2ccccc2)c1=N)c1ccccc1 (tautomer)
[H]/N=c1/c(/C(O)=N\[C@@H](C)c2ccccc2)cc2c(=O)n3cc(Cl)cc(Cl)c3nc2n1Cc1ccccc1 (cis-trans isomerization)
[H]/N=c1/c(/C(O)=N\[C@@H](C)c2ccccc2)cc2c(=O)n3cc(Cl)cc(Cl)c3nc2n1Cc1ccccc1 (3D coordinates assigned)
[H]/N=c1/c(/C(O)=N\[C@@H](C)c2ccccc2)cc2c(=O)n3cc(Cl)cc(Cl)c3nc2n1Cc1ccccc1 (optimized conformer: 88.58360833133418 kcal/mol)

>  <smiles>  (11) 
C[C@H](NC(=O)c1cc2c(=O)n3cc(Cl)cc(Cl)c3nc2n(Cc2ccccc2)c1=N)c1ccccc1

>  <score_type>  (11) 
oracle

>  <origin>  (11) 
autodockgpu

>  <m_score__min__energy>  (11) 
-8.6899999999999995

>  <m_primary>  (11) 
energy

>  <meeko>  (11) 
{"free_energy": -8.28, "intermolecular_energy": -10.66, "internal_energy": -2.39, "cluster_size": 9, "cluster_id": 1, "rank_in_cluster": 6}

>  <energy>  (11) 
-8.17

>  <cluster_rmsd>  (11) 
0.04

>  <rmsd>  (11) 
268.63

>  <cluster>  (11) 
2

$$$$
AFKJZVLHPMIVAS-NNNXYCNANA-N
     RDKit          3D

 57 61  0  0  0  0  0  0  0  0999 V2000
  138.7400   74.9230  222.7310 H   0  0  0  0  0  0  0  0  0  0  0  0
  141.3510   73.1820  220.1480 N   0  0  0  0  0  0  0  0  0  0  0  0
  140.1170   76.2470  221.8470 C   0  0  0  0  0  0  0  0  0  0  0  0
  140.7530   75.4300  220.8900 C   0  0  0  0  0  0  0  0  0  0  0  0
  140.7730   73.9570  221.0220 C   0  0  0  0  0  0  0  0  0  0  0  0
  139.4740   75.6520  222.8120 N   0  0  0  0  0  0  0  0  0  0  0  0
  142.3200   72.1120  220.4160 C   0  0  2  0  0  0  0  0  0  0  0  0
  142.1272   71.6818  221.4099 H   0  0  0  0  0  0  0  0  0  0  0  0
  143.7240   72.6740  220.3950 C   0  0  0  0  0  0  0  0  0  0  0  0
  144.8210   71.8500  220.0760 C   0  0  0  0  0  0  0  0  0  0  0  0
  144.6526   70.8034  219.7824 H   0  0  0  0  0  0  0  0  0  0  0  0
  146.1240   72.3570  220.1310 C   0  0  0  0  0  0  0  0  0  0  0  0
  146.9757   71.7097  219.8751 H   0  0  0  0  0  0  0  0  0  0  0  0
  146.3460   73.6830  220.5100 C   0  0  0  0  0  0  0  0  0  0  0  0
  147.3717   74.0780  220.5542 H   0  0  0  0  0  0  0  0  0  0  0  0
  145.2650   74.5080  220.8330 C   0  0  0  0  0  0  0  0  0  0  0  0
  145.4410   75.5519  221.1317 H   0  0  0  0  0  0  0  0  0  0  0  0
  143.9590   74.0080  220.7770 C   0  0  0  0  0  0  0  0  0  0  0  0
  143.1117   74.6611  221.0329 H   0  0  0  0  0  0  0  0  0  0  0  0
  142.1730   71.0170  219.3590 C   0  0  0  0  0  0  0  0  0  0  0  0
  142.0424   70.0439  219.8549 H   0  0  0  0  0  0  0  0  0  0  0  0
  141.2953   71.2292  218.7308 H   0  0  0  0  0  0  0  0  0  0  0  0
  143.0756   70.9902  218.7308 H   0  0  0  0  0  0  0  0  0  0  0  0
  140.1300   73.3840  222.1180 O   0  0  0  0  0  0  0  0  0  0  0  0
  139.7540   73.9610  222.8610 H   0  0  0  0  0  0  0  0  0  0  0  0
  141.3370   76.0080  219.7680 C   0  0  0  0  0  0  0  0  0  0  0  0
  141.7908   75.3706  218.9948 H   0  0  0  0  0  0  0  0  0  0  0  0
  141.3480   77.3950  219.6220 C   0  0  0  0  0  0  0  0  0  0  0  0
  141.9340   78.0190  218.5010 C   0  0  0  0  0  0  0  0  0  0  0  0
  142.4380   77.3060  217.5860 O   0  0  0  0  0  0  0  0  0  0  0  0
  141.9580   79.3890  218.4060 N   0  0  0  0  0  0  0  0  0  0  0  0
  142.5270   80.0030  217.3170 C   0  0  0  0  0  0  0  0  0  0  0  0
  142.9517   79.3902  216.5082 H   0  0  0  0  0  0  0  0  0  0  0  0
  142.5730   81.3960  217.2240 C   0  0  0  0  0  0  0  0  0  0  0  0
  143.3120   82.1660  215.8300 Cl  0  0  0  0  0  0  0  0  0  0  0  0
  142.0340   82.1690  218.2490 C   0  0  0  0  0  0  0  0  0  0  0  0
  142.0775   83.2667  218.1921 H   0  0  0  0  0  0  0  0  0  0  0  0
  141.4400   81.5510  219.3460 C   0  0  0  0  0  0  0  0  0  0  0  0
  140.7490   82.5440  220.6240 Cl  0  0  0  0  0  0  0  0  0  0  0  0
  141.4090   80.1490  219.4140 C   0  0  0  0  0  0  0  0  0  0  0  0
  140.8310   79.5480  220.4850 N   0  0  0  0  0  0  0  0  0  0  0  0
  140.7750   78.1960  220.6250 C   0  0  0  0  0  0  0  0  0  0  0  0
  140.1680   77.6290  221.7280 N   0  0  0  0  0  0  0  0  0  0  0  0
  139.6920   78.5270  222.8100 C   0  0  0  0  0  0  0  0  0  0  0  0
  138.8430   79.1211  222.4410 H   0  0  0  0  0  0  0  0  0  0  0  0
  139.3797   77.9162  223.6699 H   0  0  0  0  0  0  0  0  0  0  0  0
  140.8010   79.4590  223.2460 C   0  0  0  0  0  0  0  0  0  0  0  0
  140.4960   80.7480  223.7190 C   0  0  0  0  0  0  0  0  0  0  0  0
  139.4460   81.0640  223.8062 H   0  0  0  0  0  0  0  0  0  0  0  0
  141.5190   81.6300  224.0790 C   0  0  0  0  0  0  0  0  0  0  0  0
  141.2725   82.6367  224.4476 H   0  0  0  0  0  0  0  0  0  0  0  0
  142.8530   81.2340  223.9710 C   0  0  0  0  0  0  0  0  0  0  0  0
  143.6568   81.9280  224.2578 H   0  0  0  0  0  0  0  0  0  0  0  0
  143.1690   79.9570  223.4990 C   0  0  0  0  0  0  0  0  0  0  0  0
  144.2211   79.6476  223.4124 H   0  0  0  0  0  0  0  0  0  0  0  0
  142.1490   79.0730  223.1370 C   0  0  0  0  0  0  0  0  0  0  0  0
  142.4019   78.0693  222.7646 H   0  0  0  0  0  0  0  0  0  0  0  0
  1  2  1  0
  2  3  2  0
  3  4  1  0
  4  5  1  0
  5  6  2  0
  6  7  1  0
  7  8  1  1
  7  9  1  0
  9 10  2  0
 10 11  1  0
 10 12  1  0
 12 13  1  0
 12 14  2  0
 14 15  1  0
 14 16  1  0
 16 17  1  0
 16 18  2  0
 18 19  1  0
  7 20  1  0
 20 21  1  0
 20 22  1  0
 20 23  1  0
  5 24  1  0
 24 25  1  0
  4 26  2  0
 26 27  1  0
 26 28  1  0
 28 29  1  0
 29 30  2  0
 29 31  1  0
 31 32  1  0
 32 33  1  0
 32 34  2  0
 34 35  1  0
 34 36  1  0
 36 37  1  0
 36 38  2  0
 38 39  1  0
 38 40  1  0
 40 41  2  0
 41 42  1  0
 42 43  1  0
 43 44  1  0
 44 45  1  0
 44 46  1  0
 44 47  1  0
 47 48  2  0
 48 49  1  0
 48 50  1  0
 50 51  1  0
 50 52  2  0
 52 53  1  0
 52 54  1  0
 54 55  1  0
 54 56  2  0
 56 57  1  0
 43  3  1  0
 56 47  1  0
 18  9  1  0
 42 28  2  0
 40 31  1  0
M  END
>  <UniqueID>  (12) 
96

>  <SMILES>  (12) 
[H]/N=c1/c(/C(O)=N\[C@@H](C)c2ccccc2)cc2c(=O)n3cc(Cl)cc(Cl)c3nc2n1Cc1ccccc1

>  <Energy>  (12) 
88.58360833133418

>  <Genealogy>  (12) 
C[C@H](N=C(O)c1cc2c(=O)n3cc(Cl)cc(Cl)c3nc2n(Cc2ccccc2)c1=N)c1ccccc1 (tautomer)
[H]/N=c1/c(/C(O)=N\[C@@H](C)c2ccccc2)cc2c(=O)n3cc(Cl)cc(Cl)c3nc2n1Cc1ccccc1 (cis-trans isomerization)
[H]/N=c1/c(/C(O)=N\[C@@H](C)c2ccccc2)cc2c(=O)n3cc(Cl)cc(Cl)c3nc2n1Cc1ccccc1 (3D coordinates assigned)
[H]/N=c1/c(/C(O)=N\[C@@H](C)c2ccccc2)cc2c(=O)n3cc(Cl)cc(Cl)c3nc2n1Cc1ccccc1 (optimized conformer: 88.58360833133418 kcal/mol)

>  <smiles>  (12) 
C[C@H](NC(=O)c1cc2c(=O)n3cc(Cl)cc(Cl)c3nc2n(Cc2ccccc2)c1=N)c1ccccc1

>  <score_type>  (12) 
oracle

>  <origin>  (12) 
autodockgpu

>  <m_score__min__energy>  (12) 
-8.6899999999999995

>  <m_primary>  (12) 
energy

>  <meeko>  (12) 
{"free_energy": -8.63, "intermolecular_energy": -11.01, "internal_energy": -2.26, "cluster_size": 9, "cluster_id": 1, "rank_in_cluster": 2}

>  <energy>  (12) 
-8.14

>  <cluster_rmsd>  (12) 
0.04

>  <rmsd>  (12) 
268.61

>  <cluster>  (12) 
2

$$$$
AFKJZVLHPMIVAS-NNNXYCNANA-N
     RDKit          3D

 57 61  0  0  0  0  0  0  0  0999 V2000
  135.5230   72.3850  221.5800 H   0  0  0  0  0  0  0  0  0  0  0  0
  138.7780   71.1340  222.2720 N   0  0  0  0  0  0  0  0  0  0  0  0
  136.7230   74.0890  221.8760 C   0  0  0  0  0  0  0  0  0  0  0  0
  137.9460   73.3890  221.8380 C   0  0  0  0  0  0  0  0  0  0  0  0
  137.9940   71.9290  221.5990 C   0  0  0  0  0  0  0  0  0  0  0  0
  135.6380   73.4170  221.6120 N   0  0  0  0  0  0  0  0  0  0  0  0
  138.3900   70.1950  223.3310 C   0  0  2  0  0  0  0  0  0  0  0  0
  137.3369   70.3621  223.6015 H   0  0  0  0  0  0  0  0  0  0  0  0
  139.2470   70.4200  224.5570 C   0  0  0  0  0  0  0  0  0  0  0  0
  140.2270   71.4310  224.5690 C   0  0  0  0  0  0  0  0  0  0  0  0
  140.3322   72.1015  223.7034 H   0  0  0  0  0  0  0  0  0  0  0  0
  141.0680   71.5870  225.6770 C   0  0  0  0  0  0  0  0  0  0  0  0
  141.8281   72.3821  225.6815 H   0  0  0  0  0  0  0  0  0  0  0  0
  140.9440   70.7350  226.7770 C   0  0  0  0  0  0  0  0  0  0  0  0
  141.6063   70.8594  227.6464 H   0  0  0  0  0  0  0  0  0  0  0  0
  139.9780   69.7240  226.7730 C   0  0  0  0  0  0  0  0  0  0  0  0
  139.8828   69.0519  227.6386 H   0  0  0  0  0  0  0  0  0  0  0  0
  139.1320   69.5660  225.6690 C   0  0  0  0  0  0  0  0  0  0  0  0
  138.3731   68.7697  225.6710 H   0  0  0  0  0  0  0  0  0  0  0  0
  138.5560   68.7610  222.8260 C   0  0  0  0  0  0  0  0  0  0  0  0
  138.6352   68.0770  223.6839 H   0  0  0  0  0  0  0  0  0  0  0  0
  137.6839   68.4840  222.2155 H   0  0  0  0  0  0  0  0  0  0  0  0
  139.4683   68.6906  222.2155 H   0  0  0  0  0  0  0  0  0  0  0  0
  137.1790   71.3970  220.6020 O   0  0  0  0  0  0  0  0  0  0  0  0
  136.4020   71.9270  220.2270 H   0  0  0  0  0  0  0  0  0  0  0  0
  139.1440   74.0820  221.9790 C   0  0  0  0  0  0  0  0  0  0  0  0
  140.1014   73.5460  221.9012 H   0  0  0  0  0  0  0  0  0  0  0  0
  139.1320   75.4560  222.2190 C   0  0  0  0  0  0  0  0  0  0  0  0
  140.3240   76.1930  222.3710 C   0  0  0  0  0  0  0  0  0  0  0  0
  141.4370   75.6050  222.2580 O   0  0  0  0  0  0  0  0  0  0  0  0
  140.2750   77.5390  222.6430 N   0  0  0  0  0  0  0  0  0  0  0  0
  141.4320   78.2640  222.7930 C   0  0  0  0  0  0  0  0  0  0  0  0
  142.4051   77.7640  222.6785 H   0  0  0  0  0  0  0  0  0  0  0  0
  141.3880   79.6280  223.0890 C   0  0  0  0  0  0  0  0  0  0  0  0
  142.8770   80.5380  223.2860 Cl  0  0  0  0  0  0  0  0  0  0  0  0
  140.1550   80.2600  223.2320 C   0  0  0  0  0  0  0  0  0  0  0  0
  140.1096   81.3312  223.4777 H   0  0  0  0  0  0  0  0  0  0  0  0
  138.9800   79.5320  223.0630 C   0  0  0  0  0  0  0  0  0  0  0  0
  137.4310   80.3510  223.2320 Cl  0  0  0  0  0  0  0  0  0  0  0  0
  139.0530   78.1620  222.7670 C   0  0  0  0  0  0  0  0  0  0  0  0
  137.9060   77.4550  222.6050 N   0  0  0  0  0  0  0  0  0  0  0  0
  137.8990   76.1230  222.3290 C   0  0  0  0  0  0  0  0  0  0  0  0
  136.7070   75.4460  222.1620 N   0  0  0  0  0  0  0  0  0  0  0  0
  135.4400   76.1790  222.4130 C   0  0  0  0  0  0  0  0  0  0  0  0
  135.6014   77.2527  222.2368 H   0  0  0  0  0  0  0  0  0  0  0  0
  134.6654   75.7966  221.7320 H   0  0  0  0  0  0  0  0  0  0  0  0
  134.9850   75.9710  223.8400 C   0  0  0  0  0  0  0  0  0  0  0  0
  135.1490   74.7190  224.4600 C   0  0  0  0  0  0  0  0  0  0  0  0
  135.6432   73.9005  223.9161 H   0  0  0  0  0  0  0  0  0  0  0  0
  134.6880   74.5080  225.7630 C   0  0  0  0  0  0  0  0  0  0  0  0
  134.8199   73.5258  226.2404 H   0  0  0  0  0  0  0  0  0  0  0  0
  134.0610   75.5420  226.4580 C   0  0  0  0  0  0  0  0  0  0  0  0
  133.7014   75.3753  227.4841 H   0  0  0  0  0  0  0  0  0  0  0  0
  133.8890   76.7900  225.8520 C   0  0  0  0  0  0  0  0  0  0  0  0
  133.3927   77.6037  226.4012 H   0  0  0  0  0  0  0  0  0  0  0  0
  134.3470   77.0050  224.5490 C   0  0  0  0  0  0  0  0  0  0  0  0
  134.2078   77.9880  224.0754 H   0  0  0  0  0  0  0  0  0  0  0  0
  1  2  1  0
  2  3  2  0
  3  4  1  0
  4  5  1  0
  5  6  2  0
  6  7  1  0
  7  8  1  1
  7  9  1  0
  9 10  2  0
 10 11  1  0
 10 12  1  0
 12 13  1  0
 12 14  2  0
 14 15  1  0
 14 16  1  0
 16 17  1  0
 16 18  2  0
 18 19  1  0
  7 20  1  0
 20 21  1  0
 20 22  1  0
 20 23  1  0
  5 24  1  0
 24 25  1  0
  4 26  2  0
 26 27  1  0
 26 28  1  0
 28 29  1  0
 29 30  2  0
 29 31  1  0
 31 32  1  0
 32 33  1  0
 32 34  2  0
 34 35  1  0
 34 36  1  0
 36 37  1  0
 36 38  2  0
 38 39  1  0
 38 40  1  0
 40 41  2  0
 41 42  1  0
 42 43  1  0
 43 44  1  0
 44 45  1  0
 44 46  1  0
 44 47  1  0
 47 48  2  0
 48 49  1  0
 48 50  1  0
 50 51  1  0
 50 52  2  0
 52 53  1  0
 52 54  1  0
 54 55  1  0
 54 56  2  0
 56 57  1  0
 43  3  1  0
 56 47  1  0
 18  9  1  0
 42 28  2  0
 40 31  1  0
M  END
>  <UniqueID>  (13) 
96

>  <SMILES>  (13) 
[H]/N=c1/c(/C(O)=N\[C@@H](C)c2ccccc2)cc2c(=O)n3cc(Cl)cc(Cl)c3nc2n1Cc1ccccc1

>  <Energy>  (13) 
88.58360833133418

>  <Genealogy>  (13) 
C[C@H](N=C(O)c1cc2c(=O)n3cc(Cl)cc(Cl)c3nc2n(Cc2ccccc2)c1=N)c1ccccc1 (tautomer)
[H]/N=c1/c(/C(O)=N\[C@@H](C)c2ccccc2)cc2c(=O)n3cc(Cl)cc(Cl)c3nc2n1Cc1ccccc1 (cis-trans isomerization)
[H]/N=c1/c(/C(O)=N\[C@@H](C)c2ccccc2)cc2c(=O)n3cc(Cl)cc(Cl)c3nc2n1Cc1ccccc1 (3D coordinates assigned)
[H]/N=c1/c(/C(O)=N\[C@@H](C)c2ccccc2)cc2c(=O)n3cc(Cl)cc(Cl)c3nc2n1Cc1ccccc1 (optimized conformer: 88.58360833133418 kcal/mol)

>  <smiles>  (13) 
C[C@H](NC(=O)c1cc2c(=O)n3cc(Cl)cc(Cl)c3nc2n(Cc2ccccc2)c1=N)c1ccccc1

>  <score_type>  (13) 
oracle

>  <origin>  (13) 
autodockgpu

>  <m_score__min__energy>  (13) 
-8.6899999999999995

>  <m_primary>  (13) 
energy

>  <meeko>  (13) 
{"free_energy": -7.98, "intermolecular_energy": -10.37, "internal_energy": -2.33, "cluster_size": 1, "cluster_id": 5, "rank_in_cluster": 1}

>  <energy>  (13) 
-7.95

>  <cluster_rmsd>  (13) 
0.47

>  <rmsd>  (13) 
268.56

>  <cluster>  (13) 
2

$$$$
AFKJZVLHPMIVAS-NNNXYCNANA-N
     RDKit          3D

 57 61  0  0  0  0  0  0  0  0999 V2000
  143.8380   78.5600  217.3560 H   0  0  0  0  0  0  0  0  0  0  0  0
  140.8630   80.1570  219.2930 N   0  0  0  0  0  0  0  0  0  0  0  0
  142.6610   77.0930  218.3000 C   0  0  0  0  0  0  0  0  0  0  0  0
  141.8580   77.9350  219.0970 C   0  0  0  0  0  0  0  0  0  0  0  0
  141.8560   79.4030  218.9120 C   0  0  0  0  0  0  0  0  0  0  0  0
  143.3420   77.6480  217.3380 N   0  0  0  0  0  0  0  0  0  0  0  0
  140.8590   81.1290  220.3920 C   0  0  2  0  0  0  0  0  0  0  0  0
  141.6171   81.9027  220.2007 H   0  0  0  0  0  0  0  0  0  0  0  0
  141.1930   80.4340  221.6930 C   0  0  0  0  0  0  0  0  0  0  0  0
  142.4950   80.4930  222.2250 C   0  0  0  0  0  0  0  0  0  0  0  0
  143.2638   81.0989  221.7232 H   0  0  0  0  0  0  0  0  0  0  0  0
  142.8170   79.7850  223.3890 C   0  0  0  0  0  0  0  0  0  0  0  0
  143.8359   79.8386  223.8001 H   0  0  0  0  0  0  0  0  0  0  0  0
  141.8470   79.0110  224.0290 C   0  0  0  0  0  0  0  0  0  0  0  0
  142.1022   78.4560  224.9438 H   0  0  0  0  0  0  0  0  0  0  0  0
  140.5520   78.9410  223.5080 C   0  0  0  0  0  0  0  0  0  0  0  0
  139.7897   78.3293  224.0126 H   0  0  0  0  0  0  0  0  0  0  0  0
  140.2230   79.6480  222.3450 C   0  0  0  0  0  0  0  0  0  0  0  0
  139.2025   79.5893  221.9388 H   0  0  0  0  0  0  0  0  0  0  0  0
  139.4830   81.7890  220.4830 C   0  0  0  0  0  0  0  0  0  0  0  0
  139.2087   81.9206  221.5401 H   0  0  0  0  0  0  0  0  0  0  0  0
  139.5136   82.7705  219.9872 H   0  0  0  0  0  0  0  0  0  0  0  0
  138.7367   81.1508  219.9872 H   0  0  0  0  0  0  0  0  0  0  0  0
  142.9560   79.9910  218.2900 O   0  0  0  0  0  0  0  0  0  0  0  0
  143.1700   79.7990  217.3190 H   0  0  0  0  0  0  0  0  0  0  0  0
  141.0080   77.3810  220.0480 C   0  0  0  0  0  0  0  0  0  0  0  0
  140.3443   78.0312  220.6369 H   0  0  0  0  0  0  0  0  0  0  0  0
  140.9960   76.0020  220.2560 C   0  0  0  0  0  0  0  0  0  0  0  0
  140.1530   75.4030  221.2140 C   0  0  0  0  0  0  0  0  0  0  0  0
  139.3620   76.1270  221.8840 O   0  0  0  0  0  0  0  0  0  0  0  0
  140.1930   74.0450  221.4180 N   0  0  0  0  0  0  0  0  0  0  0  0
  139.3740   73.4550  222.3490 C   0  0  0  0  0  0  0  0  0  0  0  0
  138.6700   74.0747  222.9238 H   0  0  0  0  0  0  0  0  0  0  0  0
  139.4240   72.0770  222.5750 C   0  0  0  0  0  0  0  0  0  0  0  0
  138.3770   71.3390  223.7760 Cl  0  0  0  0  0  0  0  0  0  0  0  0
  140.3150   71.2940  221.8460 C   0  0  0  0  0  0  0  0  0  0  0  0
  140.3715   70.2103  222.0258 H   0  0  0  0  0  0  0  0  0  0  0  0
  141.1350   71.8870  220.8880 C   0  0  0  0  0  0  0  0  0  0  0  0
  142.2440   70.8800  219.9640 Cl  0  0  0  0  0  0  0  0  0  0  0  0
  141.0640   73.2730  220.6820 C   0  0  0  0  0  0  0  0  0  0  0  0
  141.8650   73.8480  219.7500 N   0  0  0  0  0  0  0  0  0  0  0  0
  141.8610   75.1860  219.5040 C   0  0  0  0  0  0  0  0  0  0  0  0
  142.6860   75.7260  218.5380 N   0  0  0  0  0  0  0  0  0  0  0  0
  143.6620   74.8320  217.8660 C   0  0  0  0  0  0  0  0  0  0  0  0
  143.1190   74.1023  217.2474 H   0  0  0  0  0  0  0  0  0  0  0  0
  144.3280   75.4400  217.2361 H   0  0  0  0  0  0  0  0  0  0  0  0
  144.4940   74.0950  218.8910 C   0  0  0  0  0  0  0  0  0  0  0  0
  144.9840   72.8070  218.6110 C   0  0  0  0  0  0  0  0  0  0  0  0
  144.7916   72.3506  217.6288 H   0  0  0  0  0  0  0  0  0  0  0  0
  145.7140   72.1030  219.5730 C   0  0  0  0  0  0  0  0  0  0  0  0
  146.0935   71.0958  219.3459 H   0  0  0  0  0  0  0  0  0  0  0  0
  145.9620   72.6760  220.8210 C   0  0  0  0  0  0  0  0  0  0  0  0
  146.5390   72.1217  221.5759 H   0  0  0  0  0  0  0  0  0  0  0  0
  145.4770   73.9550  221.1120 C   0  0  0  0  0  0  0  0  0  0  0  0
  145.6720   74.4053  222.0965 H   0  0  0  0  0  0  0  0  0  0  0  0
  144.7450   74.6620  220.1540 C   0  0  0  0  0  0  0  0  0  0  0  0
  144.3632   75.6666  220.3886 H   0  0  0  0  0  0  0  0  0  0  0  0
  1  2  1  0
  2  3  2  0
  3  4  1  0
  4  5  1  0
  5  6  2  0
  6  7  1  0
  7  8  1  1
  7  9  1  0
  9 10  2  0
 10 11  1  0
 10 12  1  0
 12 13  1  0
 12 14  2  0
 14 15  1  0
 14 16  1  0
 16 17  1  0
 16 18  2  0
 18 19  1  0
  7 20  1  0
 20 21  1  0
 20 22  1  0
 20 23  1  0
  5 24  1  0
 24 25  1  0
  4 26  2  0
 26 27  1  0
 26 28  1  0
 28 29  1  0
 29 30  2  0
 29 31  1  0
 31 32  1  0
 32 33  1  0
 32 34  2  0
 34 35  1  0
 34 36  1  0
 36 37  1  0
 36 38  2  0
 38 39  1  0
 38 40  1  0
 40 41  2  0
 41 42  1  0
 42 43  1  0
 43 44  1  0
 44 45  1  0
 44 46  1  0
 44 47  1  0
 47 48  2  0
 48 49  1  0
 48 50  1  0
 50 51  1  0
 50 52  2  0
 52 53  1  0
 52 54  1  0
 54 55  1  0
 54 56  2  0
 56 57  1  0
 43  3  1  0
 56 47  1  0
 18  9  1  0
 42 28  2  0
 40 31  1  0
M  END
>  <UniqueID>  (14) 
96

>  <SMILES>  (14) 
[H]/N=c1/c(/C(O)=N\[C@@H](C)c2ccccc2)cc2c(=O)n3cc(Cl)cc(Cl)c3nc2n1Cc1ccccc1

>  <Energy>  (14) 
88.58360833133418

>  <Genealogy>  (14) 
C[C@H](N=C(O)c1cc2c(=O)n3cc(Cl)cc(Cl)c3nc2n(Cc2ccccc2)c1=N)c1ccccc1 (tautomer)
[H]/N=c1/c(/C(O)=N\[C@@H](C)c2ccccc2)cc2c(=O)n3cc(Cl)cc(Cl)c3nc2n1Cc1ccccc1 (cis-trans isomerization)
[H]/N=c1/c(/C(O)=N\[C@@H](C)c2ccccc2)cc2c(=O)n3cc(Cl)cc(Cl)c3nc2n1Cc1ccccc1 (3D coordinates assigned)
[H]/N=c1/c(/C(O)=N\[C@@H](C)c2ccccc2)cc2c(=O)n3cc(Cl)cc(Cl)c3nc2n1Cc1ccccc1 (optimized conformer: 88.58360833133418 kcal/mol)

>  <smiles>  (14) 
C[C@H](NC(=O)c1cc2c(=O)n3cc(Cl)cc(Cl)c3nc2n(Cc2ccccc2)c1=N)c1ccccc1

>  <score_type>  (14) 
oracle

>  <origin>  (14) 
autodockgpu

>  <m_score__min__energy>  (14) 
-8.6899999999999995

>  <m_primary>  (14) 
energy

>  <meeko>  (14) 
{"free_energy": -7.86, "intermolecular_energy": -10.25, "internal_energy": -2.77, "cluster_size": 2, "cluster_id": 6, "rank_in_cluster": 1}

>  <energy>  (14) 
-7.85

>  <cluster_rmsd>  (14) 
0.52

>  <rmsd>  (14) 
268.5

>  <cluster>  (14) 
2

$$$$
AFKJZVLHPMIVAS-NNNXYCNANA-N
     RDKit          3D

 57 61  0  0  0  0  0  0  0  0999 V2000
  137.9970   74.9340  221.1890 H   0  0  0  0  0  0  0  0  0  0  0  0
  141.1080   76.7010  222.0710 N   0  0  0  0  0  0  0  0  0  0  0  0
  137.4440   76.5710  222.3900 C   0  0  0  0  0  0  0  0  0  0  0  0
  138.7540   77.0260  222.6370 C   0  0  0  0  0  0  0  0  0  0  0  0
  139.9350   76.1910  222.3250 C   0  0  0  0  0  0  0  0  0  0  0  0
  137.3100   75.4170  221.7990 N   0  0  0  0  0  0  0  0  0  0  0  0
  141.4220   77.7620  221.1070 C   0  0  2  0  0  0  0  0  0  0  0  0
  142.3206   77.4854  220.5360 H   0  0  0  0  0  0  0  0  0  0  0  0
  141.6910   79.0570  221.8410 C   0  0  0  0  0  0  0  0  0  0  0  0
  142.2340   79.0460  223.1400 C   0  0  0  0  0  0  0  0  0  0  0  0
  142.5207   78.0912  223.6049 H   0  0  0  0  0  0  0  0  0  0  0  0
  142.4110   80.2430  223.8430 C   0  0  0  0  0  0  0  0  0  0  0  0
  142.8399   80.2265  224.8558 H   0  0  0  0  0  0  0  0  0  0  0  0
  142.0440   81.4590  223.2610 C   0  0  0  0  0  0  0  0  0  0  0  0
  142.1840   82.3985  223.8157 H   0  0  0  0  0  0  0  0  0  0  0  0
  141.4990   81.4820  221.9740 C   0  0  0  0  0  0  0  0  0  0  0  0
  141.2080   82.4397  221.5178 H   0  0  0  0  0  0  0  0  0  0  0  0
  141.3230   80.2880  221.2650 C   0  0  0  0  0  0  0  0  0  0  0  0
  140.8948   80.3115  220.2521 H   0  0  0  0  0  0  0  0  0  0  0  0
  140.2510   77.9360  220.1410 C   0  0  0  0  0  0  0  0  0  0  0  0
  139.3215   78.0741  220.7127 H   0  0  0  0  0  0  0  0  0  0  0  0
  140.4263   78.8180  219.5074 H   0  0  0  0  0  0  0  0  0  0  0  0
  140.1623   77.0412  219.5074 H   0  0  0  0  0  0  0  0  0  0  0  0
  139.7720   74.8070  222.2870 O   0  0  0  0  0  0  0  0  0  0  0  0
  138.9720   74.3650  222.7220 H   0  0  0  0  0  0  0  0  0  0  0  0
  138.9570   78.3070  223.1420 C   0  0  0  0  0  0  0  0  0  0  0  0
  139.9799   78.6831  223.2912 H   0  0  0  0  0  0  0  0  0  0  0  0
  137.8650   79.1140  223.4590 C   0  0  0  0  0  0  0  0  0  0  0  0
  138.0290   80.4150  223.9760 C   0  0  0  0  0  0  0  0  0  0  0  0
  139.1950   80.8800  224.1300 O   0  0  0  0  0  0  0  0  0  0  0  0
  136.9310   81.1690  224.3120 N   0  0  0  0  0  0  0  0  0  0  0  0
  137.0830   82.4380  224.8160 C   0  0  0  0  0  0  0  0  0  0  0  0
  138.0928   82.8574  224.9358 H   0  0  0  0  0  0  0  0  0  0  0  0
  135.9720   83.2020  225.1780 C   0  0  0  0  0  0  0  0  0  0  0  0
  136.1840   84.8190  225.8300 Cl  0  0  0  0  0  0  0  0  0  0  0  0
  134.6940   82.6700  225.0240 C   0  0  0  0  0  0  0  0  0  0  0  0
  133.8125   83.2587  225.3180 H   0  0  0  0  0  0  0  0  0  0  0  0
  134.5350   81.3910  224.4970 C   0  0  0  0  0  0  0  0  0  0  0  0
  132.9120   80.7400  224.2950 Cl  0  0  0  0  0  0  0  0  0  0  0  0
  135.6690   80.6450  224.1420 C   0  0  0  0  0  0  0  0  0  0  0  0
  135.5120   79.3980  223.6300 N   0  0  0  0  0  0  0  0  0  0  0  0
  136.5640   78.6120  223.2760 C   0  0  0  0  0  0  0  0  0  0  0  0
  136.3550   77.3530  222.7490 N   0  0  0  0  0  0  0  0  0  0  0  0
  134.9650   76.8330  222.6960 C   0  0  0  0  0  0  0  0  0  0  0  0
  134.3100   77.5940  222.2468 H   0  0  0  0  0  0  0  0  0  0  0  0
  134.9496   75.9158  222.0890 H   0  0  0  0  0  0  0  0  0  0  0  0
  134.4710   76.5090  224.0880 C   0  0  0  0  0  0  0  0  0  0  0  0
  133.4110   77.2420  224.6520 C   0  0  0  0  0  0  0  0  0  0  0  0
  132.9163   78.0283  224.0629 H   0  0  0  0  0  0  0  0  0  0  0  0
  132.9820   76.9780  225.9560 C   0  0  0  0  0  0  0  0  0  0  0  0
  132.1536   77.5572  226.3898 H   0  0  0  0  0  0  0  0  0  0  0  0
  133.6040   75.9800  226.7080 C   0  0  0  0  0  0  0  0  0  0  0  0
  133.2627   75.7704  227.7325 H   0  0  0  0  0  0  0  0  0  0  0  0
  134.6600   75.2470  226.1600 C   0  0  0  0  0  0  0  0  0  0  0  0
  135.1507   74.4625  226.7548 H   0  0  0  0  0  0  0  0  0  0  0  0
  135.0940   75.5090  224.8570 C   0  0  0  0  0  0  0  0  0  0  0  0
  135.9268   74.9303  224.4309 H   0  0  0  0  0  0  0  0  0  0  0  0
  1  2  1  0
  2  3  2  0
  3  4  1  0
  4  5  1  0
  5  6  2  0
  6  7  1  0
  7  8  1  6
  7  9  1  0
  9 10  2  0
 10 11  1  0
 10 12  1  0
 12 13  1  0
 12 14  2  0
 14 15  1  0
 14 16  1  0
 16 17  1  0
 16 18  2  0
 18 19  1  0
  7 20  1  0
 20 21  1  0
 20 22  1  0
 20 23  1  0
  5 24  1  0
 24 25  1  0
  4 26  2  0
 26 27  1  0
 26 28  1  0
 28 29  1  0
 29 30  2  0
 29 31  1  0
 31 32  1  0
 32 33  1  0
 32 34  2  0
 34 35  1  0
 34 36  1  0
 36 37  1  0
 36 38  2  0
 38 39  1  0
 38 40  1  0
 40 41  2  0
 41 42  1  0
 42 43  1  0
 43 44  1  0
 44 45  1  0
 44 46  1  0
 44 47  1  0
 47 48  2  0
 48 49  1  0
 48 50  1  0
 50 51  1  0
 50 52  2  0
 52 53  1  0
 52 54  1  0
 54 55  1  0
 54 56  2  0
 56 57  1  0
 43  3  1  0
 56 47  1  0
 18  9  1  0
 42 28  2  0
 40 31  1  0
M  END
>  <UniqueID>  (15) 
96

>  <SMILES>  (15) 
[H]/N=c1/c(/C(O)=N\[C@@H](C)c2ccccc2)cc2c(=O)n3cc(Cl)cc(Cl)c3nc2n1Cc1ccccc1

>  <Energy>  (15) 
88.58360833133418

>  <Genealogy>  (15) 
C[C@H](N=C(O)c1cc2c(=O)n3cc(Cl)cc(Cl)c3nc2n(Cc2ccccc2)c1=N)c1ccccc1 (tautomer)
[H]/N=c1/c(/C(O)=N\[C@@H](C)c2ccccc2)cc2c(=O)n3cc(Cl)cc(Cl)c3nc2n1Cc1ccccc1 (cis-trans isomerization)
[H]/N=c1/c(/C(O)=N\[C@@H](C)c2ccccc2)cc2c(=O)n3cc(Cl)cc(Cl)c3nc2n1Cc1ccccc1 (3D coordinates assigned)
[H]/N=c1/c(/C(O)=N\[C@@H](C)c2ccccc2)cc2c(=O)n3cc(Cl)cc(Cl)c3nc2n1Cc1ccccc1 (optimized conformer: 88.58360833133418 kcal/mol)

>  <smiles>  (15) 
C[C@H](NC(=O)c1cc2c(=O)n3cc(Cl)cc(Cl)c3nc2n(Cc2ccccc2)c1=N)c1ccccc1

>  <score_type>  (15) 
oracle

>  <origin>  (15) 
autodockgpu

>  <m_score__min__energy>  (15) 
-8.6899999999999995

>  <m_primary>  (15) 
energy

>  <meeko>  (15) 
{"free_energy": -7.35, "intermolecular_energy": -9.74, "internal_energy": -2.97, "cluster_size": 1, "cluster_id": 7, "rank_in_cluster": 1}

>  <energy>  (15) 
-8.15

>  <cluster_rmsd>  (15) 
0.0

>  <rmsd>  (15) 
269.1

>  <cluster>  (15) 
3

$$$$
AFKJZVLHPMIVAS-NNNXYCNANA-N
     RDKit          3D

 57 61  0  0  0  0  0  0  0  0999 V2000
  138.8780   74.8460  222.7030 H   0  0  0  0  0  0  0  0  0  0  0  0
  140.5470   73.3560  219.7710 N   0  0  0  0  0  0  0  0  0  0  0  0
  139.9860   76.3800  221.7830 C   0  0  0  0  0  0  0  0  0  0  0  0
  140.5580   75.5860  220.7690 C   0  0  0  0  0  0  0  0  0  0  0  0
  140.5290   74.1070  220.8360 C   0  0  0  0  0  0  0  0  0  0  0  0
  139.3580   75.7660  222.7450 N   0  0  0  0  0  0  0  0  0  0  0  0
  141.7250   72.9290  219.0070 C   0  0  2  0  0  0  0  0  0  0  0  0
  141.6694   71.8463  218.8210 H   0  0  0  0  0  0  0  0  0  0  0  0
  142.9820   73.2230  219.7960 C   0  0  0  0  0  0  0  0  0  0  0  0
  143.5830   74.4940  219.7390 C   0  0  0  0  0  0  0  0  0  0  0  0
  143.1045   75.3002  219.1635 H   0  0  0  0  0  0  0  0  0  0  0  0
  144.7870   74.7380  220.4110 C   0  0  0  0  0  0  0  0  0  0  0  0
  145.2490   75.7352  220.3651 H   0  0  0  0  0  0  0  0  0  0  0  0
  145.4020   73.7180  221.1390 C   0  0  0  0  0  0  0  0  0  0  0  0
  146.3475   73.9123  221.6665 H   0  0  0  0  0  0  0  0  0  0  0  0
  144.8170   72.4500  221.1980 C   0  0  0  0  0  0  0  0  0  0  0  0
  145.3045   71.6464  221.7696 H   0  0  0  0  0  0  0  0  0  0  0  0
  143.6120   72.2010  220.5310 C   0  0  0  0  0  0  0  0  0  0  0  0
  143.1550   71.2017  220.5814 H   0  0  0  0  0  0  0  0  0  0  0  0
  141.7580   73.6660  217.6680 C   0  0  0  0  0  0  0  0  0  0  0  0
  141.8065   74.7502  217.8473 H   0  0  0  0  0  0  0  0  0  0  0  0
  142.6428   73.3489  217.0966 H   0  0  0  0  0  0  0  0  0  0  0  0
  140.8484   73.4292  217.0966 H   0  0  0  0  0  0  0  0  0  0  0  0
  140.4630   73.5060  222.0910 O   0  0  0  0  0  0  0  0  0  0  0  0
  139.6550   73.6330  222.6880 H   0  0  0  0  0  0  0  0  0  0  0  0
  141.1210   76.1920  219.6510 C   0  0  0  0  0  0  0  0  0  0  0  0
  141.5225   75.5738  218.8346 H   0  0  0  0  0  0  0  0  0  0  0  0
  141.1770   77.5830  219.5640 C   0  0  0  0  0  0  0  0  0  0  0  0
  141.7440   78.2350  218.4500 C   0  0  0  0  0  0  0  0  0  0  0  0
  142.1890   77.5460  217.4870 O   0  0  0  0  0  0  0  0  0  0  0  0
  141.8140   79.6060  218.4130 N   0  0  0  0  0  0  0  0  0  0  0  0
  142.3650   80.2480  217.3310 C   0  0  0  0  0  0  0  0  0  0  0  0
  142.7376   79.6577  216.4808 H   0  0  0  0  0  0  0  0  0  0  0  0
  142.4580   81.6410  217.2970 C   0  0  0  0  0  0  0  0  0  0  0  0
  143.1730   82.4460  215.9100 Cl  0  0  0  0  0  0  0  0  0  0  0  0
  141.9830   82.3870  218.3730 C   0  0  0  0  0  0  0  0  0  0  0  0
  142.0620   83.4841  218.3608 H   0  0  0  0  0  0  0  0  0  0  0  0
  141.4080   81.7410  219.4640 C   0  0  0  0  0  0  0  0  0  0  0  0
  140.8000   82.7000  220.8090 Cl  0  0  0  0  0  0  0  0  0  0  0  0
  141.3290   80.3400  219.4730 C   0  0  0  0  0  0  0  0  0  0  0  0
  140.7690   79.7120  220.5380 N   0  0  0  0  0  0  0  0  0  0  0  0
  140.6690   78.3580  220.6220 C   0  0  0  0  0  0  0  0  0  0  0  0
  140.0820   77.7630  221.7210 N   0  0  0  0  0  0  0  0  0  0  0  0
  139.6790   78.6280  222.8580 C   0  0  0  0  0  0  0  0  0  0  0  0
  138.8303   79.2572  222.5517 H   0  0  0  0  0  0  0  0  0  0  0  0
  139.3901   77.9903  223.7064 H   0  0  0  0  0  0  0  0  0  0  0  0
  140.8290   79.5140  223.2800 C   0  0  0  0  0  0  0  0  0  0  0  0
  140.5800   80.7930  223.8110 C   0  0  0  0  0  0  0  0  0  0  0  0
  139.5438   81.1335  223.9533 H   0  0  0  0  0  0  0  0  0  0  0  0
  141.6420   81.6340  224.1590 C   0  0  0  0  0  0  0  0  0  0  0  0
  141.4390   82.6325  224.5735 H   0  0  0  0  0  0  0  0  0  0  0  0
  142.9580   81.2080  223.9810 C   0  0  0  0  0  0  0  0  0  0  0  0
  143.7918   81.8699  224.2580 H   0  0  0  0  0  0  0  0  0  0  0  0
  143.2190   79.9410  223.4510 C   0  0  0  0  0  0  0  0  0  0  0  0
  144.2577   79.6079  223.3093 H   0  0  0  0  0  0  0  0  0  0  0  0
  142.1610   79.0970  223.1010 C   0  0  0  0  0  0  0  0  0  0  0  0
  142.3709   78.1013  222.6833 H   0  0  0  0  0  0  0  0  0  0  0  0
  1  2  1  0
  2  3  2  0
  3  4  1  0
  4  5  1  0
  5  6  2  0
  6  7  1  0
  7  8  1  6
  7  9  1  0
  9 10  2  0
 10 11  1  0
 10 12  1  0
 12 13  1  0
 12 14  2  0
 14 15  1  0
 14 16  1  0
 16 17  1  0
 16 18  2  0
 18 19  1  0
  7 20  1  0
 20 21  1  0
 20 22  1  0
 20 23  1  0
  5 24  1  0
 24 25  1  0
  4 26  2  0
 26 27  1  0
 26 28  1  0
 28 29  1  0
 29 30  2  0
 29 31  1  0
 31 32  1  0
 32 33  1  0
 32 34  2  0
 34 35  1  0
 34 36  1  0
 36 37  1  0
 36 38  2  0
 38 39  1  0
 38 40  1  0
 40 41  2  0
 41 42  1  0
 42 43  1  0
 43 44  1  0
 44 45  1  0
 44 46  1  0
 44 47  1  0
 47 48  2  0
 48 49  1  0
 48 50  1  0
 50 51  1  0
 50 52  2  0
 52 53  1  0
 52 54  1  0
 54 55  1  0
 54 56  2  0
 56 57  1  0
 43  3  1  0
 56 47  1  0
 18  9  1  0
 42 28  2  0
 40 31  1  0
M  END
>  <UniqueID>  (16) 
96

>  <SMILES>  (16) 
[H]/N=c1/c(/C(O)=N\[C@@H](C)c2ccccc2)cc2c(=O)n3cc(Cl)cc(Cl)c3nc2n1Cc1ccccc1

>  <Energy>  (16) 
88.58360833133418

>  <Genealogy>  (16) 
C[C@H](N=C(O)c1cc2c(=O)n3cc(Cl)cc(Cl)c3nc2n(Cc2ccccc2)c1=N)c1ccccc1 (tautomer)
[H]/N=c1/c(/C(O)=N\[C@@H](C)c2ccccc2)cc2c(=O)n3cc(Cl)cc(Cl)c3nc2n1Cc1ccccc1 (cis-trans isomerization)
[H]/N=c1/c(/C(O)=N\[C@@H](C)c2ccccc2)cc2c(=O)n3cc(Cl)cc(Cl)c3nc2n1Cc1ccccc1 (3D coordinates assigned)
[H]/N=c1/c(/C(O)=N\[C@@H](C)c2ccccc2)cc2c(=O)n3cc(Cl)cc(Cl)c3nc2n1Cc1ccccc1 (optimized conformer: 88.58360833133418 kcal/mol)

>  <smiles>  (16) 
C[C@H](NC(=O)c1cc2c(=O)n3cc(Cl)cc(Cl)c3nc2n(Cc2ccccc2)c1=N)c1ccccc1

>  <score_type>  (16) 
oracle

>  <origin>  (16) 
autodockgpu

>  <m_score__min__energy>  (16) 
-8.6899999999999995

>  <m_primary>  (16) 
energy

>  <meeko>  (16) 
{"free_energy": -8.18, "intermolecular_energy": -10.56, "internal_energy": -2.5, "cluster_size": 9, "cluster_id": 1, "rank_in_cluster": 7}

>  <energy>  (16) 
-8.12

>  <cluster_rmsd>  (16) 
0.0

>  <rmsd>  (16) 
268.79

>  <cluster>  (16) 
4

$$$$
AFKJZVLHPMIVAS-NNNXYCNANA-N
     RDKit          3D

 57 61  0  0  0  0  0  0  0  0999 V2000
  139.4040   75.0140  223.4000 H   0  0  0  0  0  0  0  0  0  0  0  0
  140.5640   73.3040  220.1320 N   0  0  0  0  0  0  0  0  0  0  0  0
  139.8040   76.4600  221.9240 C   0  0  0  0  0  0  0  0  0  0  0  0
  140.3420   75.5950  220.9490 C   0  0  0  0  0  0  0  0  0  0  0  0
  140.2900   74.1250  221.1080 C   0  0  0  0  0  0  0  0  0  0  0  0
  139.1860   75.9160  222.9340 N   0  0  0  0  0  0  0  0  0  0  0  0
  141.6110   72.2760  220.1060 C   0  0  2  0  0  0  0  0  0  0  0  0
  141.4091   71.5264  220.8853 H   0  0  0  0  0  0  0  0  0  0  0  0
  142.9570   72.9080  220.3780 C   0  0  0  0  0  0  0  0  0  0  0  0
  143.1950   74.2570  220.0500 C   0  0  0  0  0  0  0  0  0  0  0  0
  142.3786   74.8744  219.6472 H   0  0  0  0  0  0  0  0  0  0  0  0
  144.4650   74.8160  220.2340 C   0  0  0  0  0  0  0  0  0  0  0  0
  144.6425   75.8712  219.9791 H   0  0  0  0  0  0  0  0  0  0  0  0
  145.5080   74.0360  220.7410 C   0  0  0  0  0  0  0  0  0  0  0  0
  146.5052   74.4775  220.8850 H   0  0  0  0  0  0  0  0  0  0  0  0
  145.2840   72.6950  221.0650 C   0  0  0  0  0  0  0  0  0  0  0  0
  146.1064   72.0815  221.4616 H   0  0  0  0  0  0  0  0  0  0  0  0
  144.0160   72.1310  220.8860 C   0  0  0  0  0  0  0  0  0  0  0  0
  143.8455   71.0752  221.1434 H   0  0  0  0  0  0  0  0  0  0  0  0
  141.6160   71.5890  218.7400 C   0  0  0  0  0  0  0  0  0  0  0  0
  141.6239   70.4978  218.8784 H   0  0  0  0  0  0  0  0  0  0  0  0
  140.7157   71.8809  218.1794 H   0  0  0  0  0  0  0  0  0  0  0  0
  142.5119   71.8940  218.1794 H   0  0  0  0  0  0  0  0  0  0  0  0
  139.9170   73.6070  222.3460 O   0  0  0  0  0  0  0  0  0  0  0  0
  138.9960   73.7860  222.7300 H   0  0  0  0  0  0  0  0  0  0  0  0
  140.8920   76.1220  219.7860 C   0  0  0  0  0  0  0  0  0  0  0  0
  141.2676   75.4486  219.0015 H   0  0  0  0  0  0  0  0  0  0  0  0
  140.9680   77.5050  219.6130 C   0  0  0  0  0  0  0  0  0  0  0  0
  141.5220   78.0770  218.4500 C   0  0  0  0  0  0  0  0  0  0  0  0
  141.9360   77.3240  217.5230 O   0  0  0  0  0  0  0  0  0  0  0  0
  141.6150   79.4430  218.3280 N   0  0  0  0  0  0  0  0  0  0  0  0
  142.1540   80.0080  217.1990 C   0  0  0  0  0  0  0  0  0  0  0  0
  142.4998   79.3604  216.3799 H   0  0  0  0  0  0  0  0  0  0  0  0
  142.2690   81.3940  217.0770 C   0  0  0  0  0  0  0  0  0  0  0  0
  142.9680   82.1010  215.6300 Cl  0  0  0  0  0  0  0  0  0  0  0  0
  141.8290   82.2120  218.1150 C   0  0  0  0  0  0  0  0  0  0  0  0
  141.9261   83.3047  218.0344 H   0  0  0  0  0  0  0  0  0  0  0  0
  141.2660   81.6440  219.2550 C   0  0  0  0  0  0  0  0  0  0  0  0
  140.7010   82.6930  220.5500 Cl  0  0  0  0  0  0  0  0  0  0  0  0
  141.1640   80.2470  219.3500 C   0  0  0  0  0  0  0  0  0  0  0  0
  140.6160   79.6960  220.4620 N   0  0  0  0  0  0  0  0  0  0  0  0
  140.4950   78.3510  220.6310 C   0  0  0  0  0  0  0  0  0  0  0  0
  139.9220   77.8350  221.7760 N   0  0  0  0  0  0  0  0  0  0  0  0
  139.5560   78.7740  222.8660 C   0  0  0  0  0  0  0  0  0  0  0  0
  138.7675   79.4534  222.5099 H   0  0  0  0  0  0  0  0  0  0  0  0
  139.1946   78.1959  223.7293 H   0  0  0  0  0  0  0  0  0  0  0  0
  140.7610   79.5860  223.2880 C   0  0  0  0  0  0  0  0  0  0  0  0
  140.5930   80.8750  223.8250 C   0  0  0  0  0  0  0  0  0  0  0  0
  139.5802   81.2779  223.9728 H   0  0  0  0  0  0  0  0  0  0  0  0
  141.7050   81.6470  224.1720 C   0  0  0  0  0  0  0  0  0  0  0  0
  141.5653   82.6549  224.5899 H   0  0  0  0  0  0  0  0  0  0  0  0
  142.9920   81.1410  223.9890 C   0  0  0  0  0  0  0  0  0  0  0  0
  143.8660   81.7485  224.2668 H   0  0  0  0  0  0  0  0  0  0  0  0
  143.1720   79.8630  223.4530 C   0  0  0  0  0  0  0  0  0  0  0  0
  144.1876   79.4667  223.3065 H   0  0  0  0  0  0  0  0  0  0  0  0
  142.0630   79.0880  223.1030 C   0  0  0  0  0  0  0  0  0  0  0  0
  142.2094   78.0830  222.6805 H   0  0  0  0  0  0  0  0  0  0  0  0
  1  2  1  0
  2  3  2  0
  3  4  1  0
  4  5  1  0
  5  6  2  0
  6  7  1  0
  7  8  1  1
  7  9  1  0
  9 10  2  0
 10 11  1  0
 10 12  1  0
 12 13  1  0
 12 14  2  0
 14 15  1  0
 14 16  1  0
 16 17  1  0
 16 18  2  0
 18 19  1  0
  7 20  1  0
 20 21  1  0
 20 22  1  0
 20 23  1  0
  5 24  1  0
 24 25  1  0
  4 26  2  0
 26 27  1  0
 26 28  1  0
 28 29  1  0
 29 30  2  0
 29 31  1  0
 31 32  1  0
 32 33  1  0
 32 34  2  0
 34 35  1  0
 34 36  1  0
 36 37  1  0
 36 38  2  0
 38 39  1  0
 38 40  1  0
 40 41  2  0
 41 42  1  0
 42 43  1  0
 43 44  1  0
 44 45  1  0
 44 46  1  0
 44 47  1  0
 47 48  2  0
 48 49  1  0
 48 50  1  0
 50 51  1  0
 50 52  2  0
 52 53  1  0
 52 54  1  0
 54 55  1  0
 54 56  2  0
 56 57  1  0
 43  3  1  0
 56 47  1  0
 18  9  1  0
 42 28  2  0
 40 31  1  0
M  END
>  <UniqueID>  (17) 
96

>  <SMILES>  (17) 
[H]/N=c1/c(/C(O)=N\[C@@H](C)c2ccccc2)cc2c(=O)n3cc(Cl)cc(Cl)c3nc2n1Cc1ccccc1

>  <Energy>  (17) 
88.58360833133418

>  <Genealogy>  (17) 
C[C@H](N=C(O)c1cc2c(=O)n3cc(Cl)cc(Cl)c3nc2n(Cc2ccccc2)c1=N)c1ccccc1 (tautomer)
[H]/N=c1/c(/C(O)=N\[C@@H](C)c2ccccc2)cc2c(=O)n3cc(Cl)cc(Cl)c3nc2n1Cc1ccccc1 (cis-trans isomerization)
[H]/N=c1/c(/C(O)=N\[C@@H](C)c2ccccc2)cc2c(=O)n3cc(Cl)cc(Cl)c3nc2n1Cc1ccccc1 (3D coordinates assigned)
[H]/N=c1/c(/C(O)=N\[C@@H](C)c2ccccc2)cc2c(=O)n3cc(Cl)cc(Cl)c3nc2n1Cc1ccccc1 (optimized conformer: 88.58360833133418 kcal/mol)

>  <smiles>  (17) 
C[C@H](NC(=O)c1cc2c(=O)n3cc(Cl)cc(Cl)c3nc2n(Cc2ccccc2)c1=N)c1ccccc1

>  <score_type>  (17) 
oracle

>  <origin>  (17) 
autodockgpu

>  <m_score__min__energy>  (17) 
-8.6899999999999995

>  <m_primary>  (17) 
energy

>  <meeko>  (17) 
{"free_energy": -8.44, "intermolecular_energy": -10.82, "internal_energy": -2.35, "cluster_size": 9, "cluster_id": 1, "rank_in_cluster": 5}

>  <energy>  (17) 
-7.98

>  <cluster_rmsd>  (17) 
0.0

>  <rmsd>  (17) 
268.95

>  <cluster>  (17) 
5

$$$$
AFKJZVLHPMIVAS-NNNXYCNANA-N
     RDKit          3D

 57 61  0  0  0  0  0  0  0  0999 V2000
  140.6100   69.6260  221.2700 H   0  0  0  0  0  0  0  0  0  0  0  0
  138.3760   70.8630  223.7560 N   0  0  0  0  0  0  0  0  0  0  0  0
  140.6030   71.7130  220.9980 C   0  0  0  0  0  0  0  0  0  0  0  0
  139.5690   71.9540  221.9250 C   0  0  0  0  0  0  0  0  0  0  0  0
  138.7910   70.8440  222.5200 C   0  0  0  0  0  0  0  0  0  0  0  0
  140.9050   70.4710  220.7440 N   0  0  0  0  0  0  0  0  0  0  0  0
  138.6240   69.8510  224.7900 C   0  0  2  0  0  0  0  0  0  0  0  0
  137.6774   69.5945  225.2883 H   0  0  0  0  0  0  0  0  0  0  0  0
  139.5830   70.3980  225.8230 C   0  0  0  0  0  0  0  0  0  0  0  0
  139.5890   69.8900  227.1360 C   0  0  0  0  0  0  0  0  0  0  0  0
  138.9328   69.0473  227.3994 H   0  0  0  0  0  0  0  0  0  0  0  0
  140.4250   70.4510  228.1080 C   0  0  0  0  0  0  0  0  0  0  0  0
  140.4253   70.0468  229.1311 H   0  0  0  0  0  0  0  0  0  0  0  0
  141.2590   71.5230  227.7820 C   0  0  0  0  0  0  0  0  0  0  0  0
  141.9163   71.9613  228.5474 H   0  0  0  0  0  0  0  0  0  0  0  0
  141.2580   72.0390  226.4820 C   0  0  0  0  0  0  0  0  0  0  0  0
  141.9127   72.8852  226.2263 H   0  0  0  0  0  0  0  0  0  0  0  0
  140.4250   71.4800  225.5060 C   0  0  0  0  0  0  0  0  0  0  0  0
  140.4285   71.8890  224.4849 H   0  0  0  0  0  0  0  0  0  0  0  0
  139.2050   68.5940  224.1420 C   0  0  0  0  0  0  0  0  0  0  0  0
  139.5288   67.8936  224.9259 H   0  0  0  0  0  0  0  0  0  0  0  0
  138.4369   68.1152  223.5169 H   0  0  0  0  0  0  0  0  0  0  0  0
  140.0674   68.8689  223.5169 H   0  0  0  0  0  0  0  0  0  0  0  0
  138.5110   69.7340  221.7250 O   0  0  0  0  0  0  0  0  0  0  0  0
  138.9130   69.6410  220.8010 H   0  0  0  0  0  0  0  0  0  0  0  0
  139.2970   73.2550  222.3340 C   0  0  0  0  0  0  0  0  0  0  0  0
  138.5243   73.4418  223.0943 H   0  0  0  0  0  0  0  0  0  0  0  0
  140.0030   74.3230  221.7810 C   0  0  0  0  0  0  0  0  0  0  0  0
  139.7530   75.6560  222.1660 C   0  0  0  0  0  0  0  0  0  0  0  0
  138.8880   75.8940  223.0570 O   0  0  0  0  0  0  0  0  0  0  0  0
  140.4420   76.6870  221.5750 N   0  0  0  0  0  0  0  0  0  0  0  0
  140.2040   77.9880  221.9450 C   0  0  0  0  0  0  0  0  0  0  0  0
  139.4667   78.2023  222.7327 H   0  0  0  0  0  0  0  0  0  0  0  0
  140.8860   79.0420  221.3340 C   0  0  0  0  0  0  0  0  0  0  0  0
  140.5640   80.7010  221.8120 Cl  0  0  0  0  0  0  0  0  0  0  0  0
  141.8210   78.7690  220.3390 C   0  0  0  0  0  0  0  0  0  0  0  0
  142.3553   79.5929  219.8433 H   0  0  0  0  0  0  0  0  0  0  0  0
  142.0780   77.4500  219.9730 C   0  0  0  0  0  0  0  0  0  0  0  0
  143.2740   77.1210  218.7240 Cl  0  0  0  0  0  0  0  0  0  0  0  0
  141.3770   76.4100  220.6030 C   0  0  0  0  0  0  0  0  0  0  0  0
  141.6280   75.1260  220.2440 N   0  0  0  0  0  0  0  0  0  0  0  0
  140.9790   74.0680  220.8010 C   0  0  0  0  0  0  0  0  0  0  0  0
  141.2740   72.7770  220.4110 N   0  0  0  0  0  0  0  0  0  0  0  0
  142.2230   72.5810  219.2870 C   0  0  0  0  0  0  0  0  0  0  0  0
  142.0538   71.5911  218.8382 H   0  0  0  0  0  0  0  0  0  0  0  0
  142.0566   73.3690  218.5378 H   0  0  0  0  0  0  0  0  0  0  0  0
  143.6500   72.6670  219.7810 C   0  0  0  0  0  0  0  0  0  0  0  0
  144.0260   73.6760  220.6850 C   0  0  0  0  0  0  0  0  0  0  0  0
  143.2706   74.3811  221.0620 H   0  0  0  0  0  0  0  0  0  0  0  0
  145.3540   73.7890  221.1080 C   0  0  0  0  0  0  0  0  0  0  0  0
  145.6399   74.5817  221.8150 H   0  0  0  0  0  0  0  0  0  0  0  0
  146.3170   72.8970  220.6340 C   0  0  0  0  0  0  0  0  0  0  0  0
  147.3607   72.9852  220.9699 H   0  0  0  0  0  0  0  0  0  0  0  0
  145.9560   71.8920  219.7330 C   0  0  0  0  0  0  0  0  0  0  0  0
  146.7166   71.1908  219.3590 H   0  0  0  0  0  0  0  0  0  0  0  0
  144.6300   71.7760  219.3060 C   0  0  0  0  0  0  0  0  0  0  0  0
  144.3513   70.9842  218.5951 H   0  0  0  0  0  0  0  0  0  0  0  0
  1  2  1  0
  2  3  2  0
  3  4  1  0
  4  5  1  0
  5  6  2  0
  6  7  1  0
  7  8  1  6
  7  9  1  0
  9 10  2  0
 10 11  1  0
 10 12  1  0
 12 13  1  0
 12 14  2  0
 14 15  1  0
 14 16  1  0
 16 17  1  0
 16 18  2  0
 18 19  1  0
  7 20  1  0
 20 21  1  0
 20 22  1  0
 20 23  1  0
  5 24  1  0
 24 25  1  0
  4 26  2  0
 26 27  1  0
 26 28  1  0
 28 29  1  0
 29 30  2  0
 29 31  1  0
 31 32  1  0
 32 33  1  0
 32 34  2  0
 34 35  1  0
 34 36  1  0
 36 37  1  0
 36 38  2  0
 38 39  1  0
 38 40  1  0
 40 41  2  0
 41 42  1  0
 42 43  1  0
 43 44  1  0
 44 45  1  0
 44 46  1  0
 44 47  1  0
 47 48  2  0
 48 49  1  0
 48 50  1  0
 50 51  1  0
 50 52  2  0
 52 53  1  0
 52 54  1  0
 54 55  1  0
 54 56  2  0
 56 57  1  0
 43  3  1  0
 56 47  1  0
 18  9  1  0
 42 28  2  0
 40 31  1  0
M  END
>  <UniqueID>  (18) 
96

>  <SMILES>  (18) 
[H]/N=c1/c(/C(O)=N\[C@@H](C)c2ccccc2)cc2c(=O)n3cc(Cl)cc(Cl)c3nc2n1Cc1ccccc1

>  <Energy>  (18) 
88.58360833133418

>  <Genealogy>  (18) 
C[C@H](N=C(O)c1cc2c(=O)n3cc(Cl)cc(Cl)c3nc2n(Cc2ccccc2)c1=N)c1ccccc1 (tautomer)
[H]/N=c1/c(/C(O)=N\[C@@H](C)c2ccccc2)cc2c(=O)n3cc(Cl)cc(Cl)c3nc2n1Cc1ccccc1 (cis-trans isomerization)
[H]/N=c1/c(/C(O)=N\[C@@H](C)c2ccccc2)cc2c(=O)n3cc(Cl)cc(Cl)c3nc2n1Cc1ccccc1 (3D coordinates assigned)
[H]/N=c1/c(/C(O)=N\[C@@H](C)c2ccccc2)cc2c(=O)n3cc(Cl)cc(Cl)c3nc2n1Cc1ccccc1 (optimized conformer: 88.58360833133418 kcal/mol)

>  <smiles>  (18) 
C[C@H](NC(=O)c1cc2c(=O)n3cc(Cl)cc(Cl)c3nc2n(Cc2ccccc2)c1=N)c1ccccc1

>  <score_type>  (18) 
oracle

>  <origin>  (18) 
autodockgpu

>  <m_score__min__energy>  (18) 
-8.6899999999999995

>  <m_primary>  (18) 
energy

>  <meeko>  (18) 
{"free_energy": -8.15, "intermolecular_energy": -10.53, "internal_energy": -2.26, "cluster_size": 1, "cluster_id": 3, "rank_in_cluster": 1}

>  <energy>  (18) 
-7.86

>  <cluster_rmsd>  (18) 
0.0

>  <rmsd>  (18) 
268.95

>  <cluster>  (18) 
6

$$$$
AFKJZVLHPMIVAS-NNNXYCNANA-N
     RDKit          3D

 57 61  0  0  0  0  0  0  0  0999 V2000
  138.8910   74.8950  222.7300 H   0  0  0  0  0  0  0  0  0  0  0  0
  140.5400   73.3750  219.8280 N   0  0  0  0  0  0  0  0  0  0  0  0
  139.9850   76.4280  221.7900 C   0  0  0  0  0  0  0  0  0  0  0  0
  140.5670   75.6190  220.7930 C   0  0  0  0  0  0  0  0  0  0  0  0
  140.5390   74.1420  220.8820 C   0  0  0  0  0  0  0  0  0  0  0  0
  139.3490   75.8270  222.7550 N   0  0  0  0  0  0  0  0  0  0  0  0
  141.7040   72.9540  219.0390 C   0  0  2  0  0  0  0  0  0  0  0  0
  141.6441   71.8730  218.8445 H   0  0  0  0  0  0  0  0  0  0  0  0
  142.9750   73.2390  219.8070 C   0  0  0  0  0  0  0  0  0  0  0  0
  143.5970   74.5000  219.7230 C   0  0  0  0  0  0  0  0  0  0  0  0
  143.1249   75.3051  219.1409 H   0  0  0  0  0  0  0  0  0  0  0  0
  144.8120   74.7340  220.3760 C   0  0  0  0  0  0  0  0  0  0  0  0
  145.2896   75.7227  220.3089 H   0  0  0  0  0  0  0  0  0  0  0  0
  145.4200   73.7150  221.1130 C   0  0  0  0  0  0  0  0  0  0  0  0
  146.3751   73.9019  221.6258 H   0  0  0  0  0  0  0  0  0  0  0  0
  144.8150   72.4580  221.1990 C   0  0  0  0  0  0  0  0  0  0  0  0
  145.2965   71.6552  221.7767 H   0  0  0  0  0  0  0  0  0  0  0  0
  143.5970   72.2190  220.5510 C   0  0  0  0  0  0  0  0  0  0  0  0
  143.1237   71.2287  220.6238 H   0  0  0  0  0  0  0  0  0  0  0  0
  141.7130   73.7030  217.7060 C   0  0  0  0  0  0  0  0  0  0  0  0
  141.7260   74.7867  217.8944 H   0  0  0  0  0  0  0  0  0  0  0  0
  142.6078   73.4198  217.1323 H   0  0  0  0  0  0  0  0  0  0  0  0
  140.8116   73.4414  217.1323 H   0  0  0  0  0  0  0  0  0  0  0  0
  140.4940   73.5580  222.1470 O   0  0  0  0  0  0  0  0  0  0  0  0
  139.6980   73.6990  222.7570 H   0  0  0  0  0  0  0  0  0  0  0  0
  141.1410   76.2090  219.6720 C   0  0  0  0  0  0  0  0  0  0  0  0
  141.5519   75.5793  218.8691 H   0  0  0  0  0  0  0  0  0  0  0  0
  141.1960   77.5990  219.5650 C   0  0  0  0  0  0  0  0  0  0  0  0
  141.7720   78.2350  218.4470 C   0  0  0  0  0  0  0  0  0  0  0  0
  142.2270   77.5320  217.4980 O   0  0  0  0  0  0  0  0  0  0  0  0
  141.8420   79.6060  218.3900 N   0  0  0  0  0  0  0  0  0  0  0  0
  142.4020   80.2320  217.3040 C   0  0  0  0  0  0  0  0  0  0  0  0
  142.7828   79.6294  216.4662 H   0  0  0  0  0  0  0  0  0  0  0  0
  142.4940   81.6240  217.2500 C   0  0  0  0  0  0  0  0  0  0  0  0
  143.2210   82.4100  215.8580 Cl  0  0  0  0  0  0  0  0  0  0  0  0
  142.0080   82.3860  218.3100 C   0  0  0  0  0  0  0  0  0  0  0  0
  142.0861   83.4829  218.2822 H   0  0  0  0  0  0  0  0  0  0  0  0
  141.4230   81.7550  219.4050 C   0  0  0  0  0  0  0  0  0  0  0  0
  140.8020   82.7330  220.7300 Cl  0  0  0  0  0  0  0  0  0  0  0  0
  141.3460   80.3540  219.4340 C   0  0  0  0  0  0  0  0  0  0  0  0
  140.7770   79.7410  220.5030 N   0  0  0  0  0  0  0  0  0  0  0  0
  140.6770   78.3890  220.6060 C   0  0  0  0  0  0  0  0  0  0  0  0
  140.0810   77.8100  221.7090 N   0  0  0  0  0  0  0  0  0  0  0  0
  139.6650   78.6910  222.8290 C   0  0  0  0  0  0  0  0  0  0  0  0
  138.8420   79.3395  222.4941 H   0  0  0  0  0  0  0  0  0  0  0  0
  139.3337   78.0662  223.6715 H   0  0  0  0  0  0  0  0  0  0  0  0
  140.8250   79.5500  223.2800 C   0  0  0  0  0  0  0  0  0  0  0  0
  140.5900   80.8230  223.8320 C   0  0  0  0  0  0  0  0  0  0  0  0
  139.5577   81.1774  223.9693 H   0  0  0  0  0  0  0  0  0  0  0  0
  141.6610   81.6400  224.2070 C   0  0  0  0  0  0  0  0  0  0  0  0
  141.4690   82.6342  224.6367 H   0  0  0  0  0  0  0  0  0  0  0  0
  142.9730   81.1960  224.0370 C   0  0  0  0  0  0  0  0  0  0  0  0
  143.8140   81.8392  224.3354 H   0  0  0  0  0  0  0  0  0  0  0  0
  143.2190   79.9350  223.4880 C   0  0  0  0  0  0  0  0  0  0  0  0
  144.2538   79.5868  223.3538 H   0  0  0  0  0  0  0  0  0  0  0  0
  142.1520   79.1150  223.1090 C   0  0  0  0  0  0  0  0  0  0  0  0
  142.3511   78.1242  222.6747 H   0  0  0  0  0  0  0  0  0  0  0  0
  1  2  1  0
  2  3  2  0
  3  4  1  0
  4  5  1  0
  5  6  2  0
  6  7  1  0
  7  8  1  6
  7  9  1  0
  9 10  2  0
 10 11  1  0
 10 12  1  0
 12 13  1  0
 12 14  2  0
 14 15  1  0
 14 16  1  0
 16 17  1  0
 16 18  2  0
 18 19  1  0
  7 20  1  0
 20 21  1  0
 20 22  1  0
 20 23  1  0
  5 24  1  0
 24 25  1  0
  4 26  2  0
 26 27  1  0
 26 28  1  0
 28 29  1  0
 29 30  2  0
 29 31  1  0
 31 32  1  0
 32 33  1  0
 32 34  2  0
 34 35  1  0
 34 36  1  0
 36 37  1  0
 36 38  2  0
 38 39  1  0
 38 40  1  0
 40 41  2  0
 41 42  1  0
 42 43  1  0
 43 44  1  0
 44 45  1  0
 44 46  1  0
 44 47  1  0
 47 48  2  0
 48 49  1  0
 48 50  1  0
 50 51  1  0
 50 52  2  0
 52 53  1  0
 52 54  1  0
 54 55  1  0
 54 56  2  0
 56 57  1  0
 43  3  1  0
 56 47  1  0
 18  9  1  0
 42 28  2  0
 40 31  1  0
M  END
>  <UniqueID>  (19) 
96

>  <SMILES>  (19) 
[H]/N=c1/c(/C(O)=N\[C@@H](C)c2ccccc2)cc2c(=O)n3cc(Cl)cc(Cl)c3nc2n1Cc1ccccc1

>  <Energy>  (19) 
88.58360833133418

>  <Genealogy>  (19) 
C[C@H](N=C(O)c1cc2c(=O)n3cc(Cl)cc(Cl)c3nc2n(Cc2ccccc2)c1=N)c1ccccc1 (tautomer)
[H]/N=c1/c(/C(O)=N\[C@@H](C)c2ccccc2)cc2c(=O)n3cc(Cl)cc(Cl)c3nc2n1Cc1ccccc1 (cis-trans isomerization)
[H]/N=c1/c(/C(O)=N\[C@@H](C)c2ccccc2)cc2c(=O)n3cc(Cl)cc(Cl)c3nc2n1Cc1ccccc1 (3D coordinates assigned)
[H]/N=c1/c(/C(O)=N\[C@@H](C)c2ccccc2)cc2c(=O)n3cc(Cl)cc(Cl)c3nc2n1Cc1ccccc1 (optimized conformer: 88.58360833133418 kcal/mol)

>  <smiles>  (19) 
C[C@H](NC(=O)c1cc2c(=O)n3cc(Cl)cc(Cl)c3nc2n(Cc2ccccc2)c1=N)c1ccccc1

>  <score_type>  (19) 
oracle

>  <origin>  (19) 
autodockgpu

>  <m_score__min__energy>  (19) 
-8.6899999999999995

>  <m_primary>  (19) 
energy

>  <meeko>  (19) 
{"free_energy": -8.15, "intermolecular_energy": -10.54, "internal_energy": -2.52, "cluster_size": 9, "cluster_id": 1, "rank_in_cluster": 8}

>  <energy>  (19) 
-7.82

>  <cluster_rmsd>  (19) 
0.21

>  <rmsd>  (19) 
268.96

>  <cluster>  (19) 
6

$$$$
AFKJZVLHPMIVAS-NNNXYCNANA-N
     RDKit          3D

 57 61  0  0  0  0  0  0  0  0999 V2000
  139.5650   75.1910  223.3890 H   0  0  0  0  0  0  0  0  0  0  0  0
  140.3020   73.4480  219.7890 N   0  0  0  0  0  0  0  0  0  0  0  0
  139.8710   76.5050  221.7740 C   0  0  0  0  0  0  0  0  0  0  0  0
  140.4180   75.6820  220.7690 C   0  0  0  0  0  0  0  0  0  0  0  0
  140.3350   74.2060  220.8490 C   0  0  0  0  0  0  0  0  0  0  0  0
  139.2170   75.9220  222.7390 N   0  0  0  0  0  0  0  0  0  0  0  0
  141.4430   73.0080  218.9770 C   0  0  2  0  0  0  0  0  0  0  0  0
  141.3410   71.9366  218.7499 H   0  0  0  0  0  0  0  0  0  0  0  0
  142.7300   73.2220  219.7430 C   0  0  0  0  0  0  0  0  0  0  0  0
  143.4520   74.4230  219.6090 C   0  0  0  0  0  0  0  0  0  0  0  0
  143.0493   75.2374  218.9889 H   0  0  0  0  0  0  0  0  0  0  0  0
  144.6800   74.5860  220.2610 C   0  0  0  0  0  0  0  0  0  0  0  0
  145.2367   75.5288  220.1550 H   0  0  0  0  0  0  0  0  0  0  0  0
  145.2000   73.5540  221.0460 C   0  0  0  0  0  0  0  0  0  0  0  0
  146.1648   73.6849  221.5578 H   0  0  0  0  0  0  0  0  0  0  0  0
  144.4940   72.3550  221.1810 C   0  0  0  0  0  0  0  0  0  0  0  0
  144.9058   71.5419  221.7969 H   0  0  0  0  0  0  0  0  0  0  0  0
  143.2640   72.1870  220.5340 C   0  0  0  0  0  0  0  0  0  0  0  0
  142.7121   71.2418  220.6442 H   0  0  0  0  0  0  0  0  0  0  0  0
  141.4700   73.7960  217.6680 C   0  0  0  0  0  0  0  0  0  0  0  0
  141.5069   74.8729  217.8890 H   0  0  0  0  0  0  0  0  0  0  0  0
  142.3589   73.5104  217.0864 H   0  0  0  0  0  0  0  0  0  0  0  0
  140.5636   73.5719  217.0864 H   0  0  0  0  0  0  0  0  0  0  0  0
  140.2750   73.6160  222.1100 O   0  0  0  0  0  0  0  0  0  0  0  0
  139.4840   73.7760  222.7220 H   0  0  0  0  0  0  0  0  0  0  0  0
  141.0080   76.2580  219.6490 C   0  0  0  0  0  0  0  0  0  0  0  0
  141.3920   75.6191  218.8401 H   0  0  0  0  0  0  0  0  0  0  0  0
  141.1130   77.6460  219.5510 C   0  0  0  0  0  0  0  0  0  0  0  0
  141.7080   78.2680  218.4340 C   0  0  0  0  0  0  0  0  0  0  0  0
  142.1320   77.5550  217.4790 O   0  0  0  0  0  0  0  0  0  0  0  0
  141.8280   79.6350  218.3860 N   0  0  0  0  0  0  0  0  0  0  0  0
  142.4060   80.2480  217.3020 C   0  0  0  0  0  0  0  0  0  0  0  0
  142.7611   79.6375  216.4587 H   0  0  0  0  0  0  0  0  0  0  0  0
  142.5490   81.6360  217.2560 C   0  0  0  0  0  0  0  0  0  0  0  0
  143.2990   82.4040  215.8660 Cl  0  0  0  0  0  0  0  0  0  0  0  0
  142.0980   82.4080  218.3240 C   0  0  0  0  0  0  0  0  0  0  0  0
  142.2178   83.5013  218.3035 H   0  0  0  0  0  0  0  0  0  0  0  0
  141.4950   81.7920  219.4180 C   0  0  0  0  0  0  0  0  0  0  0  0
  140.9160   82.7830  220.7520 Cl  0  0  0  0  0  0  0  0  0  0  0  0
  141.3650   80.3940  219.4380 C   0  0  0  0  0  0  0  0  0  0  0  0
  140.7790   79.7960  220.5050 N   0  0  0  0  0  0  0  0  0  0  0  0
  140.6300   78.4470  220.6010 C   0  0  0  0  0  0  0  0  0  0  0  0
  140.0170   77.8830  221.7020 N   0  0  0  0  0  0  0  0  0  0  0  0
  139.6410   78.7720  222.8300 C   0  0  0  0  0  0  0  0  0  0  0  0
  138.8394   79.4513  222.5044 H   0  0  0  0  0  0  0  0  0  0  0  0
  139.2943   78.1538  223.6712 H   0  0  0  0  0  0  0  0  0  0  0  0
  140.8330   79.5870  223.2790 C   0  0  0  0  0  0  0  0  0  0  0  0
  140.6460   80.8610  223.8450 C   0  0  0  0  0  0  0  0  0  0  0  0
  139.6274   81.2486  223.9944 H   0  0  0  0  0  0  0  0  0  0  0  0
  141.7470   81.6380  224.2190 C   0  0  0  0  0  0  0  0  0  0  0  0
  141.5927   82.6335  224.6608 H   0  0  0  0  0  0  0  0  0  0  0  0
  143.0410   81.1510  224.0320 C   0  0  0  0  0  0  0  0  0  0  0  0
  143.9060   81.7622  224.3290 H   0  0  0  0  0  0  0  0  0  0  0  0
  143.2400   79.8880  223.4680 C   0  0  0  0  0  0  0  0  0  0  0  0
  144.2612   79.5065  223.3206 H   0  0  0  0  0  0  0  0  0  0  0  0
  142.1420   79.1090  223.0910 C   0  0  0  0  0  0  0  0  0  0  0  0
  142.3030   78.1165  222.6448 H   0  0  0  0  0  0  0  0  0  0  0  0
  1  2  1  0
  2  3  2  0
  3  4  1  0
  4  5  1  0
  5  6  2  0
  6  7  1  0
  7  8  1  6
  7  9  1  0
  9 10  2  0
 10 11  1  0
 10 12  1  0
 12 13  1  0
 12 14  2  0
 14 15  1  0
 14 16  1  0
 16 17  1  0
 16 18  2  0
 18 19  1  0
  7 20  1  0
 20 21  1  0
 20 22  1  0
 20 23  1  0
  5 24  1  0
 24 25  1  0
  4 26  2  0
 26 27  1  0
 26 28  1  0
 28 29  1  0
 29 30  2  0
 29 31  1  0
 31 32  1  0
 32 33  1  0
 32 34  2  0
 34 35  1  0
 34 36  1  0
 36 37  1  0
 36 38  2  0
 38 39  1  0
 38 40  1  0
 40 41  2  0
 41 42  1  0
 42 43  1  0
 43 44  1  0
 44 45  1  0
 44 46  1  0
 44 47  1  0
 47 48  2  0
 48 49  1  0
 48 50  1  0
 50 51  1  0
 50 52  2  0
 52 53  1  0
 52 54  1  0
 54 55  1  0
 54 56  2  0
 56 57  1  0
 43  3  1  0
 56 47  1  0
 18  9  1  0
 42 28  2  0
 40 31  1  0
M  END
>  <UniqueID>  (20) 
96

>  <SMILES>  (20) 
[H]/N=c1/c(/C(O)=N\[C@@H](C)c2ccccc2)cc2c(=O)n3cc(Cl)cc(Cl)c3nc2n1Cc1ccccc1

>  <Energy>  (20) 
88.58360833133418

>  <Genealogy>  (20) 
C[C@H](N=C(O)c1cc2c(=O)n3cc(Cl)cc(Cl)c3nc2n(Cc2ccccc2)c1=N)c1ccccc1 (tautomer)
[H]/N=c1/c(/C(O)=N\[C@@H](C)c2ccccc2)cc2c(=O)n3cc(Cl)cc(Cl)c3nc2n1Cc1ccccc1 (cis-trans isomerization)
[H]/N=c1/c(/C(O)=N\[C@@H](C)c2ccccc2)cc2c(=O)n3cc(Cl)cc(Cl)c3nc2n1Cc1ccccc1 (3D coordinates assigned)
[H]/N=c1/c(/C(O)=N\[C@@H](C)c2ccccc2)cc2c(=O)n3cc(Cl)cc(Cl)c3nc2n1Cc1ccccc1 (optimized conformer: 88.58360833133418 kcal/mol)

>  <smiles>  (20) 
C[C@H](NC(=O)c1cc2c(=O)n3cc(Cl)cc(Cl)c3nc2n(Cc2ccccc2)c1=N)c1ccccc1

>  <score_type>  (20) 
oracle

>  <origin>  (20) 
autodockgpu

>  <m_score__min__energy>  (20) 
-8.6899999999999995

>  <m_primary>  (20) 
energy

>  <meeko>  (20) 
{"free_energy": -8.03, "intermolecular_energy": -10.42, "internal_energy": -2.62, "cluster_size": 9, "cluster_id": 1, "rank_in_cluster": 9}

>  <energy>  (20) 
-7.35

>  <cluster_rmsd>  (20) 
0.0

>  <rmsd>  (20) 
269.91

>  <cluster>  (20) 
7

$$$$
AFKJZVLHPMIVAS-OQJQLQHTNA-N
     RDKit          3D

 57 61  0  0  0  0  0  0  0  0999 V2000
  138.1720   75.3180  223.1820 H   0  0  0  0  0  0  0  0  0  0  0  0
  138.3820   74.7470  222.3380 N   0  0  0  0  0  0  0  0  0  0  0  0
  139.5520   74.3440  221.9280 C   0  0  0  0  0  0  0  0  0  0  0  0
  140.5660   75.3160  221.7680 C   0  0  0  0  0  0  0  0  0  0  0  0
  140.3550   76.7370  222.1500 C   0  0  0  0  0  0  0  0  0  0  0  0
  139.2250   77.1070  222.5730 O   0  0  0  0  0  0  0  0  0  0  0  0
  141.4230   77.6920  222.0400 N   0  0  0  0  0  0  0  0  0  0  0  0
  142.3240   77.3930  221.6020 H   0  0  0  0  0  0  0  0  0  0  0  0
  141.2520   79.0950  222.4320 C   0  0  2  0  0  0  0  0  0  0  0  0
  140.2265   79.2257  222.8079 H   0  0  0  0  0  0  0  0  0  0  0  0
  141.4520   80.0050  221.2390 C   0  0  0  0  0  0  0  0  0  0  0  0
  141.8150   79.4650  219.9920 C   0  0  0  0  0  0  0  0  0  0  0  0
  141.9636   78.3801  219.8880 H   0  0  0  0  0  0  0  0  0  0  0  0
  141.9880   80.3000  218.8840 C   0  0  0  0  0  0  0  0  0  0  0  0
  142.2756   79.8713  217.9127 H   0  0  0  0  0  0  0  0  0  0  0  0
  141.7960   81.6790  219.0090 C   0  0  0  0  0  0  0  0  0  0  0  0
  141.9357   82.3346  218.1368 H   0  0  0  0  0  0  0  0  0  0  0  0
  141.4270   82.2250  220.2400 C   0  0  0  0  0  0  0  0  0  0  0  0
  141.2747   83.3101  220.3363 H   0  0  0  0  0  0  0  0  0  0  0  0
  141.2510   81.3940  221.3500 C   0  0  0  0  0  0  0  0  0  0  0  0
  140.9537   81.8279  222.3161 H   0  0  0  0  0  0  0  0  0  0  0  0
  142.2310   79.4660  223.5500 C   0  0  0  0  0  0  0  0  0  0  0  0
  141.7575   79.2866  224.5265 H   0  0  0  0  0  0  0  0  0  0  0  0
  143.1376   78.8491  223.4632 H   0  0  0  0  0  0  0  0  0  0  0  0
  142.5010   80.5288  223.4632 H   0  0  0  0  0  0  0  0  0  0  0  0
  141.7960   74.9360  221.2300 C   0  0  0  0  0  0  0  0  0  0  0  0
  142.5945   75.6831  221.1106 H   0  0  0  0  0  0  0  0  0  0  0  0
  142.0200   73.6130  220.8420 C   0  0  0  0  0  0  0  0  0  0  0  0
  143.2390   73.2020  220.2660 C   0  0  0  0  0  0  0  0  0  0  0  0
  144.1610   74.0490  220.0910 O   0  0  0  0  0  0  0  0  0  0  0  0
  143.4200   71.8920  219.8950 N   0  0  0  0  0  0  0  0  0  0  0  0
  144.6020   71.4840  219.3280 C   0  0  0  0  0  0  0  0  0  0  0  0
  145.4099   72.2141  219.1725 H   0  0  0  0  0  0  0  0  0  0  0  0
  144.7920   70.1540  218.9460 C   0  0  0  0  0  0  0  0  0  0  0  0
  146.3080   69.6480  218.2240 Cl  0  0  0  0  0  0  0  0  0  0  0  0
  143.7680   69.2310  219.1420 C   0  0  0  0  0  0  0  0  0  0  0  0
  143.9069   68.1815  218.8433 H   0  0  0  0  0  0  0  0  0  0  0  0
  142.5680   69.6400  219.7170 C   0  0  0  0  0  0  0  0  0  0  0  0
  141.2820   68.4630  219.9570 Cl  0  0  0  0  0  0  0  0  0  0  0  0
  142.4040   70.9830  220.0920 C   0  0  0  0  0  0  0  0  0  0  0  0
  141.2340   71.3790  220.6530 N   0  0  0  0  0  0  0  0  0  0  0  0
  141.0050   72.6640  221.0370 C   0  0  0  0  0  0  0  0  0  0  0  0
  139.8000   73.0180  221.6050 N   0  0  0  0  0  0  0  0  0  0  0  0
  138.8080   71.9420  221.8490 C   0  0  0  0  0  0  0  0  0  0  0  0
  137.8179   72.3961  222.0021 H   0  0  0  0  0  0  0  0  0  0  0  0
  138.8004   71.2738  220.9752 H   0  0  0  0  0  0  0  0  0  0  0  0
  139.1680   71.1260  223.0680 C   0  0  0  0  0  0  0  0  0  0  0  0
  140.1430   71.5950  223.9650 C   0  0  0  0  0  0  0  0  0  0  0  0
  140.6454   72.5545  223.7727 H   0  0  0  0  0  0  0  0  0  0  0  0
  140.4790   70.8510  225.1000 C   0  0  0  0  0  0  0  0  0  0  0  0
  141.2495   71.2219  225.7920 H   0  0  0  0  0  0  0  0  0  0  0  0
  139.8370   69.6370  225.3560 C   0  0  0  0  0  0  0  0  0  0  0  0
  140.1033   69.0513  226.2482 H   0  0  0  0  0  0  0  0  0  0  0  0
  138.8570   69.1670  224.4790 C   0  0  0  0  0  0  0  0  0  0  0  0
  138.3507   68.2119  224.6824 H   0  0  0  0  0  0  0  0  0  0  0  0
  138.5180   69.9090  223.3420 C   0  0  0  0  0  0  0  0  0  0  0  0
  137.7393   69.5387  222.6590 H   0  0  0  0  0  0  0  0  0  0  0  0
  1  2  1  0
  2  3  2  0
  3  4  1  0
  4  5  1  0
  5  6  2  0
  5  7  1  0
  7  8  1  0
  7  9  1  0
  9 10  1  1
  9 11  1  0
 11 12  2  0
 12 13  1  0
 12 14  1  0
 14 15  1  0
 14 16  2  0
 16 17  1  0
 16 18  1  0
 18 19  1  0
 18 20  2  0
 20 21  1  0
  9 22  1  0
 22 23  1  0
 22 24  1  0
 22 25  1  0
  4 26  2  0
 26 27  1  0
 26 28  1  0
 28 29  1  0
 29 30  2  0
 29 31  1  0
 31 32  1  0
 32 33  1  0
 32 34  2  0
 34 35  1  0
 34 36  1  0
 36 37  1  0
 36 38  2  0
 38 39  1  0
 38 40  1  0
 40 41  2  0
 41 42  1  0
 42 43  1  0
 43 44  1  0
 44 45  1  0
 44 46  1  0
 44 47  1  0
 47 48  2  0
 48 49  1  0
 48 50  1  0
 50 51  1  0
 50 52  2  0
 52 53  1  0
 52 54  1  0
 54 55  1  0
 54 56  2  0
 56 57  1  0
 43  3  1  0
 56 47  1  0
 20 11  1  0
 42 28  2  0
 40 31  1  0
M  END
>  <UniqueID>  (21) 
97

>  <SMILES>  (21) 
[H]/N=c1/c(C(=O)N[C@@H](C)c2ccccc2)cc2c(=O)n3cc(Cl)cc(Cl)c3nc2n1Cc1ccccc1

>  <Energy>  (21) 
83.40535062579522

>  <Genealogy>  (21) 
[H]/N=c1/c(C(=O)N[C@@H](C)c2ccccc2)cc2c(=O)n3cc(Cl)cc(Cl)c3nc2n1Cc1ccccc1 (cis-trans isomerization)
[H]/N=c1/c(C(=O)N[C@@H](C)c2ccccc2)cc2c(=O)n3cc(Cl)cc(Cl)c3nc2n1Cc1ccccc1 (3D coordinates assigned)
[H]/N=c1/c(C(=O)N[C@@H](C)c2ccccc2)cc2c(=O)n3cc(Cl)cc(Cl)c3nc2n1Cc1ccccc1 (optimized conformer: 83.40535062579522 kcal/mol)

>  <smiles>  (21) 
C[C@H](NC(=O)c1cc2c(=O)n3cc(Cl)cc(Cl)c3nc2n(Cc2ccccc2)c1=N)c1ccccc1

>  <score_type>  (21) 
oracle

>  <origin>  (21) 
autodockgpu

>  <m_score__min__energy>  (21) 
-8.9399999999999995

>  <m_primary>  (21) 
energy

>  <meeko>  (21) 
{"free_energy": -8.4, "intermolecular_energy": -10.19, "internal_energy": -1.67, "cluster_size": 1, "cluster_id": 3, "rank_in_cluster": 1}

>  <energy>  (21) 
-8.94

>  <cluster_rmsd>  (21) 
0.0

>  <rmsd>  (21) 
269.13

>  <cluster>  (21) 
1

$$$$
AFKJZVLHPMIVAS-OQJQLQHTNA-N
     RDKit          3D

 57 61  0  0  0  0  0  0  0  0999 V2000
  138.3740   74.4790  222.8210 H   0  0  0  0  0  0  0  0  0  0  0  0
  139.3670   74.7560  222.6810 N   0  0  0  0  0  0  0  0  0  0  0  0
  140.0820   74.6130  221.6000 C   0  0  0  0  0  0  0  0  0  0  0  0
  140.5980   73.3270  221.3170 C   0  0  0  0  0  0  0  0  0  0  0  0
  140.2580   72.1460  222.1520 C   0  0  0  0  0  0  0  0  0  0  0  0
  141.0250   71.1440  222.1560 O   0  0  0  0  0  0  0  0  0  0  0  0
  139.0640   72.1320  222.9510 N   0  0  0  0  0  0  0  0  0  0  0  0
  138.3910   72.9280  222.8670 H   0  0  0  0  0  0  0  0  0  0  0  0
  138.7150   70.9910  223.8040 C   0  0  2  0  0  0  0  0  0  0  0  0
  137.6638   71.0972  224.1100 H   0  0  0  0  0  0  0  0  0  0  0  0
  139.5830   70.9740  225.0450 C   0  0  0  0  0  0  0  0  0  0  0  0
  140.6370   71.8940  225.1820 C   0  0  0  0  0  0  0  0  0  0  0  0
  140.8368   72.6202  224.3804 H   0  0  0  0  0  0  0  0  0  0  0  0
  141.4330   71.8910  226.3320 C   0  0  0  0  0  0  0  0  0  0  0  0
  142.2579   72.6119  226.4308 H   0  0  0  0  0  0  0  0  0  0  0  0
  141.1820   70.9740  227.3550 C   0  0  0  0  0  0  0  0  0  0  0  0
  141.8121   70.9704  228.2567 H   0  0  0  0  0  0  0  0  0  0  0  0
  140.1310   70.0610  227.2340 C   0  0  0  0  0  0  0  0  0  0  0  0
  139.9323   69.3412  228.0417 H   0  0  0  0  0  0  0  0  0  0  0  0
  139.3320   70.0620  226.0870 C   0  0  0  0  0  0  0  0  0  0  0  0
  138.5020   69.3456  225.9983 H   0  0  0  0  0  0  0  0  0  0  0  0
  138.8670   69.6760  223.0340 C   0  0  0  0  0  0  0  0  0  0  0  0
  138.9633   68.8431  223.7461 H   0  0  0  0  0  0  0  0  0  0  0  0
  137.9813   69.5170  222.4014 H   0  0  0  0  0  0  0  0  0  0  0  0
  139.7657   69.7233  222.4014 H   0  0  0  0  0  0  0  0  0  0  0  0
  141.4550   73.1620  220.2280 C   0  0  0  0  0  0  0  0  0  0  0  0
  141.8541   72.1643  219.9930 H   0  0  0  0  0  0  0  0  0  0  0  0
  141.8090   74.2550  219.4350 C   0  0  0  0  0  0  0  0  0  0  0  0
  142.6970   74.1290  218.3480 C   0  0  0  0  0  0  0  0  0  0  0  0
  143.1920   72.9980  218.0760 O   0  0  0  0  0  0  0  0  0  0  0  0
  143.0250   75.2290  217.5920 N   0  0  0  0  0  0  0  0  0  0  0  0
  143.8920   75.1160  216.5340 C   0  0  0  0  0  0  0  0  0  0  0  0
  144.3248   74.1348  216.2892 H   0  0  0  0  0  0  0  0  0  0  0  0
  144.2320   76.2310  215.7640 C   0  0  0  0  0  0  0  0  0  0  0  0
  145.3410   76.0700  214.4150 Cl  0  0  0  0  0  0  0  0  0  0  0  0
  143.6810   77.4720  216.0740 C   0  0  0  0  0  0  0  0  0  0  0  0
  143.9419   78.3562  215.4740 H   0  0  0  0  0  0  0  0  0  0  0  0
  142.8000   77.5910  217.1440 C   0  0  0  0  0  0  0  0  0  0  0  0
  142.1140   79.1660  217.5260 Cl  0  0  0  0  0  0  0  0  0  0  0  0
  142.4760   76.4540  217.9020 C   0  0  0  0  0  0  0  0  0  0  0  0
  141.6160   76.5710  218.9450 N   0  0  0  0  0  0  0  0  0  0  0  0
  141.2620   75.5140  219.7230 C   0  0  0  0  0  0  0  0  0  0  0  0
  140.3820   75.6840  220.7710 N   0  0  0  0  0  0  0  0  0  0  0  0
  139.7870   77.0290  220.9640 C   0  0  0  0  0  0  0  0  0  0  0  0
  139.5452   77.4578  219.9803 H   0  0  0  0  0  0  0  0  0  0  0  0
  138.8799   76.9214  221.5768 H   0  0  0  0  0  0  0  0  0  0  0  0
  140.7390   77.9550  221.6830 C   0  0  0  0  0  0  0  0  0  0  0  0
  141.3060   79.0470  221.0030 C   0  0  0  0  0  0  0  0  0  0  0  0
  141.0572   79.2207  219.9457 H   0  0  0  0  0  0  0  0  0  0  0  0
  142.1840   79.9140  221.6610 C   0  0  0  0  0  0  0  0  0  0  0  0
  142.6308   80.7599  221.1180 H   0  0  0  0  0  0  0  0  0  0  0  0
  142.4940   79.7070  223.0060 C   0  0  0  0  0  0  0  0  0  0  0  0
  143.1853   80.3894  223.5221 H   0  0  0  0  0  0  0  0  0  0  0  0
  141.9270   78.6340  223.6970 C   0  0  0  0  0  0  0  0  0  0  0  0
  142.1713   78.4729  224.7574 H   0  0  0  0  0  0  0  0  0  0  0  0
  141.0480   77.7630  223.0420 C   0  0  0  0  0  0  0  0  0  0  0  0
  140.5968   76.9245  223.5927 H   0  0  0  0  0  0  0  0  0  0  0  0
  1  2  1  0
  2  3  2  0
  3  4  1  0
  4  5  1  0
  5  6  2  0
  5  7  1  0
  7  8  1  0
  7  9  1  0
  9 10  1  1
  9 11  1  0
 11 12  2  0
 12 13  1  0
 12 14  1  0
 14 15  1  0
 14 16  2  0
 16 17  1  0
 16 18  1  0
 18 19  1  0
 18 20  2  0
 20 21  1  0
  9 22  1  0
 22 23  1  0
 22 24  1  0
 22 25  1  0
  4 26  2  0
 26 27  1  0
 26 28  1  0
 28 29  1  0
 29 30  2  0
 29 31  1  0
 31 32  1  0
 32 33  1  0
 32 34  2  0
 34 35  1  0
 34 36  1  0
 36 37  1  0
 36 38  2  0
 38 39  1  0
 38 40  1  0
 40 41  2  0
 41 42  1  0
 42 43  1  0
 43 44  1  0
 44 45  1  0
 44 46  1  0
 44 47  1  0
 47 48  2  0
 48 49  1  0
 48 50  1  0
 50 51  1  0
 50 52  2  0
 52 53  1  0
 52 54  1  0
 54 55  1  0
 54 56  2  0
 56 57  1  0
 43  3  1  0
 56 47  1  0
 20 11  1  0
 42 28  2  0
 40 31  1  0
M  END
>  <UniqueID>  (22) 
97

>  <SMILES>  (22) 
[H]/N=c1/c(C(=O)N[C@@H](C)c2ccccc2)cc2c(=O)n3cc(Cl)cc(Cl)c3nc2n1Cc1ccccc1

>  <Energy>  (22) 
83.40535062579522

>  <Genealogy>  (22) 
[H]/N=c1/c(C(=O)N[C@@H](C)c2ccccc2)cc2c(=O)n3cc(Cl)cc(Cl)c3nc2n1Cc1ccccc1 (cis-trans isomerization)
[H]/N=c1/c(C(=O)N[C@@H](C)c2ccccc2)cc2c(=O)n3cc(Cl)cc(Cl)c3nc2n1Cc1ccccc1 (3D coordinates assigned)
[H]/N=c1/c(C(=O)N[C@@H](C)c2ccccc2)cc2c(=O)n3cc(Cl)cc(Cl)c3nc2n1Cc1ccccc1 (optimized conformer: 83.40535062579522 kcal/mol)

>  <smiles>  (22) 
C[C@H](NC(=O)c1cc2c(=O)n3cc(Cl)cc(Cl)c3nc2n(Cc2ccccc2)c1=N)c1ccccc1

>  <score_type>  (22) 
oracle

>  <origin>  (22) 
autodockgpu

>  <m_score__min__energy>  (22) 
-8.9399999999999995

>  <m_primary>  (22) 
energy

>  <meeko>  (22) 
{"free_energy": -8.93, "intermolecular_energy": -10.72, "internal_energy": -1.64, "cluster_size": 6, "cluster_id": 1, "rank_in_cluster": 2}

>  <energy>  (22) 
-8.93

>  <cluster_rmsd>  (22) 
0.04

>  <rmsd>  (22) 
269.11

>  <cluster>  (22) 
1

$$$$
AFKJZVLHPMIVAS-OQJQLQHTNA-N
     RDKit          3D

 57 61  0  0  0  0  0  0  0  0999 V2000
  140.6690   69.8620  220.7130 H   0  0  0  0  0  0  0  0  0  0  0  0
  141.2090   70.7220  220.4840 N   0  0  0  0  0  0  0  0  0  0  0  0
  140.9750   71.9350  220.8990 C   0  0  0  0  0  0  0  0  0  0  0  0
  140.0810   72.1010  221.9830 C   0  0  0  0  0  0  0  0  0  0  0  0
  139.5030   70.9370  222.7050 C   0  0  0  0  0  0  0  0  0  0  0  0
  139.8050   69.7670  222.3430 O   0  0  0  0  0  0  0  0  0  0  0  0
  138.6040   71.1320  223.8080 N   0  0  0  0  0  0  0  0  0  0  0  0
  138.2900   72.1030  224.0380 H   0  0  0  0  0  0  0  0  0  0  0  0
  138.0370   70.0050  224.5560 C   0  0  2  0  0  0  0  0  0  0  0  0
  137.2122   70.3826  225.1782 H   0  0  0  0  0  0  0  0  0  0  0  0
  139.0860   69.3900  225.4590 C   0  0  0  0  0  0  0  0  0  0  0  0
  139.9510   70.2140  226.2000 C   0  0  0  0  0  0  0  0  0  0  0  0
  139.8713   71.3078  226.1145 H   0  0  0  0  0  0  0  0  0  0  0  0
  140.9120   69.6510  227.0450 C   0  0  0  0  0  0  0  0  0  0  0  0
  141.5888   70.3021  227.6178 H   0  0  0  0  0  0  0  0  0  0  0  0
  141.0140   68.2630  227.1630 C   0  0  0  0  0  0  0  0  0  0  0  0
  141.7724   67.8223  227.8268 H   0  0  0  0  0  0  0  0  0  0  0  0
  140.1540   67.4340  226.4390 C   0  0  0  0  0  0  0  0  0  0  0  0
  140.2350   66.3411  226.5335 H   0  0  0  0  0  0  0  0  0  0  0  0
  139.1900   67.9930  225.5940 C   0  0  0  0  0  0  0  0  0  0  0  0
  138.5092   67.3370  225.0317 H   0  0  0  0  0  0  0  0  0  0  0  0
  137.4800   68.9480  223.5970 C   0  0  0  0  0  0  0  0  0  0  0  0
  137.0440   68.1207  224.1763 H   0  0  0  0  0  0  0  0  0  0  0  0
  136.7034   69.4009  222.9631 H   0  0  0  0  0  0  0  0  0  0  0  0
  138.2926   68.5635  222.9631 H   0  0  0  0  0  0  0  0  0  0  0  0
  139.7250   73.3900  222.3810 C   0  0  0  0  0  0  0  0  0  0  0  0
  139.0383   73.5297  223.2289 H   0  0  0  0  0  0  0  0  0  0  0  0
  140.2340   74.5030  221.7110 C   0  0  0  0  0  0  0  0  0  0  0  0
  139.8700   75.8170  222.0670 C   0  0  0  0  0  0  0  0  0  0  0  0
  139.0590   76.0030  223.0190 O   0  0  0  0  0  0  0  0  0  0  0  0
  140.3900   76.8880  221.3810 N   0  0  0  0  0  0  0  0  0  0  0  0
  140.0380   78.1720  221.7180 C   0  0  0  0  0  0  0  0  0  0  0  0
  139.3347   78.3423  222.5465 H   0  0  0  0  0  0  0  0  0  0  0  0
  140.5610   79.2640  221.0230 C   0  0  0  0  0  0  0  0  0  0  0  0
  140.1000   80.8980  221.4660 Cl  0  0  0  0  0  0  0  0  0  0  0  0
  141.4520   79.0480  219.9750 C   0  0  0  0  0  0  0  0  0  0  0  0
  141.8694   79.9019  219.4212 H   0  0  0  0  0  0  0  0  0  0  0  0
  141.8130   77.7490  219.6300 C   0  0  0  0  0  0  0  0  0  0  0  0
  142.9380   77.4910  218.3030 Cl  0  0  0  0  0  0  0  0  0  0  0  0
  141.2730   76.6690  220.3460 C   0  0  0  0  0  0  0  0  0  0  0  0
  141.6270   75.4030  220.0090 N   0  0  0  0  0  0  0  0  0  0  0  0
  141.1400   74.3110  220.6560 C   0  0  0  0  0  0  0  0  0  0  0  0
  141.5310   73.0440  220.2780 N   0  0  0  0  0  0  0  0  0  0  0  0
  142.5500   72.9260  219.2060 C   0  0  0  0  0  0  0  0  0  0  0  0
  142.4756   71.9278  218.7498 H   0  0  0  0  0  0  0  0  0  0  0  0
  142.3599   73.7114  218.4597 H   0  0  0  0  0  0  0  0  0  0  0  0
  143.9470   73.1150  219.7500 C   0  0  0  0  0  0  0  0  0  0  0  0
  144.8990   72.0900  219.6140 C   0  0  0  0  0  0  0  0  0  0  0  0
  144.6213   71.1491  219.1164 H   0  0  0  0  0  0  0  0  0  0  0  0
  146.1970   72.2580  220.1070 C   0  0  0  0  0  0  0  0  0  0  0  0
  146.9336   71.4476  220.0038 H   0  0  0  0  0  0  0  0  0  0  0  0
  146.5580   73.4540  220.7300 C   0  0  0  0  0  0  0  0  0  0  0  0
  147.5784   73.5844  221.1197 H   0  0  0  0  0  0  0  0  0  0  0  0
  145.6250   74.4850  220.8590 C   0  0  0  0  0  0  0  0  0  0  0  0
  145.9123   75.4272  221.3485 H   0  0  0  0  0  0  0  0  0  0  0  0
  144.3260   74.3220  220.3670 C   0  0  0  0  0  0  0  0  0  0  0  0
  143.5974   75.1405  220.4626 H   0  0  0  0  0  0  0  0  0  0  0  0
  1  2  1  0
  2  3  2  0
  3  4  1  0
  4  5  1  0
  5  6  2  0
  5  7  1  0
  7  8  1  0
  7  9  1  0
  9 10  1  1
  9 11  1  0
 11 12  2  0
 12 13  1  0
 12 14  1  0
 14 15  1  0
 14 16  2  0
 16 17  1  0
 16 18  1  0
 18 19  1  0
 18 20  2  0
 20 21  1  0
  9 22  1  0
 22 23  1  0
 22 24  1  0
 22 25  1  0
  4 26  2  0
 26 27  1  0
 26 28  1  0
 28 29  1  0
 29 30  2  0
 29 31  1  0
 31 32  1  0
 32 33  1  0
 32 34  2  0
 34 35  1  0
 34 36  1  0
 36 37  1  0
 36 38  2  0
 38 39  1  0
 38 40  1  0
 40 41  2  0
 41 42  1  0
 42 43  1  0
 43 44  1  0
 44 45  1  0
 44 46  1  0
 44 47  1  0
 47 48  2  0
 48 49  1  0
 48 50  1  0
 50 51  1  0
 50 52  2  0
 52 53  1  0
 52 54  1  0
 54 55  1  0
 54 56  2  0
 56 57  1  0
 43  3  1  0
 56 47  1  0
 20 11  1  0
 42 28  2  0
 40 31  1  0
M  END
>  <UniqueID>  (23) 
97

>  <SMILES>  (23) 
[H]/N=c1/c(C(=O)N[C@@H](C)c2ccccc2)cc2c(=O)n3cc(Cl)cc(Cl)c3nc2n1Cc1ccccc1

>  <Energy>  (23) 
83.40535062579522

>  <Genealogy>  (23) 
[H]/N=c1/c(C(=O)N[C@@H](C)c2ccccc2)cc2c(=O)n3cc(Cl)cc(Cl)c3nc2n1Cc1ccccc1 (cis-trans isomerization)
[H]/N=c1/c(C(=O)N[C@@H](C)c2ccccc2)cc2c(=O)n3cc(Cl)cc(Cl)c3nc2n1Cc1ccccc1 (3D coordinates assigned)
[H]/N=c1/c(C(=O)N[C@@H](C)c2ccccc2)cc2c(=O)n3cc(Cl)cc(Cl)c3nc2n1Cc1ccccc1 (optimized conformer: 83.40535062579522 kcal/mol)

>  <smiles>  (23) 
C[C@H](NC(=O)c1cc2c(=O)n3cc(Cl)cc(Cl)c3nc2n(Cc2ccccc2)c1=N)c1ccccc1

>  <score_type>  (23) 
oracle

>  <origin>  (23) 
autodockgpu

>  <m_score__min__energy>  (23) 
-8.9399999999999995

>  <m_primary>  (23) 
energy

>  <meeko>  (23) 
{"free_energy": -8.9, "intermolecular_energy": -10.69, "internal_energy": -1.63, "cluster_size": 13, "cluster_id": 2, "rank_in_cluster": 2}

>  <energy>  (23) 
-8.62

>  <cluster_rmsd>  (23) 
1.15

>  <rmsd>  (23) 
269.34

>  <cluster>  (23) 
1

$$$$
AFKJZVLHPMIVAS-OQJQLQHTNA-N
     RDKit          3D

 57 61  0  0  0  0  0  0  0  0999 V2000
  140.8160   69.8480  220.8600 H   0  0  0  0  0  0  0  0  0  0  0  0
  141.1770   70.7320  220.4470 N   0  0  0  0  0  0  0  0  0  0  0  0
  140.9540   71.9470  220.8650 C   0  0  0  0  0  0  0  0  0  0  0  0
  140.0690   72.1180  221.9540 C   0  0  0  0  0  0  0  0  0  0  0  0
  139.4880   70.9580  222.6800 C   0  0  0  0  0  0  0  0  0  0  0  0
  139.8010   69.7860  222.3330 O   0  0  0  0  0  0  0  0  0  0  0  0
  138.5710   71.1580  223.7680 N   0  0  0  0  0  0  0  0  0  0  0  0
  138.2490   72.1290  223.9840 H   0  0  0  0  0  0  0  0  0  0  0  0
  138.0010   70.0340  224.5180 C   0  0  2  0  0  0  0  0  0  0  0  0
  137.1738   70.4144  225.1352 H   0  0  0  0  0  0  0  0  0  0  0  0
  139.0450   69.4230  225.4280 C   0  0  0  0  0  0  0  0  0  0  0  0
  139.9330   70.2490  226.1390 C   0  0  0  0  0  0  0  0  0  0  0  0
  139.8747   71.3415  226.0245 H   0  0  0  0  0  0  0  0  0  0  0  0
  140.8900   69.6890  226.9910 C   0  0  0  0  0  0  0  0  0  0  0  0
  141.5843   70.3414  227.5409 H   0  0  0  0  0  0  0  0  0  0  0  0
  140.9660   68.3030  227.1450 C   0  0  0  0  0  0  0  0  0  0  0  0
  141.7221   67.8647  227.8129 H   0  0  0  0  0  0  0  0  0  0  0  0
  140.0820   67.4730  226.4510 C   0  0  0  0  0  0  0  0  0  0  0  0
  140.1411   66.3816  226.5747 H   0  0  0  0  0  0  0  0  0  0  0  0
  139.1230   68.0280  225.6000 C   0  0  0  0  0  0  0  0  0  0  0  0
  138.4246   67.3709  225.0611 H   0  0  0  0  0  0  0  0  0  0  0  0
  137.4470   68.9740  223.5620 C   0  0  0  0  0  0  0  0  0  0  0  0
  137.0144   68.1463  224.1432 H   0  0  0  0  0  0  0  0  0  0  0  0
  136.6683   69.4231  222.9280 H   0  0  0  0  0  0  0  0  0  0  0  0
  138.2603   68.5911  222.9280 H   0  0  0  0  0  0  0  0  0  0  0  0
  139.7250   73.4090  222.3570 C   0  0  0  0  0  0  0  0  0  0  0  0
  139.0460   73.5523  223.2105 H   0  0  0  0  0  0  0  0  0  0  0  0
  140.2370   74.5200  221.6840 C   0  0  0  0  0  0  0  0  0  0  0  0
  139.8860   75.8360  222.0430 C   0  0  0  0  0  0  0  0  0  0  0  0
  139.0830   76.0260  223.0010 O   0  0  0  0  0  0  0  0  0  0  0  0
  140.4090   76.9040  221.3550 N   0  0  0  0  0  0  0  0  0  0  0  0
  140.0680   78.1890  221.6960 C   0  0  0  0  0  0  0  0  0  0  0  0
  139.3716   78.3629  222.5296 H   0  0  0  0  0  0  0  0  0  0  0  0
  140.5940   79.2790  220.9980 C   0  0  0  0  0  0  0  0  0  0  0  0
  140.1490   80.9160  221.4460 Cl  0  0  0  0  0  0  0  0  0  0  0  0
  141.4760   79.0570  219.9440 C   0  0  0  0  0  0  0  0  0  0  0  0
  141.8955   79.9084  219.3880 H   0  0  0  0  0  0  0  0  0  0  0  0
  141.8260   77.7560  219.5950 C   0  0  0  0  0  0  0  0  0  0  0  0
  142.9400   77.4910  218.2600 Cl  0  0  0  0  0  0  0  0  0  0  0  0
  141.2820   76.6790  220.3140 C   0  0  0  0  0  0  0  0  0  0  0  0
  141.6250   75.4110  219.9740 N   0  0  0  0  0  0  0  0  0  0  0  0
  141.1340   74.3210  220.6230 C   0  0  0  0  0  0  0  0  0  0  0  0
  141.5140   73.0520  220.2410 N   0  0  0  0  0  0  0  0  0  0  0  0
  142.5250   72.9280  219.1620 C   0  0  0  0  0  0  0  0  0  0  0  0
  142.4332   71.9348  218.6982 H   0  0  0  0  0  0  0  0  0  0  0  0
  142.3419   73.7225  218.4236 H   0  0  0  0  0  0  0  0  0  0  0  0
  143.9270   73.0920  219.6980 C   0  0  0  0  0  0  0  0  0  0  0  0
  144.2990   74.2880  220.3390 C   0  0  0  0  0  0  0  0  0  0  0  0
  143.5672   75.1027  220.4429 H   0  0  0  0  0  0  0  0  0  0  0  0
  145.5930   74.4480  220.8450 C   0  0  0  0  0  0  0  0  0  0  0  0
  145.8784   75.3899  221.3363 H   0  0  0  0  0  0  0  0  0  0  0  0
  146.5230   73.4130  220.7270 C   0  0  0  0  0  0  0  0  0  0  0  0
  147.5407   73.5407  221.1243 H   0  0  0  0  0  0  0  0  0  0  0  0
  146.1620   72.2160  220.1050 C   0  0  0  0  0  0  0  0  0  0  0  0
  146.8952   71.4009  220.0148 H   0  0  0  0  0  0  0  0  0  0  0  0
  144.8680   72.0520  219.5960 C   0  0  0  0  0  0  0  0  0  0  0  0
  144.5859   71.1045  219.1137 H   0  0  0  0  0  0  0  0  0  0  0  0
  1  2  1  0
  2  3  2  0
  3  4  1  0
  4  5  1  0
  5  6  2  0
  5  7  1  0
  7  8  1  0
  7  9  1  0
  9 10  1  1
  9 11  1  0
 11 12  2  0
 12 13  1  0
 12 14  1  0
 14 15  1  0
 14 16  2  0
 16 17  1  0
 16 18  1  0
 18 19  1  0
 18 20  2  0
 20 21  1  0
  9 22  1  0
 22 23  1  0
 22 24  1  0
 22 25  1  0
  4 26  2  0
 26 27  1  0
 26 28  1  0
 28 29  1  0
 29 30  2  0
 29 31  1  0
 31 32  1  0
 32 33  1  0
 32 34  2  0
 34 35  1  0
 34 36  1  0
 36 37  1  0
 36 38  2  0
 38 39  1  0
 38 40  1  0
 40 41  2  0
 41 42  1  0
 42 43  1  0
 43 44  1  0
 44 45  1  0
 44 46  1  0
 44 47  1  0
 47 48  2  0
 48 49  1  0
 48 50  1  0
 50 51  1  0
 50 52  2  0
 52 53  1  0
 52 54  1  0
 54 55  1  0
 54 56  2  0
 56 57  1  0
 43  3  1  0
 56 47  1  0
 20 11  1  0
 42 28  2  0
 40 31  1  0
M  END
>  <UniqueID>  (24) 
97

>  <SMILES>  (24) 
[H]/N=c1/c(C(=O)N[C@@H](C)c2ccccc2)cc2c(=O)n3cc(Cl)cc(Cl)c3nc2n1Cc1ccccc1

>  <Energy>  (24) 
83.40535062579522

>  <Genealogy>  (24) 
[H]/N=c1/c(C(=O)N[C@@H](C)c2ccccc2)cc2c(=O)n3cc(Cl)cc(Cl)c3nc2n1Cc1ccccc1 (cis-trans isomerization)
[H]/N=c1/c(C(=O)N[C@@H](C)c2ccccc2)cc2c(=O)n3cc(Cl)cc(Cl)c3nc2n1Cc1ccccc1 (3D coordinates assigned)
[H]/N=c1/c(C(=O)N[C@@H](C)c2ccccc2)cc2c(=O)n3cc(Cl)cc(Cl)c3nc2n1Cc1ccccc1 (optimized conformer: 83.40535062579522 kcal/mol)

>  <smiles>  (24) 
C[C@H](NC(=O)c1cc2c(=O)n3cc(Cl)cc(Cl)c3nc2n(Cc2ccccc2)c1=N)c1ccccc1

>  <score_type>  (24) 
oracle

>  <origin>  (24) 
autodockgpu

>  <m_score__min__energy>  (24) 
-8.9399999999999995

>  <m_primary>  (24) 
energy

>  <meeko>  (24) 
{"free_energy": -8.91, "intermolecular_energy": -10.7, "internal_energy": -1.64, "cluster_size": 13, "cluster_id": 2, "rank_in_cluster": 1}

>  <energy>  (24) 
-8.6

>  <cluster_rmsd>  (24) 
1.13

>  <rmsd>  (24) 
269.35

>  <cluster>  (24) 
1

$$$$
AFKJZVLHPMIVAS-OQJQLQHTNA-N
     RDKit          3D

 57 61  0  0  0  0  0  0  0  0999 V2000
  140.7300   70.0000  220.7920 H   0  0  0  0  0  0  0  0  0  0  0  0
  141.1290   70.8810  220.4110 N   0  0  0  0  0  0  0  0  0  0  0  0
  140.9160   72.0940  220.8370 C   0  0  0  0  0  0  0  0  0  0  0  0
  140.0300   72.2640  221.9260 C   0  0  0  0  0  0  0  0  0  0  0  0
  139.4380   71.1030  222.6420 C   0  0  0  0  0  0  0  0  0  0  0  0
  139.7720   69.9320  222.3130 O   0  0  0  0  0  0  0  0  0  0  0  0
  138.4860   71.3020  223.7000 N   0  0  0  0  0  0  0  0  0  0  0  0
  138.1480   72.2720  223.8990 H   0  0  0  0  0  0  0  0  0  0  0  0
  137.9030   70.1780  224.4390 C   0  0  2  0  0  0  0  0  0  0  0  0
  137.0684   70.5600  225.0453 H   0  0  0  0  0  0  0  0  0  0  0  0
  138.9340   69.5610  225.3620 C   0  0  0  0  0  0  0  0  0  0  0  0
  138.9140   68.1800  225.6220 C   0  0  0  0  0  0  0  0  0  0  0  0
  138.1403   67.5481  225.1614 H   0  0  0  0  0  0  0  0  0  0  0  0
  139.8710   67.6050  226.4620 C   0  0  0  0  0  0  0  0  0  0  0  0
  139.8457   66.5241  226.6646 H   0  0  0  0  0  0  0  0  0  0  0  0
  140.8600   68.4010  227.0450 C   0  0  0  0  0  0  0  0  0  0  0  0
  141.6107   67.9464  227.7082 H   0  0  0  0  0  0  0  0  0  0  0  0
  140.8970   69.7730  226.7870 C   0  0  0  0  0  0  0  0  0  0  0  0
  141.6775   70.3981  227.2455 H   0  0  0  0  0  0  0  0  0  0  0  0
  139.9420   70.3520  225.9460 C   0  0  0  0  0  0  0  0  0  0  0  0
  139.9782   71.4318  225.7393 H   0  0  0  0  0  0  0  0  0  0  0  0
  137.3590   69.1210  223.4740 C   0  0  0  0  0  0  0  0  0  0  0  0
  136.9296   68.2867  224.0481 H   0  0  0  0  0  0  0  0  0  0  0  0
  136.5797   69.5695  222.8403 H   0  0  0  0  0  0  0  0  0  0  0  0
  138.1769   68.7475  222.8403 H   0  0  0  0  0  0  0  0  0  0  0  0
  139.6960   73.5550  222.3380 C   0  0  0  0  0  0  0  0  0  0  0  0
  139.0161   73.6974  223.1909 H   0  0  0  0  0  0  0  0  0  0  0  0
  140.2190   74.6670  221.6750 C   0  0  0  0  0  0  0  0  0  0  0  0
  139.8770   75.9830  222.0440 C   0  0  0  0  0  0  0  0  0  0  0  0
  139.0740   76.1720  223.0020 O   0  0  0  0  0  0  0  0  0  0  0  0
  140.4110   77.0510  221.3660 N   0  0  0  0  0  0  0  0  0  0  0  0
  140.0800   78.3370  221.7160 C   0  0  0  0  0  0  0  0  0  0  0  0
  139.3829   78.5104  222.5490 H   0  0  0  0  0  0  0  0  0  0  0  0
  140.6170   79.4280  221.0280 C   0  0  0  0  0  0  0  0  0  0  0  0
  140.1840   81.0640  221.4880 Cl  0  0  0  0  0  0  0  0  0  0  0  0
  141.4990   79.2070  219.9740 C   0  0  0  0  0  0  0  0  0  0  0  0
  141.9264   80.0591  219.4252 H   0  0  0  0  0  0  0  0  0  0  0  0
  141.8390   77.9060  219.6160 C   0  0  0  0  0  0  0  0  0  0  0  0
  142.9540   77.6420  218.2800 Cl  0  0  0  0  0  0  0  0  0  0  0  0
  141.2850   76.8270  220.3240 C   0  0  0  0  0  0  0  0  0  0  0  0
  141.6180   75.5600  219.9750 N   0  0  0  0  0  0  0  0  0  0  0  0
  141.1170   74.4690  220.6150 C   0  0  0  0  0  0  0  0  0  0  0  0
  141.4860   73.2000  220.2240 N   0  0  0  0  0  0  0  0  0  0  0  0
  142.4980   73.0750  219.1460 C   0  0  0  0  0  0  0  0  0  0  0  0
  142.3835   72.0950  218.6597 H   0  0  0  0  0  0  0  0  0  0  0  0
  142.3378   73.8901  218.4249 H   0  0  0  0  0  0  0  0  0  0  0  0
  143.9020   73.1920  219.6910 C   0  0  0  0  0  0  0  0  0  0  0  0
  144.3090   74.3710  220.3400 C   0  0  0  0  0  0  0  0  0  0  0  0
  143.6038   75.2088  220.4434 H   0  0  0  0  0  0  0  0  0  0  0  0
  145.6040   74.4860  220.8550 C   0  0  0  0  0  0  0  0  0  0  0  0
  145.9162   75.4151  221.3544 H   0  0  0  0  0  0  0  0  0  0  0  0
  146.5010   73.4230  220.7360 C   0  0  0  0  0  0  0  0  0  0  0  0
  147.5203   73.5161  221.1388 H   0  0  0  0  0  0  0  0  0  0  0  0
  146.1050   72.2420  220.1060 C   0  0  0  0  0  0  0  0  0  0  0  0
  146.8120   71.4042  220.0157 H   0  0  0  0  0  0  0  0  0  0  0  0
  144.8100   72.1220  219.5890 C   0  0  0  0  0  0  0  0  0  0  0  0
  144.5004   71.1864  219.1004 H   0  0  0  0  0  0  0  0  0  0  0  0
  1  2  1  0
  2  3  2  0
  3  4  1  0
  4  5  1  0
  5  6  2  0
  5  7  1  0
  7  8  1  0
  7  9  1  0
  9 10  1  1
  9 11  1  0
 11 12  2  0
 12 13  1  0
 12 14  1  0
 14 15  1  0
 14 16  2  0
 16 17  1  0
 16 18  1  0
 18 19  1  0
 18 20  2  0
 20 21  1  0
  9 22  1  0
 22 23  1  0
 22 24  1  0
 22 25  1  0
  4 26  2  0
 26 27  1  0
 26 28  1  0
 28 29  1  0
 29 30  2  0
 29 31  1  0
 31 32  1  0
 32 33  1  0
 32 34  2  0
 34 35  1  0
 34 36  1  0
 36 37  1  0
 36 38  2  0
 38 39  1  0
 38 40  1  0
 40 41  2  0
 41 42  1  0
 42 43  1  0
 43 44  1  0
 44 45  1  0
 44 46  1  0
 44 47  1  0
 47 48  2  0
 48 49  1  0
 48 50  1  0
 50 51  1  0
 50 52  2  0
 52 53  1  0
 52 54  1  0
 54 55  1  0
 54 56  2  0
 56 57  1  0
 43  3  1  0
 56 47  1  0
 20 11  1  0
 42 28  2  0
 40 31  1  0
M  END
>  <UniqueID>  (25) 
97

>  <SMILES>  (25) 
[H]/N=c1/c(C(=O)N[C@@H](C)c2ccccc2)cc2c(=O)n3cc(Cl)cc(Cl)c3nc2n1Cc1ccccc1

>  <Energy>  (25) 
83.40535062579522

>  <Genealogy>  (25) 
[H]/N=c1/c(C(=O)N[C@@H](C)c2ccccc2)cc2c(=O)n3cc(Cl)cc(Cl)c3nc2n1Cc1ccccc1 (cis-trans isomerization)
[H]/N=c1/c(C(=O)N[C@@H](C)c2ccccc2)cc2c(=O)n3cc(Cl)cc(Cl)c3nc2n1Cc1ccccc1 (3D coordinates assigned)
[H]/N=c1/c(C(=O)N[C@@H](C)c2ccccc2)cc2c(=O)n3cc(Cl)cc(Cl)c3nc2n1Cc1ccccc1 (optimized conformer: 83.40535062579522 kcal/mol)

>  <smiles>  (25) 
C[C@H](NC(=O)c1cc2c(=O)n3cc(Cl)cc(Cl)c3nc2n(Cc2ccccc2)c1=N)c1ccccc1

>  <score_type>  (25) 
oracle

>  <origin>  (25) 
autodockgpu

>  <m_score__min__energy>  (25) 
-8.9399999999999995

>  <m_primary>  (25) 
energy

>  <meeko>  (25) 
{"free_energy": -8.88, "intermolecular_energy": -10.67, "internal_energy": -1.67, "cluster_size": 13, "cluster_id": 2, "rank_in_cluster": 6}

>  <energy>  (25) 
-8.6

>  <cluster_rmsd>  (25) 
1.15

>  <rmsd>  (25) 
269.33

>  <cluster>  (25) 
1

$$$$
AFKJZVLHPMIVAS-OQJQLQHTNA-N
     RDKit          3D

 57 61  0  0  0  0  0  0  0  0999 V2000
  138.0350   74.7050  223.0780 H   0  0  0  0  0  0  0  0  0  0  0  0
  138.7020   75.2660  222.5090 N   0  0  0  0  0  0  0  0  0  0  0  0
  139.5550   74.8240  221.6290 C   0  0  0  0  0  0  0  0  0  0  0  0
  139.9000   73.4530  221.6760 C   0  0  0  0  0  0  0  0  0  0  0  0
  139.2410   72.5120  222.6190 C   0  0  0  0  0  0  0  0  0  0  0  0
  137.9840   72.5180  222.7280 O   0  0  0  0  0  0  0  0  0  0  0  0
  140.0200   71.6010  223.4100 N   0  0  0  0  0  0  0  0  0  0  0  0
  141.0630   71.6710  223.3800 H   0  0  0  0  0  0  0  0  0  0  0  0
  139.3970   70.6450  224.3320 C   0  0  2  0  0  0  0  0  0  0  0  0
  138.3217   70.8698  224.3883 H   0  0  0  0  0  0  0  0  0  0  0  0
  139.9940   70.7800  225.7170 C   0  0  0  0  0  0  0  0  0  0  0  0
  140.7970   71.8900  226.0340 C   0  0  0  0  0  0  0  0  0  0  0  0
  140.9989   72.6552  225.2700 H   0  0  0  0  0  0  0  0  0  0  0  0
  141.3400   72.0260  227.3150 C   0  0  0  0  0  0  0  0  0  0  0  0
  141.9705   72.8949  227.5548 H   0  0  0  0  0  0  0  0  0  0  0  0
  141.0830   71.0600  228.2910 C   0  0  0  0  0  0  0  0  0  0  0  0
  141.5141   71.1673  229.2973 H   0  0  0  0  0  0  0  0  0  0  0  0
  140.2790   69.9580  227.9900 C   0  0  0  0  0  0  0  0  0  0  0  0
  140.0756   69.1993  228.7600 H   0  0  0  0  0  0  0  0  0  0  0  0
  139.7330   69.8190  226.7110 C   0  0  0  0  0  0  0  0  0  0  0  0
  139.0953   68.9530  226.4800 H   0  0  0  0  0  0  0  0  0  0  0  0
  139.5690   69.2120  223.8190 C   0  0  0  0  0  0  0  0  0  0  0  0
  139.6516   68.5241  224.6734 H   0  0  0  0  0  0  0  0  0  0  0  0
  138.6977   68.9344  223.2076 H   0  0  0  0  0  0  0  0  0  0  0  0
  140.4812   69.1484  223.2076 H   0  0  0  0  0  0  0  0  0  0  0  0
  140.8900   72.9700  220.8190 C   0  0  0  0  0  0  0  0  0  0  0  0
  141.1582   71.9034  220.8404 H   0  0  0  0  0  0  0  0  0  0  0  0
  141.5420   73.8310  219.9350 C   0  0  0  0  0  0  0  0  0  0  0  0
  142.5680   73.3820  219.0800 C   0  0  0  0  0  0  0  0  0  0  0  0
  142.9150   72.1670  219.1070 O   0  0  0  0  0  0  0  0  0  0  0  0
  143.1890   74.2610  218.2250 N   0  0  0  0  0  0  0  0  0  0  0  0
  144.1920   73.8340  217.3910 C   0  0  0  0  0  0  0  0  0  0  0  0
  144.4978   72.7775  217.4069 H   0  0  0  0  0  0  0  0  0  0  0  0
  144.8300   74.7230  216.5220 C   0  0  0  0  0  0  0  0  0  0  0  0
  146.1100   74.1610  215.4630 Cl  0  0  0  0  0  0  0  0  0  0  0  0
  144.4400   76.0590  216.5020 C   0  0  0  0  0  0  0  0  0  0  0  0
  144.9355   76.7674  215.8219 H   0  0  0  0  0  0  0  0  0  0  0  0
  143.4220   76.4970  217.3440 C   0  0  0  0  0  0  0  0  0  0  0  0
  142.9430   78.1890  217.3090 Cl  0  0  0  0  0  0  0  0  0  0  0  0
  142.7990   75.5820  218.2080 C   0  0  0  0  0  0  0  0  0  0  0  0
  141.8060   76.0100  219.0270 N   0  0  0  0  0  0  0  0  0  0  0  0
  141.1620   75.1810  219.8910 C   0  0  0  0  0  0  0  0  0  0  0  0
  140.1570   75.6630  220.7030 N   0  0  0  0  0  0  0  0  0  0  0  0
  139.7610   77.0840  220.5430 C   0  0  0  0  0  0  0  0  0  0  0  0
  139.8432   77.3610  219.4816 H   0  0  0  0  0  0  0  0  0  0  0  0
  138.7256   77.1965  220.8971 H   0  0  0  0  0  0  0  0  0  0  0  0
  140.6440   77.9980  221.3590 C   0  0  0  0  0  0  0  0  0  0  0  0
  140.8300   77.7560  222.7320 C   0  0  0  0  0  0  0  0  0  0  0  0
  140.3258   76.9028  223.2094 H   0  0  0  0  0  0  0  0  0  0  0  0
  141.6510   78.5920  223.4940 C   0  0  0  0  0  0  0  0  0  0  0  0
  141.7845   78.3999  224.5688 H   0  0  0  0  0  0  0  0  0  0  0  0
  142.3020   79.6710  222.8920 C   0  0  0  0  0  0  0  0  0  0  0  0
  142.9453   80.3299  223.4937 H   0  0  0  0  0  0  0  0  0  0  0  0
  142.1370   79.9140  221.5270 C   0  0  0  0  0  0  0  0  0  0  0  0
  142.6532   80.7624  221.0539 H   0  0  0  0  0  0  0  0  0  0  0  0
  141.3160   79.0800  220.7600 C   0  0  0  0  0  0  0  0  0  0  0  0
  141.1951   79.2709  219.6835 H   0  0  0  0  0  0  0  0  0  0  0  0
  1  2  1  0
  2  3  2  0
  3  4  1  0
  4  5  1  0
  5  6  2  0
  5  7  1  0
  7  8  1  0
  7  9  1  0
  9 10  1  1
  9 11  1  0
 11 12  2  0
 12 13  1  0
 12 14  1  0
 14 15  1  0
 14 16  2  0
 16 17  1  0
 16 18  1  0
 18 19  1  0
 18 20  2  0
 20 21  1  0
  9 22  1  0
 22 23  1  0
 22 24  1  0
 22 25  1  0
  4 26  2  0
 26 27  1  0
 26 28  1  0
 28 29  1  0
 29 30  2  0
 29 31  1  0
 31 32  1  0
 32 33  1  0
 32 34  2  0
 34 35  1  0
 34 36  1  0
 36 37  1  0
 36 38  2  0
 38 39  1  0
 38 40  1  0
 40 41  2  0
 41 42  1  0
 42 43  1  0
 43 44  1  0
 44 45  1  0
 44 46  1  0
 44 47  1  0
 47 48  2  0
 48 49  1  0
 48 50  1  0
 50 51  1  0
 50 52  2  0
 52 53  1  0
 52 54  1  0
 54 55  1  0
 54 56  2  0
 56 57  1  0
 43  3  1  0
 56 47  1  0
 20 11  1  0
 42 28  2  0
 40 31  1  0
M  END
>  <UniqueID>  (26) 
97

>  <SMILES>  (26) 
[H]/N=c1/c(C(=O)N[C@@H](C)c2ccccc2)cc2c(=O)n3cc(Cl)cc(Cl)c3nc2n1Cc1ccccc1

>  <Energy>  (26) 
83.40535062579522

>  <Genealogy>  (26) 
[H]/N=c1/c(C(=O)N[C@@H](C)c2ccccc2)cc2c(=O)n3cc(Cl)cc(Cl)c3nc2n1Cc1ccccc1 (cis-trans isomerization)
[H]/N=c1/c(C(=O)N[C@@H](C)c2ccccc2)cc2c(=O)n3cc(Cl)cc(Cl)c3nc2n1Cc1ccccc1 (3D coordinates assigned)
[H]/N=c1/c(C(=O)N[C@@H](C)c2ccccc2)cc2c(=O)n3cc(Cl)cc(Cl)c3nc2n1Cc1ccccc1 (optimized conformer: 83.40535062579522 kcal/mol)

>  <smiles>  (26) 
C[C@H](NC(=O)c1cc2c(=O)n3cc(Cl)cc(Cl)c3nc2n(Cc2ccccc2)c1=N)c1ccccc1

>  <score_type>  (26) 
oracle

>  <origin>  (26) 
autodockgpu

>  <m_score__min__energy>  (26) 
-8.9399999999999995

>  <m_primary>  (26) 
energy

>  <meeko>  (26) 
{"free_energy": -8.6, "intermolecular_energy": -10.39, "internal_energy": -1.74, "cluster_size": 6, "cluster_id": 1, "rank_in_cluster": 5}

>  <energy>  (26) 
-8.59

>  <cluster_rmsd>  (26) 
1.15

>  <rmsd>  (26) 
269.33

>  <cluster>  (26) 
1

$$$$
AFKJZVLHPMIVAS-OQJQLQHTNA-N
     RDKit          3D

 57 61  0  0  0  0  0  0  0  0999 V2000
  140.5790   69.9470  220.7660 H   0  0  0  0  0  0  0  0  0  0  0  0
  141.0770   70.8070  220.4600 N   0  0  0  0  0  0  0  0  0  0  0  0
  140.8660   72.0280  220.8640 C   0  0  0  0  0  0  0  0  0  0  0  0
  139.9720   72.2210  221.9420 C   0  0  0  0  0  0  0  0  0  0  0  0
  139.3690   71.0750  222.6730 C   0  0  0  0  0  0  0  0  0  0  0  0
  139.7150   69.8980  222.3790 O   0  0  0  0  0  0  0  0  0  0  0  0
  138.3940   71.2960  223.7050 N   0  0  0  0  0  0  0  0  0  0  0  0
  138.0480   72.2680  223.8730 H   0  0  0  0  0  0  0  0  0  0  0  0
  137.7990   70.1870  224.4590 C   0  0  2  0  0  0  0  0  0  0  0  0
  136.9886   70.5896  225.0845 H   0  0  0  0  0  0  0  0  0  0  0  0
  138.8340   69.5450  225.3580 C   0  0  0  0  0  0  0  0  0  0  0  0
  139.8330   70.3310  225.9580 C   0  0  0  0  0  0  0  0  0  0  0  0
  139.8676   71.4132  225.7640 H   0  0  0  0  0  0  0  0  0  0  0  0
  140.7830   69.7450  226.8000 C   0  0  0  0  0  0  0  0  0  0  0  0
  141.5646   70.3658  227.2623 H   0  0  0  0  0  0  0  0  0  0  0  0
  140.7410   68.3720  227.0550 C   0  0  0  0  0  0  0  0  0  0  0  0
  141.4910   67.9128  227.7158 H   0  0  0  0  0  0  0  0  0  0  0  0
  139.7480   67.5820  226.4720 C   0  0  0  0  0  0  0  0  0  0  0  0
  139.7151   66.5014  226.6748 H   0  0  0  0  0  0  0  0  0  0  0  0
  138.7950   68.1650  225.6300 C   0  0  0  0  0  0  0  0  0  0  0  0
  138.0103   67.5407  225.1778 H   0  0  0  0  0  0  0  0  0  0  0  0
  137.2060   69.1440  223.5060 C   0  0  0  0  0  0  0  0  0  0  0  0
  136.7453   68.3337  224.0900 H   0  0  0  0  0  0  0  0  0  0  0  0
  136.4427   69.6187  222.8719 H   0  0  0  0  0  0  0  0  0  0  0  0
  138.0043   68.7309  222.8719 H   0  0  0  0  0  0  0  0  0  0  0  0
  139.6410   73.5200  222.3290 C   0  0  0  0  0  0  0  0  0  0  0  0
  138.9554   73.6802  223.1741 H   0  0  0  0  0  0  0  0  0  0  0  0
  140.1740   74.6180  221.6510 C   0  0  0  0  0  0  0  0  0  0  0  0
  139.8360   75.9420  221.9950 C   0  0  0  0  0  0  0  0  0  0  0  0
  139.0260   76.1510  222.9430 O   0  0  0  0  0  0  0  0  0  0  0  0
  140.3800   76.9960  221.3030 N   0  0  0  0  0  0  0  0  0  0  0  0
  140.0520   78.2890  221.6280 C   0  0  0  0  0  0  0  0  0  0  0  0
  139.3490   78.4802  222.4522 H   0  0  0  0  0  0  0  0  0  0  0  0
  140.6000   79.3650  220.9250 C   0  0  0  0  0  0  0  0  0  0  0  0
  140.1710   81.0120  221.3540 Cl  0  0  0  0  0  0  0  0  0  0  0  0
  141.4900   79.1220  219.8830 C   0  0  0  0  0  0  0  0  0  0  0  0
  141.9268   79.9626  219.3239 H   0  0  0  0  0  0  0  0  0  0  0  0
  141.8260   77.8140  219.5500 C   0  0  0  0  0  0  0  0  0  0  0  0
  142.9500   77.5220  218.2290 Cl  0  0  0  0  0  0  0  0  0  0  0  0
  141.2610   76.7500  220.2730 C   0  0  0  0  0  0  0  0  0  0  0  0
  141.5910   75.4750  219.9480 N   0  0  0  0  0  0  0  0  0  0  0  0
  141.0800   74.3980  220.6020 C   0  0  0  0  0  0  0  0  0  0  0  0
  141.4470   73.1200  220.2360 N   0  0  0  0  0  0  0  0  0  0  0  0
  142.4670   72.9730  219.1680 C   0  0  0  0  0  0  0  0  0  0  0  0
  142.3652   71.9780  218.7102 H   0  0  0  0  0  0  0  0  0  0  0  0
  142.3036   73.7642  218.4215 H   0  0  0  0  0  0  0  0  0  0  0  0
  143.8660   73.1200  219.7190 C   0  0  0  0  0  0  0  0  0  0  0  0
  144.7870   72.0660  219.5870 C   0  0  0  0  0  0  0  0  0  0  0  0
  144.4834   71.1342  219.0875 H   0  0  0  0  0  0  0  0  0  0  0  0
  146.0870   72.1950  220.0870 C   0  0  0  0  0  0  0  0  0  0  0  0
  146.7989   71.3624  219.9876 H   0  0  0  0  0  0  0  0  0  0  0  0
  146.4820   73.3790  220.7120 C   0  0  0  0  0  0  0  0  0  0  0  0
  147.5039   73.4779  221.1069 H   0  0  0  0  0  0  0  0  0  0  0  0
  145.5800   74.4380  220.8360 C   0  0  0  0  0  0  0  0  0  0  0  0
  145.8936   75.3715  221.3261 H   0  0  0  0  0  0  0  0  0  0  0  0
  144.2780   74.3140  220.3380 C   0  0  0  0  0  0  0  0  0  0  0  0
  143.5738   75.1539  220.4310 H   0  0  0  0  0  0  0  0  0  0  0  0
  1  2  1  0
  2  3  2  0
  3  4  1  0
  4  5  1  0
  5  6  2  0
  5  7  1  0
  7  8  1  0
  7  9  1  0
  9 10  1  1
  9 11  1  0
 11 12  2  0
 12 13  1  0
 12 14  1  0
 14 15  1  0
 14 16  2  0
 16 17  1  0
 16 18  1  0
 18 19  1  0
 18 20  2  0
 20 21  1  0
  9 22  1  0
 22 23  1  0
 22 24  1  0
 22 25  1  0
  4 26  2  0
 26 27  1  0
 26 28  1  0
 28 29  1  0
 29 30  2  0
 29 31  1  0
 31 32  1  0
 32 33  1  0
 32 34  2  0
 34 35  1  0
 34 36  1  0
 36 37  1  0
 36 38  2  0
 38 39  1  0
 38 40  1  0
 40 41  2  0
 41 42  1  0
 42 43  1  0
 43 44  1  0
 44 45  1  0
 44 46  1  0
 44 47  1  0
 47 48  2  0
 48 49  1  0
 48 50  1  0
 50 51  1  0
 50 52  2  0
 52 53  1  0
 52 54  1  0
 54 55  1  0
 54 56  2  0
 56 57  1  0
 43  3  1  0
 56 47  1  0
 20 11  1  0
 42 28  2  0
 40 31  1  0
M  END
>  <UniqueID>  (27) 
97

>  <SMILES>  (27) 
[H]/N=c1/c(C(=O)N[C@@H](C)c2ccccc2)cc2c(=O)n3cc(Cl)cc(Cl)c3nc2n1Cc1ccccc1

>  <Energy>  (27) 
83.40535062579522

>  <Genealogy>  (27) 
[H]/N=c1/c(C(=O)N[C@@H](C)c2ccccc2)cc2c(=O)n3cc(Cl)cc(Cl)c3nc2n1Cc1ccccc1 (cis-trans isomerization)
[H]/N=c1/c(C(=O)N[C@@H](C)c2ccccc2)cc2c(=O)n3cc(Cl)cc(Cl)c3nc2n1Cc1ccccc1 (3D coordinates assigned)
[H]/N=c1/c(C(=O)N[C@@H](C)c2ccccc2)cc2c(=O)n3cc(Cl)cc(Cl)c3nc2n1Cc1ccccc1 (optimized conformer: 83.40535062579522 kcal/mol)

>  <smiles>  (27) 
C[C@H](NC(=O)c1cc2c(=O)n3cc(Cl)cc(Cl)c3nc2n(Cc2ccccc2)c1=N)c1ccccc1

>  <score_type>  (27) 
oracle

>  <origin>  (27) 
autodockgpu

>  <m_score__min__energy>  (27) 
-8.9399999999999995

>  <m_primary>  (27) 
energy

>  <meeko>  (27) 
{"free_energy": -8.83, "intermolecular_energy": -10.62, "internal_energy": -1.68, "cluster_size": 13, "cluster_id": 2, "rank_in_cluster": 12}

>  <energy>  (27) 
-8.91

>  <cluster_rmsd>  (27) 
0.0

>  <rmsd>  (27) 
269.28

>  <cluster>  (27) 
2

$$$$
AFKJZVLHPMIVAS-OQJQLQHTNA-N
     RDKit          3D

 57 61  0  0  0  0  0  0  0  0999 V2000
  140.5950   69.9880  220.7090 H   0  0  0  0  0  0  0  0  0  0  0  0
  141.1070   70.8500  220.4280 N   0  0  0  0  0  0  0  0  0  0  0  0
  140.8940   72.0650  220.8470 C   0  0  0  0  0  0  0  0  0  0  0  0
  140.0120   72.2420  221.9390 C   0  0  0  0  0  0  0  0  0  0  0  0
  139.4230   71.0860  222.6640 C   0  0  0  0  0  0  0  0  0  0  0  0
  139.7840   69.9140  222.3660 O   0  0  0  0  0  0  0  0  0  0  0  0
  138.4450   71.2900  223.6960 N   0  0  0  0  0  0  0  0  0  0  0  0
  138.0860   72.2570  223.8680 H   0  0  0  0  0  0  0  0  0  0  0  0
  137.8640   70.1710  224.4450 C   0  0  2  0  0  0  0  0  0  0  0  0
  137.0418   70.5595  225.0638 H   0  0  0  0  0  0  0  0  0  0  0  0
  138.9030   69.5470  225.3530 C   0  0  0  0  0  0  0  0  0  0  0  0
  139.8890   70.3490  225.9530 C   0  0  0  0  0  0  0  0  0  0  0  0
  139.9104   71.4306  225.7538 H   0  0  0  0  0  0  0  0  0  0  0  0
  140.8430   69.7790  226.8020 C   0  0  0  0  0  0  0  0  0  0  0  0
  141.6150   70.4119  227.2640 H   0  0  0  0  0  0  0  0  0  0  0  0
  140.8170   68.4080  227.0640 C   0  0  0  0  0  0  0  0  0  0  0  0
  141.5699   67.9617  227.7303 H   0  0  0  0  0  0  0  0  0  0  0  0
  139.8360   67.6020  226.4810 C   0  0  0  0  0  0  0  0  0  0  0  0
  139.8159   66.5223  226.6902 H   0  0  0  0  0  0  0  0  0  0  0  0
  138.8800   68.1670  225.6320 C   0  0  0  0  0  0  0  0  0  0  0  0
  138.1056   67.5302  225.1795 H   0  0  0  0  0  0  0  0  0  0  0  0
  137.2970   69.1180  223.4880 C   0  0  0  0  0  0  0  0  0  0  0  0
  136.8541   68.2954  224.0687 H   0  0  0  0  0  0  0  0  0  0  0  0
  136.5241   69.5770  222.8540 H   0  0  0  0  0  0  0  0  0  0  0  0
  138.1057   68.7254  222.8540 H   0  0  0  0  0  0  0  0  0  0  0  0
  139.6790   73.5360  222.3430 C   0  0  0  0  0  0  0  0  0  0  0  0
  139.0014   73.6844  223.1967 H   0  0  0  0  0  0  0  0  0  0  0  0
  140.2000   74.6430  221.6710 C   0  0  0  0  0  0  0  0  0  0  0  0
  139.8590   75.9620  222.0320 C   0  0  0  0  0  0  0  0  0  0  0  0
  139.0590   76.1570  222.9910 O   0  0  0  0  0  0  0  0  0  0  0  0
  140.3900   77.0260  221.3440 N   0  0  0  0  0  0  0  0  0  0  0  0
  140.0600   78.3140  221.6870 C   0  0  0  0  0  0  0  0  0  0  0  0
  139.3665   78.4930  222.5219 H   0  0  0  0  0  0  0  0  0  0  0  0
  140.5940   79.4000  220.9890 C   0  0  0  0  0  0  0  0  0  0  0  0
  140.1620   81.0390  221.4400 Cl  0  0  0  0  0  0  0  0  0  0  0  0
  141.4720   79.1720  219.9340 C   0  0  0  0  0  0  0  0  0  0  0  0
  141.8975   80.0206  219.3783 H   0  0  0  0  0  0  0  0  0  0  0  0
  141.8110   77.8690  219.5830 C   0  0  0  0  0  0  0  0  0  0  0  0
  142.9210   77.5960  218.2460 Cl  0  0  0  0  0  0  0  0  0  0  0  0
  141.2600   76.7950  220.3010 C   0  0  0  0  0  0  0  0  0  0  0  0
  141.5920   75.5250  219.9590 N   0  0  0  0  0  0  0  0  0  0  0  0
  141.0940   74.4390  220.6080 C   0  0  0  0  0  0  0  0  0  0  0  0
  141.4620   73.1670  220.2240 N   0  0  0  0  0  0  0  0  0  0  0  0
  142.4700   73.0350  219.1440 C   0  0  0  0  0  0  0  0  0  0  0  0
  142.3569   72.0499  218.6677 H   0  0  0  0  0  0  0  0  0  0  0  0
  142.3043   73.8427  218.4159 H   0  0  0  0  0  0  0  0  0  0  0  0
  143.8760   73.1620  219.6820 C   0  0  0  0  0  0  0  0  0  0  0  0
  144.2760   74.3430  220.3320 C   0  0  0  0  0  0  0  0  0  0  0  0
  143.5639   75.1742  220.4417 H   0  0  0  0  0  0  0  0  0  0  0  0
  145.5730   74.4680  220.8400 C   0  0  0  0  0  0  0  0  0  0  0  0
  145.8805   75.3991  221.3385 H   0  0  0  0  0  0  0  0  0  0  0  0
  146.4780   73.4120  220.7150 C   0  0  0  0  0  0  0  0  0  0  0  0
  147.4981   73.5118  221.1143 H   0  0  0  0  0  0  0  0  0  0  0  0
  146.0880   72.2290  220.0830 C   0  0  0  0  0  0  0  0  0  0  0  0
  146.8017   71.3976  219.9861 H   0  0  0  0  0  0  0  0  0  0  0  0
  144.7920   72.0990  219.5730 C   0  0  0  0  0  0  0  0  0  0  0  0
  144.4874   71.1617  219.0845 H   0  0  0  0  0  0  0  0  0  0  0  0
  1  2  1  0
  2  3  2  0
  3  4  1  0
  4  5  1  0
  5  6  2  0
  5  7  1  0
  7  8  1  0
  7  9  1  0
  9 10  1  1
  9 11  1  0
 11 12  2  0
 12 13  1  0
 12 14  1  0
 14 15  1  0
 14 16  2  0
 16 17  1  0
 16 18  1  0
 18 19  1  0
 18 20  2  0
 20 21  1  0
  9 22  1  0
 22 23  1  0
 22 24  1  0
 22 25  1  0
  4 26  2  0
 26 27  1  0
 26 28  1  0
 28 29  1  0
 29 30  2  0
 29 31  1  0
 31 32  1  0
 32 33  1  0
 32 34  2  0
 34 35  1  0
 34 36  1  0
 36 37  1  0
 36 38  2  0
 38 39  1  0
 38 40  1  0
 40 41  2  0
 41 42  1  0
 42 43  1  0
 43 44  1  0
 44 45  1  0
 44 46  1  0
 44 47  1  0
 47 48  2  0
 48 49  1  0
 48 50  1  0
 50 51  1  0
 50 52  2  0
 52 53  1  0
 52 54  1  0
 54 55  1  0
 54 56  2  0
 56 57  1  0
 43  3  1  0
 56 47  1  0
 20 11  1  0
 42 28  2  0
 40 31  1  0
M  END
>  <UniqueID>  (28) 
97

>  <SMILES>  (28) 
[H]/N=c1/c(C(=O)N[C@@H](C)c2ccccc2)cc2c(=O)n3cc(Cl)cc(Cl)c3nc2n1Cc1ccccc1

>  <Energy>  (28) 
83.40535062579522

>  <Genealogy>  (28) 
[H]/N=c1/c(C(=O)N[C@@H](C)c2ccccc2)cc2c(=O)n3cc(Cl)cc(Cl)c3nc2n1Cc1ccccc1 (cis-trans isomerization)
[H]/N=c1/c(C(=O)N[C@@H](C)c2ccccc2)cc2c(=O)n3cc(Cl)cc(Cl)c3nc2n1Cc1ccccc1 (3D coordinates assigned)
[H]/N=c1/c(C(=O)N[C@@H](C)c2ccccc2)cc2c(=O)n3cc(Cl)cc(Cl)c3nc2n1Cc1ccccc1 (optimized conformer: 83.40535062579522 kcal/mol)

>  <smiles>  (28) 
C[C@H](NC(=O)c1cc2c(=O)n3cc(Cl)cc(Cl)c3nc2n(Cc2ccccc2)c1=N)c1ccccc1

>  <score_type>  (28) 
oracle

>  <origin>  (28) 
autodockgpu

>  <m_score__min__energy>  (28) 
-8.9399999999999995

>  <m_primary>  (28) 
energy

>  <meeko>  (28) 
{"free_energy": -8.88, "intermolecular_energy": -10.67, "internal_energy": -1.69, "cluster_size": 13, "cluster_id": 2, "rank_in_cluster": 7}

>  <energy>  (28) 
-8.9

>  <cluster_rmsd>  (28) 
0.06

>  <rmsd>  (28) 
269.31

>  <cluster>  (28) 
2

$$$$
AFKJZVLHPMIVAS-OQJQLQHTNA-N
     RDKit          3D

 57 61  0  0  0  0  0  0  0  0999 V2000
  138.3870   74.4880  222.8170 H   0  0  0  0  0  0  0  0  0  0  0  0
  139.3890   74.7370  222.6880 N   0  0  0  0  0  0  0  0  0  0  0  0
  140.1060   74.5920  221.6090 C   0  0  0  0  0  0  0  0  0  0  0  0
  140.6250   73.3070  221.3290 C   0  0  0  0  0  0  0  0  0  0  0  0
  140.2860   72.1270  222.1670 C   0  0  0  0  0  0  0  0  0  0  0  0
  141.0450   71.1190  222.1590 O   0  0  0  0  0  0  0  0  0  0  0  0
  139.1030   72.1210  222.9810 N   0  0  0  0  0  0  0  0  0  0  0  0
  138.4350   72.9230  222.9070 H   0  0  0  0  0  0  0  0  0  0  0  0
  138.7550   70.9810  223.8360 C   0  0  2  0  0  0  0  0  0  0  0  0
  137.7039   71.0866  224.1428 H   0  0  0  0  0  0  0  0  0  0  0  0
  139.6250   70.9670  225.0760 C   0  0  0  0  0  0  0  0  0  0  0  0
  140.6730   71.8940  225.2150 C   0  0  0  0  0  0  0  0  0  0  0  0
  140.8666   72.6247  224.4159 H   0  0  0  0  0  0  0  0  0  0  0  0
  141.4700   71.8920  226.3630 C   0  0  0  0  0  0  0  0  0  0  0  0
  142.2916   72.6167  226.4623 H   0  0  0  0  0  0  0  0  0  0  0  0
  141.2250   70.9710  227.3850 C   0  0  0  0  0  0  0  0  0  0  0  0
  141.8552   70.9696  228.2866 H   0  0  0  0  0  0  0  0  0  0  0  0
  140.1800   70.0520  227.2620 C   0  0  0  0  0  0  0  0  0  0  0  0
  139.9866   69.3290  228.0682 H   0  0  0  0  0  0  0  0  0  0  0  0
  139.3800   70.0500  226.1160 C   0  0  0  0  0  0  0  0  0  0  0  0
  138.5547   69.3283  226.0261 H   0  0  0  0  0  0  0  0  0  0  0  0
  138.9070   69.6650  223.0680 C   0  0  0  0  0  0  0  0  0  0  0  0
  139.0031   68.8332  223.7813 H   0  0  0  0  0  0  0  0  0  0  0  0
  138.0213   69.5052  222.4355 H   0  0  0  0  0  0  0  0  0  0  0  0
  139.8058   69.7113  222.4355 H   0  0  0  0  0  0  0  0  0  0  0  0
  141.4840   73.1410  220.2420 C   0  0  0  0  0  0  0  0  0  0  0  0
  141.8849   72.1433  220.0098 H   0  0  0  0  0  0  0  0  0  0  0  0
  141.8380   74.2330  219.4470 C   0  0  0  0  0  0  0  0  0  0  0  0
  142.7280   74.1060  218.3620 C   0  0  0  0  0  0  0  0  0  0  0  0
  143.2260   72.9760  218.0930 O   0  0  0  0  0  0  0  0  0  0  0  0
  143.0540   75.2050  217.6040 N   0  0  0  0  0  0  0  0  0  0  0  0
  143.9240   75.0920  216.5480 C   0  0  0  0  0  0  0  0  0  0  0  0
  144.3605   74.1116  216.3067 H   0  0  0  0  0  0  0  0  0  0  0  0
  144.2620   76.2060  215.7760 C   0  0  0  0  0  0  0  0  0  0  0  0
  145.3750   76.0440  214.4290 Cl  0  0  0  0  0  0  0  0  0  0  0  0
  143.7090   77.4460  216.0820 C   0  0  0  0  0  0  0  0  0  0  0  0
  143.9693   78.3293  215.4802 H   0  0  0  0  0  0  0  0  0  0  0  0
  142.8260   77.5660  217.1510 C   0  0  0  0  0  0  0  0  0  0  0  0
  142.1360   79.1400  217.5280 Cl  0  0  0  0  0  0  0  0  0  0  0  0
  142.5030   76.4300  217.9110 C   0  0  0  0  0  0  0  0  0  0  0  0
  141.6410   76.5480  218.9520 N   0  0  0  0  0  0  0  0  0  0  0  0
  141.2870   75.4920  219.7320 C   0  0  0  0  0  0  0  0  0  0  0  0
  140.4050   75.6620  220.7780 N   0  0  0  0  0  0  0  0  0  0  0  0
  139.8070   77.0060  220.9670 C   0  0  0  0  0  0  0  0  0  0  0  0
  139.5630   77.4309  219.9821 H   0  0  0  0  0  0  0  0  0  0  0  0
  138.9008   76.8984  221.5811 H   0  0  0  0  0  0  0  0  0  0  0  0
  140.7580   77.9370  221.6820 C   0  0  0  0  0  0  0  0  0  0  0  0
  141.3300   79.0220  220.9950 C   0  0  0  0  0  0  0  0  0  0  0  0
  141.0864   79.1867  219.9350 H   0  0  0  0  0  0  0  0  0  0  0  0
  142.2060   79.8930  221.6490 C   0  0  0  0  0  0  0  0  0  0  0  0
  142.6566   80.7332  221.1003 H   0  0  0  0  0  0  0  0  0  0  0  0
  142.5100   79.6980  222.9980 C   0  0  0  0  0  0  0  0  0  0  0  0
  143.2003   80.3836  223.5113 H   0  0  0  0  0  0  0  0  0  0  0  0
  141.9370   78.6320  223.6950 C   0  0  0  0  0  0  0  0  0  0  0  0
  142.1759   78.4800  224.7579 H   0  0  0  0  0  0  0  0  0  0  0  0
  141.0600   77.7570  223.0450 C   0  0  0  0  0  0  0  0  0  0  0  0
  140.6044   76.9247  223.6015 H   0  0  0  0  0  0  0  0  0  0  0  0
  1  2  1  0
  2  3  2  0
  3  4  1  0
  4  5  1  0
  5  6  2  0
  5  7  1  0
  7  8  1  0
  7  9  1  0
  9 10  1  1
  9 11  1  0
 11 12  2  0
 12 13  1  0
 12 14  1  0
 14 15  1  0
 14 16  2  0
 16 17  1  0
 16 18  1  0
 18 19  1  0
 18 20  2  0
 20 21  1  0
  9 22  1  0
 22 23  1  0
 22 24  1  0
 22 25  1  0
  4 26  2  0
 26 27  1  0
 26 28  1  0
 28 29  1  0
 29 30  2  0
 29 31  1  0
 31 32  1  0
 32 33  1  0
 32 34  2  0
 34 35  1  0
 34 36  1  0
 36 37  1  0
 36 38  2  0
 38 39  1  0
 38 40  1  0
 40 41  2  0
 41 42  1  0
 42 43  1  0
 43 44  1  0
 44 45  1  0
 44 46  1  0
 44 47  1  0
 47 48  2  0
 48 49  1  0
 48 50  1  0
 50 51  1  0
 50 52  2  0
 52 53  1  0
 52 54  1  0
 54 55  1  0
 54 56  2  0
 56 57  1  0
 43  3  1  0
 56 47  1  0
 20 11  1  0
 42 28  2  0
 40 31  1  0
M  END
>  <UniqueID>  (29) 
97

>  <SMILES>  (29) 
[H]/N=c1/c(C(=O)N[C@@H](C)c2ccccc2)cc2c(=O)n3cc(Cl)cc(Cl)c3nc2n1Cc1ccccc1

>  <Energy>  (29) 
83.40535062579522

>  <Genealogy>  (29) 
[H]/N=c1/c(C(=O)N[C@@H](C)c2ccccc2)cc2c(=O)n3cc(Cl)cc(Cl)c3nc2n1Cc1ccccc1 (cis-trans isomerization)
[H]/N=c1/c(C(=O)N[C@@H](C)c2ccccc2)cc2c(=O)n3cc(Cl)cc(Cl)c3nc2n1Cc1ccccc1 (3D coordinates assigned)
[H]/N=c1/c(C(=O)N[C@@H](C)c2ccccc2)cc2c(=O)n3cc(Cl)cc(Cl)c3nc2n1Cc1ccccc1 (optimized conformer: 83.40535062579522 kcal/mol)

>  <smiles>  (29) 
C[C@H](NC(=O)c1cc2c(=O)n3cc(Cl)cc(Cl)c3nc2n(Cc2ccccc2)c1=N)c1ccccc1

>  <score_type>  (29) 
oracle

>  <origin>  (29) 
autodockgpu

>  <m_score__min__energy>  (29) 
-8.9399999999999995

>  <m_primary>  (29) 
energy

>  <meeko>  (29) 
{"free_energy": -8.94, "intermolecular_energy": -10.73, "internal_energy": -1.64, "cluster_size": 6, "cluster_id": 1, "rank_in_cluster": 1}

>  <energy>  (29) 
-8.89

>  <cluster_rmsd>  (29) 
0.15

>  <rmsd>  (29) 
269.27

>  <cluster>  (29) 
2

$$$$
AFKJZVLHPMIVAS-OQJQLQHTNA-N
     RDKit          3D

 57 61  0  0  0  0  0  0  0  0999 V2000
  140.6050   69.9790  220.7390 H   0  0  0  0  0  0  0  0  0  0  0  0
  141.1010   70.8460  220.4470 N   0  0  0  0  0  0  0  0  0  0  0  0
  140.8780   72.0610  220.8630 C   0  0  0  0  0  0  0  0  0  0  0  0
  139.9860   72.2340  221.9460 C   0  0  0  0  0  0  0  0  0  0  0  0
  139.3970   71.0760  222.6680 C   0  0  0  0  0  0  0  0  0  0  0  0
  139.7030   69.9030  222.3180 O   0  0  0  0  0  0  0  0  0  0  0  0
  138.4800   71.2780  223.7550 N   0  0  0  0  0  0  0  0  0  0  0  0
  138.1640   72.2510  223.9740 H   0  0  0  0  0  0  0  0  0  0  0  0
  137.9020   70.1560  224.5010 C   0  0  2  0  0  0  0  0  0  0  0  0
  137.0864   70.5425  225.1299 H   0  0  0  0  0  0  0  0  0  0  0  0
  138.9470   69.5220  225.3960 C   0  0  0  0  0  0  0  0  0  0  0  0
  139.9450   70.3160  225.9880 C   0  0  0  0  0  0  0  0  0  0  0  0
  139.9716   71.3980  225.7918 H   0  0  0  0  0  0  0  0  0  0  0  0
  140.9040   69.7370  226.8250 C   0  0  0  0  0  0  0  0  0  0  0  0
  141.6849   70.3634  227.2809 H   0  0  0  0  0  0  0  0  0  0  0  0
  140.8720   68.3650  227.0830 C   0  0  0  0  0  0  0  0  0  0  0  0
  141.6292   67.9114  227.7394 H   0  0  0  0  0  0  0  0  0  0  0  0
  139.8790   67.5680  226.5080 C   0  0  0  0  0  0  0  0  0  0  0  0
  139.8539   66.4877  226.7139 H   0  0  0  0  0  0  0  0  0  0  0  0
  138.9170   68.1420  225.6710 C   0  0  0  0  0  0  0  0  0  0  0  0
  138.1331   67.5120  225.2254 H   0  0  0  0  0  0  0  0  0  0  0  0
  137.3240   69.1120  223.5410 C   0  0  0  0  0  0  0  0  0  0  0  0
  136.8708   68.2933  224.1192 H   0  0  0  0  0  0  0  0  0  0  0  0
  136.5573   69.5814  222.9071 H   0  0  0  0  0  0  0  0  0  0  0  0
  138.1288   68.7114  222.9071 H   0  0  0  0  0  0  0  0  0  0  0  0
  139.6420   73.5260  222.3460 C   0  0  0  0  0  0  0  0  0  0  0  0
  138.9566   73.6710  223.1940 H   0  0  0  0  0  0  0  0  0  0  0  0
  140.1620   74.6360  221.6770 C   0  0  0  0  0  0  0  0  0  0  0  0
  139.8110   75.9530  222.0350 C   0  0  0  0  0  0  0  0  0  0  0  0
  139.0020   76.1450  222.9870 O   0  0  0  0  0  0  0  0  0  0  0  0
  140.3420   77.0190  221.3500 N   0  0  0  0  0  0  0  0  0  0  0  0
  140.0020   78.3060  221.6890 C   0  0  0  0  0  0  0  0  0  0  0  0
  139.3002   78.4819  222.5176 H   0  0  0  0  0  0  0  0  0  0  0  0
  140.5360   79.3940  220.9950 C   0  0  0  0  0  0  0  0  0  0  0  0
  140.0910   81.0320  221.4400 Cl  0  0  0  0  0  0  0  0  0  0  0  0
  141.4250   79.1700  219.9470 C   0  0  0  0  0  0  0  0  0  0  0  0
  141.8505   80.0203  219.3938 H   0  0  0  0  0  0  0  0  0  0  0  0
  141.7740   77.8680  219.6010 C   0  0  0  0  0  0  0  0  0  0  0  0
  142.8970   77.6000  218.2730 Cl  0  0  0  0  0  0  0  0  0  0  0  0
  141.2220   76.7920  220.3150 C   0  0  0  0  0  0  0  0  0  0  0  0
  141.5640   75.5240  219.9770 N   0  0  0  0  0  0  0  0  0  0  0  0
  141.0660   74.4350  220.6230 C   0  0  0  0  0  0  0  0  0  0  0  0
  141.4460   73.1650  220.2430 N   0  0  0  0  0  0  0  0  0  0  0  0
  142.4630   73.0380  219.1720 C   0  0  0  0  0  0  0  0  0  0  0  0
  142.3569   72.0536  218.6928 H   0  0  0  0  0  0  0  0  0  0  0  0
  142.3013   73.8464  218.4438 H   0  0  0  0  0  0  0  0  0  0  0  0
  143.8640   73.1680  219.7230 C   0  0  0  0  0  0  0  0  0  0  0  0
  144.7740   72.1050  219.5880 C   0  0  0  0  0  0  0  0  0  0  0  0
  144.4602   71.1783  219.0853 H   0  0  0  0  0  0  0  0  0  0  0  0
  146.0750   72.2170  220.0880 C   0  0  0  0  0  0  0  0  0  0  0  0
  146.7779   71.3772  219.9848 H   0  0  0  0  0  0  0  0  0  0  0  0
  146.4820   73.3940  220.7180 C   0  0  0  0  0  0  0  0  0  0  0  0
  147.5048   73.4800  221.1135 H   0  0  0  0  0  0  0  0  0  0  0  0
  145.5920   74.4630  220.8470 C   0  0  0  0  0  0  0  0  0  0  0  0
  145.9158   75.3908  221.3414 H   0  0  0  0  0  0  0  0  0  0  0  0
  144.2890   74.3550  220.3480 C   0  0  0  0  0  0  0  0  0  0  0  0
  143.5938   75.2019  220.4448 H   0  0  0  0  0  0  0  0  0  0  0  0
  1  2  1  0
  2  3  2  0
  3  4  1  0
  4  5  1  0
  5  6  2  0
  5  7  1  0
  7  8  1  0
  7  9  1  0
  9 10  1  1
  9 11  1  0
 11 12  2  0
 12 13  1  0
 12 14  1  0
 14 15  1  0
 14 16  2  0
 16 17  1  0
 16 18  1  0
 18 19  1  0
 18 20  2  0
 20 21  1  0
  9 22  1  0
 22 23  1  0
 22 24  1  0
 22 25  1  0
  4 26  2  0
 26 27  1  0
 26 28  1  0
 28 29  1  0
 29 30  2  0
 29 31  1  0
 31 32  1  0
 32 33  1  0
 32 34  2  0
 34 35  1  0
 34 36  1  0
 36 37  1  0
 36 38  2  0
 38 39  1  0
 38 40  1  0
 40 41  2  0
 41 42  1  0
 42 43  1  0
 43 44  1  0
 44 45  1  0
 44 46  1  0
 44 47  1  0
 47 48  2  0
 48 49  1  0
 48 50  1  0
 50 51  1  0
 50 52  2  0
 52 53  1  0
 52 54  1  0
 54 55  1  0
 54 56  2  0
 56 57  1  0
 43  3  1  0
 56 47  1  0
 20 11  1  0
 42 28  2  0
 40 31  1  0
M  END
>  <UniqueID>  (30) 
97

>  <SMILES>  (30) 
[H]/N=c1/c(C(=O)N[C@@H](C)c2ccccc2)cc2c(=O)n3cc(Cl)cc(Cl)c3nc2n1Cc1ccccc1

>  <Energy>  (30) 
83.40535062579522

>  <Genealogy>  (30) 
[H]/N=c1/c(C(=O)N[C@@H](C)c2ccccc2)cc2c(=O)n3cc(Cl)cc(Cl)c3nc2n1Cc1ccccc1 (cis-trans isomerization)
[H]/N=c1/c(C(=O)N[C@@H](C)c2ccccc2)cc2c(=O)n3cc(Cl)cc(Cl)c3nc2n1Cc1ccccc1 (3D coordinates assigned)
[H]/N=c1/c(C(=O)N[C@@H](C)c2ccccc2)cc2c(=O)n3cc(Cl)cc(Cl)c3nc2n1Cc1ccccc1 (optimized conformer: 83.40535062579522 kcal/mol)

>  <smiles>  (30) 
C[C@H](NC(=O)c1cc2c(=O)n3cc(Cl)cc(Cl)c3nc2n(Cc2ccccc2)c1=N)c1ccccc1

>  <score_type>  (30) 
oracle

>  <origin>  (30) 
autodockgpu

>  <m_score__min__energy>  (30) 
-8.9399999999999995

>  <m_primary>  (30) 
energy

>  <meeko>  (30) 
{"free_energy": -8.88, "intermolecular_energy": -10.67, "internal_energy": -1.67, "cluster_size": 13, "cluster_id": 2, "rank_in_cluster": 8}

>  <energy>  (30) 
-8.88

>  <cluster_rmsd>  (30) 
0.17

>  <rmsd>  (30) 
269.26

>  <cluster>  (30) 
2

$$$$
AFKJZVLHPMIVAS-OQJQLQHTNA-N
     RDKit          3D

 57 61  0  0  0  0  0  0  0  0999 V2000
  138.0320   74.7150  223.0710 H   0  0  0  0  0  0  0  0  0  0  0  0
  138.7300   75.2670  222.5320 N   0  0  0  0  0  0  0  0  0  0  0  0
  139.5740   74.8210  221.6450 C   0  0  0  0  0  0  0  0  0  0  0  0
  139.9090   73.4480  221.6850 C   0  0  0  0  0  0  0  0  0  0  0  0
  139.2490   72.5090  222.6300 C   0  0  0  0  0  0  0  0  0  0  0  0
  137.9910   72.5010  222.7250 O   0  0  0  0  0  0  0  0  0  0  0  0
  140.0300   71.6140  223.4390 N   0  0  0  0  0  0  0  0  0  0  0  0
  141.0730   71.6950  223.4190 H   0  0  0  0  0  0  0  0  0  0  0  0
  139.4070   70.6600  224.3630 C   0  0  2  0  0  0  0  0  0  0  0  0
  138.3331   70.8897  224.4255 H   0  0  0  0  0  0  0  0  0  0  0  0
  140.0140   70.7910  225.7440 C   0  0  0  0  0  0  0  0  0  0  0  0
  140.8590   71.8740  226.0450 C   0  0  0  0  0  0  0  0  0  0  0  0
  141.0869   72.6219  225.2712 H   0  0  0  0  0  0  0  0  0  0  0  0
  141.4110   72.0050  227.3230 C   0  0  0  0  0  0  0  0  0  0  0  0
  142.0754   72.8518  227.5501 H   0  0  0  0  0  0  0  0  0  0  0  0
  141.1200   71.0620  228.3120 C   0  0  0  0  0  0  0  0  0  0  0  0
  141.5579   71.1658  229.3157 H   0  0  0  0  0  0  0  0  0  0  0  0
  140.2740   69.9880  228.0280 C   0  0  0  0  0  0  0  0  0  0  0  0
  140.0442   69.2479  228.8086 H   0  0  0  0  0  0  0  0  0  0  0  0
  139.7190   69.8530  226.7520 C   0  0  0  0  0  0  0  0  0  0  0  0
  139.0479   69.0091  226.5341 H   0  0  0  0  0  0  0  0  0  0  0  0
  139.5680   69.2270  223.8480 C   0  0  0  0  0  0  0  0  0  0  0  0
  139.6455   68.5372  224.7014 H   0  0  0  0  0  0  0  0  0  0  0  0
  138.6945   68.9569  223.2363 H   0  0  0  0  0  0  0  0  0  0  0  0
  140.4796   69.1574  223.2363 H   0  0  0  0  0  0  0  0  0  0  0  0
  140.8890   72.9590  220.8200 C   0  0  0  0  0  0  0  0  0  0  0  0
  141.1494   71.8904  220.8371 H   0  0  0  0  0  0  0  0  0  0  0  0
  141.5410   73.8180  219.9330 C   0  0  0  0  0  0  0  0  0  0  0  0
  142.5570   73.3650  219.0690 C   0  0  0  0  0  0  0  0  0  0  0  0
  142.8960   72.1470  219.0910 O   0  0  0  0  0  0  0  0  0  0  0  0
  143.1780   74.2410  218.2120 N   0  0  0  0  0  0  0  0  0  0  0  0
  144.1730   73.8090  217.3700 C   0  0  0  0  0  0  0  0  0  0  0  0
  144.4724   72.7506  217.3816 H   0  0  0  0  0  0  0  0  0  0  0  0
  144.8100   74.6960  216.4990 C   0  0  0  0  0  0  0  0  0  0  0  0
  146.0780   74.1280  215.4290 Cl  0  0  0  0  0  0  0  0  0  0  0  0
  144.4300   76.0350  216.4850 C   0  0  0  0  0  0  0  0  0  0  0  0
  144.9255   76.7412  215.8025 H   0  0  0  0  0  0  0  0  0  0  0  0
  143.4220   76.4790  217.3360 C   0  0  0  0  0  0  0  0  0  0  0  0
  142.9540   78.1740  217.3090 Cl  0  0  0  0  0  0  0  0  0  0  0  0
  142.7980   75.5650  218.2020 C   0  0  0  0  0  0  0  0  0  0  0  0
  141.8140   75.9990  219.0300 N   0  0  0  0  0  0  0  0  0  0  0  0
  141.1700   75.1710  219.8960 C   0  0  0  0  0  0  0  0  0  0  0  0
  140.1750   75.6590  220.7170 N   0  0  0  0  0  0  0  0  0  0  0  0
  139.7870   77.0820  220.5640 C   0  0  0  0  0  0  0  0  0  0  0  0
  139.8394   77.3547  219.4996 H   0  0  0  0  0  0  0  0  0  0  0  0
  138.7638   77.2050  220.9487 H   0  0  0  0  0  0  0  0  0  0  0  0
  140.7030   77.9910  221.3500 C   0  0  0  0  0  0  0  0  0  0  0  0
  141.2940   79.1040  220.7260 C   0  0  0  0  0  0  0  0  0  0  0  0
  141.0909   79.3065  219.6641 H   0  0  0  0  0  0  0  0  0  0  0  0
  142.1380   79.9550  221.4460 C   0  0  0  0  0  0  0  0  0  0  0  0
  142.6031   80.8183  220.9476 H   0  0  0  0  0  0  0  0  0  0  0  0
  142.3910   79.7100  222.7970 C   0  0  0  0  0  0  0  0  0  0  0  0
  143.0560   80.3796  223.3622 H   0  0  0  0  0  0  0  0  0  0  0  0
  141.8000   78.6150  223.4310 C   0  0  0  0  0  0  0  0  0  0  0  0
  141.9995   78.4238  224.4957 H   0  0  0  0  0  0  0  0  0  0  0  0
  140.9550   77.7610  222.7150 C   0  0  0  0  0  0  0  0  0  0  0  0
  140.4850   76.9052  223.2216 H   0  0  0  0  0  0  0  0  0  0  0  0
  1  2  1  0
  2  3  2  0
  3  4  1  0
  4  5  1  0
  5  6  2  0
  5  7  1  0
  7  8  1  0
  7  9  1  0
  9 10  1  1
  9 11  1  0
 11 12  2  0
 12 13  1  0
 12 14  1  0
 14 15  1  0
 14 16  2  0
 16 17  1  0
 16 18  1  0
 18 19  1  0
 18 20  2  0
 20 21  1  0
  9 22  1  0
 22 23  1  0
 22 24  1  0
 22 25  1  0
  4 26  2  0
 26 27  1  0
 26 28  1  0
 28 29  1  0
 29 30  2  0
 29 31  1  0
 31 32  1  0
 32 33  1  0
 32 34  2  0
 34 35  1  0
 34 36  1  0
 36 37  1  0
 36 38  2  0
 38 39  1  0
 38 40  1  0
 40 41  2  0
 41 42  1  0
 42 43  1  0
 43 44  1  0
 44 45  1  0
 44 46  1  0
 44 47  1  0
 47 48  2  0
 48 49  1  0
 48 50  1  0
 50 51  1  0
 50 52  2  0
 52 53  1  0
 52 54  1  0
 54 55  1  0
 54 56  2  0
 56 57  1  0
 43  3  1  0
 56 47  1  0
 20 11  1  0
 42 28  2  0
 40 31  1  0
M  END
>  <UniqueID>  (31) 
97

>  <SMILES>  (31) 
[H]/N=c1/c(C(=O)N[C@@H](C)c2ccccc2)cc2c(=O)n3cc(Cl)cc(Cl)c3nc2n1Cc1ccccc1

>  <Energy>  (31) 
83.40535062579522

>  <Genealogy>  (31) 
[H]/N=c1/c(C(=O)N[C@@H](C)c2ccccc2)cc2c(=O)n3cc(Cl)cc(Cl)c3nc2n1Cc1ccccc1 (cis-trans isomerization)
[H]/N=c1/c(C(=O)N[C@@H](C)c2ccccc2)cc2c(=O)n3cc(Cl)cc(Cl)c3nc2n1Cc1ccccc1 (3D coordinates assigned)
[H]/N=c1/c(C(=O)N[C@@H](C)c2ccccc2)cc2c(=O)n3cc(Cl)cc(Cl)c3nc2n1Cc1ccccc1 (optimized conformer: 83.40535062579522 kcal/mol)

>  <smiles>  (31) 
C[C@H](NC(=O)c1cc2c(=O)n3cc(Cl)cc(Cl)c3nc2n(Cc2ccccc2)c1=N)c1ccccc1

>  <score_type>  (31) 
oracle

>  <origin>  (31) 
autodockgpu

>  <m_score__min__energy>  (31) 
-8.9399999999999995

>  <m_primary>  (31) 
energy

>  <meeko>  (31) 
{"free_energy": -8.62, "intermolecular_energy": -10.41, "internal_energy": -1.73, "cluster_size": 6, "cluster_id": 1, "rank_in_cluster": 3}

>  <energy>  (31) 
-8.88

>  <cluster_rmsd>  (31) 
0.12

>  <rmsd>  (31) 
269.28

>  <cluster>  (31) 
2

$$$$
AFKJZVLHPMIVAS-OQJQLQHTNA-N
     RDKit          3D

 57 61  0  0  0  0  0  0  0  0999 V2000
  138.0220   74.7230  223.0780 H   0  0  0  0  0  0  0  0  0  0  0  0
  138.7050   75.2800  222.5240 N   0  0  0  0  0  0  0  0  0  0  0  0
  139.5540   74.8340  221.6410 C   0  0  0  0  0  0  0  0  0  0  0  0
  139.8900   73.4620  221.6830 C   0  0  0  0  0  0  0  0  0  0  0  0
  139.2280   72.5220  222.6250 C   0  0  0  0  0  0  0  0  0  0  0  0
  137.9700   72.5290  222.7310 O   0  0  0  0  0  0  0  0  0  0  0  0
  140.0050   71.6110  223.4190 N   0  0  0  0  0  0  0  0  0  0  0  0
  141.0480   71.6800  223.3910 H   0  0  0  0  0  0  0  0  0  0  0  0
  139.3780   70.6560  224.3390 C   0  0  2  0  0  0  0  0  0  0  0  0
  138.3048   70.8894  224.4005 H   0  0  0  0  0  0  0  0  0  0  0  0
  139.9840   70.7800  225.7220 C   0  0  0  0  0  0  0  0  0  0  0  0
  140.7980   71.8810  226.0400 C   0  0  0  0  0  0  0  0  0  0  0  0
  141.0033   72.6476  225.2783 H   0  0  0  0  0  0  0  0  0  0  0  0
  141.3480   72.0070  227.3190 C   0  0  0  0  0  0  0  0  0  0  0  0
  141.9862   72.8699  227.5599 H   0  0  0  0  0  0  0  0  0  0  0  0
  141.0880   71.0380  228.2920 C   0  0  0  0  0  0  0  0  0  0  0  0
  141.5249   71.1371  229.2967 H   0  0  0  0  0  0  0  0  0  0  0  0
  140.2740   69.9440  227.9900 C   0  0  0  0  0  0  0  0  0  0  0  0
  140.0688   69.1829  228.7572 H   0  0  0  0  0  0  0  0  0  0  0  0
  139.7200   69.8160  226.7130 C   0  0  0  0  0  0  0  0  0  0  0  0
  139.0737   68.9566  226.4812 H   0  0  0  0  0  0  0  0  0  0  0  0
  139.5350   69.2240  223.8200 C   0  0  0  0  0  0  0  0  0  0  0  0
  139.6109   68.5317  224.6714 H   0  0  0  0  0  0  0  0  0  0  0  0
  138.6606   68.9579  223.2079 H   0  0  0  0  0  0  0  0  0  0  0  0
  140.4462   69.1537  223.2079 H   0  0  0  0  0  0  0  0  0  0  0  0
  140.8750   72.9750  220.8230 C   0  0  0  0  0  0  0  0  0  0  0  0
  141.1367   71.9067  220.8413 H   0  0  0  0  0  0  0  0  0  0  0  0
  141.5310   73.8350  219.9390 C   0  0  0  0  0  0  0  0  0  0  0  0
  142.5520   73.3830  219.0800 C   0  0  0  0  0  0  0  0  0  0  0  0
  142.8920   72.1650  219.1030 O   0  0  0  0  0  0  0  0  0  0  0  0
  143.1760   74.2600  218.2270 N   0  0  0  0  0  0  0  0  0  0  0  0
  144.1750   73.8290  217.3890 C   0  0  0  0  0  0  0  0  0  0  0  0
  144.4751   72.7708  217.4014 H   0  0  0  0  0  0  0  0  0  0  0  0
  144.8150   74.7170  216.5210 C   0  0  0  0  0  0  0  0  0  0  0  0
  146.0890   74.1500  215.4570 Cl  0  0  0  0  0  0  0  0  0  0  0  0
  144.4340   76.0560  216.5060 C   0  0  0  0  0  0  0  0  0  0  0  0
  144.9329   76.7634  215.8273 H   0  0  0  0  0  0  0  0  0  0  0  0
  143.4200   76.4980  217.3520 C   0  0  0  0  0  0  0  0  0  0  0  0
  142.9510   78.1920  217.3230 Cl  0  0  0  0  0  0  0  0  0  0  0  0
  142.7930   75.5840  218.2140 C   0  0  0  0  0  0  0  0  0  0  0  0
  141.8050   76.0150  219.0370 N   0  0  0  0  0  0  0  0  0  0  0  0
  141.1580   75.1870  219.9000 C   0  0  0  0  0  0  0  0  0  0  0  0
  140.1590   75.6730  220.7170 N   0  0  0  0  0  0  0  0  0  0  0  0
  139.7700   77.0960  220.5610 C   0  0  0  0  0  0  0  0  0  0  0  0
  139.8361   77.3707  219.4979 H   0  0  0  0  0  0  0  0  0  0  0  0
  138.7414   77.2166  220.9318 H   0  0  0  0  0  0  0  0  0  0  0  0
  140.6740   78.0050  221.3610 C   0  0  0  0  0  0  0  0  0  0  0  0
  140.8880   77.7580  222.7280 C   0  0  0  0  0  0  0  0  0  0  0  0
  140.3911   76.9048  223.2130 H   0  0  0  0  0  0  0  0  0  0  0  0
  141.7280   78.5890  223.4760 C   0  0  0  0  0  0  0  0  0  0  0  0
  141.8824   78.3937  224.5474 H   0  0  0  0  0  0  0  0  0  0  0  0
  142.3710   79.6670  222.8630 C   0  0  0  0  0  0  0  0  0  0  0  0
  143.0298   80.3216  223.4525 H   0  0  0  0  0  0  0  0  0  0  0  0
  142.1780   79.9140  221.5030 C   0  0  0  0  0  0  0  0  0  0  0  0
  142.6875   80.7615  221.0211 H   0  0  0  0  0  0  0  0  0  0  0  0
  141.3370   79.0850  220.7510 C   0  0  0  0  0  0  0  0  0  0  0  0
  141.1941   79.2793  219.6778 H   0  0  0  0  0  0  0  0  0  0  0  0
  1  2  1  0
  2  3  2  0
  3  4  1  0
  4  5  1  0
  5  6  2  0
  5  7  1  0
  7  8  1  0
  7  9  1  0
  9 10  1  1
  9 11  1  0
 11 12  2  0
 12 13  1  0
 12 14  1  0
 14 15  1  0
 14 16  2  0
 16 17  1  0
 16 18  1  0
 18 19  1  0
 18 20  2  0
 20 21  1  0
  9 22  1  0
 22 23  1  0
 22 24  1  0
 22 25  1  0
  4 26  2  0
 26 27  1  0
 26 28  1  0
 28 29  1  0
 29 30  2  0
 29 31  1  0
 31 32  1  0
 32 33  1  0
 32 34  2  0
 34 35  1  0
 34 36  1  0
 36 37  1  0
 36 38  2  0
 38 39  1  0
 38 40  1  0
 40 41  2  0
 41 42  1  0
 42 43  1  0
 43 44  1  0
 44 45  1  0
 44 46  1  0
 44 47  1  0
 47 48  2  0
 48 49  1  0
 48 50  1  0
 50 51  1  0
 50 52  2  0
 52 53  1  0
 52 54  1  0
 54 55  1  0
 54 56  2  0
 56 57  1  0
 43  3  1  0
 56 47  1  0
 20 11  1  0
 42 28  2  0
 40 31  1  0
M  END
>  <UniqueID>  (32) 
97

>  <SMILES>  (32) 
[H]/N=c1/c(C(=O)N[C@@H](C)c2ccccc2)cc2c(=O)n3cc(Cl)cc(Cl)c3nc2n1Cc1ccccc1

>  <Energy>  (32) 
83.40535062579522

>  <Genealogy>  (32) 
[H]/N=c1/c(C(=O)N[C@@H](C)c2ccccc2)cc2c(=O)n3cc(Cl)cc(Cl)c3nc2n1Cc1ccccc1 (cis-trans isomerization)
[H]/N=c1/c(C(=O)N[C@@H](C)c2ccccc2)cc2c(=O)n3cc(Cl)cc(Cl)c3nc2n1Cc1ccccc1 (3D coordinates assigned)
[H]/N=c1/c(C(=O)N[C@@H](C)c2ccccc2)cc2c(=O)n3cc(Cl)cc(Cl)c3nc2n1Cc1ccccc1 (optimized conformer: 83.40535062579522 kcal/mol)

>  <smiles>  (32) 
C[C@H](NC(=O)c1cc2c(=O)n3cc(Cl)cc(Cl)c3nc2n(Cc2ccccc2)c1=N)c1ccccc1

>  <score_type>  (32) 
oracle

>  <origin>  (32) 
autodockgpu

>  <m_score__min__energy>  (32) 
-8.9399999999999995

>  <m_primary>  (32) 
energy

>  <meeko>  (32) 
{"free_energy": -8.59, "intermolecular_energy": -10.38, "internal_energy": -1.75, "cluster_size": 6, "cluster_id": 1, "rank_in_cluster": 6}

>  <energy>  (32) 
-8.88

>  <cluster_rmsd>  (32) 
0.16

>  <rmsd>  (32) 
269.28

>  <cluster>  (32) 
2

$$$$
AFKJZVLHPMIVAS-OQJQLQHTNA-N
     RDKit          3D

 57 61  0  0  0  0  0  0  0  0999 V2000
  140.6200   70.0130  220.7010 H   0  0  0  0  0  0  0  0  0  0  0  0
  141.1100   70.8820  220.4050 N   0  0  0  0  0  0  0  0  0  0  0  0
  140.8960   72.0940  220.8350 C   0  0  0  0  0  0  0  0  0  0  0  0
  140.0140   72.2610  221.9270 C   0  0  0  0  0  0  0  0  0  0  0  0
  139.4250   71.0980  222.6420 C   0  0  0  0  0  0  0  0  0  0  0  0
  139.7730   69.9280  222.3200 O   0  0  0  0  0  0  0  0  0  0  0  0
  138.4640   71.2930  223.6910 N   0  0  0  0  0  0  0  0  0  0  0  0
  138.1160   72.2600  223.8840 H   0  0  0  0  0  0  0  0  0  0  0  0
  137.8840   70.1670  224.4310 C   0  0  2  0  0  0  0  0  0  0  0  0
  137.0592   70.5490  225.0505 H   0  0  0  0  0  0  0  0  0  0  0  0
  138.9230   69.5390  225.3370 C   0  0  0  0  0  0  0  0  0  0  0  0
  139.9160   70.3370  225.9310 C   0  0  0  0  0  0  0  0  0  0  0  0
  139.9436   71.4177  225.7278 H   0  0  0  0  0  0  0  0  0  0  0  0
  140.8690   69.7640  226.7790 C   0  0  0  0  0  0  0  0  0  0  0  0
  141.6455   70.3937  227.2379 H   0  0  0  0  0  0  0  0  0  0  0  0
  140.8360   68.3930  227.0440 C   0  0  0  0  0  0  0  0  0  0  0  0
  141.5891   67.9436  227.7080 H   0  0  0  0  0  0  0  0  0  0  0  0
  139.8480   67.5920  226.4670 C   0  0  0  0  0  0  0  0  0  0  0  0
  139.8219   66.5129  226.6790 H   0  0  0  0  0  0  0  0  0  0  0  0
  138.8920   68.1610  225.6200 C   0  0  0  0  0  0  0  0  0  0  0  0
  138.1115   67.5280  225.1725 H   0  0  0  0  0  0  0  0  0  0  0  0
  137.3230   69.1190  223.4650 C   0  0  0  0  0  0  0  0  0  0  0  0
  136.8800   68.2915  224.0386 H   0  0  0  0  0  0  0  0  0  0  0  0
  136.5512   69.5803  222.8313 H   0  0  0  0  0  0  0  0  0  0  0  0
  138.1349   68.7326  222.8313 H   0  0  0  0  0  0  0  0  0  0  0  0
  139.6800   73.5500  222.3420 C   0  0  0  0  0  0  0  0  0  0  0  0
  139.0030   73.6900  223.1976 H   0  0  0  0  0  0  0  0  0  0  0  0
  140.1990   74.6640  221.6790 C   0  0  0  0  0  0  0  0  0  0  0  0
  139.8570   75.9790  222.0520 C   0  0  0  0  0  0  0  0  0  0  0  0
  139.0560   76.1660  223.0120 O   0  0  0  0  0  0  0  0  0  0  0  0
  140.3870   77.0490  221.3740 N   0  0  0  0  0  0  0  0  0  0  0  0
  140.0560   78.3340  221.7270 C   0  0  0  0  0  0  0  0  0  0  0  0
  139.3617   78.5052  222.5629 H   0  0  0  0  0  0  0  0  0  0  0  0
  140.5890   79.4270  221.0390 C   0  0  0  0  0  0  0  0  0  0  0  0
  140.1560   81.0620  221.5030 Cl  0  0  0  0  0  0  0  0  0  0  0  0
  141.4680   79.2090  219.9820 C   0  0  0  0  0  0  0  0  0  0  0  0
  141.8926   80.0627  219.4335 H   0  0  0  0  0  0  0  0  0  0  0  0
  141.8090   77.9080  219.6200 C   0  0  0  0  0  0  0  0  0  0  0  0
  142.9190   77.6480  218.2810 Cl  0  0  0  0  0  0  0  0  0  0  0  0
  141.2580   76.8280  220.3290 C   0  0  0  0  0  0  0  0  0  0  0  0
  141.5910   75.5610  219.9760 N   0  0  0  0  0  0  0  0  0  0  0  0
  141.0940   74.4690  220.6160 C   0  0  0  0  0  0  0  0  0  0  0  0
  141.4640   73.2010  220.2210 N   0  0  0  0  0  0  0  0  0  0  0  0
  142.4720   73.0800  219.1400 C   0  0  0  0  0  0  0  0  0  0  0  0
  142.3531   72.1036  218.6475 H   0  0  0  0  0  0  0  0  0  0  0  0
  142.3124   73.9003  218.4247 H   0  0  0  0  0  0  0  0  0  0  0  0
  143.8780   73.1890  219.6820 C   0  0  0  0  0  0  0  0  0  0  0  0
  144.2940   74.3680  220.3250 C   0  0  0  0  0  0  0  0  0  0  0  0
  143.5944   75.2108  220.4261 H   0  0  0  0  0  0  0  0  0  0  0  0
  145.5910   74.4770  220.8370 C   0  0  0  0  0  0  0  0  0  0  0  0
  145.9107   75.4062  221.3313 H   0  0  0  0  0  0  0  0  0  0  0  0
  146.4800   73.4070  220.7210 C   0  0  0  0  0  0  0  0  0  0  0  0
  147.5007   73.4949  221.1215 H   0  0  0  0  0  0  0  0  0  0  0  0
  146.0750   72.2250  220.0970 C   0  0  0  0  0  0  0  0  0  0  0  0
  146.7761   71.3819  220.0094 H   0  0  0  0  0  0  0  0  0  0  0  0
  144.7780   72.1120  219.5830 C   0  0  0  0  0  0  0  0  0  0  0  0
  144.4607   71.1765  219.0992 H   0  0  0  0  0  0  0  0  0  0  0  0
  1  2  1  0
  2  3  2  0
  3  4  1  0
  4  5  1  0
  5  6  2  0
  5  7  1  0
  7  8  1  0
  7  9  1  0
  9 10  1  1
  9 11  1  0
 11 12  2  0
 12 13  1  0
 12 14  1  0
 14 15  1  0
 14 16  2  0
 16 17  1  0
 16 18  1  0
 18 19  1  0
 18 20  2  0
 20 21  1  0
  9 22  1  0
 22 23  1  0
 22 24  1  0
 22 25  1  0
  4 26  2  0
 26 27  1  0
 26 28  1  0
 28 29  1  0
 29 30  2  0
 29 31  1  0
 31 32  1  0
 32 33  1  0
 32 34  2  0
 34 35  1  0
 34 36  1  0
 36 37  1  0
 36 38  2  0
 38 39  1  0
 38 40  1  0
 40 41  2  0
 41 42  1  0
 42 43  1  0
 43 44  1  0
 44 45  1  0
 44 46  1  0
 44 47  1  0
 47 48  2  0
 48 49  1  0
 48 50  1  0
 50 51  1  0
 50 52  2  0
 52 53  1  0
 52 54  1  0
 54 55  1  0
 54 56  2  0
 56 57  1  0
 43  3  1  0
 56 47  1  0
 20 11  1  0
 42 28  2  0
 40 31  1  0
M  END
>  <UniqueID>  (33) 
97

>  <SMILES>  (33) 
[H]/N=c1/c(C(=O)N[C@@H](C)c2ccccc2)cc2c(=O)n3cc(Cl)cc(Cl)c3nc2n1Cc1ccccc1

>  <Energy>  (33) 
83.40535062579522

>  <Genealogy>  (33) 
[H]/N=c1/c(C(=O)N[C@@H](C)c2ccccc2)cc2c(=O)n3cc(Cl)cc(Cl)c3nc2n1Cc1ccccc1 (cis-trans isomerization)
[H]/N=c1/c(C(=O)N[C@@H](C)c2ccccc2)cc2c(=O)n3cc(Cl)cc(Cl)c3nc2n1Cc1ccccc1 (3D coordinates assigned)
[H]/N=c1/c(C(=O)N[C@@H](C)c2ccccc2)cc2c(=O)n3cc(Cl)cc(Cl)c3nc2n1Cc1ccccc1 (optimized conformer: 83.40535062579522 kcal/mol)

>  <smiles>  (33) 
C[C@H](NC(=O)c1cc2c(=O)n3cc(Cl)cc(Cl)c3nc2n(Cc2ccccc2)c1=N)c1ccccc1

>  <score_type>  (33) 
oracle

>  <origin>  (33) 
autodockgpu

>  <m_score__min__energy>  (33) 
-8.9399999999999995

>  <m_primary>  (33) 
energy

>  <meeko>  (33) 
{"free_energy": -8.88, "intermolecular_energy": -10.67, "internal_energy": -1.68, "cluster_size": 13, "cluster_id": 2, "rank_in_cluster": 4}

>  <energy>  (33) 
-8.88

>  <cluster_rmsd>  (33) 
0.16

>  <rmsd>  (33) 
269.25

>  <cluster>  (33) 
2

$$$$
AFKJZVLHPMIVAS-OQJQLQHTNA-N
     RDKit          3D

 57 61  0  0  0  0  0  0  0  0999 V2000
  138.0030   74.7560  223.0980 H   0  0  0  0  0  0  0  0  0  0  0  0
  138.7290   75.3020  222.5900 N   0  0  0  0  0  0  0  0  0  0  0  0
  139.5610   74.8620  221.6890 C   0  0  0  0  0  0  0  0  0  0  0  0
  139.8860   73.4860  221.7070 C   0  0  0  0  0  0  0  0  0  0  0  0
  139.2280   72.5390  222.6450 C   0  0  0  0  0  0  0  0  0  0  0  0
  137.9710   72.5400  222.7520 O   0  0  0  0  0  0  0  0  0  0  0  0
  140.0100   71.6270  223.4330 N   0  0  0  0  0  0  0  0  0  0  0  0
  141.0530   71.7010  223.4050 H   0  0  0  0  0  0  0  0  0  0  0  0
  139.3880   70.6650  224.3500 C   0  0  2  0  0  0  0  0  0  0  0  0
  138.3134   70.8915  224.4127 H   0  0  0  0  0  0  0  0  0  0  0  0
  139.9920   70.7880  225.7330 C   0  0  0  0  0  0  0  0  0  0  0  0
  140.8160   71.8820  226.0500 C   0  0  0  0  0  0  0  0  0  0  0  0
  141.0298   72.6448  225.2868 H   0  0  0  0  0  0  0  0  0  0  0  0
  141.3650   72.0060  227.3290 C   0  0  0  0  0  0  0  0  0  0  0  0
  142.0125   72.8626  227.5678 H   0  0  0  0  0  0  0  0  0  0  0  0
  141.0930   71.0440  228.3050 C   0  0  0  0  0  0  0  0  0  0  0  0
  141.5286   71.1424  229.3102 H   0  0  0  0  0  0  0  0  0  0  0  0
  140.2680   69.9570  228.0050 C   0  0  0  0  0  0  0  0  0  0  0  0
  140.0528   69.2011  228.7746 H   0  0  0  0  0  0  0  0  0  0  0  0
  139.7160   69.8300  226.7270 C   0  0  0  0  0  0  0  0  0  0  0  0
  139.0619   68.9762  226.4966 H   0  0  0  0  0  0  0  0  0  0  0  0
  139.5540   69.2360  223.8250 C   0  0  0  0  0  0  0  0  0  0  0  0
  139.6348   68.5407  224.6735 H   0  0  0  0  0  0  0  0  0  0  0  0
  138.6811   68.9668  223.2122 H   0  0  0  0  0  0  0  0  0  0  0  0
  140.4654   69.1741  223.2122 H   0  0  0  0  0  0  0  0  0  0  0  0
  140.8540   73.0030  220.8250 C   0  0  0  0  0  0  0  0  0  0  0  0
  141.1056   71.9322  220.8234 H   0  0  0  0  0  0  0  0  0  0  0  0
  141.5050   73.8690  219.9450 C   0  0  0  0  0  0  0  0  0  0  0  0
  142.5100   73.4210  219.0650 C   0  0  0  0  0  0  0  0  0  0  0  0
  142.8390   72.2000  219.0660 O   0  0  0  0  0  0  0  0  0  0  0  0
  143.1290   74.3050  218.2150 N   0  0  0  0  0  0  0  0  0  0  0  0
  144.1120   73.8770  217.3580 C   0  0  0  0  0  0  0  0  0  0  0  0
  144.4029   72.8162  217.3522 H   0  0  0  0  0  0  0  0  0  0  0  0
  144.7480   74.7710  216.4930 C   0  0  0  0  0  0  0  0  0  0  0  0
  146.0020   74.2090  215.4040 Cl  0  0  0  0  0  0  0  0  0  0  0  0
  144.3790   76.1130  216.5020 C   0  0  0  0  0  0  0  0  0  0  0  0
  144.8740   76.8253  215.8255 H   0  0  0  0  0  0  0  0  0  0  0  0
  143.3820   76.5520  217.3690 C   0  0  0  0  0  0  0  0  0  0  0  0
  142.9270   78.2510  217.3700 Cl  0  0  0  0  0  0  0  0  0  0  0  0
  142.7590   75.6320  218.2270 C   0  0  0  0  0  0  0  0  0  0  0  0
  141.7860   76.0600  219.0700 N   0  0  0  0  0  0  0  0  0  0  0  0
  141.1440   75.2260  219.9300 C   0  0  0  0  0  0  0  0  0  0  0  0
  140.1600   75.7090  220.7680 N   0  0  0  0  0  0  0  0  0  0  0  0
  139.7820   77.1370  220.6380 C   0  0  0  0  0  0  0  0  0  0  0  0
  139.8303   77.4250  219.5775 H   0  0  0  0  0  0  0  0  0  0  0  0
  138.7620   77.2624  221.0302 H   0  0  0  0  0  0  0  0  0  0  0  0
  140.7100   78.0270  221.4320 C   0  0  0  0  0  0  0  0  0  0  0  0
  141.3170   79.1360  220.8170 C   0  0  0  0  0  0  0  0  0  0  0  0
  141.1179   79.3491  219.7564 H   0  0  0  0  0  0  0  0  0  0  0  0
  142.1720   79.9700  221.5440 C   0  0  0  0  0  0  0  0  0  0  0  0
  142.6498   80.8302  221.0522 H   0  0  0  0  0  0  0  0  0  0  0  0
  142.4200   79.7120  222.8940 C   0  0  0  0  0  0  0  0  0  0  0  0
  143.0944   80.3673  223.4648 H   0  0  0  0  0  0  0  0  0  0  0  0
  141.8110   78.6210  223.5190 C   0  0  0  0  0  0  0  0  0  0  0  0
  142.0048   78.4200  224.5830 H   0  0  0  0  0  0  0  0  0  0  0  0
  140.9560   77.7840  222.7960 C   0  0  0  0  0  0  0  0  0  0  0  0
  140.4732   76.9313  223.2958 H   0  0  0  0  0  0  0  0  0  0  0  0
  1  2  1  0
  2  3  2  0
  3  4  1  0
  4  5  1  0
  5  6  2  0
  5  7  1  0
  7  8  1  0
  7  9  1  0
  9 10  1  1
  9 11  1  0
 11 12  2  0
 12 13  1  0
 12 14  1  0
 14 15  1  0
 14 16  2  0
 16 17  1  0
 16 18  1  0
 18 19  1  0
 18 20  2  0
 20 21  1  0
  9 22  1  0
 22 23  1  0
 22 24  1  0
 22 25  1  0
  4 26  2  0
 26 27  1  0
 26 28  1  0
 28 29  1  0
 29 30  2  0
 29 31  1  0
 31 32  1  0
 32 33  1  0
 32 34  2  0
 34 35  1  0
 34 36  1  0
 36 37  1  0
 36 38  2  0
 38 39  1  0
 38 40  1  0
 40 41  2  0
 41 42  1  0
 42 43  1  0
 43 44  1  0
 44 45  1  0
 44 46  1  0
 44 47  1  0
 47 48  2  0
 48 49  1  0
 48 50  1  0
 50 51  1  0
 50 52  2  0
 52 53  1  0
 52 54  1  0
 54 55  1  0
 54 56  2  0
 56 57  1  0
 43  3  1  0
 56 47  1  0
 20 11  1  0
 42 28  2  0
 40 31  1  0
M  END
>  <UniqueID>  (34) 
97

>  <SMILES>  (34) 
[H]/N=c1/c(C(=O)N[C@@H](C)c2ccccc2)cc2c(=O)n3cc(Cl)cc(Cl)c3nc2n1Cc1ccccc1

>  <Energy>  (34) 
83.40535062579522

>  <Genealogy>  (34) 
[H]/N=c1/c(C(=O)N[C@@H](C)c2ccccc2)cc2c(=O)n3cc(Cl)cc(Cl)c3nc2n1Cc1ccccc1 (cis-trans isomerization)
[H]/N=c1/c(C(=O)N[C@@H](C)c2ccccc2)cc2c(=O)n3cc(Cl)cc(Cl)c3nc2n1Cc1ccccc1 (3D coordinates assigned)
[H]/N=c1/c(C(=O)N[C@@H](C)c2ccccc2)cc2c(=O)n3cc(Cl)cc(Cl)c3nc2n1Cc1ccccc1 (optimized conformer: 83.40535062579522 kcal/mol)

>  <smiles>  (34) 
C[C@H](NC(=O)c1cc2c(=O)n3cc(Cl)cc(Cl)c3nc2n(Cc2ccccc2)c1=N)c1ccccc1

>  <score_type>  (34) 
oracle

>  <origin>  (34) 
autodockgpu

>  <m_score__min__energy>  (34) 
-8.9399999999999995

>  <m_primary>  (34) 
energy

>  <meeko>  (34) 
{"free_energy": -8.6, "intermolecular_energy": -10.39, "internal_energy": -1.73, "cluster_size": 6, "cluster_id": 1, "rank_in_cluster": 4}

>  <energy>  (34) 
-8.88

>  <cluster_rmsd>  (34) 
0.15

>  <rmsd>  (34) 
269.26

>  <cluster>  (34) 
2

$$$$
AFKJZVLHPMIVAS-OQJQLQHTNA-N
     RDKit          3D

 57 61  0  0  0  0  0  0  0  0999 V2000
  140.7660   69.9900  220.8290 H   0  0  0  0  0  0  0  0  0  0  0  0
  141.1010   70.8780  220.4030 N   0  0  0  0  0  0  0  0  0  0  0  0
  140.8890   72.0900  220.8330 C   0  0  0  0  0  0  0  0  0  0  0  0
  140.0050   72.2570  221.9240 C   0  0  0  0  0  0  0  0  0  0  0  0
  139.4130   71.0950  222.6370 C   0  0  0  0  0  0  0  0  0  0  0  0
  139.7610   69.9250  222.3170 O   0  0  0  0  0  0  0  0  0  0  0  0
  138.4480   71.2910  223.6830 N   0  0  0  0  0  0  0  0  0  0  0  0
  138.0990   72.2580  223.8740 H   0  0  0  0  0  0  0  0  0  0  0  0
  137.8650   70.1650  224.4200 C   0  0  2  0  0  0  0  0  0  0  0  0
  137.0282   70.5444  225.0248 H   0  0  0  0  0  0  0  0  0  0  0  0
  138.8940   69.5500  225.3450 C   0  0  0  0  0  0  0  0  0  0  0  0
  138.8700   68.1700  225.6120 C   0  0  0  0  0  0  0  0  0  0  0  0
  138.0943   67.5381  225.1548 H   0  0  0  0  0  0  0  0  0  0  0  0
  139.8260   67.5960  226.4550 C   0  0  0  0  0  0  0  0  0  0  0  0
  139.7978   66.5161  226.6626 H   0  0  0  0  0  0  0  0  0  0  0  0
  140.8170   68.3920  227.0340 C   0  0  0  0  0  0  0  0  0  0  0  0
  141.5660   67.9390  227.7001 H   0  0  0  0  0  0  0  0  0  0  0  0
  140.8580   69.7630  226.7680 C   0  0  0  0  0  0  0  0  0  0  0  0
  141.6412   70.3879  227.2220 H   0  0  0  0  0  0  0  0  0  0  0  0
  139.9040   70.3410  225.9250 C   0  0  0  0  0  0  0  0  0  0  0  0
  139.9428   71.4198  225.7137 H   0  0  0  0  0  0  0  0  0  0  0  0
  137.3250   69.1080  223.4520 C   0  0  0  0  0  0  0  0  0  0  0  0
  136.8975   68.2713  224.0240 H   0  0  0  0  0  0  0  0  0  0  0  0
  136.5450   69.5554  222.8184 H   0  0  0  0  0  0  0  0  0  0  0  0
  138.1446   68.7382  222.8184 H   0  0  0  0  0  0  0  0  0  0  0  0
  139.6720   73.5470  222.3390 C   0  0  0  0  0  0  0  0  0  0  0  0
  138.9933   73.6877  223.1931 H   0  0  0  0  0  0  0  0  0  0  0  0
  140.1940   74.6600  221.6780 C   0  0  0  0  0  0  0  0  0  0  0  0
  139.8540   75.9760  222.0510 C   0  0  0  0  0  0  0  0  0  0  0  0
  139.0520   76.1630  223.0100 O   0  0  0  0  0  0  0  0  0  0  0  0
  140.3870   77.0460  221.3740 N   0  0  0  0  0  0  0  0  0  0  0  0
  140.0570   78.3310  221.7280 C   0  0  0  0  0  0  0  0  0  0  0  0
  139.3615   78.5025  222.5627 H   0  0  0  0  0  0  0  0  0  0  0  0
  140.5930   79.4230  221.0420 C   0  0  0  0  0  0  0  0  0  0  0  0
  140.1610   81.0590  221.5070 Cl  0  0  0  0  0  0  0  0  0  0  0  0
  141.4730   79.2040  219.9860 C   0  0  0  0  0  0  0  0  0  0  0  0
  141.8998   80.0573  219.4385 H   0  0  0  0  0  0  0  0  0  0  0  0
  141.8120   77.9040  219.6240 C   0  0  0  0  0  0  0  0  0  0  0  0
  142.9250   77.6430  218.2870 Cl  0  0  0  0  0  0  0  0  0  0  0  0
  141.2590   76.8240  220.3310 C   0  0  0  0  0  0  0  0  0  0  0  0
  141.5910   75.5570  219.9780 N   0  0  0  0  0  0  0  0  0  0  0  0
  141.0900   74.4650  220.6160 C   0  0  0  0  0  0  0  0  0  0  0  0
  141.4590   73.1960  220.2210 N   0  0  0  0  0  0  0  0  0  0  0  0
  142.4690   73.0750  219.1410 C   0  0  0  0  0  0  0  0  0  0  0  0
  142.3489   72.0999  218.6463 H   0  0  0  0  0  0  0  0  0  0  0  0
  142.3124   73.8969  218.4269 H   0  0  0  0  0  0  0  0  0  0  0  0
  143.8740   73.1800  219.6860 C   0  0  0  0  0  0  0  0  0  0  0  0
  144.2890   74.3550  220.3380 C   0  0  0  0  0  0  0  0  0  0  0  0
  143.5893   75.1971  220.4443 H   0  0  0  0  0  0  0  0  0  0  0  0
  145.5850   74.4600  220.8520 C   0  0  0  0  0  0  0  0  0  0  0  0
  145.9039   75.3858  221.3531 H   0  0  0  0  0  0  0  0  0  0  0  0
  146.4750   73.3910  220.7300 C   0  0  0  0  0  0  0  0  0  0  0  0
  147.4952   73.4760  221.1325 H   0  0  0  0  0  0  0  0  0  0  0  0
  146.0700   72.2140  220.0970 C   0  0  0  0  0  0  0  0  0  0  0  0
  146.7712   71.3716  220.0038 H   0  0  0  0  0  0  0  0  0  0  0  0
  144.7740   72.1040  219.5810 C   0  0  0  0  0  0  0  0  0  0  0  0
  144.4574   71.1715  219.0908 H   0  0  0  0  0  0  0  0  0  0  0  0
  1  2  1  0
  2  3  2  0
  3  4  1  0
  4  5  1  0
  5  6  2  0
  5  7  1  0
  7  8  1  0
  7  9  1  0
  9 10  1  1
  9 11  1  0
 11 12  2  0
 12 13  1  0
 12 14  1  0
 14 15  1  0
 14 16  2  0
 16 17  1  0
 16 18  1  0
 18 19  1  0
 18 20  2  0
 20 21  1  0
  9 22  1  0
 22 23  1  0
 22 24  1  0
 22 25  1  0
  4 26  2  0
 26 27  1  0
 26 28  1  0
 28 29  1  0
 29 30  2  0
 29 31  1  0
 31 32  1  0
 32 33  1  0
 32 34  2  0
 34 35  1  0
 34 36  1  0
 36 37  1  0
 36 38  2  0
 38 39  1  0
 38 40  1  0
 40 41  2  0
 41 42  1  0
 42 43  1  0
 43 44  1  0
 44 45  1  0
 44 46  1  0
 44 47  1  0
 47 48  2  0
 48 49  1  0
 48 50  1  0
 50 51  1  0
 50 52  2  0
 52 53  1  0
 52 54  1  0
 54 55  1  0
 54 56  2  0
 56 57  1  0
 43  3  1  0
 56 47  1  0
 20 11  1  0
 42 28  2  0
 40 31  1  0
M  END
>  <UniqueID>  (35) 
97

>  <SMILES>  (35) 
[H]/N=c1/c(C(=O)N[C@@H](C)c2ccccc2)cc2c(=O)n3cc(Cl)cc(Cl)c3nc2n1Cc1ccccc1

>  <Energy>  (35) 
83.40535062579522

>  <Genealogy>  (35) 
[H]/N=c1/c(C(=O)N[C@@H](C)c2ccccc2)cc2c(=O)n3cc(Cl)cc(Cl)c3nc2n1Cc1ccccc1 (cis-trans isomerization)
[H]/N=c1/c(C(=O)N[C@@H](C)c2ccccc2)cc2c(=O)n3cc(Cl)cc(Cl)c3nc2n1Cc1ccccc1 (3D coordinates assigned)
[H]/N=c1/c(C(=O)N[C@@H](C)c2ccccc2)cc2c(=O)n3cc(Cl)cc(Cl)c3nc2n1Cc1ccccc1 (optimized conformer: 83.40535062579522 kcal/mol)

>  <smiles>  (35) 
C[C@H](NC(=O)c1cc2c(=O)n3cc(Cl)cc(Cl)c3nc2n(Cc2ccccc2)c1=N)c1ccccc1

>  <score_type>  (35) 
oracle

>  <origin>  (35) 
autodockgpu

>  <m_score__min__energy>  (35) 
-8.9399999999999995

>  <m_primary>  (35) 
energy

>  <meeko>  (35) 
{"free_energy": -8.87, "intermolecular_energy": -10.66, "internal_energy": -1.68, "cluster_size": 13, "cluster_id": 2, "rank_in_cluster": 9}

>  <energy>  (35) 
-8.87

>  <cluster_rmsd>  (35) 
0.17

>  <rmsd>  (35) 
269.26

>  <cluster>  (35) 
2

$$$$
AFKJZVLHPMIVAS-OQJQLQHTNA-N
     RDKit          3D

 57 61  0  0  0  0  0  0  0  0999 V2000
  140.6680   69.9650  220.8030 H   0  0  0  0  0  0  0  0  0  0  0  0
  141.1390   70.8320  220.4750 N   0  0  0  0  0  0  0  0  0  0  0  0
  140.9200   72.0520  220.8800 C   0  0  0  0  0  0  0  0  0  0  0  0
  140.0390   72.2360  221.9700 C   0  0  0  0  0  0  0  0  0  0  0  0
  139.4570   71.0850  222.7090 C   0  0  0  0  0  0  0  0  0  0  0  0
  139.8240   69.9120  222.4250 O   0  0  0  0  0  0  0  0  0  0  0  0
  138.4780   71.2950  223.7400 N   0  0  0  0  0  0  0  0  0  0  0  0
  138.1150   72.2620  223.9020 H   0  0  0  0  0  0  0  0  0  0  0  0
  137.9040   70.1810  224.5030 C   0  0  2  0  0  0  0  0  0  0  0  0
  137.0877   70.5733  225.1273 H   0  0  0  0  0  0  0  0  0  0  0  0
  138.9520   69.5640  225.4050 C   0  0  0  0  0  0  0  0  0  0  0  0
  138.9830   68.1720  225.6030 C   0  0  0  0  0  0  0  0  0  0  0  0
  138.2369   67.5325  225.1086 H   0  0  0  0  0  0  0  0  0  0  0  0
  139.9560   67.5970  226.4240 C   0  0  0  0  0  0  0  0  0  0  0  0
  139.9713   66.5078  226.5772 H   0  0  0  0  0  0  0  0  0  0  0  0
  140.9100   68.4030  227.0510 C   0  0  0  0  0  0  0  0  0  0  0  0
  141.6733   67.9480  227.6994 H   0  0  0  0  0  0  0  0  0  0  0  0
  140.8950   69.7860  226.8550 C   0  0  0  0  0  0  0  0  0  0  0  0
  141.6474   70.4195  227.3476 H   0  0  0  0  0  0  0  0  0  0  0  0
  139.9240   70.3650  226.0330 C   0  0  0  0  0  0  0  0  0  0  0  0
  139.9195   71.4537  225.8760 H   0  0  0  0  0  0  0  0  0  0  0  0
  137.3280   69.1220  223.5590 C   0  0  0  0  0  0  0  0  0  0  0  0
  136.8846   68.3067  224.1495 H   0  0  0  0  0  0  0  0  0  0  0  0
  136.5538   69.5784  222.9247 H   0  0  0  0  0  0  0  0  0  0  0  0
  138.1318   68.7201  222.9247 H   0  0  0  0  0  0  0  0  0  0  0  0
  139.6990   73.5320  222.3600 C   0  0  0  0  0  0  0  0  0  0  0  0
  139.0215   73.6860  223.2128 H   0  0  0  0  0  0  0  0  0  0  0  0
  140.2130   74.6340  221.6750 C   0  0  0  0  0  0  0  0  0  0  0  0
  139.8650   75.9550  222.0220 C   0  0  0  0  0  0  0  0  0  0  0  0
  139.0650   76.1580  222.9800 O   0  0  0  0  0  0  0  0  0  0  0  0
  140.3890   77.0140  221.3210 N   0  0  0  0  0  0  0  0  0  0  0  0
  140.0530   78.3040  221.6490 C   0  0  0  0  0  0  0  0  0  0  0  0
  139.3592   78.4885  222.4824 H   0  0  0  0  0  0  0  0  0  0  0  0
  140.5800   79.3860  220.9390 C   0  0  0  0  0  0  0  0  0  0  0  0
  140.1400   81.0280  221.3710 Cl  0  0  0  0  0  0  0  0  0  0  0  0
  141.4580   79.1510  219.8850 C   0  0  0  0  0  0  0  0  0  0  0  0
  141.8777   79.9954  219.3186 H   0  0  0  0  0  0  0  0  0  0  0  0
  141.8040   77.8450  219.5490 C   0  0  0  0  0  0  0  0  0  0  0  0
  142.9140   77.5630  218.2130 Cl  0  0  0  0  0  0  0  0  0  0  0  0
  141.2600   76.7770  220.2800 C   0  0  0  0  0  0  0  0  0  0  0  0
  141.5980   75.5040  219.9520 N   0  0  0  0  0  0  0  0  0  0  0  0
  141.1060   74.4230  220.6130 C   0  0  0  0  0  0  0  0  0  0  0  0
  141.4820   73.1490  220.2440 N   0  0  0  0  0  0  0  0  0  0  0  0
  142.4890   73.0110  219.1630 C   0  0  0  0  0  0  0  0  0  0  0  0
  142.3825   72.0194  218.6989 H   0  0  0  0  0  0  0  0  0  0  0  0
  142.3161   73.8078  218.4246 H   0  0  0  0  0  0  0  0  0  0  0  0
  143.8940   73.1550  219.6980 C   0  0  0  0  0  0  0  0  0  0  0  0
  144.2850   74.3460  220.3360 C   0  0  0  0  0  0  0  0  0  0  0  0
  143.5656   75.1717  220.4391 H   0  0  0  0  0  0  0  0  0  0  0  0
  145.5810   74.4880  220.8400 C   0  0  0  0  0  0  0  0  0  0  0  0
  145.8806   75.4266  221.3292 H   0  0  0  0  0  0  0  0  0  0  0  0
  146.4960   73.4390  220.7230 C   0  0  0  0  0  0  0  0  0  0  0  0
  147.5161   73.5526  221.1185 H   0  0  0  0  0  0  0  0  0  0  0  0
  146.1160   72.2460  220.1040 C   0  0  0  0  0  0  0  0  0  0  0  0
  146.8369   71.4200  220.0142 H   0  0  0  0  0  0  0  0  0  0  0  0
  144.8200   72.1000  219.5980 C   0  0  0  0  0  0  0  0  0  0  0  0
  144.5231   71.1552  219.1193 H   0  0  0  0  0  0  0  0  0  0  0  0
  1  2  1  0
  2  3  2  0
  3  4  1  0
  4  5  1  0
  5  6  2  0
  5  7  1  0
  7  8  1  0
  7  9  1  0
  9 10  1  1
  9 11  1  0
 11 12  2  0
 12 13  1  0
 12 14  1  0
 14 15  1  0
 14 16  2  0
 16 17  1  0
 16 18  1  0
 18 19  1  0
 18 20  2  0
 20 21  1  0
  9 22  1  0
 22 23  1  0
 22 24  1  0
 22 25  1  0
  4 26  2  0
 26 27  1  0
 26 28  1  0
 28 29  1  0
 29 30  2  0
 29 31  1  0
 31 32  1  0
 32 33  1  0
 32 34  2  0
 34 35  1  0
 34 36  1  0
 36 37  1  0
 36 38  2  0
 38 39  1  0
 38 40  1  0
 40 41  2  0
 41 42  1  0
 42 43  1  0
 43 44  1  0
 44 45  1  0
 44 46  1  0
 44 47  1  0
 47 48  2  0
 48 49  1  0
 48 50  1  0
 50 51  1  0
 50 52  2  0
 52 53  1  0
 52 54  1  0
 54 55  1  0
 54 56  2  0
 56 57  1  0
 43  3  1  0
 56 47  1  0
 20 11  1  0
 42 28  2  0
 40 31  1  0
M  END
>  <UniqueID>  (36) 
97

>  <SMILES>  (36) 
[H]/N=c1/c(C(=O)N[C@@H](C)c2ccccc2)cc2c(=O)n3cc(Cl)cc(Cl)c3nc2n1Cc1ccccc1

>  <Energy>  (36) 
83.40535062579522

>  <Genealogy>  (36) 
[H]/N=c1/c(C(=O)N[C@@H](C)c2ccccc2)cc2c(=O)n3cc(Cl)cc(Cl)c3nc2n1Cc1ccccc1 (cis-trans isomerization)
[H]/N=c1/c(C(=O)N[C@@H](C)c2ccccc2)cc2c(=O)n3cc(Cl)cc(Cl)c3nc2n1Cc1ccccc1 (3D coordinates assigned)
[H]/N=c1/c(C(=O)N[C@@H](C)c2ccccc2)cc2c(=O)n3cc(Cl)cc(Cl)c3nc2n1Cc1ccccc1 (optimized conformer: 83.40535062579522 kcal/mol)

>  <smiles>  (36) 
C[C@H](NC(=O)c1cc2c(=O)n3cc(Cl)cc(Cl)c3nc2n(Cc2ccccc2)c1=N)c1ccccc1

>  <score_type>  (36) 
oracle

>  <origin>  (36) 
autodockgpu

>  <m_score__min__energy>  (36) 
-8.9399999999999995

>  <m_primary>  (36) 
energy

>  <meeko>  (36) 
{"free_energy": -8.86, "intermolecular_energy": -10.65, "internal_energy": -1.69, "cluster_size": 13, "cluster_id": 2, "rank_in_cluster": 10}

>  <energy>  (36) 
-8.86

>  <cluster_rmsd>  (36) 
0.13

>  <rmsd>  (36) 
269.27

>  <cluster>  (36) 
2

$$$$
AFKJZVLHPMIVAS-OQJQLQHTNA-N
     RDKit          3D

 57 61  0  0  0  0  0  0  0  0999 V2000
  140.7030   70.1820  220.6910 H   0  0  0  0  0  0  0  0  0  0  0  0
  141.1250   71.0780  220.3730 N   0  0  0  0  0  0  0  0  0  0  0  0
  140.8630   72.2750  220.8160 C   0  0  0  0  0  0  0  0  0  0  0  0
  139.9830   72.3930  221.9170 C   0  0  0  0  0  0  0  0  0  0  0  0
  139.4510   71.1990  222.6240 C   0  0  0  0  0  0  0  0  0  0  0  0
  139.8600   70.0500  222.3010 O   0  0  0  0  0  0  0  0  0  0  0  0
  138.4740   71.3400  223.6680 N   0  0  0  0  0  0  0  0  0  0  0  0
  138.0760   72.2880  223.8620 H   0  0  0  0  0  0  0  0  0  0  0  0
  137.9490   70.1830  224.4010 C   0  0  2  0  0  0  0  0  0  0  0  0
  137.0989   70.5185  225.0131 H   0  0  0  0  0  0  0  0  0  0  0  0
  139.0110   69.6110  225.3160 C   0  0  0  0  0  0  0  0  0  0  0  0
  139.9830   70.4540  225.8840 C   0  0  0  0  0  0  0  0  0  0  0  0
  139.9765   71.5295  225.6532 H   0  0  0  0  0  0  0  0  0  0  0  0
  140.9570   69.9330  226.7400 C   0  0  0  0  0  0  0  0  0  0  0  0
  141.7169   70.5978  227.1766 H   0  0  0  0  0  0  0  0  0  0  0  0
  140.9670   68.5690  227.0420 C   0  0  0  0  0  0  0  0  0  0  0  0
  141.7364   68.1604  227.7136 H   0  0  0  0  0  0  0  0  0  0  0  0
  140.0010   67.7240  226.4920 C   0  0  0  0  0  0  0  0  0  0  0  0
  140.0087   66.6506  226.7324 H   0  0  0  0  0  0  0  0  0  0  0  0
  139.0240   68.2410  225.6360 C   0  0  0  0  0  0  0  0  0  0  0  0
  138.2610   67.5728  225.2102 H   0  0  0  0  0  0  0  0  0  0  0  0
  137.4550   69.1080  223.4280 C   0  0  0  0  0  0  0  0  0  0  0  0
  137.0617   68.2521  223.9961 H   0  0  0  0  0  0  0  0  0  0  0  0
  136.6582   69.5250  222.7946 H   0  0  0  0  0  0  0  0  0  0  0  0
  138.2904   68.7749  222.7946 H   0  0  0  0  0  0  0  0  0  0  0  0
  139.5970   73.6630  222.3480 C   0  0  0  0  0  0  0  0  0  0  0  0
  138.9214   73.7657  223.2100 H   0  0  0  0  0  0  0  0  0  0  0  0
  140.0630   74.8040  221.6920 C   0  0  0  0  0  0  0  0  0  0  0  0
  139.6680   76.1000  222.0810 C   0  0  0  0  0  0  0  0  0  0  0  0
  138.8680   76.2420  223.0500 O   0  0  0  0  0  0  0  0  0  0  0  0
  140.1460   77.1990  221.4100 N   0  0  0  0  0  0  0  0  0  0  0  0
  139.7620   78.4640  221.7790 C   0  0  0  0  0  0  0  0  0  0  0  0
  139.0674   78.5964  222.6217 H   0  0  0  0  0  0  0  0  0  0  0  0
  140.2420   79.5860  221.0980 C   0  0  0  0  0  0  0  0  0  0  0  0
  139.7430   81.1960  221.5820 Cl  0  0  0  0  0  0  0  0  0  0  0  0
  141.1210   79.4160  220.0320 C   0  0  0  0  0  0  0  0  0  0  0  0
  141.5045   80.2925  219.4891 H   0  0  0  0  0  0  0  0  0  0  0  0
  141.5140   78.1350  219.6540 C   0  0  0  0  0  0  0  0  0  0  0  0
  142.6240   77.9370  218.3040 Cl  0  0  0  0  0  0  0  0  0  0  0  0
  141.0170   77.0260  220.3560 C   0  0  0  0  0  0  0  0  0  0  0  0
  141.4010   75.7780  219.9880 N   0  0  0  0  0  0  0  0  0  0  0  0
  140.9560   74.6590  220.6200 C   0  0  0  0  0  0  0  0  0  0  0  0
  141.3770   73.4120  220.2090 N   0  0  0  0  0  0  0  0  0  0  0  0
  142.3810   73.3450  219.1190 C   0  0  0  0  0  0  0  0  0  0  0  0
  142.2226   72.4214  218.5430 H   0  0  0  0  0  0  0  0  0  0  0  0
  142.2563   74.2309  218.4789 H   0  0  0  0  0  0  0  0  0  0  0  0
  143.7890   73.3480  219.6650 C   0  0  0  0  0  0  0  0  0  0  0  0
  144.2820   74.4830  220.3330 C   0  0  0  0  0  0  0  0  0  0  0  0
  143.6403   75.3686  220.4512 H   0  0  0  0  0  0  0  0  0  0  0  0
  145.5820   74.4940  220.8480 C   0  0  0  0  0  0  0  0  0  0  0  0
  145.9623   75.3898  221.3608 H   0  0  0  0  0  0  0  0  0  0  0  0
  146.3980   73.3690  220.7120 C   0  0  0  0  0  0  0  0  0  0  0  0
  147.4210   73.3793  221.1161 H   0  0  0  0  0  0  0  0  0  0  0  0
  145.9150   72.2310  220.0630 C   0  0  0  0  0  0  0  0  0  0  0  0
  146.5580   71.3446  219.9586 H   0  0  0  0  0  0  0  0  0  0  0  0
  144.6150   72.2150  219.5450 C   0  0  0  0  0  0  0  0  0  0  0  0
  144.2372   71.3128  219.0418 H   0  0  0  0  0  0  0  0  0  0  0  0
  1  2  1  0
  2  3  2  0
  3  4  1  0
  4  5  1  0
  5  6  2  0
  5  7  1  0
  7  8  1  0
  7  9  1  0
  9 10  1  1
  9 11  1  0
 11 12  2  0
 12 13  1  0
 12 14  1  0
 14 15  1  0
 14 16  2  0
 16 17  1  0
 16 18  1  0
 18 19  1  0
 18 20  2  0
 20 21  1  0
  9 22  1  0
 22 23  1  0
 22 24  1  0
 22 25  1  0
  4 26  2  0
 26 27  1  0
 26 28  1  0
 28 29  1  0
 29 30  2  0
 29 31  1  0
 31 32  1  0
 32 33  1  0
 32 34  2  0
 34 35  1  0
 34 36  1  0
 36 37  1  0
 36 38  2  0
 38 39  1  0
 38 40  1  0
 40 41  2  0
 41 42  1  0
 42 43  1  0
 43 44  1  0
 44 45  1  0
 44 46  1  0
 44 47  1  0
 47 48  2  0
 48 49  1  0
 48 50  1  0
 50 51  1  0
 50 52  2  0
 52 53  1  0
 52 54  1  0
 54 55  1  0
 54 56  2  0
 56 57  1  0
 43  3  1  0
 56 47  1  0
 20 11  1  0
 42 28  2  0
 40 31  1  0
M  END
>  <UniqueID>  (37) 
97

>  <SMILES>  (37) 
[H]/N=c1/c(C(=O)N[C@@H](C)c2ccccc2)cc2c(=O)n3cc(Cl)cc(Cl)c3nc2n1Cc1ccccc1

>  <Energy>  (37) 
83.40535062579522

>  <Genealogy>  (37) 
[H]/N=c1/c(C(=O)N[C@@H](C)c2ccccc2)cc2c(=O)n3cc(Cl)cc(Cl)c3nc2n1Cc1ccccc1 (cis-trans isomerization)
[H]/N=c1/c(C(=O)N[C@@H](C)c2ccccc2)cc2c(=O)n3cc(Cl)cc(Cl)c3nc2n1Cc1ccccc1 (3D coordinates assigned)
[H]/N=c1/c(C(=O)N[C@@H](C)c2ccccc2)cc2c(=O)n3cc(Cl)cc(Cl)c3nc2n1Cc1ccccc1 (optimized conformer: 83.40535062579522 kcal/mol)

>  <smiles>  (37) 
C[C@H](NC(=O)c1cc2c(=O)n3cc(Cl)cc(Cl)c3nc2n(Cc2ccccc2)c1=N)c1ccccc1

>  <score_type>  (37) 
oracle

>  <origin>  (37) 
autodockgpu

>  <m_score__min__energy>  (37) 
-8.9399999999999995

>  <m_primary>  (37) 
energy

>  <meeko>  (37) 
{"free_energy": -8.81, "intermolecular_energy": -10.6, "internal_energy": -1.7, "cluster_size": 13, "cluster_id": 2, "rank_in_cluster": 13}

>  <energy>  (37) 
-8.84

>  <cluster_rmsd>  (37) 
0.18

>  <rmsd>  (37) 
269.23

>  <cluster>  (37) 
2

$$$$
AFKJZVLHPMIVAS-OQJQLQHTNA-N
     RDKit          3D

 57 61  0  0  0  0  0  0  0  0999 V2000
  140.6870   69.9810  220.7890 H   0  0  0  0  0  0  0  0  0  0  0  0
  141.1070   70.8600  220.4230 N   0  0  0  0  0  0  0  0  0  0  0  0
  140.8930   72.0740  220.8470 C   0  0  0  0  0  0  0  0  0  0  0  0
  140.0080   72.2450  221.9360 C   0  0  0  0  0  0  0  0  0  0  0  0
  139.4160   71.0860  222.6540 C   0  0  0  0  0  0  0  0  0  0  0  0
  139.7460   69.9140  222.3220 O   0  0  0  0  0  0  0  0  0  0  0  0
  138.4710   71.2860  223.7170 N   0  0  0  0  0  0  0  0  0  0  0  0
  138.1360   72.2560  223.9180 H   0  0  0  0  0  0  0  0  0  0  0  0
  137.8890   70.1630  224.4590 C   0  0  2  0  0  0  0  0  0  0  0  0
  137.0683   70.5484  225.0819 H   0  0  0  0  0  0  0  0  0  0  0  0
  138.9280   69.5310  225.3610 C   0  0  0  0  0  0  0  0  0  0  0  0
  139.9190   70.3270  225.9620 C   0  0  0  0  0  0  0  0  0  0  0  0
  139.9442   71.4094  225.7676 H   0  0  0  0  0  0  0  0  0  0  0  0
  140.8730   69.7490  226.8060 C   0  0  0  0  0  0  0  0  0  0  0  0
  141.6482   70.3768  227.2697 H   0  0  0  0  0  0  0  0  0  0  0  0
  140.8430   68.3760  227.0610 C   0  0  0  0  0  0  0  0  0  0  0  0
  141.5965   67.9234  227.7223 H   0  0  0  0  0  0  0  0  0  0  0  0
  139.8570   67.5770  226.4770 C   0  0  0  0  0  0  0  0  0  0  0  0
  139.8331   66.4963  226.6808 H   0  0  0  0  0  0  0  0  0  0  0  0
  138.9010   68.1500  225.6340 C   0  0  0  0  0  0  0  0  0  0  0  0
  138.1227   67.5183  225.1810 H   0  0  0  0  0  0  0  0  0  0  0  0
  137.3190   69.1180  223.4950 C   0  0  0  0  0  0  0  0  0  0  0  0
  136.8700   68.2949  224.0702 H   0  0  0  0  0  0  0  0  0  0  0  0
  136.5503   69.5844  222.8613 H   0  0  0  0  0  0  0  0  0  0  0  0
  138.1273   68.7243  222.8613 H   0  0  0  0  0  0  0  0  0  0  0  0
  139.6730   73.5370  222.3460 C   0  0  0  0  0  0  0  0  0  0  0  0
  138.9927   73.6809  223.1983 H   0  0  0  0  0  0  0  0  0  0  0  0
  140.1960   74.6470  221.6810 C   0  0  0  0  0  0  0  0  0  0  0  0
  139.8540   75.9640  222.0480 C   0  0  0  0  0  0  0  0  0  0  0  0
  139.0510   76.1550  223.0050 O   0  0  0  0  0  0  0  0  0  0  0  0
  140.3870   77.0320  221.3670 N   0  0  0  0  0  0  0  0  0  0  0  0
  140.0560   78.3180  221.7150 C   0  0  0  0  0  0  0  0  0  0  0  0
  139.3598   78.4928  222.5486 H   0  0  0  0  0  0  0  0  0  0  0  0
  140.5920   79.4080  221.0240 C   0  0  0  0  0  0  0  0  0  0  0  0
  140.1590   81.0450  221.4820 Cl  0  0  0  0  0  0  0  0  0  0  0  0
  141.4740   79.1850  219.9710 C   0  0  0  0  0  0  0  0  0  0  0  0
  141.9018   80.0361  219.4209 H   0  0  0  0  0  0  0  0  0  0  0  0
  141.8140   77.8830  219.6150 C   0  0  0  0  0  0  0  0  0  0  0  0
  142.9280   77.6170  218.2790 Cl  0  0  0  0  0  0  0  0  0  0  0  0
  141.2600   76.8060  220.3260 C   0  0  0  0  0  0  0  0  0  0  0  0
  141.5930   75.5380  219.9780 N   0  0  0  0  0  0  0  0  0  0  0  0
  141.0930   74.4480  220.6200 C   0  0  0  0  0  0  0  0  0  0  0  0
  141.4630   73.1780  220.2310 N   0  0  0  0  0  0  0  0  0  0  0  0
  142.4740   73.0520  219.1530 C   0  0  0  0  0  0  0  0  0  0  0  0
  142.3628   72.0693  218.6713 H   0  0  0  0  0  0  0  0  0  0  0  0
  142.3099   73.8631  218.4283 H   0  0  0  0  0  0  0  0  0  0  0  0
  143.8780   73.1770  219.6960 C   0  0  0  0  0  0  0  0  0  0  0  0
  144.2790   74.3600  220.3430 C   0  0  0  0  0  0  0  0  0  0  0  0
  143.5686   75.1934  220.4468 H   0  0  0  0  0  0  0  0  0  0  0  0
  145.5740   74.4840  220.8550 C   0  0  0  0  0  0  0  0  0  0  0  0
  145.8820   75.4165  221.3505 H   0  0  0  0  0  0  0  0  0  0  0  0
  146.4770   73.4250  220.7380 C   0  0  0  0  0  0  0  0  0  0  0  0
  147.4960   73.5240  221.1403 H   0  0  0  0  0  0  0  0  0  0  0  0
  146.0860   72.2400  220.1100 C   0  0  0  0  0  0  0  0  0  0  0  0
  146.7974   71.4058  220.0204 H   0  0  0  0  0  0  0  0  0  0  0  0
  144.7920   72.1120  219.5950 C   0  0  0  0  0  0  0  0  0  0  0  0
  144.4872   71.1738  219.1084 H   0  0  0  0  0  0  0  0  0  0  0  0
  1  2  1  0
  2  3  2  0
  3  4  1  0
  4  5  1  0
  5  6  2  0
  5  7  1  0
  7  8  1  0
  7  9  1  0
  9 10  1  1
  9 11  1  0
 11 12  2  0
 12 13  1  0
 12 14  1  0
 14 15  1  0
 14 16  2  0
 16 17  1  0
 16 18  1  0
 18 19  1  0
 18 20  2  0
 20 21  1  0
  9 22  1  0
 22 23  1  0
 22 24  1  0
 22 25  1  0
  4 26  2  0
 26 27  1  0
 26 28  1  0
 28 29  1  0
 29 30  2  0
 29 31  1  0
 31 32  1  0
 32 33  1  0
 32 34  2  0
 34 35  1  0
 34 36  1  0
 36 37  1  0
 36 38  2  0
 38 39  1  0
 38 40  1  0
 40 41  2  0
 41 42  1  0
 42 43  1  0
 43 44  1  0
 44 45  1  0
 44 46  1  0
 44 47  1  0
 47 48  2  0
 48 49  1  0
 48 50  1  0
 50 51  1  0
 50 52  2  0
 52 53  1  0
 52 54  1  0
 54 55  1  0
 54 56  2  0
 56 57  1  0
 43  3  1  0
 56 47  1  0
 20 11  1  0
 42 28  2  0
 40 31  1  0
M  END
>  <UniqueID>  (38) 
97

>  <SMILES>  (38) 
[H]/N=c1/c(C(=O)N[C@@H](C)c2ccccc2)cc2c(=O)n3cc(Cl)cc(Cl)c3nc2n1Cc1ccccc1

>  <Energy>  (38) 
83.40535062579522

>  <Genealogy>  (38) 
[H]/N=c1/c(C(=O)N[C@@H](C)c2ccccc2)cc2c(=O)n3cc(Cl)cc(Cl)c3nc2n1Cc1ccccc1 (cis-trans isomerization)
[H]/N=c1/c(C(=O)N[C@@H](C)c2ccccc2)cc2c(=O)n3cc(Cl)cc(Cl)c3nc2n1Cc1ccccc1 (3D coordinates assigned)
[H]/N=c1/c(C(=O)N[C@@H](C)c2ccccc2)cc2c(=O)n3cc(Cl)cc(Cl)c3nc2n1Cc1ccccc1 (optimized conformer: 83.40535062579522 kcal/mol)

>  <smiles>  (38) 
C[C@H](NC(=O)c1cc2c(=O)n3cc(Cl)cc(Cl)c3nc2n(Cc2ccccc2)c1=N)c1ccccc1

>  <score_type>  (38) 
oracle

>  <origin>  (38) 
autodockgpu

>  <m_score__min__energy>  (38) 
-8.9399999999999995

>  <m_primary>  (38) 
energy

>  <meeko>  (38) 
{"free_energy": -8.89, "intermolecular_energy": -10.68, "internal_energy": -1.67, "cluster_size": 13, "cluster_id": 2, "rank_in_cluster": 3}

>  <energy>  (38) 
-8.83

>  <cluster_rmsd>  (38) 
0.17

>  <rmsd>  (38) 
269.22

>  <cluster>  (38) 
2

$$$$
AFKJZVLHPMIVAS-OQJQLQHTNA-N
     RDKit          3D

 57 61  0  0  0  0  0  0  0  0999 V2000
  140.7590   69.9540  220.8800 H   0  0  0  0  0  0  0  0  0  0  0  0
  141.1330   70.8340  220.4680 N   0  0  0  0  0  0  0  0  0  0  0  0
  140.9150   72.0520  220.8780 C   0  0  0  0  0  0  0  0  0  0  0  0
  140.0310   72.2340  221.9660 C   0  0  0  0  0  0  0  0  0  0  0  0
  139.4450   71.0810  222.7000 C   0  0  0  0  0  0  0  0  0  0  0  0
  139.7870   69.9070  222.3890 O   0  0  0  0  0  0  0  0  0  0  0  0
  138.4930   71.2910  223.7550 N   0  0  0  0  0  0  0  0  0  0  0  0
  138.1500   72.2610  223.9390 H   0  0  0  0  0  0  0  0  0  0  0  0
  137.9160   70.1750  224.5120 C   0  0  2  0  0  0  0  0  0  0  0  0
  137.0920   70.5645  225.1279 H   0  0  0  0  0  0  0  0  0  0  0  0
  138.9580   69.5620  225.4240 C   0  0  0  0  0  0  0  0  0  0  0  0
  138.9790   68.1730  225.6400 C   0  0  0  0  0  0  0  0  0  0  0  0
  138.2294   67.5324  225.1523 H   0  0  0  0  0  0  0  0  0  0  0  0
  139.9470   67.6010  226.4710 C   0  0  0  0  0  0  0  0  0  0  0  0
  139.9539   66.5139  226.6389 H   0  0  0  0  0  0  0  0  0  0  0  0
  140.9050   68.4080  227.0880 C   0  0  0  0  0  0  0  0  0  0  0  0
  141.6639   67.9561  227.7436 H   0  0  0  0  0  0  0  0  0  0  0  0
  140.9010   69.7880  226.8740 C   0  0  0  0  0  0  0  0  0  0  0  0
  141.6576   70.4219  227.3596 H   0  0  0  0  0  0  0  0  0  0  0  0
  139.9360   70.3640  226.0430 C   0  0  0  0  0  0  0  0  0  0  0  0
  139.9406   71.4505  225.8715 H   0  0  0  0  0  0  0  0  0  0  0  0
  137.3530   69.1130  223.5630 C   0  0  0  0  0  0  0  0  0  0  0  0
  136.9172   68.2909  224.1498 H   0  0  0  0  0  0  0  0  0  0  0  0
  136.5752   69.5633  222.9288 H   0  0  0  0  0  0  0  0  0  0  0  0
  138.1622   68.7219  222.9288 H   0  0  0  0  0  0  0  0  0  0  0  0
  139.6930   73.5290  222.3600 C   0  0  0  0  0  0  0  0  0  0  0  0
  139.0144   73.6811  223.2123 H   0  0  0  0  0  0  0  0  0  0  0  0
  140.2100   74.6330  221.6800 C   0  0  0  0  0  0  0  0  0  0  0  0
  139.8630   75.9530  222.0310 C   0  0  0  0  0  0  0  0  0  0  0  0
  139.0610   76.1530  222.9870 O   0  0  0  0  0  0  0  0  0  0  0  0
  140.3910   77.0140  221.3350 N   0  0  0  0  0  0  0  0  0  0  0  0
  140.0560   78.3030  221.6680 C   0  0  0  0  0  0  0  0  0  0  0  0
  139.3615   78.4855  222.5012 H   0  0  0  0  0  0  0  0  0  0  0  0
  140.5860   79.3860  220.9620 C   0  0  0  0  0  0  0  0  0  0  0  0
  140.1480   81.0270  221.4000 Cl  0  0  0  0  0  0  0  0  0  0  0  0
  141.4670   79.1530  219.9100 C   0  0  0  0  0  0  0  0  0  0  0  0
  141.8906   79.9987  219.3484 H   0  0  0  0  0  0  0  0  0  0  0  0
  141.8110   77.8480  219.5700 C   0  0  0  0  0  0  0  0  0  0  0  0
  142.9240   77.5700  218.2360 Cl  0  0  0  0  0  0  0  0  0  0  0  0
  141.2630   76.7780  220.2950 C   0  0  0  0  0  0  0  0  0  0  0  0
  141.6010   75.5070  219.9640 N   0  0  0  0  0  0  0  0  0  0  0  0
  141.1060   74.4240  220.6200 C   0  0  0  0  0  0  0  0  0  0  0  0
  141.4800   73.1500  220.2470 N   0  0  0  0  0  0  0  0  0  0  0  0
  142.4890   73.0140  219.1680 C   0  0  0  0  0  0  0  0  0  0  0  0
  142.3859   72.0219  218.7043 H   0  0  0  0  0  0  0  0  0  0  0  0
  142.3153   73.8097  218.4286 H   0  0  0  0  0  0  0  0  0  0  0  0
  143.8930   73.1620  219.7060 C   0  0  0  0  0  0  0  0  0  0  0  0
  144.2810   74.3550  220.3410 C   0  0  0  0  0  0  0  0  0  0  0  0
  143.5605   75.1803  220.4397 H   0  0  0  0  0  0  0  0  0  0  0  0
  145.5760   74.5000  220.8480 C   0  0  0  0  0  0  0  0  0  0  0  0
  145.8734   75.4402  221.3354 H   0  0  0  0  0  0  0  0  0  0  0  0
  146.4920   73.4520  220.7360 C   0  0  0  0  0  0  0  0  0  0  0  0
  147.5110   73.5676  221.1339 H   0  0  0  0  0  0  0  0  0  0  0  0
  146.1150   72.2570  220.1190 C   0  0  0  0  0  0  0  0  0  0  0  0
  146.8372   71.4317  220.0331 H   0  0  0  0  0  0  0  0  0  0  0  0
  144.8200   72.1080  219.6100 C   0  0  0  0  0  0  0  0  0  0  0  0
  144.5253   71.1619  219.1324 H   0  0  0  0  0  0  0  0  0  0  0  0
  1  2  1  0
  2  3  2  0
  3  4  1  0
  4  5  1  0
  5  6  2  0
  5  7  1  0
  7  8  1  0
  7  9  1  0
  9 10  1  1
  9 11  1  0
 11 12  2  0
 12 13  1  0
 12 14  1  0
 14 15  1  0
 14 16  2  0
 16 17  1  0
 16 18  1  0
 18 19  1  0
 18 20  2  0
 20 21  1  0
  9 22  1  0
 22 23  1  0
 22 24  1  0
 22 25  1  0
  4 26  2  0
 26 27  1  0
 26 28  1  0
 28 29  1  0
 29 30  2  0
 29 31  1  0
 31 32  1  0
 32 33  1  0
 32 34  2  0
 34 35  1  0
 34 36  1  0
 36 37  1  0
 36 38  2  0
 38 39  1  0
 38 40  1  0
 40 41  2  0
 41 42  1  0
 42 43  1  0
 43 44  1  0
 44 45  1  0
 44 46  1  0
 44 47  1  0
 47 48  2  0
 48 49  1  0
 48 50  1  0
 50 51  1  0
 50 52  2  0
 52 53  1  0
 52 54  1  0
 54 55  1  0
 54 56  2  0
 56 57  1  0
 43  3  1  0
 56 47  1  0
 20 11  1  0
 42 28  2  0
 40 31  1  0
M  END
>  <UniqueID>  (39) 
97

>  <SMILES>  (39) 
[H]/N=c1/c(C(=O)N[C@@H](C)c2ccccc2)cc2c(=O)n3cc(Cl)cc(Cl)c3nc2n1Cc1ccccc1

>  <Energy>  (39) 
83.40535062579522

>  <Genealogy>  (39) 
[H]/N=c1/c(C(=O)N[C@@H](C)c2ccccc2)cc2c(=O)n3cc(Cl)cc(Cl)c3nc2n1Cc1ccccc1 (cis-trans isomerization)
[H]/N=c1/c(C(=O)N[C@@H](C)c2ccccc2)cc2c(=O)n3cc(Cl)cc(Cl)c3nc2n1Cc1ccccc1 (3D coordinates assigned)
[H]/N=c1/c(C(=O)N[C@@H](C)c2ccccc2)cc2c(=O)n3cc(Cl)cc(Cl)c3nc2n1Cc1ccccc1 (optimized conformer: 83.40535062579522 kcal/mol)

>  <smiles>  (39) 
C[C@H](NC(=O)c1cc2c(=O)n3cc(Cl)cc(Cl)c3nc2n(Cc2ccccc2)c1=N)c1ccccc1

>  <score_type>  (39) 
oracle

>  <origin>  (39) 
autodockgpu

>  <m_score__min__energy>  (39) 
-8.9399999999999995

>  <m_primary>  (39) 
energy

>  <meeko>  (39) 
{"free_energy": -8.88, "intermolecular_energy": -10.67, "internal_energy": -1.67, "cluster_size": 13, "cluster_id": 2, "rank_in_cluster": 5}

>  <energy>  (39) 
-8.81

>  <cluster_rmsd>  (39) 
0.34

>  <rmsd>  (39) 
269.25

>  <cluster>  (39) 
2

$$$$
AFKJZVLHPMIVAS-OQJQLQHTNA-N
     RDKit          3D

 57 61  0  0  0  0  0  0  0  0999 V2000
  140.6250   69.9850  220.7610 H   0  0  0  0  0  0  0  0  0  0  0  0
  141.0840   70.8560  220.4240 N   0  0  0  0  0  0  0  0  0  0  0  0
  140.8670   72.0720  220.8380 C   0  0  0  0  0  0  0  0  0  0  0  0
  139.9720   72.2530  221.9180 C   0  0  0  0  0  0  0  0  0  0  0  0
  139.3730   71.0990  222.6380 C   0  0  0  0  0  0  0  0  0  0  0  0
  139.7060   69.9240  222.3190 O   0  0  0  0  0  0  0  0  0  0  0  0
  138.4160   71.3080  223.6890 N   0  0  0  0  0  0  0  0  0  0  0  0
  138.0790   72.2790  223.8800 H   0  0  0  0  0  0  0  0  0  0  0  0
  137.8260   70.1900  224.4340 C   0  0  2  0  0  0  0  0  0  0  0  0
  137.0051   70.5817  225.0526 H   0  0  0  0  0  0  0  0  0  0  0  0
  138.8580   69.5570  225.3420 C   0  0  0  0  0  0  0  0  0  0  0  0
  139.8500   70.3510  225.9450 C   0  0  0  0  0  0  0  0  0  0  0  0
  139.8803   71.4326  225.7469 H   0  0  0  0  0  0  0  0  0  0  0  0
  140.7980   69.7730  226.7950 C   0  0  0  0  0  0  0  0  0  0  0  0
  141.5738   70.3994  227.2595 H   0  0  0  0  0  0  0  0  0  0  0  0
  140.7610   68.4010  227.0550 C   0  0  0  0  0  0  0  0  0  0  0  0
  141.5099   67.9477  227.7211 H   0  0  0  0  0  0  0  0  0  0  0  0
  139.7740   67.6040  226.4700 C   0  0  0  0  0  0  0  0  0  0  0  0
  139.7443   66.5243  226.6783 H   0  0  0  0  0  0  0  0  0  0  0  0
  138.8240   68.1780  225.6200 C   0  0  0  0  0  0  0  0  0  0  0  0
  138.0452   67.5478  225.1657 H   0  0  0  0  0  0  0  0  0  0  0  0
  137.2550   69.1440  223.4720 C   0  0  0  0  0  0  0  0  0  0  0  0
  136.8062   68.3218  224.0487 H   0  0  0  0  0  0  0  0  0  0  0  0
  136.4860   69.6098  222.8382 H   0  0  0  0  0  0  0  0  0  0  0  0
  138.0627   68.7491  222.8382 H   0  0  0  0  0  0  0  0  0  0  0  0
  139.6350   73.5470  222.3150 C   0  0  0  0  0  0  0  0  0  0  0  0
  138.9470   73.6974  223.1601 H   0  0  0  0  0  0  0  0  0  0  0  0
  140.1650   74.6530  221.6470 C   0  0  0  0  0  0  0  0  0  0  0  0
  139.8210   75.9720  222.0010 C   0  0  0  0  0  0  0  0  0  0  0  0
  139.0090   76.1710  222.9500 O   0  0  0  0  0  0  0  0  0  0  0  0
  140.3620   77.0340  221.3180 N   0  0  0  0  0  0  0  0  0  0  0  0
  140.0290   78.3230  221.6540 C   0  0  0  0  0  0  0  0  0  0  0  0
  139.3249   78.5041  222.4795 H   0  0  0  0  0  0  0  0  0  0  0  0
  140.5730   79.4080  220.9610 C   0  0  0  0  0  0  0  0  0  0  0  0
  140.1370   81.0490  221.4020 Cl  0  0  0  0  0  0  0  0  0  0  0  0
  141.4640   79.1770  219.9170 C   0  0  0  0  0  0  0  0  0  0  0  0
  141.8972   80.0240  219.3647 H   0  0  0  0  0  0  0  0  0  0  0  0
  141.8060   77.8720  219.5730 C   0  0  0  0  0  0  0  0  0  0  0  0
  142.9330   77.5950  218.2500 Cl  0  0  0  0  0  0  0  0  0  0  0  0
  141.2450   76.8010  220.2870 C   0  0  0  0  0  0  0  0  0  0  0  0
  141.5800   75.5290  219.9510 N   0  0  0  0  0  0  0  0  0  0  0  0
  141.0720   74.4450  220.5960 C   0  0  0  0  0  0  0  0  0  0  0  0
  141.4450   73.1720  220.2200 N   0  0  0  0  0  0  0  0  0  0  0  0
  142.4660   73.0370  219.1520 C   0  0  0  0  0  0  0  0  0  0  0  0
  142.3619   72.0488  218.6801 H   0  0  0  0  0  0  0  0  0  0  0  0
  142.3062   73.8393  218.4166 H   0  0  0  0  0  0  0  0  0  0  0  0
  143.8650   73.1720  219.7070 C   0  0  0  0  0  0  0  0  0  0  0  0
  144.7790   72.1120  219.5730 C   0  0  0  0  0  0  0  0  0  0  0  0
  144.4701   71.1847  219.0684 H   0  0  0  0  0  0  0  0  0  0  0  0
  146.0780   72.2290  220.0770 C   0  0  0  0  0  0  0  0  0  0  0  0
  146.7841   71.3917  219.9757 H   0  0  0  0  0  0  0  0  0  0  0  0
  146.4800   73.4080  220.7090 C   0  0  0  0  0  0  0  0  0  0  0  0
  147.5013   73.4978  221.1075 H   0  0  0  0  0  0  0  0  0  0  0  0
  145.5850   74.4730  220.8350 C   0  0  0  0  0  0  0  0  0  0  0  0
  145.9037   75.4023  221.3299 H   0  0  0  0  0  0  0  0  0  0  0  0
  144.2840   74.3600  220.3330 C   0  0  0  0  0  0  0  0  0  0  0  0
  143.5853   75.2043  220.4283 H   0  0  0  0  0  0  0  0  0  0  0  0
  1  2  1  0
  2  3  2  0
  3  4  1  0
  4  5  1  0
  5  6  2  0
  5  7  1  0
  7  8  1  0
  7  9  1  0
  9 10  1  1
  9 11  1  0
 11 12  2  0
 12 13  1  0
 12 14  1  0
 14 15  1  0
 14 16  2  0
 16 17  1  0
 16 18  1  0
 18 19  1  0
 18 20  2  0
 20 21  1  0
  9 22  1  0
 22 23  1  0
 22 24  1  0
 22 25  1  0
  4 26  2  0
 26 27  1  0
 26 28  1  0
 28 29  1  0
 29 30  2  0
 29 31  1  0
 31 32  1  0
 32 33  1  0
 32 34  2  0
 34 35  1  0
 34 36  1  0
 36 37  1  0
 36 38  2  0
 38 39  1  0
 38 40  1  0
 40 41  2  0
 41 42  1  0
 42 43  1  0
 43 44  1  0
 44 45  1  0
 44 46  1  0
 44 47  1  0
 47 48  2  0
 48 49  1  0
 48 50  1  0
 50 51  1  0
 50 52  2  0
 52 53  1  0
 52 54  1  0
 54 55  1  0
 54 56  2  0
 56 57  1  0
 43  3  1  0
 56 47  1  0
 20 11  1  0
 42 28  2  0
 40 31  1  0
M  END
>  <UniqueID>  (40) 
97

>  <SMILES>  (40) 
[H]/N=c1/c(C(=O)N[C@@H](C)c2ccccc2)cc2c(=O)n3cc(Cl)cc(Cl)c3nc2n1Cc1ccccc1

>  <Energy>  (40) 
83.40535062579522

>  <Genealogy>  (40) 
[H]/N=c1/c(C(=O)N[C@@H](C)c2ccccc2)cc2c(=O)n3cc(Cl)cc(Cl)c3nc2n1Cc1ccccc1 (cis-trans isomerization)
[H]/N=c1/c(C(=O)N[C@@H](C)c2ccccc2)cc2c(=O)n3cc(Cl)cc(Cl)c3nc2n1Cc1ccccc1 (3D coordinates assigned)
[H]/N=c1/c(C(=O)N[C@@H](C)c2ccccc2)cc2c(=O)n3cc(Cl)cc(Cl)c3nc2n1Cc1ccccc1 (optimized conformer: 83.40535062579522 kcal/mol)

>  <smiles>  (40) 
C[C@H](NC(=O)c1cc2c(=O)n3cc(Cl)cc(Cl)c3nc2n(Cc2ccccc2)c1=N)c1ccccc1

>  <score_type>  (40) 
oracle

>  <origin>  (40) 
autodockgpu

>  <m_score__min__energy>  (40) 
-8.9399999999999995

>  <m_primary>  (40) 
energy

>  <meeko>  (40) 
{"free_energy": -8.84, "intermolecular_energy": -10.63, "internal_energy": -1.67, "cluster_size": 13, "cluster_id": 2, "rank_in_cluster": 11}

>  <energy>  (40) 
-8.4

>  <cluster_rmsd>  (40) 
0.0

>  <rmsd>  (40) 
269.2

>  <cluster>  (40) 
3

$$$$
AFKJZVLHPMIVAS-NUAMYCNZNA-N
     RDKit          3D

 57 61  0  0  0  0  0  0  0  0999 V2000
  141.1490   70.2530  220.7210 H   0  0  0  0  0  0  0  0  0  0  0  0
  141.5490   71.1940  220.5170 N   0  0  0  0  0  0  0  0  0  0  0  0
  141.0230   72.3300  220.8770 C   0  0  0  0  0  0  0  0  0  0  0  0
  140.0620   72.3790  221.9200 C   0  0  0  0  0  0  0  0  0  0  0  0
  139.5100   71.1660  222.5610 C   0  0  0  0  0  0  0  0  0  0  0  0
  139.7570   70.0340  222.0630 O   0  0  0  0  0  0  0  0  0  0  0  0
  138.6690   71.2830  223.7210 N   0  0  0  0  0  0  0  0  0  0  0  0
  138.5220   72.2330  224.1320 H   0  0  0  0  0  0  0  0  0  0  0  0
  138.0580   70.1450  224.4160 C   0  0  2  0  0  0  0  0  0  0  0  0
  137.2199   70.4940  225.0371 H   0  0  0  0  0  0  0  0  0  0  0  0
  139.0420   69.5200  225.3930 C   0  0  0  0  0  0  0  0  0  0  0  0
  139.0280   68.1230  225.5590 C   0  0  0  0  0  0  0  0  0  0  0  0
  138.3317   67.5112  224.9667 H   0  0  0  0  0  0  0  0  0  0  0  0
  139.8900   67.5050  226.4690 C   0  0  0  0  0  0  0  0  0  0  0  0
  139.8755   66.4111  226.5837 H   0  0  0  0  0  0  0  0  0  0  0  0
  140.7700   68.2750  227.2330 C   0  0  0  0  0  0  0  0  0  0  0  0
  141.4504   67.7872  227.9466 H   0  0  0  0  0  0  0  0  0  0  0  0
  140.7860   69.6630  227.0910 C   0  0  0  0  0  0  0  0  0  0  0  0
  141.4769   70.2681  227.6964 H   0  0  0  0  0  0  0  0  0  0  0  0
  139.9270   70.2870  226.1820 C   0  0  0  0  0  0  0  0  0  0  0  0
  139.9404   71.3822  226.0806 H   0  0  0  0  0  0  0  0  0  0  0  0
  137.4280   69.1670  223.4140 C   0  0  0  0  0  0  0  0  0  0  0  0
  136.9110   68.3645  223.9605 H   0  0  0  0  0  0  0  0  0  0  0  0
  136.7058   69.7043  222.7818 H   0  0  0  0  0  0  0  0  0  0  0  0
  138.2158   68.7315  222.7818 H   0  0  0  0  0  0  0  0  0  0  0  0
  139.5840   73.6210  222.3430 C   0  0  0  0  0  0  0  0  0  0  0  0
  138.8562   73.6738  223.1662 H   0  0  0  0  0  0  0  0  0  0  0  0
  140.0220   74.7960  221.7300 C   0  0  0  0  0  0  0  0  0  0  0  0
  139.5500   76.0640  222.1260 C   0  0  0  0  0  0  0  0  0  0  0  0
  138.7160   76.1490  223.0710 O   0  0  0  0  0  0  0  0  0  0  0  0
  139.9950   77.1970  221.4880 N   0  0  0  0  0  0  0  0  0  0  0  0
  139.5390   78.4360  221.8650 C   0  0  0  0  0  0  0  0  0  0  0  0
  138.8118   78.5206  222.6860 H   0  0  0  0  0  0  0  0  0  0  0  0
  139.9870   79.5900  221.2190 C   0  0  0  0  0  0  0  0  0  0  0  0
  139.3960   81.1660  221.7130 Cl  0  0  0  0  0  0  0  0  0  0  0  0
  140.9050   79.4830  220.1780 C   0  0  0  0  0  0  0  0  0  0  0  0
  141.2612   80.3864  219.6612 H   0  0  0  0  0  0  0  0  0  0  0  0
  141.3710   78.2280  219.7930 C   0  0  0  0  0  0  0  0  0  0  0  0
  142.5320   78.1050  218.4760 Cl  0  0  0  0  0  0  0  0  0  0  0  0
  140.9050   77.0840  220.4590 C   0  0  0  0  0  0  0  0  0  0  0  0
  141.3600   75.8630  220.0820 N   0  0  0  0  0  0  0  0  0  0  0  0
  140.9490   74.7140  220.6790 C   0  0  0  0  0  0  0  0  0  0  0  0
  141.4390   73.4950  220.2650 N   0  0  0  0  0  0  0  0  0  0  0  0
  142.3920   73.4360  219.1290 C   0  0  0  0  0  0  0  0  0  0  0  0
  142.1995   72.5256  218.5423 H   0  0  0  0  0  0  0  0  0  0  0  0
  142.2525   74.3289  218.5018 H   0  0  0  0  0  0  0  0  0  0  0  0
  143.8140   73.4110  219.6310 C   0  0  0  0  0  0  0  0  0  0  0  0
  144.6300   72.2890  219.4010 C   0  0  0  0  0  0  0  0  0  0  0  0
  144.2378   71.4348  218.8296 H   0  0  0  0  0  0  0  0  0  0  0  0
  145.9370   72.2540  219.8950 C   0  0  0  0  0  0  0  0  0  0  0  0
  146.5703   71.3737  219.7109 H   0  0  0  0  0  0  0  0  0  0  0  0
  146.4400   73.3350  220.6220 C   0  0  0  0  0  0  0  0  0  0  0  0
  147.4687   73.3054  221.0105 H   0  0  0  0  0  0  0  0  0  0  0  0
  145.6370   74.4540  220.8560 C   0  0  0  0  0  0  0  0  0  0  0  0
  146.0344   75.3054  221.4280 H   0  0  0  0  0  0  0  0  0  0  0  0
  144.3290   74.4930  220.3640 C   0  0  0  0  0  0  0  0  0  0  0  0
  143.6998   75.3755  220.5518 H   0  0  0  0  0  0  0  0  0  0  0  0
  1  2  1  0
  2  3  2  0
  3  4  1  0
  4  5  1  0
  5  6  2  0
  5  7  1  0
  7  8  1  0
  7  9  1  0
  9 10  1  1
  9 11  1  0
 11 12  2  0
 12 13  1  0
 12 14  1  0
 14 15  1  0
 14 16  2  0
 16 17  1  0
 16 18  1  0
 18 19  1  0
 18 20  2  0
 20 21  1  0
  9 22  1  0
 22 23  1  0
 22 24  1  0
 22 25  1  0
  4 26  2  0
 26 27  1  0
 26 28  1  0
 28 29  1  0
 29 30  2  0
 29 31  1  0
 31 32  1  0
 32 33  1  0
 32 34  2  0
 34 35  1  0
 34 36  1  0
 36 37  1  0
 36 38  2  0
 38 39  1  0
 38 40  1  0
 40 41  2  0
 41 42  1  0
 42 43  1  0
 43 44  1  0
 44 45  1  0
 44 46  1  0
 44 47  1  0
 47 48  2  0
 48 49  1  0
 48 50  1  0
 50 51  1  0
 50 52  2  0
 52 53  1  0
 52 54  1  0
 54 55  1  0
 54 56  2  0
 56 57  1  0
 43  3  1  0
 56 47  1  0
 20 11  1  0
 42 28  2  0
 40 31  1  0
M  END
>  <UniqueID>  (41) 
98

>  <SMILES>  (41) 
[H]/N=c1\c(C(=O)N[C@@H](C)c2ccccc2)cc2c(=O)n3cc(Cl)cc(Cl)c3nc2n1Cc1ccccc1

>  <Energy>  (41) 
85.01490418129275

>  <Genealogy>  (41) 
[H]/N=c1\c(C(=O)N[C@@H](C)c2ccccc2)cc2c(=O)n3cc(Cl)cc(Cl)c3nc2n1Cc1ccccc1 (cis-trans isomerization)
[H]/N=c1\c(C(=O)N[C@@H](C)c2ccccc2)cc2c(=O)n3cc(Cl)cc(Cl)c3nc2n1Cc1ccccc1 (3D coordinates assigned)
[H]/N=c1\c(C(=O)N[C@@H](C)c2ccccc2)cc2c(=O)n3cc(Cl)cc(Cl)c3nc2n1Cc1ccccc1 (optimized conformer: 85.01490418129275 kcal/mol)

>  <smiles>  (41) 
C[C@H](NC(=O)c1cc2c(=O)n3cc(Cl)cc(Cl)c3nc2n(Cc2ccccc2)c1=N)c1ccccc1

>  <score_type>  (41) 
oracle

>  <origin>  (41) 
autodockgpu

>  <m_score__min__energy>  (41) 
-8.8900000000000006

>  <m_primary>  (41) 
energy

>  <meeko>  (41) 
{"free_energy": -8.67, "intermolecular_energy": -10.46, "internal_energy": -1.7, "cluster_size": 9, "cluster_id": 2, "rank_in_cluster": 7}

>  <energy>  (41) 
-8.89

>  <cluster_rmsd>  (41) 
0.0

>  <rmsd>  (41) 
269.69

>  <cluster>  (41) 
1

$$$$
AFKJZVLHPMIVAS-NUAMYCNZNA-N
     RDKit          3D

 57 61  0  0  0  0  0  0  0  0999 V2000
  141.0670   70.1570  220.7050 H   0  0  0  0  0  0  0  0  0  0  0  0
  141.5230   71.0890  220.5900 N   0  0  0  0  0  0  0  0  0  0  0  0
  140.9960   72.2310  220.9280 C   0  0  0  0  0  0  0  0  0  0  0  0
  140.0210   72.2980  221.9560 C   0  0  0  0  0  0  0  0  0  0  0  0
  139.4550   71.0960  222.6060 C   0  0  0  0  0  0  0  0  0  0  0  0
  139.6160   69.9660  222.0680 O   0  0  0  0  0  0  0  0  0  0  0  0
  138.6960   71.2220  223.8200 N   0  0  0  0  0  0  0  0  0  0  0  0
  138.6200   72.1670  224.2600 H   0  0  0  0  0  0  0  0  0  0  0  0
  138.0770   70.0960  224.5280 C   0  0  2  0  0  0  0  0  0  0  0  0
  137.2626   70.4618  225.1706 H   0  0  0  0  0  0  0  0  0  0  0  0
  139.0720   69.4470  225.4780 C   0  0  0  0  0  0  0  0  0  0  0  0
  139.1430   68.0430  225.5210 C   0  0  0  0  0  0  0  0  0  0  0  0
  138.5036   67.4453  224.8547 H   0  0  0  0  0  0  0  0  0  0  0  0
  140.0170   67.3990  226.4010 C   0  0  0  0  0  0  0  0  0  0  0  0
  140.0677   66.3003  226.4193 H   0  0  0  0  0  0  0  0  0  0  0  0
  140.8260   68.1490  227.2570 C   0  0  0  0  0  0  0  0  0  0  0  0
  141.5160   67.6413  227.9470 H   0  0  0  0  0  0  0  0  0  0  0  0
  140.7590   69.5430  227.2370 C   0  0  0  0  0  0  0  0  0  0  0  0
  141.3945   70.1323  227.9144 H   0  0  0  0  0  0  0  0  0  0  0  0
  139.8860   70.1930  226.3580 C   0  0  0  0  0  0  0  0  0  0  0  0
  139.8335   71.2917  226.3524 H   0  0  0  0  0  0  0  0  0  0  0  0
  137.4000   69.1350  223.5410 C   0  0  0  0  0  0  0  0  0  0  0  0
  136.8542   68.3603  224.0995 H   0  0  0  0  0  0  0  0  0  0  0  0
  136.6961   69.6953  222.9081 H   0  0  0  0  0  0  0  0  0  0  0  0
  138.1645   68.6608  222.9081 H   0  0  0  0  0  0  0  0  0  0  0  0
  139.5420   73.5470  222.3560 C   0  0  0  0  0  0  0  0  0  0  0  0
  138.8034   73.6135  223.1685 H   0  0  0  0  0  0  0  0  0  0  0  0
  139.9930   74.7120  221.7330 C   0  0  0  0  0  0  0  0  0  0  0  0
  139.5210   75.9870  222.1050 C   0  0  0  0  0  0  0  0  0  0  0  0
  138.6730   76.0880  223.0360 O   0  0  0  0  0  0  0  0  0  0  0  0
  139.9790   77.1090  221.4580 N   0  0  0  0  0  0  0  0  0  0  0  0
  139.5230   78.3550  221.8120 C   0  0  0  0  0  0  0  0  0  0  0  0
  138.7847   78.4534  222.6215 H   0  0  0  0  0  0  0  0  0  0  0  0
  139.9850   79.4990  221.1570 C   0  0  0  0  0  0  0  0  0  0  0  0
  139.3930   81.0840  221.6220 Cl  0  0  0  0  0  0  0  0  0  0  0  0
  140.9170   79.3740  220.1310 C   0  0  0  0  0  0  0  0  0  0  0  0
  141.2846   80.2689  219.6075 H   0  0  0  0  0  0  0  0  0  0  0  0
  141.3830   78.1120  219.7690 C   0  0  0  0  0  0  0  0  0  0  0  0
  142.5620   77.9670  218.4710 Cl  0  0  0  0  0  0  0  0  0  0  0  0
  140.9030   76.9800  220.4440 C   0  0  0  0  0  0  0  0  0  0  0  0
  141.3580   75.7520  220.0900 N   0  0  0  0  0  0  0  0  0  0  0  0
  140.9350   74.6120  220.6970 C   0  0  0  0  0  0  0  0  0  0  0  0
  141.4250   73.3870  220.3060 N   0  0  0  0  0  0  0  0  0  0  0  0
  142.3940   73.3090  219.1840 C   0  0  0  0  0  0  0  0  0  0  0  0
  142.2323   72.3721  218.6307 H   0  0  0  0  0  0  0  0  0  0  0  0
  142.2401   74.1730  218.5208 H   0  0  0  0  0  0  0  0  0  0  0  0
  143.8090   73.3400  219.7040 C   0  0  0  0  0  0  0  0  0  0  0  0
  144.2970   74.4770  220.3720 C   0  0  0  0  0  0  0  0  0  0  0  0
  143.6350   75.3393  220.5397 H   0  0  0  0  0  0  0  0  0  0  0  0
  145.6190   74.5170  220.8240 C   0  0  0  0  0  0  0  0  0  0  0  0
  145.9937   75.4093  221.3468 H   0  0  0  0  0  0  0  0  0  0  0  0
  146.4650   73.4260  220.6130 C   0  0  0  0  0  0  0  0  0  0  0  0
  147.5053   73.4597  220.9689 H   0  0  0  0  0  0  0  0  0  0  0  0
  145.9900   72.2920  219.9500 C   0  0  0  0  0  0  0  0  0  0  0  0
  146.6564   71.4324  219.7857 H   0  0  0  0  0  0  0  0  0  0  0  0
  144.6690   72.2480  219.4950 C   0  0  0  0  0  0  0  0  0  0  0  0
  144.3005   71.3540  218.9706 H   0  0  0  0  0  0  0  0  0  0  0  0
  1  2  1  0
  2  3  2  0
  3  4  1  0
  4  5  1  0
  5  6  2  0
  5  7  1  0
  7  8  1  0
  7  9  1  0
  9 10  1  1
  9 11  1  0
 11 12  2  0
 12 13  1  0
 12 14  1  0
 14 15  1  0
 14 16  2  0
 16 17  1  0
 16 18  1  0
 18 19  1  0
 18 20  2  0
 20 21  1  0
  9 22  1  0
 22 23  1  0
 22 24  1  0
 22 25  1  0
  4 26  2  0
 26 27  1  0
 26 28  1  0
 28 29  1  0
 29 30  2  0
 29 31  1  0
 31 32  1  0
 32 33  1  0
 32 34  2  0
 34 35  1  0
 34 36  1  0
 36 37  1  0
 36 38  2  0
 38 39  1  0
 38 40  1  0
 40 41  2  0
 41 42  1  0
 42 43  1  0
 43 44  1  0
 44 45  1  0
 44 46  1  0
 44 47  1  0
 47 48  2  0
 48 49  1  0
 48 50  1  0
 50 51  1  0
 50 52  2  0
 52 53  1  0
 52 54  1  0
 54 55  1  0
 54 56  2  0
 56 57  1  0
 43  3  1  0
 56 47  1  0
 20 11  1  0
 42 28  2  0
 40 31  1  0
M  END
>  <UniqueID>  (42) 
98

>  <SMILES>  (42) 
[H]/N=c1\c(C(=O)N[C@@H](C)c2ccccc2)cc2c(=O)n3cc(Cl)cc(Cl)c3nc2n1Cc1ccccc1

>  <Energy>  (42) 
85.01490418129275

>  <Genealogy>  (42) 
[H]/N=c1\c(C(=O)N[C@@H](C)c2ccccc2)cc2c(=O)n3cc(Cl)cc(Cl)c3nc2n1Cc1ccccc1 (cis-trans isomerization)
[H]/N=c1\c(C(=O)N[C@@H](C)c2ccccc2)cc2c(=O)n3cc(Cl)cc(Cl)c3nc2n1Cc1ccccc1 (3D coordinates assigned)
[H]/N=c1\c(C(=O)N[C@@H](C)c2ccccc2)cc2c(=O)n3cc(Cl)cc(Cl)c3nc2n1Cc1ccccc1 (optimized conformer: 85.01490418129275 kcal/mol)

>  <smiles>  (42) 
C[C@H](NC(=O)c1cc2c(=O)n3cc(Cl)cc(Cl)c3nc2n(Cc2ccccc2)c1=N)c1ccccc1

>  <score_type>  (42) 
oracle

>  <origin>  (42) 
autodockgpu

>  <m_score__min__energy>  (42) 
-8.8900000000000006

>  <m_primary>  (42) 
energy

>  <meeko>  (42) 
{"free_energy": -8.64, "intermolecular_energy": -10.43, "internal_energy": -1.68, "cluster_size": 9, "cluster_id": 2, "rank_in_cluster": 8}

>  <energy>  (42) 
-8.82

>  <cluster_rmsd>  (42) 
0.3

>  <rmsd>  (42) 
269.8

>  <cluster>  (42) 
1

$$$$
AFKJZVLHPMIVAS-NUAMYCNZNA-N
     RDKit          3D

 57 61  0  0  0  0  0  0  0  0999 V2000
  141.0260   69.9700  220.7420 H   0  0  0  0  0  0  0  0  0  0  0  0
  141.5370   70.8740  220.6370 N   0  0  0  0  0  0  0  0  0  0  0  0
  141.0580   72.0480  220.9360 C   0  0  0  0  0  0  0  0  0  0  0  0
  140.0720   72.1870  221.9460 C   0  0  0  0  0  0  0  0  0  0  0  0
  139.4420   71.0300  222.6190 C   0  0  0  0  0  0  0  0  0  0  0  0
  139.4890   69.8940  222.0730 O   0  0  0  0  0  0  0  0  0  0  0  0
  138.7500   71.2100  223.8660 N   0  0  0  0  0  0  0  0  0  0  0  0
  138.7690   72.1560  224.3100 H   0  0  0  0  0  0  0  0  0  0  0  0
  138.0760   70.1330  224.6000 C   0  0  2  0  0  0  0  0  0  0  0  0
  137.3216   70.5579  225.2785 H   0  0  0  0  0  0  0  0  0  0  0  0
  139.0580   69.4040  225.5050 C   0  0  0  0  0  0  0  0  0  0  0  0
  139.8680   70.1640  226.3680 C   0  0  0  0  0  0  0  0  0  0  0  0
  139.7602   71.2584  226.3920 H   0  0  0  0  0  0  0  0  0  0  0  0
  140.8080   69.5440  227.1950 C   0  0  0  0  0  0  0  0  0  0  0  0
  141.4293   70.1493  227.8715 H   0  0  0  0  0  0  0  0  0  0  0  0
  140.9590   68.1560  227.1630 C   0  0  0  0  0  0  0  0  0  0  0  0
  141.6977   67.6680  227.8159 H   0  0  0  0  0  0  0  0  0  0  0  0
  140.1730   67.3880  226.3030 C   0  0  0  0  0  0  0  0  0  0  0  0
  140.2957   66.2952  226.2772 H   0  0  0  0  0  0  0  0  0  0  0  0
  139.2300   68.0030  225.4740 C   0  0  0  0  0  0  0  0  0  0  0  0
  138.6186   67.3919  224.7938 H   0  0  0  0  0  0  0  0  0  0  0  0
  137.2840   69.2320  223.6410 C   0  0  0  0  0  0  0  0  0  0  0  0
  136.6674   68.5305  224.2221 H   0  0  0  0  0  0  0  0  0  0  0  0
  136.6341   69.8531  223.0070 H   0  0  0  0  0  0  0  0  0  0  0  0
  137.9833   68.6671  223.0070 H   0  0  0  0  0  0  0  0  0  0  0  0
  139.6450   73.4670  222.3050 C   0  0  0  0  0  0  0  0  0  0  0  0
  138.8982   73.5890  223.1034 H   0  0  0  0  0  0  0  0  0  0  0  0
  140.1580   74.5930  221.6590 C   0  0  0  0  0  0  0  0  0  0  0  0
  139.7400   75.8970  221.9890 C   0  0  0  0  0  0  0  0  0  0  0  0
  138.8840   76.0630  222.9040 O   0  0  0  0  0  0  0  0  0  0  0  0
  140.2580   76.9800  221.3200 N   0  0  0  0  0  0  0  0  0  0  0  0
  139.8550   78.2550  221.6330 C   0  0  0  0  0  0  0  0  0  0  0  0
  139.1106   78.4093  222.4280 H   0  0  0  0  0  0  0  0  0  0  0  0
  140.3780   79.3580  220.9550 C   0  0  0  0  0  0  0  0  0  0  0  0
  139.8530   80.9800  221.3680 Cl  0  0  0  0  0  0  0  0  0  0  0  0
  141.3190   79.1620  219.9480 C   0  0  0  0  0  0  0  0  0  0  0  0
  141.7354   80.0246  219.4071 H   0  0  0  0  0  0  0  0  0  0  0  0
  141.7320   77.8710  219.6270 C   0  0  0  0  0  0  0  0  0  0  0  0
  142.9220   77.6370  218.3530 Cl  0  0  0  0  0  0  0  0  0  0  0  0
  141.1910   76.7810  220.3250 C   0  0  0  0  0  0  0  0  0  0  0  0
  141.5940   75.5240  220.0110 N   0  0  0  0  0  0  0  0  0  0  0  0
  141.1090   74.4220  220.6400 C   0  0  0  0  0  0  0  0  0  0  0  0
  141.5490   73.1650  220.2900 N   0  0  0  0  0  0  0  0  0  0  0  0
  142.5300   73.0120  219.1870 C   0  0  0  0  0  0  0  0  0  0  0  0
  142.4162   72.0144  218.7378 H   0  0  0  0  0  0  0  0  0  0  0  0
  142.3419   73.7919  218.4344 H   0  0  0  0  0  0  0  0  0  0  0  0
  143.9380   73.1650  219.7040 C   0  0  0  0  0  0  0  0  0  0  0  0
  144.8610   72.1130  219.5780 C   0  0  0  0  0  0  0  0  0  0  0  0
  144.5628   71.1807  219.0762 H   0  0  0  0  0  0  0  0  0  0  0  0
  146.1560   72.2450  220.0870 C   0  0  0  0  0  0  0  0  0  0  0  0
  146.8738   71.4180  219.9832 H   0  0  0  0  0  0  0  0  0  0  0  0
  146.5400   73.4250  220.7270 C   0  0  0  0  0  0  0  0  0  0  0  0
  147.5592   73.5264  221.1282 H   0  0  0  0  0  0  0  0  0  0  0  0
  145.6300   74.4770  220.8580 C   0  0  0  0  0  0  0  0  0  0  0  0
  145.9341   75.4070  221.3605 H   0  0  0  0  0  0  0  0  0  0  0  0
  144.3330   74.3490  220.3510 C   0  0  0  0  0  0  0  0  0  0  0  0
  143.6186   75.1785  220.4589 H   0  0  0  0  0  0  0  0  0  0  0  0
  1  2  1  0
  2  3  2  0
  3  4  1  0
  4  5  1  0
  5  6  2  0
  5  7  1  0
  7  8  1  0
  7  9  1  0
  9 10  1  1
  9 11  1  0
 11 12  2  0
 12 13  1  0
 12 14  1  0
 14 15  1  0
 14 16  2  0
 16 17  1  0
 16 18  1  0
 18 19  1  0
 18 20  2  0
 20 21  1  0
  9 22  1  0
 22 23  1  0
 22 24  1  0
 22 25  1  0
  4 26  2  0
 26 27  1  0
 26 28  1  0
 28 29  1  0
 29 30  2  0
 29 31  1  0
 31 32  1  0
 32 33  1  0
 32 34  2  0
 34 35  1  0
 34 36  1  0
 36 37  1  0
 36 38  2  0
 38 39  1  0
 38 40  1  0
 40 41  2  0
 41 42  1  0
 42 43  1  0
 43 44  1  0
 44 45  1  0
 44 46  1  0
 44 47  1  0
 47 48  2  0
 48 49  1  0
 48 50  1  0
 50 51  1  0
 50 52  2  0
 52 53  1  0
 52 54  1  0
 54 55  1  0
 54 56  2  0
 56 57  1  0
 43  3  1  0
 56 47  1  0
 20 11  1  0
 42 28  2  0
 40 31  1  0
M  END
>  <UniqueID>  (43) 
98

>  <SMILES>  (43) 
[H]/N=c1\c(C(=O)N[C@@H](C)c2ccccc2)cc2c(=O)n3cc(Cl)cc(Cl)c3nc2n1Cc1ccccc1

>  <Energy>  (43) 
85.01490418129275

>  <Genealogy>  (43) 
[H]/N=c1\c(C(=O)N[C@@H](C)c2ccccc2)cc2c(=O)n3cc(Cl)cc(Cl)c3nc2n1Cc1ccccc1 (cis-trans isomerization)
[H]/N=c1\c(C(=O)N[C@@H](C)c2ccccc2)cc2c(=O)n3cc(Cl)cc(Cl)c3nc2n1Cc1ccccc1 (3D coordinates assigned)
[H]/N=c1\c(C(=O)N[C@@H](C)c2ccccc2)cc2c(=O)n3cc(Cl)cc(Cl)c3nc2n1Cc1ccccc1 (optimized conformer: 85.01490418129275 kcal/mol)

>  <smiles>  (43) 
C[C@H](NC(=O)c1cc2c(=O)n3cc(Cl)cc(Cl)c3nc2n(Cc2ccccc2)c1=N)c1ccccc1

>  <score_type>  (43) 
oracle

>  <origin>  (43) 
autodockgpu

>  <m_score__min__energy>  (43) 
-8.8900000000000006

>  <m_primary>  (43) 
energy

>  <meeko>  (43) 
{"free_energy": -8.67, "intermolecular_energy": -10.46, "internal_energy": -1.69, "cluster_size": 9, "cluster_id": 2, "rank_in_cluster": 6}

>  <energy>  (43) 
-8.81

>  <cluster_rmsd>  (43) 
0.1

>  <rmsd>  (43) 
269.69

>  <cluster>  (43) 
1

$$$$
AFKJZVLHPMIVAS-NUAMYCNZNA-N
     RDKit          3D

 57 61  0  0  0  0  0  0  0  0999 V2000
  139.1660   74.9000  223.3290 H   0  0  0  0  0  0  0  0  0  0  0  0
  139.0140   74.5760  222.3490 N   0  0  0  0  0  0  0  0  0  0  0  0
  139.9440   74.4520  221.4450 C   0  0  0  0  0  0  0  0  0  0  0  0
  140.5750   73.2000  221.2280 C   0  0  0  0  0  0  0  0  0  0  0  0
  140.3210   72.0150  222.0770 C   0  0  0  0  0  0  0  0  0  0  0  0
  141.0590   70.9990  221.9600 O   0  0  0  0  0  0  0  0  0  0  0  0
  139.2190   72.0120  223.0000 N   0  0  0  0  0  0  0  0  0  0  0  0
  138.6570   72.8880  223.1010 H   0  0  0  0  0  0  0  0  0  0  0  0
  138.8720   70.8830  223.8690 C   0  0  2  0  0  0  0  0  0  0  0  0
  137.8185   70.9587  224.1763 H   0  0  0  0  0  0  0  0  0  0  0  0
  139.6680   70.9370  225.1640 C   0  0  0  0  0  0  0  0  0  0  0  0
  140.7030   71.8830  225.2770 C   0  0  0  0  0  0  0  0  0  0  0  0
  140.8996   72.5769  224.4464 H   0  0  0  0  0  0  0  0  0  0  0  0
  141.4840   71.9500  226.4340 C   0  0  0  0  0  0  0  0  0  0  0  0
  142.2853   72.6994  226.5134 H   0  0  0  0  0  0  0  0  0  0  0  0
  141.2480   71.0660  227.4900 C   0  0  0  0  0  0  0  0  0  0  0  0
  141.8611   71.1218  228.4016 H   0  0  0  0  0  0  0  0  0  0  0  0
  140.2350   70.1130  227.3880 C   0  0  0  0  0  0  0  0  0  0  0  0
  140.0529   69.4156  228.2189 H   0  0  0  0  0  0  0  0  0  0  0  0
  139.4500   70.0410  226.2330 C   0  0  0  0  0  0  0  0  0  0  0  0
  138.6578   69.2816  226.1569 H   0  0  0  0  0  0  0  0  0  0  0  0
  138.9680   69.5550  223.1030 C   0  0  0  0  0  0  0  0  0  0  0  0
  139.0282   68.7222  223.8191 H   0  0  0  0  0  0  0  0  0  0  0  0
  138.0765   69.4312  222.4707 H   0  0  0  0  0  0  0  0  0  0  0  0
  139.8681   69.5607  222.4707 H   0  0  0  0  0  0  0  0  0  0  0  0
  141.5030   73.0790  220.1920 C   0  0  0  0  0  0  0  0  0  0  0  0
  141.9813   72.1074  219.9992 H   0  0  0  0  0  0  0  0  0  0  0  0
  141.8290   74.1800  219.3990 C   0  0  0  0  0  0  0  0  0  0  0  0
  142.7700   74.0940  218.3540 C   0  0  0  0  0  0  0  0  0  0  0  0
  143.3310   72.9880  218.1120 O   0  0  0  0  0  0  0  0  0  0  0  0
  143.0740   75.2050  217.6040 N   0  0  0  0  0  0  0  0  0  0  0  0
  143.9910   75.1310  216.5850 C   0  0  0  0  0  0  0  0  0  0  0  0
  144.4845   74.1724  216.3668 H   0  0  0  0  0  0  0  0  0  0  0  0
  144.3050   76.2580  215.8220 C   0  0  0  0  0  0  0  0  0  0  0  0
  145.4790   76.1470  214.5230 Cl  0  0  0  0  0  0  0  0  0  0  0  0
  143.6820   77.4710  216.0990 C   0  0  0  0  0  0  0  0  0  0  0  0
  143.9244   78.3641  215.5044 H   0  0  0  0  0  0  0  0  0  0  0  0
  142.7500   77.5510  217.1320 C   0  0  0  0  0  0  0  0  0  0  0  0
  141.9690   79.0900  217.4730 Cl  0  0  0  0  0  0  0  0  0  0  0  0
  142.4530   76.4030  217.8830 C   0  0  0  0  0  0  0  0  0  0  0  0
  141.5450   76.4830  218.8880 N   0  0  0  0  0  0  0  0  0  0  0  0
  141.2120   75.4150  219.6580 C   0  0  0  0  0  0  0  0  0  0  0  0
  140.2840   75.5410  220.6670 N   0  0  0  0  0  0  0  0  0  0  0  0
  139.6740   76.8660  220.9410 C   0  0  0  0  0  0  0  0  0  0  0  0
  139.3747   77.3299  219.9896 H   0  0  0  0  0  0  0  0  0  0  0  0
  138.7959   76.7253  221.5884 H   0  0  0  0  0  0  0  0  0  0  0  0
  140.6570   77.7670  221.6440 C   0  0  0  0  0  0  0  0  0  0  0  0
  141.2630   78.8340  220.9570 C   0  0  0  0  0  0  0  0  0  0  0  0
  141.0000   79.0283  219.9067 H   0  0  0  0  0  0  0  0  0  0  0  0
  142.1980   79.6490  221.6020 C   0  0  0  0  0  0  0  0  0  0  0  0
  142.6660   80.4834  221.0590 H   0  0  0  0  0  0  0  0  0  0  0  0
  142.5390   79.4060  222.9340 C   0  0  0  0  0  0  0  0  0  0  0  0
  143.2761   80.0474  223.4393 H   0  0  0  0  0  0  0  0  0  0  0  0
  141.9430   78.3470  223.6250 C   0  0  0  0  0  0  0  0  0  0  0  0
  142.2104   78.1566  224.6749 H   0  0  0  0  0  0  0  0  0  0  0  0
  141.0080   77.5300  222.9840 C   0  0  0  0  0  0  0  0  0  0  0  0
  140.5439   76.6964  223.5315 H   0  0  0  0  0  0  0  0  0  0  0  0
  1  2  1  0
  2  3  2  0
  3  4  1  0
  4  5  1  0
  5  6  2  0
  5  7  1  0
  7  8  1  0
  7  9  1  0
  9 10  1  1
  9 11  1  0
 11 12  2  0
 12 13  1  0
 12 14  1  0
 14 15  1  0
 14 16  2  0
 16 17  1  0
 16 18  1  0
 18 19  1  0
 18 20  2  0
 20 21  1  0
  9 22  1  0
 22 23  1  0
 22 24  1  0
 22 25  1  0
  4 26  2  0
 26 27  1  0
 26 28  1  0
 28 29  1  0
 29 30  2  0
 29 31  1  0
 31 32  1  0
 32 33  1  0
 32 34  2  0
 34 35  1  0
 34 36  1  0
 36 37  1  0
 36 38  2  0
 38 39  1  0
 38 40  1  0
 40 41  2  0
 41 42  1  0
 42 43  1  0
 43 44  1  0
 44 45  1  0
 44 46  1  0
 44 47  1  0
 47 48  2  0
 48 49  1  0
 48 50  1  0
 50 51  1  0
 50 52  2  0
 52 53  1  0
 52 54  1  0
 54 55  1  0
 54 56  2  0
 56 57  1  0
 43  3  1  0
 56 47  1  0
 20 11  1  0
 42 28  2  0
 40 31  1  0
M  END
>  <UniqueID>  (44) 
98

>  <SMILES>  (44) 
[H]/N=c1\c(C(=O)N[C@@H](C)c2ccccc2)cc2c(=O)n3cc(Cl)cc(Cl)c3nc2n1Cc1ccccc1

>  <Energy>  (44) 
85.01490418129275

>  <Genealogy>  (44) 
[H]/N=c1\c(C(=O)N[C@@H](C)c2ccccc2)cc2c(=O)n3cc(Cl)cc(Cl)c3nc2n1Cc1ccccc1 (cis-trans isomerization)
[H]/N=c1\c(C(=O)N[C@@H](C)c2ccccc2)cc2c(=O)n3cc(Cl)cc(Cl)c3nc2n1Cc1ccccc1 (3D coordinates assigned)
[H]/N=c1\c(C(=O)N[C@@H](C)c2ccccc2)cc2c(=O)n3cc(Cl)cc(Cl)c3nc2n1Cc1ccccc1 (optimized conformer: 85.01490418129275 kcal/mol)

>  <smiles>  (44) 
C[C@H](NC(=O)c1cc2c(=O)n3cc(Cl)cc(Cl)c3nc2n(Cc2ccccc2)c1=N)c1ccccc1

>  <score_type>  (44) 
oracle

>  <origin>  (44) 
autodockgpu

>  <m_score__min__energy>  (44) 
-8.8900000000000006

>  <m_primary>  (44) 
energy

>  <meeko>  (44) 
{"free_energy": -8.66, "intermolecular_energy": -10.45, "internal_energy": -1.79, "cluster_size": 8, "cluster_id": 1, "rank_in_cluster": 6}

>  <energy>  (44) 
-8.77

>  <cluster_rmsd>  (44) 
0.45

>  <rmsd>  (44) 
269.65

>  <cluster>  (44) 
1

$$$$
AFKJZVLHPMIVAS-NUAMYCNZNA-N
     RDKit          3D

 57 61  0  0  0  0  0  0  0  0999 V2000
  139.1990   74.5890  223.4340 H   0  0  0  0  0  0  0  0  0  0  0  0
  139.0570   74.7020  222.4070 N   0  0  0  0  0  0  0  0  0  0  0  0
  139.9790   74.5540  221.4990 C   0  0  0  0  0  0  0  0  0  0  0  0
  140.6010   73.2940  221.3030 C   0  0  0  0  0  0  0  0  0  0  0  0
  140.3480   72.1290  222.1790 C   0  0  0  0  0  0  0  0  0  0  0  0
  141.2030   71.2030  222.2430 O   0  0  0  0  0  0  0  0  0  0  0  0
  139.1200   72.0380  222.9200 N   0  0  0  0  0  0  0  0  0  0  0  0
  138.4540   72.8430  222.8760 H   0  0  0  0  0  0  0  0  0  0  0  0
  138.7650   70.9160  223.7970 C   0  0  2  0  0  0  0  0  0  0  0  0
  137.7282   71.0277  224.1471 H   0  0  0  0  0  0  0  0  0  0  0  0
  139.6140   70.9330  225.0590 C   0  0  0  0  0  0  0  0  0  0  0  0
  139.3240   70.0040  226.0750 C   0  0  0  0  0  0  0  0  0  0  0  0
  138.5149   69.2731  225.9294 H   0  0  0  0  0  0  0  0  0  0  0  0
  140.0530   70.0000  227.2670 C   0  0  0  0  0  0  0  0  0  0  0  0
  139.8218   69.2633  228.0504 H   0  0  0  0  0  0  0  0  0  0  0  0
  141.0750   70.9310  227.4640 C   0  0  0  0  0  0  0  0  0  0  0  0
  141.6507   70.9256  228.4013 H   0  0  0  0  0  0  0  0  0  0  0  0
  141.3660   71.8680  226.4720 C   0  0  0  0  0  0  0  0  0  0  0  0
  142.1691   72.6028  226.6305 H   0  0  0  0  0  0  0  0  0  0  0  0
  140.6400   71.8760  225.2770 C   0  0  0  0  0  0  0  0  0  0  0  0
  140.8704   72.6222  224.5023 H   0  0  0  0  0  0  0  0  0  0  0  0
  138.7790   69.5910  223.0210 C   0  0  0  0  0  0  0  0  0  0  0  0
  138.7879   68.7506  223.7306 H   0  0  0  0  0  0  0  0  0  0  0  0
  137.8815   69.5272  222.3882 H   0  0  0  0  0  0  0  0  0  0  0  0
  139.6777   69.5461  222.3882 H   0  0  0  0  0  0  0  0  0  0  0  0
  141.5200   73.1460  220.2630 C   0  0  0  0  0  0  0  0  0  0  0  0
  141.9907   72.1676  220.0864 H   0  0  0  0  0  0  0  0  0  0  0  0
  141.8470   74.2290  219.4450 C   0  0  0  0  0  0  0  0  0  0  0  0
  142.7790   74.1160  218.3950 C   0  0  0  0  0  0  0  0  0  0  0  0
  143.3320   73.0020  218.1720 O   0  0  0  0  0  0  0  0  0  0  0  0
  143.0840   75.2090  217.6200 N   0  0  0  0  0  0  0  0  0  0  0  0
  143.9930   75.1090  216.5960 C   0  0  0  0  0  0  0  0  0  0  0  0
  144.4801   74.1435  216.3944 H   0  0  0  0  0  0  0  0  0  0  0  0
  144.3070   76.2180  215.8070 C   0  0  0  0  0  0  0  0  0  0  0  0
  145.4690   76.0730  214.5010 Cl  0  0  0  0  0  0  0  0  0  0  0  0
  143.6930   77.4400  216.0630 C   0  0  0  0  0  0  0  0  0  0  0  0
  143.9361   78.3191  215.4480 H   0  0  0  0  0  0  0  0  0  0  0  0
  142.7690   77.5470  217.1010 C   0  0  0  0  0  0  0  0  0  0  0  0
  141.9990   79.0970  217.4160 Cl  0  0  0  0  0  0  0  0  0  0  0  0
  142.4710   76.4170  217.8780 C   0  0  0  0  0  0  0  0  0  0  0  0
  141.5720   76.5220  218.8880 N   0  0  0  0  0  0  0  0  0  0  0  0
  141.2390   75.4720  219.6830 C   0  0  0  0  0  0  0  0  0  0  0  0
  140.3190   75.6250  220.6960 N   0  0  0  0  0  0  0  0  0  0  0  0
  139.7190   76.9590  220.9470 C   0  0  0  0  0  0  0  0  0  0  0  0
  139.4732   77.4318  219.9847 H   0  0  0  0  0  0  0  0  0  0  0  0
  138.8088   76.8307  221.5512 H   0  0  0  0  0  0  0  0  0  0  0  0
  140.6820   77.8400  221.7000 C   0  0  0  0  0  0  0  0  0  0  0  0
  140.9610   77.5950  223.0560 C   0  0  0  0  0  0  0  0  0  0  0  0
  140.4930   76.7393  223.5647 H   0  0  0  0  0  0  0  0  0  0  0  0
  141.8290   78.4320  223.7610 C   0  0  0  0  0  0  0  0  0  0  0  0
  142.0437   78.2325  224.8213 H   0  0  0  0  0  0  0  0  0  0  0  0
  142.4250   79.5220  223.1220 C   0  0  0  0  0  0  0  0  0  0  0  0
  143.1074   80.1808  223.6792 H   0  0  0  0  0  0  0  0  0  0  0  0
  142.1540   79.7750  221.7750 C   0  0  0  0  0  0  0  0  0  0  0  0
  142.6245   80.6326  221.2718 H   0  0  0  0  0  0  0  0  0  0  0  0
  141.2860   78.9400  221.0660 C   0  0  0  0  0  0  0  0  0  0  0  0
  141.0742   79.1446  220.0061 H   0  0  0  0  0  0  0  0  0  0  0  0
  1  2  1  0
  2  3  2  0
  3  4  1  0
  4  5  1  0
  5  6  2  0
  5  7  1  0
  7  8  1  0
  7  9  1  0
  9 10  1  1
  9 11  1  0
 11 12  2  0
 12 13  1  0
 12 14  1  0
 14 15  1  0
 14 16  2  0
 16 17  1  0
 16 18  1  0
 18 19  1  0
 18 20  2  0
 20 21  1  0
  9 22  1  0
 22 23  1  0
 22 24  1  0
 22 25  1  0
  4 26  2  0
 26 27  1  0
 26 28  1  0
 28 29  1  0
 29 30  2  0
 29 31  1  0
 31 32  1  0
 32 33  1  0
 32 34  2  0
 34 35  1  0
 34 36  1  0
 36 37  1  0
 36 38  2  0
 38 39  1  0
 38 40  1  0
 40 41  2  0
 41 42  1  0
 42 43  1  0
 43 44  1  0
 44 45  1  0
 44 46  1  0
 44 47  1  0
 47 48  2  0
 48 49  1  0
 48 50  1  0
 50 51  1  0
 50 52  2  0
 52 53  1  0
 52 54  1  0
 54 55  1  0
 54 56  2  0
 56 57  1  0
 43  3  1  0
 56 47  1  0
 20 11  1  0
 42 28  2  0
 40 31  1  0
M  END
>  <UniqueID>  (45) 
98

>  <SMILES>  (45) 
[H]/N=c1\c(C(=O)N[C@@H](C)c2ccccc2)cc2c(=O)n3cc(Cl)cc(Cl)c3nc2n1Cc1ccccc1

>  <Energy>  (45) 
85.01490418129275

>  <Genealogy>  (45) 
[H]/N=c1\c(C(=O)N[C@@H](C)c2ccccc2)cc2c(=O)n3cc(Cl)cc(Cl)c3nc2n1Cc1ccccc1 (cis-trans isomerization)
[H]/N=c1\c(C(=O)N[C@@H](C)c2ccccc2)cc2c(=O)n3cc(Cl)cc(Cl)c3nc2n1Cc1ccccc1 (3D coordinates assigned)
[H]/N=c1\c(C(=O)N[C@@H](C)c2ccccc2)cc2c(=O)n3cc(Cl)cc(Cl)c3nc2n1Cc1ccccc1 (optimized conformer: 85.01490418129275 kcal/mol)

>  <smiles>  (45) 
C[C@H](NC(=O)c1cc2c(=O)n3cc(Cl)cc(Cl)c3nc2n(Cc2ccccc2)c1=N)c1ccccc1

>  <score_type>  (45) 
oracle

>  <origin>  (45) 
autodockgpu

>  <m_score__min__energy>  (45) 
-8.8900000000000006

>  <m_primary>  (45) 
energy

>  <meeko>  (45) 
{"free_energy": -8.89, "intermolecular_energy": -10.68, "internal_energy": -1.84, "cluster_size": 8, "cluster_id": 1, "rank_in_cluster": 1}

>  <energy>  (45) 
-8.72

>  <cluster_rmsd>  (45) 
0.27

>  <rmsd>  (45) 
269.78

>  <cluster>  (45) 
1

$$$$
AFKJZVLHPMIVAS-NUAMYCNZNA-N
     RDKit          3D

 57 61  0  0  0  0  0  0  0  0999 V2000
  138.6220   74.2340  223.0680 H   0  0  0  0  0  0  0  0  0  0  0  0
  139.0010   74.9280  222.3880 N   0  0  0  0  0  0  0  0  0  0  0  0
  139.9520   74.6980  221.5290 C   0  0  0  0  0  0  0  0  0  0  0  0
  140.5370   73.4090  221.4300 C   0  0  0  0  0  0  0  0  0  0  0  0
  140.2080   72.3050  222.3580 C   0  0  0  0  0  0  0  0  0  0  0  0
  141.0820   71.4350  222.6220 O   0  0  0  0  0  0  0  0  0  0  0  0
  138.8900   72.2070  222.9240 N   0  0  0  0  0  0  0  0  0  0  0  0
  138.2050   72.9700  222.7180 H   0  0  0  0  0  0  0  0  0  0  0  0
  138.4590   71.1420  223.8360 C   0  0  2  0  0  0  0  0  0  0  0  0
  137.5874   71.4781  224.4168 H   0  0  0  0  0  0  0  0  0  0  0  0
  139.5360   70.8510  224.8690 C   0  0  0  0  0  0  0  0  0  0  0  0
  139.7000   69.5270  225.3150 C   0  0  0  0  0  0  0  0  0  0  0  0
  139.0706   68.7290  224.8942 H   0  0  0  0  0  0  0  0  0  0  0  0
  140.6540   69.2150  226.2870 C   0  0  0  0  0  0  0  0  0  0  0  0
  140.7789   68.1741  226.6201 H   0  0  0  0  0  0  0  0  0  0  0  0
  141.4490   70.2230  226.8360 C   0  0  0  0  0  0  0  0  0  0  0  0
  142.2006   69.9759  227.6003 H   0  0  0  0  0  0  0  0  0  0  0  0
  141.2900   71.5440  226.4150 C   0  0  0  0  0  0  0  0  0  0  0  0
  141.9153   72.3373  226.8505 H   0  0  0  0  0  0  0  0  0  0  0  0
  140.3390   71.8620  225.4420 C   0  0  0  0  0  0  0  0  0  0  0  0
  140.2148   72.9065  225.1201 H   0  0  0  0  0  0  0  0  0  0  0  0
  137.9650   69.9180  223.0510 C   0  0  0  0  0  0  0  0  0  0  0  0
  137.6486   69.1342  223.7549 H   0  0  0  0  0  0  0  0  0  0  0  0
  137.1134   70.2077  222.4179 H   0  0  0  0  0  0  0  0  0  0  0  0
  138.7791   69.5354  222.4179 H   0  0  0  0  0  0  0  0  0  0  0  0
  141.4900   73.1710  220.4390 C   0  0  0  0  0  0  0  0  0  0  0  0
  141.9322   72.1690  220.3366 H   0  0  0  0  0  0  0  0  0  0  0  0
  141.8870   74.1950  219.5760 C   0  0  0  0  0  0  0  0  0  0  0  0
  142.8550   73.9900  218.5730 C   0  0  0  0  0  0  0  0  0  0  0  0
  143.3770   72.8480  218.4350 O   0  0  0  0  0  0  0  0  0  0  0  0
  143.2290   75.0270  217.7510 N   0  0  0  0  0  0  0  0  0  0  0  0
  144.1730   74.8380  216.7730 C   0  0  0  0  0  0  0  0  0  0  0  0
  144.6331   73.8469  216.6464 H   0  0  0  0  0  0  0  0  0  0  0  0
  144.5570   75.8890  215.9360 C   0  0  0  0  0  0  0  0  0  0  0  0
  145.7640   75.6310  214.6900 Cl  0  0  0  0  0  0  0  0  0  0  0  0
  143.9770   77.1430  216.0990 C   0  0  0  0  0  0  0  0  0  0  0  0
  144.2755   77.9773  215.4471 H   0  0  0  0  0  0  0  0  0  0  0  0
  143.0170   77.3400  217.0900 C   0  0  0  0  0  0  0  0  0  0  0  0
  142.2910   78.9300  217.2850 Cl  0  0  0  0  0  0  0  0  0  0  0  0
  142.6490   76.2670  217.9160 C   0  0  0  0  0  0  0  0  0  0  0  0
  141.7150   76.4600  218.8800 N   0  0  0  0  0  0  0  0  0  0  0  0
  141.3140   75.4690  219.7180 C   0  0  0  0  0  0  0  0  0  0  0  0
  140.3610   75.7100  220.6820 N   0  0  0  0  0  0  0  0  0  0  0  0
  139.7990   77.0750  220.8320 C   0  0  0  0  0  0  0  0  0  0  0  0
  139.6482   77.5156  219.8354 H   0  0  0  0  0  0  0  0  0  0  0  0
  138.8401   77.0073  221.3667 H   0  0  0  0  0  0  0  0  0  0  0  0
  140.7370   77.9500  221.6240 C   0  0  0  0  0  0  0  0  0  0  0  0
  140.9790   77.6880  222.9840 C   0  0  0  0  0  0  0  0  0  0  0  0
  140.5009   76.8238  223.4682 H   0  0  0  0  0  0  0  0  0  0  0  0
  141.8240   78.5200  223.7240 C   0  0  0  0  0  0  0  0  0  0  0  0
  142.0097   78.3079  224.7873 H   0  0  0  0  0  0  0  0  0  0  0  0
  142.4330   79.6200  223.1160 C   0  0  0  0  0  0  0  0  0  0  0  0
  143.0966   80.2743  223.7004 H   0  0  0  0  0  0  0  0  0  0  0  0
  142.1990   79.8890  221.7650 C   0  0  0  0  0  0  0  0  0  0  0  0
  142.6804   80.7544  221.2860 H   0  0  0  0  0  0  0  0  0  0  0  0
  141.3540   79.0600  221.0210 C   0  0  0  0  0  0  0  0  0  0  0  0
  141.1710   79.2774  219.9583 H   0  0  0  0  0  0  0  0  0  0  0  0
  1  2  1  0
  2  3  2  0
  3  4  1  0
  4  5  1  0
  5  6  2  0
  5  7  1  0
  7  8  1  0
  7  9  1  0
  9 10  1  1
  9 11  1  0
 11 12  2  0
 12 13  1  0
 12 14  1  0
 14 15  1  0
 14 16  2  0
 16 17  1  0
 16 18  1  0
 18 19  1  0
 18 20  2  0
 20 21  1  0
  9 22  1  0
 22 23  1  0
 22 24  1  0
 22 25  1  0
  4 26  2  0
 26 27  1  0
 26 28  1  0
 28 29  1  0
 29 30  2  0
 29 31  1  0
 31 32  1  0
 32 33  1  0
 32 34  2  0
 34 35  1  0
 34 36  1  0
 36 37  1  0
 36 38  2  0
 38 39  1  0
 38 40  1  0
 40 41  2  0
 41 42  1  0
 42 43  1  0
 43 44  1  0
 44 45  1  0
 44 46  1  0
 44 47  1  0
 47 48  2  0
 48 49  1  0
 48 50  1  0
 50 51  1  0
 50 52  2  0
 52 53  1  0
 52 54  1  0
 54 55  1  0
 54 56  2  0
 56 57  1  0
 43  3  1  0
 56 47  1  0
 20 11  1  0
 42 28  2  0
 40 31  1  0
M  END
>  <UniqueID>  (46) 
98

>  <SMILES>  (46) 
[H]/N=c1\c(C(=O)N[C@@H](C)c2ccccc2)cc2c(=O)n3cc(Cl)cc(Cl)c3nc2n1Cc1ccccc1

>  <Energy>  (46) 
85.01490418129275

>  <Genealogy>  (46) 
[H]/N=c1\c(C(=O)N[C@@H](C)c2ccccc2)cc2c(=O)n3cc(Cl)cc(Cl)c3nc2n1Cc1ccccc1 (cis-trans isomerization)
[H]/N=c1\c(C(=O)N[C@@H](C)c2ccccc2)cc2c(=O)n3cc(Cl)cc(Cl)c3nc2n1Cc1ccccc1 (3D coordinates assigned)
[H]/N=c1\c(C(=O)N[C@@H](C)c2ccccc2)cc2c(=O)n3cc(Cl)cc(Cl)c3nc2n1Cc1ccccc1 (optimized conformer: 85.01490418129275 kcal/mol)

>  <smiles>  (46) 
C[C@H](NC(=O)c1cc2c(=O)n3cc(Cl)cc(Cl)c3nc2n(Cc2ccccc2)c1=N)c1ccccc1

>  <score_type>  (46) 
oracle

>  <origin>  (46) 
autodockgpu

>  <m_score__min__energy>  (46) 
-8.8900000000000006

>  <m_primary>  (46) 
energy

>  <meeko>  (46) 
{"free_energy": -8.77, "intermolecular_energy": -10.56, "internal_energy": -1.69, "cluster_size": 8, "cluster_id": 1, "rank_in_cluster": 4}

>  <energy>  (46) 
-8.66

>  <cluster_rmsd>  (46) 
0.16

>  <rmsd>  (46) 
269.68

>  <cluster>  (46) 
1

$$$$
AFKJZVLHPMIVAS-NUAMYCNZNA-N
     RDKit          3D

 57 61  0  0  0  0  0  0  0  0999 V2000
  142.4380   75.3050  221.5900 H   0  0  0  0  0  0  0  0  0  0  0  0
  141.8250   76.0030  221.1150 N   0  0  0  0  0  0  0  0  0  0  0  0
  140.6370   76.3580  221.5150 C   0  0  0  0  0  0  0  0  0  0  0  0
  139.7290   75.3910  222.0190 C   0  0  0  0  0  0  0  0  0  0  0  0
  140.0120   73.9390  222.0040 C   0  0  0  0  0  0  0  0  0  0  0  0
  141.1450   73.5310  221.6280 O   0  0  0  0  0  0  0  0  0  0  0  0
  138.9900   73.0010  222.3800 N   0  0  0  0  0  0  0  0  0  0  0  0
  138.0780   73.3770  222.7280 H   0  0  0  0  0  0  0  0  0  0  0  0
  139.1640   71.5450  222.3790 C   0  0  2  0  0  0  0  0  0  0  0  0
  138.1892   71.0526  222.2475 H   0  0  0  0  0  0  0  0  0  0  0  0
  139.6710   71.0630  223.7290 C   0  0  0  0  0  0  0  0  0  0  0  0
  139.0680   69.9320  224.3090 C   0  0  0  0  0  0  0  0  0  0  0  0
  138.2663   69.4059  223.7700 H   0  0  0  0  0  0  0  0  0  0  0  0
  139.4770   69.4700  225.5630 C   0  0  0  0  0  0  0  0  0  0  0  0
  139.0036   68.5791  226.0015 H   0  0  0  0  0  0  0  0  0  0  0  0
  140.4860   70.1380  226.2600 C   0  0  0  0  0  0  0  0  0  0  0  0
  140.8083   69.7725  227.2462 H   0  0  0  0  0  0  0  0  0  0  0  0
  141.0850   71.2690  225.7050 C   0  0  0  0  0  0  0  0  0  0  0  0
  141.8782   71.7953  226.2562 H   0  0  0  0  0  0  0  0  0  0  0  0
  140.6810   71.7360  224.4510 C   0  0  0  0  0  0  0  0  0  0  0  0
  141.1527   72.6333  224.0239 H   0  0  0  0  0  0  0  0  0  0  0  0
  140.0000   71.0960  221.1720 C   0  0  0  0  0  0  0  0  0  0  0  0
  140.9179   70.6030  221.5247 H   0  0  0  0  0  0  0  0  0  0  0  0
  139.4156   70.3904  220.5633 H   0  0  0  0  0  0  0  0  0  0  0  0
  140.2655   71.9729  220.5633 H   0  0  0  0  0  0  0  0  0  0  0  0
  138.4980   75.8150  222.5230 C   0  0  0  0  0  0  0  0  0  0  0  0
  137.7958   75.0777  222.9392 H   0  0  0  0  0  0  0  0  0  0  0  0
  138.1510   77.1670  222.5030 C   0  0  0  0  0  0  0  0  0  0  0  0
  136.9120   77.6250  222.9920 C   0  0  0  0  0  0  0  0  0  0  0  0
  136.0890   76.7970  223.4760 O   0  0  0  0  0  0  0  0  0  0  0  0
  136.6020   78.9630  222.9420 N   0  0  0  0  0  0  0  0  0  0  0  0
  135.3960   79.4190  223.4140 C   0  0  0  0  0  0  0  0  0  0  0  0
  134.6732   78.7053  223.8361 H   0  0  0  0  0  0  0  0  0  0  0  0
  135.0750   80.7780  223.3650 C   0  0  0  0  0  0  0  0  0  0  0  0
  133.5310   81.3440  223.9730 Cl  0  0  0  0  0  0  0  0  0  0  0  0
  135.9890   81.6800  222.8280 C   0  0  0  0  0  0  0  0  0  0  0  0
  135.7447   82.7516  222.7827 H   0  0  0  0  0  0  0  0  0  0  0  0
  137.2140   81.2220  222.3480 C   0  0  0  0  0  0  0  0  0  0  0  0
  138.3600   82.3720  221.6720 Cl  0  0  0  0  0  0  0  0  0  0  0  0
  137.5110   79.8520  222.4110 C   0  0  0  0  0  0  0  0  0  0  0  0
  138.7050   79.4080  221.9430 N   0  0  0  0  0  0  0  0  0  0  0  0
  139.0570   78.0970  221.9670 C   0  0  0  0  0  0  0  0  0  0  0  0
  140.2810   77.6910  221.4830 N   0  0  0  0  0  0  0  0  0  0  0  0
  141.2030   78.6910  220.8920 C   0  0  0  0  0  0  0  0  0  0  0  0
  142.0891   78.1750  220.4937 H   0  0  0  0  0  0  0  0  0  0  0  0
  140.6787   79.2239  220.0851 H   0  0  0  0  0  0  0  0  0  0  0  0
  141.6380   79.6910  221.9330 C   0  0  0  0  0  0  0  0  0  0  0  0
  142.2050   79.2580  223.1440 C   0  0  0  0  0  0  0  0  0  0  0  0
  142.3562   78.1833  223.3234 H   0  0  0  0  0  0  0  0  0  0  0  0
  142.5780   80.1850  224.1220 C   0  0  0  0  0  0  0  0  0  0  0  0
  143.0224   79.8382  225.0666 H   0  0  0  0  0  0  0  0  0  0  0  0
  142.3870   81.5510  223.9010 C   0  0  0  0  0  0  0  0  0  0  0  0
  142.6798   82.2792  224.6717 H   0  0  0  0  0  0  0  0  0  0  0  0
  141.8240   81.9920  222.7010 C   0  0  0  0  0  0  0  0  0  0  0  0
  141.6755   83.0679  222.5268 H   0  0  0  0  0  0  0  0  0  0  0  0
  141.4490   81.0680  221.7210 C   0  0  0  0  0  0  0  0  0  0  0  0
  141.0037   81.4203  220.7789 H   0  0  0  0  0  0  0  0  0  0  0  0
  1  2  1  0
  2  3  2  0
  3  4  1  0
  4  5  1  0
  5  6  2  0
  5  7  1  0
  7  8  1  0
  7  9  1  0
  9 10  1  6
  9 11  1  0
 11 12  2  0
 12 13  1  0
 12 14  1  0
 14 15  1  0
 14 16  2  0
 16 17  1  0
 16 18  1  0
 18 19  1  0
 18 20  2  0
 20 21  1  0
  9 22  1  0
 22 23  1  0
 22 24  1  0
 22 25  1  0
  4 26  2  0
 26 27  1  0
 26 28  1  0
 28 29  1  0
 29 30  2  0
 29 31  1  0
 31 32  1  0
 32 33  1  0
 32 34  2  0
 34 35  1  0
 34 36  1  0
 36 37  1  0
 36 38  2  0
 38 39  1  0
 38 40  1  0
 40 41  2  0
 41 42  1  0
 42 43  1  0
 43 44  1  0
 44 45  1  0
 44 46  1  0
 44 47  1  0
 47 48  2  0
 48 49  1  0
 48 50  1  0
 50 51  1  0
 50 52  2  0
 52 53  1  0
 52 54  1  0
 54 55  1  0
 54 56  2  0
 56 57  1  0
 43  3  1  0
 56 47  1  0
 20 11  1  0
 42 28  2  0
 40 31  1  0
M  END
>  <UniqueID>  (47) 
98

>  <SMILES>  (47) 
[H]/N=c1\c(C(=O)N[C@@H](C)c2ccccc2)cc2c(=O)n3cc(Cl)cc(Cl)c3nc2n1Cc1ccccc1

>  <Energy>  (47) 
85.01490418129275

>  <Genealogy>  (47) 
[H]/N=c1\c(C(=O)N[C@@H](C)c2ccccc2)cc2c(=O)n3cc(Cl)cc(Cl)c3nc2n1Cc1ccccc1 (cis-trans isomerization)
[H]/N=c1\c(C(=O)N[C@@H](C)c2ccccc2)cc2c(=O)n3cc(Cl)cc(Cl)c3nc2n1Cc1ccccc1 (3D coordinates assigned)
[H]/N=c1\c(C(=O)N[C@@H](C)c2ccccc2)cc2c(=O)n3cc(Cl)cc(Cl)c3nc2n1Cc1ccccc1 (optimized conformer: 85.01490418129275 kcal/mol)

>  <smiles>  (47) 
C[C@H](NC(=O)c1cc2c(=O)n3cc(Cl)cc(Cl)c3nc2n(Cc2ccccc2)c1=N)c1ccccc1

>  <score_type>  (47) 
oracle

>  <origin>  (47) 
autodockgpu

>  <m_score__min__energy>  (47) 
-8.8900000000000006

>  <m_primary>  (47) 
energy

>  <meeko>  (47) 
{"free_energy": -8.57, "intermolecular_energy": -10.36, "internal_energy": -1.71, "cluster_size": 3, "cluster_id": 3, "rank_in_cluster": 2}

>  <energy>  (47) 
-8.45

>  <cluster_rmsd>  (47) 
1.15

>  <rmsd>  (47) 
269.88

>  <cluster>  (47) 
1

$$$$
AFKJZVLHPMIVAS-NUAMYCNZNA-N
     RDKit          3D

 57 61  0  0  0  0  0  0  0  0999 V2000
  140.9800   70.0970  220.5810 H   0  0  0  0  0  0  0  0  0  0  0  0
  141.4980   71.0020  220.6090 N   0  0  0  0  0  0  0  0  0  0  0  0
  140.9880   72.1510  220.9510 C   0  0  0  0  0  0  0  0  0  0  0  0
  140.0200   72.2290  221.9860 C   0  0  0  0  0  0  0  0  0  0  0  0
  139.4440   71.0330  222.6390 C   0  0  0  0  0  0  0  0  0  0  0  0
  139.5940   69.9010  222.1030 O   0  0  0  0  0  0  0  0  0  0  0  0
  138.6880   71.1690  223.8540 N   0  0  0  0  0  0  0  0  0  0  0  0
  138.6220   72.1150  224.2920 H   0  0  0  0  0  0  0  0  0  0  0  0
  138.0600   70.0500  224.5650 C   0  0  2  0  0  0  0  0  0  0  0  0
  137.2596   70.4260  225.2192 H   0  0  0  0  0  0  0  0  0  0  0  0
  139.0560   69.3810  225.5000 C   0  0  0  0  0  0  0  0  0  0  0  0
  139.9260   70.1950  226.2490 C   0  0  0  0  0  0  0  0  0  0  0  0
  139.8539   71.2895  226.1657 H   0  0  0  0  0  0  0  0  0  0  0  0
  140.8800   69.6280  227.0970 C   0  0  0  0  0  0  0  0  0  0  0  0
  141.5479   70.2759  227.6837 H   0  0  0  0  0  0  0  0  0  0  0  0
  140.9870   68.2390  227.2010 C   0  0  0  0  0  0  0  0  0  0  0  0
  141.7373   67.7936  227.8709 H   0  0  0  0  0  0  0  0  0  0  0  0
  140.1420   67.4170  226.4550 C   0  0  0  0  0  0  0  0  0  0  0  0
  140.2295   66.3234  226.5356 H   0  0  0  0  0  0  0  0  0  0  0  0
  139.1840   67.9790  225.6050 C   0  0  0  0  0  0  0  0  0  0  0  0
  138.5261   67.3244  225.0145 H   0  0  0  0  0  0  0  0  0  0  0  0
  137.3560   69.1040  223.5820 C   0  0  0  0  0  0  0  0  0  0  0  0
  136.7914   68.3453  224.1438 H   0  0  0  0  0  0  0  0  0  0  0  0
  136.6656   69.6806  222.9489 H   0  0  0  0  0  0  0  0  0  0  0  0
  138.1066   68.6082  222.9489 H   0  0  0  0  0  0  0  0  0  0  0  0
  139.5600   73.4830  222.3900 C   0  0  0  0  0  0  0  0  0  0  0  0
  138.8280   73.5578  223.2077 H   0  0  0  0  0  0  0  0  0  0  0  0
  140.0210   74.6440  221.7650 C   0  0  0  0  0  0  0  0  0  0  0  0
  139.5680   75.9230  222.1420 C   0  0  0  0  0  0  0  0  0  0  0  0
  138.7280   76.0350  223.0800 O   0  0  0  0  0  0  0  0  0  0  0  0
  140.0350   77.0410  221.4930 N   0  0  0  0  0  0  0  0  0  0  0  0
  139.5970   78.2920  221.8510 C   0  0  0  0  0  0  0  0  0  0  0  0
  138.8657   78.3986  222.6658 H   0  0  0  0  0  0  0  0  0  0  0  0
  140.0680   79.4310  221.1940 C   0  0  0  0  0  0  0  0  0  0  0  0
  139.5000   81.0220  221.6640 Cl  0  0  0  0  0  0  0  0  0  0  0  0
  140.9920   79.2950  220.1610 C   0  0  0  0  0  0  0  0  0  0  0  0
  141.3670   80.1857  219.6356 H   0  0  0  0  0  0  0  0  0  0  0  0
  141.4400   78.0280  219.7950 C   0  0  0  0  0  0  0  0  0  0  0  0
  142.6070   77.8690  218.4880 Cl  0  0  0  0  0  0  0  0  0  0  0  0
  140.9500   76.9000  220.4720 C   0  0  0  0  0  0  0  0  0  0  0  0
  141.3880   75.6670  220.1140 N   0  0  0  0  0  0  0  0  0  0  0  0
  140.9540   74.5330  220.7220 C   0  0  0  0  0  0  0  0  0  0  0  0
  141.4270   73.3010  220.3260 N   0  0  0  0  0  0  0  0  0  0  0  0
  142.3860   73.2120  219.1980 C   0  0  0  0  0  0  0  0  0  0  0  0
  142.2384   72.2572  218.6721 H   0  0  0  0  0  0  0  0  0  0  0  0
  142.2082   74.0541  218.5130 H   0  0  0  0  0  0  0  0  0  0  0  0
  143.8050   73.2860  219.7030 C   0  0  0  0  0  0  0  0  0  0  0  0
  144.6660   72.1820  219.5700 C   0  0  0  0  0  0  0  0  0  0  0  0
  144.3107   71.2676  219.0724 H   0  0  0  0  0  0  0  0  0  0  0  0
  145.9710   72.2410  220.0670 C   0  0  0  0  0  0  0  0  0  0  0  0
  146.6394   71.3741  219.9584 H   0  0  0  0  0  0  0  0  0  0  0  0
  146.4280   73.3980  220.7010 C   0  0  0  0  0  0  0  0  0  0  0  0
  147.4551   73.4419  221.0924 H   0  0  0  0  0  0  0  0  0  0  0  0
  145.5800   74.5000  220.8380 C   0  0  0  0  0  0  0  0  0  0  0  0
  145.9409   75.4118  221.3364 H   0  0  0  0  0  0  0  0  0  0  0  0
  144.2740   74.4460  220.3430 C   0  0  0  0  0  0  0  0  0  0  0  0
  143.6099   75.3158  220.4549 H   0  0  0  0  0  0  0  0  0  0  0  0
  1  2  1  0
  2  3  2  0
  3  4  1  0
  4  5  1  0
  5  6  2  0
  5  7  1  0
  7  8  1  0
  7  9  1  0
  9 10  1  1
  9 11  1  0
 11 12  2  0
 12 13  1  0
 12 14  1  0
 14 15  1  0
 14 16  2  0
 16 17  1  0
 16 18  1  0
 18 19  1  0
 18 20  2  0
 20 21  1  0
  9 22  1  0
 22 23  1  0
 22 24  1  0
 22 25  1  0
  4 26  2  0
 26 27  1  0
 26 28  1  0
 28 29  1  0
 29 30  2  0
 29 31  1  0
 31 32  1  0
 32 33  1  0
 32 34  2  0
 34 35  1  0
 34 36  1  0
 36 37  1  0
 36 38  2  0
 38 39  1  0
 38 40  1  0
 40 41  2  0
 41 42  1  0
 42 43  1  0
 43 44  1  0
 44 45  1  0
 44 46  1  0
 44 47  1  0
 47 48  2  0
 48 49  1  0
 48 50  1  0
 50 51  1  0
 50 52  2  0
 52 53  1  0
 52 54  1  0
 54 55  1  0
 54 56  2  0
 56 57  1  0
 43  3  1  0
 56 47  1  0
 20 11  1  0
 42 28  2  0
 40 31  1  0
M  END
>  <UniqueID>  (48) 
98

>  <SMILES>  (48) 
[H]/N=c1\c(C(=O)N[C@@H](C)c2ccccc2)cc2c(=O)n3cc(Cl)cc(Cl)c3nc2n1Cc1ccccc1

>  <Energy>  (48) 
85.01490418129275

>  <Genealogy>  (48) 
[H]/N=c1\c(C(=O)N[C@@H](C)c2ccccc2)cc2c(=O)n3cc(Cl)cc(Cl)c3nc2n1Cc1ccccc1 (cis-trans isomerization)
[H]/N=c1\c(C(=O)N[C@@H](C)c2ccccc2)cc2c(=O)n3cc(Cl)cc(Cl)c3nc2n1Cc1ccccc1 (3D coordinates assigned)
[H]/N=c1\c(C(=O)N[C@@H](C)c2ccccc2)cc2c(=O)n3cc(Cl)cc(Cl)c3nc2n1Cc1ccccc1 (optimized conformer: 85.01490418129275 kcal/mol)

>  <smiles>  (48) 
C[C@H](NC(=O)c1cc2c(=O)n3cc(Cl)cc(Cl)c3nc2n(Cc2ccccc2)c1=N)c1ccccc1

>  <score_type>  (48) 
oracle

>  <origin>  (48) 
autodockgpu

>  <m_score__min__energy>  (48) 
-8.8900000000000006

>  <m_primary>  (48) 
energy

>  <meeko>  (48) 
{"free_energy": -8.73, "intermolecular_energy": -10.52, "internal_energy": -1.71, "cluster_size": 9, "cluster_id": 2, "rank_in_cluster": 2}

>  <energy>  (48) 
-8.41

>  <cluster_rmsd>  (48) 
1.15

>  <rmsd>  (48) 
269.87

>  <cluster>  (48) 
1

$$$$
AFKJZVLHPMIVAS-NUAMYCNZNA-N
     RDKit          3D

 57 61  0  0  0  0  0  0  0  0999 V2000
  137.6090   74.6390  223.0920 H   0  0  0  0  0  0  0  0  0  0  0  0
  138.1430   75.2300  222.4180 N   0  0  0  0  0  0  0  0  0  0  0  0
  139.1510   74.8280  221.6990 C   0  0  0  0  0  0  0  0  0  0  0  0
  139.5670   73.4720  221.7360 C   0  0  0  0  0  0  0  0  0  0  0  0
  138.9860   72.4800  222.6660 C   0  0  0  0  0  0  0  0  0  0  0  0
  137.7370   72.4490  222.8400 O   0  0  0  0  0  0  0  0  0  0  0  0
  139.8440   71.5840  223.3930 N   0  0  0  0  0  0  0  0  0  0  0  0
  140.8700   71.6090  223.1920 H   0  0  0  0  0  0  0  0  0  0  0  0
  139.3680   70.5810  224.3520 C   0  0  2  0  0  0  0  0  0  0  0  0
  138.2876   70.7053  224.5173 H   0  0  0  0  0  0  0  0  0  0  0  0
  140.0050   70.7970  225.7160 C   0  0  0  0  0  0  0  0  0  0  0  0
  139.6740   69.9130  226.7600 C   0  0  0  0  0  0  0  0  0  0  0  0
  138.9884   69.0748  226.5667 H   0  0  0  0  0  0  0  0  0  0  0  0
  140.2070   70.0890  228.0390 C   0  0  0  0  0  0  0  0  0  0  0  0
  139.9471   69.3858  228.8440 H   0  0  0  0  0  0  0  0  0  0  0  0
  141.0690   71.1560  228.2970 C   0  0  0  0  0  0  0  0  0  0  0  0
  141.4897   71.2922  229.3042 H   0  0  0  0  0  0  0  0  0  0  0  0
  141.3970   72.0500  227.2770 C   0  0  0  0  0  0  0  0  0  0  0  0
  142.0740   72.8921  227.4830 H   0  0  0  0  0  0  0  0  0  0  0  0
  140.8680   71.8790  225.9940 C   0  0  0  0  0  0  0  0  0  0  0  0
  141.1258   72.5917  225.1967 H   0  0  0  0  0  0  0  0  0  0  0  0
  139.5220   69.1630  223.7800 C   0  0  0  0  0  0  0  0  0  0  0  0
  139.6004   68.4409  224.6061 H   0  0  0  0  0  0  0  0  0  0  0  0
  138.6450   68.9196  223.1622 H   0  0  0  0  0  0  0  0  0  0  0  0
  140.4308   69.1135  223.1622 H   0  0  0  0  0  0  0  0  0  0  0  0
  140.5930   73.0540  220.8870 C   0  0  0  0  0  0  0  0  0  0  0  0
  140.9080   72.0001  220.8897 H   0  0  0  0  0  0  0  0  0  0  0  0
  141.2230   73.9630  220.0340 C   0  0  0  0  0  0  0  0  0  0  0  0
  142.2680   73.5750  219.1730 C   0  0  0  0  0  0  0  0  0  0  0  0
  142.6470   72.3700  219.1580 O   0  0  0  0  0  0  0  0  0  0  0  0
  142.8720   74.5020  218.3580 N   0  0  0  0  0  0  0  0  0  0  0  0
  143.8940   74.1350  217.5170 C   0  0  0  0  0  0  0  0  0  0  0  0
  144.2301   73.0878  217.4964 H   0  0  0  0  0  0  0  0  0  0  0  0
  144.5120   75.0730  216.6880 C   0  0  0  0  0  0  0  0  0  0  0  0
  145.8150   74.5870  215.6190 Cl  0  0  0  0  0  0  0  0  0  0  0  0
  144.0870   76.3980  216.7150 C   0  0  0  0  0  0  0  0  0  0  0  0
  144.5682   77.1449  216.0665 H   0  0  0  0  0  0  0  0  0  0  0  0
  143.0500   76.7760  217.5660 C   0  0  0  0  0  0  0  0  0  0  0  0
  142.5230   78.4540  217.5910 Cl  0  0  0  0  0  0  0  0  0  0  0  0
  142.4470   75.8130  218.3880 C   0  0  0  0  0  0  0  0  0  0  0  0
  141.4380   76.1830  219.2160 N   0  0  0  0  0  0  0  0  0  0  0  0
  140.8110   75.3050  220.0420 C   0  0  0  0  0  0  0  0  0  0  0  0
  139.7890   75.7250  220.8640 N   0  0  0  0  0  0  0  0  0  0  0  0
  139.3990   77.1560  220.8770 C   0  0  0  0  0  0  0  0  0  0  0  0
  139.2909   77.5108  219.8414 H   0  0  0  0  0  0  0  0  0  0  0  0
  138.4455   77.2592  221.4156 H   0  0  0  0  0  0  0  0  0  0  0  0
  140.4460   77.9840  221.5780 C   0  0  0  0  0  0  0  0  0  0  0  0
  141.0760   79.0490  220.9110 C   0  0  0  0  0  0  0  0  0  0  0  0
  140.7866   79.2958  219.8788 H   0  0  0  0  0  0  0  0  0  0  0  0
  142.0680   79.7960  221.5520 C   0  0  0  0  0  0  0  0  0  0  0  0
  142.5551   80.6293  221.0244 H   0  0  0  0  0  0  0  0  0  0  0  0
  142.4420   79.4860  222.8620 C   0  0  0  0  0  0  0  0  0  0  0  0
  143.2245   80.0735  223.3645 H   0  0  0  0  0  0  0  0  0  0  0  0
  141.8220   78.4300  223.5330 C   0  0  0  0  0  0  0  0  0  0  0  0
  142.1156   78.1877  224.5651 H   0  0  0  0  0  0  0  0  0  0  0  0
  140.8290   77.6800  222.8960 C   0  0  0  0  0  0  0  0  0  0  0  0
  140.3450   76.8481  223.4286 H   0  0  0  0  0  0  0  0  0  0  0  0
  1  2  1  0
  2  3  2  0
  3  4  1  0
  4  5  1  0
  5  6  2  0
  5  7  1  0
  7  8  1  0
  7  9  1  0
  9 10  1  1
  9 11  1  0
 11 12  2  0
 12 13  1  0
 12 14  1  0
 14 15  1  0
 14 16  2  0
 16 17  1  0
 16 18  1  0
 18 19  1  0
 18 20  2  0
 20 21  1  0
  9 22  1  0
 22 23  1  0
 22 24  1  0
 22 25  1  0
  4 26  2  0
 26 27  1  0
 26 28  1  0
 28 29  1  0
 29 30  2  0
 29 31  1  0
 31 32  1  0
 32 33  1  0
 32 34  2  0
 34 35  1  0
 34 36  1  0
 36 37  1  0
 36 38  2  0
 38 39  1  0
 38 40  1  0
 40 41  2  0
 41 42  1  0
 42 43  1  0
 43 44  1  0
 44 45  1  0
 44 46  1  0
 44 47  1  0
 47 48  2  0
 48 49  1  0
 48 50  1  0
 50 51  1  0
 50 52  2  0
 52 53  1  0
 52 54  1  0
 54 55  1  0
 54 56  2  0
 56 57  1  0
 43  3  1  0
 56 47  1  0
 20 11  1  0
 42 28  2  0
 40 31  1  0
M  END
>  <UniqueID>  (49) 
98

>  <SMILES>  (49) 
[H]/N=c1\c(C(=O)N[C@@H](C)c2ccccc2)cc2c(=O)n3cc(Cl)cc(Cl)c3nc2n1Cc1ccccc1

>  <Energy>  (49) 
85.01490418129275

>  <Genealogy>  (49) 
[H]/N=c1\c(C(=O)N[C@@H](C)c2ccccc2)cc2c(=O)n3cc(Cl)cc(Cl)c3nc2n1Cc1ccccc1 (cis-trans isomerization)
[H]/N=c1\c(C(=O)N[C@@H](C)c2ccccc2)cc2c(=O)n3cc(Cl)cc(Cl)c3nc2n1Cc1ccccc1 (3D coordinates assigned)
[H]/N=c1\c(C(=O)N[C@@H](C)c2ccccc2)cc2c(=O)n3cc(Cl)cc(Cl)c3nc2n1Cc1ccccc1 (optimized conformer: 85.01490418129275 kcal/mol)

>  <smiles>  (49) 
C[C@H](NC(=O)c1cc2c(=O)n3cc(Cl)cc(Cl)c3nc2n(Cc2ccccc2)c1=N)c1ccccc1

>  <score_type>  (49) 
oracle

>  <origin>  (49) 
autodockgpu

>  <m_score__min__energy>  (49) 
-8.8900000000000006

>  <m_primary>  (49) 
energy

>  <meeko>  (49) 
{"free_energy": -8.41, "intermolecular_energy": -10.2, "internal_energy": -1.85, "cluster_size": 8, "cluster_id": 1, "rank_in_cluster": 8}

>  <energy>  (49) 
-8.75

>  <cluster_rmsd>  (49) 
0.0

>  <rmsd>  (49) 
269.88

>  <cluster>  (49) 
2

$$$$
AFKJZVLHPMIVAS-NUAMYCNZNA-N
     RDKit          3D

 57 61  0  0  0  0  0  0  0  0999 V2000
  137.6140   74.5510  223.0280 H   0  0  0  0  0  0  0  0  0  0  0  0
  138.1880   75.1620  222.4070 N   0  0  0  0  0  0  0  0  0  0  0  0
  139.1950   74.7650  221.6830 C   0  0  0  0  0  0  0  0  0  0  0  0
  139.6080   73.4070  221.7060 C   0  0  0  0  0  0  0  0  0  0  0  0
  139.0240   72.4060  222.6260 C   0  0  0  0  0  0  0  0  0  0  0  0
  137.7710   72.3090  222.7230 O   0  0  0  0  0  0  0  0  0  0  0  0
  139.8830   71.5790  223.4290 N   0  0  0  0  0  0  0  0  0  0  0  0
  140.9160   71.6570  223.2910 H   0  0  0  0  0  0  0  0  0  0  0  0
  139.4030   70.5740  224.3850 C   0  0  2  0  0  0  0  0  0  0  0  0
  138.3312   70.7260  224.5804 H   0  0  0  0  0  0  0  0  0  0  0  0
  140.0810   70.7500  225.7350 C   0  0  0  0  0  0  0  0  0  0  0  0
  139.8860   69.7640  226.7190 C   0  0  0  0  0  0  0  0  0  0  0  0
  139.2745   68.8791  226.4886 H   0  0  0  0  0  0  0  0  0  0  0  0
  140.4600   69.8960  227.9850 C   0  0  0  0  0  0  0  0  0  0  0  0
  140.3064   69.1130  228.7422 H   0  0  0  0  0  0  0  0  0  0  0  0
  141.2290   71.0210  228.2910 C   0  0  0  0  0  0  0  0  0  0  0  0
  141.6830   71.1229  229.2877 H   0  0  0  0  0  0  0  0  0  0  0  0
  141.4210   72.0160  227.3310 C   0  0  0  0  0  0  0  0  0  0  0  0
  142.0234   72.9036  227.5743 H   0  0  0  0  0  0  0  0  0  0  0  0
  140.8500   71.8880  226.0610 C   0  0  0  0  0  0  0  0  0  0  0  0
  141.0010   72.6788  225.3115 H   0  0  0  0  0  0  0  0  0  0  0  0
  139.5010   69.1630  223.7880 C   0  0  0  0  0  0  0  0  0  0  0  0
  139.5524   68.4237  224.6009 H   0  0  0  0  0  0  0  0  0  0  0  0
  138.6145   68.9649  223.1677 H   0  0  0  0  0  0  0  0  0  0  0  0
  140.4064   69.0894  223.1677 H   0  0  0  0  0  0  0  0  0  0  0  0
  140.6320   72.9950  220.8520 C   0  0  0  0  0  0  0  0  0  0  0  0
  140.9445   71.9403  220.8437 H   0  0  0  0  0  0  0  0  0  0  0  0
  141.2630   73.9110  220.0080 C   0  0  0  0  0  0  0  0  0  0  0  0
  142.3070   73.5300  219.1420 C   0  0  0  0  0  0  0  0  0  0  0  0
  142.6830   72.3230  219.1140 O   0  0  0  0  0  0  0  0  0  0  0  0
  142.9130   74.4630  218.3360 N   0  0  0  0  0  0  0  0  0  0  0  0
  143.9330   74.1020  217.4910 C   0  0  0  0  0  0  0  0  0  0  0  0
  144.2664   73.0542  217.4595 H   0  0  0  0  0  0  0  0  0  0  0  0
  144.5530   75.0470  216.6710 C   0  0  0  0  0  0  0  0  0  0  0  0
  145.8540   74.5690  215.5970 Cl  0  0  0  0  0  0  0  0  0  0  0  0
  144.1320   76.3730  216.7130 C   0  0  0  0  0  0  0  0  0  0  0  0
  144.6157   77.1256  216.0730 H   0  0  0  0  0  0  0  0  0  0  0  0
  143.0960   76.7450  217.5680 C   0  0  0  0  0  0  0  0  0  0  0  0
  142.5740   78.4240  217.6110 Cl  0  0  0  0  0  0  0  0  0  0  0  0
  142.4910   75.7750  218.3800 C   0  0  0  0  0  0  0  0  0  0  0  0
  141.4830   76.1390  219.2120 N   0  0  0  0  0  0  0  0  0  0  0  0
  140.8550   75.2540  220.0300 C   0  0  0  0  0  0  0  0  0  0  0  0
  139.8350   75.6680  220.8570 N   0  0  0  0  0  0  0  0  0  0  0  0
  139.4480   77.1000  220.8840 C   0  0  0  0  0  0  0  0  0  0  0  0
  139.3461   77.4669  219.8520 H   0  0  0  0  0  0  0  0  0  0  0  0
  138.4917   77.1998  221.4184 H   0  0  0  0  0  0  0  0  0  0  0  0
  140.4940   77.9170  221.6000 C   0  0  0  0  0  0  0  0  0  0  0  0
  141.1640   78.9570  220.9330 C   0  0  0  0  0  0  0  0  0  0  0  0
  140.9065   79.1932  219.8900 H   0  0  0  0  0  0  0  0  0  0  0  0
  142.1560   79.6930  221.5880 C   0  0  0  0  0  0  0  0  0  0  0  0
  142.6756   80.5061  221.0600 H   0  0  0  0  0  0  0  0  0  0  0  0
  142.4880   79.3970  222.9120 C   0  0  0  0  0  0  0  0  0  0  0  0
  143.2699   79.9757  223.4256 H   0  0  0  0  0  0  0  0  0  0  0  0
  141.8270   78.3660  223.5840 C   0  0  0  0  0  0  0  0  0  0  0  0
  142.0868   78.1355  224.6277 H   0  0  0  0  0  0  0  0  0  0  0  0
  140.8360   77.6270  222.9320 C   0  0  0  0  0  0  0  0  0  0  0  0
  140.3208   76.8138  223.4643 H   0  0  0  0  0  0  0  0  0  0  0  0
  1  2  1  0
  2  3  2  0
  3  4  1  0
  4  5  1  0
  5  6  2  0
  5  7  1  0
  7  8  1  0
  7  9  1  0
  9 10  1  1
  9 11  1  0
 11 12  2  0
 12 13  1  0
 12 14  1  0
 14 15  1  0
 14 16  2  0
 16 17  1  0
 16 18  1  0
 18 19  1  0
 18 20  2  0
 20 21  1  0
  9 22  1  0
 22 23  1  0
 22 24  1  0
 22 25  1  0
  4 26  2  0
 26 27  1  0
 26 28  1  0
 28 29  1  0
 29 30  2  0
 29 31  1  0
 31 32  1  0
 32 33  1  0
 32 34  2  0
 34 35  1  0
 34 36  1  0
 36 37  1  0
 36 38  2  0
 38 39  1  0
 38 40  1  0
 40 41  2  0
 41 42  1  0
 42 43  1  0
 43 44  1  0
 44 45  1  0
 44 46  1  0
 44 47  1  0
 47 48  2  0
 48 49  1  0
 48 50  1  0
 50 51  1  0
 50 52  2  0
 52 53  1  0
 52 54  1  0
 54 55  1  0
 54 56  2  0
 56 57  1  0
 43  3  1  0
 56 47  1  0
 20 11  1  0
 42 28  2  0
 40 31  1  0
M  END
>  <UniqueID>  (50) 
98

>  <SMILES>  (50) 
[H]/N=c1\c(C(=O)N[C@@H](C)c2ccccc2)cc2c(=O)n3cc(Cl)cc(Cl)c3nc2n1Cc1ccccc1

>  <Energy>  (50) 
85.01490418129275

>  <Genealogy>  (50) 
[H]/N=c1\c(C(=O)N[C@@H](C)c2ccccc2)cc2c(=O)n3cc(Cl)cc(Cl)c3nc2n1Cc1ccccc1 (cis-trans isomerization)
[H]/N=c1\c(C(=O)N[C@@H](C)c2ccccc2)cc2c(=O)n3cc(Cl)cc(Cl)c3nc2n1Cc1ccccc1 (3D coordinates assigned)
[H]/N=c1\c(C(=O)N[C@@H](C)c2ccccc2)cc2c(=O)n3cc(Cl)cc(Cl)c3nc2n1Cc1ccccc1 (optimized conformer: 85.01490418129275 kcal/mol)

>  <smiles>  (50) 
C[C@H](NC(=O)c1cc2c(=O)n3cc(Cl)cc(Cl)c3nc2n(Cc2ccccc2)c1=N)c1ccccc1

>  <score_type>  (50) 
oracle

>  <origin>  (50) 
autodockgpu

>  <m_score__min__energy>  (50) 
-8.8900000000000006

>  <m_primary>  (50) 
energy

>  <meeko>  (50) 
{"free_energy": -8.45, "intermolecular_energy": -10.24, "internal_energy": -1.78, "cluster_size": 8, "cluster_id": 1, "rank_in_cluster": 7}

>  <energy>  (50) 
-8.73

>  <cluster_rmsd>  (50) 
0.09

>  <rmsd>  (50) 
269.88

>  <cluster>  (50) 
2

$$$$
AFKJZVLHPMIVAS-NUAMYCNZNA-N
     RDKit          3D

 57 61  0  0  0  0  0  0  0  0999 V2000
  138.2640   74.1860  222.7330 H   0  0  0  0  0  0  0  0  0  0  0  0
  139.1380   74.7510  222.6540 N   0  0  0  0  0  0  0  0  0  0  0  0
  140.0460   74.6090  221.7310 C   0  0  0  0  0  0  0  0  0  0  0  0
  140.6910   73.3590  221.5430 C   0  0  0  0  0  0  0  0  0  0  0  0
  140.4790   72.2030  222.4410 C   0  0  0  0  0  0  0  0  0  0  0  0
  141.4180   71.3810  222.6270 O   0  0  0  0  0  0  0  0  0  0  0  0
  139.2000   72.0000  223.0650 N   0  0  0  0  0  0  0  0  0  0  0  0
  138.4600   72.7240  222.9230 H   0  0  0  0  0  0  0  0  0  0  0  0
  138.8840   70.8760  223.9540 C   0  0  2  0  0  0  0  0  0  0  0  0
  137.8354   70.9414  224.2797 H   0  0  0  0  0  0  0  0  0  0  0  0
  139.7010   70.9560  225.2340 C   0  0  0  0  0  0  0  0  0  0  0  0
  139.3960   70.0690  226.2820 C   0  0  0  0  0  0  0  0  0  0  0  0
  138.5985   69.3232  226.1489 H   0  0  0  0  0  0  0  0  0  0  0  0
  140.0950   70.1250  227.4900 C   0  0  0  0  0  0  0  0  0  0  0  0
  139.8519   69.4201  228.2987 H   0  0  0  0  0  0  0  0  0  0  0  0
  141.1020   71.0750  227.6720 C   0  0  0  0  0  0  0  0  0  0  0  0
  141.6540   71.1166  228.6226 H   0  0  0  0  0  0  0  0  0  0  0  0
  141.4080   71.9720  226.6470 C   0  0  0  0  0  0  0  0  0  0  0  0
  142.1993   72.7220  226.7929 H   0  0  0  0  0  0  0  0  0  0  0  0
  140.7120   71.9200  225.4360 C   0  0  0  0  0  0  0  0  0  0  0  0
  140.9536   72.6347  224.6355 H   0  0  0  0  0  0  0  0  0  0  0  0
  138.9830   69.5410  223.2020 C   0  0  0  0  0  0  0  0  0  0  0  0
  139.0442   68.7157  223.9266 H   0  0  0  0  0  0  0  0  0  0  0  0
  138.0922   69.4090  222.5703 H   0  0  0  0  0  0  0  0  0  0  0  0
  139.8835   69.5419  222.5703 H   0  0  0  0  0  0  0  0  0  0  0  0
  141.5930   73.2140  220.4880 C   0  0  0  0  0  0  0  0  0  0  0  0
  142.0812   72.2432  220.3175 H   0  0  0  0  0  0  0  0  0  0  0  0
  141.8810   74.2910  219.6470 C   0  0  0  0  0  0  0  0  0  0  0  0
  142.7950   74.1810  218.5810 C   0  0  0  0  0  0  0  0  0  0  0  0
  143.3680   73.0750  218.3650 O   0  0  0  0  0  0  0  0  0  0  0  0
  143.0620   75.2680  217.7840 N   0  0  0  0  0  0  0  0  0  0  0  0
  143.9540   75.1710  216.7440 C   0  0  0  0  0  0  0  0  0  0  0  0
  144.4580   74.2130  216.5484 H   0  0  0  0  0  0  0  0  0  0  0  0
  144.2290   76.2730  215.9320 C   0  0  0  0  0  0  0  0  0  0  0  0
  145.3700   76.1320  214.6070 Cl  0  0  0  0  0  0  0  0  0  0  0  0
  143.5940   77.4860  216.1820 C   0  0  0  0  0  0  0  0  0  0  0  0
  143.8069   78.3607  215.5499 H   0  0  0  0  0  0  0  0  0  0  0  0
  142.6880   77.5890  217.2350 C   0  0  0  0  0  0  0  0  0  0  0  0
  141.8910   79.1280  217.5400 Cl  0  0  0  0  0  0  0  0  0  0  0  0
  142.4290   76.4660  218.0350 C   0  0  0  0  0  0  0  0  0  0  0  0
  141.5470   76.5690  219.0600 N   0  0  0  0  0  0  0  0  0  0  0  0
  141.2510   75.5240  219.8780 C   0  0  0  0  0  0  0  0  0  0  0  0
  140.3470   75.6740  220.9060 N   0  0  0  0  0  0  0  0  0  0  0  0
  139.7230   76.9980  221.1470 C   0  0  0  0  0  0  0  0  0  0  0  0
  139.3698   77.4110  220.1906 H   0  0  0  0  0  0  0  0  0  0  0  0
  138.8789   76.8720  221.8410 H   0  0  0  0  0  0  0  0  0  0  0  0
  140.7200   77.9490  221.7600 C   0  0  0  0  0  0  0  0  0  0  0  0
  141.2570   79.0040  221.0020 C   0  0  0  0  0  0  0  0  0  0  0  0
  140.9301   79.1520  219.9622 H   0  0  0  0  0  0  0  0  0  0  0  0
  142.2040   79.8660  221.5620 C   0  0  0  0  0  0  0  0  0  0  0  0
  142.6183   80.6904  220.9631 H   0  0  0  0  0  0  0  0  0  0  0  0
  142.6250   79.6820  222.8810 C   0  0  0  0  0  0  0  0  0  0  0  0
  143.3718   80.3600  223.3199 H   0  0  0  0  0  0  0  0  0  0  0  0
  142.0970   78.6360  223.6430 C   0  0  0  0  0  0  0  0  0  0  0  0
  142.4272   78.4926  224.6824 H   0  0  0  0  0  0  0  0  0  0  0  0
  141.1500   77.7720  223.0860 C   0  0  0  0  0  0  0  0  0  0  0  0
  140.7390   76.9489  223.6890 H   0  0  0  0  0  0  0  0  0  0  0  0
  1  2  1  0
  2  3  2  0
  3  4  1  0
  4  5  1  0
  5  6  2  0
  5  7  1  0
  7  8  1  0
  7  9  1  0
  9 10  1  1
  9 11  1  0
 11 12  2  0
 12 13  1  0
 12 14  1  0
 14 15  1  0
 14 16  2  0
 16 17  1  0
 16 18  1  0
 18 19  1  0
 18 20  2  0
 20 21  1  0
  9 22  1  0
 22 23  1  0
 22 24  1  0
 22 25  1  0
  4 26  2  0
 26 27  1  0
 26 28  1  0
 28 29  1  0
 29 30  2  0
 29 31  1  0
 31 32  1  0
 32 33  1  0
 32 34  2  0
 34 35  1  0
 34 36  1  0
 36 37  1  0
 36 38  2  0
 38 39  1  0
 38 40  1  0
 40 41  2  0
 41 42  1  0
 42 43  1  0
 43 44  1  0
 44 45  1  0
 44 46  1  0
 44 47  1  0
 47 48  2  0
 48 49  1  0
 48 50  1  0
 50 51  1  0
 50 52  2  0
 52 53  1  0
 52 54  1  0
 54 55  1  0
 54 56  2  0
 56 57  1  0
 43  3  1  0
 56 47  1  0
 20 11  1  0
 42 28  2  0
 40 31  1  0
M  END
>  <UniqueID>  (51) 
98

>  <SMILES>  (51) 
[H]/N=c1\c(C(=O)N[C@@H](C)c2ccccc2)cc2c(=O)n3cc(Cl)cc(Cl)c3nc2n1Cc1ccccc1

>  <Energy>  (51) 
85.01490418129275

>  <Genealogy>  (51) 
[H]/N=c1\c(C(=O)N[C@@H](C)c2ccccc2)cc2c(=O)n3cc(Cl)cc(Cl)c3nc2n1Cc1ccccc1 (cis-trans isomerization)
[H]/N=c1\c(C(=O)N[C@@H](C)c2ccccc2)cc2c(=O)n3cc(Cl)cc(Cl)c3nc2n1Cc1ccccc1 (3D coordinates assigned)
[H]/N=c1\c(C(=O)N[C@@H](C)c2ccccc2)cc2c(=O)n3cc(Cl)cc(Cl)c3nc2n1Cc1ccccc1 (optimized conformer: 85.01490418129275 kcal/mol)

>  <smiles>  (51) 
C[C@H](NC(=O)c1cc2c(=O)n3cc(Cl)cc(Cl)c3nc2n(Cc2ccccc2)c1=N)c1ccccc1

>  <score_type>  (51) 
oracle

>  <origin>  (51) 
autodockgpu

>  <m_score__min__energy>  (51) 
-8.8900000000000006

>  <m_primary>  (51) 
energy

>  <meeko>  (51) 
{"free_energy": -8.82, "intermolecular_energy": -10.61, "internal_energy": -1.76, "cluster_size": 8, "cluster_id": 1, "rank_in_cluster": 2}

>  <energy>  (51) 
-8.72

>  <cluster_rmsd>  (51) 
0.1

>  <rmsd>  (51) 
269.88

>  <cluster>  (51) 
2

$$$$
AFKJZVLHPMIVAS-NUAMYCNZNA-N
     RDKit          3D

 57 61  0  0  0  0  0  0  0  0999 V2000
  139.1830   74.8840  223.3940 H   0  0  0  0  0  0  0  0  0  0  0  0
  139.0130   74.6860  222.3840 N   0  0  0  0  0  0  0  0  0  0  0  0
  139.9380   74.5520  221.4770 C   0  0  0  0  0  0  0  0  0  0  0  0
  140.5600   73.2940  221.2640 C   0  0  0  0  0  0  0  0  0  0  0  0
  140.3030   72.1160  222.1210 C   0  0  0  0  0  0  0  0  0  0  0  0
  141.0880   71.1310  222.0730 O   0  0  0  0  0  0  0  0  0  0  0  0
  139.1450   72.0830  222.9720 N   0  0  0  0  0  0  0  0  0  0  0  0
  138.5400   72.9350  223.0190 H   0  0  0  0  0  0  0  0  0  0  0  0
  138.7910   70.9560  223.8420 C   0  0  2  0  0  0  0  0  0  0  0  0
  137.7537   71.0652  224.1914 H   0  0  0  0  0  0  0  0  0  0  0  0
  139.6370   70.9660  225.1060 C   0  0  0  0  0  0  0  0  0  0  0  0
  139.3410   70.0360  226.1190 C   0  0  0  0  0  0  0  0  0  0  0  0
  138.5294   69.3086  225.9702 H   0  0  0  0  0  0  0  0  0  0  0  0
  140.0680   70.0270  227.3130 C   0  0  0  0  0  0  0  0  0  0  0  0
  139.8318   69.2901  228.0948 H   0  0  0  0  0  0  0  0  0  0  0  0
  141.0940   70.9530  227.5140 C   0  0  0  0  0  0  0  0  0  0  0  0
  141.6679   70.9431  228.4524 H   0  0  0  0  0  0  0  0  0  0  0  0
  141.3910   71.8910  226.5240 C   0  0  0  0  0  0  0  0  0  0  0  0
  142.1973   72.6216  226.6853 H   0  0  0  0  0  0  0  0  0  0  0  0
  140.6670   71.9050  225.3280 C   0  0  0  0  0  0  0  0  0  0  0  0
  140.9015   72.6522  224.5556 H   0  0  0  0  0  0  0  0  0  0  0  0
  138.8080   69.6350  223.0580 C   0  0  0  0  0  0  0  0  0  0  0  0
  138.8189   68.7905  223.7627 H   0  0  0  0  0  0  0  0  0  0  0  0
  137.9106   69.5728  222.4249 H   0  0  0  0  0  0  0  0  0  0  0  0
  139.7067   69.5959  222.4249 H   0  0  0  0  0  0  0  0  0  0  0  0
  141.4820   73.1610  220.2250 C   0  0  0  0  0  0  0  0  0  0  0  0
  141.9528   72.1851  220.0354 H   0  0  0  0  0  0  0  0  0  0  0  0
  141.8120   74.2560  219.4240 C   0  0  0  0  0  0  0  0  0  0  0  0
  142.7480   74.1580  218.3750 C   0  0  0  0  0  0  0  0  0  0  0  0
  143.3010   73.0470  218.1370 O   0  0  0  0  0  0  0  0  0  0  0  0
  143.0560   75.2630  217.6190 N   0  0  0  0  0  0  0  0  0  0  0  0
  143.9680   75.1780  216.5960 C   0  0  0  0  0  0  0  0  0  0  0  0
  144.4544   74.2151  216.3810 H   0  0  0  0  0  0  0  0  0  0  0  0
  144.2860   76.2980  215.8250 C   0  0  0  0  0  0  0  0  0  0  0  0
  145.4530   76.1720  214.5210 Cl  0  0  0  0  0  0  0  0  0  0  0  0
  143.6710   77.5160  216.0980 C   0  0  0  0  0  0  0  0  0  0  0  0
  143.9162   78.4042  215.4972 H   0  0  0  0  0  0  0  0  0  0  0  0
  142.7440   77.6080  217.1340 C   0  0  0  0  0  0  0  0  0  0  0  0
  141.9750   79.1540  217.4690 Cl  0  0  0  0  0  0  0  0  0  0  0  0
  142.4430   76.4670  217.8930 C   0  0  0  0  0  0  0  0  0  0  0  0
  141.5410   76.5580  218.9010 N   0  0  0  0  0  0  0  0  0  0  0  0
  141.2040   75.4960  219.6790 C   0  0  0  0  0  0  0  0  0  0  0  0
  140.2810   75.6340  220.6910 N   0  0  0  0  0  0  0  0  0  0  0  0
  139.6810   76.9640  220.9600 C   0  0  0  0  0  0  0  0  0  0  0  0
  139.4077   77.4370  220.0053 H   0  0  0  0  0  0  0  0  0  0  0  0
  138.7877   76.8295  221.5876 H   0  0  0  0  0  0  0  0  0  0  0  0
  140.6590   77.8500  221.6900 C   0  0  0  0  0  0  0  0  0  0  0  0
  141.2960   78.9100  221.0220 C   0  0  0  0  0  0  0  0  0  0  0  0
  141.0612   79.1115  219.9664 H   0  0  0  0  0  0  0  0  0  0  0  0
  142.2260   79.7090  221.6920 C   0  0  0  0  0  0  0  0  0  0  0  0
  142.7191   80.5379  221.1631 H   0  0  0  0  0  0  0  0  0  0  0  0
  142.5310   79.4580  223.0310 C   0  0  0  0  0  0  0  0  0  0  0  0
  143.2647   80.0874  223.5559 H   0  0  0  0  0  0  0  0  0  0  0  0
  141.9030   78.4060  223.7040 C   0  0  0  0  0  0  0  0  0  0  0  0
  142.1415   78.2093  224.7597 H   0  0  0  0  0  0  0  0  0  0  0  0
  140.9730   77.6040  223.0380 C   0  0  0  0  0  0  0  0  0  0  0  0
  140.4838   76.7755  223.5712 H   0  0  0  0  0  0  0  0  0  0  0  0
  1  2  1  0
  2  3  2  0
  3  4  1  0
  4  5  1  0
  5  6  2  0
  5  7  1  0
  7  8  1  0
  7  9  1  0
  9 10  1  1
  9 11  1  0
 11 12  2  0
 12 13  1  0
 12 14  1  0
 14 15  1  0
 14 16  2  0
 16 17  1  0
 16 18  1  0
 18 19  1  0
 18 20  2  0
 20 21  1  0
  9 22  1  0
 22 23  1  0
 22 24  1  0
 22 25  1  0
  4 26  2  0
 26 27  1  0
 26 28  1  0
 28 29  1  0
 29 30  2  0
 29 31  1  0
 31 32  1  0
 32 33  1  0
 32 34  2  0
 34 35  1  0
 34 36  1  0
 36 37  1  0
 36 38  2  0
 38 39  1  0
 38 40  1  0
 40 41  2  0
 41 42  1  0
 42 43  1  0
 43 44  1  0
 44 45  1  0
 44 46  1  0
 44 47  1  0
 47 48  2  0
 48 49  1  0
 48 50  1  0
 50 51  1  0
 50 52  2  0
 52 53  1  0
 52 54  1  0
 54 55  1  0
 54 56  2  0
 56 57  1  0
 43  3  1  0
 56 47  1  0
 20 11  1  0
 42 28  2  0
 40 31  1  0
M  END
>  <UniqueID>  (52) 
98

>  <SMILES>  (52) 
[H]/N=c1\c(C(=O)N[C@@H](C)c2ccccc2)cc2c(=O)n3cc(Cl)cc(Cl)c3nc2n1Cc1ccccc1

>  <Energy>  (52) 
85.01490418129275

>  <Genealogy>  (52) 
[H]/N=c1\c(C(=O)N[C@@H](C)c2ccccc2)cc2c(=O)n3cc(Cl)cc(Cl)c3nc2n1Cc1ccccc1 (cis-trans isomerization)
[H]/N=c1\c(C(=O)N[C@@H](C)c2ccccc2)cc2c(=O)n3cc(Cl)cc(Cl)c3nc2n1Cc1ccccc1 (3D coordinates assigned)
[H]/N=c1\c(C(=O)N[C@@H](C)c2ccccc2)cc2c(=O)n3cc(Cl)cc(Cl)c3nc2n1Cc1ccccc1 (optimized conformer: 85.01490418129275 kcal/mol)

>  <smiles>  (52) 
C[C@H](NC(=O)c1cc2c(=O)n3cc(Cl)cc(Cl)c3nc2n(Cc2ccccc2)c1=N)c1ccccc1

>  <score_type>  (52) 
oracle

>  <origin>  (52) 
autodockgpu

>  <m_score__min__energy>  (52) 
-8.8900000000000006

>  <m_primary>  (52) 
energy

>  <meeko>  (52) 
{"free_energy": -8.81, "intermolecular_energy": -10.6, "internal_energy": -1.84, "cluster_size": 8, "cluster_id": 1, "rank_in_cluster": 3}

>  <energy>  (52) 
-8.7

>  <cluster_rmsd>  (52) 
0.1

>  <rmsd>  (52) 
269.88

>  <cluster>  (52) 
2

$$$$
AFKJZVLHPMIVAS-NUAMYCNZNA-N
     RDKit          3D

 57 61  0  0  0  0  0  0  0  0999 V2000
  138.3000   74.0540  222.6730 H   0  0  0  0  0  0  0  0  0  0  0  0
  139.1500   74.6500  222.5730 N   0  0  0  0  0  0  0  0  0  0  0  0
  140.0640   74.5090  221.6550 C   0  0  0  0  0  0  0  0  0  0  0  0
  140.7030   73.2560  221.4610 C   0  0  0  0  0  0  0  0  0  0  0  0
  140.4760   72.0940  222.3480 C   0  0  0  0  0  0  0  0  0  0  0  0
  141.3680   71.2080  222.4500 O   0  0  0  0  0  0  0  0  0  0  0  0
  139.2320   71.9590  223.0560 N   0  0  0  0  0  0  0  0  0  0  0  0
  138.5340   72.7340  222.9810 H   0  0  0  0  0  0  0  0  0  0  0  0
  138.9030   70.8360  223.9400 C   0  0  2  0  0  0  0  0  0  0  0  0
  137.8439   70.8895  224.2322 H   0  0  0  0  0  0  0  0  0  0  0  0
  139.6790   70.9330  225.2440 C   0  0  0  0  0  0  0  0  0  0  0  0
  140.7060   71.8900  225.3450 C   0  0  0  0  0  0  0  0  0  0  0  0
  140.9093   72.5616  224.4979 H   0  0  0  0  0  0  0  0  0  0  0  0
  141.4700   71.9960  226.5100 C   0  0  0  0  0  0  0  0  0  0  0  0
  142.2645   72.7536  226.5790 H   0  0  0  0  0  0  0  0  0  0  0  0
  141.2260   71.1410  227.5870 C   0  0  0  0  0  0  0  0  0  0  0  0
  141.8267   71.2267  228.5045 H   0  0  0  0  0  0  0  0  0  0  0  0
  140.2200   70.1780  227.4990 C   0  0  0  0  0  0  0  0  0  0  0  0
  140.0306   69.5040  228.3474 H   0  0  0  0  0  0  0  0  0  0  0  0
  139.4520   70.0670  226.3360 C   0  0  0  0  0  0  0  0  0  0  0  0
  138.6660   69.3002  226.2712 H   0  0  0  0  0  0  0  0  0  0  0  0
  139.0420   69.4980  223.1990 C   0  0  0  0  0  0  0  0  0  0  0  0
  139.1269   68.6809  223.9305 H   0  0  0  0  0  0  0  0  0  0  0  0
  138.1560   69.3346  222.5679 H   0  0  0  0  0  0  0  0  0  0  0  0
  139.9427   69.5202  222.5679 H   0  0  0  0  0  0  0  0  0  0  0  0
  141.6120   73.1140  220.4120 C   0  0  0  0  0  0  0  0  0  0  0  0
  142.0947   72.1413  220.2364 H   0  0  0  0  0  0  0  0  0  0  0  0
  141.9140   74.1970  219.5830 C   0  0  0  0  0  0  0  0  0  0  0  0
  142.8360   74.0890  218.5230 C   0  0  0  0  0  0  0  0  0  0  0  0
  143.4020   72.9820  218.3010 O   0  0  0  0  0  0  0  0  0  0  0  0
  143.1160   75.1810  217.7380 N   0  0  0  0  0  0  0  0  0  0  0  0
  144.0150   75.0870  216.7040 C   0  0  0  0  0  0  0  0  0  0  0  0
  144.5136   74.1273  216.5033 H   0  0  0  0  0  0  0  0  0  0  0  0
  144.3040   76.1950  215.9040 C   0  0  0  0  0  0  0  0  0  0  0  0
  145.4540   76.0580  214.5860 Cl  0  0  0  0  0  0  0  0  0  0  0  0
  143.6750   77.4100  216.1590 C   0  0  0  0  0  0  0  0  0  0  0  0
  143.8987   78.2886  215.5360 H   0  0  0  0  0  0  0  0  0  0  0  0
  142.7610   77.5100  217.2060 C   0  0  0  0  0  0  0  0  0  0  0  0
  141.9730   79.0510  217.5190 Cl  0  0  0  0  0  0  0  0  0  0  0  0
  142.4890   76.3820  217.9940 C   0  0  0  0  0  0  0  0  0  0  0  0
  141.5990   76.4810  219.0140 N   0  0  0  0  0  0  0  0  0  0  0  0
  141.2910   75.4320  219.8190 C   0  0  0  0  0  0  0  0  0  0  0  0
  140.3800   75.5790  220.8420 N   0  0  0  0  0  0  0  0  0  0  0  0
  139.7630   76.9050  221.0900 C   0  0  0  0  0  0  0  0  0  0  0  0
  139.4417   77.3393  220.1318 H   0  0  0  0  0  0  0  0  0  0  0  0
  138.8982   76.7750  221.7573 H   0  0  0  0  0  0  0  0  0  0  0  0
  140.7510   77.8340  221.7490 C   0  0  0  0  0  0  0  0  0  0  0  0
  141.1010   77.6590  223.0990 C   0  0  0  0  0  0  0  0  0  0  0  0
  140.6712   76.8239  223.6716 H   0  0  0  0  0  0  0  0  0  0  0  0
  141.9920   78.5400  223.7180 C   0  0  0  0  0  0  0  0  0  0  0  0
  142.2623   78.3955  224.7744 H   0  0  0  0  0  0  0  0  0  0  0  0
  142.5400   79.6040  222.9970 C   0  0  0  0  0  0  0  0  0  0  0  0
  143.2404   80.2972  223.4859 H   0  0  0  0  0  0  0  0  0  0  0  0
  142.1980   79.7870  221.6550 C   0  0  0  0  0  0  0  0  0  0  0  0
  142.6309   80.6238  221.0872 H   0  0  0  0  0  0  0  0  0  0  0  0
  141.3060   78.9080  221.0320 C   0  0  0  0  0  0  0  0  0  0  0  0
  141.0376   79.0580  219.9758 H   0  0  0  0  0  0  0  0  0  0  0  0
  1  2  1  0
  2  3  2  0
  3  4  1  0
  4  5  1  0
  5  6  2  0
  5  7  1  0
  7  8  1  0
  7  9  1  0
  9 10  1  1
  9 11  1  0
 11 12  2  0
 12 13  1  0
 12 14  1  0
 14 15  1  0
 14 16  2  0
 16 17  1  0
 16 18  1  0
 18 19  1  0
 18 20  2  0
 20 21  1  0
  9 22  1  0
 22 23  1  0
 22 24  1  0
 22 25  1  0
  4 26  2  0
 26 27  1  0
 26 28  1  0
 28 29  1  0
 29 30  2  0
 29 31  1  0
 31 32  1  0
 32 33  1  0
 32 34  2  0
 34 35  1  0
 34 36  1  0
 36 37  1  0
 36 38  2  0
 38 39  1  0
 38 40  1  0
 40 41  2  0
 41 42  1  0
 42 43  1  0
 43 44  1  0
 44 45  1  0
 44 46  1  0
 44 47  1  0
 47 48  2  0
 48 49  1  0
 48 50  1  0
 50 51  1  0
 50 52  2  0
 52 53  1  0
 52 54  1  0
 54 55  1  0
 54 56  2  0
 56 57  1  0
 43  3  1  0
 56 47  1  0
 20 11  1  0
 42 28  2  0
 40 31  1  0
M  END
>  <UniqueID>  (53) 
98

>  <SMILES>  (53) 
[H]/N=c1\c(C(=O)N[C@@H](C)c2ccccc2)cc2c(=O)n3cc(Cl)cc(Cl)c3nc2n1Cc1ccccc1

>  <Energy>  (53) 
85.01490418129275

>  <Genealogy>  (53) 
[H]/N=c1\c(C(=O)N[C@@H](C)c2ccccc2)cc2c(=O)n3cc(Cl)cc(Cl)c3nc2n1Cc1ccccc1 (cis-trans isomerization)
[H]/N=c1\c(C(=O)N[C@@H](C)c2ccccc2)cc2c(=O)n3cc(Cl)cc(Cl)c3nc2n1Cc1ccccc1 (3D coordinates assigned)
[H]/N=c1\c(C(=O)N[C@@H](C)c2ccccc2)cc2c(=O)n3cc(Cl)cc(Cl)c3nc2n1Cc1ccccc1 (optimized conformer: 85.01490418129275 kcal/mol)

>  <smiles>  (53) 
C[C@H](NC(=O)c1cc2c(=O)n3cc(Cl)cc(Cl)c3nc2n(Cc2ccccc2)c1=N)c1ccccc1

>  <score_type>  (53) 
oracle

>  <origin>  (53) 
autodockgpu

>  <m_score__min__energy>  (53) 
-8.8900000000000006

>  <m_primary>  (53) 
energy

>  <meeko>  (53) 
{"free_energy": -8.72, "intermolecular_energy": -10.51, "internal_energy": -1.7, "cluster_size": 8, "cluster_id": 1, "rank_in_cluster": 5}

>  <energy>  (53) 
-8.68

>  <cluster_rmsd>  (53) 
0.14

>  <rmsd>  (53) 
269.84

>  <cluster>  (53) 
2

$$$$
AFKJZVLHPMIVAS-NUAMYCNZNA-N
     RDKit          3D

 57 61  0  0  0  0  0  0  0  0999 V2000
  142.4420   75.2400  221.5540 H   0  0  0  0  0  0  0  0  0  0  0  0
  141.8230   75.9340  221.0810 N   0  0  0  0  0  0  0  0  0  0  0  0
  140.6330   76.2780  221.4840 C   0  0  0  0  0  0  0  0  0  0  0  0
  139.7330   75.3030  221.9870 C   0  0  0  0  0  0  0  0  0  0  0  0
  140.0280   73.8530  221.9680 C   0  0  0  0  0  0  0  0  0  0  0  0
  141.1580   73.4550  221.5760 O   0  0  0  0  0  0  0  0  0  0  0  0
  139.0180   72.9070  222.3580 N   0  0  0  0  0  0  0  0  0  0  0  0
  138.1080   73.2760  222.7190 H   0  0  0  0  0  0  0  0  0  0  0  0
  139.2030   71.4520  222.3540 C   0  0  2  0  0  0  0  0  0  0  0  0
  138.2284   70.9521  222.2530 H   0  0  0  0  0  0  0  0  0  0  0  0
  139.7560   70.9770  223.6890 C   0  0  0  0  0  0  0  0  0  0  0  0
  139.3240   69.7360  224.1910 C   0  0  0  0  0  0  0  0  0  0  0  0
  138.6227   69.1253  223.6035 H   0  0  0  0  0  0  0  0  0  0  0  0
  139.7770   69.2710  225.4290 C   0  0  0  0  0  0  0  0  0  0  0  0
  139.4376   68.2954  225.8072 H   0  0  0  0  0  0  0  0  0  0  0  0
  140.6600   70.0440  226.1860 C   0  0  0  0  0  0  0  0  0  0  0  0
  141.0189   69.6754  227.1583 H   0  0  0  0  0  0  0  0  0  0  0  0
  141.0870   71.2840  225.7090 C   0  0  0  0  0  0  0  0  0  0  0  0
  141.7794   71.8934  226.3083 H   0  0  0  0  0  0  0  0  0  0  0  0
  140.6370   71.7540  224.4710 C   0  0  0  0  0  0  0  0  0  0  0  0
  140.9719   72.7356  224.1045 H   0  0  0  0  0  0  0  0  0  0  0  0
  140.0060   71.0070  221.1230 C   0  0  0  0  0  0  0  0  0  0  0  0
  140.9249   70.4978  221.4491 H   0  0  0  0  0  0  0  0  0  0  0  0
  139.3988   70.3167  220.5191 H   0  0  0  0  0  0  0  0  0  0  0  0
  140.2695   71.8878  220.5191 H   0  0  0  0  0  0  0  0  0  0  0  0
  138.5000   75.7160  222.4930 C   0  0  0  0  0  0  0  0  0  0  0  0
  137.8041   74.9721  222.9081 H   0  0  0  0  0  0  0  0  0  0  0  0
  138.1420   77.0650  222.4770 C   0  0  0  0  0  0  0  0  0  0  0  0
  136.9010   77.5130  222.9700 C   0  0  0  0  0  0  0  0  0  0  0  0
  136.0850   76.6770  223.4530 O   0  0  0  0  0  0  0  0  0  0  0  0
  136.5790   78.8480  222.9240 N   0  0  0  0  0  0  0  0  0  0  0  0
  135.3710   79.2940  223.3990 C   0  0  0  0  0  0  0  0  0  0  0  0
  134.6546   78.5738  223.8209 H   0  0  0  0  0  0  0  0  0  0  0  0
  135.0390   80.6500  223.3540 C   0  0  0  0  0  0  0  0  0  0  0  0
  133.4920   81.2030  223.9660 Cl  0  0  0  0  0  0  0  0  0  0  0  0
  135.9450   81.5600  222.8180 C   0  0  0  0  0  0  0  0  0  0  0  0
  135.6919   82.6297  222.7758 H   0  0  0  0  0  0  0  0  0  0  0  0
  137.1730   81.1140  222.3350 C   0  0  0  0  0  0  0  0  0  0  0  0
  138.3100   82.2740  221.6600 Cl  0  0  0  0  0  0  0  0  0  0  0  0
  137.4810   79.7460  222.3940 C   0  0  0  0  0  0  0  0  0  0  0  0
  138.6770   79.3120  221.9230 N   0  0  0  0  0  0  0  0  0  0  0  0
  139.0400   78.0030  221.9430 C   0  0  0  0  0  0  0  0  0  0  0  0
  140.2660   77.6090  221.4560 N   0  0  0  0  0  0  0  0  0  0  0  0
  141.1800   78.6180  220.8660 C   0  0  0  0  0  0  0  0  0  0  0  0
  142.0705   78.1102  220.4671 H   0  0  0  0  0  0  0  0  0  0  0  0
  140.6516   79.1475  220.0595 H   0  0  0  0  0  0  0  0  0  0  0  0
  141.6060   79.6200  221.9090 C   0  0  0  0  0  0  0  0  0  0  0  0
  142.1660   79.1890  223.1240 C   0  0  0  0  0  0  0  0  0  0  0  0
  142.3177   78.1148  223.3060 H   0  0  0  0  0  0  0  0  0  0  0  0
  142.5310   80.1180  224.1020 C   0  0  0  0  0  0  0  0  0  0  0  0
  142.9696   79.7734  225.0501 H   0  0  0  0  0  0  0  0  0  0  0  0
  142.3400   81.4830  223.8780 C   0  0  0  0  0  0  0  0  0  0  0  0
  142.6273   82.2125  224.6495 H   0  0  0  0  0  0  0  0  0  0  0  0
  141.7840   81.9220  222.6740 C   0  0  0  0  0  0  0  0  0  0  0  0
  141.6348   82.9975  222.4976 H   0  0  0  0  0  0  0  0  0  0  0  0
  141.4170   80.9960  221.6930 C   0  0  0  0  0  0  0  0  0  0  0  0
  140.9780   81.3461  220.7471 H   0  0  0  0  0  0  0  0  0  0  0  0
  1  2  1  0
  2  3  2  0
  3  4  1  0
  4  5  1  0
  5  6  2  0
  5  7  1  0
  7  8  1  0
  7  9  1  0
  9 10  1  6
  9 11  1  0
 11 12  2  0
 12 13  1  0
 12 14  1  0
 14 15  1  0
 14 16  2  0
 16 17  1  0
 16 18  1  0
 18 19  1  0
 18 20  2  0
 20 21  1  0
  9 22  1  0
 22 23  1  0
 22 24  1  0
 22 25  1  0
  4 26  2  0
 26 27  1  0
 26 28  1  0
 28 29  1  0
 29 30  2  0
 29 31  1  0
 31 32  1  0
 32 33  1  0
 32 34  2  0
 34 35  1  0
 34 36  1  0
 36 37  1  0
 36 38  2  0
 38 39  1  0
 38 40  1  0
 40 41  2  0
 41 42  1  0
 42 43  1  0
 43 44  1  0
 44 45  1  0
 44 46  1  0
 44 47  1  0
 47 48  2  0
 48 49  1  0
 48 50  1  0
 50 51  1  0
 50 52  2  0
 52 53  1  0
 52 54  1  0
 54 55  1  0
 54 56  2  0
 56 57  1  0
 43  3  1  0
 56 47  1  0
 20 11  1  0
 42 28  2  0
 40 31  1  0
M  END
>  <UniqueID>  (54) 
98

>  <SMILES>  (54) 
[H]/N=c1\c(C(=O)N[C@@H](C)c2ccccc2)cc2c(=O)n3cc(Cl)cc(Cl)c3nc2n1Cc1ccccc1

>  <Energy>  (54) 
85.01490418129275

>  <Genealogy>  (54) 
[H]/N=c1\c(C(=O)N[C@@H](C)c2ccccc2)cc2c(=O)n3cc(Cl)cc(Cl)c3nc2n1Cc1ccccc1 (cis-trans isomerization)
[H]/N=c1\c(C(=O)N[C@@H](C)c2ccccc2)cc2c(=O)n3cc(Cl)cc(Cl)c3nc2n1Cc1ccccc1 (3D coordinates assigned)
[H]/N=c1\c(C(=O)N[C@@H](C)c2ccccc2)cc2c(=O)n3cc(Cl)cc(Cl)c3nc2n1Cc1ccccc1 (optimized conformer: 85.01490418129275 kcal/mol)

>  <smiles>  (54) 
C[C@H](NC(=O)c1cc2c(=O)n3cc(Cl)cc(Cl)c3nc2n(Cc2ccccc2)c1=N)c1ccccc1

>  <score_type>  (54) 
oracle

>  <origin>  (54) 
autodockgpu

>  <m_score__min__energy>  (54) 
-8.8900000000000006

>  <m_primary>  (54) 
energy

>  <meeko>  (54) 
{"free_energy": -8.55, "intermolecular_energy": -10.34, "internal_energy": -1.72, "cluster_size": 3, "cluster_id": 3, "rank_in_cluster": 3}

>  <energy>  (54) 
-8.67

>  <cluster_rmsd>  (54) 
0.28

>  <rmsd>  (54) 
269.88

>  <cluster>  (54) 
2

$$$$
AFKJZVLHPMIVAS-NUAMYCNZNA-N
     RDKit          3D

 57 61  0  0  0  0  0  0  0  0999 V2000
  141.0870   70.1160  220.7600 H   0  0  0  0  0  0  0  0  0  0  0  0
  141.5250   71.0480  220.5930 N   0  0  0  0  0  0  0  0  0  0  0  0
  141.0060   72.1940  220.9320 C   0  0  0  0  0  0  0  0  0  0  0  0
  140.0380   72.2690  221.9670 C   0  0  0  0  0  0  0  0  0  0  0  0
  139.4710   71.0700  222.6230 C   0  0  0  0  0  0  0  0  0  0  0  0
  139.6270   69.9380  222.0900 O   0  0  0  0  0  0  0  0  0  0  0  0
  138.7170   71.2040  223.8400 N   0  0  0  0  0  0  0  0  0  0  0  0
  138.6450   72.1520  224.2760 H   0  0  0  0  0  0  0  0  0  0  0  0
  138.0970   70.0830  224.5550 C   0  0  2  0  0  0  0  0  0  0  0  0
  137.2890   70.4540  225.2027 H   0  0  0  0  0  0  0  0  0  0  0  0
  139.0960   69.4310  225.4990 C   0  0  0  0  0  0  0  0  0  0  0  0
  139.1730   68.0260  225.5300 C   0  0  0  0  0  0  0  0  0  0  0  0
  138.5361   67.4308  224.8591 H   0  0  0  0  0  0  0  0  0  0  0  0
  140.0500   67.3800  226.4040 C   0  0  0  0  0  0  0  0  0  0  0  0
  140.1058   66.2815  226.4133 H   0  0  0  0  0  0  0  0  0  0  0  0
  140.8560   68.1260  227.2660 C   0  0  0  0  0  0  0  0  0  0  0  0
  141.5482   67.6156  227.9519 H   0  0  0  0  0  0  0  0  0  0  0  0
  140.7830   69.5200  227.2570 C   0  0  0  0  0  0  0  0  0  0  0  0
  141.4169   70.1066  227.9383 H   0  0  0  0  0  0  0  0  0  0  0  0
  139.9070   70.1730  226.3850 C   0  0  0  0  0  0  0  0  0  0  0  0
  139.8492   71.2715  226.3892 H   0  0  0  0  0  0  0  0  0  0  0  0
  137.4080   69.1230  223.5740 C   0  0  0  0  0  0  0  0  0  0  0  0
  136.8573   68.3556  224.1378 H   0  0  0  0  0  0  0  0  0  0  0  0
  136.7070   69.6866  222.9408 H   0  0  0  0  0  0  0  0  0  0  0  0
  138.1663   68.6392  222.9408 H   0  0  0  0  0  0  0  0  0  0  0  0
  139.5680   73.5210  222.3670 C   0  0  0  0  0  0  0  0  0  0  0  0
  138.8355   73.5932  223.1845 H   0  0  0  0  0  0  0  0  0  0  0  0
  140.0200   74.6820  221.7380 C   0  0  0  0  0  0  0  0  0  0  0  0
  139.5570   75.9600  222.1100 C   0  0  0  0  0  0  0  0  0  0  0  0
  138.7170   76.0680  223.0470 O   0  0  0  0  0  0  0  0  0  0  0  0
  140.0160   77.0790  221.4570 N   0  0  0  0  0  0  0  0  0  0  0  0
  139.5690   78.3280  221.8110 C   0  0  0  0  0  0  0  0  0  0  0  0
  138.8370   78.4322  222.6255 H   0  0  0  0  0  0  0  0  0  0  0  0
  140.0320   79.4680  221.1500 C   0  0  0  0  0  0  0  0  0  0  0  0
  139.4510   81.0560  221.6150 Cl  0  0  0  0  0  0  0  0  0  0  0  0
  140.9560   79.3350  220.1180 C   0  0  0  0  0  0  0  0  0  0  0  0
  141.3239   80.2266  219.5892 H   0  0  0  0  0  0  0  0  0  0  0  0
  141.4140   78.0700  219.7560 C   0  0  0  0  0  0  0  0  0  0  0  0
  142.5820   77.9160  218.4500 Cl  0  0  0  0  0  0  0  0  0  0  0  0
  140.9330   76.9420  220.4370 C   0  0  0  0  0  0  0  0  0  0  0  0
  141.3790   75.7110  220.0830 N   0  0  0  0  0  0  0  0  0  0  0  0
  140.9540   74.5750  220.6950 C   0  0  0  0  0  0  0  0  0  0  0  0
  141.4360   73.3460  220.3030 N   0  0  0  0  0  0  0  0  0  0  0  0
  142.3970   73.2600  219.1760 C   0  0  0  0  0  0  0  0  0  0  0  0
  142.2446   72.3100  218.6428 H   0  0  0  0  0  0  0  0  0  0  0  0
  142.2251   74.1090  218.4980 H   0  0  0  0  0  0  0  0  0  0  0  0
  143.8160   73.3220  219.6820 C   0  0  0  0  0  0  0  0  0  0  0  0
  144.6760   72.2220  219.5250 C   0  0  0  0  0  0  0  0  0  0  0  0
  144.3206   71.3192  219.0067 H   0  0  0  0  0  0  0  0  0  0  0  0
  145.9810   72.2690  220.0240 C   0  0  0  0  0  0  0  0  0  0  0  0
  146.6490   71.4044  219.8967 H   0  0  0  0  0  0  0  0  0  0  0  0
  146.4380   73.4120  220.6840 C   0  0  0  0  0  0  0  0  0  0  0  0
  147.4649   73.4471  221.0768 H   0  0  0  0  0  0  0  0  0  0  0  0
  145.5900   74.5110  220.8450 C   0  0  0  0  0  0  0  0  0  0  0  0
  145.9507   75.4115  221.3637 H   0  0  0  0  0  0  0  0  0  0  0  0
  144.2840   74.4680  220.3480 C   0  0  0  0  0  0  0  0  0  0  0  0
  143.6196   75.3349  220.4787 H   0  0  0  0  0  0  0  0  0  0  0  0
  1  2  1  0
  2  3  2  0
  3  4  1  0
  4  5  1  0
  5  6  2  0
  5  7  1  0
  7  8  1  0
  7  9  1  0
  9 10  1  1
  9 11  1  0
 11 12  2  0
 12 13  1  0
 12 14  1  0
 14 15  1  0
 14 16  2  0
 16 17  1  0
 16 18  1  0
 18 19  1  0
 18 20  2  0
 20 21  1  0
  9 22  1  0
 22 23  1  0
 22 24  1  0
 22 25  1  0
  4 26  2  0
 26 27  1  0
 26 28  1  0
 28 29  1  0
 29 30  2  0
 29 31  1  0
 31 32  1  0
 32 33  1  0
 32 34  2  0
 34 35  1  0
 34 36  1  0
 36 37  1  0
 36 38  2  0
 38 39  1  0
 38 40  1  0
 40 41  2  0
 41 42  1  0
 42 43  1  0
 43 44  1  0
 44 45  1  0
 44 46  1  0
 44 47  1  0
 47 48  2  0
 48 49  1  0
 48 50  1  0
 50 51  1  0
 50 52  2  0
 52 53  1  0
 52 54  1  0
 54 55  1  0
 54 56  2  0
 56 57  1  0
 43  3  1  0
 56 47  1  0
 20 11  1  0
 42 28  2  0
 40 31  1  0
M  END
>  <UniqueID>  (55) 
98

>  <SMILES>  (55) 
[H]/N=c1\c(C(=O)N[C@@H](C)c2ccccc2)cc2c(=O)n3cc(Cl)cc(Cl)c3nc2n1Cc1ccccc1

>  <Energy>  (55) 
85.01490418129275

>  <Genealogy>  (55) 
[H]/N=c1\c(C(=O)N[C@@H](C)c2ccccc2)cc2c(=O)n3cc(Cl)cc(Cl)c3nc2n1Cc1ccccc1 (cis-trans isomerization)
[H]/N=c1\c(C(=O)N[C@@H](C)c2ccccc2)cc2c(=O)n3cc(Cl)cc(Cl)c3nc2n1Cc1ccccc1 (3D coordinates assigned)
[H]/N=c1\c(C(=O)N[C@@H](C)c2ccccc2)cc2c(=O)n3cc(Cl)cc(Cl)c3nc2n1Cc1ccccc1 (optimized conformer: 85.01490418129275 kcal/mol)

>  <smiles>  (55) 
C[C@H](NC(=O)c1cc2c(=O)n3cc(Cl)cc(Cl)c3nc2n(Cc2ccccc2)c1=N)c1ccccc1

>  <score_type>  (55) 
oracle

>  <origin>  (55) 
autodockgpu

>  <m_score__min__energy>  (55) 
-8.8900000000000006

>  <m_primary>  (55) 
energy

>  <meeko>  (55) 
{"free_energy": -8.72, "intermolecular_energy": -10.51, "internal_energy": -1.69, "cluster_size": 9, "cluster_id": 2, "rank_in_cluster": 3}

>  <energy>  (55) 
-8.67

>  <cluster_rmsd>  (55) 
0.14

>  <rmsd>  (55) 
269.87

>  <cluster>  (55) 
2

$$$$
AFKJZVLHPMIVAS-NUAMYCNZNA-N
     RDKit          3D

 57 61  0  0  0  0  0  0  0  0999 V2000
  140.9980   70.2120  220.5560 H   0  0  0  0  0  0  0  0  0  0  0  0
  141.5110   71.1200  220.5900 N   0  0  0  0  0  0  0  0  0  0  0  0
  140.9900   72.2670  220.9230 C   0  0  0  0  0  0  0  0  0  0  0  0
  140.0210   72.3440  221.9560 C   0  0  0  0  0  0  0  0  0  0  0  0
  139.4550   71.1480  222.6180 C   0  0  0  0  0  0  0  0  0  0  0  0
  139.7190   70.0030  222.1600 O   0  0  0  0  0  0  0  0  0  0  0  0
  138.5820   71.2960  223.7500 N   0  0  0  0  0  0  0  0  0  0  0  0
  138.4210   72.2570  224.1290 H   0  0  0  0  0  0  0  0  0  0  0  0
  137.9550   70.1760  224.4620 C   0  0  2  0  0  0  0  0  0  0  0  0
  137.1481   70.5499  225.1094 H   0  0  0  0  0  0  0  0  0  0  0  0
  138.9470   69.5170  225.4070 C   0  0  0  0  0  0  0  0  0  0  0  0
  139.9300   70.3190  226.0150 C   0  0  0  0  0  0  0  0  0  0  0  0
  139.9470   71.4013  225.8192 H   0  0  0  0  0  0  0  0  0  0  0  0
  140.8850   69.7550  226.8650 C   0  0  0  0  0  0  0  0  0  0  0  0
  141.6430   70.3945  227.3409 H   0  0  0  0  0  0  0  0  0  0  0  0
  140.8780   68.3800  227.1110 C   0  0  0  0  0  0  0  0  0  0  0  0
  141.6293   67.9374  227.7816 H   0  0  0  0  0  0  0  0  0  0  0  0
  139.9180   67.5680  226.5060 C   0  0  0  0  0  0  0  0  0  0  0  0
  139.9150   66.4851  226.6992 H   0  0  0  0  0  0  0  0  0  0  0  0
  138.9600   68.1270  225.6550 C   0  0  0  0  0  0  0  0  0  0  0  0
  138.2112   67.4795  225.1753 H   0  0  0  0  0  0  0  0  0  0  0  0
  137.2630   69.2220  223.4770 C   0  0  0  0  0  0  0  0  0  0  0  0
  136.7073   68.4559  224.0376 H   0  0  0  0  0  0  0  0  0  0  0  0
  136.5660   69.7908  222.8440 H   0  0  0  0  0  0  0  0  0  0  0  0
  138.0201   68.7361  222.8440 H   0  0  0  0  0  0  0  0  0  0  0  0
  139.5480   73.5970  222.3500 C   0  0  0  0  0  0  0  0  0  0  0  0
  138.8143   73.6713  223.1662 H   0  0  0  0  0  0  0  0  0  0  0  0
  139.9990   74.7570  221.7160 C   0  0  0  0  0  0  0  0  0  0  0  0
  139.5330   76.0350  222.0820 C   0  0  0  0  0  0  0  0  0  0  0  0
  138.6920   76.1460  223.0180 O   0  0  0  0  0  0  0  0  0  0  0  0
  139.9910   77.1520  221.4250 N   0  0  0  0  0  0  0  0  0  0  0  0
  139.5410   78.4020  221.7720 C   0  0  0  0  0  0  0  0  0  0  0  0
  138.8079   78.5088  222.5851 H   0  0  0  0  0  0  0  0  0  0  0  0
  140.0020   79.5390  221.1060 C   0  0  0  0  0  0  0  0  0  0  0  0
  139.4190   81.1290  221.5630 Cl  0  0  0  0  0  0  0  0  0  0  0  0
  140.9280   79.4040  220.0760 C   0  0  0  0  0  0  0  0  0  0  0  0
  141.2956   80.2941  219.5445 H   0  0  0  0  0  0  0  0  0  0  0  0
  141.3880   78.1380  219.7200 C   0  0  0  0  0  0  0  0  0  0  0  0
  142.5580   77.9800  218.4160 Cl  0  0  0  0  0  0  0  0  0  0  0  0
  140.9090   77.0120  220.4060 C   0  0  0  0  0  0  0  0  0  0  0  0
  141.3580   75.7800  220.0580 N   0  0  0  0  0  0  0  0  0  0  0  0
  140.9340   74.6460  220.6750 C   0  0  0  0  0  0  0  0  0  0  0  0
  141.4190   73.4160  220.2900 N   0  0  0  0  0  0  0  0  0  0  0  0
  142.3800   73.3270  219.1630 C   0  0  0  0  0  0  0  0  0  0  0  0
  142.2140   72.3851  218.6196 H   0  0  0  0  0  0  0  0  0  0  0  0
  142.2221   74.1850  218.4930 H   0  0  0  0  0  0  0  0  0  0  0  0
  143.7990   73.3620  219.6730 C   0  0  0  0  0  0  0  0  0  0  0  0
  144.6410   72.2480  219.5120 C   0  0  0  0  0  0  0  0  0  0  0  0
  144.2717   71.3539  218.9884 H   0  0  0  0  0  0  0  0  0  0  0  0
  145.9450   72.2710  220.0140 C   0  0  0  0  0  0  0  0  0  0  0  0
  146.5990   71.3963  219.8831 H   0  0  0  0  0  0  0  0  0  0  0  0
  146.4200   73.4030  220.6820 C   0  0  0  0  0  0  0  0  0  0  0  0
  147.4463   73.4186  221.0775 H   0  0  0  0  0  0  0  0  0  0  0  0
  145.5900   74.5150  220.8470 C   0  0  0  0  0  0  0  0  0  0  0  0
  145.9643   75.4067  221.3712 H   0  0  0  0  0  0  0  0  0  0  0  0
  144.2850   74.4960  220.3470 C   0  0  0  0  0  0  0  0  0  0  0  0
  143.6348   75.3730  220.4815 H   0  0  0  0  0  0  0  0  0  0  0  0
  1  2  1  0
  2  3  2  0
  3  4  1  0
  4  5  1  0
  5  6  2  0
  5  7  1  0
  7  8  1  0
  7  9  1  0
  9 10  1  1
  9 11  1  0
 11 12  2  0
 12 13  1  0
 12 14  1  0
 14 15  1  0
 14 16  2  0
 16 17  1  0
 16 18  1  0
 18 19  1  0
 18 20  2  0
 20 21  1  0
  9 22  1  0
 22 23  1  0
 22 24  1  0
 22 25  1  0
  4 26  2  0
 26 27  1  0
 26 28  1  0
 28 29  1  0
 29 30  2  0
 29 31  1  0
 31 32  1  0
 32 33  1  0
 32 34  2  0
 34 35  1  0
 34 36  1  0
 36 37  1  0
 36 38  2  0
 38 39  1  0
 38 40  1  0
 40 41  2  0
 41 42  1  0
 42 43  1  0
 43 44  1  0
 44 45  1  0
 44 46  1  0
 44 47  1  0
 47 48  2  0
 48 49  1  0
 48 50  1  0
 50 51  1  0
 50 52  2  0
 52 53  1  0
 52 54  1  0
 54 55  1  0
 54 56  2  0
 56 57  1  0
 43  3  1  0
 56 47  1  0
 20 11  1  0
 42 28  2  0
 40 31  1  0
M  END
>  <UniqueID>  (56) 
98

>  <SMILES>  (56) 
[H]/N=c1\c(C(=O)N[C@@H](C)c2ccccc2)cc2c(=O)n3cc(Cl)cc(Cl)c3nc2n1Cc1ccccc1

>  <Energy>  (56) 
85.01490418129275

>  <Genealogy>  (56) 
[H]/N=c1\c(C(=O)N[C@@H](C)c2ccccc2)cc2c(=O)n3cc(Cl)cc(Cl)c3nc2n1Cc1ccccc1 (cis-trans isomerization)
[H]/N=c1\c(C(=O)N[C@@H](C)c2ccccc2)cc2c(=O)n3cc(Cl)cc(Cl)c3nc2n1Cc1ccccc1 (3D coordinates assigned)
[H]/N=c1\c(C(=O)N[C@@H](C)c2ccccc2)cc2c(=O)n3cc(Cl)cc(Cl)c3nc2n1Cc1ccccc1 (optimized conformer: 85.01490418129275 kcal/mol)

>  <smiles>  (56) 
C[C@H](NC(=O)c1cc2c(=O)n3cc(Cl)cc(Cl)c3nc2n(Cc2ccccc2)c1=N)c1ccccc1

>  <score_type>  (56) 
oracle

>  <origin>  (56) 
autodockgpu

>  <m_score__min__energy>  (56) 
-8.8900000000000006

>  <m_primary>  (56) 
energy

>  <meeko>  (56) 
{"free_energy": -8.68, "intermolecular_energy": -10.47, "internal_energy": -1.75, "cluster_size": 9, "cluster_id": 2, "rank_in_cluster": 5}

>  <energy>  (56) 
-8.64

>  <cluster_rmsd>  (56) 
0.1

>  <rmsd>  (56) 
269.87

>  <cluster>  (56) 
2

$$$$
AFKJZVLHPMIVAS-NUAMYCNZNA-N
     RDKit          3D

 57 61  0  0  0  0  0  0  0  0999 V2000
  140.9940   70.1680  220.6390 H   0  0  0  0  0  0  0  0  0  0  0  0
  141.4640   71.0940  220.5410 N   0  0  0  0  0  0  0  0  0  0  0  0
  140.9540   72.2380  220.8970 C   0  0  0  0  0  0  0  0  0  0  0  0
  139.9810   72.3030  221.9290 C   0  0  0  0  0  0  0  0  0  0  0  0
  139.4010   71.0980  222.5620 C   0  0  0  0  0  0  0  0  0  0  0  0
  139.4850   69.9860  221.9720 O   0  0  0  0  0  0  0  0  0  0  0  0
  138.7150   71.2050  223.8200 N   0  0  0  0  0  0  0  0  0  0  0  0
  138.7030   72.1330  224.3000 H   0  0  0  0  0  0  0  0  0  0  0  0
  138.0880   70.0760  224.5180 C   0  0  2  0  0  0  0  0  0  0  0  0
  137.2665   70.4393  225.1530 H   0  0  0  0  0  0  0  0  0  0  0  0
  139.0720   69.4240  225.4770 C   0  0  0  0  0  0  0  0  0  0  0  0
  139.9370   70.2520  226.2170 C   0  0  0  0  0  0  0  0  0  0  0  0
  139.8694   71.3447  226.1096 H   0  0  0  0  0  0  0  0  0  0  0  0
  140.8810   69.6990  227.0870 C   0  0  0  0  0  0  0  0  0  0  0  0
  141.5459   70.3567  227.6661 H   0  0  0  0  0  0  0  0  0  0  0  0
  140.9810   68.3130  227.2220 C   0  0  0  0  0  0  0  0  0  0  0  0
  141.7225   67.8793  227.9091 H   0  0  0  0  0  0  0  0  0  0  0  0
  140.1400   67.4780  226.4850 C   0  0  0  0  0  0  0  0  0  0  0  0
  140.2225   66.3861  226.5897 H   0  0  0  0  0  0  0  0  0  0  0  0
  139.1930   68.0250  225.6140 C   0  0  0  0  0  0  0  0  0  0  0  0
  138.5379   67.3603  225.0317 H   0  0  0  0  0  0  0  0  0  0  0  0
  137.4230   69.1180  223.5190 C   0  0  0  0  0  0  0  0  0  0  0  0
  136.8795   68.3350  224.0681 H   0  0  0  0  0  0  0  0  0  0  0  0
  136.7188   69.6785  222.8866 H   0  0  0  0  0  0  0  0  0  0  0  0
  138.1944   68.6542  222.8866 H   0  0  0  0  0  0  0  0  0  0  0  0
  139.5210   73.5520  222.3490 C   0  0  0  0  0  0  0  0  0  0  0  0
  138.7857   73.6163  223.1646 H   0  0  0  0  0  0  0  0  0  0  0  0
  139.9860   74.7200  221.7430 C   0  0  0  0  0  0  0  0  0  0  0  0
  139.5320   75.9950  222.1360 C   0  0  0  0  0  0  0  0  0  0  0  0
  138.6880   76.0940  223.0710 O   0  0  0  0  0  0  0  0  0  0  0  0
  140.0040   77.1210  221.5050 N   0  0  0  0  0  0  0  0  0  0  0  0
  139.5660   78.3680  221.8790 C   0  0  0  0  0  0  0  0  0  0  0  0
  138.8308   78.4642  222.6915 H   0  0  0  0  0  0  0  0  0  0  0  0
  140.0420   79.5150  221.2410 C   0  0  0  0  0  0  0  0  0  0  0  0
  139.4730   81.1000  221.7310 Cl  0  0  0  0  0  0  0  0  0  0  0  0
  140.9700   79.3930  220.2110 C   0  0  0  0  0  0  0  0  0  0  0  0
  141.3488   80.2908  219.7006 H   0  0  0  0  0  0  0  0  0  0  0  0
  141.4180   78.1300  219.8280 C   0  0  0  0  0  0  0  0  0  0  0  0
  142.5910   77.9890  218.5250 Cl  0  0  0  0  0  0  0  0  0  0  0  0
  140.9240   76.9940  220.4870 C   0  0  0  0  0  0  0  0  0  0  0  0
  141.3620   75.7660  220.1130 N   0  0  0  0  0  0  0  0  0  0  0  0
  140.9240   74.6230  220.7030 C   0  0  0  0  0  0  0  0  0  0  0  0
  141.3970   73.3970  220.2920 N   0  0  0  0  0  0  0  0  0  0  0  0
  142.3610   73.3230  219.1670 C   0  0  0  0  0  0  0  0  0  0  0  0
  142.2018   72.3847  218.6154 H   0  0  0  0  0  0  0  0  0  0  0  0
  142.1997   74.1858  218.5040 H   0  0  0  0  0  0  0  0  0  0  0  0
  143.7780   73.3620  219.6800 C   0  0  0  0  0  0  0  0  0  0  0  0
  144.6220   72.2480  219.5270 C   0  0  0  0  0  0  0  0  0  0  0  0
  144.2550   71.3507  219.0072 H   0  0  0  0  0  0  0  0  0  0  0  0
  145.9250   72.2750  220.0320 C   0  0  0  0  0  0  0  0  0  0  0  0
  146.5804   71.4006  219.9060 H   0  0  0  0  0  0  0  0  0  0  0  0
  146.3970   73.4090  220.6960 C   0  0  0  0  0  0  0  0  0  0  0  0
  147.4222   73.4269  221.0943 H   0  0  0  0  0  0  0  0  0  0  0  0
  145.5660   74.5210  220.8540 C   0  0  0  0  0  0  0  0  0  0  0  0
  145.9385   75.4153  221.3751 H   0  0  0  0  0  0  0  0  0  0  0  0
  144.2620   74.4990  220.3510 C   0  0  0  0  0  0  0  0  0  0  0  0
  143.6108   75.3760  220.4808 H   0  0  0  0  0  0  0  0  0  0  0  0
  1  2  1  0
  2  3  2  0
  3  4  1  0
  4  5  1  0
  5  6  2  0
  5  7  1  0
  7  8  1  0
  7  9  1  0
  9 10  1  1
  9 11  1  0
 11 12  2  0
 12 13  1  0
 12 14  1  0
 14 15  1  0
 14 16  2  0
 16 17  1  0
 16 18  1  0
 18 19  1  0
 18 20  2  0
 20 21  1  0
  9 22  1  0
 22 23  1  0
 22 24  1  0
 22 25  1  0
  4 26  2  0
 26 27  1  0
 26 28  1  0
 28 29  1  0
 29 30  2  0
 29 31  1  0
 31 32  1  0
 32 33  1  0
 32 34  2  0
 34 35  1  0
 34 36  1  0
 36 37  1  0
 36 38  2  0
 38 39  1  0
 38 40  1  0
 40 41  2  0
 41 42  1  0
 42 43  1  0
 43 44  1  0
 44 45  1  0
 44 46  1  0
 44 47  1  0
 47 48  2  0
 48 49  1  0
 48 50  1  0
 50 51  1  0
 50 52  2  0
 52 53  1  0
 52 54  1  0
 54 55  1  0
 54 56  2  0
 56 57  1  0
 43  3  1  0
 56 47  1  0
 20 11  1  0
 42 28  2  0
 40 31  1  0
M  END
>  <UniqueID>  (57) 
98

>  <SMILES>  (57) 
[H]/N=c1\c(C(=O)N[C@@H](C)c2ccccc2)cc2c(=O)n3cc(Cl)cc(Cl)c3nc2n1Cc1ccccc1

>  <Energy>  (57) 
85.01490418129275

>  <Genealogy>  (57) 
[H]/N=c1\c(C(=O)N[C@@H](C)c2ccccc2)cc2c(=O)n3cc(Cl)cc(Cl)c3nc2n1Cc1ccccc1 (cis-trans isomerization)
[H]/N=c1\c(C(=O)N[C@@H](C)c2ccccc2)cc2c(=O)n3cc(Cl)cc(Cl)c3nc2n1Cc1ccccc1 (3D coordinates assigned)
[H]/N=c1\c(C(=O)N[C@@H](C)c2ccccc2)cc2c(=O)n3cc(Cl)cc(Cl)c3nc2n1Cc1ccccc1 (optimized conformer: 85.01490418129275 kcal/mol)

>  <smiles>  (57) 
C[C@H](NC(=O)c1cc2c(=O)n3cc(Cl)cc(Cl)c3nc2n(Cc2ccccc2)c1=N)c1ccccc1

>  <score_type>  (57) 
oracle

>  <origin>  (57) 
autodockgpu

>  <m_score__min__energy>  (57) 
-8.8900000000000006

>  <m_primary>  (57) 
energy

>  <meeko>  (57) 
{"free_energy": -8.75, "intermolecular_energy": -10.54, "internal_energy": -1.65, "cluster_size": 9, "cluster_id": 2, "rank_in_cluster": 1}

>  <energy>  (57) 
-8.6

>  <cluster_rmsd>  (57) 
0.43

>  <rmsd>  (57) 
269.84

>  <cluster>  (57) 
2

$$$$
AFKJZVLHPMIVAS-NUAMYCNZNA-N
     RDKit          3D

 57 61  0  0  0  0  0  0  0  0999 V2000
  141.0740   70.5710  220.4520 H   0  0  0  0  0  0  0  0  0  0  0  0
  141.5560   71.4960  220.4570 N   0  0  0  0  0  0  0  0  0  0  0  0
  141.0220   72.6220  220.8360 C   0  0  0  0  0  0  0  0  0  0  0  0
  140.0590   72.6470  221.8770 C   0  0  0  0  0  0  0  0  0  0  0  0
  139.5140   71.4190  222.4970 C   0  0  0  0  0  0  0  0  0  0  0  0
  139.9020   70.2920  222.0850 O   0  0  0  0  0  0  0  0  0  0  0  0
  138.5230   71.5130  223.5340 N   0  0  0  0  0  0  0  0  0  0  0  0
  138.2580   72.4640  223.8800 H   0  0  0  0  0  0  0  0  0  0  0  0
  137.9060   70.3580  224.1950 C   0  0  2  0  0  0  0  0  0  0  0  0
  137.0533   70.6893  224.8059 H   0  0  0  0  0  0  0  0  0  0  0  0
  138.8770   69.7210  225.1780 C   0  0  0  0  0  0  0  0  0  0  0  0
  139.9000   70.5180  225.7240 C   0  0  0  0  0  0  0  0  0  0  0  0
  139.9633   71.5826  225.4544 H   0  0  0  0  0  0  0  0  0  0  0  0
  140.8360   69.9710  226.6050 C   0  0  0  0  0  0  0  0  0  0  0  0
  141.6267   70.6064  227.0305 H   0  0  0  0  0  0  0  0  0  0  0  0
  140.7690   68.6190  226.9460 C   0  0  0  0  0  0  0  0  0  0  0  0
  141.5049   68.1905  227.6423 H   0  0  0  0  0  0  0  0  0  0  0  0
  139.7690   67.8110  226.4040 C   0  0  0  0  0  0  0  0  0  0  0  0
  139.7196   66.7452  226.6717 H   0  0  0  0  0  0  0  0  0  0  0  0
  138.8290   68.3530  225.5210 C   0  0  0  0  0  0  0  0  0  0  0  0
  138.0476   67.7088  225.0914 H   0  0  0  0  0  0  0  0  0  0  0  0
  137.3020   69.3950  223.1630 C   0  0  0  0  0  0  0  0  0  0  0  0
  136.7874   68.5745  223.6844 H   0  0  0  0  0  0  0  0  0  0  0  0
  136.5821   69.9375  222.5326 H   0  0  0  0  0  0  0  0  0  0  0  0
  138.1038   68.9831  222.5326 H   0  0  0  0  0  0  0  0  0  0  0  0
  139.5720   73.8770  222.3210 C   0  0  0  0  0  0  0  0  0  0  0  0
  138.8428   73.9102  223.1439 H   0  0  0  0  0  0  0  0  0  0  0  0
  140.0030   75.0660  221.7290 C   0  0  0  0  0  0  0  0  0  0  0  0
  139.5220   76.3230  222.1450 C   0  0  0  0  0  0  0  0  0  0  0  0
  138.6850   76.3870  223.0900 O   0  0  0  0  0  0  0  0  0  0  0  0
  139.9600   77.4700  221.5280 N   0  0  0  0  0  0  0  0  0  0  0  0
  139.4960   78.7000  221.9250 C   0  0  0  0  0  0  0  0  0  0  0  0
  138.7672   78.7659  222.7463 H   0  0  0  0  0  0  0  0  0  0  0  0
  139.9370   79.8680  221.3000 C   0  0  0  0  0  0  0  0  0  0  0  0
  139.3350   81.4310  221.8200 Cl  0  0  0  0  0  0  0  0  0  0  0  0
  140.8580   79.7840  220.2590 C   0  0  0  0  0  0  0  0  0  0  0  0
  141.2095   80.6983  219.7586 H   0  0  0  0  0  0  0  0  0  0  0  0
  141.3330   78.5390  219.8530 C   0  0  0  0  0  0  0  0  0  0  0  0
  142.4960   78.4460  218.5360 Cl  0  0  0  0  0  0  0  0  0  0  0  0
  140.8730   77.3810  220.4990 C   0  0  0  0  0  0  0  0  0  0  0  0
  141.3360   76.1700  220.1020 N   0  0  0  0  0  0  0  0  0  0  0  0
  140.9320   75.0080  220.6780 C   0  0  0  0  0  0  0  0  0  0  0  0
  141.4310   73.8000  220.2440 N   0  0  0  0  0  0  0  0  0  0  0  0
  142.3860   73.7670  219.1090 C   0  0  0  0  0  0  0  0  0  0  0  0
  142.0831   72.9786  218.4043 H   0  0  0  0  0  0  0  0  0  0  0  0
  142.3777   74.7470  218.6095 H   0  0  0  0  0  0  0  0  0  0  0  0
  143.7830   73.4830  219.6000 C   0  0  0  0  0  0  0  0  0  0  0  0
  144.4240   72.2780  219.2660 C   0  0  0  0  0  0  0  0  0  0  0  0
  143.9138   71.5473  218.6212 H   0  0  0  0  0  0  0  0  0  0  0  0
  145.7070   72.0030  219.7490 C   0  0  0  0  0  0  0  0  0  0  0  0
  146.2034   71.0582  219.4826 H   0  0  0  0  0  0  0  0  0  0  0  0
  146.3590   72.9260  220.5690 C   0  0  0  0  0  0  0  0  0  0  0  0
  147.3675   72.7072  220.9497 H   0  0  0  0  0  0  0  0  0  0  0  0
  145.7310   74.1270  220.9060 C   0  0  0  0  0  0  0  0  0  0  0  0
  146.2466   74.8545  221.5501 H   0  0  0  0  0  0  0  0  0  0  0  0
  144.4480   74.4060  220.4260 C   0  0  0  0  0  0  0  0  0  0  0  0
  143.9564   75.3523  220.6959 H   0  0  0  0  0  0  0  0  0  0  0  0
  1  2  1  0
  2  3  2  0
  3  4  1  0
  4  5  1  0
  5  6  2  0
  5  7  1  0
  7  8  1  0
  7  9  1  0
  9 10  1  1
  9 11  1  0
 11 12  2  0
 12 13  1  0
 12 14  1  0
 14 15  1  0
 14 16  2  0
 16 17  1  0
 16 18  1  0
 18 19  1  0
 18 20  2  0
 20 21  1  0
  9 22  1  0
 22 23  1  0
 22 24  1  0
 22 25  1  0
  4 26  2  0
 26 27  1  0
 26 28  1  0
 28 29  1  0
 29 30  2  0
 29 31  1  0
 31 32  1  0
 32 33  1  0
 32 34  2  0
 34 35  1  0
 34 36  1  0
 36 37  1  0
 36 38  2  0
 38 39  1  0
 38 40  1  0
 40 41  2  0
 41 42  1  0
 42 43  1  0
 43 44  1  0
 44 45  1  0
 44 46  1  0
 44 47  1  0
 47 48  2  0
 48 49  1  0
 48 50  1  0
 50 51  1  0
 50 52  2  0
 52 53  1  0
 52 54  1  0
 54 55  1  0
 54 56  2  0
 56 57  1  0
 43  3  1  0
 56 47  1  0
 20 11  1  0
 42 28  2  0
 40 31  1  0
M  END
>  <UniqueID>  (58) 
98

>  <SMILES>  (58) 
[H]/N=c1\c(C(=O)N[C@@H](C)c2ccccc2)cc2c(=O)n3cc(Cl)cc(Cl)c3nc2n1Cc1ccccc1

>  <Energy>  (58) 
85.01490418129275

>  <Genealogy>  (58) 
[H]/N=c1\c(C(=O)N[C@@H](C)c2ccccc2)cc2c(=O)n3cc(Cl)cc(Cl)c3nc2n1Cc1ccccc1 (cis-trans isomerization)
[H]/N=c1\c(C(=O)N[C@@H](C)c2ccccc2)cc2c(=O)n3cc(Cl)cc(Cl)c3nc2n1Cc1ccccc1 (3D coordinates assigned)
[H]/N=c1\c(C(=O)N[C@@H](C)c2ccccc2)cc2c(=O)n3cc(Cl)cc(Cl)c3nc2n1Cc1ccccc1 (optimized conformer: 85.01490418129275 kcal/mol)

>  <smiles>  (58) 
C[C@H](NC(=O)c1cc2c(=O)n3cc(Cl)cc(Cl)c3nc2n(Cc2ccccc2)c1=N)c1ccccc1

>  <score_type>  (58) 
oracle

>  <origin>  (58) 
autodockgpu

>  <m_score__min__energy>  (58) 
-8.8900000000000006

>  <m_primary>  (58) 
energy

>  <meeko>  (58) 
{"free_energy": -8.6, "intermolecular_energy": -10.39, "internal_energy": -1.69, "cluster_size": 9, "cluster_id": 2, "rank_in_cluster": 9}

>  <energy>  (58) 
-8.57

>  <cluster_rmsd>  (58) 
0.0

>  <rmsd>  (58) 
270.5

>  <cluster>  (58) 
3

$$$$
AFKJZVLHPMIVAS-NUAMYCNZNA-N
     RDKit          3D

 57 61  0  0  0  0  0  0  0  0999 V2000
  141.1540   70.0950  220.8780 H   0  0  0  0  0  0  0  0  0  0  0  0
  141.5220   71.0320  220.6010 N   0  0  0  0  0  0  0  0  0  0  0  0
  141.0020   72.1760  220.9440 C   0  0  0  0  0  0  0  0  0  0  0  0
  140.0340   72.2450  221.9790 C   0  0  0  0  0  0  0  0  0  0  0  0
  139.4680   71.0440  222.6310 C   0  0  0  0  0  0  0  0  0  0  0  0
  139.6690   69.9080  222.1210 O   0  0  0  0  0  0  0  0  0  0  0  0
  138.6650   71.1780  223.8160 N   0  0  0  0  0  0  0  0  0  0  0  0
  138.5570   72.1290  224.2360 H   0  0  0  0  0  0  0  0  0  0  0  0
  138.0430   70.0530  224.5240 C   0  0  2  0  0  0  0  0  0  0  0  0
  137.2329   70.4206  225.1710 H   0  0  0  0  0  0  0  0  0  0  0  0
  139.0380   69.3970  225.4690 C   0  0  0  0  0  0  0  0  0  0  0  0
  139.9100   70.2200  226.2040 C   0  0  0  0  0  0  0  0  0  0  0  0
  139.8402   71.3132  226.1038 H   0  0  0  0  0  0  0  0  0  0  0  0
  140.8640   69.6640  227.0600 C   0  0  0  0  0  0  0  0  0  0  0  0
  141.5346   70.3193  227.6352 H   0  0  0  0  0  0  0  0  0  0  0  0
  140.9670   68.2770  227.1860 C   0  0  0  0  0  0  0  0  0  0  0  0
  141.7162   67.8402  227.8627 H   0  0  0  0  0  0  0  0  0  0  0  0
  140.1190   67.4450  226.4530 C   0  0  0  0  0  0  0  0  0  0  0  0
  140.2038   66.3526  226.5506 H   0  0  0  0  0  0  0  0  0  0  0  0
  139.1620   67.9960  225.5950 C   0  0  0  0  0  0  0  0  0  0  0  0
  138.5020   67.3343  225.0149 H   0  0  0  0  0  0  0  0  0  0  0  0
  137.3580   69.0980  223.5360 C   0  0  0  0  0  0  0  0  0  0  0  0
  136.8055   68.3277  224.0939 H   0  0  0  0  0  0  0  0  0  0  0  0
  136.6591   69.6646  222.9031 H   0  0  0  0  0  0  0  0  0  0  0  0
  138.1187   68.6176  222.9031 H   0  0  0  0  0  0  0  0  0  0  0  0
  139.5630   73.4950  222.3840 C   0  0  0  0  0  0  0  0  0  0  0  0
  138.8303   73.5630  223.2017 H   0  0  0  0  0  0  0  0  0  0  0  0
  140.0140   74.6600  221.7600 C   0  0  0  0  0  0  0  0  0  0  0  0
  139.5500   75.9350  222.1370 C   0  0  0  0  0  0  0  0  0  0  0  0
  138.7090   76.0390  223.0750 O   0  0  0  0  0  0  0  0  0  0  0  0
  140.0080   77.0570  221.4890 N   0  0  0  0  0  0  0  0  0  0  0  0
  139.5600   78.3050  221.8480 C   0  0  0  0  0  0  0  0  0  0  0  0
  138.8287   78.4054  222.6635 H   0  0  0  0  0  0  0  0  0  0  0  0
  140.0210   79.4480  221.1910 C   0  0  0  0  0  0  0  0  0  0  0  0
  139.4390   81.0340  221.6620 Cl  0  0  0  0  0  0  0  0  0  0  0  0
  140.9460   79.3200  220.1580 C   0  0  0  0  0  0  0  0  0  0  0  0
  141.3140   80.2140  219.6333 H   0  0  0  0  0  0  0  0  0  0  0  0
  141.4040   78.0570  219.7910 C   0  0  0  0  0  0  0  0  0  0  0  0
  142.5730   77.9090  218.4840 Cl  0  0  0  0  0  0  0  0  0  0  0  0
  140.9250   76.9250  220.4680 C   0  0  0  0  0  0  0  0  0  0  0  0
  141.3720   75.6960  220.1090 N   0  0  0  0  0  0  0  0  0  0  0  0
  140.9480   74.5580  220.7170 C   0  0  0  0  0  0  0  0  0  0  0  0
  141.4310   73.3300  220.3200 N   0  0  0  0  0  0  0  0  0  0  0  0
  142.3920   73.2500  219.1920 C   0  0  0  0  0  0  0  0  0  0  0  0
  142.2414   72.3017  218.6554 H   0  0  0  0  0  0  0  0  0  0  0  0
  142.2182   74.1009  218.5169 H   0  0  0  0  0  0  0  0  0  0  0  0
  143.8100   73.3130  219.6980 C   0  0  0  0  0  0  0  0  0  0  0  0
  144.6670   72.2080  219.5560 C   0  0  0  0  0  0  0  0  0  0  0  0
  144.3088   71.2992  219.0503 H   0  0  0  0  0  0  0  0  0  0  0  0
  145.9720   72.2580  220.0540 C   0  0  0  0  0  0  0  0  0  0  0  0
  146.6376   71.3901  219.9368 H   0  0  0  0  0  0  0  0  0  0  0  0
  146.4330   73.4070  220.7000 C   0  0  0  0  0  0  0  0  0  0  0  0
  147.4602   73.4437  221.0919 H   0  0  0  0  0  0  0  0  0  0  0  0
  145.5880   74.5100  220.8480 C   0  0  0  0  0  0  0  0  0  0  0  0
  145.9509   75.4153  221.3567 H   0  0  0  0  0  0  0  0  0  0  0  0
  144.2830   74.4650  220.3510 C   0  0  0  0  0  0  0  0  0  0  0  0
  143.6218   75.3358  220.4712 H   0  0  0  0  0  0  0  0  0  0  0  0
  1  2  1  0
  2  3  2  0
  3  4  1  0
  4  5  1  0
  5  6  2  0
  5  7  1  0
  7  8  1  0
  7  9  1  0
  9 10  1  1
  9 11  1  0
 11 12  2  0
 12 13  1  0
 12 14  1  0
 14 15  1  0
 14 16  2  0
 16 17  1  0
 16 18  1  0
 18 19  1  0
 18 20  2  0
 20 21  1  0
  9 22  1  0
 22 23  1  0
 22 24  1  0
 22 25  1  0
  4 26  2  0
 26 27  1  0
 26 28  1  0
 28 29  1  0
 29 30  2  0
 29 31  1  0
 31 32  1  0
 32 33  1  0
 32 34  2  0
 34 35  1  0
 34 36  1  0
 36 37  1  0
 36 38  2  0
 38 39  1  0
 38 40  1  0
 40 41  2  0
 41 42  1  0
 42 43  1  0
 43 44  1  0
 44 45  1  0
 44 46  1  0
 44 47  1  0
 47 48  2  0
 48 49  1  0
 48 50  1  0
 50 51  1  0
 50 52  2  0
 52 53  1  0
 52 54  1  0
 54 55  1  0
 54 56  2  0
 56 57  1  0
 43  3  1  0
 56 47  1  0
 20 11  1  0
 42 28  2  0
 40 31  1  0
M  END
>  <UniqueID>  (59) 
98

>  <SMILES>  (59) 
[H]/N=c1\c(C(=O)N[C@@H](C)c2ccccc2)cc2c(=O)n3cc(Cl)cc(Cl)c3nc2n1Cc1ccccc1

>  <Energy>  (59) 
85.01490418129275

>  <Genealogy>  (59) 
[H]/N=c1\c(C(=O)N[C@@H](C)c2ccccc2)cc2c(=O)n3cc(Cl)cc(Cl)c3nc2n1Cc1ccccc1 (cis-trans isomerization)
[H]/N=c1\c(C(=O)N[C@@H](C)c2ccccc2)cc2c(=O)n3cc(Cl)cc(Cl)c3nc2n1Cc1ccccc1 (3D coordinates assigned)
[H]/N=c1\c(C(=O)N[C@@H](C)c2ccccc2)cc2c(=O)n3cc(Cl)cc(Cl)c3nc2n1Cc1ccccc1 (optimized conformer: 85.01490418129275 kcal/mol)

>  <smiles>  (59) 
C[C@H](NC(=O)c1cc2c(=O)n3cc(Cl)cc(Cl)c3nc2n(Cc2ccccc2)c1=N)c1ccccc1

>  <score_type>  (59) 
oracle

>  <origin>  (59) 
autodockgpu

>  <m_score__min__energy>  (59) 
-8.8900000000000006

>  <m_primary>  (59) 
energy

>  <meeko>  (59) 
{"free_energy": -8.7, "intermolecular_energy": -10.49, "internal_energy": -1.73, "cluster_size": 9, "cluster_id": 2, "rank_in_cluster": 4}

>  <energy>  (59) 
-8.57

>  <cluster_rmsd>  (59) 
0.1

>  <rmsd>  (59) 
270.52

>  <cluster>  (59) 
3

$$$$
AFKJZVLHPMIVAS-NUAMYCNZNA-N
     RDKit          3D

 57 61  0  0  0  0  0  0  0  0999 V2000
  142.4180   75.2960  221.5820 H   0  0  0  0  0  0  0  0  0  0  0  0
  141.8020   75.9980  221.1180 N   0  0  0  0  0  0  0  0  0  0  0  0
  140.6090   76.3340  221.5200 C   0  0  0  0  0  0  0  0  0  0  0  0
  139.7120   75.3520  222.0130 C   0  0  0  0  0  0  0  0  0  0  0  0
  140.0120   73.9030  221.9830 C   0  0  0  0  0  0  0  0  0  0  0  0
  141.1430   73.5120  221.5840 O   0  0  0  0  0  0  0  0  0  0  0  0
  139.0080   72.9510  222.3710 N   0  0  0  0  0  0  0  0  0  0  0  0
  138.0980   73.3130  222.7380 H   0  0  0  0  0  0  0  0  0  0  0  0
  139.2000   71.4960  222.3570 C   0  0  2  0  0  0  0  0  0  0  0  0
  138.2390   70.9935  222.1726 H   0  0  0  0  0  0  0  0  0  0  0  0
  139.6500   71.0010  223.7230 C   0  0  0  0  0  0  0  0  0  0  0  0
  138.9460   69.9370  224.3160 C   0  0  0  0  0  0  0  0  0  0  0  0
  138.1087   69.4703  223.7765 H   0  0  0  0  0  0  0  0  0  0  0  0
  139.3000   69.4670  225.5840 C   0  0  0  0  0  0  0  0  0  0  0  0
  138.7471   68.6293  226.0340 H   0  0  0  0  0  0  0  0  0  0  0  0
  140.3560   70.0610  226.2800 C   0  0  0  0  0  0  0  0  0  0  0  0
  140.6359   69.6893  227.2767 H   0  0  0  0  0  0  0  0  0  0  0  0
  141.0550   71.1250  225.7110 C   0  0  0  0  0  0  0  0  0  0  0  0
  141.8841   71.5931  226.2619 H   0  0  0  0  0  0  0  0  0  0  0  0
  140.7060   71.5990  224.4430 C   0  0  0  0  0  0  0  0  0  0  0  0
  141.2579   72.4432  224.0039 H   0  0  0  0  0  0  0  0  0  0  0  0
  140.0970   71.0750  221.1840 C   0  0  0  0  0  0  0  0  0  0  0  0
  141.0284   70.6379  221.5732 H   0  0  0  0  0  0  0  0  0  0  0  0
  139.5710   70.3297  220.5693 H   0  0  0  0  0  0  0  0  0  0  0  0
  140.3342   71.9558  220.5693 H   0  0  0  0  0  0  0  0  0  0  0  0
  138.4760   75.7560  222.5190 C   0  0  0  0  0  0  0  0  0  0  0  0
  137.7822   75.0058  222.9263 H   0  0  0  0  0  0  0  0  0  0  0  0
  138.1120   77.1040  222.5130 C   0  0  0  0  0  0  0  0  0  0  0  0
  136.8670   77.5420  223.0050 C   0  0  0  0  0  0  0  0  0  0  0  0
  136.0540   76.6990  223.4790 O   0  0  0  0  0  0  0  0  0  0  0  0
  136.5410   78.8760  222.9690 N   0  0  0  0  0  0  0  0  0  0  0  0
  135.3290   79.3130  223.4440 C   0  0  0  0  0  0  0  0  0  0  0  0
  134.6143   78.5866  223.8582 H   0  0  0  0  0  0  0  0  0  0  0  0
  134.9920   80.6680  223.4080 C   0  0  0  0  0  0  0  0  0  0  0  0
  133.4400   81.2100  224.0200 Cl  0  0  0  0  0  0  0  0  0  0  0  0
  135.8950   81.5870  222.8820 C   0  0  0  0  0  0  0  0  0  0  0  0
  135.6373   82.6558  222.8475 H   0  0  0  0  0  0  0  0  0  0  0  0
  137.1270   81.1490  222.3990 C   0  0  0  0  0  0  0  0  0  0  0  0
  138.2600   82.3200  221.7360 Cl  0  0  0  0  0  0  0  0  0  0  0  0
  137.4400   79.7820  222.4480 C   0  0  0  0  0  0  0  0  0  0  0  0
  138.6390   79.3570  221.9770 N   0  0  0  0  0  0  0  0  0  0  0  0
  139.0070   78.0500  221.9880 C   0  0  0  0  0  0  0  0  0  0  0  0
  140.2360   77.6640  221.5020 N   0  0  0  0  0  0  0  0  0  0  0  0
  141.1480   78.6810  220.9220 C   0  0  0  0  0  0  0  0  0  0  0  0
  142.0421   78.1797  220.5230 H   0  0  0  0  0  0  0  0  0  0  0  0
  140.6205   79.2137  220.1170 H   0  0  0  0  0  0  0  0  0  0  0  0
  141.5660   79.6780  221.9740 C   0  0  0  0  0  0  0  0  0  0  0  0
  141.4020   81.0560  221.7540 C   0  0  0  0  0  0  0  0  0  0  0  0
  140.9421   81.4100  220.8195 H   0  0  0  0  0  0  0  0  0  0  0  0
  141.8200   81.9790  222.7160 C   0  0  0  0  0  0  0  0  0  0  0  0
  141.6872   83.0562  222.5372 H   0  0  0  0  0  0  0  0  0  0  0  0
  142.4060   81.5370  223.9040 C   0  0  0  0  0  0  0  0  0  0  0  0
  142.7351   82.2654  224.6597 H   0  0  0  0  0  0  0  0  0  0  0  0
  142.5740   80.1690  224.1320 C   0  0  0  0  0  0  0  0  0  0  0  0
  143.0343   79.8208  225.0684 H   0  0  0  0  0  0  0  0  0  0  0  0
  142.1580   79.2420  223.1720 C   0  0  0  0  0  0  0  0  0  0  0  0
  142.2946   78.1660  223.3550 H   0  0  0  0  0  0  0  0  0  0  0  0
  1  2  1  0
  2  3  2  0
  3  4  1  0
  4  5  1  0
  5  6  2  0
  5  7  1  0
  7  8  1  0
  7  9  1  0
  9 10  1  6
  9 11  1  0
 11 12  2  0
 12 13  1  0
 12 14  1  0
 14 15  1  0
 14 16  2  0
 16 17  1  0
 16 18  1  0
 18 19  1  0
 18 20  2  0
 20 21  1  0
  9 22  1  0
 22 23  1  0
 22 24  1  0
 22 25  1  0
  4 26  2  0
 26 27  1  0
 26 28  1  0
 28 29  1  0
 29 30  2  0
 29 31  1  0
 31 32  1  0
 32 33  1  0
 32 34  2  0
 34 35  1  0
 34 36  1  0
 36 37  1  0
 36 38  2  0
 38 39  1  0
 38 40  1  0
 40 41  2  0
 41 42  1  0
 42 43  1  0
 43 44  1  0
 44 45  1  0
 44 46  1  0
 44 47  1  0
 47 48  2  0
 48 49  1  0
 48 50  1  0
 50 51  1  0
 50 52  2  0
 52 53  1  0
 52 54  1  0
 54 55  1  0
 54 56  2  0
 56 57  1  0
 43  3  1  0
 56 47  1  0
 20 11  1  0
 42 28  2  0
 40 31  1  0
M  END
>  <UniqueID>  (60) 
98

>  <SMILES>  (60) 
[H]/N=c1\c(C(=O)N[C@@H](C)c2ccccc2)cc2c(=O)n3cc(Cl)cc(Cl)c3nc2n1Cc1ccccc1

>  <Energy>  (60) 
85.01490418129275

>  <Genealogy>  (60) 
[H]/N=c1\c(C(=O)N[C@@H](C)c2ccccc2)cc2c(=O)n3cc(Cl)cc(Cl)c3nc2n1Cc1ccccc1 (cis-trans isomerization)
[H]/N=c1\c(C(=O)N[C@@H](C)c2ccccc2)cc2c(=O)n3cc(Cl)cc(Cl)c3nc2n1Cc1ccccc1 (3D coordinates assigned)
[H]/N=c1\c(C(=O)N[C@@H](C)c2ccccc2)cc2c(=O)n3cc(Cl)cc(Cl)c3nc2n1Cc1ccccc1 (optimized conformer: 85.01490418129275 kcal/mol)

>  <smiles>  (60) 
C[C@H](NC(=O)c1cc2c(=O)n3cc(Cl)cc(Cl)c3nc2n(Cc2ccccc2)c1=N)c1ccccc1

>  <score_type>  (60) 
oracle

>  <origin>  (60) 
autodockgpu

>  <m_score__min__energy>  (60) 
-8.8900000000000006

>  <m_primary>  (60) 
energy

>  <meeko>  (60) 
{"free_energy": -8.57, "intermolecular_energy": -10.36, "internal_energy": -1.66, "cluster_size": 3, "cluster_id": 3, "rank_in_cluster": 1}

>  <energy>  (60) 
-8.55

>  <cluster_rmsd>  (60) 
0.15

>  <rmsd>  (60) 
270.48

>  <cluster>  (60) 
3

$$$$
AFKJZVLHPMIVAS-GTMIJVOPNA-N
     RDKit          3D

 57 61  0  0  0  0  0  0  0  0999 V2000
  138.8550   74.8480  222.6980 H   0  0  0  0  0  0  0  0  0  0  0  0
  139.5580   75.6160  222.7700 N   0  0  0  0  0  0  0  0  0  0  0  0
  140.1570   76.1720  221.7560 C   0  0  0  0  0  0  0  0  0  0  0  0
  140.7740   75.3720  220.7670 C   0  0  0  0  0  0  0  0  0  0  0  0
  140.7880   73.8960  220.8470 C   0  0  0  0  0  0  0  0  0  0  0  0
  141.3560   73.1540  219.9350 N   0  0  0  0  0  0  0  0  0  0  0  0
  142.3180   72.0700  220.1630 C   0  0  2  0  0  0  0  0  0  0  0  0
  142.1275   71.5617  221.1198 H   0  0  0  0  0  0  0  0  0  0  0  0
  143.7070   72.6630  220.2340 C   0  0  0  0  0  0  0  0  0  0  0  0
  143.9290   73.9900  220.6590 C   0  0  0  0  0  0  0  0  0  0  0  0
  143.0729   74.6386  220.8964 H   0  0  0  0  0  0  0  0  0  0  0  0
  145.2300   74.4850  220.7800 C   0  0  0  0  0  0  0  0  0  0  0  0
  145.3928   75.5288  221.0866 H   0  0  0  0  0  0  0  0  0  0  0  0
  146.3250   73.6590  220.5130 C   0  0  0  0  0  0  0  0  0  0  0  0
  147.3478   74.0516  220.6111 H   0  0  0  0  0  0  0  0  0  0  0  0
  146.1190   72.3330  220.1210 C   0  0  0  0  0  0  0  0  0  0  0  0
  146.9809   71.6804  219.9177 H   0  0  0  0  0  0  0  0  0  0  0  0
  144.8200   71.8350  219.9870 C   0  0  0  0  0  0  0  0  0  0  0  0
  144.6653   70.7883  219.6863 H   0  0  0  0  0  0  0  0  0  0  0  0
  142.1650   71.0030  219.0710 C   0  0  0  0  0  0  0  0  0  0  0  0
  142.0237   70.0174  219.5386 H   0  0  0  0  0  0  0  0  0  0  0  0
  141.2918   71.2408  218.4458 H   0  0  0  0  0  0  0  0  0  0  0  0
  143.0699   70.9858  218.4458 H   0  0  0  0  0  0  0  0  0  0  0  0
  140.1560   73.2860  221.9280 O   0  0  0  0  0  0  0  0  0  0  0  0
  139.8180   73.8330  222.7120 H   0  0  0  0  0  0  0  0  0  0  0  0
  141.3950   75.9840  219.6790 C   0  0  0  0  0  0  0  0  0  0  0  0
  141.8911   75.3684  218.9142 H   0  0  0  0  0  0  0  0  0  0  0  0
  141.3900   77.3740  219.5560 C   0  0  0  0  0  0  0  0  0  0  0  0
  141.9900   78.0270  218.4620 C   0  0  0  0  0  0  0  0  0  0  0  0
  142.5320   77.3410  217.5460 O   0  0  0  0  0  0  0  0  0  0  0  0
  141.9840   79.3990  218.3890 N   0  0  0  0  0  0  0  0  0  0  0  0
  142.5680   80.0450  217.3260 C   0  0  0  0  0  0  0  0  0  0  0  0
  143.0338   79.4567  216.5217 H   0  0  0  0  0  0  0  0  0  0  0  0
  142.5770   81.4380  217.2550 C   0  0  0  0  0  0  0  0  0  0  0  0
  143.3370   82.2480  215.8970 Cl  0  0  0  0  0  0  0  0  0  0  0  0
  141.9820   82.1840  218.2710 C   0  0  0  0  0  0  0  0  0  0  0  0
  141.9917   83.2831  218.2273 H   0  0  0  0  0  0  0  0  0  0  0  0
  141.3750   81.5320  219.3420 C   0  0  0  0  0  0  0  0  0  0  0  0
  140.6260   82.4850  220.6190 Cl  0  0  0  0  0  0  0  0  0  0  0  0
  141.3840   80.1300  219.3910 C   0  0  0  0  0  0  0  0  0  0  0  0
  140.7900   79.4980  220.4330 N   0  0  0  0  0  0  0  0  0  0  0  0
  140.7720   78.1450  220.5520 C   0  0  0  0  0  0  0  0  0  0  0  0
  140.1740   77.5470  221.6410 N   0  0  0  0  0  0  0  0  0  0  0  0
  139.5990   78.3890  222.7190 C   0  0  0  0  0  0  0  0  0  0  0  0
  138.7344   78.9429  222.3244 H   0  0  0  0  0  0  0  0  0  0  0  0
  139.2843   77.7404  223.5498 H   0  0  0  0  0  0  0  0  0  0  0  0
  140.6290   79.3690  223.2250 C   0  0  0  0  0  0  0  0  0  0  0  0
  140.2760   80.7080  223.4760 C   0  0  0  0  0  0  0  0  0  0  0  0
  139.2299   81.0279  223.3603 H   0  0  0  0  0  0  0  0  0  0  0  0
  141.2470   81.6360  223.8720 C   0  0  0  0  0  0  0  0  0  0  0  0
  140.9638   82.6828  224.0564 H   0  0  0  0  0  0  0  0  0  0  0  0
  142.5740   81.2340  224.0330 C   0  0  0  0  0  0  0  0  0  0  0  0
  143.3364   81.9633  224.3443 H   0  0  0  0  0  0  0  0  0  0  0  0
  142.9330   79.9030  223.7980 C   0  0  0  0  0  0  0  0  0  0  0  0
  143.9775   79.5853  223.9326 H   0  0  0  0  0  0  0  0  0  0  0  0
  141.9680   78.9730  223.3920 C   0  0  0  0  0  0  0  0  0  0  0  0
  142.2584   77.9290  223.2030 H   0  0  0  0  0  0  0  0  0  0  0  0
  1  2  1  0
  2  3  2  0
  3  4  1  0
  4  5  1  0
  5  6  2  0
  6  7  1  0
  7  8  1  1
  7  9  1  0
  9 10  2  0
 10 11  1  0
 10 12  1  0
 12 13  1  0
 12 14  2  0
 14 15  1  0
 14 16  1  0
 16 17  1  0
 16 18  2  0
 18 19  1  0
  7 20  1  0
 20 21  1  0
 20 22  1  0
 20 23  1  0
  5 24  1  0
 24 25  1  0
  4 26  2  0
 26 27  1  0
 26 28  1  0
 28 29  1  0
 29 30  2  0
 29 31  1  0
 31 32  1  0
 32 33  1  0
 32 34  2  0
 34 35  1  0
 34 36  1  0
 36 37  1  0
 36 38  2  0
 38 39  1  0
 38 40  1  0
 40 41  2  0
 41 42  1  0
 42 43  1  0
 43 44  1  0
 44 45  1  0
 44 46  1  0
 44 47  1  0
 47 48  2  0
 48 49  1  0
 48 50  1  0
 50 51  1  0
 50 52  2  0
 52 53  1  0
 52 54  1  0
 54 55  1  0
 54 56  2  0
 56 57  1  0
 43  3  1  0
 56 47  1  0
 18  9  1  0
 42 28  2  0
 40 31  1  0
M  END
>  <UniqueID>  (61) 
99

>  <SMILES>  (61) 
[H]/N=c1\c(/C(O)=N\[C@@H](C)c2ccccc2)cc2c(=O)n3cc(Cl)cc(Cl)c3nc2n1Cc1ccccc1

>  <Energy>  (61) 
87.676056261595

>  <Genealogy>  (61) 
C[C@H](N=C(O)c1cc2c(=O)n3cc(Cl)cc(Cl)c3nc2n(Cc2ccccc2)c1=N)c1ccccc1 (tautomer)
[H]/N=c1\c(/C(O)=N\[C@@H](C)c2ccccc2)cc2c(=O)n3cc(Cl)cc(Cl)c3nc2n1Cc1ccccc1 (cis-trans isomerization)
[H]/N=c1\c(/C(O)=N\[C@@H](C)c2ccccc2)cc2c(=O)n3cc(Cl)cc(Cl)c3nc2n1Cc1ccccc1 (3D coordinates assigned)
[H]/N=c1\c(/C(O)=N\[C@@H](C)c2ccccc2)cc2c(=O)n3cc(Cl)cc(Cl)c3nc2n1Cc1ccccc1 (optimized conformer: 87.676056261595 kcal/mol)

>  <smiles>  (61) 
C[C@H](NC(=O)c1cc2c(=O)n3cc(Cl)cc(Cl)c3nc2n(Cc2ccccc2)c1=N)c1ccccc1

>  <score_type>  (61) 
oracle

>  <origin>  (61) 
autodockgpu

>  <m_score__min__energy>  (61) 
-8.75

>  <m_primary>  (61) 
energy

>  <meeko>  (61) 
{"free_energy": -8.35, "intermolecular_energy": -10.74, "internal_energy": -2.42, "cluster_size": 7, "cluster_id": 2, "rank_in_cluster": 3}

>  <energy>  (61) 
-8.75

>  <cluster_rmsd>  (61) 
0.0

>  <rmsd>  (61) 
270.02

>  <cluster>  (61) 
1

$$$$
AFKJZVLHPMIVAS-GTMIJVOPNA-N
     RDKit          3D

 57 61  0  0  0  0  0  0  0  0999 V2000
  140.3260   69.9130  221.7020 H   0  0  0  0  0  0  0  0  0  0  0  0
  140.6820   70.6410  221.0450 N   0  0  0  0  0  0  0  0  0  0  0  0
  140.5100   71.9230  221.1920 C   0  0  0  0  0  0  0  0  0  0  0  0
  139.6290   72.4140  222.1830 C   0  0  0  0  0  0  0  0  0  0  0  0
  138.8590   71.5130  223.0650 C   0  0  0  0  0  0  0  0  0  0  0  0
  139.3750   70.4280  223.5760 N   0  0  0  0  0  0  0  0  0  0  0  0
  138.9400   69.7440  224.7990 C   0  0  2  0  0  0  0  0  0  0  0  0
  137.8600   69.8709  224.9646 H   0  0  0  0  0  0  0  0  0  0  0  0
  139.6550   70.3620  225.9800 C   0  0  0  0  0  0  0  0  0  0  0  0
  139.5680   69.8070  227.2740 C   0  0  0  0  0  0  0  0  0  0  0  0
  138.9232   68.9340  227.4532 H   0  0  0  0  0  0  0  0  0  0  0  0
  140.2980   70.3620  228.3300 C   0  0  0  0  0  0  0  0  0  0  0  0
  140.2049   69.9402  229.3416 H   0  0  0  0  0  0  0  0  0  0  0  0
  141.1450   71.4500  228.1050 C   0  0  0  0  0  0  0  0  0  0  0  0
  141.7184   71.8829  228.9379 H   0  0  0  0  0  0  0  0  0  0  0  0
  141.2630   71.9880  226.8200 C   0  0  0  0  0  0  0  0  0  0  0  0
  141.9358   72.8396  226.6410 H   0  0  0  0  0  0  0  0  0  0  0  0
  140.5280   71.4460  225.7630 C   0  0  0  0  0  0  0  0  0  0  0  0
  140.6318   71.8691  224.7530 H   0  0  0  0  0  0  0  0  0  0  0  0
  139.1810   68.2340  224.6620 C   0  0  0  0  0  0  0  0  0  0  0  0
  139.2531   67.7820  225.6622 H   0  0  0  0  0  0  0  0  0  0  0  0
  138.3443   67.7775  224.1128 H   0  0  0  0  0  0  0  0  0  0  0  0
  140.1182   68.0606  224.1128 H   0  0  0  0  0  0  0  0  0  0  0  0
  137.5310   71.8320  223.3400 O   0  0  0  0  0  0  0  0  0  0  0  0
  137.2860   72.7020  223.7980 H   0  0  0  0  0  0  0  0  0  0  0  0
  139.4710   73.7900  222.3390 C   0  0  0  0  0  0  0  0  0  0  0  0
  138.7744   74.1782  223.0966 H   0  0  0  0  0  0  0  0  0  0  0  0
  140.1920   74.6780  221.5390 C   0  0  0  0  0  0  0  0  0  0  0  0
  140.0730   76.0740  221.6800 C   0  0  0  0  0  0  0  0  0  0  0  0
  139.3100   76.5480  222.5720 O   0  0  0  0  0  0  0  0  0  0  0  0
  140.7830   76.9140  220.8560 N   0  0  0  0  0  0  0  0  0  0  0  0
  140.6730   78.2770  220.9860 C   0  0  0  0  0  0  0  0  0  0  0  0
  140.0203   78.6980  221.7649 H   0  0  0  0  0  0  0  0  0  0  0  0
  141.3800   79.1340  220.1410 C   0  0  0  0  0  0  0  0  0  0  0  0
  141.2200   80.8720  220.3120 Cl  0  0  0  0  0  0  0  0  0  0  0  0
  142.2130   78.6010  219.1590 C   0  0  0  0  0  0  0  0  0  0  0  0
  142.7680   79.2687  218.4837 H   0  0  0  0  0  0  0  0  0  0  0  0
  142.3400   77.2180  219.0360 C   0  0  0  0  0  0  0  0  0  0  0  0
  143.3960   76.5580  217.7920 Cl  0  0  0  0  0  0  0  0  0  0  0  0
  141.6130   76.3800  219.8940 C   0  0  0  0  0  0  0  0  0  0  0  0
  141.7410   75.0360  219.7740 N   0  0  0  0  0  0  0  0  0  0  0  0
  141.0590   74.1640  220.5610 C   0  0  0  0  0  0  0  0  0  0  0  0
  141.2050   72.8040  220.3880 N   0  0  0  0  0  0  0  0  0  0  0  0
  142.0650   72.2910  219.2950 C   0  0  0  0  0  0  0  0  0  0  0  0
  141.9484   71.1995  219.2238 H   0  0  0  0  0  0  0  0  0  0  0  0
  141.7624   72.7656  218.3499 H   0  0  0  0  0  0  0  0  0  0  0  0
  143.5130   72.6200  219.5670 C   0  0  0  0  0  0  0  0  0  0  0  0
  144.0010   72.6510  220.8870 C   0  0  0  0  0  0  0  0  0  0  0  0
  143.3388   72.3747  221.7207 H   0  0  0  0  0  0  0  0  0  0  0  0
  145.3230   73.0310  221.1460 C   0  0  0  0  0  0  0  0  0  0  0  0
  145.6932   73.0609  222.1814 H   0  0  0  0  0  0  0  0  0  0  0  0
  146.1720   73.3720  220.0920 C   0  0  0  0  0  0  0  0  0  0  0  0
  147.2104   73.6719  220.2963 H   0  0  0  0  0  0  0  0  0  0  0  0
  145.7010   73.3320  218.7760 C   0  0  0  0  0  0  0  0  0  0  0  0
  146.3733   73.5922  217.9452 H   0  0  0  0  0  0  0  0  0  0  0  0
  144.3770   72.9620  218.5120 C   0  0  0  0  0  0  0  0  0  0  0  0
  144.0111   72.9387  217.4749 H   0  0  0  0  0  0  0  0  0  0  0  0
  1  2  1  0
  2  3  2  0
  3  4  1  0
  4  5  1  0
  5  6  2  0
  6  7  1  0
  7  8  1  1
  7  9  1  0
  9 10  2  0
 10 11  1  0
 10 12  1  0
 12 13  1  0
 12 14  2  0
 14 15  1  0
 14 16  1  0
 16 17  1  0
 16 18  2  0
 18 19  1  0
  7 20  1  0
 20 21  1  0
 20 22  1  0
 20 23  1  0
  5 24  1  0
 24 25  1  0
  4 26  2  0
 26 27  1  0
 26 28  1  0
 28 29  1  0
 29 30  2  0
 29 31  1  0
 31 32  1  0
 32 33  1  0
 32 34  2  0
 34 35  1  0
 34 36  1  0
 36 37  1  0
 36 38  2  0
 38 39  1  0
 38 40  1  0
 40 41  2  0
 41 42  1  0
 42 43  1  0
 43 44  1  0
 44 45  1  0
 44 46  1  0
 44 47  1  0
 47 48  2  0
 48 49  1  0
 48 50  1  0
 50 51  1  0
 50 52  2  0
 52 53  1  0
 52 54  1  0
 54 55  1  0
 54 56  2  0
 56 57  1  0
 43  3  1  0
 56 47  1  0
 18  9  1  0
 42 28  2  0
 40 31  1  0
M  END
>  <UniqueID>  (62) 
99

>  <SMILES>  (62) 
[H]/N=c1\c(/C(O)=N\[C@@H](C)c2ccccc2)cc2c(=O)n3cc(Cl)cc(Cl)c3nc2n1Cc1ccccc1

>  <Energy>  (62) 
87.676056261595

>  <Genealogy>  (62) 
C[C@H](N=C(O)c1cc2c(=O)n3cc(Cl)cc(Cl)c3nc2n(Cc2ccccc2)c1=N)c1ccccc1 (tautomer)
[H]/N=c1\c(/C(O)=N\[C@@H](C)c2ccccc2)cc2c(=O)n3cc(Cl)cc(Cl)c3nc2n1Cc1ccccc1 (cis-trans isomerization)
[H]/N=c1\c(/C(O)=N\[C@@H](C)c2ccccc2)cc2c(=O)n3cc(Cl)cc(Cl)c3nc2n1Cc1ccccc1 (3D coordinates assigned)
[H]/N=c1\c(/C(O)=N\[C@@H](C)c2ccccc2)cc2c(=O)n3cc(Cl)cc(Cl)c3nc2n1Cc1ccccc1 (optimized conformer: 87.676056261595 kcal/mol)

>  <smiles>  (62) 
C[C@H](NC(=O)c1cc2c(=O)n3cc(Cl)cc(Cl)c3nc2n(Cc2ccccc2)c1=N)c1ccccc1

>  <score_type>  (62) 
oracle

>  <origin>  (62) 
autodockgpu

>  <m_score__min__energy>  (62) 
-8.75

>  <m_primary>  (62) 
energy

>  <meeko>  (62) 
{"free_energy": -8.68, "intermolecular_energy": -11.06, "internal_energy": -1.92, "cluster_size": 2, "cluster_id": 1, "rank_in_cluster": 2}

>  <energy>  (62) 
-8.68

>  <cluster_rmsd>  (62) 
0.11

>  <rmsd>  (62) 
270.03

>  <cluster>  (62) 
1

$$$$
AFKJZVLHPMIVAS-GTMIJVOPNA-N
     RDKit          3D

 57 61  0  0  0  0  0  0  0  0999 V2000
  138.9040   74.9530  222.7080 H   0  0  0  0  0  0  0  0  0  0  0  0
  139.6460   75.6850  222.7630 N   0  0  0  0  0  0  0  0  0  0  0  0
  140.2220   76.2370  221.7340 C   0  0  0  0  0  0  0  0  0  0  0  0
  140.7900   75.4320  220.7200 C   0  0  0  0  0  0  0  0  0  0  0  0
  140.7770   73.9560  220.7890 C   0  0  0  0  0  0  0  0  0  0  0  0
  141.4300   73.2120  219.9380 N   0  0  0  0  0  0  0  0  0  0  0  0
  142.3260   72.0950  220.2580 C   0  0  2  0  0  0  0  0  0  0  0  0
  142.0586   71.6320  221.2193 H   0  0  0  0  0  0  0  0  0  0  0  0
  143.7350   72.6260  220.3890 C   0  0  0  0  0  0  0  0  0  0  0  0
  144.8580   71.8520  220.0290 C   0  0  0  0  0  0  0  0  0  0  0  0
  144.7213   70.8134  219.6935 H   0  0  0  0  0  0  0  0  0  0  0  0
  146.1440   72.3970  220.0960 C   0  0  0  0  0  0  0  0  0  0  0  0
  147.0160   71.7770  219.8407 H   0  0  0  0  0  0  0  0  0  0  0  0
  146.3250   73.7260  220.4860 C   0  0  0  0  0  0  0  0  0  0  0  0
  147.3378   74.1525  220.5344 H   0  0  0  0  0  0  0  0  0  0  0  0
  145.2170   74.5140  220.8150 C   0  0  0  0  0  0  0  0  0  0  0  0
  145.3585   75.5626  221.1158 H   0  0  0  0  0  0  0  0  0  0  0  0
  143.9310   73.9710  220.7620 C   0  0  0  0  0  0  0  0  0  0  0  0
  143.0635   74.5988  221.0136 H   0  0  0  0  0  0  0  0  0  0  0  0
  142.1840   70.9960  219.1960 C   0  0  0  0  0  0  0  0  0  0  0  0
  142.0581   70.0218  219.6911 H   0  0  0  0  0  0  0  0  0  0  0  0
  141.3053   71.2044  218.5679 H   0  0  0  0  0  0  0  0  0  0  0  0
  143.0868   70.9742  218.5679 H   0  0  0  0  0  0  0  0  0  0  0  0
  140.0240   73.3470  221.7900 O   0  0  0  0  0  0  0  0  0  0  0  0
  139.8170   73.8320  222.6560 H   0  0  0  0  0  0  0  0  0  0  0  0
  141.3870   76.0400  219.6170 C   0  0  0  0  0  0  0  0  0  0  0  0
  141.8456   75.4204  218.8323 H   0  0  0  0  0  0  0  0  0  0  0  0
  141.4060   77.4310  219.5030 C   0  0  0  0  0  0  0  0  0  0  0  0
  141.9830   78.0800  218.3940 C   0  0  0  0  0  0  0  0  0  0  0  0
  142.4800   77.3900  217.4560 O   0  0  0  0  0  0  0  0  0  0  0  0
  142.0020   79.4530  218.3310 N   0  0  0  0  0  0  0  0  0  0  0  0
  142.5620   80.0940  217.2540 C   0  0  0  0  0  0  0  0  0  0  0  0
  142.9878   79.5026  216.4300 H   0  0  0  0  0  0  0  0  0  0  0  0
  142.5970   81.4880  217.1930 C   0  0  0  0  0  0  0  0  0  0  0  0
  143.3280   82.2930  215.8160 Cl  0  0  0  0  0  0  0  0  0  0  0  0
  142.0510   82.2380  218.2330 C   0  0  0  0  0  0  0  0  0  0  0  0
  142.0809   83.3370  218.1967 H   0  0  0  0  0  0  0  0  0  0  0  0
  141.4670   81.5890  219.3190 C   0  0  0  0  0  0  0  0  0  0  0  0
  140.7800   82.5470  220.6260 Cl  0  0  0  0  0  0  0  0  0  0  0  0
  141.4500   80.1870  219.3580 C   0  0  0  0  0  0  0  0  0  0  0  0
  140.8770   79.5590  220.4140 N   0  0  0  0  0  0  0  0  0  0  0  0
  140.8360   78.2070  220.5250 C   0  0  0  0  0  0  0  0  0  0  0  0
  140.2620   77.6120  221.6280 N   0  0  0  0  0  0  0  0  0  0  0  0
  139.7400   78.4570  222.7300 C   0  0  0  0  0  0  0  0  0  0  0  0
  138.8641   79.0185  222.3729 H   0  0  0  0  0  0  0  0  0  0  0  0
  139.4552   77.8099  223.5727 H   0  0  0  0  0  0  0  0  0  0  0  0
  140.7990   79.4280  223.1930 C   0  0  0  0  0  0  0  0  0  0  0  0
  140.4390   80.7100  223.6490 C   0  0  0  0  0  0  0  0  0  0  0  0
  139.3765   80.9845  223.7246 H   0  0  0  0  0  0  0  0  0  0  0  0
  141.4240   81.6380  224.0070 C   0  0  0  0  0  0  0  0  0  0  0  0
  141.1340   82.6410  224.3533 H   0  0  0  0  0  0  0  0  0  0  0  0
  142.7740   81.2920  223.9250 C   0  0  0  0  0  0  0  0  0  0  0  0
  143.5474   82.0218  224.2063 H   0  0  0  0  0  0  0  0  0  0  0  0
  143.1420   80.0170  223.4850 C   0  0  0  0  0  0  0  0  0  0  0  0
  144.2057   79.7427  223.4277 H   0  0  0  0  0  0  0  0  0  0  0  0
  142.1610   79.0880  223.1170 C   0  0  0  0  0  0  0  0  0  0  0  0
  142.4573   78.0881  222.7670 H   0  0  0  0  0  0  0  0  0  0  0  0
  1  2  1  0
  2  3  2  0
  3  4  1  0
  4  5  1  0
  5  6  2  0
  6  7  1  0
  7  8  1  1
  7  9  1  0
  9 10  2  0
 10 11  1  0
 10 12  1  0
 12 13  1  0
 12 14  2  0
 14 15  1  0
 14 16  1  0
 16 17  1  0
 16 18  2  0
 18 19  1  0
  7 20  1  0
 20 21  1  0
 20 22  1  0
 20 23  1  0
  5 24  1  0
 24 25  1  0
  4 26  2  0
 26 27  1  0
 26 28  1  0
 28 29  1  0
 29 30  2  0
 29 31  1  0
 31 32  1  0
 32 33  1  0
 32 34  2  0
 34 35  1  0
 34 36  1  0
 36 37  1  0
 36 38  2  0
 38 39  1  0
 38 40  1  0
 40 41  2  0
 41 42  1  0
 42 43  1  0
 43 44  1  0
 44 45  1  0
 44 46  1  0
 44 47  1  0
 47 48  2  0
 48 49  1  0
 48 50  1  0
 50 51  1  0
 50 52  2  0
 52 53  1  0
 52 54  1  0
 54 55  1  0
 54 56  2  0
 56 57  1  0
 43  3  1  0
 56 47  1  0
 18  9  1  0
 42 28  2  0
 40 31  1  0
M  END
>  <UniqueID>  (63) 
99

>  <SMILES>  (63) 
[H]/N=c1\c(/C(O)=N\[C@@H](C)c2ccccc2)cc2c(=O)n3cc(Cl)cc(Cl)c3nc2n1Cc1ccccc1

>  <Energy>  (63) 
87.676056261595

>  <Genealogy>  (63) 
C[C@H](N=C(O)c1cc2c(=O)n3cc(Cl)cc(Cl)c3nc2n(Cc2ccccc2)c1=N)c1ccccc1 (tautomer)
[H]/N=c1\c(/C(O)=N\[C@@H](C)c2ccccc2)cc2c(=O)n3cc(Cl)cc(Cl)c3nc2n1Cc1ccccc1 (cis-trans isomerization)
[H]/N=c1\c(/C(O)=N\[C@@H](C)c2ccccc2)cc2c(=O)n3cc(Cl)cc(Cl)c3nc2n1Cc1ccccc1 (3D coordinates assigned)
[H]/N=c1\c(/C(O)=N\[C@@H](C)c2ccccc2)cc2c(=O)n3cc(Cl)cc(Cl)c3nc2n1Cc1ccccc1 (optimized conformer: 87.676056261595 kcal/mol)

>  <smiles>  (63) 
C[C@H](NC(=O)c1cc2c(=O)n3cc(Cl)cc(Cl)c3nc2n(Cc2ccccc2)c1=N)c1ccccc1

>  <score_type>  (63) 
oracle

>  <origin>  (63) 
autodockgpu

>  <m_score__min__energy>  (63) 
-8.75

>  <m_primary>  (63) 
energy

>  <meeko>  (63) 
{"free_energy": -8.28, "intermolecular_energy": -10.67, "internal_energy": -2.4, "cluster_size": 7, "cluster_id": 2, "rank_in_cluster": 4}

>  <energy>  (63) 
-8.45

>  <cluster_rmsd>  (63) 
0.0

>  <rmsd>  (63) 
270.26

>  <cluster>  (63) 
2

$$$$
AFKJZVLHPMIVAS-GTMIJVOPNA-N
     RDKit          3D

 57 61  0  0  0  0  0  0  0  0999 V2000
  139.6130   74.1530  223.0660 H   0  0  0  0  0  0  0  0  0  0  0  0
  140.3300   73.9660  222.3310 N   0  0  0  0  0  0  0  0  0  0  0  0
  140.5780   74.7480  221.3200 C   0  0  0  0  0  0  0  0  0  0  0  0
  139.9680   76.0210  221.2390 C   0  0  0  0  0  0  0  0  0  0  0  0
  139.0210   76.5050  222.2640 C   0  0  0  0  0  0  0  0  0  0  0  0
  139.0850   77.7120  222.7570 N   0  0  0  0  0  0  0  0  0  0  0  0
  139.3960   78.9430  222.0220 C   0  0  2  0  0  0  0  0  0  0  0  0
  139.5790   78.7362  220.9572 H   0  0  0  0  0  0  0  0  0  0  0  0
  140.6630   79.5400  222.5910 C   0  0  0  0  0  0  0  0  0  0  0  0
  141.9390   79.0480  222.2440 C   0  0  0  0  0  0  0  0  0  0  0  0
  142.0265   78.1719  221.5846 H   0  0  0  0  0  0  0  0  0  0  0  0
  143.0920   79.6670  222.7330 C   0  0  0  0  0  0  0  0  0  0  0  0
  144.0820   79.2605  222.4789 H   0  0  0  0  0  0  0  0  0  0  0  0
  142.9920   80.8010  223.5440 C   0  0  0  0  0  0  0  0  0  0  0  0
  143.9022   81.2869  223.9254 H   0  0  0  0  0  0  0  0  0  0  0  0
  141.7350   81.3170  223.8700 C   0  0  0  0  0  0  0  0  0  0  0  0
  141.6563   82.2135  224.5025 H   0  0  0  0  0  0  0  0  0  0  0  0
  140.5770   80.6950  223.3930 C   0  0  0  0  0  0  0  0  0  0  0  0
  139.5907   81.1110  223.6461 H   0  0  0  0  0  0  0  0  0  0  0  0
  138.1940   79.8970  222.0750 C   0  0  0  0  0  0  0  0  0  0  0  0
  137.9350   80.1026  223.1241 H   0  0  0  0  0  0  0  0  0  0  0  0
  138.4513   80.8394  221.5694 H   0  0  0  0  0  0  0  0  0  0  0  0
  137.3346   79.4324  221.5694 H   0  0  0  0  0  0  0  0  0  0  0  0
  138.0420   75.6290  222.7270 O   0  0  0  0  0  0  0  0  0  0  0  0
  138.2350   74.6400  222.8350 H   0  0  0  0  0  0  0  0  0  0  0  0
  140.2600   76.8520  220.1580 C   0  0  0  0  0  0  0  0  0  0  0  0
  139.7766   77.8369  220.0790 H   0  0  0  0  0  0  0  0  0  0  0  0
  141.1620   76.4410  219.1760 C   0  0  0  0  0  0  0  0  0  0  0  0
  141.4950   77.2610  218.0800 C   0  0  0  0  0  0  0  0  0  0  0  0
  140.9860   78.4160  217.9880 O   0  0  0  0  0  0  0  0  0  0  0  0
  142.3700   76.8100  217.1210 N   0  0  0  0  0  0  0  0  0  0  0  0
  142.7010   77.6020  216.0490 C   0  0  0  0  0  0  0  0  0  0  0  0
  142.2706   78.6108  215.9650 H   0  0  0  0  0  0  0  0  0  0  0  0
  143.5770   77.1420  215.0650 C   0  0  0  0  0  0  0  0  0  0  0  0
  143.9810   78.1610  213.6960 Cl  0  0  0  0  0  0  0  0  0  0  0  0
  144.1290   75.8670  215.1750 C   0  0  0  0  0  0  0  0  0  0  0  0
  144.8153   75.4937  214.4006 H   0  0  0  0  0  0  0  0  0  0  0  0
  143.8080   75.0670  216.2700 C   0  0  0  0  0  0  0  0  0  0  0  0
  144.5110   73.4590  216.3980 Cl  0  0  0  0  0  0  0  0  0  0  0  0
  142.9200   75.5520  217.2420 C   0  0  0  0  0  0  0  0  0  0  0  0
  142.6120   74.7730  218.3080 N   0  0  0  0  0  0  0  0  0  0  0  0
  141.7520   75.1720  219.2800 C   0  0  0  0  0  0  0  0  0  0  0  0
  141.4520   74.3370  220.3350 N   0  0  0  0  0  0  0  0  0  0  0  0
  142.0280   72.9700  220.3770 C   0  0  0  0  0  0  0  0  0  0  0  0
  141.7232   72.4766  221.3117 H   0  0  0  0  0  0  0  0  0  0  0  0
  141.6589   72.4001  219.5116 H   0  0  0  0  0  0  0  0  0  0  0  0
  143.5350   73.0330  220.3160 C   0  0  0  0  0  0  0  0  0  0  0  0
  144.2720   71.9610  219.7790 C   0  0  0  0  0  0  0  0  0  0  0  0
  143.7446   71.0982  219.3461 H   0  0  0  0  0  0  0  0  0  0  0  0
  145.6710   71.9850  219.7920 C   0  0  0  0  0  0  0  0  0  0  0  0
  146.2388   71.1384  219.3786 H   0  0  0  0  0  0  0  0  0  0  0  0
  146.3470   73.0820  220.3290 C   0  0  0  0  0  0  0  0  0  0  0  0
  147.4468   73.1001  220.3392 H   0  0  0  0  0  0  0  0  0  0  0  0
  145.6240   74.1580  220.8540 C   0  0  0  0  0  0  0  0  0  0  0  0
  146.1572   75.0255  221.2700 H   0  0  0  0  0  0  0  0  0  0  0  0
  144.2240   74.1350  220.8520 C   0  0  0  0  0  0  0  0  0  0  0  0
  143.6613   74.9821  221.2713 H   0  0  0  0  0  0  0  0  0  0  0  0
  1  2  1  0
  2  3  2  0
  3  4  1  0
  4  5  1  0
  5  6  2  0
  6  7  1  0
  7  8  1  6
  7  9  1  0
  9 10  2  0
 10 11  1  0
 10 12  1  0
 12 13  1  0
 12 14  2  0
 14 15  1  0
 14 16  1  0
 16 17  1  0
 16 18  2  0
 18 19  1  0
  7 20  1  0
 20 21  1  0
 20 22  1  0
 20 23  1  0
  5 24  1  0
 24 25  1  0
  4 26  2  0
 26 27  1  0
 26 28  1  0
 28 29  1  0
 29 30  2  0
 29 31  1  0
 31 32  1  0
 32 33  1  0
 32 34  2  0
 34 35  1  0
 34 36  1  0
 36 37  1  0
 36 38  2  0
 38 39  1  0
 38 40  1  0
 40 41  2  0
 41 42  1  0
 42 43  1  0
 43 44  1  0
 44 45  1  0
 44 46  1  0
 44 47  1  0
 47 48  2  0
 48 49  1  0
 48 50  1  0
 50 51  1  0
 50 52  2  0
 52 53  1  0
 52 54  1  0
 54 55  1  0
 54 56  2  0
 56 57  1  0
 43  3  1  0
 56 47  1  0
 18  9  1  0
 42 28  2  0
 40 31  1  0
M  END
>  <UniqueID>  (64) 
99

>  <SMILES>  (64) 
[H]/N=c1\c(/C(O)=N\[C@@H](C)c2ccccc2)cc2c(=O)n3cc(Cl)cc(Cl)c3nc2n1Cc1ccccc1

>  <Energy>  (64) 
87.676056261595

>  <Genealogy>  (64) 
C[C@H](N=C(O)c1cc2c(=O)n3cc(Cl)cc(Cl)c3nc2n(Cc2ccccc2)c1=N)c1ccccc1 (tautomer)
[H]/N=c1\c(/C(O)=N\[C@@H](C)c2ccccc2)cc2c(=O)n3cc(Cl)cc(Cl)c3nc2n1Cc1ccccc1 (cis-trans isomerization)
[H]/N=c1\c(/C(O)=N\[C@@H](C)c2ccccc2)cc2c(=O)n3cc(Cl)cc(Cl)c3nc2n1Cc1ccccc1 (3D coordinates assigned)
[H]/N=c1\c(/C(O)=N\[C@@H](C)c2ccccc2)cc2c(=O)n3cc(Cl)cc(Cl)c3nc2n1Cc1ccccc1 (optimized conformer: 87.676056261595 kcal/mol)

>  <smiles>  (64) 
C[C@H](NC(=O)c1cc2c(=O)n3cc(Cl)cc(Cl)c3nc2n(Cc2ccccc2)c1=N)c1ccccc1

>  <score_type>  (64) 
oracle

>  <origin>  (64) 
autodockgpu

>  <m_score__min__energy>  (64) 
-8.75

>  <m_primary>  (64) 
energy

>  <meeko>  (64) 
{"free_energy": -8.24, "intermolecular_energy": -10.62, "internal_energy": -2.38, "cluster_size": 3, "cluster_id": 3, "rank_in_cluster": 3}

>  <energy>  (64) 
-8.45

>  <cluster_rmsd>  (64) 
0.05

>  <rmsd>  (64) 
270.24

>  <cluster>  (64) 
2

$$$$
AFKJZVLHPMIVAS-GTMIJVOPNA-N
     RDKit          3D

 57 61  0  0  0  0  0  0  0  0999 V2000
  137.6490   74.3610  222.6910 H   0  0  0  0  0  0  0  0  0  0  0  0
  137.2150   75.1960  222.2390 N   0  0  0  0  0  0  0  0  0  0  0  0
  137.4100   76.4280  222.6130 C   0  0  0  0  0  0  0  0  0  0  0  0
  138.7220   76.9470  222.6960 C   0  0  0  0  0  0  0  0  0  0  0  0
  139.9130   76.1260  222.3910 C   0  0  0  0  0  0  0  0  0  0  0  0
  141.0910   76.6530  222.1970 N   0  0  0  0  0  0  0  0  0  0  0  0
  141.4520   77.6340  221.1670 C   0  0  2  0  0  0  0  0  0  0  0  0
  142.3680   77.3364  220.6356 H   0  0  0  0  0  0  0  0  0  0  0  0
  141.7290   78.9600  221.8380 C   0  0  0  0  0  0  0  0  0  0  0  0
  141.4360   80.1880  221.2070 C   0  0  0  0  0  0  0  0  0  0  0  0
  141.0468   80.1955  220.1782 H   0  0  0  0  0  0  0  0  0  0  0  0
  141.6380   81.3950  221.8830 C   0  0  0  0  0  0  0  0  0  0  0  0
  141.4322   82.3486  221.3747 H   0  0  0  0  0  0  0  0  0  0  0  0
  142.1000   81.3950  223.2010 C   0  0  0  0  0  0  0  0  0  0  0  0
  142.2561   82.3469  223.7298 H   0  0  0  0  0  0  0  0  0  0  0  0
  142.3640   80.1830  223.8480 C   0  0  0  0  0  0  0  0  0  0  0  0
  142.7208   80.1820  224.8885 H   0  0  0  0  0  0  0  0  0  0  0  0
  142.1750   78.9740  223.1740 C   0  0  0  0  0  0  0  0  0  0  0  0
  142.3763   78.0244  223.6913 H   0  0  0  0  0  0  0  0  0  0  0  0
  140.3440   77.7050  220.1070 C   0  0  0  0  0  0  0  0  0  0  0  0
  139.3646   77.7678  220.6039 H   0  0  0  0  0  0  0  0  0  0  0  0
  140.4941   78.5954  219.4787 H   0  0  0  0  0  0  0  0  0  0  0  0
  140.3792   76.8028  219.4787 H   0  0  0  0  0  0  0  0  0  0  0  0
  139.7570   74.7460  222.2930 O   0  0  0  0  0  0  0  0  0  0  0  0
  139.0660   74.2570  222.8510 H   0  0  0  0  0  0  0  0  0  0  0  0
  138.9110   78.2730  223.0810 C   0  0  0  0  0  0  0  0  0  0  0  0
  139.9301   78.6787  223.1639 H   0  0  0  0  0  0  0  0  0  0  0  0
  137.8140   79.0890  223.3620 C   0  0  0  0  0  0  0  0  0  0  0  0
  137.9650   80.4390  223.7350 C   0  0  0  0  0  0  0  0  0  0  0  0
  139.1240   80.9430  223.7970 O   0  0  0  0  0  0  0  0  0  0  0  0
  136.8590   81.2020  224.0260 N   0  0  0  0  0  0  0  0  0  0  0  0
  136.9970   82.5190  224.3910 C   0  0  0  0  0  0  0  0  0  0  0  0
  137.9999   82.9683  224.4387 H   0  0  0  0  0  0  0  0  0  0  0  0
  135.8780   83.2930  224.7020 C   0  0  0  0  0  0  0  0  0  0  0  0
  136.0700   84.9700  225.1790 Cl  0  0  0  0  0  0  0  0  0  0  0  0
  134.6070   82.7260  224.6350 C   0  0  0  0  0  0  0  0  0  0  0  0
  133.7205   83.3270  224.8859 H   0  0  0  0  0  0  0  0  0  0  0  0
  134.4630   81.3950  224.2490 C   0  0  0  0  0  0  0  0  0  0  0  0
  132.8520   80.6910  224.1670 Cl  0  0  0  0  0  0  0  0  0  0  0  0
  135.6050   80.6380  223.9470 C   0  0  0  0  0  0  0  0  0  0  0  0
  135.4620   79.3440  223.5680 N   0  0  0  0  0  0  0  0  0  0  0  0
  136.5220   78.5480  223.2730 C   0  0  0  0  0  0  0  0  0  0  0  0
  136.3290   77.2310  222.9130 N   0  0  0  0  0  0  0  0  0  0  0  0
  134.9580   76.6650  222.9060 C   0  0  0  0  0  0  0  0  0  0  0  0
  134.2618   77.4062  222.4866 H   0  0  0  0  0  0  0  0  0  0  0  0
  134.9516   75.7518  222.2928 H   0  0  0  0  0  0  0  0  0  0  0  0
  134.5270   76.3160  224.3090 C   0  0  0  0  0  0  0  0  0  0  0  0
  134.7640   75.0300  224.8290 C   0  0  0  0  0  0  0  0  0  0  0  0
  135.3204   74.2934  224.2308 H   0  0  0  0  0  0  0  0  0  0  0  0
  134.2970   74.6810  226.1020 C   0  0  0  0  0  0  0  0  0  0  0  0
  134.4784   73.6703  226.4964 H   0  0  0  0  0  0  0  0  0  0  0  0
  133.6010   75.6160  226.8710 C   0  0  0  0  0  0  0  0  0  0  0  0
  133.2337   75.3416  227.8709 H   0  0  0  0  0  0  0  0  0  0  0  0
  133.3710   76.9010  226.3700 C   0  0  0  0  0  0  0  0  0  0  0  0
  132.8298   77.6390  226.9803 H   0  0  0  0  0  0  0  0  0  0  0  0
  133.8280   77.2510  225.0930 C   0  0  0  0  0  0  0  0  0  0  0  0
  133.6393   78.2616  224.7018 H   0  0  0  0  0  0  0  0  0  0  0  0
  1  2  1  0
  2  3  2  0
  3  4  1  0
  4  5  1  0
  5  6  2  0
  6  7  1  0
  7  8  1  6
  7  9  1  0
  9 10  2  0
 10 11  1  0
 10 12  1  0
 12 13  1  0
 12 14  2  0
 14 15  1  0
 14 16  1  0
 16 17  1  0
 16 18  2  0
 18 19  1  0
  7 20  1  0
 20 21  1  0
 20 22  1  0
 20 23  1  0
  5 24  1  0
 24 25  1  0
  4 26  2  0
 26 27  1  0
 26 28  1  0
 28 29  1  0
 29 30  2  0
 29 31  1  0
 31 32  1  0
 32 33  1  0
 32 34  2  0
 34 35  1  0
 34 36  1  0
 36 37  1  0
 36 38  2  0
 38 39  1  0
 38 40  1  0
 40 41  2  0
 41 42  1  0
 42 43  1  0
 43 44  1  0
 44 45  1  0
 44 46  1  0
 44 47  1  0
 47 48  2  0
 48 49  1  0
 48 50  1  0
 50 51  1  0
 50 52  2  0
 52 53  1  0
 52 54  1  0
 54 55  1  0
 54 56  2  0
 56 57  1  0
 43  3  1  0
 56 47  1  0
 18  9  1  0
 42 28  2  0
 40 31  1  0
M  END
>  <UniqueID>  (65) 
99

>  <SMILES>  (65) 
[H]/N=c1\c(/C(O)=N\[C@@H](C)c2ccccc2)cc2c(=O)n3cc(Cl)cc(Cl)c3nc2n1Cc1ccccc1

>  <Energy>  (65) 
87.676056261595

>  <Genealogy>  (65) 
C[C@H](N=C(O)c1cc2c(=O)n3cc(Cl)cc(Cl)c3nc2n(Cc2ccccc2)c1=N)c1ccccc1 (tautomer)
[H]/N=c1\c(/C(O)=N\[C@@H](C)c2ccccc2)cc2c(=O)n3cc(Cl)cc(Cl)c3nc2n1Cc1ccccc1 (cis-trans isomerization)
[H]/N=c1\c(/C(O)=N\[C@@H](C)c2ccccc2)cc2c(=O)n3cc(Cl)cc(Cl)c3nc2n1Cc1ccccc1 (3D coordinates assigned)
[H]/N=c1\c(/C(O)=N\[C@@H](C)c2ccccc2)cc2c(=O)n3cc(Cl)cc(Cl)c3nc2n1Cc1ccccc1 (optimized conformer: 87.676056261595 kcal/mol)

>  <smiles>  (65) 
C[C@H](NC(=O)c1cc2c(=O)n3cc(Cl)cc(Cl)c3nc2n(Cc2ccccc2)c1=N)c1ccccc1

>  <score_type>  (65) 
oracle

>  <origin>  (65) 
autodockgpu

>  <m_score__min__energy>  (65) 
-8.75

>  <m_primary>  (65) 
energy

>  <meeko>  (65) 
{"free_energy": -7.78, "intermolecular_energy": -10.17, "internal_energy": -2.75, "cluster_size": 8, "cluster_id": 4, "rank_in_cluster": 6}

>  <energy>  (65) 
-8.35

>  <cluster_rmsd>  (65) 
0.37

>  <rmsd>  (65) 
270.28

>  <cluster>  (65) 
2

$$$$
AFKJZVLHPMIVAS-GTMIJVOPNA-N
     RDKit          3D

 57 61  0  0  0  0  0  0  0  0999 V2000
  137.6150   74.3230  222.7150 H   0  0  0  0  0  0  0  0  0  0  0  0
  137.1900   75.1620  222.2630 N   0  0  0  0  0  0  0  0  0  0  0  0
  137.4020   76.3920  222.6330 C   0  0  0  0  0  0  0  0  0  0  0  0
  138.7220   76.8930  222.7140 C   0  0  0  0  0  0  0  0  0  0  0  0
  139.9010   76.0550  222.4120 C   0  0  0  0  0  0  0  0  0  0  0  0
  141.0870   76.5640  222.2180 N   0  0  0  0  0  0  0  0  0  0  0  0
  141.4510   77.5820  221.2260 C   0  0  2  0  0  0  0  0  0  0  0  0
  142.3928   77.3261  220.7185 H   0  0  0  0  0  0  0  0  0  0  0  0
  141.6630   78.8980  221.9400 C   0  0  0  0  0  0  0  0  0  0  0  0
  142.1770   78.9580  223.2530 C   0  0  0  0  0  0  0  0  0  0  0  0
  142.3820   78.0278  223.8032 H   0  0  0  0  0  0  0  0  0  0  0  0
  142.4270   80.1930  223.8580 C   0  0  0  0  0  0  0  0  0  0  0  0
  142.8020   80.2315  224.8914 H   0  0  0  0  0  0  0  0  0  0  0  0
  142.2020   81.3790  223.1540 C   0  0  0  0  0  0  0  0  0  0  0  0
  142.4020   82.3490  223.6327 H   0  0  0  0  0  0  0  0  0  0  0  0
  141.7230   81.3330  221.8420 C   0  0  0  0  0  0  0  0  0  0  0  0
  141.5528   82.2667  221.2858 H   0  0  0  0  0  0  0  0  0  0  0  0
  141.4600   80.1010  221.2360 C   0  0  0  0  0  0  0  0  0  0  0  0
  141.0912   80.0708  220.2001 H   0  0  0  0  0  0  0  0  0  0  0  0
  140.3770   77.6480  220.1320 C   0  0  0  0  0  0  0  0  0  0  0  0
  139.3824   77.7091  220.5978 H   0  0  0  0  0  0  0  0  0  0  0  0
  140.5444   78.5376  219.5070 H   0  0  0  0  0  0  0  0  0  0  0  0
  140.4343   76.7446  219.5070 H   0  0  0  0  0  0  0  0  0  0  0  0
  139.7250   74.6760  222.3150 O   0  0  0  0  0  0  0  0  0  0  0  0
  139.0280   74.1980  222.8750 H   0  0  0  0  0  0  0  0  0  0  0  0
  138.9300   78.2180  223.0940 C   0  0  0  0  0  0  0  0  0  0  0  0
  139.9546   78.6098  223.1752 H   0  0  0  0  0  0  0  0  0  0  0  0
  137.8440   79.0500  223.3720 C   0  0  0  0  0  0  0  0  0  0  0  0
  138.0140   80.3990  223.7410 C   0  0  0  0  0  0  0  0  0  0  0  0
  139.1800   80.8870  223.8020 O   0  0  0  0  0  0  0  0  0  0  0  0
  136.9190   81.1790  224.0300 N   0  0  0  0  0  0  0  0  0  0  0  0
  137.0750   82.4940  224.3900 C   0  0  0  0  0  0  0  0  0  0  0  0
  138.0842   82.9292  224.4357 H   0  0  0  0  0  0  0  0  0  0  0  0
  135.9670   83.2860  224.6990 C   0  0  0  0  0  0  0  0  0  0  0  0
  136.1830   84.9610  225.1700 Cl  0  0  0  0  0  0  0  0  0  0  0  0
  134.6880   82.7360  224.6330 C   0  0  0  0  0  0  0  0  0  0  0  0
  133.8097   83.3498  224.8816 H   0  0  0  0  0  0  0  0  0  0  0  0
  134.5260   81.4060  224.2510 C   0  0  0  0  0  0  0  0  0  0  0  0
  132.9050   80.7240  224.1720 Cl  0  0  0  0  0  0  0  0  0  0  0  0
  135.6570   80.6320  223.9520 C   0  0  0  0  0  0  0  0  0  0  0  0
  135.4950   79.3390  223.5780 N   0  0  0  0  0  0  0  0  0  0  0  0
  136.5440   78.5270  223.2860 C   0  0  0  0  0  0  0  0  0  0  0  0
  136.3330   77.2120  222.9300 N   0  0  0  0  0  0  0  0  0  0  0  0
  134.9540   76.6640  222.9250 C   0  0  0  0  0  0  0  0  0  0  0  0
  134.2868   77.3659  222.4033 H   0  0  0  0  0  0  0  0  0  0  0  0
  134.9576   75.6924  222.4093 H   0  0  0  0  0  0  0  0  0  0  0  0
  134.4620   76.4670  224.3380 C   0  0  0  0  0  0  0  0  0  0  0  0
  133.5110   77.3440  224.8910 C   0  0  0  0  0  0  0  0  0  0  0  0
  133.0785   78.1421  224.2698 H   0  0  0  0  0  0  0  0  0  0  0  0
  133.1110   77.2090  226.2250 C   0  0  0  0  0  0  0  0  0  0  0  0
  132.3746   77.9061  226.6514 H   0  0  0  0  0  0  0  0  0  0  0  0
  133.6460   76.1900  227.0150 C   0  0  0  0  0  0  0  0  0  0  0  0
  133.3309   76.0832  228.0635 H   0  0  0  0  0  0  0  0  0  0  0  0
  134.5830   75.3050  226.4720 C   0  0  0  0  0  0  0  0  0  0  0  0
  134.9986   74.4981  227.0934 H   0  0  0  0  0  0  0  0  0  0  0  0
  134.9940   75.4420  225.1410 C   0  0  0  0  0  0  0  0  0  0  0  0
  135.7354   74.7459  224.7217 H   0  0  0  0  0  0  0  0  0  0  0  0
  1  2  1  0
  2  3  2  0
  3  4  1  0
  4  5  1  0
  5  6  2  0
  6  7  1  0
  7  8  1  6
  7  9  1  0
  9 10  2  0
 10 11  1  0
 10 12  1  0
 12 13  1  0
 12 14  2  0
 14 15  1  0
 14 16  1  0
 16 17  1  0
 16 18  2  0
 18 19  1  0
  7 20  1  0
 20 21  1  0
 20 22  1  0
 20 23  1  0
  5 24  1  0
 24 25  1  0
  4 26  2  0
 26 27  1  0
 26 28  1  0
 28 29  1  0
 29 30  2  0
 29 31  1  0
 31 32  1  0
 32 33  1  0
 32 34  2  0
 34 35  1  0
 34 36  1  0
 36 37  1  0
 36 38  2  0
 38 39  1  0
 38 40  1  0
 40 41  2  0
 41 42  1  0
 42 43  1  0
 43 44  1  0
 44 45  1  0
 44 46  1  0
 44 47  1  0
 47 48  2  0
 48 49  1  0
 48 50  1  0
 50 51  1  0
 50 52  2  0
 52 53  1  0
 52 54  1  0
 54 55  1  0
 54 56  2  0
 56 57  1  0
 43  3  1  0
 56 47  1  0
 18  9  1  0
 42 28  2  0
 40 31  1  0
M  END
>  <UniqueID>  (66) 
99

>  <SMILES>  (66) 
[H]/N=c1\c(/C(O)=N\[C@@H](C)c2ccccc2)cc2c(=O)n3cc(Cl)cc(Cl)c3nc2n1Cc1ccccc1

>  <Energy>  (66) 
87.676056261595

>  <Genealogy>  (66) 
C[C@H](N=C(O)c1cc2c(=O)n3cc(Cl)cc(Cl)c3nc2n(Cc2ccccc2)c1=N)c1ccccc1 (tautomer)
[H]/N=c1\c(/C(O)=N\[C@@H](C)c2ccccc2)cc2c(=O)n3cc(Cl)cc(Cl)c3nc2n1Cc1ccccc1 (cis-trans isomerization)
[H]/N=c1\c(/C(O)=N\[C@@H](C)c2ccccc2)cc2c(=O)n3cc(Cl)cc(Cl)c3nc2n1Cc1ccccc1 (3D coordinates assigned)
[H]/N=c1\c(/C(O)=N\[C@@H](C)c2ccccc2)cc2c(=O)n3cc(Cl)cc(Cl)c3nc2n1Cc1ccccc1 (optimized conformer: 87.676056261595 kcal/mol)

>  <smiles>  (66) 
C[C@H](NC(=O)c1cc2c(=O)n3cc(Cl)cc(Cl)c3nc2n(Cc2ccccc2)c1=N)c1ccccc1

>  <score_type>  (66) 
oracle

>  <origin>  (66) 
autodockgpu

>  <m_score__min__energy>  (66) 
-8.75

>  <m_primary>  (66) 
energy

>  <meeko>  (66) 
{"free_energy": -7.71, "intermolecular_energy": -10.1, "internal_energy": -2.75, "cluster_size": 8, "cluster_id": 4, "rank_in_cluster": 7}

>  <energy>  (66) 
-8.28

>  <cluster_rmsd>  (66) 
0.34

>  <rmsd>  (66) 
270.3

>  <cluster>  (66) 
2

$$$$
AFKJZVLHPMIVAS-GTMIJVOPNA-N
     RDKit          3D

 57 61  0  0  0  0  0  0  0  0999 V2000
  140.2220   69.8280  221.6920 H   0  0  0  0  0  0  0  0  0  0  0  0
  140.6800   70.5530  221.0970 N   0  0  0  0  0  0  0  0  0  0  0  0
  140.5050   71.8370  221.2250 C   0  0  0  0  0  0  0  0  0  0  0  0
  139.6170   72.3410  222.2040 C   0  0  0  0  0  0  0  0  0  0  0  0
  138.8440   71.4510  223.0950 C   0  0  0  0  0  0  0  0  0  0  0  0
  139.3440   70.3490  223.5840 N   0  0  0  0  0  0  0  0  0  0  0  0
  138.9880   69.7170  224.8600 C   0  0  2  0  0  0  0  0  0  0  0  0
  137.9249   69.8695  225.0979 H   0  0  0  0  0  0  0  0  0  0  0  0
  139.7960   70.3630  225.9620 C   0  0  0  0  0  0  0  0  0  0  0  0
  140.6320   71.4730  225.7180 C   0  0  0  0  0  0  0  0  0  0  0  0
  140.7503   71.8536  224.6928 H   0  0  0  0  0  0  0  0  0  0  0  0
  141.3110   72.0920  226.7720 C   0  0  0  0  0  0  0  0  0  0  0  0
  141.9819   72.9398  226.5692 H   0  0  0  0  0  0  0  0  0  0  0  0
  141.1400   71.6370  228.0820 C   0  0  0  0  0  0  0  0  0  0  0  0
  141.6745   72.1273  228.9091 H   0  0  0  0  0  0  0  0  0  0  0  0
  140.2890   70.5580  228.3410 C   0  0  0  0  0  0  0  0  0  0  0  0
  140.1484   70.2047  229.3732 H   0  0  0  0  0  0  0  0  0  0  0  0
  139.6170   69.9280  227.2900 C   0  0  0  0  0  0  0  0  0  0  0  0
  138.9425   69.0852  227.5014 H   0  0  0  0  0  0  0  0  0  0  0  0
  139.1950   68.1990  224.7620 C   0  0  0  0  0  0  0  0  0  0  0  0
  139.2534   67.7708  225.7736 H   0  0  0  0  0  0  0  0  0  0  0  0
  138.3501   67.7479  224.2211 H   0  0  0  0  0  0  0  0  0  0  0  0
  140.1299   67.9906  224.2211 H   0  0  0  0  0  0  0  0  0  0  0  0
  137.5320   71.8020  223.4040 O   0  0  0  0  0  0  0  0  0  0  0  0
  137.3170   72.6950  223.8340 H   0  0  0  0  0  0  0  0  0  0  0  0
  139.4560   73.7190  222.3380 C   0  0  0  0  0  0  0  0  0  0  0  0
  138.7552   74.1175  223.0863 H   0  0  0  0  0  0  0  0  0  0  0  0
  140.1790   74.5960  221.5280 C   0  0  0  0  0  0  0  0  0  0  0  0
  140.0560   75.9930  221.6470 C   0  0  0  0  0  0  0  0  0  0  0  0
  139.2880   76.4790  222.5290 O   0  0  0  0  0  0  0  0  0  0  0  0
  140.7690   76.8230  220.8140 N   0  0  0  0  0  0  0  0  0  0  0  0
  140.6550   78.1870  220.9230 C   0  0  0  0  0  0  0  0  0  0  0  0
  139.9970   78.6183  221.6917 H   0  0  0  0  0  0  0  0  0  0  0  0
  141.3650   79.0320  220.0690 C   0  0  0  0  0  0  0  0  0  0  0  0
  141.2010   80.7730  220.2130 Cl  0  0  0  0  0  0  0  0  0  0  0  0
  142.2040   78.4870  219.1000 C   0  0  0  0  0  0  0  0  0  0  0  0
  142.7616   79.1459  218.4182 H   0  0  0  0  0  0  0  0  0  0  0  0
  142.3340   77.1030  218.9980 C   0  0  0  0  0  0  0  0  0  0  0  0
  143.3980   76.4260  217.7700 Cl  0  0  0  0  0  0  0  0  0  0  0  0
  141.6050   76.2760  219.8650 C   0  0  0  0  0  0  0  0  0  0  0  0
  141.7360   74.9300  219.7660 N   0  0  0  0  0  0  0  0  0  0  0  0
  141.0520   74.0690  220.5630 C   0  0  0  0  0  0  0  0  0  0  0  0
  141.2010   72.7070  220.4110 N   0  0  0  0  0  0  0  0  0  0  0  0
  142.0690   72.1790  219.3300 C   0  0  0  0  0  0  0  0  0  0  0  0
  141.9836   71.0828  219.2993 H   0  0  0  0  0  0  0  0  0  0  0  0
  141.7467   72.6099  218.3706 H   0  0  0  0  0  0  0  0  0  0  0  0
  143.5080   72.5590  219.5790 C   0  0  0  0  0  0  0  0  0  0  0  0
  144.0130   72.6190  220.8910 C   0  0  0  0  0  0  0  0  0  0  0  0
  143.3717   72.3297  221.7366 H   0  0  0  0  0  0  0  0  0  0  0  0
  145.3250   73.0440  221.1280 C   0  0  0  0  0  0  0  0  0  0  0  0
  145.7081   73.0960  222.1578 H   0  0  0  0  0  0  0  0  0  0  0  0
  146.1480   73.4020  220.0590 C   0  0  0  0  0  0  0  0  0  0  0  0
  147.1786   73.7381  220.2461 H   0  0  0  0  0  0  0  0  0  0  0  0
  145.6610   73.3330  218.7500 C   0  0  0  0  0  0  0  0  0  0  0  0
  146.3134   73.6058  217.9074 H   0  0  0  0  0  0  0  0  0  0  0  0
  144.3460   72.9180  218.5080 C   0  0  0  0  0  0  0  0  0  0  0  0
  143.9668   72.8725  217.4764 H   0  0  0  0  0  0  0  0  0  0  0  0
  1  2  1  0
  2  3  2  0
  3  4  1  0
  4  5  1  0
  5  6  2  0
  6  7  1  0
  7  8  1  1
  7  9  1  0
  9 10  2  0
 10 11  1  0
 10 12  1  0
 12 13  1  0
 12 14  2  0
 14 15  1  0
 14 16  1  0
 16 17  1  0
 16 18  2  0
 18 19  1  0
  7 20  1  0
 20 21  1  0
 20 22  1  0
 20 23  1  0
  5 24  1  0
 24 25  1  0
  4 26  2  0
 26 27  1  0
 26 28  1  0
 28 29  1  0
 29 30  2  0
 29 31  1  0
 31 32  1  0
 32 33  1  0
 32 34  2  0
 34 35  1  0
 34 36  1  0
 36 37  1  0
 36 38  2  0
 38 39  1  0
 38 40  1  0
 40 41  2  0
 41 42  1  0
 42 43  1  0
 43 44  1  0
 44 45  1  0
 44 46  1  0
 44 47  1  0
 47 48  2  0
 48 49  1  0
 48 50  1  0
 50 51  1  0
 50 52  2  0
 52 53  1  0
 52 54  1  0
 54 55  1  0
 54 56  2  0
 56 57  1  0
 43  3  1  0
 56 47  1  0
 18  9  1  0
 42 28  2  0
 40 31  1  0
M  END
>  <UniqueID>  (67) 
99

>  <SMILES>  (67) 
[H]/N=c1\c(/C(O)=N\[C@@H](C)c2ccccc2)cc2c(=O)n3cc(Cl)cc(Cl)c3nc2n1Cc1ccccc1

>  <Energy>  (67) 
87.676056261595

>  <Genealogy>  (67) 
C[C@H](N=C(O)c1cc2c(=O)n3cc(Cl)cc(Cl)c3nc2n(Cc2ccccc2)c1=N)c1ccccc1 (tautomer)
[H]/N=c1\c(/C(O)=N\[C@@H](C)c2ccccc2)cc2c(=O)n3cc(Cl)cc(Cl)c3nc2n1Cc1ccccc1 (cis-trans isomerization)
[H]/N=c1\c(/C(O)=N\[C@@H](C)c2ccccc2)cc2c(=O)n3cc(Cl)cc(Cl)c3nc2n1Cc1ccccc1 (3D coordinates assigned)
[H]/N=c1\c(/C(O)=N\[C@@H](C)c2ccccc2)cc2c(=O)n3cc(Cl)cc(Cl)c3nc2n1Cc1ccccc1 (optimized conformer: 87.676056261595 kcal/mol)

>  <smiles>  (67) 
C[C@H](NC(=O)c1cc2c(=O)n3cc(Cl)cc(Cl)c3nc2n(Cc2ccccc2)c1=N)c1ccccc1

>  <score_type>  (67) 
oracle

>  <origin>  (67) 
autodockgpu

>  <m_score__min__energy>  (67) 
-8.75

>  <m_primary>  (67) 
energy

>  <meeko>  (67) 
{"free_energy": -8.75, "intermolecular_energy": -11.13, "internal_energy": -1.95, "cluster_size": 2, "cluster_id": 1, "rank_in_cluster": 1}

>  <energy>  (67) 
-8.27

>  <cluster_rmsd>  (67) 
0.3

>  <rmsd>  (67) 
270.25

>  <cluster>  (67) 
2

$$$$
AFKJZVLHPMIVAS-GTMIJVOPNA-N
     RDKit          3D

 57 61  0  0  0  0  0  0  0  0999 V2000
  138.8170   75.1480  223.0940 H   0  0  0  0  0  0  0  0  0  0  0  0
  139.5790   75.8600  223.0640 N   0  0  0  0  0  0  0  0  0  0  0  0
  140.1040   76.3400  221.9730 C   0  0  0  0  0  0  0  0  0  0  0  0
  140.6030   75.4660  220.9800 C   0  0  0  0  0  0  0  0  0  0  0  0
  140.5730   73.9970  221.1380 C   0  0  0  0  0  0  0  0  0  0  0  0
  141.0900   73.1890  220.2530 N   0  0  0  0  0  0  0  0  0  0  0  0
  142.0700   72.1270  220.5050 C   0  0  2  0  0  0  0  0  0  0  0  0
  141.9788   71.7355  221.5289 H   0  0  0  0  0  0  0  0  0  0  0  0
  143.4590   72.7060  220.3630 C   0  0  0  0  0  0  0  0  0  0  0  0
  143.7180   74.0780  220.5710 C   0  0  0  0  0  0  0  0  0  0  0  0
  142.8866   74.7646  220.7886 H   0  0  0  0  0  0  0  0  0  0  0  0
  145.0250   74.5690  220.5020 C   0  0  0  0  0  0  0  0  0  0  0  0
  145.2147   75.6437  220.6404 H   0  0  0  0  0  0  0  0  0  0  0  0
  146.0910   73.7000  220.2580 C   0  0  0  0  0  0  0  0  0  0  0  0
  147.1180   74.0904  220.2043 H   0  0  0  0  0  0  0  0  0  0  0  0
  145.8520   72.3330  220.0820 C   0  0  0  0  0  0  0  0  0  0  0  0
  146.6924   71.6471  219.8994 H   0  0  0  0  0  0  0  0  0  0  0  0
  144.5460   71.8380  220.1380 C   0  0  0  0  0  0  0  0  0  0  0  0
  144.3651   70.7611  220.0052 H   0  0  0  0  0  0  0  0  0  0  0  0
  141.8050   70.9430  219.5640 C   0  0  0  0  0  0  0  0  0  0  0  0
  141.6029   70.0400  220.1588 H   0  0  0  0  0  0  0  0  0  0  0  0
  140.9347   71.1666  218.9295 H   0  0  0  0  0  0  0  0  0  0  0  0
  142.6876   70.7742  218.9295 H   0  0  0  0  0  0  0  0  0  0  0  0
  139.9510   73.4660  222.2660 O   0  0  0  0  0  0  0  0  0  0  0  0
  139.1910   73.9560  222.7230 H   0  0  0  0  0  0  0  0  0  0  0  0
  141.1450   75.9960  219.8100 C   0  0  0  0  0  0  0  0  0  0  0  0
  141.5485   75.3226  219.0394 H   0  0  0  0  0  0  0  0  0  0  0  0
  141.1780   77.3770  219.6120 C   0  0  0  0  0  0  0  0  0  0  0  0
  141.7020   77.9490  218.4360 C   0  0  0  0  0  0  0  0  0  0  0  0
  142.1350   77.1960  217.5150 O   0  0  0  0  0  0  0  0  0  0  0  0
  141.7370   79.3150  218.2890 N   0  0  0  0  0  0  0  0  0  0  0  0
  142.2460   79.8810  217.1460 C   0  0  0  0  0  0  0  0  0  0  0  0
  142.6169   79.2341  216.3373 H   0  0  0  0  0  0  0  0  0  0  0  0
  142.2980   81.2690  216.9990 C   0  0  0  0  0  0  0  0  0  0  0  0
  142.9620   81.9770  215.5380 Cl  0  0  0  0  0  0  0  0  0  0  0  0
  141.8220   82.0880  218.0200 C   0  0  0  0  0  0  0  0  0  0  0  0
  141.8659   83.1822  217.9159 H   0  0  0  0  0  0  0  0  0  0  0  0
  141.2900   81.5160  219.1740 C   0  0  0  0  0  0  0  0  0  0  0  0
  140.6920   82.5620  220.4570 Cl  0  0  0  0  0  0  0  0  0  0  0  0
  141.2550   80.1190  219.2980 C   0  0  0  0  0  0  0  0  0  0  0  0
  140.7340   79.5660  220.4210 N   0  0  0  0  0  0  0  0  0  0  0  0
  140.6790   78.2230  220.6150 C   0  0  0  0  0  0  0  0  0  0  0  0
  140.1590   77.7050  221.7820 N   0  0  0  0  0  0  0  0  0  0  0  0
  139.7120   78.6230  222.8580 C   0  0  0  0  0  0  0  0  0  0  0  0
  138.8892   79.2489  222.4822 H   0  0  0  0  0  0  0  0  0  0  0  0
  139.3707   78.0270  223.7173 H   0  0  0  0  0  0  0  0  0  0  0  0
  140.8510   79.5100  223.2980 C   0  0  0  0  0  0  0  0  0  0  0  0
  140.5950   80.7840  223.8380 C   0  0  0  0  0  0  0  0  0  0  0  0
  139.5568   81.1113  223.9965 H   0  0  0  0  0  0  0  0  0  0  0  0
  141.6520   81.6380  224.1750 C   0  0  0  0  0  0  0  0  0  0  0  0
  141.4418   82.6358  224.5877 H   0  0  0  0  0  0  0  0  0  0  0  0
  142.9720   81.2250  223.9880 C   0  0  0  0  0  0  0  0  0  0  0  0
  143.8020   81.8967  224.2524 H   0  0  0  0  0  0  0  0  0  0  0  0
  143.2380   79.9560  223.4640 C   0  0  0  0  0  0  0  0  0  0  0  0
  144.2786   79.6277  223.3248 H   0  0  0  0  0  0  0  0  0  0  0  0
  142.1850   79.1020  223.1160 C   0  0  0  0  0  0  0  0  0  0  0  0
  142.4015   78.1076  222.6984 H   0  0  0  0  0  0  0  0  0  0  0  0
  1  2  1  0
  2  3  2  0
  3  4  1  0
  4  5  1  0
  5  6  2  0
  6  7  1  0
  7  8  1  1
  7  9  1  0
  9 10  2  0
 10 11  1  0
 10 12  1  0
 12 13  1  0
 12 14  2  0
 14 15  1  0
 14 16  1  0
 16 17  1  0
 16 18  2  0
 18 19  1  0
  7 20  1  0
 20 21  1  0
 20 22  1  0
 20 23  1  0
  5 24  1  0
 24 25  1  0
  4 26  2  0
 26 27  1  0
 26 28  1  0
 28 29  1  0
 29 30  2  0
 29 31  1  0
 31 32  1  0
 32 33  1  0
 32 34  2  0
 34 35  1  0
 34 36  1  0
 36 37  1  0
 36 38  2  0
 38 39  1  0
 38 40  1  0
 40 41  2  0
 41 42  1  0
 42 43  1  0
 43 44  1  0
 44 45  1  0
 44 46  1  0
 44 47  1  0
 47 48  2  0
 48 49  1  0
 48 50  1  0
 50 51  1  0
 50 52  2  0
 52 53  1  0
 52 54  1  0
 54 55  1  0
 54 56  2  0
 56 57  1  0
 43  3  1  0
 56 47  1  0
 18  9  1  0
 42 28  2  0
 40 31  1  0
M  END
>  <UniqueID>  (68) 
99

>  <SMILES>  (68) 
[H]/N=c1\c(/C(O)=N\[C@@H](C)c2ccccc2)cc2c(=O)n3cc(Cl)cc(Cl)c3nc2n1Cc1ccccc1

>  <Energy>  (68) 
87.676056261595

>  <Genealogy>  (68) 
C[C@H](N=C(O)c1cc2c(=O)n3cc(Cl)cc(Cl)c3nc2n(Cc2ccccc2)c1=N)c1ccccc1 (tautomer)
[H]/N=c1\c(/C(O)=N\[C@@H](C)c2ccccc2)cc2c(=O)n3cc(Cl)cc(Cl)c3nc2n1Cc1ccccc1 (cis-trans isomerization)
[H]/N=c1\c(/C(O)=N\[C@@H](C)c2ccccc2)cc2c(=O)n3cc(Cl)cc(Cl)c3nc2n1Cc1ccccc1 (3D coordinates assigned)
[H]/N=c1\c(/C(O)=N\[C@@H](C)c2ccccc2)cc2c(=O)n3cc(Cl)cc(Cl)c3nc2n1Cc1ccccc1 (optimized conformer: 87.676056261595 kcal/mol)

>  <smiles>  (68) 
C[C@H](NC(=O)c1cc2c(=O)n3cc(Cl)cc(Cl)c3nc2n(Cc2ccccc2)c1=N)c1ccccc1

>  <score_type>  (68) 
oracle

>  <origin>  (68) 
autodockgpu

>  <m_score__min__energy>  (68) 
-8.75

>  <m_primary>  (68) 
energy

>  <meeko>  (68) 
{"free_energy": -8.45, "intermolecular_energy": -10.84, "internal_energy": -2.32, "cluster_size": 7, "cluster_id": 2, "rank_in_cluster": 1}

>  <energy>  (68) 
-8.25

>  <cluster_rmsd>  (68) 
0.32

>  <rmsd>  (68) 
270.31

>  <cluster>  (68) 
2

$$$$
AFKJZVLHPMIVAS-GTMIJVOPNA-N
     RDKit          3D

 57 61  0  0  0  0  0  0  0  0999 V2000
  138.8420   74.9830  222.7280 H   0  0  0  0  0  0  0  0  0  0  0  0
  139.5950   75.7040  222.7830 N   0  0  0  0  0  0  0  0  0  0  0  0
  140.1710   76.2560  221.7540 C   0  0  0  0  0  0  0  0  0  0  0  0
  140.7250   75.4500  220.7320 C   0  0  0  0  0  0  0  0  0  0  0  0
  140.6970   73.9740  220.7930 C   0  0  0  0  0  0  0  0  0  0  0  0
  141.4220   73.2300  220.0030 N   0  0  0  0  0  0  0  0  0  0  0  0
  142.3040   72.1290  220.4030 C   0  0  2  0  0  0  0  0  0  0  0  0
  142.0388   71.7492  221.4007 H   0  0  0  0  0  0  0  0  0  0  0  0
  143.7220   72.6470  220.4770 C   0  0  0  0  0  0  0  0  0  0  0  0
  144.8240   71.8580  220.0850 C   0  0  0  0  0  0  0  0  0  0  0  0
  144.6658   70.8170  219.7666 H   0  0  0  0  0  0  0  0  0  0  0  0
  146.1160   72.3920  220.0990 C   0  0  0  0  0  0  0  0  0  0  0  0
  146.9723   71.7618  219.8168 H   0  0  0  0  0  0  0  0  0  0  0  0
  146.3240   73.7230  220.4700 C   0  0  0  0  0  0  0  0  0  0  0  0
  147.3421   74.1394  220.4788 H   0  0  0  0  0  0  0  0  0  0  0  0
  145.2370   74.5250  220.8300 C   0  0  0  0  0  0  0  0  0  0  0  0
  145.3991   75.5754  221.1135 H   0  0  0  0  0  0  0  0  0  0  0  0
  143.9440   73.9930  220.8300 C   0  0  0  0  0  0  0  0  0  0  0  0
  143.0922   74.6310  221.1081 H   0  0  0  0  0  0  0  0  0  0  0  0
  142.1360   70.9500  219.4350 C   0  0  0  0  0  0  0  0  0  0  0  0
  142.0036   70.0207  220.0085 H   0  0  0  0  0  0  0  0  0  0  0  0
  141.2528   71.1188  218.8013 H   0  0  0  0  0  0  0  0  0  0  0  0
  143.0312   70.8654  218.8013 H   0  0  0  0  0  0  0  0  0  0  0  0
  139.8500   73.3660  221.7170 O   0  0  0  0  0  0  0  0  0  0  0  0
  139.7030   73.7700  222.6350 H   0  0  0  0  0  0  0  0  0  0  0  0
  141.3220   76.0580  219.6280 C   0  0  0  0  0  0  0  0  0  0  0  0
  141.7691   75.4381  218.8369 H   0  0  0  0  0  0  0  0  0  0  0  0
  141.3550   77.4500  219.5220 C   0  0  0  0  0  0  0  0  0  0  0  0
  141.9330   78.0990  218.4140 C   0  0  0  0  0  0  0  0  0  0  0  0
  142.4170   77.4090  217.4700 O   0  0  0  0  0  0  0  0  0  0  0  0
  141.9670   79.4720  218.3580 N   0  0  0  0  0  0  0  0  0  0  0  0
  142.5280   80.1130  217.2820 C   0  0  0  0  0  0  0  0  0  0  0  0
  142.9430   79.5215  216.4526 H   0  0  0  0  0  0  0  0  0  0  0  0
  142.5780   81.5070  217.2280 C   0  0  0  0  0  0  0  0  0  0  0  0
  143.3090   82.3120  215.8520 Cl  0  0  0  0  0  0  0  0  0  0  0  0
  142.0450   82.2570  218.2760 C   0  0  0  0  0  0  0  0  0  0  0  0
  142.0861   83.3558  218.2457 H   0  0  0  0  0  0  0  0  0  0  0  0
  141.4600   81.6080  219.3620 C   0  0  0  0  0  0  0  0  0  0  0  0
  140.7910   82.5660  220.6780 Cl  0  0  0  0  0  0  0  0  0  0  0  0
  141.4280   80.2060  219.3920 C   0  0  0  0  0  0  0  0  0  0  0  0
  140.8550   79.5790  220.4490 N   0  0  0  0  0  0  0  0  0  0  0  0
  140.8000   78.2260  220.5520 C   0  0  0  0  0  0  0  0  0  0  0  0
  140.2260   77.6310  221.6550 N   0  0  0  0  0  0  0  0  0  0  0  0
  139.7190   78.4750  222.7650 C   0  0  0  0  0  0  0  0  0  0  0  0
  138.8443   79.0445  222.4176 H   0  0  0  0  0  0  0  0  0  0  0  0
  139.4361   77.8265  223.6073 H   0  0  0  0  0  0  0  0  0  0  0  0
  140.7890   79.4360  223.2230 C   0  0  0  0  0  0  0  0  0  0  0  0
  140.4440   80.7230  223.6760 C   0  0  0  0  0  0  0  0  0  0  0  0
  139.3846   81.0090  223.7525 H   0  0  0  0  0  0  0  0  0  0  0  0
  141.4390   81.6420  224.0300 C   0  0  0  0  0  0  0  0  0  0  0  0
  141.1602   82.6488  224.3744 H   0  0  0  0  0  0  0  0  0  0  0  0
  142.7850   81.2810  223.9460 C   0  0  0  0  0  0  0  0  0  0  0  0
  143.5667   82.0037  224.2229 H   0  0  0  0  0  0  0  0  0  0  0  0
  143.1390   80.0010  223.5100 C   0  0  0  0  0  0  0  0  0  0  0  0
  144.1996   79.7146  223.4534 H   0  0  0  0  0  0  0  0  0  0  0  0
  142.1470   79.0820  223.1450 C   0  0  0  0  0  0  0  0  0  0  0  0
  142.4320   78.0786  222.7957 H   0  0  0  0  0  0  0  0  0  0  0  0
  1  2  1  0
  2  3  2  0
  3  4  1  0
  4  5  1  0
  5  6  2  0
  6  7  1  0
  7  8  1  1
  7  9  1  0
  9 10  2  0
 10 11  1  0
 10 12  1  0
 12 13  1  0
 12 14  2  0
 14 15  1  0
 14 16  1  0
 16 17  1  0
 16 18  2  0
 18 19  1  0
  7 20  1  0
 20 21  1  0
 20 22  1  0
 20 23  1  0
  5 24  1  0
 24 25  1  0
  4 26  2  0
 26 27  1  0
 26 28  1  0
 28 29  1  0
 29 30  2  0
 29 31  1  0
 31 32  1  0
 32 33  1  0
 32 34  2  0
 34 35  1  0
 34 36  1  0
 36 37  1  0
 36 38  2  0
 38 39  1  0
 38 40  1  0
 40 41  2  0
 41 42  1  0
 42 43  1  0
 43 44  1  0
 44 45  1  0
 44 46  1  0
 44 47  1  0
 47 48  2  0
 48 49  1  0
 48 50  1  0
 50 51  1  0
 50 52  2  0
 52 53  1  0
 52 54  1  0
 54 55  1  0
 54 56  2  0
 56 57  1  0
 43  3  1  0
 56 47  1  0
 18  9  1  0
 42 28  2  0
 40 31  1  0
M  END
>  <UniqueID>  (69) 
99

>  <SMILES>  (69) 
[H]/N=c1\c(/C(O)=N\[C@@H](C)c2ccccc2)cc2c(=O)n3cc(Cl)cc(Cl)c3nc2n1Cc1ccccc1

>  <Energy>  (69) 
87.676056261595

>  <Genealogy>  (69) 
C[C@H](N=C(O)c1cc2c(=O)n3cc(Cl)cc(Cl)c3nc2n(Cc2ccccc2)c1=N)c1ccccc1 (tautomer)
[H]/N=c1\c(/C(O)=N\[C@@H](C)c2ccccc2)cc2c(=O)n3cc(Cl)cc(Cl)c3nc2n1Cc1ccccc1 (cis-trans isomerization)
[H]/N=c1\c(/C(O)=N\[C@@H](C)c2ccccc2)cc2c(=O)n3cc(Cl)cc(Cl)c3nc2n1Cc1ccccc1 (3D coordinates assigned)
[H]/N=c1\c(/C(O)=N\[C@@H](C)c2ccccc2)cc2c(=O)n3cc(Cl)cc(Cl)c3nc2n1Cc1ccccc1 (optimized conformer: 87.676056261595 kcal/mol)

>  <smiles>  (69) 
C[C@H](NC(=O)c1cc2c(=O)n3cc(Cl)cc(Cl)c3nc2n(Cc2ccccc2)c1=N)c1ccccc1

>  <score_type>  (69) 
oracle

>  <origin>  (69) 
autodockgpu

>  <m_score__min__energy>  (69) 
-8.75

>  <m_primary>  (69) 
energy

>  <meeko>  (69) 
{"free_energy": -8.25, "intermolecular_energy": -10.63, "internal_energy": -2.44, "cluster_size": 7, "cluster_id": 2, "rank_in_cluster": 6}

>  <energy>  (69) 
-8.08

>  <cluster_rmsd>  (69) 
0.32

>  <rmsd>  (69) 
270.26

>  <cluster>  (69) 
2

$$$$
AFKJZVLHPMIVAS-GTMIJVOPNA-N
     RDKit          3D

 57 61  0  0  0  0  0  0  0  0999 V2000
  138.8130   74.9040  222.7600 H   0  0  0  0  0  0  0  0  0  0  0  0
  139.5530   75.6390  222.8020 N   0  0  0  0  0  0  0  0  0  0  0  0
  140.1320   76.1700  221.7640 C   0  0  0  0  0  0  0  0  0  0  0  0
  140.7040   75.3440  220.7680 C   0  0  0  0  0  0  0  0  0  0  0  0
  140.6910   73.8700  220.8680 C   0  0  0  0  0  0  0  0  0  0  0  0
  141.3540   73.1090  220.0390 N   0  0  0  0  0  0  0  0  0  0  0  0
  142.3280   72.0710  220.3930 C   0  0  2  0  0  0  0  0  0  0  0  0
  142.1485   71.6850  221.4073 H   0  0  0  0  0  0  0  0  0  0  0  0
  143.7120   72.6810  220.3780 C   0  0  0  0  0  0  0  0  0  0  0  0
  143.9450   74.0070  220.7980 C   0  0  0  0  0  0  0  0  0  0  0  0
  143.0984   74.6430  221.0959 H   0  0  0  0  0  0  0  0  0  0  0  0
  145.2460   74.5180  220.8380 C   0  0  0  0  0  0  0  0  0  0  0  0
  145.4164   75.5614  221.1419 H   0  0  0  0  0  0  0  0  0  0  0  0
  146.3300   73.7070  220.4930 C   0  0  0  0  0  0  0  0  0  0  0  0
  147.3523   74.1117  220.5259 H   0  0  0  0  0  0  0  0  0  0  0  0
  146.1150   72.3810  220.1060 C   0  0  0  0  0  0  0  0  0  0  0  0
  146.9695   71.7399  219.8437 H   0  0  0  0  0  0  0  0  0  0  0  0
  144.8160   71.8690  220.0520 C   0  0  0  0  0  0  0  0  0  0  0  0
  144.6541   70.8230  219.7524 H   0  0  0  0  0  0  0  0  0  0  0  0
  142.1790   70.8740  219.4450 C   0  0  0  0  0  0  0  0  0  0  0  0
  142.0642   69.9520  220.0338 H   0  0  0  0  0  0  0  0  0  0  0  0
  141.2917   71.0168  218.8107 H   0  0  0  0  0  0  0  0  0  0  0  0
  143.0742   70.7949  218.8107 H   0  0  0  0  0  0  0  0  0  0  0  0
  139.9260   73.2810  221.8720 O   0  0  0  0  0  0  0  0  0  0  0  0
  139.7080   73.7840  222.7250 H   0  0  0  0  0  0  0  0  0  0  0  0
  141.3040   75.9290  219.6540 C   0  0  0  0  0  0  0  0  0  0  0  0
  141.7640   75.2933  218.8831 H   0  0  0  0  0  0  0  0  0  0  0  0
  141.3240   77.3170  219.5120 C   0  0  0  0  0  0  0  0  0  0  0  0
  141.9050   77.9430  218.3920 C   0  0  0  0  0  0  0  0  0  0  0  0
  142.4050   77.2340  217.4700 O   0  0  0  0  0  0  0  0  0  0  0  0
  141.9240   79.3150  218.3010 N   0  0  0  0  0  0  0  0  0  0  0  0
  142.4890   79.9340  217.2130 C   0  0  0  0  0  0  0  0  0  0  0  0
  142.9187   79.3257  216.4035 H   0  0  0  0  0  0  0  0  0  0  0  0
  142.5240   81.3260  217.1230 C   0  0  0  0  0  0  0  0  0  0  0  0
  143.2590   82.1030  215.7330 Cl  0  0  0  0  0  0  0  0  0  0  0  0
  141.9750   82.0970  218.1460 C   0  0  0  0  0  0  0  0  0  0  0  0
  142.0065   83.1950  218.0878 H   0  0  0  0  0  0  0  0  0  0  0  0
  141.3860   81.4710  219.2430 C   0  0  0  0  0  0  0  0  0  0  0  0
  140.6950   82.4560  220.5280 Cl  0  0  0  0  0  0  0  0  0  0  0  0
  141.3690   80.0700  219.3100 C   0  0  0  0  0  0  0  0  0  0  0  0
  140.7930   79.4640  220.3780 N   0  0  0  0  0  0  0  0  0  0  0  0
  140.7510   78.1140  220.5160 C   0  0  0  0  0  0  0  0  0  0  0  0
  140.1730   77.5430  221.6290 N   0  0  0  0  0  0  0  0  0  0  0  0
  139.6480   78.4100  222.7120 C   0  0  0  0  0  0  0  0  0  0  0  0
  138.7746   78.9659  222.3403 H   0  0  0  0  0  0  0  0  0  0  0  0
  139.3588   77.7796  223.5658 H   0  0  0  0  0  0  0  0  0  0  0  0
  140.7060   79.3880  223.1610 C   0  0  0  0  0  0  0  0  0  0  0  0
  140.3550   80.7020  223.5220 C   0  0  0  0  0  0  0  0  0  0  0  0
  139.2962   81.0001  223.5348 H   0  0  0  0  0  0  0  0  0  0  0  0
  141.3430   81.6330  223.8650 C   0  0  0  0  0  0  0  0  0  0  0  0
  141.0597   82.6608  224.1361 H   0  0  0  0  0  0  0  0  0  0  0  0
  142.6880   81.2570  223.8630 C   0  0  0  0  0  0  0  0  0  0  0  0
  143.4643   81.9882  224.1328 H   0  0  0  0  0  0  0  0  0  0  0  0
  143.0470   79.9510  223.5180 C   0  0  0  0  0  0  0  0  0  0  0  0
  144.1061   79.6539  223.5245 H   0  0  0  0  0  0  0  0  0  0  0  0
  142.0630   79.0190  223.1640 C   0  0  0  0  0  0  0  0  0  0  0  0
  142.3529   77.9946  222.8873 H   0  0  0  0  0  0  0  0  0  0  0  0
  1  2  1  0
  2  3  2  0
  3  4  1  0
  4  5  1  0
  5  6  2  0
  6  7  1  0
  7  8  1  1
  7  9  1  0
  9 10  2  0
 10 11  1  0
 10 12  1  0
 12 13  1  0
 12 14  2  0
 14 15  1  0
 14 16  1  0
 16 17  1  0
 16 18  2  0
 18 19  1  0
  7 20  1  0
 20 21  1  0
 20 22  1  0
 20 23  1  0
  5 24  1  0
 24 25  1  0
  4 26  2  0
 26 27  1  0
 26 28  1  0
 28 29  1  0
 29 30  2  0
 29 31  1  0
 31 32  1  0
 32 33  1  0
 32 34  2  0
 34 35  1  0
 34 36  1  0
 36 37  1  0
 36 38  2  0
 38 39  1  0
 38 40  1  0
 40 41  2  0
 41 42  1  0
 42 43  1  0
 43 44  1  0
 44 45  1  0
 44 46  1  0
 44 47  1  0
 47 48  2  0
 48 49  1  0
 48 50  1  0
 50 51  1  0
 50 52  2  0
 52 53  1  0
 52 54  1  0
 54 55  1  0
 54 56  2  0
 56 57  1  0
 43  3  1  0
 56 47  1  0
 18  9  1  0
 42 28  2  0
 40 31  1  0
M  END
>  <UniqueID>  (70) 
99

>  <SMILES>  (70) 
[H]/N=c1\c(/C(O)=N\[C@@H](C)c2ccccc2)cc2c(=O)n3cc(Cl)cc(Cl)c3nc2n1Cc1ccccc1

>  <Energy>  (70) 
87.676056261595

>  <Genealogy>  (70) 
C[C@H](N=C(O)c1cc2c(=O)n3cc(Cl)cc(Cl)c3nc2n(Cc2ccccc2)c1=N)c1ccccc1 (tautomer)
[H]/N=c1\c(/C(O)=N\[C@@H](C)c2ccccc2)cc2c(=O)n3cc(Cl)cc(Cl)c3nc2n1Cc1ccccc1 (cis-trans isomerization)
[H]/N=c1\c(/C(O)=N\[C@@H](C)c2ccccc2)cc2c(=O)n3cc(Cl)cc(Cl)c3nc2n1Cc1ccccc1 (3D coordinates assigned)
[H]/N=c1\c(/C(O)=N\[C@@H](C)c2ccccc2)cc2c(=O)n3cc(Cl)cc(Cl)c3nc2n1Cc1ccccc1 (optimized conformer: 87.676056261595 kcal/mol)

>  <smiles>  (70) 
C[C@H](NC(=O)c1cc2c(=O)n3cc(Cl)cc(Cl)c3nc2n(Cc2ccccc2)c1=N)c1ccccc1

>  <score_type>  (70) 
oracle

>  <origin>  (70) 
autodockgpu

>  <m_score__min__energy>  (70) 
-8.75

>  <m_primary>  (70) 
energy

>  <meeko>  (70) 
{"free_energy": -8.27, "intermolecular_energy": -10.65, "internal_energy": -2.46, "cluster_size": 7, "cluster_id": 2, "rank_in_cluster": 5}

>  <energy>  (70) 
-8.27

>  <cluster_rmsd>  (70) 
0.0

>  <rmsd>  (70) 
269.61

>  <cluster>  (70) 
3

$$$$
AFKJZVLHPMIVAS-GTMIJVOPNA-N
     RDKit          3D

 57 61  0  0  0  0  0  0  0  0999 V2000
  137.6420   74.4020  222.6960 H   0  0  0  0  0  0  0  0  0  0  0  0
  137.2060   75.2370  222.2450 N   0  0  0  0  0  0  0  0  0  0  0  0
  137.4000   76.4690  222.6180 C   0  0  0  0  0  0  0  0  0  0  0  0
  138.7130   76.9870  222.7070 C   0  0  0  0  0  0  0  0  0  0  0  0
  139.9040   76.1650  222.4090 C   0  0  0  0  0  0  0  0  0  0  0  0
  141.0850   76.6900  222.2280 N   0  0  0  0  0  0  0  0  0  0  0  0
  141.4620   77.6630  221.1960 C   0  0  2  0  0  0  0  0  0  0  0  0
  142.3830   77.3580  220.6776 H   0  0  0  0  0  0  0  0  0  0  0  0
  141.7360   78.9920  221.8610 C   0  0  0  0  0  0  0  0  0  0  0  0
  141.4440   80.2170  221.2240 C   0  0  0  0  0  0  0  0  0  0  0  0
  141.0575   80.2191  220.1941 H   0  0  0  0  0  0  0  0  0  0  0  0
  141.6430   81.4280  221.8940 C   0  0  0  0  0  0  0  0  0  0  0  0
  141.4377   82.3789  221.3806 H   0  0  0  0  0  0  0  0  0  0  0  0
  142.1020   81.4340  223.2140 C   0  0  0  0  0  0  0  0  0  0  0  0
  142.2564   82.3885  223.7385 H   0  0  0  0  0  0  0  0  0  0  0  0
  142.3650   80.2260  223.8680 C   0  0  0  0  0  0  0  0  0  0  0  0
  142.7185   80.2306  224.9096 H   0  0  0  0  0  0  0  0  0  0  0  0
  142.1790   79.0130  223.1990 C   0  0  0  0  0  0  0  0  0  0  0  0
  142.3802   78.0661  223.7214 H   0  0  0  0  0  0  0  0  0  0  0  0
  140.3660   77.7320  220.1230 C   0  0  0  0  0  0  0  0  0  0  0  0
  139.3809   77.7940  220.6085 H   0  0  0  0  0  0  0  0  0  0  0  0
  140.5224   78.6221  219.4959 H   0  0  0  0  0  0  0  0  0  0  0  0
  140.4095   76.8293  219.4959 H   0  0  0  0  0  0  0  0  0  0  0  0
  139.7460   74.7850  222.3020 O   0  0  0  0  0  0  0  0  0  0  0  0
  139.0560   74.2940  222.8590 H   0  0  0  0  0  0  0  0  0  0  0  0
  138.9010   78.3140  223.0910 C   0  0  0  0  0  0  0  0  0  0  0  0
  139.9199   78.7192  223.1785 H   0  0  0  0  0  0  0  0  0  0  0  0
  137.8030   79.1310  223.3650 C   0  0  0  0  0  0  0  0  0  0  0  0
  137.9530   80.4810  223.7370 C   0  0  0  0  0  0  0  0  0  0  0  0
  139.1120   80.9850  223.8040 O   0  0  0  0  0  0  0  0  0  0  0  0
  136.8460   81.2460  224.0210 N   0  0  0  0  0  0  0  0  0  0  0  0
  136.9830   82.5620  224.3860 C   0  0  0  0  0  0  0  0  0  0  0  0
  137.9862   83.0101  224.4396 H   0  0  0  0  0  0  0  0  0  0  0  0
  135.8630   83.3380  224.6900 C   0  0  0  0  0  0  0  0  0  0  0  0
  136.0540   85.0160  225.1650 Cl  0  0  0  0  0  0  0  0  0  0  0  0
  134.5920   82.7720  224.6170 C   0  0  0  0  0  0  0  0  0  0  0  0
  133.7047   83.3738  224.8632 H   0  0  0  0  0  0  0  0  0  0  0  0
  134.4490   81.4410  224.2310 C   0  0  0  0  0  0  0  0  0  0  0  0
  132.8380   80.7380  224.1420 Cl  0  0  0  0  0  0  0  0  0  0  0  0
  135.5920   80.6820  223.9360 C   0  0  0  0  0  0  0  0  0  0  0  0
  135.4490   79.3880  223.5590 N   0  0  0  0  0  0  0  0  0  0  0  0
  136.5100   78.5910  223.2700 C   0  0  0  0  0  0  0  0  0  0  0  0
  136.3180   77.2740  222.9110 N   0  0  0  0  0  0  0  0  0  0  0  0
  134.9480   76.7080  222.8970 C   0  0  0  0  0  0  0  0  0  0  0  0
  134.2534   77.4495  222.4755 H   0  0  0  0  0  0  0  0  0  0  0  0
  134.9443   75.7957  222.2824 H   0  0  0  0  0  0  0  0  0  0  0  0
  134.5110   76.3570  224.2990 C   0  0  0  0  0  0  0  0  0  0  0  0
  134.7670   75.0770  224.8260 C   0  0  0  0  0  0  0  0  0  0  0  0
  135.3414   74.3482  224.2353 H   0  0  0  0  0  0  0  0  0  0  0  0
  134.2960   74.7250  226.0960 C   0  0  0  0  0  0  0  0  0  0  0  0
  134.4928   73.7194  226.4960 H   0  0  0  0  0  0  0  0  0  0  0  0
  133.5760   75.6500  226.8560 C   0  0  0  0  0  0  0  0  0  0  0  0
  133.2054   75.3730  227.8540 H   0  0  0  0  0  0  0  0  0  0  0  0
  133.3270   76.9280  226.3470 C   0  0  0  0  0  0  0  0  0  0  0  0
  132.7669   77.6582  226.9495 H   0  0  0  0  0  0  0  0  0  0  0  0
  133.7880   77.2820  225.0730 C   0  0  0  0  0  0  0  0  0  0  0  0
  133.5838   78.2874  224.6762 H   0  0  0  0  0  0  0  0  0  0  0  0
  1  2  1  0
  2  3  2  0
  3  4  1  0
  4  5  1  0
  5  6  2  0
  6  7  1  0
  7  8  1  6
  7  9  1  0
  9 10  2  0
 10 11  1  0
 10 12  1  0
 12 13  1  0
 12 14  2  0
 14 15  1  0
 14 16  1  0
 16 17  1  0
 16 18  2  0
 18 19  1  0
  7 20  1  0
 20 21  1  0
 20 22  1  0
 20 23  1  0
  5 24  1  0
 24 25  1  0
  4 26  2  0
 26 27  1  0
 26 28  1  0
 28 29  1  0
 29 30  2  0
 29 31  1  0
 31 32  1  0
 32 33  1  0
 32 34  2  0
 34 35  1  0
 34 36  1  0
 36 37  1  0
 36 38  2  0
 38 39  1  0
 38 40  1  0
 40 41  2  0
 41 42  1  0
 42 43  1  0
 43 44  1  0
 44 45  1  0
 44 46  1  0
 44 47  1  0
 47 48  2  0
 48 49  1  0
 48 50  1  0
 50 51  1  0
 50 52  2  0
 52 53  1  0
 52 54  1  0
 54 55  1  0
 54 56  2  0
 56 57  1  0
 43  3  1  0
 56 47  1  0
 18  9  1  0
 42 28  2  0
 40 31  1  0
M  END
>  <UniqueID>  (71) 
99

>  <SMILES>  (71) 
[H]/N=c1\c(/C(O)=N\[C@@H](C)c2ccccc2)cc2c(=O)n3cc(Cl)cc(Cl)c3nc2n1Cc1ccccc1

>  <Energy>  (71) 
87.676056261595

>  <Genealogy>  (71) 
C[C@H](N=C(O)c1cc2c(=O)n3cc(Cl)cc(Cl)c3nc2n(Cc2ccccc2)c1=N)c1ccccc1 (tautomer)
[H]/N=c1\c(/C(O)=N\[C@@H](C)c2ccccc2)cc2c(=O)n3cc(Cl)cc(Cl)c3nc2n1Cc1ccccc1 (cis-trans isomerization)
[H]/N=c1\c(/C(O)=N\[C@@H](C)c2ccccc2)cc2c(=O)n3cc(Cl)cc(Cl)c3nc2n1Cc1ccccc1 (3D coordinates assigned)
[H]/N=c1\c(/C(O)=N\[C@@H](C)c2ccccc2)cc2c(=O)n3cc(Cl)cc(Cl)c3nc2n1Cc1ccccc1 (optimized conformer: 87.676056261595 kcal/mol)

>  <smiles>  (71) 
C[C@H](NC(=O)c1cc2c(=O)n3cc(Cl)cc(Cl)c3nc2n(Cc2ccccc2)c1=N)c1ccccc1

>  <score_type>  (71) 
oracle

>  <origin>  (71) 
autodockgpu

>  <m_score__min__energy>  (71) 
-8.75

>  <m_primary>  (71) 
energy

>  <meeko>  (71) 
{"free_energy": -7.78, "intermolecular_energy": -10.17, "internal_energy": -2.76, "cluster_size": 8, "cluster_id": 4, "rank_in_cluster": 5}

>  <energy>  (71) 
-8.24

>  <cluster_rmsd>  (71) 
0.04

>  <rmsd>  (71) 
269.62

>  <cluster>  (71) 
3

$$$$
AFKJZVLHPMIVAS-GTMIJVOPNA-N
     RDKit          3D

 57 61  0  0  0  0  0  0  0  0999 V2000
  138.8570   75.1330  223.0970 H   0  0  0  0  0  0  0  0  0  0  0  0
  139.5870   75.8780  223.0620 N   0  0  0  0  0  0  0  0  0  0  0  0
  140.1120   76.3530  221.9690 C   0  0  0  0  0  0  0  0  0  0  0  0
  140.6160   75.4740  220.9820 C   0  0  0  0  0  0  0  0  0  0  0  0
  140.5920   74.0070  221.1500 C   0  0  0  0  0  0  0  0  0  0  0  0
  141.0550   73.1930  220.2400 N   0  0  0  0  0  0  0  0  0  0  0  0
  142.0440   72.1280  220.4390 C   0  0  2  0  0  0  0  0  0  0  0  0
  141.9590   71.6878  221.4435 H   0  0  0  0  0  0  0  0  0  0  0  0
  143.4280   72.7240  220.3220 C   0  0  0  0  0  0  0  0  0  0  0  0
  143.6630   74.1020  220.5190 C   0  0  0  0  0  0  0  0  0  0  0  0
  142.8176   74.7795  220.7096 H   0  0  0  0  0  0  0  0  0  0  0  0
  144.9650   74.6100  220.4730 C   0  0  0  0  0  0  0  0  0  0  0  0
  145.1371   75.6890  220.6003 H   0  0  0  0  0  0  0  0  0  0  0  0
  146.0480   73.7520  220.2660 C   0  0  0  0  0  0  0  0  0  0  0  0
  147.0709   74.1552  220.2321 H   0  0  0  0  0  0  0  0  0  0  0  0
  145.8310   72.3810  220.1020 C   0  0  0  0  0  0  0  0  0  0  0  0
  146.6845   71.7046  219.9467 H   0  0  0  0  0  0  0  0  0  0  0  0
  144.5310   71.8680  220.1350 C   0  0  0  0  0  0  0  0  0  0  0  0
  144.3680   70.7869  220.0139 H   0  0  0  0  0  0  0  0  0  0  0  0
  141.7850   70.9870  219.4450 C   0  0  0  0  0  0  0  0  0  0  0  0
  141.5745   70.0597  219.9980 H   0  0  0  0  0  0  0  0  0  0  0  0
  140.9216   71.2407  218.8124 H   0  0  0  0  0  0  0  0  0  0  0  0
  142.6733   70.8431  218.8124 H   0  0  0  0  0  0  0  0  0  0  0  0
  140.0380   73.4830  222.3160 O   0  0  0  0  0  0  0  0  0  0  0  0
  139.2060   73.8900  222.7270 H   0  0  0  0  0  0  0  0  0  0  0  0
  141.1580   76.0000  219.8090 C   0  0  0  0  0  0  0  0  0  0  0  0
  141.5668   75.3239  219.0437 H   0  0  0  0  0  0  0  0  0  0  0  0
  141.1840   77.3800  219.6020 C   0  0  0  0  0  0  0  0  0  0  0  0
  141.7070   77.9460  218.4230 C   0  0  0  0  0  0  0  0  0  0  0  0
  142.1450   77.1890  217.5080 O   0  0  0  0  0  0  0  0  0  0  0  0
  141.7360   79.3110  218.2670 N   0  0  0  0  0  0  0  0  0  0  0  0
  142.2440   79.8730  217.1210 C   0  0  0  0  0  0  0  0  0  0  0  0
  142.6197   79.2230  216.3171 H   0  0  0  0  0  0  0  0  0  0  0  0
  142.2890   81.2590  216.9650 C   0  0  0  0  0  0  0  0  0  0  0  0
  142.9520   81.9610  215.5010 Cl  0  0  0  0  0  0  0  0  0  0  0  0
  141.8080   82.0830  217.9810 C   0  0  0  0  0  0  0  0  0  0  0  0
  141.8474   83.1767  217.8700 H   0  0  0  0  0  0  0  0  0  0  0  0
  141.2770   81.5160  219.1380 C   0  0  0  0  0  0  0  0  0  0  0  0
  140.6720   82.5680  220.4130 Cl  0  0  0  0  0  0  0  0  0  0  0  0
  141.2480   80.1200  219.2710 C   0  0  0  0  0  0  0  0  0  0  0  0
  140.7280   79.5710  220.3960 N   0  0  0  0  0  0  0  0  0  0  0  0
  140.6790   78.2290  220.5990 C   0  0  0  0  0  0  0  0  0  0  0  0
  140.1600   77.7170  221.7690 N   0  0  0  0  0  0  0  0  0  0  0  0
  139.7080   78.6400  222.8380 C   0  0  0  0  0  0  0  0  0  0  0  0
  138.8903   79.2674  222.4536 H   0  0  0  0  0  0  0  0  0  0  0  0
  139.3580   78.0482  223.6966 H   0  0  0  0  0  0  0  0  0  0  0  0
  140.8470   79.5250  223.2840 C   0  0  0  0  0  0  0  0  0  0  0  0
  140.5900   80.7960  223.8310 C   0  0  0  0  0  0  0  0  0  0  0  0
  139.5514   81.1221  223.9893 H   0  0  0  0  0  0  0  0  0  0  0  0
  141.6450   81.6480  224.1750 C   0  0  0  0  0  0  0  0  0  0  0  0
  141.4342   82.6432  224.5936 H   0  0  0  0  0  0  0  0  0  0  0  0
  142.9660   81.2350  223.9870 C   0  0  0  0  0  0  0  0  0  0  0  0
  143.7957   81.9053  224.2557 H   0  0  0  0  0  0  0  0  0  0  0  0
  143.2330   79.9690  223.4570 C   0  0  0  0  0  0  0  0  0  0  0  0
  144.2738   79.6412  223.3184 H   0  0  0  0  0  0  0  0  0  0  0  0
  142.1800   79.1170  223.1020 C   0  0  0  0  0  0  0  0  0  0  0  0
  142.3966   78.1249  222.6792 H   0  0  0  0  0  0  0  0  0  0  0  0
  1  2  1  0
  2  3  2  0
  3  4  1  0
  4  5  1  0
  5  6  2  0
  6  7  1  0
  7  8  1  1
  7  9  1  0
  9 10  2  0
 10 11  1  0
 10 12  1  0
 12 13  1  0
 12 14  2  0
 14 15  1  0
 14 16  1  0
 16 17  1  0
 16 18  2  0
 18 19  1  0
  7 20  1  0
 20 21  1  0
 20 22  1  0
 20 23  1  0
  5 24  1  0
 24 25  1  0
  4 26  2  0
 26 27  1  0
 26 28  1  0
 28 29  1  0
 29 30  2  0
 29 31  1  0
 31 32  1  0
 32 33  1  0
 32 34  2  0
 34 35  1  0
 34 36  1  0
 36 37  1  0
 36 38  2  0
 38 39  1  0
 38 40  1  0
 40 41  2  0
 41 42  1  0
 42 43  1  0
 43 44  1  0
 44 45  1  0
 44 46  1  0
 44 47  1  0
 47 48  2  0
 48 49  1  0
 48 50  1  0
 50 51  1  0
 50 52  2  0
 52 53  1  0
 52 54  1  0
 54 55  1  0
 54 56  2  0
 56 57  1  0
 43  3  1  0
 56 47  1  0
 18  9  1  0
 42 28  2  0
 40 31  1  0
M  END
>  <UniqueID>  (72) 
99

>  <SMILES>  (72) 
[H]/N=c1\c(/C(O)=N\[C@@H](C)c2ccccc2)cc2c(=O)n3cc(Cl)cc(Cl)c3nc2n1Cc1ccccc1

>  <Energy>  (72) 
87.676056261595

>  <Genealogy>  (72) 
C[C@H](N=C(O)c1cc2c(=O)n3cc(Cl)cc(Cl)c3nc2n(Cc2ccccc2)c1=N)c1ccccc1 (tautomer)
[H]/N=c1\c(/C(O)=N\[C@@H](C)c2ccccc2)cc2c(=O)n3cc(Cl)cc(Cl)c3nc2n1Cc1ccccc1 (cis-trans isomerization)
[H]/N=c1\c(/C(O)=N\[C@@H](C)c2ccccc2)cc2c(=O)n3cc(Cl)cc(Cl)c3nc2n1Cc1ccccc1 (3D coordinates assigned)
[H]/N=c1\c(/C(O)=N\[C@@H](C)c2ccccc2)cc2c(=O)n3cc(Cl)cc(Cl)c3nc2n1Cc1ccccc1 (optimized conformer: 87.676056261595 kcal/mol)

>  <smiles>  (72) 
C[C@H](NC(=O)c1cc2c(=O)n3cc(Cl)cc(Cl)c3nc2n(Cc2ccccc2)c1=N)c1ccccc1

>  <score_type>  (72) 
oracle

>  <origin>  (72) 
autodockgpu

>  <m_score__min__energy>  (72) 
-8.75

>  <m_primary>  (72) 
energy

>  <meeko>  (72) 
{"free_energy": -8.45, "intermolecular_energy": -10.83, "internal_energy": -2.33, "cluster_size": 7, "cluster_id": 2, "rank_in_cluster": 2}

>  <energy>  (72) 
-8.24

>  <cluster_rmsd>  (72) 
0.12

>  <rmsd>  (72) 
269.65

>  <cluster>  (72) 
3

$$$$
AFKJZVLHPMIVAS-GTMIJVOPNA-N
     RDKit          3D

 57 61  0  0  0  0  0  0  0  0999 V2000
  137.6440   74.4010  222.6920 H   0  0  0  0  0  0  0  0  0  0  0  0
  137.2070   75.2360  222.2430 N   0  0  0  0  0  0  0  0  0  0  0  0
  137.4000   76.4670  222.6180 C   0  0  0  0  0  0  0  0  0  0  0  0
  138.7130   76.9860  222.7090 C   0  0  0  0  0  0  0  0  0  0  0  0
  139.9040   76.1650  222.4110 C   0  0  0  0  0  0  0  0  0  0  0  0
  141.0850   76.6900  222.2270 N   0  0  0  0  0  0  0  0  0  0  0  0
  141.4570   77.6690  221.1990 C   0  0  2  0  0  0  0  0  0  0  0  0
  142.3769   77.3678  220.6764 H   0  0  0  0  0  0  0  0  0  0  0  0
  141.7310   78.9960  221.8700 C   0  0  0  0  0  0  0  0  0  0  0  0
  141.4380   80.2230  221.2390 C   0  0  0  0  0  0  0  0  0  0  0  0
  141.0499   80.2295  220.2098 H   0  0  0  0  0  0  0  0  0  0  0  0
  141.6380   81.4310  221.9140 C   0  0  0  0  0  0  0  0  0  0  0  0
  141.4327   82.3842  221.4048 H   0  0  0  0  0  0  0  0  0  0  0  0
  142.0980   81.4310  223.2340 C   0  0  0  0  0  0  0  0  0  0  0  0
  142.2529   82.3829  223.7631 H   0  0  0  0  0  0  0  0  0  0  0  0
  142.3610   80.2200  223.8810 C   0  0  0  0  0  0  0  0  0  0  0  0
  142.7150   80.2195  224.9225 H   0  0  0  0  0  0  0  0  0  0  0  0
  142.1750   79.0100  223.2070 C   0  0  0  0  0  0  0  0  0  0  0  0
  142.3769   78.0607  223.7247 H   0  0  0  0  0  0  0  0  0  0  0  0
  140.3580   77.7420  220.1300 C   0  0  0  0  0  0  0  0  0  0  0  0
  139.3748   77.8073  220.6188 H   0  0  0  0  0  0  0  0  0  0  0  0
  140.5153   78.6317  219.5025 H   0  0  0  0  0  0  0  0  0  0  0  0
  140.3963   76.8393  219.5025 H   0  0  0  0  0  0  0  0  0  0  0  0
  139.7480   74.7840  222.3070 O   0  0  0  0  0  0  0  0  0  0  0  0
  139.0550   74.2940  222.8620 H   0  0  0  0  0  0  0  0  0  0  0  0
  138.9000   78.3120  223.0950 C   0  0  0  0  0  0  0  0  0  0  0  0
  139.9186   78.7177  223.1835 H   0  0  0  0  0  0  0  0  0  0  0  0
  137.8010   79.1280  223.3700 C   0  0  0  0  0  0  0  0  0  0  0  0
  137.9510   80.4780  223.7440 C   0  0  0  0  0  0  0  0  0  0  0  0
  139.1100   80.9820  223.8130 O   0  0  0  0  0  0  0  0  0  0  0  0
  136.8440   81.2420  224.0290 N   0  0  0  0  0  0  0  0  0  0  0  0
  136.9800   82.5580  224.3950 C   0  0  0  0  0  0  0  0  0  0  0  0
  137.9828   83.0070  224.4486 H   0  0  0  0  0  0  0  0  0  0  0  0
  135.8590   83.3330  224.7000 C   0  0  0  0  0  0  0  0  0  0  0  0
  136.0500   85.0100  225.1780 Cl  0  0  0  0  0  0  0  0  0  0  0  0
  134.5880   82.7670  224.6250 C   0  0  0  0  0  0  0  0  0  0  0  0
  133.7003   83.3682  224.8710 H   0  0  0  0  0  0  0  0  0  0  0  0
  134.4460   81.4360  224.2370 C   0  0  0  0  0  0  0  0  0  0  0  0
  132.8360   80.7320  224.1460 Cl  0  0  0  0  0  0  0  0  0  0  0  0
  135.5890   80.6780  223.9420 C   0  0  0  0  0  0  0  0  0  0  0  0
  135.4480   79.3840  223.5620 N   0  0  0  0  0  0  0  0  0  0  0  0
  136.5090   78.5880  223.2730 C   0  0  0  0  0  0  0  0  0  0  0  0
  136.3180   77.2710  222.9110 N   0  0  0  0  0  0  0  0  0  0  0  0
  134.9470   76.7050  222.8960 C   0  0  0  0  0  0  0  0  0  0  0  0
  134.2529   77.4471  222.4747 H   0  0  0  0  0  0  0  0  0  0  0  0
  134.9436   75.7931  222.2808 H   0  0  0  0  0  0  0  0  0  0  0  0
  134.5090   76.3530  224.2970 C   0  0  0  0  0  0  0  0  0  0  0  0
  134.7610   75.0710  224.8210 C   0  0  0  0  0  0  0  0  0  0  0  0
  135.3330   74.3416  224.2287 H   0  0  0  0  0  0  0  0  0  0  0  0
  134.2890   74.7180  226.0900 C   0  0  0  0  0  0  0  0  0  0  0  0
  134.4829   73.7109  226.4878 H   0  0  0  0  0  0  0  0  0  0  0  0
  133.5720   75.6430  226.8520 C   0  0  0  0  0  0  0  0  0  0  0  0
  133.2004   75.3647  227.8493 H   0  0  0  0  0  0  0  0  0  0  0  0
  133.3270   76.9230  226.3460 C   0  0  0  0  0  0  0  0  0  0  0  0
  132.7693   77.6537  226.9501 H   0  0  0  0  0  0  0  0  0  0  0  0
  133.7890   77.2780  225.0730 C   0  0  0  0  0  0  0  0  0  0  0  0
  133.5878   78.2849  224.6784 H   0  0  0  0  0  0  0  0  0  0  0  0
  1  2  1  0
  2  3  2  0
  3  4  1  0
  4  5  1  0
  5  6  2  0
  6  7  1  0
  7  8  1  6
  7  9  1  0
  9 10  2  0
 10 11  1  0
 10 12  1  0
 12 13  1  0
 12 14  2  0
 14 15  1  0
 14 16  1  0
 16 17  1  0
 16 18  2  0
 18 19  1  0
  7 20  1  0
 20 21  1  0
 20 22  1  0
 20 23  1  0
  5 24  1  0
 24 25  1  0
  4 26  2  0
 26 27  1  0
 26 28  1  0
 28 29  1  0
 29 30  2  0
 29 31  1  0
 31 32  1  0
 32 33  1  0
 32 34  2  0
 34 35  1  0
 34 36  1  0
 36 37  1  0
 36 38  2  0
 38 39  1  0
 38 40  1  0
 40 41  2  0
 41 42  1  0
 42 43  1  0
 43 44  1  0
 44 45  1  0
 44 46  1  0
 44 47  1  0
 47 48  2  0
 48 49  1  0
 48 50  1  0
 50 51  1  0
 50 52  2  0
 52 53  1  0
 52 54  1  0
 54 55  1  0
 54 56  2  0
 56 57  1  0
 43  3  1  0
 56 47  1  0
 18  9  1  0
 42 28  2  0
 40 31  1  0
M  END
>  <UniqueID>  (73) 
99

>  <SMILES>  (73) 
[H]/N=c1\c(/C(O)=N\[C@@H](C)c2ccccc2)cc2c(=O)n3cc(Cl)cc(Cl)c3nc2n1Cc1ccccc1

>  <Energy>  (73) 
87.676056261595

>  <Genealogy>  (73) 
C[C@H](N=C(O)c1cc2c(=O)n3cc(Cl)cc(Cl)c3nc2n(Cc2ccccc2)c1=N)c1ccccc1 (tautomer)
[H]/N=c1\c(/C(O)=N\[C@@H](C)c2ccccc2)cc2c(=O)n3cc(Cl)cc(Cl)c3nc2n1Cc1ccccc1 (cis-trans isomerization)
[H]/N=c1\c(/C(O)=N\[C@@H](C)c2ccccc2)cc2c(=O)n3cc(Cl)cc(Cl)c3nc2n1Cc1ccccc1 (3D coordinates assigned)
[H]/N=c1\c(/C(O)=N\[C@@H](C)c2ccccc2)cc2c(=O)n3cc(Cl)cc(Cl)c3nc2n1Cc1ccccc1 (optimized conformer: 87.676056261595 kcal/mol)

>  <smiles>  (73) 
C[C@H](NC(=O)c1cc2c(=O)n3cc(Cl)cc(Cl)c3nc2n(Cc2ccccc2)c1=N)c1ccccc1

>  <score_type>  (73) 
oracle

>  <origin>  (73) 
autodockgpu

>  <m_score__min__energy>  (73) 
-8.75

>  <m_primary>  (73) 
energy

>  <meeko>  (73) 
{"free_energy": -7.78, "intermolecular_energy": -10.17, "internal_energy": -2.76, "cluster_size": 8, "cluster_id": 4, "rank_in_cluster": 3}

>  <energy>  (73) 
-7.79

>  <cluster_rmsd>  (73) 
0.0

>  <rmsd>  (73) 
270.77

>  <cluster>  (73) 
4

$$$$
AFKJZVLHPMIVAS-GTMIJVOPNA-N
     RDKit          3D

 57 61  0  0  0  0  0  0  0  0999 V2000
  137.6680   74.3630  222.6780 H   0  0  0  0  0  0  0  0  0  0  0  0
  137.2380   75.2020  222.2300 N   0  0  0  0  0  0  0  0  0  0  0  0
  137.4370   76.4310  222.6110 C   0  0  0  0  0  0  0  0  0  0  0  0
  138.7510   76.9450  222.7010 C   0  0  0  0  0  0  0  0  0  0  0  0
  139.9390   76.1220  222.3940 C   0  0  0  0  0  0  0  0  0  0  0  0
  141.1120   76.6480  222.1660 N   0  0  0  0  0  0  0  0  0  0  0  0
  141.4380   77.6470  221.1430 C   0  0  2  0  0  0  0  0  0  0  0  0
  142.3413   77.3632  220.5831 H   0  0  0  0  0  0  0  0  0  0  0  0
  141.7230   78.9650  221.8270 C   0  0  0  0  0  0  0  0  0  0  0  0
  141.4280   80.2010  221.2130 C   0  0  0  0  0  0  0  0  0  0  0  0
  141.0307   80.2214  220.1875 H   0  0  0  0  0  0  0  0  0  0  0  0
  141.6380   81.3990  221.9010 C   0  0  0  0  0  0  0  0  0  0  0  0
  141.4296   82.3590  221.4060 H   0  0  0  0  0  0  0  0  0  0  0  0
  142.1120   81.3820  223.2160 C   0  0  0  0  0  0  0  0  0  0  0  0
  142.2755   82.3272  223.7545 H   0  0  0  0  0  0  0  0  0  0  0  0
  142.3780   80.1630  223.8460 C   0  0  0  0  0  0  0  0  0  0  0  0
  142.7428   80.1489  224.8836 H   0  0  0  0  0  0  0  0  0  0  0  0
  142.1810   78.9620  223.1590 C   0  0  0  0  0  0  0  0  0  0  0  0
  142.3854   78.0059  223.6630 H   0  0  0  0  0  0  0  0  0  0  0  0
  140.3010   77.7280  220.1140 C   0  0  0  0  0  0  0  0  0  0  0  0
  139.3363   77.7967  220.6381 H   0  0  0  0  0  0  0  0  0  0  0  0
  140.4399   78.6185  219.4834 H   0  0  0  0  0  0  0  0  0  0  0  0
  140.3123   76.8268  219.4834 H   0  0  0  0  0  0  0  0  0  0  0  0
  139.7870   74.7380  222.3320 O   0  0  0  0  0  0  0  0  0  0  0  0
  139.0790   74.2650  222.8820 H   0  0  0  0  0  0  0  0  0  0  0  0
  138.9440   78.2690  223.0930 C   0  0  0  0  0  0  0  0  0  0  0  0
  139.9643   78.6709  223.1797 H   0  0  0  0  0  0  0  0  0  0  0  0
  137.8490   79.0870  223.3760 C   0  0  0  0  0  0  0  0  0  0  0  0
  138.0030   80.4330  223.7570 C   0  0  0  0  0  0  0  0  0  0  0  0
  139.1640   80.9330  223.8250 O   0  0  0  0  0  0  0  0  0  0  0  0
  136.9000   81.1990  224.0500 N   0  0  0  0  0  0  0  0  0  0  0  0
  137.0410   82.5130  224.4230 C   0  0  0  0  0  0  0  0  0  0  0  0
  138.0455   82.9581  224.4764 H   0  0  0  0  0  0  0  0  0  0  0  0
  135.9250   83.2900  224.7350 C   0  0  0  0  0  0  0  0  0  0  0  0
  136.1220   84.9640  225.2210 Cl  0  0  0  0  0  0  0  0  0  0  0  0
  134.6510   82.7290  224.6610 C   0  0  0  0  0  0  0  0  0  0  0  0
  133.7661   83.3321  224.9123 H   0  0  0  0  0  0  0  0  0  0  0  0
  134.5040   81.4000  224.2670 C   0  0  0  0  0  0  0  0  0  0  0  0
  132.8910   80.7030  224.1770 Cl  0  0  0  0  0  0  0  0  0  0  0  0
  135.6440   80.6400  223.9630 C   0  0  0  0  0  0  0  0  0  0  0  0
  135.4970   79.3490  223.5770 N   0  0  0  0  0  0  0  0  0  0  0  0
  136.5550   78.5510  223.2810 C   0  0  0  0  0  0  0  0  0  0  0  0
  136.3580   77.2370  222.9120 N   0  0  0  0  0  0  0  0  0  0  0  0
  134.9850   76.6750  222.8980 C   0  0  0  0  0  0  0  0  0  0  0  0
  134.2937   77.4172  222.4722 H   0  0  0  0  0  0  0  0  0  0  0  0
  134.9797   75.7602  222.2872 H   0  0  0  0  0  0  0  0  0  0  0  0
  134.5440   76.3310  224.3000 C   0  0  0  0  0  0  0  0  0  0  0  0
  134.7890   75.0500  224.8300 C   0  0  0  0  0  0  0  0  0  0  0  0
  135.3579   74.3151  224.2415 H   0  0  0  0  0  0  0  0  0  0  0  0
  134.3140   74.7050  226.1000 C   0  0  0  0  0  0  0  0  0  0  0  0
  134.5016   73.6984  226.5019 H   0  0  0  0  0  0  0  0  0  0  0  0
  133.6020   75.6370  226.8580 C   0  0  0  0  0  0  0  0  0  0  0  0
  133.2283   75.3652  227.8562 H   0  0  0  0  0  0  0  0  0  0  0  0
  133.3650   76.9160  226.3460 C   0  0  0  0  0  0  0  0  0  0  0  0
  132.8113   77.6524  226.9470 H   0  0  0  0  0  0  0  0  0  0  0  0
  133.8290   77.2640  225.0720 C   0  0  0  0  0  0  0  0  0  0  0  0
  133.6337   78.2705  224.6734 H   0  0  0  0  0  0  0  0  0  0  0  0
  1  2  1  0
  2  3  2  0
  3  4  1  0
  4  5  1  0
  5  6  2  0
  6  7  1  0
  7  8  1  6
  7  9  1  0
  9 10  2  0
 10 11  1  0
 10 12  1  0
 12 13  1  0
 12 14  2  0
 14 15  1  0
 14 16  1  0
 16 17  1  0
 16 18  2  0
 18 19  1  0
  7 20  1  0
 20 21  1  0
 20 22  1  0
 20 23  1  0
  5 24  1  0
 24 25  1  0
  4 26  2  0
 26 27  1  0
 26 28  1  0
 28 29  1  0
 29 30  2  0
 29 31  1  0
 31 32  1  0
 32 33  1  0
 32 34  2  0
 34 35  1  0
 34 36  1  0
 36 37  1  0
 36 38  2  0
 38 39  1  0
 38 40  1  0
 40 41  2  0
 41 42  1  0
 42 43  1  0
 43 44  1  0
 44 45  1  0
 44 46  1  0
 44 47  1  0
 47 48  2  0
 48 49  1  0
 48 50  1  0
 50 51  1  0
 50 52  2  0
 52 53  1  0
 52 54  1  0
 54 55  1  0
 54 56  2  0
 56 57  1  0
 43  3  1  0
 56 47  1  0
 18  9  1  0
 42 28  2  0
 40 31  1  0
M  END
>  <UniqueID>  (74) 
99

>  <SMILES>  (74) 
[H]/N=c1\c(/C(O)=N\[C@@H](C)c2ccccc2)cc2c(=O)n3cc(Cl)cc(Cl)c3nc2n1Cc1ccccc1

>  <Energy>  (74) 
87.676056261595

>  <Genealogy>  (74) 
C[C@H](N=C(O)c1cc2c(=O)n3cc(Cl)cc(Cl)c3nc2n(Cc2ccccc2)c1=N)c1ccccc1 (tautomer)
[H]/N=c1\c(/C(O)=N\[C@@H](C)c2ccccc2)cc2c(=O)n3cc(Cl)cc(Cl)c3nc2n1Cc1ccccc1 (cis-trans isomerization)
[H]/N=c1\c(/C(O)=N\[C@@H](C)c2ccccc2)cc2c(=O)n3cc(Cl)cc(Cl)c3nc2n1Cc1ccccc1 (3D coordinates assigned)
[H]/N=c1\c(/C(O)=N\[C@@H](C)c2ccccc2)cc2c(=O)n3cc(Cl)cc(Cl)c3nc2n1Cc1ccccc1 (optimized conformer: 87.676056261595 kcal/mol)

>  <smiles>  (74) 
C[C@H](NC(=O)c1cc2c(=O)n3cc(Cl)cc(Cl)c3nc2n(Cc2ccccc2)c1=N)c1ccccc1

>  <score_type>  (74) 
oracle

>  <origin>  (74) 
autodockgpu

>  <m_score__min__energy>  (74) 
-8.75

>  <m_primary>  (74) 
energy

>  <meeko>  (74) 
{"free_energy": -7.79, "intermolecular_energy": -10.18, "internal_energy": -2.73, "cluster_size": 8, "cluster_id": 4, "rank_in_cluster": 2}

>  <energy>  (74) 
-7.79

>  <cluster_rmsd>  (74) 
0.05

>  <rmsd>  (74) 
270.78

>  <cluster>  (74) 
4

$$$$
AFKJZVLHPMIVAS-GTMIJVOPNA-N
     RDKit          3D

 57 61  0  0  0  0  0  0  0  0999 V2000
  137.6350   74.3830  222.6900 H   0  0  0  0  0  0  0  0  0  0  0  0
  137.1970   75.2180  222.2430 N   0  0  0  0  0  0  0  0  0  0  0  0
  137.3900   76.4490  222.6200 C   0  0  0  0  0  0  0  0  0  0  0  0
  138.7020   76.9690  222.7070 C   0  0  0  0  0  0  0  0  0  0  0  0
  139.8940   76.1500  222.4030 C   0  0  0  0  0  0  0  0  0  0  0  0
  141.0730   76.6780  222.2140 N   0  0  0  0  0  0  0  0  0  0  0  0
  141.4390   77.6570  221.1850 C   0  0  2  0  0  0  0  0  0  0  0  0
  142.3561   77.3566  220.6571 H   0  0  0  0  0  0  0  0  0  0  0  0
  141.7160   78.9840  221.8560 C   0  0  0  0  0  0  0  0  0  0  0  0
  141.4280   80.2120  221.2230 C   0  0  0  0  0  0  0  0  0  0  0  0
  141.0422   80.2189  220.1929 H   0  0  0  0  0  0  0  0  0  0  0  0
  141.6300   81.4190  221.8970 C   0  0  0  0  0  0  0  0  0  0  0  0
  141.4288   82.3724  221.3865 H   0  0  0  0  0  0  0  0  0  0  0  0
  142.0870   81.4190  223.2180 C   0  0  0  0  0  0  0  0  0  0  0  0
  142.2428   82.3710  223.7465 H   0  0  0  0  0  0  0  0  0  0  0  0
  142.3460   80.2080  223.8670 C   0  0  0  0  0  0  0  0  0  0  0  0
  142.6981   80.2075  224.9091 H   0  0  0  0  0  0  0  0  0  0  0  0
  142.1580   78.9980  223.1930 C   0  0  0  0  0  0  0  0  0  0  0  0
  142.3570   78.0485  223.7114 H   0  0  0  0  0  0  0  0  0  0  0  0
  140.3350   77.7300  220.1220 C   0  0  0  0  0  0  0  0  0  0  0  0
  139.3542   77.7949  220.6158 H   0  0  0  0  0  0  0  0  0  0  0  0
  140.4889   78.6199  219.4940 H   0  0  0  0  0  0  0  0  0  0  0  0
  140.3704   76.8276  219.4940 H   0  0  0  0  0  0  0  0  0  0  0  0
  139.7390   74.7700  222.2980 O   0  0  0  0  0  0  0  0  0  0  0  0
  139.0500   74.2780  222.8550 H   0  0  0  0  0  0  0  0  0  0  0  0
  138.8890   78.2950  223.0950 C   0  0  0  0  0  0  0  0  0  0  0  0
  139.9074   78.7017  223.1809 H   0  0  0  0  0  0  0  0  0  0  0  0
  137.7900   79.1090  223.3750 C   0  0  0  0  0  0  0  0  0  0  0  0
  137.9390   80.4580  223.7520 C   0  0  0  0  0  0  0  0  0  0  0  0
  139.0980   80.9630  223.8180 O   0  0  0  0  0  0  0  0  0  0  0  0
  136.8330   81.2200  224.0430 N   0  0  0  0  0  0  0  0  0  0  0  0
  136.9680   82.5360  224.4110 C   0  0  0  0  0  0  0  0  0  0  0  0
  137.9703   82.9863  224.4613 H   0  0  0  0  0  0  0  0  0  0  0  0
  135.8480   83.3090  224.7220 C   0  0  0  0  0  0  0  0  0  0  0  0
  136.0380   84.9850  225.2020 Cl  0  0  0  0  0  0  0  0  0  0  0  0
  134.5770   82.7410  224.6500 C   0  0  0  0  0  0  0  0  0  0  0  0
  133.6891   83.3404  224.8998 H   0  0  0  0  0  0  0  0  0  0  0  0
  134.4360   81.4100  224.2600 C   0  0  0  0  0  0  0  0  0  0  0  0
  132.8260   80.7050  224.1730 Cl  0  0  0  0  0  0  0  0  0  0  0  0
  135.5790   80.6550  223.9590 C   0  0  0  0  0  0  0  0  0  0  0  0
  135.4370   79.3610  223.5770 N   0  0  0  0  0  0  0  0  0  0  0  0
  136.4990   78.5670  223.2830 C   0  0  0  0  0  0  0  0  0  0  0  0
  136.3080   77.2510  222.9190 N   0  0  0  0  0  0  0  0  0  0  0  0
  134.9380   76.6830  222.9080 C   0  0  0  0  0  0  0  0  0  0  0  0
  134.2407   77.4262  222.4939 H   0  0  0  0  0  0  0  0  0  0  0  0
  134.9333   75.7742  222.2883 H   0  0  0  0  0  0  0  0  0  0  0  0
  134.5070   76.3230  224.3090 C   0  0  0  0  0  0  0  0  0  0  0  0
  134.7590   75.0370  224.8230 C   0  0  0  0  0  0  0  0  0  0  0  0
  135.3264   74.3102  224.2231 H   0  0  0  0  0  0  0  0  0  0  0  0
  134.2920   74.6770  226.0930 C   0  0  0  0  0  0  0  0  0  0  0  0
  134.4837   73.6665  226.4830 H   0  0  0  0  0  0  0  0  0  0  0  0
  133.5830   75.6000  226.8650 C   0  0  0  0  0  0  0  0  0  0  0  0
  133.2169   75.3172  227.8630 H   0  0  0  0  0  0  0  0  0  0  0  0
  133.3390   76.8840  226.3680 C   0  0  0  0  0  0  0  0  0  0  0  0
  132.7872   77.6126  226.9801 H   0  0  0  0  0  0  0  0  0  0  0  0
  133.7940   77.2460  225.0950 C   0  0  0  0  0  0  0  0  0  0  0  0
  133.5933   78.2559  224.7078 H   0  0  0  0  0  0  0  0  0  0  0  0
  1  2  1  0
  2  3  2  0
  3  4  1  0
  4  5  1  0
  5  6  2  0
  6  7  1  0
  7  8  1  6
  7  9  1  0
  9 10  2  0
 10 11  1  0
 10 12  1  0
 12 13  1  0
 12 14  2  0
 14 15  1  0
 14 16  1  0
 16 17  1  0
 16 18  2  0
 18 19  1  0
  7 20  1  0
 20 21  1  0
 20 22  1  0
 20 23  1  0
  5 24  1  0
 24 25  1  0
  4 26  2  0
 26 27  1  0
 26 28  1  0
 28 29  1  0
 29 30  2  0
 29 31  1  0
 31 32  1  0
 32 33  1  0
 32 34  2  0
 34 35  1  0
 34 36  1  0
 36 37  1  0
 36 38  2  0
 38 39  1  0
 38 40  1  0
 40 41  2  0
 41 42  1  0
 42 43  1  0
 43 44  1  0
 44 45  1  0
 44 46  1  0
 44 47  1  0
 47 48  2  0
 48 49  1  0
 48 50  1  0
 50 51  1  0
 50 52  2  0
 52 53  1  0
 52 54  1  0
 54 55  1  0
 54 56  2  0
 56 57  1  0
 43  3  1  0
 56 47  1  0
 18  9  1  0
 42 28  2  0
 40 31  1  0
M  END
>  <UniqueID>  (75) 
99

>  <SMILES>  (75) 
[H]/N=c1\c(/C(O)=N\[C@@H](C)c2ccccc2)cc2c(=O)n3cc(Cl)cc(Cl)c3nc2n1Cc1ccccc1

>  <Energy>  (75) 
87.676056261595

>  <Genealogy>  (75) 
C[C@H](N=C(O)c1cc2c(=O)n3cc(Cl)cc(Cl)c3nc2n(Cc2ccccc2)c1=N)c1ccccc1 (tautomer)
[H]/N=c1\c(/C(O)=N\[C@@H](C)c2ccccc2)cc2c(=O)n3cc(Cl)cc(Cl)c3nc2n1Cc1ccccc1 (cis-trans isomerization)
[H]/N=c1\c(/C(O)=N\[C@@H](C)c2ccccc2)cc2c(=O)n3cc(Cl)cc(Cl)c3nc2n1Cc1ccccc1 (3D coordinates assigned)
[H]/N=c1\c(/C(O)=N\[C@@H](C)c2ccccc2)cc2c(=O)n3cc(Cl)cc(Cl)c3nc2n1Cc1ccccc1 (optimized conformer: 87.676056261595 kcal/mol)

>  <smiles>  (75) 
C[C@H](NC(=O)c1cc2c(=O)n3cc(Cl)cc(Cl)c3nc2n(Cc2ccccc2)c1=N)c1ccccc1

>  <score_type>  (75) 
oracle

>  <origin>  (75) 
autodockgpu

>  <m_score__min__energy>  (75) 
-8.75

>  <m_primary>  (75) 
energy

>  <meeko>  (75) 
{"free_energy": -7.78, "intermolecular_energy": -10.17, "internal_energy": -2.75, "cluster_size": 8, "cluster_id": 4, "rank_in_cluster": 4}

>  <energy>  (75) 
-7.78

>  <cluster_rmsd>  (75) 
0.02

>  <rmsd>  (75) 
270.77

>  <cluster>  (75) 
4

$$$$
AFKJZVLHPMIVAS-GTMIJVOPNA-N
     RDKit          3D

 57 61  0  0  0  0  0  0  0  0999 V2000
  139.5710   74.0820  223.0690 H   0  0  0  0  0  0  0  0  0  0  0  0
  140.2890   73.9110  222.3300 N   0  0  0  0  0  0  0  0  0  0  0  0
  140.5240   74.7040  221.3250 C   0  0  0  0  0  0  0  0  0  0  0  0
  139.8980   75.9700  221.2560 C   0  0  0  0  0  0  0  0  0  0  0  0
  138.9480   76.4340  222.2880 C   0  0  0  0  0  0  0  0  0  0  0  0
  139.0000   77.6360  222.7940 N   0  0  0  0  0  0  0  0  0  0  0  0
  139.3060   78.8770  222.0720 C   0  0  2  0  0  0  0  0  0  0  0  0
  139.4636   78.6871  221.0000 H   0  0  0  0  0  0  0  0  0  0  0  0
  140.5900   79.4530  222.6230 C   0  0  0  0  0  0  0  0  0  0  0  0
  141.8500   78.9050  222.3000 C   0  0  0  0  0  0  0  0  0  0  0  0
  141.9096   78.0017  221.6751 H   0  0  0  0  0  0  0  0  0  0  0  0
  143.0230   79.5040  222.7700 C   0  0  0  0  0  0  0  0  0  0  0  0
  143.9994   79.0540  222.5374 H   0  0  0  0  0  0  0  0  0  0  0  0
  142.9590   80.6720  223.5340 C   0  0  0  0  0  0  0  0  0  0  0  0
  143.8839   81.1421  223.8993 H   0  0  0  0  0  0  0  0  0  0  0  0
  141.7180   81.2430  223.8340 C   0  0  0  0  0  0  0  0  0  0  0  0
  141.6678   82.1664  224.4297 H   0  0  0  0  0  0  0  0  0  0  0  0
  140.5420   80.6420  223.3780 C   0  0  0  0  0  0  0  0  0  0  0  0
  139.5698   81.1011  223.6104 H   0  0  0  0  0  0  0  0  0  0  0  0
  138.1140   79.8400  222.1690 C   0  0  0  0  0  0  0  0  0  0  0  0
  137.8803   80.0288  223.2272 H   0  0  0  0  0  0  0  0  0  0  0  0
  138.3683   80.7892  221.6747 H   0  0  0  0  0  0  0  0  0  0  0  0
  137.2394   79.3919  221.6747 H   0  0  0  0  0  0  0  0  0  0  0  0
  137.9780   75.5440  222.7440 O   0  0  0  0  0  0  0  0  0  0  0  0
  138.1790   74.5540  222.8320 H   0  0  0  0  0  0  0  0  0  0  0  0
  140.1750   76.8140  220.1820 C   0  0  0  0  0  0  0  0  0  0  0  0
  139.6791   77.7935  220.1133 H   0  0  0  0  0  0  0  0  0  0  0  0
  141.0790   76.4220  219.1930 C   0  0  0  0  0  0  0  0  0  0  0  0
  141.3990   77.2550  218.1030 C   0  0  0  0  0  0  0  0  0  0  0  0
  140.8750   78.4040  218.0210 O   0  0  0  0  0  0  0  0  0  0  0  0
  142.2770   76.8230  217.1380 N   0  0  0  0  0  0  0  0  0  0  0  0
  142.5940   77.6270  216.0720 C   0  0  0  0  0  0  0  0  0  0  0  0
  142.1503   78.6308  215.9975 H   0  0  0  0  0  0  0  0  0  0  0  0
  143.4730   77.1860  215.0810 C   0  0  0  0  0  0  0  0  0  0  0  0
  143.8590   78.2220  213.7190 Cl  0  0  0  0  0  0  0  0  0  0  0  0
  144.0410   75.9180  215.1790 C   0  0  0  0  0  0  0  0  0  0  0  0
  144.7292   75.5595  214.3993 H   0  0  0  0  0  0  0  0  0  0  0  0
  143.7340   75.1050  216.2690 C   0  0  0  0  0  0  0  0  0  0  0  0
  144.4580   73.5050  216.3810 Cl  0  0  0  0  0  0  0  0  0  0  0  0
  142.8430   75.5710  217.2470 C   0  0  0  0  0  0  0  0  0  0  0  0
  142.5490   74.7790  218.3080 N   0  0  0  0  0  0  0  0  0  0  0  0
  141.6860   75.1590  219.2850 C   0  0  0  0  0  0  0  0  0  0  0  0
  141.4000   74.3120  220.3340 N   0  0  0  0  0  0  0  0  0  0  0  0
  141.9930   72.9530  220.3630 C   0  0  0  0  0  0  0  0  0  0  0  0
  141.6979   72.4485  221.2949 H   0  0  0  0  0  0  0  0  0  0  0  0
  141.6279   72.3855  219.4943 H   0  0  0  0  0  0  0  0  0  0  0  0
  143.4990   73.0350  220.2970 C   0  0  0  0  0  0  0  0  0  0  0  0
  144.2480   71.9760  219.7500 C   0  0  0  0  0  0  0  0  0  0  0  0
  143.7298   71.1097  219.3130 H   0  0  0  0  0  0  0  0  0  0  0  0
  145.6460   72.0170  219.7580 C   0  0  0  0  0  0  0  0  0  0  0  0
  146.2228   71.1799  219.3379 H   0  0  0  0  0  0  0  0  0  0  0  0
  146.3100   73.1200  220.2990 C   0  0  0  0  0  0  0  0  0  0  0  0
  147.4095   73.1519  220.3051 H   0  0  0  0  0  0  0  0  0  0  0  0
  145.5760   74.1840  220.8330 C   0  0  0  0  0  0  0  0  0  0  0  0
  146.1000   75.0560  221.2513 H   0  0  0  0  0  0  0  0  0  0  0  0
  144.1770   74.1430  220.8370 C   0  0  0  0  0  0  0  0  0  0  0  0
  143.6055   74.9803  221.2640 H   0  0  0  0  0  0  0  0  0  0  0  0
  1  2  1  0
  2  3  2  0
  3  4  1  0
  4  5  1  0
  5  6  2  0
  6  7  1  0
  7  8  1  6
  7  9  1  0
  9 10  2  0
 10 11  1  0
 10 12  1  0
 12 13  1  0
 12 14  2  0
 14 15  1  0
 14 16  1  0
 16 17  1  0
 16 18  2  0
 18 19  1  0
  7 20  1  0
 20 21  1  0
 20 22  1  0
 20 23  1  0
  5 24  1  0
 24 25  1  0
  4 26  2  0
 26 27  1  0
 26 28  1  0
 28 29  1  0
 29 30  2  0
 29 31  1  0
 31 32  1  0
 32 33  1  0
 32 34  2  0
 34 35  1  0
 34 36  1  0
 36 37  1  0
 36 38  2  0
 38 39  1  0
 38 40  1  0
 40 41  2  0
 41 42  1  0
 42 43  1  0
 43 44  1  0
 44 45  1  0
 44 46  1  0
 44 47  1  0
 47 48  2  0
 48 49  1  0
 48 50  1  0
 50 51  1  0
 50 52  2  0
 52 53  1  0
 52 54  1  0
 54 55  1  0
 54 56  2  0
 56 57  1  0
 43  3  1  0
 56 47  1  0
 18  9  1  0
 42 28  2  0
 40 31  1  0
M  END
>  <UniqueID>  (76) 
99

>  <SMILES>  (76) 
[H]/N=c1\c(/C(O)=N\[C@@H](C)c2ccccc2)cc2c(=O)n3cc(Cl)cc(Cl)c3nc2n1Cc1ccccc1

>  <Energy>  (76) 
87.676056261595

>  <Genealogy>  (76) 
C[C@H](N=C(O)c1cc2c(=O)n3cc(Cl)cc(Cl)c3nc2n(Cc2ccccc2)c1=N)c1ccccc1 (tautomer)
[H]/N=c1\c(/C(O)=N\[C@@H](C)c2ccccc2)cc2c(=O)n3cc(Cl)cc(Cl)c3nc2n1Cc1ccccc1 (cis-trans isomerization)
[H]/N=c1\c(/C(O)=N\[C@@H](C)c2ccccc2)cc2c(=O)n3cc(Cl)cc(Cl)c3nc2n1Cc1ccccc1 (3D coordinates assigned)
[H]/N=c1\c(/C(O)=N\[C@@H](C)c2ccccc2)cc2c(=O)n3cc(Cl)cc(Cl)c3nc2n1Cc1ccccc1 (optimized conformer: 87.676056261595 kcal/mol)

>  <smiles>  (76) 
C[C@H](NC(=O)c1cc2c(=O)n3cc(Cl)cc(Cl)c3nc2n(Cc2ccccc2)c1=N)c1ccccc1

>  <score_type>  (76) 
oracle

>  <origin>  (76) 
autodockgpu

>  <m_score__min__energy>  (76) 
-8.75

>  <m_primary>  (76) 
energy

>  <meeko>  (76) 
{"free_energy": -8.24, "intermolecular_energy": -10.63, "internal_energy": -2.39, "cluster_size": 3, "cluster_id": 3, "rank_in_cluster": 2}

>  <energy>  (76) 
-7.78

>  <cluster_rmsd>  (76) 
0.03

>  <rmsd>  (76) 
270.76

>  <cluster>  (76) 
4

$$$$
AFKJZVLHPMIVAS-GTMIJVOPNA-N
     RDKit          3D

 57 61  0  0  0  0  0  0  0  0999 V2000
  137.7070   74.3470  222.6600 H   0  0  0  0  0  0  0  0  0  0  0  0
  137.2780   75.1880  222.2170 N   0  0  0  0  0  0  0  0  0  0  0  0
  137.4760   76.4150  222.6050 C   0  0  0  0  0  0  0  0  0  0  0  0
  138.7900   76.9300  222.6940 C   0  0  0  0  0  0  0  0  0  0  0  0
  139.9780   76.1090  222.3790 C   0  0  0  0  0  0  0  0  0  0  0  0
  141.1440   76.6390  222.1230 N   0  0  0  0  0  0  0  0  0  0  0  0
  141.4380   77.6570  221.1090 C   0  0  2  0  0  0  0  0  0  0  0  0
  142.3259   77.3862  220.5189 H   0  0  0  0  0  0  0  0  0  0  0  0
  141.7390   78.9640  221.8080 C   0  0  0  0  0  0  0  0  0  0  0  0
  141.4590   80.2100  221.2080 C   0  0  0  0  0  0  0  0  0  0  0  0
  141.0615   80.2466  220.1830 H   0  0  0  0  0  0  0  0  0  0  0  0
  141.6840   81.3980  221.9090 C   0  0  0  0  0  0  0  0  0  0  0  0
  141.4889   82.3658  221.4239 H   0  0  0  0  0  0  0  0  0  0  0  0
  142.1560   81.3610  223.2240 C   0  0  0  0  0  0  0  0  0  0  0  0
  142.3299   82.2981  223.7731 H   0  0  0  0  0  0  0  0  0  0  0  0
  142.4070   80.1310  223.8410 C   0  0  0  0  0  0  0  0  0  0  0  0
  142.7717   80.1011  224.8784 H   0  0  0  0  0  0  0  0  0  0  0  0
  142.1950   78.9400  223.1410 C   0  0  0  0  0  0  0  0  0  0  0  0
  142.3858   77.9758  223.6349 H   0  0  0  0  0  0  0  0  0  0  0  0
  140.2730   77.7520  220.1140 C   0  0  0  0  0  0  0  0  0  0  0  0
  139.3247   77.8293  220.6660 H   0  0  0  0  0  0  0  0  0  0  0  0
  140.4027   78.6425  219.4815 H   0  0  0  0  0  0  0  0  0  0  0  0
  140.2567   76.8522  219.4815 H   0  0  0  0  0  0  0  0  0  0  0  0
  139.8340   74.7240  222.3390 O   0  0  0  0  0  0  0  0  0  0  0  0
  139.1170   74.2580  222.8830 H   0  0  0  0  0  0  0  0  0  0  0  0
  138.9830   78.2510  223.0930 C   0  0  0  0  0  0  0  0  0  0  0  0
  140.0033   78.6531  223.1792 H   0  0  0  0  0  0  0  0  0  0  0  0
  137.8880   79.0670  223.3840 C   0  0  0  0  0  0  0  0  0  0  0  0
  138.0430   80.4110  223.7730 C   0  0  0  0  0  0  0  0  0  0  0  0
  139.2040   80.9120  223.8410 O   0  0  0  0  0  0  0  0  0  0  0  0
  136.9400   81.1750  224.0730 N   0  0  0  0  0  0  0  0  0  0  0  0
  137.0810   82.4870  224.4530 C   0  0  0  0  0  0  0  0  0  0  0  0
  138.0852   82.9329  224.5057 H   0  0  0  0  0  0  0  0  0  0  0  0
  135.9650   83.2610  224.7730 C   0  0  0  0  0  0  0  0  0  0  0  0
  136.1620   84.9320  225.2690 Cl  0  0  0  0  0  0  0  0  0  0  0  0
  134.6920   82.6980  224.6990 C   0  0  0  0  0  0  0  0  0  0  0  0
  133.8072   83.2987  224.9564 H   0  0  0  0  0  0  0  0  0  0  0  0
  134.5440   81.3720  224.2980 C   0  0  0  0  0  0  0  0  0  0  0  0
  132.9310   80.6740  224.2080 Cl  0  0  0  0  0  0  0  0  0  0  0  0
  135.6840   80.6150  223.9870 C   0  0  0  0  0  0  0  0  0  0  0  0
  135.5370   79.3260  223.5930 N   0  0  0  0  0  0  0  0  0  0  0  0
  136.5940   78.5300  223.2890 C   0  0  0  0  0  0  0  0  0  0  0  0
  136.3980   77.2190  222.9140 N   0  0  0  0  0  0  0  0  0  0  0  0
  135.0260   76.6560  222.9000 C   0  0  0  0  0  0  0  0  0  0  0  0
  134.3545   77.3502  222.3736 H   0  0  0  0  0  0  0  0  0  0  0  0
  135.0437   75.6844  222.3846 H   0  0  0  0  0  0  0  0  0  0  0  0
  134.5270   76.4540  224.3100 C   0  0  0  0  0  0  0  0  0  0  0  0
  133.5410   77.3030  224.8470 C   0  0  0  0  0  0  0  0  0  0  0  0
  133.0878   78.0810  224.2152 H   0  0  0  0  0  0  0  0  0  0  0  0
  133.1330   77.1650  226.1780 C   0  0  0  0  0  0  0  0  0  0  0  0
  132.3685   77.8396  226.5909 H   0  0  0  0  0  0  0  0  0  0  0  0
  133.6950   76.1720  226.9830 C   0  0  0  0  0  0  0  0  0  0  0  0
  133.3747   76.0647  228.0298 H   0  0  0  0  0  0  0  0  0  0  0  0
  134.6660   75.3140  226.4560 C   0  0  0  0  0  0  0  0  0  0  0  0
  135.1018   74.5257  227.0875 H   0  0  0  0  0  0  0  0  0  0  0  0
  135.0850   75.4550  225.1280 C   0  0  0  0  0  0  0  0  0  0  0  0
  135.8542   74.7815  224.7222 H   0  0  0  0  0  0  0  0  0  0  0  0
  1  2  1  0
  2  3  2  0
  3  4  1  0
  4  5  1  0
  5  6  2  0
  6  7  1  0
  7  8  1  6
  7  9  1  0
  9 10  2  0
 10 11  1  0
 10 12  1  0
 12 13  1  0
 12 14  2  0
 14 15  1  0
 14 16  1  0
 16 17  1  0
 16 18  2  0
 18 19  1  0
  7 20  1  0
 20 21  1  0
 20 22  1  0
 20 23  1  0
  5 24  1  0
 24 25  1  0
  4 26  2  0
 26 27  1  0
 26 28  1  0
 28 29  1  0
 29 30  2  0
 29 31  1  0
 31 32  1  0
 32 33  1  0
 32 34  2  0
 34 35  1  0
 34 36  1  0
 36 37  1  0
 36 38  2  0
 38 39  1  0
 38 40  1  0
 40 41  2  0
 41 42  1  0
 42 43  1  0
 43 44  1  0
 44 45  1  0
 44 46  1  0
 44 47  1  0
 47 48  2  0
 48 49  1  0
 48 50  1  0
 50 51  1  0
 50 52  2  0
 52 53  1  0
 52 54  1  0
 54 55  1  0
 54 56  2  0
 56 57  1  0
 43  3  1  0
 56 47  1  0
 18  9  1  0
 42 28  2  0
 40 31  1  0
M  END
>  <UniqueID>  (77) 
99

>  <SMILES>  (77) 
[H]/N=c1\c(/C(O)=N\[C@@H](C)c2ccccc2)cc2c(=O)n3cc(Cl)cc(Cl)c3nc2n1Cc1ccccc1

>  <Energy>  (77) 
87.676056261595

>  <Genealogy>  (77) 
C[C@H](N=C(O)c1cc2c(=O)n3cc(Cl)cc(Cl)c3nc2n(Cc2ccccc2)c1=N)c1ccccc1 (tautomer)
[H]/N=c1\c(/C(O)=N\[C@@H](C)c2ccccc2)cc2c(=O)n3cc(Cl)cc(Cl)c3nc2n1Cc1ccccc1 (cis-trans isomerization)
[H]/N=c1\c(/C(O)=N\[C@@H](C)c2ccccc2)cc2c(=O)n3cc(Cl)cc(Cl)c3nc2n1Cc1ccccc1 (3D coordinates assigned)
[H]/N=c1\c(/C(O)=N\[C@@H](C)c2ccccc2)cc2c(=O)n3cc(Cl)cc(Cl)c3nc2n1Cc1ccccc1 (optimized conformer: 87.676056261595 kcal/mol)

>  <smiles>  (77) 
C[C@H](NC(=O)c1cc2c(=O)n3cc(Cl)cc(Cl)c3nc2n(Cc2ccccc2)c1=N)c1ccccc1

>  <score_type>  (77) 
oracle

>  <origin>  (77) 
autodockgpu

>  <m_score__min__energy>  (77) 
-8.75

>  <m_primary>  (77) 
energy

>  <meeko>  (77) 
{"free_energy": -7.71, "intermolecular_energy": -10.1, "internal_energy": -2.79, "cluster_size": 8, "cluster_id": 4, "rank_in_cluster": 8}

>  <energy>  (77) 
-7.78

>  <cluster_rmsd>  (77) 
0.02

>  <rmsd>  (77) 
270.77

>  <cluster>  (77) 
4

$$$$
AFKJZVLHPMIVAS-GTMIJVOPNA-N
     RDKit          3D

 57 61  0  0  0  0  0  0  0  0999 V2000
  137.6420   74.3850  222.7050 H   0  0  0  0  0  0  0  0  0  0  0  0
  137.2100   75.2200  222.2510 N   0  0  0  0  0  0  0  0  0  0  0  0
  137.4050   76.4520  222.6240 C   0  0  0  0  0  0  0  0  0  0  0  0
  138.7180   76.9700  222.7100 C   0  0  0  0  0  0  0  0  0  0  0  0
  139.9090   76.1490  222.4100 C   0  0  0  0  0  0  0  0  0  0  0  0
  141.0860   76.6740  222.2100 N   0  0  0  0  0  0  0  0  0  0  0  0
  141.4420   77.6590  221.1820 C   0  0  2  0  0  0  0  0  0  0  0  0
  142.3518   77.3597  220.6411 H   0  0  0  0  0  0  0  0  0  0  0  0
  141.7310   78.9810  221.8570 C   0  0  0  0  0  0  0  0  0  0  0  0
  141.4510   80.2130  221.2290 C   0  0  0  0  0  0  0  0  0  0  0  0
  141.0624   80.2269  220.2000 H   0  0  0  0  0  0  0  0  0  0  0  0
  141.6650   81.4160  221.9080 C   0  0  0  0  0  0  0  0  0  0  0  0
  141.4704   82.3729  221.4016 H   0  0  0  0  0  0  0  0  0  0  0  0
  142.1250   81.4080  223.2270 C   0  0  0  0  0  0  0  0  0  0  0  0
  142.2896   82.3569  223.7585 H   0  0  0  0  0  0  0  0  0  0  0  0
  142.3760   80.1920  223.8710 C   0  0  0  0  0  0  0  0  0  0  0  0
  142.7314   80.1850  224.9120 H   0  0  0  0  0  0  0  0  0  0  0  0
  142.1760   78.9860  223.1940 C   0  0  0  0  0  0  0  0  0  0  0  0
  142.3674   78.0330  223.7089 H   0  0  0  0  0  0  0  0  0  0  0  0
  140.3240   77.7410  220.1330 C   0  0  0  0  0  0  0  0  0  0  0  0
  139.3503   77.8124  220.6397 H   0  0  0  0  0  0  0  0  0  0  0  0
  140.4761   78.6304  219.5038 H   0  0  0  0  0  0  0  0  0  0  0  0
  140.3447   76.8389  219.5038 H   0  0  0  0  0  0  0  0  0  0  0  0
  139.7540   74.7670  222.3220 O   0  0  0  0  0  0  0  0  0  0  0  0
  139.0570   74.2830  222.8770 H   0  0  0  0  0  0  0  0  0  0  0  0
  138.9070   78.2970  223.0940 C   0  0  0  0  0  0  0  0  0  0  0  0
  139.9261   78.7021  223.1799 H   0  0  0  0  0  0  0  0  0  0  0  0
  137.8090   79.1140  223.3700 C   0  0  0  0  0  0  0  0  0  0  0  0
  137.9600   80.4640  223.7420 C   0  0  0  0  0  0  0  0  0  0  0  0
  139.1190   80.9680  223.8080 O   0  0  0  0  0  0  0  0  0  0  0  0
  136.8540   81.2290  224.0290 N   0  0  0  0  0  0  0  0  0  0  0  0
  136.9910   82.5460  224.3930 C   0  0  0  0  0  0  0  0  0  0  0  0
  137.9941   82.9945  224.4440 H   0  0  0  0  0  0  0  0  0  0  0  0
  135.8720   83.3220  224.6990 C   0  0  0  0  0  0  0  0  0  0  0  0
  136.0640   84.9990  225.1740 Cl  0  0  0  0  0  0  0  0  0  0  0  0
  134.6010   82.7560  224.6280 C   0  0  0  0  0  0  0  0  0  0  0  0
  133.7141   83.3581  224.8749 H   0  0  0  0  0  0  0  0  0  0  0  0
  134.4570   81.4240  224.2430 C   0  0  0  0  0  0  0  0  0  0  0  0
  132.8460   80.7210  224.1570 Cl  0  0  0  0  0  0  0  0  0  0  0  0
  135.5990   80.6660  223.9460 C   0  0  0  0  0  0  0  0  0  0  0  0
  135.4560   79.3710  223.5680 N   0  0  0  0  0  0  0  0  0  0  0  0
  136.5170   78.5740  223.2780 C   0  0  0  0  0  0  0  0  0  0  0  0
  136.3240   77.2570  222.9190 N   0  0  0  0  0  0  0  0  0  0  0  0
  134.9530   76.6920  222.9080 C   0  0  0  0  0  0  0  0  0  0  0  0
  134.2577   77.4354  222.4910 H   0  0  0  0  0  0  0  0  0  0  0  0
  134.9467   75.7815  222.2908 H   0  0  0  0  0  0  0  0  0  0  0  0
  134.5200   76.3370  224.3100 C   0  0  0  0  0  0  0  0  0  0  0  0
  134.7580   75.0500  224.8260 C   0  0  0  0  0  0  0  0  0  0  0  0
  135.3165   74.3163  224.2262 H   0  0  0  0  0  0  0  0  0  0  0  0
  134.2900   74.6960  226.0960 C   0  0  0  0  0  0  0  0  0  0  0  0
  134.4725   73.6841  226.4868 H   0  0  0  0  0  0  0  0  0  0  0  0
  133.5910   75.6270  226.8680 C   0  0  0  0  0  0  0  0  0  0  0  0
  133.2227   75.3488  227.8665 H   0  0  0  0  0  0  0  0  0  0  0  0
  133.3600   76.9130  226.3700 C   0  0  0  0  0  0  0  0  0  0  0  0
  132.8162   77.6479  226.9818 H   0  0  0  0  0  0  0  0  0  0  0  0
  133.8180   77.2690  225.0960 C   0  0  0  0  0  0  0  0  0  0  0  0
  133.6284   78.2808  224.7082 H   0  0  0  0  0  0  0  0  0  0  0  0
  1  2  1  0
  2  3  2  0
  3  4  1  0
  4  5  1  0
  5  6  2  0
  6  7  1  0
  7  8  1  6
  7  9  1  0
  9 10  2  0
 10 11  1  0
 10 12  1  0
 12 13  1  0
 12 14  2  0
 14 15  1  0
 14 16  1  0
 16 17  1  0
 16 18  2  0
 18 19  1  0
  7 20  1  0
 20 21  1  0
 20 22  1  0
 20 23  1  0
  5 24  1  0
 24 25  1  0
  4 26  2  0
 26 27  1  0
 26 28  1  0
 28 29  1  0
 29 30  2  0
 29 31  1  0
 31 32  1  0
 32 33  1  0
 32 34  2  0
 34 35  1  0
 34 36  1  0
 36 37  1  0
 36 38  2  0
 38 39  1  0
 38 40  1  0
 40 41  2  0
 41 42  1  0
 42 43  1  0
 43 44  1  0
 44 45  1  0
 44 46  1  0
 44 47  1  0
 47 48  2  0
 48 49  1  0
 48 50  1  0
 50 51  1  0
 50 52  2  0
 52 53  1  0
 52 54  1  0
 54 55  1  0
 54 56  2  0
 56 57  1  0
 43  3  1  0
 56 47  1  0
 18  9  1  0
 42 28  2  0
 40 31  1  0
M  END
>  <UniqueID>  (78) 
99

>  <SMILES>  (78) 
[H]/N=c1\c(/C(O)=N\[C@@H](C)c2ccccc2)cc2c(=O)n3cc(Cl)cc(Cl)c3nc2n1Cc1ccccc1

>  <Energy>  (78) 
87.676056261595

>  <Genealogy>  (78) 
C[C@H](N=C(O)c1cc2c(=O)n3cc(Cl)cc(Cl)c3nc2n(Cc2ccccc2)c1=N)c1ccccc1 (tautomer)
[H]/N=c1\c(/C(O)=N\[C@@H](C)c2ccccc2)cc2c(=O)n3cc(Cl)cc(Cl)c3nc2n1Cc1ccccc1 (cis-trans isomerization)
[H]/N=c1\c(/C(O)=N\[C@@H](C)c2ccccc2)cc2c(=O)n3cc(Cl)cc(Cl)c3nc2n1Cc1ccccc1 (3D coordinates assigned)
[H]/N=c1\c(/C(O)=N\[C@@H](C)c2ccccc2)cc2c(=O)n3cc(Cl)cc(Cl)c3nc2n1Cc1ccccc1 (optimized conformer: 87.676056261595 kcal/mol)

>  <smiles>  (78) 
C[C@H](NC(=O)c1cc2c(=O)n3cc(Cl)cc(Cl)c3nc2n(Cc2ccccc2)c1=N)c1ccccc1

>  <score_type>  (78) 
oracle

>  <origin>  (78) 
autodockgpu

>  <m_score__min__energy>  (78) 
-8.75

>  <m_primary>  (78) 
energy

>  <meeko>  (78) 
{"free_energy": -7.79, "intermolecular_energy": -10.18, "internal_energy": -2.74, "cluster_size": 8, "cluster_id": 4, "rank_in_cluster": 1}

>  <energy>  (78) 
-7.78

>  <cluster_rmsd>  (78) 
0.03

>  <rmsd>  (78) 
270.76

>  <cluster>  (78) 
4

$$$$
AFKJZVLHPMIVAS-GTMIJVOPNA-N
     RDKit          3D

 57 61  0  0  0  0  0  0  0  0999 V2000
  138.6440   75.2480  223.0840 H   0  0  0  0  0  0  0  0  0  0  0  0
  139.4190   75.9470  223.0480 N   0  0  0  0  0  0  0  0  0  0  0  0
  139.9490   76.4130  221.9540 C   0  0  0  0  0  0  0  0  0  0  0  0
  140.3950   75.5270  220.9460 C   0  0  0  0  0  0  0  0  0  0  0  0
  140.3050   74.0590  221.0940 C   0  0  0  0  0  0  0  0  0  0  0  0
  140.8670   73.2380  220.2490 N   0  0  0  0  0  0  0  0  0  0  0  0
  141.8860   72.2280  220.5570 C   0  0  2  0  0  0  0  0  0  0  0  0
  141.6984   71.7566  221.5330 H   0  0  0  0  0  0  0  0  0  0  0  0
  143.2340   72.9080  220.6350 C   0  0  0  0  0  0  0  0  0  0  0  0
  144.4190   72.1840  220.8850 C   0  0  0  0  0  0  0  0  0  0  0  0
  144.3680   71.1034  221.0842 H   0  0  0  0  0  0  0  0  0  0  0  0
  145.6570   72.8320  220.8810 C   0  0  0  0  0  0  0  0  0  0  0  0
  146.5729   72.2650  221.1038 H   0  0  0  0  0  0  0  0  0  0  0  0
  145.7360   74.1980  220.5950 C   0  0  0  0  0  0  0  0  0  0  0  0
  146.7125   74.7044  220.5918 H   0  0  0  0  0  0  0  0  0  0  0  0
  144.5720   74.9200  220.3130 C   0  0  0  0  0  0  0  0  0  0  0  0
  144.6343   75.9930  220.0791 H   0  0  0  0  0  0  0  0  0  0  0  0
  143.3300   74.2800  220.3280 C   0  0  0  0  0  0  0  0  0  0  0  0
  142.4191   74.8522  220.0981 H   0  0  0  0  0  0  0  0  0  0  0  0
  141.8300   71.1010  219.5160 C   0  0  0  0  0  0  0  0  0  0  0  0
  141.7817   70.1295  220.0296 H   0  0  0  0  0  0  0  0  0  0  0  0
  140.9370   71.2276  218.8863 H   0  0  0  0  0  0  0  0  0  0  0  0
  142.7311   71.1384  218.8863 H   0  0  0  0  0  0  0  0  0  0  0  0
  139.5770   73.5450  222.1650 O   0  0  0  0  0  0  0  0  0  0  0  0
  139.5580   74.0220  223.0590 H   0  0  0  0  0  0  0  0  0  0  0  0
  140.9430   76.0440  219.7730 C   0  0  0  0  0  0  0  0  0  0  0  0
  141.3078   75.3608  218.9918 H   0  0  0  0  0  0  0  0  0  0  0  0
  141.0310   77.4240  219.5850 C   0  0  0  0  0  0  0  0  0  0  0  0
  141.5610   77.9830  218.4060 C   0  0  0  0  0  0  0  0  0  0  0  0
  141.9490   77.2200  217.4730 O   0  0  0  0  0  0  0  0  0  0  0  0
  141.6530   79.3470  218.2690 N   0  0  0  0  0  0  0  0  0  0  0  0
  142.1680   79.9010  217.1230 C   0  0  0  0  0  0  0  0  0  0  0  0
  142.4983   79.2462  216.3031 H   0  0  0  0  0  0  0  0  0  0  0  0
  142.2770   81.2860  216.9870 C   0  0  0  0  0  0  0  0  0  0  0  0
  142.9490   81.9780  215.5220 Cl  0  0  0  0  0  0  0  0  0  0  0  0
  141.8510   82.1160  218.0210 C   0  0  0  0  0  0  0  0  0  0  0  0
  141.9396   83.2081  217.9242 H   0  0  0  0  0  0  0  0  0  0  0  0
  141.3120   81.5580  219.1790 C   0  0  0  0  0  0  0  0  0  0  0  0
  140.7770   82.6170  220.4780 Cl  0  0  0  0  0  0  0  0  0  0  0  0
  141.2190   80.1620  219.2920 C   0  0  0  0  0  0  0  0  0  0  0  0
  140.6910   79.6220  220.4180 N   0  0  0  0  0  0  0  0  0  0  0  0
  140.5820   78.2810  220.6020 C   0  0  0  0  0  0  0  0  0  0  0  0
  140.0580   77.7760  221.7730 N   0  0  0  0  0  0  0  0  0  0  0  0
  139.6670   78.7030  222.8630 C   0  0  0  0  0  0  0  0  0  0  0  0
  138.8552   79.3559  222.5099 H   0  0  0  0  0  0  0  0  0  0  0  0
  139.3289   78.1141  223.7284 H   0  0  0  0  0  0  0  0  0  0  0  0
  140.8430   79.5520  223.2780 C   0  0  0  0  0  0  0  0  0  0  0  0
  140.6410   80.8350  223.8210 C   0  0  0  0  0  0  0  0  0  0  0  0
  139.6179   81.1972  223.9998 H   0  0  0  0  0  0  0  0  0  0  0  0
  141.7320   81.6530  224.1350 C   0  0  0  0  0  0  0  0  0  0  0  0
  141.5639   82.6580  224.5493 H   0  0  0  0  0  0  0  0  0  0  0  0
  143.0330   81.1950  223.9230 C   0  0  0  0  0  0  0  0  0  0  0  0
  143.8902   81.8387  224.1695 H   0  0  0  0  0  0  0  0  0  0  0  0
  143.2460   79.9170  223.3970 C   0  0  0  0  0  0  0  0  0  0  0  0
  144.2721   79.5537  223.2387 H   0  0  0  0  0  0  0  0  0  0  0  0
  142.1580   79.0980  223.0710 C   0  0  0  0  0  0  0  0  0  0  0  0
  142.3324   78.0962  222.6516 H   0  0  0  0  0  0  0  0  0  0  0  0
  1  2  1  0
  2  3  2  0
  3  4  1  0
  4  5  1  0
  5  6  2  0
  6  7  1  0
  7  8  1  1
  7  9  1  0
  9 10  2  0
 10 11  1  0
 10 12  1  0
 12 13  1  0
 12 14  2  0
 14 15  1  0
 14 16  1  0
 16 17  1  0
 16 18  2  0
 18 19  1  0
  7 20  1  0
 20 21  1  0
 20 22  1  0
 20 23  1  0
  5 24  1  0
 24 25  1  0
  4 26  2  0
 26 27  1  0
 26 28  1  0
 28 29  1  0
 29 30  2  0
 29 31  1  0
 31 32  1  0
 32 33  1  0
 32 34  2  0
 34 35  1  0
 34 36  1  0
 36 37  1  0
 36 38  2  0
 38 39  1  0
 38 40  1  0
 40 41  2  0
 41 42  1  0
 42 43  1  0
 43 44  1  0
 44 45  1  0
 44 46  1  0
 44 47  1  0
 47 48  2  0
 48 49  1  0
 48 50  1  0
 50 51  1  0
 50 52  2  0
 52 53  1  0
 52 54  1  0
 54 55  1  0
 54 56  2  0
 56 57  1  0
 43  3  1  0
 56 47  1  0
 18  9  1  0
 42 28  2  0
 40 31  1  0
M  END
>  <UniqueID>  (79) 
99

>  <SMILES>  (79) 
[H]/N=c1\c(/C(O)=N\[C@@H](C)c2ccccc2)cc2c(=O)n3cc(Cl)cc(Cl)c3nc2n1Cc1ccccc1

>  <Energy>  (79) 
87.676056261595

>  <Genealogy>  (79) 
C[C@H](N=C(O)c1cc2c(=O)n3cc(Cl)cc(Cl)c3nc2n(Cc2ccccc2)c1=N)c1ccccc1 (tautomer)
[H]/N=c1\c(/C(O)=N\[C@@H](C)c2ccccc2)cc2c(=O)n3cc(Cl)cc(Cl)c3nc2n1Cc1ccccc1 (cis-trans isomerization)
[H]/N=c1\c(/C(O)=N\[C@@H](C)c2ccccc2)cc2c(=O)n3cc(Cl)cc(Cl)c3nc2n1Cc1ccccc1 (3D coordinates assigned)
[H]/N=c1\c(/C(O)=N\[C@@H](C)c2ccccc2)cc2c(=O)n3cc(Cl)cc(Cl)c3nc2n1Cc1ccccc1 (optimized conformer: 87.676056261595 kcal/mol)

>  <smiles>  (79) 
C[C@H](NC(=O)c1cc2c(=O)n3cc(Cl)cc(Cl)c3nc2n(Cc2ccccc2)c1=N)c1ccccc1

>  <score_type>  (79) 
oracle

>  <origin>  (79) 
autodockgpu

>  <m_score__min__energy>  (79) 
-8.75

>  <m_primary>  (79) 
energy

>  <meeko>  (79) 
{"free_energy": -8.08, "intermolecular_energy": -10.47, "internal_energy": -2.45, "cluster_size": 7, "cluster_id": 2, "rank_in_cluster": 7}

>  <energy>  (79) 
-7.71

>  <cluster_rmsd>  (79) 
0.22

>  <rmsd>  (79) 
270.8

>  <cluster>  (79) 
4

$$$$
AFKJZVLHPMIVAS-GTMIJVOPNA-N
     RDKit          3D

 57 61  0  0  0  0  0  0  0  0999 V2000
  139.5490   74.0320  223.0550 H   0  0  0  0  0  0  0  0  0  0  0  0
  140.2950   73.8840  222.3400 N   0  0  0  0  0  0  0  0  0  0  0  0
  140.5280   74.6770  221.3340 C   0  0  0  0  0  0  0  0  0  0  0  0
  139.8960   75.9400  221.2620 C   0  0  0  0  0  0  0  0  0  0  0  0
  138.9440   76.4020  222.2930 C   0  0  0  0  0  0  0  0  0  0  0  0
  139.0130   77.5930  222.8230 N   0  0  0  0  0  0  0  0  0  0  0  0
  139.2800   78.8510  222.1170 C   0  0  2  0  0  0  0  0  0  0  0  0
  139.4047   78.6833  221.0370 H   0  0  0  0  0  0  0  0  0  0  0  0
  140.5750   79.4330  222.6380 C   0  0  0  0  0  0  0  0  0  0  0  0
  141.8280   78.8770  222.3030 C   0  0  0  0  0  0  0  0  0  0  0  0
  141.8758   77.9641  221.6912 H   0  0  0  0  0  0  0  0  0  0  0  0
  143.0090   79.4810  222.7450 C   0  0  0  0  0  0  0  0  0  0  0  0
  143.9808   79.0257  222.5034 H   0  0  0  0  0  0  0  0  0  0  0  0
  142.9600   80.6600  223.4920 C   0  0  0  0  0  0  0  0  0  0  0  0
  143.8916   81.1335  223.8354 H   0  0  0  0  0  0  0  0  0  0  0  0
  141.7250   81.2380  223.8030 C   0  0  0  0  0  0  0  0  0  0  0  0
  141.6862   82.1703  224.3854 H   0  0  0  0  0  0  0  0  0  0  0  0
  140.5400   80.6330  223.3750 C   0  0  0  0  0  0  0  0  0  0  0  0
  139.5724   81.0976  223.6156 H   0  0  0  0  0  0  0  0  0  0  0  0
  138.0810   79.7970  222.2700 C   0  0  0  0  0  0  0  0  0  0  0  0
  137.8757   79.9589  223.3385 H   0  0  0  0  0  0  0  0  0  0  0  0
  138.3103   80.7601  221.7906 H   0  0  0  0  0  0  0  0  0  0  0  0
  137.1977   79.3499  221.7906 H   0  0  0  0  0  0  0  0  0  0  0  0
  137.9520   75.5210  222.7200 O   0  0  0  0  0  0  0  0  0  0  0  0
  138.1370   74.5280  222.8030 H   0  0  0  0  0  0  0  0  0  0  0  0
  140.1710   76.7830  220.1870 C   0  0  0  0  0  0  0  0  0  0  0  0
  139.6713   77.7604  220.1166 H   0  0  0  0  0  0  0  0  0  0  0  0
  141.0770   76.3940  219.1990 C   0  0  0  0  0  0  0  0  0  0  0  0
  141.3940   77.2260  218.1080 C   0  0  0  0  0  0  0  0  0  0  0  0
  140.8650   78.3730  218.0240 O   0  0  0  0  0  0  0  0  0  0  0  0
  142.2740   76.7950  217.1440 N   0  0  0  0  0  0  0  0  0  0  0  0
  142.5880   77.6000  216.0760 C   0  0  0  0  0  0  0  0  0  0  0  0
  142.1395   78.6015  215.9993 H   0  0  0  0  0  0  0  0  0  0  0  0
  143.4700   77.1610  215.0870 C   0  0  0  0  0  0  0  0  0  0  0  0
  143.8530   78.1950  213.7230 Cl  0  0  0  0  0  0  0  0  0  0  0  0
  144.0430   75.8950  215.1880 C   0  0  0  0  0  0  0  0  0  0  0  0
  144.7329   75.5377  214.4093 H   0  0  0  0  0  0  0  0  0  0  0  0
  143.7390   75.0830  216.2790 C   0  0  0  0  0  0  0  0  0  0  0  0
  144.4700   73.4860  216.3940 Cl  0  0  0  0  0  0  0  0  0  0  0  0
  142.8460   75.5470  217.2560 C   0  0  0  0  0  0  0  0  0  0  0  0
  142.5540   74.7550  218.3170 N   0  0  0  0  0  0  0  0  0  0  0  0
  141.6890   75.1340  219.2940 C   0  0  0  0  0  0  0  0  0  0  0  0
  141.4070   74.2870  220.3440 N   0  0  0  0  0  0  0  0  0  0  0  0
  142.0050   72.9300  220.3760 C   0  0  0  0  0  0  0  0  0  0  0  0
  141.7214   72.4306  221.3142 H   0  0  0  0  0  0  0  0  0  0  0  0
  141.6330   72.3549  219.5153 H   0  0  0  0  0  0  0  0  0  0  0  0
  143.5100   73.0180  220.2940 C   0  0  0  0  0  0  0  0  0  0  0  0
  144.2560   71.9680  219.7270 C   0  0  0  0  0  0  0  0  0  0  0  0
  143.7358   71.1046  219.2868 H   0  0  0  0  0  0  0  0  0  0  0  0
  145.6540   72.0140  219.7190 C   0  0  0  0  0  0  0  0  0  0  0  0
  146.2286   71.1839  219.2823 H   0  0  0  0  0  0  0  0  0  0  0  0
  146.3210   73.1130  220.2650 C   0  0  0  0  0  0  0  0  0  0  0  0
  147.4204   73.1484  220.2591 H   0  0  0  0  0  0  0  0  0  0  0  0
  145.5900   74.1680  220.8190 C   0  0  0  0  0  0  0  0  0  0  0  0
  146.1159   75.0373  221.2407 H   0  0  0  0  0  0  0  0  0  0  0  0
  144.1900   74.1220  220.8390 C   0  0  0  0  0  0  0  0  0  0  0  0
  143.6206   74.9521  221.2825 H   0  0  0  0  0  0  0  0  0  0  0  0
  1  2  1  0
  2  3  2  0
  3  4  1  0
  4  5  1  0
  5  6  2  0
  6  7  1  0
  7  8  1  6
  7  9  1  0
  9 10  2  0
 10 11  1  0
 10 12  1  0
 12 13  1  0
 12 14  2  0
 14 15  1  0
 14 16  1  0
 16 17  1  0
 16 18  2  0
 18 19  1  0
  7 20  1  0
 20 21  1  0
 20 22  1  0
 20 23  1  0
  5 24  1  0
 24 25  1  0
  4 26  2  0
 26 27  1  0
 26 28  1  0
 28 29  1  0
 29 30  2  0
 29 31  1  0
 31 32  1  0
 32 33  1  0
 32 34  2  0
 34 35  1  0
 34 36  1  0
 36 37  1  0
 36 38  2  0
 38 39  1  0
 38 40  1  0
 40 41  2  0
 41 42  1  0
 42 43  1  0
 43 44  1  0
 44 45  1  0
 44 46  1  0
 44 47  1  0
 47 48  2  0
 48 49  1  0
 48 50  1  0
 50 51  1  0
 50 52  2  0
 52 53  1  0
 52 54  1  0
 54 55  1  0
 54 56  2  0
 56 57  1  0
 43  3  1  0
 56 47  1  0
 18  9  1  0
 42 28  2  0
 40 31  1  0
M  END
>  <UniqueID>  (80) 
99

>  <SMILES>  (80) 
[H]/N=c1\c(/C(O)=N\[C@@H](C)c2ccccc2)cc2c(=O)n3cc(Cl)cc(Cl)c3nc2n1Cc1ccccc1

>  <Energy>  (80) 
87.676056261595

>  <Genealogy>  (80) 
C[C@H](N=C(O)c1cc2c(=O)n3cc(Cl)cc(Cl)c3nc2n(Cc2ccccc2)c1=N)c1ccccc1 (tautomer)
[H]/N=c1\c(/C(O)=N\[C@@H](C)c2ccccc2)cc2c(=O)n3cc(Cl)cc(Cl)c3nc2n1Cc1ccccc1 (cis-trans isomerization)
[H]/N=c1\c(/C(O)=N\[C@@H](C)c2ccccc2)cc2c(=O)n3cc(Cl)cc(Cl)c3nc2n1Cc1ccccc1 (3D coordinates assigned)
[H]/N=c1\c(/C(O)=N\[C@@H](C)c2ccccc2)cc2c(=O)n3cc(Cl)cc(Cl)c3nc2n1Cc1ccccc1 (optimized conformer: 87.676056261595 kcal/mol)

>  <smiles>  (80) 
C[C@H](NC(=O)c1cc2c(=O)n3cc(Cl)cc(Cl)c3nc2n(Cc2ccccc2)c1=N)c1ccccc1

>  <score_type>  (80) 
oracle

>  <origin>  (80) 
autodockgpu

>  <m_score__min__energy>  (80) 
-8.75

>  <m_primary>  (80) 
energy

>  <meeko>  (80) 
{"free_energy": -8.27, "intermolecular_energy": -10.66, "internal_energy": -2.37, "cluster_size": 3, "cluster_id": 3, "rank_in_cluster": 1}

>  <energy>  (80) 
-7.71

>  <cluster_rmsd>  (80) 
0.22

>  <rmsd>  (80) 
270.82

>  <cluster>  (80) 
4

$$$$
