ZIUJVUPDDLJBQX-UVVXYEKPNA-M
     RDKit          3D

 46 49  0  0  0  0  0  0  0  0999 V2000
  134.3650   68.4070  226.2460 H   0  0  0  0  0  0  0  0  0  0  0  0
  133.8160   69.2610  226.4930 N   0  0  0  0  0  0  0  0  0  0  0  0
  134.1170   70.4260  226.0130 C   0  0  0  0  0  0  0  0  0  0  0  0
  133.5160   71.5300  226.5380 N   0  0  0  0  0  0  0  0  0  0  0  0
  133.7900   72.7850  226.1010 C   0  0  0  0  0  0  0  0  0  0  0  0
  133.1620   73.8440  226.6610 N   0  0  0  0  0  0  0  0  0  0  0  0
  133.4090   75.1170  226.2520 C   0  0  0  0  0  0  0  0  0  0  0  0
  132.7270   76.1860  226.8690 C   0  0  0  0  0  0  0  0  0  0  0  0
  131.7310   75.9370  227.9690 C   0  0  0  0  0  0  0  0  0  0  0  0
  132.2238   76.0602  228.9447 H   0  0  0  0  0  0  0  0  0  0  0  0
  130.9027   76.6557  227.8832 H   0  0  0  0  0  0  0  0  0  0  0  0
  131.3384   74.9130  227.8832 H   0  0  0  0  0  0  0  0  0  0  0  0
  132.9870   77.4920  226.4410 C   0  0  0  0  0  0  0  0  0  0  0  0
  132.4643   78.3387  226.9099 H   0  0  0  0  0  0  0  0  0  0  0  0
  133.9060   77.7200  225.4230 C   0  0  0  0  0  0  0  0  0  0  0  0
  134.1114   78.7461  225.0839 H   0  0  0  0  0  0  0  0  0  0  0  0
  134.5660   76.6430  224.8340 C   0  0  0  0  0  0  0  0  0  0  0  0
  135.2944   76.8270  224.0306 H   0  0  0  0  0  0  0  0  0  0  0  0
  134.3200   75.3570  225.2420 N   0  0  0  0  0  0  0  0  0  0  0  0
  134.9770   74.3010  224.6530 C   0  0  0  0  0  0  0  0  0  0  0  0
  135.8140   74.5050  223.7280 O   0  0  0  0  0  0  0  0  0  0  0  0
  134.7210   72.9850  225.0760 C   0  0  0  0  0  0  0  0  0  0  0  0
  135.3580   71.8680  224.5120 C   0  0  0  0  0  0  0  0  0  0  0  0
  136.0938   72.0102  223.7068 H   0  0  0  0  0  0  0  0  0  0  0  0
  135.0650   70.5680  224.9660 C   0  0  0  0  0  0  0  0  0  0  0  0
  135.7610   69.4110  224.3330 C   0  0  0  0  0  0  0  0  0  0  0  0
  136.9890   69.5370  223.9130 N   0  0  0  0  0  0  0  0  0  0  0  0
  138.1460   68.7250  224.2980 C   0  0  2  0  0  0  0  0  0  0  0  0
  137.7949   67.8357  224.8419 H   0  0  0  0  0  0  0  0  0  0  0  0
  139.0560   69.5400  225.1900 C   0  0  0  0  0  0  0  0  0  0  0  0
  139.6410   70.7250  224.7090 C   0  0  0  0  0  0  0  0  0  0  0  0
  139.4490   71.0498  223.6757 H   0  0  0  0  0  0  0  0  0  0  0  0
  140.4660   71.4930  225.5380 C   0  0  0  0  0  0  0  0  0  0  0  0
  140.9249   72.4156  225.1532 H   0  0  0  0  0  0  0  0  0  0  0  0
  140.7080   71.0900  226.8540 C   0  0  0  0  0  0  0  0  0  0  0  0
  141.3593   71.6937  227.5031 H   0  0  0  0  0  0  0  0  0  0  0  0
  140.1230   69.9210  227.3450 C   0  0  0  0  0  0  0  0  0  0  0  0
  140.3126   69.6061  228.3818 H   0  0  0  0  0  0  0  0  0  0  0  0
  139.2970   69.1500  226.5220 C   0  0  0  0  0  0  0  0  0  0  0  0
  138.8328   68.2341  226.9165 H   0  0  0  0  0  0  0  0  0  0  0  0
  138.9140   68.2640  223.0540 C   0  0  0  0  0  0  0  0  0  0  0  0
  139.8193   67.7206  223.3625 H   0  0  0  0  0  0  0  0  0  0  0  0
  138.2747   67.6002  222.4534 H   0  0  0  0  0  0  0  0  0  0  0  0
  139.1991   69.1404  222.4534 H   0  0  0  0  0  0  0  0  0  0  0  0
  135.0750   68.1960  224.2200 O   0  0  0  0  0  0  0  0  0  0  0  0
  134.2690   67.9480  224.7780 H   0  0  0  0  0  0  0  0  0  0  0  0
  1  2  1  0
  2  3  2  0
  3  4  1  0
  4  5  1  0
  5  6  1  0
  6  7  2  0
  7  8  1  0
  8  9  1  0
  9 10  1  0
  9 11  1  0
  9 12  1  0
  8 13  2  0
 13 14  1  0
 13 15  1  0
 15 16  1  0
 15 17  2  0
 17 18  1  0
 17 19  1  0
 19 20  1  0
 20 21  2  0
 20 22  1  0
 22 23  1  0
 23 24  1  0
 23 25  2  0
 25 26  1  0
 26 27  2  0
 27 28  1  0
 28 29  1  1
 28 30  1  0
 30 31  2  0
 31 32  1  0
 31 33  1  0
 33 34  1  0
 33 35  2  0
 35 36  1  0
 35 37  1  0
 37 38  1  0
 37 39  2  0
 39 40  1  0
 28 41  1  0
 41 42  1  0
 41 43  1  0
 41 44  1  0
 26 45  1  0
 45 46  1  0
 25  3  1  0
 39 30  1  0
 22  5  2  0
 19  7  1  0
M  CHG  1   4  -1
M  END
>  <UniqueID>  (1) 
113

>  <SMILES>  (1) 
[H]/N=c1\[n-]c2nc3c(C)cccn3c(=O)c2cc1/C(O)=N/[C@@H](C)c1ccccc1

>  <Energy>  (1) 
63.27061698251223

>  <Genealogy>  (1) 
Cc1cccn2c(=O)c3cc(C(=O)N[C@@H](C)c4ccccc4)c(=N)[n-]c3nc12 (protonated)
Cc1cccn2c(=O)c3cc(C(O)=N[C@@H](C)c4ccccc4)c(=N)[n-]c3nc12 (tautomer)
[H]/N=c1\[n-]c2nc3c(C)cccn3c(=O)c2cc1/C(O)=N/[C@@H](C)c1ccccc1 (cis-trans isomerization)
[H]/N=c1\[n-]c2nc3c(C)cccn3c(=O)c2cc1/C(O)=N/[C@@H](C)c1ccccc1 (3D coordinates assigned)
[H]/N=c1\[n-]c2nc3c(C)cccn3c(=O)c2cc1/C(O)=N/[C@@H](C)c1ccccc1 (optimized conformer: 63.27061698251223 kcal/mol)

>  <smiles>  (1) 
Cc1cccn2c(=O)c3cc(C(=O)N[C@@H](C)c4ccccc4)c(=N)[nH]c3nc12

>  <score_type>  (1) 
oracle

>  <origin>  (1) 
autodockgpu

>  <m_score__min__energy>  (1) 
-7.3600000000000003

>  <m_primary>  (1) 
energy

>  <meeko>  (1) 
{"free_energy": -7.31, "intermolecular_energy": -9.1, "internal_energy": -1.67, "cluster_size": 4, "cluster_id": 1, "rank_in_cluster": 2}

>  <energy>  (1) 
-7.36

>  <cluster_rmsd>  (1) 
0.0

>  <rmsd>  (1) 
270.36

>  <cluster>  (1) 
1

$$$$
ZIUJVUPDDLJBQX-UVVXYEKPNA-M
     RDKit          3D

 46 49  0  0  0  0  0  0  0  0999 V2000
  134.4000   68.4260  226.2970 H   0  0  0  0  0  0  0  0  0  0  0  0
  133.8290   69.2740  226.5110 N   0  0  0  0  0  0  0  0  0  0  0  0
  134.1260   70.4360  226.0230 C   0  0  0  0  0  0  0  0  0  0  0  0
  133.5330   71.5430  226.5490 N   0  0  0  0  0  0  0  0  0  0  0  0
  133.8040   72.7950  226.1030 C   0  0  0  0  0  0  0  0  0  0  0  0
  133.1820   73.8580  226.6630 N   0  0  0  0  0  0  0  0  0  0  0  0
  133.4270   75.1290  226.2460 C   0  0  0  0  0  0  0  0  0  0  0  0
  132.7530   76.2020  226.8650 C   0  0  0  0  0  0  0  0  0  0  0  0
  131.7670   75.9600  227.9760 C   0  0  0  0  0  0  0  0  0  0  0  0
  132.2703   76.0835  228.9463 H   0  0  0  0  0  0  0  0  0  0  0  0
  130.9409   76.6821  227.8969 H   0  0  0  0  0  0  0  0  0  0  0  0
  131.3691   74.9375  227.8969 H   0  0  0  0  0  0  0  0  0  0  0  0
  133.0100   77.5050  226.4280 C   0  0  0  0  0  0  0  0  0  0  0  0
  132.4925   78.3544  226.8979 H   0  0  0  0  0  0  0  0  0  0  0  0
  133.9190   77.7280  225.4000 C   0  0  0  0  0  0  0  0  0  0  0  0
  134.1221   78.7524  225.0545 H   0  0  0  0  0  0  0  0  0  0  0  0
  134.5720   76.6470  224.8090 C   0  0  0  0  0  0  0  0  0  0  0  0
  135.2921   76.8264  223.9970 H   0  0  0  0  0  0  0  0  0  0  0  0
  134.3290   75.3630  225.2260 N   0  0  0  0  0  0  0  0  0  0  0  0
  134.9780   74.3030  224.6350 C   0  0  0  0  0  0  0  0  0  0  0  0
  135.8060   74.5020  223.7010 O   0  0  0  0  0  0  0  0  0  0  0  0
  134.7240   72.9900  225.0670 C   0  0  0  0  0  0  0  0  0  0  0  0
  135.3540   71.8690  224.5030 C   0  0  0  0  0  0  0  0  0  0  0  0
  136.0824   72.0061  223.6902 H   0  0  0  0  0  0  0  0  0  0  0  0
  135.0640   70.5720  224.9660 C   0  0  0  0  0  0  0  0  0  0  0  0
  135.7520   69.4100  224.3310 C   0  0  0  0  0  0  0  0  0  0  0  0
  136.9640   69.5420  223.8690 N   0  0  0  0  0  0  0  0  0  0  0  0
  138.1390   68.7410  224.2200 C   0  0  2  0  0  0  0  0  0  0  0  0
  137.8084   67.8295  224.7396 H   0  0  0  0  0  0  0  0  0  0  0  0
  139.0420   69.5470  225.1280 C   0  0  0  0  0  0  0  0  0  0  0  0
  139.6310   70.7380  224.6650 C   0  0  0  0  0  0  0  0  0  0  0  0
  139.4479   71.0739  223.6337 H   0  0  0  0  0  0  0  0  0  0  0  0
  140.4480   71.4970  225.5090 C   0  0  0  0  0  0  0  0  0  0  0  0
  140.9105   72.4234  225.1377 H   0  0  0  0  0  0  0  0  0  0  0  0
  140.6780   71.0810  226.8230 C   0  0  0  0  0  0  0  0  0  0  0  0
  141.3234   71.6782  227.4839 H   0  0  0  0  0  0  0  0  0  0  0  0
  140.0890   69.9080  227.2970 C   0  0  0  0  0  0  0  0  0  0  0  0
  140.2689   69.5832  228.3324 H   0  0  0  0  0  0  0  0  0  0  0  0
  139.2710   69.1450  226.4590 C   0  0  0  0  0  0  0  0  0  0  0  0
  138.8033   68.2254  226.8407 H   0  0  0  0  0  0  0  0  0  0  0  0
  138.9060   68.3320  222.9570 C   0  0  0  0  0  0  0  0  0  0  0  0
  139.8433   67.8322  223.2429 H   0  0  0  0  0  0  0  0  0  0  0  0
  138.2899   67.6427  222.3610 H   0  0  0  0  0  0  0  0  0  0  0  0
  139.1351   69.2277  222.3610 H   0  0  0  0  0  0  0  0  0  0  0  0
  135.0760   68.1860  224.2630 O   0  0  0  0  0  0  0  0  0  0  0  0
  134.2640   67.9580  224.8190 H   0  0  0  0  0  0  0  0  0  0  0  0
  1  2  1  0
  2  3  2  0
  3  4  1  0
  4  5  1  0
  5  6  1  0
  6  7  2  0
  7  8  1  0
  8  9  1  0
  9 10  1  0
  9 11  1  0
  9 12  1  0
  8 13  2  0
 13 14  1  0
 13 15  1  0
 15 16  1  0
 15 17  2  0
 17 18  1  0
 17 19  1  0
 19 20  1  0
 20 21  2  0
 20 22  1  0
 22 23  1  0
 23 24  1  0
 23 25  2  0
 25 26  1  0
 26 27  2  0
 27 28  1  0
 28 29  1  1
 28 30  1  0
 30 31  2  0
 31 32  1  0
 31 33  1  0
 33 34  1  0
 33 35  2  0
 35 36  1  0
 35 37  1  0
 37 38  1  0
 37 39  2  0
 39 40  1  0
 28 41  1  0
 41 42  1  0
 41 43  1  0
 41 44  1  0
 26 45  1  0
 45 46  1  0
 25  3  1  0
 39 30  1  0
 22  5  2  0
 19  7  1  0
M  CHG  1   4  -1
M  END
>  <UniqueID>  (2) 
113

>  <SMILES>  (2) 
[H]/N=c1\[n-]c2nc3c(C)cccn3c(=O)c2cc1/C(O)=N/[C@@H](C)c1ccccc1

>  <Energy>  (2) 
63.27061698251223

>  <Genealogy>  (2) 
Cc1cccn2c(=O)c3cc(C(=O)N[C@@H](C)c4ccccc4)c(=N)[n-]c3nc12 (protonated)
Cc1cccn2c(=O)c3cc(C(O)=N[C@@H](C)c4ccccc4)c(=N)[n-]c3nc12 (tautomer)
[H]/N=c1\[n-]c2nc3c(C)cccn3c(=O)c2cc1/C(O)=N/[C@@H](C)c1ccccc1 (cis-trans isomerization)
[H]/N=c1\[n-]c2nc3c(C)cccn3c(=O)c2cc1/C(O)=N/[C@@H](C)c1ccccc1 (3D coordinates assigned)
[H]/N=c1\[n-]c2nc3c(C)cccn3c(=O)c2cc1/C(O)=N/[C@@H](C)c1ccccc1 (optimized conformer: 63.27061698251223 kcal/mol)

>  <smiles>  (2) 
Cc1cccn2c(=O)c3cc(C(=O)N[C@@H](C)c4ccccc4)c(=N)[nH]c3nc12

>  <score_type>  (2) 
oracle

>  <origin>  (2) 
autodockgpu

>  <m_score__min__energy>  (2) 
-7.3600000000000003

>  <m_primary>  (2) 
energy

>  <meeko>  (2) 
{"free_energy": -7.29, "intermolecular_energy": -9.08, "internal_energy": -1.7, "cluster_size": 4, "cluster_id": 1, "rank_in_cluster": 4}

>  <energy>  (2) 
-7.31

>  <cluster_rmsd>  (2) 
0.23

>  <rmsd>  (2) 
270.24

>  <cluster>  (2) 
1

$$$$
ZIUJVUPDDLJBQX-UVVXYEKPNA-M
     RDKit          3D

 46 49  0  0  0  0  0  0  0  0999 V2000
  136.3630   77.0050  223.7850 H   0  0  0  0  0  0  0  0  0  0  0  0
  136.7830   76.2630  223.1810 N   0  0  0  0  0  0  0  0  0  0  0  0
  137.9190   76.4340  222.5820 C   0  0  0  0  0  0  0  0  0  0  0  0
  138.7250   75.3560  222.3770 N   0  0  0  0  0  0  0  0  0  0  0  0
  139.9200   75.4510  221.7440 C   0  0  0  0  0  0  0  0  0  0  0  0
  140.6790   74.3440  221.5700 N   0  0  0  0  0  0  0  0  0  0  0  0
  141.8820   74.3970  220.9390 C   0  0  0  0  0  0  0  0  0  0  0  0
  142.6330   73.2140  220.7830 C   0  0  0  0  0  0  0  0  0  0  0  0
  142.1230   71.8980  221.3050 C   0  0  0  0  0  0  0  0  0  0  0  0
  142.1287   71.9128  222.4049 H   0  0  0  0  0  0  0  0  0  0  0  0
  141.0963   71.7342  220.9458 H   0  0  0  0  0  0  0  0  0  0  0  0
  142.7712   71.0851  220.9458 H   0  0  0  0  0  0  0  0  0  0  0  0
  143.8710   73.2780  220.1350 C   0  0  0  0  0  0  0  0  0  0  0  0
  144.4720   72.3658  220.0058 H   0  0  0  0  0  0  0  0  0  0  0  0
  144.3420   74.4950  219.6540 C   0  0  0  0  0  0  0  0  0  0  0  0
  145.3148   74.5480  219.1433 H   0  0  0  0  0  0  0  0  0  0  0  0
  143.5760   75.6470  219.8220 C   0  0  0  0  0  0  0  0  0  0  0  0
  143.9509   76.6081  219.4402 H   0  0  0  0  0  0  0  0  0  0  0  0
  142.3610   75.5990  220.4570 N   0  0  0  0  0  0  0  0  0  0  0  0
  141.6130   76.7440  220.6180 C   0  0  0  0  0  0  0  0  0  0  0  0
  142.0380   77.8510  220.1810 O   0  0  0  0  0  0  0  0  0  0  0  0
  140.3690   76.6880  221.2690 C   0  0  0  0  0  0  0  0  0  0  0  0
  139.5620   77.8200  221.4650 C   0  0  0  0  0  0  0  0  0  0  0  0
  139.9007   78.7993  221.0958 H   0  0  0  0  0  0  0  0  0  0  0  0
  138.3250   77.7170  222.1280 C   0  0  0  0  0  0  0  0  0  0  0  0
  137.5040   78.9480  222.3180 C   0  0  0  0  0  0  0  0  0  0  0  0
  138.0500   80.1240  222.1830 N   0  0  0  0  0  0  0  0  0  0  0  0
  138.7690   80.8900  223.2040 C   0  0  2  0  0  0  0  0  0  0  0  0
  138.6677   81.9630  222.9838 H   0  0  0  0  0  0  0  0  0  0  0  0
  140.2310   80.5030  223.1850 C   0  0  0  0  0  0  0  0  0  0  0  0
  140.6760   79.3850  223.9150 C   0  0  0  0  0  0  0  0  0  0  0  0
  139.9608   78.8025  224.5143 H   0  0  0  0  0  0  0  0  0  0  0  0
  142.0240   79.0110  223.8820 C   0  0  0  0  0  0  0  0  0  0  0  0
  142.3662   78.1396  224.4596 H   0  0  0  0  0  0  0  0  0  0  0  0
  142.9360   79.7420  223.1170 C   0  0  0  0  0  0  0  0  0  0  0  0
  143.9959   79.4483  223.0961 H   0  0  0  0  0  0  0  0  0  0  0  0
  142.5030   80.8450  222.3790 C   0  0  0  0  0  0  0  0  0  0  0  0
  143.2219   81.4172  221.7742 H   0  0  0  0  0  0  0  0  0  0  0  0
  141.1570   81.2240  222.4070 C   0  0  0  0  0  0  0  0  0  0  0  0
  140.8200   82.0899  221.8182 H   0  0  0  0  0  0  0  0  0  0  0  0
  138.1780   80.6190  224.5920 C   0  0  0  0  0  0  0  0  0  0  0  0
  138.8903   80.9456  225.3640 H   0  0  0  0  0  0  0  0  0  0  0  0
  137.2354   81.1749  224.7041 H   0  0  0  0  0  0  0  0  0  0  0  0
  137.9841   79.5420  224.7041 H   0  0  0  0  0  0  0  0  0  0  0  0
  136.1460   78.8060  222.6260 O   0  0  0  0  0  0  0  0  0  0  0  0
  135.6730   77.9160  222.6970 H   0  0  0  0  0  0  0  0  0  0  0  0
  1  2  1  0
  2  3  2  0
  3  4  1  0
  4  5  1  0
  5  6  1  0
  6  7  2  0
  7  8  1  0
  8  9  1  0
  9 10  1  0
  9 11  1  0
  9 12  1  0
  8 13  2  0
 13 14  1  0
 13 15  1  0
 15 16  1  0
 15 17  2  0
 17 18  1  0
 17 19  1  0
 19 20  1  0
 20 21  2  0
 20 22  1  0
 22 23  1  0
 23 24  1  0
 23 25  2  0
 25 26  1  0
 26 27  2  0
 27 28  1  0
 28 29  1  6
 28 30  1  0
 30 31  2  0
 31 32  1  0
 31 33  1  0
 33 34  1  0
 33 35  2  0
 35 36  1  0
 35 37  1  0
 37 38  1  0
 37 39  2  0
 39 40  1  0
 28 41  1  0
 41 42  1  0
 41 43  1  0
 41 44  1  0
 26 45  1  0
 45 46  1  0
 25  3  1  0
 39 30  1  0
 22  5  2  0
 19  7  1  0
M  CHG  1   4  -1
M  END
>  <UniqueID>  (3) 
113

>  <SMILES>  (3) 
[H]/N=c1\[n-]c2nc3c(C)cccn3c(=O)c2cc1/C(O)=N/[C@@H](C)c1ccccc1

>  <Energy>  (3) 
63.27061698251223

>  <Genealogy>  (3) 
Cc1cccn2c(=O)c3cc(C(=O)N[C@@H](C)c4ccccc4)c(=N)[n-]c3nc12 (protonated)
Cc1cccn2c(=O)c3cc(C(O)=N[C@@H](C)c4ccccc4)c(=N)[n-]c3nc12 (tautomer)
[H]/N=c1\[n-]c2nc3c(C)cccn3c(=O)c2cc1/C(O)=N/[C@@H](C)c1ccccc1 (cis-trans isomerization)
[H]/N=c1\[n-]c2nc3c(C)cccn3c(=O)c2cc1/C(O)=N/[C@@H](C)c1ccccc1 (3D coordinates assigned)
[H]/N=c1\[n-]c2nc3c(C)cccn3c(=O)c2cc1/C(O)=N/[C@@H](C)c1ccccc1 (optimized conformer: 63.27061698251223 kcal/mol)

>  <smiles>  (3) 
Cc1cccn2c(=O)c3cc(C(=O)N[C@@H](C)c4ccccc4)c(=N)[nH]c3nc12

>  <score_type>  (3) 
oracle

>  <origin>  (3) 
autodockgpu

>  <m_score__min__energy>  (3) 
-7.3600000000000003

>  <m_primary>  (3) 
energy

>  <meeko>  (3) 
{"free_energy": -6.09, "intermolecular_energy": -7.88, "internal_energy": -2.35, "cluster_size": 16, "cluster_id": 2, "rank_in_cluster": 3}

>  <energy>  (3) 
-7.29

>  <cluster_rmsd>  (3) 
0.16

>  <rmsd>  (3) 
270.38

>  <cluster>  (3) 
1

$$$$
ZIUJVUPDDLJBQX-UVVXYEKPNA-M
     RDKit          3D

 46 49  0  0  0  0  0  0  0  0999 V2000
  136.4240   76.9290  223.8270 H   0  0  0  0  0  0  0  0  0  0  0  0
  136.8200   76.2180  223.1710 N   0  0  0  0  0  0  0  0  0  0  0  0
  137.9540   76.4000  222.5710 C   0  0  0  0  0  0  0  0  0  0  0  0
  138.7610   75.3270  222.3490 N   0  0  0  0  0  0  0  0  0  0  0  0
  139.9550   75.4340  221.7140 C   0  0  0  0  0  0  0  0  0  0  0  0
  140.7160   74.3320  221.5220 N   0  0  0  0  0  0  0  0  0  0  0  0
  141.9180   74.3970  220.8890 C   0  0  0  0  0  0  0  0  0  0  0  0
  142.6710   73.2180  220.7140 C   0  0  0  0  0  0  0  0  0  0  0  0
  142.1660   71.8930  221.2190 C   0  0  0  0  0  0  0  0  0  0  0  0
  142.1669   71.8954  222.3190 H   0  0  0  0  0  0  0  0  0  0  0  0
  141.1418   71.7275  220.8535 H   0  0  0  0  0  0  0  0  0  0  0  0
  142.8203   71.0878  220.8535 H   0  0  0  0  0  0  0  0  0  0  0  0
  143.9070   73.2950  220.0630 C   0  0  0  0  0  0  0  0  0  0  0  0
  144.5096   72.3862  219.9183 H   0  0  0  0  0  0  0  0  0  0  0  0
  144.3740   74.5190  219.5990 C   0  0  0  0  0  0  0  0  0  0  0  0
  145.3458   74.5817  219.0874 H   0  0  0  0  0  0  0  0  0  0  0  0
  143.6050   75.6670  219.7850 C   0  0  0  0  0  0  0  0  0  0  0  0
  143.9760   76.6342  219.4151 H   0  0  0  0  0  0  0  0  0  0  0  0
  142.3920   75.6070  220.4230 N   0  0  0  0  0  0  0  0  0  0  0  0
  141.6420   76.7470  220.6010 C   0  0  0  0  0  0  0  0  0  0  0  0
  142.0620   77.8620  220.1790 O   0  0  0  0  0  0  0  0  0  0  0  0
  140.3990   76.6790  221.2560 C   0  0  0  0  0  0  0  0  0  0  0  0
  139.5900   77.8070  221.4690 C   0  0  0  0  0  0  0  0  0  0  0  0
  139.9246   78.7921  221.1118 H   0  0  0  0  0  0  0  0  0  0  0  0
  138.3550   77.6900  222.1350 C   0  0  0  0  0  0  0  0  0  0  0  0
  137.5320   78.9160  222.3440 C   0  0  0  0  0  0  0  0  0  0  0  0
  138.0530   80.0950  222.1460 N   0  0  0  0  0  0  0  0  0  0  0  0
  138.7690   80.9220  223.1200 C   0  0  2  0  0  0  0  0  0  0  0  0
  138.6641   81.9797  222.8369 H   0  0  0  0  0  0  0  0  0  0  0  0
  140.2320   80.5380  223.1240 C   0  0  0  0  0  0  0  0  0  0  0  0
  140.6740   79.4410  223.8850 C   0  0  0  0  0  0  0  0  0  0  0  0
  139.9550   78.8716  224.4924 H   0  0  0  0  0  0  0  0  0  0  0  0
  142.0220   79.0700  223.8740 C   0  0  0  0  0  0  0  0  0  0  0  0
  142.3606   78.2146  224.4770 H   0  0  0  0  0  0  0  0  0  0  0  0
  142.9400   79.7830  223.0990 C   0  0  0  0  0  0  0  0  0  0  0  0
  144.0004   79.4904  223.0939 H   0  0  0  0  0  0  0  0  0  0  0  0
  142.5110   80.8670  222.3310 C   0  0  0  0  0  0  0  0  0  0  0  0
  143.2341   81.4272  221.7199 H   0  0  0  0  0  0  0  0  0  0  0  0
  141.1640   81.2420  222.3370 C   0  0  0  0  0  0  0  0  0  0  0  0
  140.8303   82.0918  221.7235 H   0  0  0  0  0  0  0  0  0  0  0  0
  138.1790   80.7320  224.5220 C   0  0  0  0  0  0  0  0  0  0  0  0
  138.9407   80.9773  225.2767 H   0  0  0  0  0  0  0  0  0  0  0  0
  137.3111   81.3961  224.6477 H   0  0  0  0  0  0  0  0  0  0  0  0
  137.8617   79.6863  224.6477 H   0  0  0  0  0  0  0  0  0  0  0  0
  136.1970   78.7680  222.7390 O   0  0  0  0  0  0  0  0  0  0  0  0
  135.6870   77.8960  222.6880 H   0  0  0  0  0  0  0  0  0  0  0  0
  1  2  1  0
  2  3  2  0
  3  4  1  0
  4  5  1  0
  5  6  1  0
  6  7  2  0
  7  8  1  0
  8  9  1  0
  9 10  1  0
  9 11  1  0
  9 12  1  0
  8 13  2  0
 13 14  1  0
 13 15  1  0
 15 16  1  0
 15 17  2  0
 17 18  1  0
 17 19  1  0
 19 20  1  0
 20 21  2  0
 20 22  1  0
 22 23  1  0
 23 24  1  0
 23 25  2  0
 25 26  1  0
 26 27  2  0
 27 28  1  0
 28 29  1  6
 28 30  1  0
 30 31  2  0
 31 32  1  0
 31 33  1  0
 33 34  1  0
 33 35  2  0
 35 36  1  0
 35 37  1  0
 37 38  1  0
 37 39  2  0
 39 40  1  0
 28 41  1  0
 41 42  1  0
 41 43  1  0
 41 44  1  0
 26 45  1  0
 45 46  1  0
 25  3  1  0
 39 30  1  0
 22  5  2  0
 19  7  1  0
M  CHG  1   4  -1
M  END
>  <UniqueID>  (4) 
113

>  <SMILES>  (4) 
[H]/N=c1\[n-]c2nc3c(C)cccn3c(=O)c2cc1/C(O)=N/[C@@H](C)c1ccccc1

>  <Energy>  (4) 
63.27061698251223

>  <Genealogy>  (4) 
Cc1cccn2c(=O)c3cc(C(=O)N[C@@H](C)c4ccccc4)c(=N)[n-]c3nc12 (protonated)
Cc1cccn2c(=O)c3cc(C(O)=N[C@@H](C)c4ccccc4)c(=N)[n-]c3nc12 (tautomer)
[H]/N=c1\[n-]c2nc3c(C)cccn3c(=O)c2cc1/C(O)=N/[C@@H](C)c1ccccc1 (cis-trans isomerization)
[H]/N=c1\[n-]c2nc3c(C)cccn3c(=O)c2cc1/C(O)=N/[C@@H](C)c1ccccc1 (3D coordinates assigned)
[H]/N=c1\[n-]c2nc3c(C)cccn3c(=O)c2cc1/C(O)=N/[C@@H](C)c1ccccc1 (optimized conformer: 63.27061698251223 kcal/mol)

>  <smiles>  (4) 
Cc1cccn2c(=O)c3cc(C(=O)N[C@@H](C)c4ccccc4)c(=N)[nH]c3nc12

>  <score_type>  (4) 
oracle

>  <origin>  (4) 
autodockgpu

>  <m_score__min__energy>  (4) 
-7.3600000000000003

>  <m_primary>  (4) 
energy

>  <meeko>  (4) 
{"free_energy": -6.11, "intermolecular_energy": -7.9, "internal_energy": -2.32, "cluster_size": 16, "cluster_id": 2, "rank_in_cluster": 1}

>  <energy>  (4) 
-7.29

>  <cluster_rmsd>  (4) 
0.23

>  <rmsd>  (4) 
270.23

>  <cluster>  (4) 
1

$$$$
ZIUJVUPDDLJBQX-UVVXYEKPNA-M
     RDKit          3D

 46 49  0  0  0  0  0  0  0  0999 V2000
  135.8330   77.8020  223.6580 H   0  0  0  0  0  0  0  0  0  0  0  0
  136.2400   76.9250  223.2610 N   0  0  0  0  0  0  0  0  0  0  0  0
  137.4030   76.9110  222.6910 C   0  0  0  0  0  0  0  0  0  0  0  0
  138.0830   75.7330  222.6100 N   0  0  0  0  0  0  0  0  0  0  0  0
  139.2970   75.6340  222.0150 C   0  0  0  0  0  0  0  0  0  0  0  0
  139.9260   74.4370  221.9660 N   0  0  0  0  0  0  0  0  0  0  0  0
  141.1440   74.2950  221.3770 C   0  0  0  0  0  0  0  0  0  0  0  0
  141.7560   73.0250  221.3520 C   0  0  0  0  0  0  0  0  0  0  0  0
  141.0820   71.8280  221.9690 C   0  0  0  0  0  0  0  0  0  0  0  0
  141.1264   71.9068  223.0653 H   0  0  0  0  0  0  0  0  0  0  0  0
  140.0310   71.7921  221.6462 H   0  0  0  0  0  0  0  0  0  0  0  0
  141.5963   70.9108  221.6462 H   0  0  0  0  0  0  0  0  0  0  0  0
  143.0090   72.8890  220.7460 C   0  0  0  0  0  0  0  0  0  0  0  0
  143.5025   71.9063  220.7181 H   0  0  0  0  0  0  0  0  0  0  0  0
  143.6310   73.9950  220.1790 C   0  0  0  0  0  0  0  0  0  0  0  0
  144.6169   73.8905  219.7024 H   0  0  0  0  0  0  0  0  0  0  0  0
  143.0000   75.2370  220.2170 C   0  0  0  0  0  0  0  0  0  0  0  0
  143.4937   76.1101  219.7655 H   0  0  0  0  0  0  0  0  0  0  0  0
  141.7710   75.3860  220.8100 N   0  0  0  0  0  0  0  0  0  0  0  0
  141.1580   76.6180  220.8430 C   0  0  0  0  0  0  0  0  0  0  0  0
  141.7200   77.6260  220.3260 O   0  0  0  0  0  0  0  0  0  0  0  0
  139.8990   76.7640  221.4510 C   0  0  0  0  0  0  0  0  0  0  0  0
  139.2250   77.9940  221.5170 C   0  0  0  0  0  0  0  0  0  0  0  0
  139.6845   78.8906  221.0754 H   0  0  0  0  0  0  0  0  0  0  0  0
  137.9680   78.0920  222.1420 C   0  0  0  0  0  0  0  0  0  0  0  0
  137.2910   79.4200  222.1940 C   0  0  0  0  0  0  0  0  0  0  0  0
  137.9980   80.5150  222.1470 N   0  0  0  0  0  0  0  0  0  0  0  0
  138.7600   81.1260  223.2390 C   0  0  2  0  0  0  0  0  0  0  0  0
  138.7621   82.2181  223.1077 H   0  0  0  0  0  0  0  0  0  0  0  0
  140.1800   80.6060  223.2100 C   0  0  0  0  0  0  0  0  0  0  0  0
  140.5230   79.4430  223.9230 C   0  0  0  0  0  0  0  0  0  0  0  0
  139.7589   78.9199  224.5167 H   0  0  0  0  0  0  0  0  0  0  0  0
  141.8310   78.9480  223.8810 C   0  0  0  0  0  0  0  0  0  0  0  0
  142.0932   78.0416  224.4464 H   0  0  0  0  0  0  0  0  0  0  0  0
  142.8040   79.6020  223.1230 C   0  0  0  0  0  0  0  0  0  0  0  0
  143.8322   79.2122  223.0937 H   0  0  0  0  0  0  0  0  0  0  0  0
  142.4720   80.7510  222.4020 C   0  0  0  0  0  0  0  0  0  0  0  0
  143.2392   81.2644  221.8037 H   0  0  0  0  0  0  0  0  0  0  0  0
  141.1670   81.2500  222.4390 C   0  0  0  0  0  0  0  0  0  0  0  0
  140.9094   82.1508  221.8627 H   0  0  0  0  0  0  0  0  0  0  0  0
  138.1150   80.7980  224.5910 C   0  0  0  0  0  0  0  0  0  0  0  0
  138.7758   81.1340  225.4037 H   0  0  0  0  0  0  0  0  0  0  0  0
  137.1461   81.3129  224.6696 H   0  0  0  0  0  0  0  0  0  0  0  0
  137.9604   79.7118  224.6696 H   0  0  0  0  0  0  0  0  0  0  0  0
  135.8940   79.4580  222.2760 O   0  0  0  0  0  0  0  0  0  0  0  0
  135.3110   78.6360  222.3490 H   0  0  0  0  0  0  0  0  0  0  0  0
  1  2  1  0
  2  3  2  0
  3  4  1  0
  4  5  1  0
  5  6  1  0
  6  7  2  0
  7  8  1  0
  8  9  1  0
  9 10  1  0
  9 11  1  0
  9 12  1  0
  8 13  2  0
 13 14  1  0
 13 15  1  0
 15 16  1  0
 15 17  2  0
 17 18  1  0
 17 19  1  0
 19 20  1  0
 20 21  2  0
 20 22  1  0
 22 23  1  0
 23 24  1  0
 23 25  2  0
 25 26  1  0
 26 27  2  0
 27 28  1  0
 28 29  1  6
 28 30  1  0
 30 31  2  0
 31 32  1  0
 31 33  1  0
 33 34  1  0
 33 35  2  0
 35 36  1  0
 35 37  1  0
 37 38  1  0
 37 39  2  0
 39 40  1  0
 28 41  1  0
 41 42  1  0
 41 43  1  0
 41 44  1  0
 26 45  1  0
 45 46  1  0
 25  3  1  0
 39 30  1  0
 22  5  2  0
 19  7  1  0
M  CHG  1   4  -1
M  END
>  <UniqueID>  (5) 
113

>  <SMILES>  (5) 
[H]/N=c1\[n-]c2nc3c(C)cccn3c(=O)c2cc1/C(O)=N/[C@@H](C)c1ccccc1

>  <Energy>  (5) 
63.27061698251223

>  <Genealogy>  (5) 
Cc1cccn2c(=O)c3cc(C(=O)N[C@@H](C)c4ccccc4)c(=N)[n-]c3nc12 (protonated)
Cc1cccn2c(=O)c3cc(C(O)=N[C@@H](C)c4ccccc4)c(=N)[n-]c3nc12 (tautomer)
[H]/N=c1\[n-]c2nc3c(C)cccn3c(=O)c2cc1/C(O)=N/[C@@H](C)c1ccccc1 (cis-trans isomerization)
[H]/N=c1\[n-]c2nc3c(C)cccn3c(=O)c2cc1/C(O)=N/[C@@H](C)c1ccccc1 (3D coordinates assigned)
[H]/N=c1\[n-]c2nc3c(C)cccn3c(=O)c2cc1/C(O)=N/[C@@H](C)c1ccccc1 (optimized conformer: 63.27061698251223 kcal/mol)

>  <smiles>  (5) 
Cc1cccn2c(=O)c3cc(C(=O)N[C@@H](C)c4ccccc4)c(=N)[nH]c3nc12

>  <score_type>  (5) 
oracle

>  <origin>  (5) 
autodockgpu

>  <m_score__min__energy>  (5) 
-7.3600000000000003

>  <m_primary>  (5) 
energy

>  <meeko>  (5) 
{"free_energy": -6.06, "intermolecular_energy": -7.85, "internal_energy": -2.39, "cluster_size": 16, "cluster_id": 2, "rank_in_cluster": 7}

>  <energy>  (5) 
-6.11

>  <cluster_rmsd>  (5) 
0.0

>  <rmsd>  (5) 
271.0

>  <cluster>  (5) 
2

$$$$
ZIUJVUPDDLJBQX-UVVXYEKPNA-M
     RDKit          3D

 46 49  0  0  0  0  0  0  0  0999 V2000
  135.8230   77.8030  223.5680 H   0  0  0  0  0  0  0  0  0  0  0  0
  136.2630   76.9170  223.2330 N   0  0  0  0  0  0  0  0  0  0  0  0
  137.4210   76.9090  222.6510 C   0  0  0  0  0  0  0  0  0  0  0  0
  138.1100   75.7380  222.5690 N   0  0  0  0  0  0  0  0  0  0  0  0
  139.3190   75.6450  221.9610 C   0  0  0  0  0  0  0  0  0  0  0  0
  139.9570   74.4540  221.9120 N   0  0  0  0  0  0  0  0  0  0  0  0
  141.1690   74.3190  221.3110 C   0  0  0  0  0  0  0  0  0  0  0  0
  141.7920   73.0540  221.2860 C   0  0  0  0  0  0  0  0  0  0  0  0
  141.1350   71.8550  221.9160 C   0  0  0  0  0  0  0  0  0  0  0  0
  141.1835   71.9436  223.0114 H   0  0  0  0  0  0  0  0  0  0  0  0
  140.0830   71.8043  221.5985 H   0  0  0  0  0  0  0  0  0  0  0  0
  141.6583   70.9410  221.5985 H   0  0  0  0  0  0  0  0  0  0  0  0
  143.0400   72.9250  220.6680 C   0  0  0  0  0  0  0  0  0  0  0  0
  143.5420   71.9466  220.6408 H   0  0  0  0  0  0  0  0  0  0  0  0
  143.6460   74.0340  220.0880 C   0  0  0  0  0  0  0  0  0  0  0  0
  144.6274   73.9354  219.6011 H   0  0  0  0  0  0  0  0  0  0  0  0
  143.0050   75.2710  220.1260 C   0  0  0  0  0  0  0  0  0  0  0  0
  143.4865   76.1460  219.6650 H   0  0  0  0  0  0  0  0  0  0  0  0
  141.7810   75.4120  220.7310 N   0  0  0  0  0  0  0  0  0  0  0  0
  141.1580   76.6390  220.7640 C   0  0  0  0  0  0  0  0  0  0  0  0
  141.7060   77.6490  220.2360 O   0  0  0  0  0  0  0  0  0  0  0  0
  139.9050   76.7770  221.3850 C   0  0  0  0  0  0  0  0  0  0  0  0
  139.2200   78.0020  221.4520 C   0  0  0  0  0  0  0  0  0  0  0  0
  139.6671   78.9002  221.0011 H   0  0  0  0  0  0  0  0  0  0  0  0
  137.9690   78.0930  222.0890 C   0  0  0  0  0  0  0  0  0  0  0  0
  137.2820   79.4160  222.1420 C   0  0  0  0  0  0  0  0  0  0  0  0
  137.9820   80.5150  222.1510 N   0  0  0  0  0  0  0  0  0  0  0  0
  138.7480   81.0690  223.2700 C   0  0  2  0  0  0  0  0  0  0  0  0
  138.7375   82.1669  223.2029 H   0  0  0  0  0  0  0  0  0  0  0  0
  140.1730   80.5690  223.1980 C   0  0  0  0  0  0  0  0  0  0  0  0
  141.1370   81.2790  222.4600 C   0  0  0  0  0  0  0  0  0  0  0  0
  140.8476   82.1918  221.9187 H   0  0  0  0  0  0  0  0  0  0  0  0
  142.4610   80.8320  222.4100 C   0  0  0  0  0  0  0  0  0  0  0  0
  143.2072   81.3904  221.8258 H   0  0  0  0  0  0  0  0  0  0  0  0
  142.8380   79.6770  223.1010 C   0  0  0  0  0  0  0  0  0  0  0  0
  143.8793   79.3252  223.0579 H   0  0  0  0  0  0  0  0  0  0  0  0
  141.8920   78.9700  223.8460 C   0  0  0  0  0  0  0  0  0  0  0  0
  142.1900   78.0622  224.3910 H   0  0  0  0  0  0  0  0  0  0  0  0
  140.5670   79.4130  223.9010 C   0  0  0  0  0  0  0  0  0  0  0  0
  139.8282   78.8562  224.4962 H   0  0  0  0  0  0  0  0  0  0  0  0
  138.1190   80.6560  224.6060 C   0  0  0  0  0  0  0  0  0  0  0  0
  138.7239   81.0532  225.4344 H   0  0  0  0  0  0  0  0  0  0  0  0
  137.0980   81.0600  224.6710 H   0  0  0  0  0  0  0  0  0  0  0  0
  138.0839   79.5585  224.6710 H   0  0  0  0  0  0  0  0  0  0  0  0
  135.8830   79.4430  222.1640 O   0  0  0  0  0  0  0  0  0  0  0  0
  135.3040   78.6290  222.3200 H   0  0  0  0  0  0  0  0  0  0  0  0
  1  2  1  0
  2  3  2  0
  3  4  1  0
  4  5  1  0
  5  6  1  0
  6  7  2  0
  7  8  1  0
  8  9  1  0
  9 10  1  0
  9 11  1  0
  9 12  1  0
  8 13  2  0
 13 14  1  0
 13 15  1  0
 15 16  1  0
 15 17  2  0
 17 18  1  0
 17 19  1  0
 19 20  1  0
 20 21  2  0
 20 22  1  0
 22 23  1  0
 23 24  1  0
 23 25  2  0
 25 26  1  0
 26 27  2  0
 27 28  1  0
 28 29  1  6
 28 30  1  0
 30 31  2  0
 31 32  1  0
 31 33  1  0
 33 34  1  0
 33 35  2  0
 35 36  1  0
 35 37  1  0
 37 38  1  0
 37 39  2  0
 39 40  1  0
 28 41  1  0
 41 42  1  0
 41 43  1  0
 41 44  1  0
 26 45  1  0
 45 46  1  0
 25  3  1  0
 39 30  1  0
 22  5  2  0
 19  7  1  0
M  CHG  1   4  -1
M  END
>  <UniqueID>  (6) 
113

>  <SMILES>  (6) 
[H]/N=c1\[n-]c2nc3c(C)cccn3c(=O)c2cc1/C(O)=N/[C@@H](C)c1ccccc1

>  <Energy>  (6) 
63.27061698251223

>  <Genealogy>  (6) 
Cc1cccn2c(=O)c3cc(C(=O)N[C@@H](C)c4ccccc4)c(=N)[n-]c3nc12 (protonated)
Cc1cccn2c(=O)c3cc(C(O)=N[C@@H](C)c4ccccc4)c(=N)[n-]c3nc12 (tautomer)
[H]/N=c1\[n-]c2nc3c(C)cccn3c(=O)c2cc1/C(O)=N/[C@@H](C)c1ccccc1 (cis-trans isomerization)
[H]/N=c1\[n-]c2nc3c(C)cccn3c(=O)c2cc1/C(O)=N/[C@@H](C)c1ccccc1 (3D coordinates assigned)
[H]/N=c1\[n-]c2nc3c(C)cccn3c(=O)c2cc1/C(O)=N/[C@@H](C)c1ccccc1 (optimized conformer: 63.27061698251223 kcal/mol)

>  <smiles>  (6) 
Cc1cccn2c(=O)c3cc(C(=O)N[C@@H](C)c4ccccc4)c(=N)[nH]c3nc12

>  <score_type>  (6) 
oracle

>  <origin>  (6) 
autodockgpu

>  <m_score__min__energy>  (6) 
-7.3600000000000003

>  <m_primary>  (6) 
energy

>  <meeko>  (6) 
{"free_energy": -6.03, "intermolecular_energy": -7.82, "internal_energy": -2.4, "cluster_size": 16, "cluster_id": 2, "rank_in_cluster": 12}

>  <energy>  (6) 
-6.11

>  <cluster_rmsd>  (6) 
0.05

>  <rmsd>  (6) 
271.01

>  <cluster>  (6) 
2

$$$$
ZIUJVUPDDLJBQX-UVVXYEKPNA-M
     RDKit          3D

 46 49  0  0  0  0  0  0  0  0999 V2000
  135.8850   77.6410  223.5830 H   0  0  0  0  0  0  0  0  0  0  0  0
  136.3470   76.7750  223.2250 N   0  0  0  0  0  0  0  0  0  0  0  0
  137.5030   76.8120  222.6400 C   0  0  0  0  0  0  0  0  0  0  0  0
  138.2290   75.6640  222.5420 N   0  0  0  0  0  0  0  0  0  0  0  0
  139.4390   75.6190  221.9310 C   0  0  0  0  0  0  0  0  0  0  0  0
  140.1160   74.4490  221.8650 N   0  0  0  0  0  0  0  0  0  0  0  0
  141.3300   74.3610  221.2600 C   0  0  0  0  0  0  0  0  0  0  0  0
  141.9940   73.1170  221.2190 C   0  0  0  0  0  0  0  0  0  0  0  0
  141.3780   71.8900  221.8350 C   0  0  0  0  0  0  0  0  0  0  0  0
  141.4184   71.9704  222.9313 H   0  0  0  0  0  0  0  0  0  0  0  0
  140.3300   71.8043  221.5120 H   0  0  0  0  0  0  0  0  0  0  0  0
  141.9353   70.9983  221.5120 H   0  0  0  0  0  0  0  0  0  0  0  0
  143.2430   73.0370  220.5960 C   0  0  0  0  0  0  0  0  0  0  0  0
  143.7759   72.0756  220.5543 H   0  0  0  0  0  0  0  0  0  0  0  0
  143.8120   74.1720  220.0290 C   0  0  0  0  0  0  0  0  0  0  0  0
  144.7951   74.1113  219.5393 H   0  0  0  0  0  0  0  0  0  0  0  0
  143.1310   75.3870  220.0840 C   0  0  0  0  0  0  0  0  0  0  0  0
  143.5825   76.2828  219.6326 H   0  0  0  0  0  0  0  0  0  0  0  0
  141.9060   75.4810  220.6930 N   0  0  0  0  0  0  0  0  0  0  0  0
  141.2430   76.6860  220.7420 C   0  0  0  0  0  0  0  0  0  0  0  0
  141.7570   77.7200  220.2270 O   0  0  0  0  0  0  0  0  0  0  0  0
  139.9870   76.7760  221.3680 C   0  0  0  0  0  0  0  0  0  0  0  0
  139.2640   77.9770  221.4510 C   0  0  0  0  0  0  0  0  0  0  0  0
  139.6808   78.8946  221.0103 H   0  0  0  0  0  0  0  0  0  0  0  0
  138.0120   78.0190  222.0920 C   0  0  0  0  0  0  0  0  0  0  0  0
  137.2820   79.3190  222.1620 C   0  0  0  0  0  0  0  0  0  0  0  0
  137.9460   80.4410  222.1660 N   0  0  0  0  0  0  0  0  0  0  0  0
  138.6940   81.0240  223.2820 C   0  0  2  0  0  0  0  0  0  0  0  0
  138.6645   82.1204  223.1980 H   0  0  0  0  0  0  0  0  0  0  0  0
  140.1280   80.5480  223.2280 C   0  0  0  0  0  0  0  0  0  0  0  0
  140.5170   79.3910  223.9270 C   0  0  0  0  0  0  0  0  0  0  0  0
  139.7783   78.8417  224.5291 H   0  0  0  0  0  0  0  0  0  0  0  0
  141.8370   78.9350  223.8610 C   0  0  0  0  0  0  0  0  0  0  0  0
  142.1341   78.0327  224.4156 H   0  0  0  0  0  0  0  0  0  0  0  0
  142.7790   79.6220  223.0930 C   0  0  0  0  0  0  0  0  0  0  0  0
  143.8177   79.2631  223.0457 H   0  0  0  0  0  0  0  0  0  0  0  0
  142.4020   80.7650  222.3850 C   0  0  0  0  0  0  0  0  0  0  0  0
  143.1442   81.3039  221.7777 H   0  0  0  0  0  0  0  0  0  0  0  0
  141.0840   81.2260  222.4460 C   0  0  0  0  0  0  0  0  0  0  0  0
  140.7915   82.1230  221.8804 H   0  0  0  0  0  0  0  0  0  0  0  0
  138.0630   80.6200  224.6200 C   0  0  0  0  0  0  0  0  0  0  0  0
  138.6742   81.0113  225.4466 H   0  0  0  0  0  0  0  0  0  0  0  0
  137.0468   81.0358  224.6866 H   0  0  0  0  0  0  0  0  0  0  0  0
  138.0154   79.5231  224.6866 H   0  0  0  0  0  0  0  0  0  0  0  0
  135.8830   79.3000  222.2060 O   0  0  0  0  0  0  0  0  0  0  0  0
  135.3340   78.4620  222.3400 H   0  0  0  0  0  0  0  0  0  0  0  0
  1  2  1  0
  2  3  2  0
  3  4  1  0
  4  5  1  0
  5  6  1  0
  6  7  2  0
  7  8  1  0
  8  9  1  0
  9 10  1  0
  9 11  1  0
  9 12  1  0
  8 13  2  0
 13 14  1  0
 13 15  1  0
 15 16  1  0
 15 17  2  0
 17 18  1  0
 17 19  1  0
 19 20  1  0
 20 21  2  0
 20 22  1  0
 22 23  1  0
 23 24  1  0
 23 25  2  0
 25 26  1  0
 26 27  2  0
 27 28  1  0
 28 29  1  6
 28 30  1  0
 30 31  2  0
 31 32  1  0
 31 33  1  0
 33 34  1  0
 33 35  2  0
 35 36  1  0
 35 37  1  0
 37 38  1  0
 37 39  2  0
 39 40  1  0
 28 41  1  0
 41 42  1  0
 41 43  1  0
 41 44  1  0
 26 45  1  0
 45 46  1  0
 25  3  1  0
 39 30  1  0
 22  5  2  0
 19  7  1  0
M  CHG  1   4  -1
M  END
>  <UniqueID>  (7) 
113

>  <SMILES>  (7) 
[H]/N=c1\[n-]c2nc3c(C)cccn3c(=O)c2cc1/C(O)=N/[C@@H](C)c1ccccc1

>  <Energy>  (7) 
63.27061698251223

>  <Genealogy>  (7) 
Cc1cccn2c(=O)c3cc(C(=O)N[C@@H](C)c4ccccc4)c(=N)[n-]c3nc12 (protonated)
Cc1cccn2c(=O)c3cc(C(O)=N[C@@H](C)c4ccccc4)c(=N)[n-]c3nc12 (tautomer)
[H]/N=c1\[n-]c2nc3c(C)cccn3c(=O)c2cc1/C(O)=N/[C@@H](C)c1ccccc1 (cis-trans isomerization)
[H]/N=c1\[n-]c2nc3c(C)cccn3c(=O)c2cc1/C(O)=N/[C@@H](C)c1ccccc1 (3D coordinates assigned)
[H]/N=c1\[n-]c2nc3c(C)cccn3c(=O)c2cc1/C(O)=N/[C@@H](C)c1ccccc1 (optimized conformer: 63.27061698251223 kcal/mol)

>  <smiles>  (7) 
Cc1cccn2c(=O)c3cc(C(=O)N[C@@H](C)c4ccccc4)c(=N)[nH]c3nc12

>  <score_type>  (7) 
oracle

>  <origin>  (7) 
autodockgpu

>  <m_score__min__energy>  (7) 
-7.3600000000000003

>  <m_primary>  (7) 
energy

>  <meeko>  (7) 
{"free_energy": -6.03, "intermolecular_energy": -7.82, "internal_energy": -2.42, "cluster_size": 16, "cluster_id": 2, "rank_in_cluster": 13}

>  <energy>  (7) 
-6.09

>  <cluster_rmsd>  (7) 
0.07

>  <rmsd>  (7) 
271.01

>  <cluster>  (7) 
2

$$$$
ZIUJVUPDDLJBQX-UVVXYEKPNA-M
     RDKit          3D

 46 49  0  0  0  0  0  0  0  0999 V2000
  135.8120   77.7690  223.6740 H   0  0  0  0  0  0  0  0  0  0  0  0
  136.2340   76.8880  223.3040 N   0  0  0  0  0  0  0  0  0  0  0  0
  137.3870   76.8800  222.7130 C   0  0  0  0  0  0  0  0  0  0  0  0
  138.0760   75.7090  222.6290 N   0  0  0  0  0  0  0  0  0  0  0  0
  139.2810   75.6160  222.0130 C   0  0  0  0  0  0  0  0  0  0  0  0
  139.9200   74.4250  221.9610 N   0  0  0  0  0  0  0  0  0  0  0  0
  141.1280   74.2900  221.3510 C   0  0  0  0  0  0  0  0  0  0  0  0
  141.7520   73.0260  221.3250 C   0  0  0  0  0  0  0  0  0  0  0  0
  141.1020   71.8280  221.9630 C   0  0  0  0  0  0  0  0  0  0  0  0
  141.1533   71.9226  223.0577 H   0  0  0  0  0  0  0  0  0  0  0  0
  140.0494   71.7712  221.6488 H   0  0  0  0  0  0  0  0  0  0  0  0
  141.6282   70.9146  221.6488 H   0  0  0  0  0  0  0  0  0  0  0  0
  142.9950   72.8970  220.6970 C   0  0  0  0  0  0  0  0  0  0  0  0
  143.4973   71.9188  220.6675 H   0  0  0  0  0  0  0  0  0  0  0  0
  143.5960   74.0050  220.1100 C   0  0  0  0  0  0  0  0  0  0  0  0
  144.5741   73.9066  219.6165 H   0  0  0  0  0  0  0  0  0  0  0  0
  142.9530   75.2410  220.1500 C   0  0  0  0  0  0  0  0  0  0  0  0
  143.4296   76.1153  219.6826 H   0  0  0  0  0  0  0  0  0  0  0  0
  141.7340   75.3830  220.7640 N   0  0  0  0  0  0  0  0  0  0  0  0
  141.1100   76.6090  220.7990 C   0  0  0  0  0  0  0  0  0  0  0  0
  141.6530   77.6180  220.2650 O   0  0  0  0  0  0  0  0  0  0  0  0
  139.8610   76.7470  221.4290 C   0  0  0  0  0  0  0  0  0  0  0  0
  139.1760   77.9710  221.4980 C   0  0  0  0  0  0  0  0  0  0  0  0
  139.6187   78.8686  221.0415 H   0  0  0  0  0  0  0  0  0  0  0  0
  137.9290   78.0620  222.1450 C   0  0  0  0  0  0  0  0  0  0  0  0
  137.2410   79.3840  222.1990 C   0  0  0  0  0  0  0  0  0  0  0  0
  137.9380   80.4850  222.1660 N   0  0  0  0  0  0  0  0  0  0  0  0
  138.7130   81.0780  223.2590 C   0  0  2  0  0  0  0  0  0  0  0  0
  138.7101   82.1724  223.1478 H   0  0  0  0  0  0  0  0  0  0  0  0
  140.1340   80.5640  223.2020 C   0  0  0  0  0  0  0  0  0  0  0  0
  140.5060   79.4240  223.9380 C   0  0  0  0  0  0  0  0  0  0  0  0
  139.7639   78.9159  224.5714 H   0  0  0  0  0  0  0  0  0  0  0  0
  141.8140   78.9330  223.8690 C   0  0  0  0  0  0  0  0  0  0  0  0
  142.0981   78.0442  224.4515 H   0  0  0  0  0  0  0  0  0  0  0  0
  142.7600   79.5690  223.0620 C   0  0  0  0  0  0  0  0  0  0  0  0
  143.7890   79.1833  223.0126 H   0  0  0  0  0  0  0  0  0  0  0  0
  142.4000   80.6940  222.3180 C   0  0  0  0  0  0  0  0  0  0  0  0
  143.1455   81.1921  221.6808 H   0  0  0  0  0  0  0  0  0  0  0  0
  141.0940   81.1890  222.3810 C   0  0  0  0  0  0  0  0  0  0  0  0
  140.8142   82.0712  221.7865 H   0  0  0  0  0  0  0  0  0  0  0  0
  138.0870   80.7220  224.6130 C   0  0  0  0  0  0  0  0  0  0  0  0
  138.7333   81.0895  225.4237 H   0  0  0  0  0  0  0  0  0  0  0  0
  137.0954   81.1913  224.6932 H   0  0  0  0  0  0  0  0  0  0  0  0
  137.9834   79.6298  224.6932 H   0  0  0  0  0  0  0  0  0  0  0  0
  135.8430   79.4100  222.2690 O   0  0  0  0  0  0  0  0  0  0  0  0
  135.2700   78.5870  222.3970 H   0  0  0  0  0  0  0  0  0  0  0  0
  1  2  1  0
  2  3  2  0
  3  4  1  0
  4  5  1  0
  5  6  1  0
  6  7  2  0
  7  8  1  0
  8  9  1  0
  9 10  1  0
  9 11  1  0
  9 12  1  0
  8 13  2  0
 13 14  1  0
 13 15  1  0
 15 16  1  0
 15 17  2  0
 17 18  1  0
 17 19  1  0
 19 20  1  0
 20 21  2  0
 20 22  1  0
 22 23  1  0
 23 24  1  0
 23 25  2  0
 25 26  1  0
 26 27  2  0
 27 28  1  0
 28 29  1  6
 28 30  1  0
 30 31  2  0
 31 32  1  0
 31 33  1  0
 33 34  1  0
 33 35  2  0
 35 36  1  0
 35 37  1  0
 37 38  1  0
 37 39  2  0
 39 40  1  0
 28 41  1  0
 41 42  1  0
 41 43  1  0
 41 44  1  0
 26 45  1  0
 45 46  1  0
 25  3  1  0
 39 30  1  0
 22  5  2  0
 19  7  1  0
M  CHG  1   4  -1
M  END
>  <UniqueID>  (8) 
113

>  <SMILES>  (8) 
[H]/N=c1\[n-]c2nc3c(C)cccn3c(=O)c2cc1/C(O)=N/[C@@H](C)c1ccccc1

>  <Energy>  (8) 
63.27061698251223

>  <Genealogy>  (8) 
Cc1cccn2c(=O)c3cc(C(=O)N[C@@H](C)c4ccccc4)c(=N)[n-]c3nc12 (protonated)
Cc1cccn2c(=O)c3cc(C(O)=N[C@@H](C)c4ccccc4)c(=N)[n-]c3nc12 (tautomer)
[H]/N=c1\[n-]c2nc3c(C)cccn3c(=O)c2cc1/C(O)=N/[C@@H](C)c1ccccc1 (cis-trans isomerization)
[H]/N=c1\[n-]c2nc3c(C)cccn3c(=O)c2cc1/C(O)=N/[C@@H](C)c1ccccc1 (3D coordinates assigned)
[H]/N=c1\[n-]c2nc3c(C)cccn3c(=O)c2cc1/C(O)=N/[C@@H](C)c1ccccc1 (optimized conformer: 63.27061698251223 kcal/mol)

>  <smiles>  (8) 
Cc1cccn2c(=O)c3cc(C(=O)N[C@@H](C)c4ccccc4)c(=N)[nH]c3nc12

>  <score_type>  (8) 
oracle

>  <origin>  (8) 
autodockgpu

>  <m_score__min__energy>  (8) 
-7.3600000000000003

>  <m_primary>  (8) 
energy

>  <meeko>  (8) 
{"free_energy": -6.02, "intermolecular_energy": -7.81, "internal_energy": -2.43, "cluster_size": 16, "cluster_id": 2, "rank_in_cluster": 15}

>  <energy>  (8) 
-6.07

>  <cluster_rmsd>  (8) 
0.55

>  <rmsd>  (8) 
270.96

>  <cluster>  (8) 
2

$$$$
ZIUJVUPDDLJBQX-UVVXYEKPNA-M
     RDKit          3D

 46 49  0  0  0  0  0  0  0  0999 V2000
  136.3880   76.9370  223.7880 H   0  0  0  0  0  0  0  0  0  0  0  0
  136.7980   76.2180  223.1500 N   0  0  0  0  0  0  0  0  0  0  0  0
  137.9380   76.4000  222.5630 C   0  0  0  0  0  0  0  0  0  0  0  0
  138.7470   75.3260  222.3470 N   0  0  0  0  0  0  0  0  0  0  0  0
  139.9470   75.4330  221.7240 C   0  0  0  0  0  0  0  0  0  0  0  0
  140.7090   74.3300  221.5380 N   0  0  0  0  0  0  0  0  0  0  0  0
  141.9170   74.3940  220.9170 C   0  0  0  0  0  0  0  0  0  0  0  0
  142.6710   73.2150  220.7480 C   0  0  0  0  0  0  0  0  0  0  0  0
  142.1590   71.8900  221.2460 C   0  0  0  0  0  0  0  0  0  0  0  0
  142.1580   71.8873  222.3460 H   0  0  0  0  0  0  0  0  0  0  0  0
  141.1347   71.7309  220.8780 H   0  0  0  0  0  0  0  0  0  0  0  0
  142.8102   71.0835  220.8780 H   0  0  0  0  0  0  0  0  0  0  0  0
  143.9130   73.2910  220.1110 C   0  0  0  0  0  0  0  0  0  0  0  0
  144.5162   72.3817  219.9722 H   0  0  0  0  0  0  0  0  0  0  0  0
  144.3860   74.5150  219.6530 C   0  0  0  0  0  0  0  0  0  0  0  0
  145.3627   74.5770  219.1508 H   0  0  0  0  0  0  0  0  0  0  0  0
  143.6170   75.6640  219.8330 C   0  0  0  0  0  0  0  0  0  0  0  0
  143.9936   76.6312  219.4689 H   0  0  0  0  0  0  0  0  0  0  0  0
  142.3970   75.6050  220.4580 N   0  0  0  0  0  0  0  0  0  0  0  0
  141.6470   76.7450  220.6310 C   0  0  0  0  0  0  0  0  0  0  0  0
  142.0730   77.8600  220.2150 O   0  0  0  0  0  0  0  0  0  0  0  0
  140.3980   76.6780  221.2730 C   0  0  0  0  0  0  0  0  0  0  0  0
  139.5880   77.8060  221.4800 C   0  0  0  0  0  0  0  0  0  0  0  0
  139.9278   78.7914  221.1287 H   0  0  0  0  0  0  0  0  0  0  0  0
  138.3460   77.6900  222.1320 C   0  0  0  0  0  0  0  0  0  0  0  0
  137.5220   78.9170  222.3360 C   0  0  0  0  0  0  0  0  0  0  0  0
  138.0580   80.0960  222.1840 N   0  0  0  0  0  0  0  0  0  0  0  0
  138.7790   80.8780  223.1910 C   0  0  2  0  0  0  0  0  0  0  0  0
  138.6720   81.9478  222.9586 H   0  0  0  0  0  0  0  0  0  0  0  0
  140.2420   80.4950  223.1680 C   0  0  0  0  0  0  0  0  0  0  0  0
  140.6970   79.3890  223.9100 C   0  0  0  0  0  0  0  0  0  0  0  0
  139.9881   78.8117  224.5217 H   0  0  0  0  0  0  0  0  0  0  0  0
  142.0450   79.0200  223.8740 C   0  0  0  0  0  0  0  0  0  0  0  0
  142.3939   78.1583  224.4620 H   0  0  0  0  0  0  0  0  0  0  0  0
  142.9500   79.7430  223.0930 C   0  0  0  0  0  0  0  0  0  0  0  0
  144.0102   79.4510  223.0675 H   0  0  0  0  0  0  0  0  0  0  0  0
  142.5090   80.8360  222.3450 C   0  0  0  0  0  0  0  0  0  0  0  0
  143.2228   81.4044  221.7306 H   0  0  0  0  0  0  0  0  0  0  0  0
  141.1620   81.2100  222.3750 C   0  0  0  0  0  0  0  0  0  0  0  0
  140.8186   82.0667  221.7766 H   0  0  0  0  0  0  0  0  0  0  0  0
  138.1970   80.6220  224.5860 C   0  0  0  0  0  0  0  0  0  0  0  0
  138.9216   80.9407  225.3498 H   0  0  0  0  0  0  0  0  0  0  0  0
  137.2643   81.1929  224.7046 H   0  0  0  0  0  0  0  0  0  0  0  0
  137.9875   79.5487  224.7046 H   0  0  0  0  0  0  0  0  0  0  0  0
  136.1720   78.7690  222.6730 O   0  0  0  0  0  0  0  0  0  0  0  0
  135.7000   77.8770  222.7340 H   0  0  0  0  0  0  0  0  0  0  0  0
  1  2  1  0
  2  3  2  0
  3  4  1  0
  4  5  1  0
  5  6  1  0
  6  7  2  0
  7  8  1  0
  8  9  1  0
  9 10  1  0
  9 11  1  0
  9 12  1  0
  8 13  2  0
 13 14  1  0
 13 15  1  0
 15 16  1  0
 15 17  2  0
 17 18  1  0
 17 19  1  0
 19 20  1  0
 20 21  2  0
 20 22  1  0
 22 23  1  0
 23 24  1  0
 23 25  2  0
 25 26  1  0
 26 27  2  0
 27 28  1  0
 28 29  1  6
 28 30  1  0
 30 31  2  0
 31 32  1  0
 31 33  1  0
 33 34  1  0
 33 35  2  0
 35 36  1  0
 35 37  1  0
 37 38  1  0
 37 39  2  0
 39 40  1  0
 28 41  1  0
 41 42  1  0
 41 43  1  0
 41 44  1  0
 26 45  1  0
 45 46  1  0
 25  3  1  0
 39 30  1  0
 22  5  2  0
 19  7  1  0
M  CHG  1   4  -1
M  END
>  <UniqueID>  (9) 
113

>  <SMILES>  (9) 
[H]/N=c1\[n-]c2nc3c(C)cccn3c(=O)c2cc1/C(O)=N/[C@@H](C)c1ccccc1

>  <Energy>  (9) 
63.27061698251223

>  <Genealogy>  (9) 
Cc1cccn2c(=O)c3cc(C(=O)N[C@@H](C)c4ccccc4)c(=N)[n-]c3nc12 (protonated)
Cc1cccn2c(=O)c3cc(C(O)=N[C@@H](C)c4ccccc4)c(=N)[n-]c3nc12 (tautomer)
[H]/N=c1\[n-]c2nc3c(C)cccn3c(=O)c2cc1/C(O)=N/[C@@H](C)c1ccccc1 (cis-trans isomerization)
[H]/N=c1\[n-]c2nc3c(C)cccn3c(=O)c2cc1/C(O)=N/[C@@H](C)c1ccccc1 (3D coordinates assigned)
[H]/N=c1\[n-]c2nc3c(C)cccn3c(=O)c2cc1/C(O)=N/[C@@H](C)c1ccccc1 (optimized conformer: 63.27061698251223 kcal/mol)

>  <smiles>  (9) 
Cc1cccn2c(=O)c3cc(C(=O)N[C@@H](C)c4ccccc4)c(=N)[nH]c3nc12

>  <score_type>  (9) 
oracle

>  <origin>  (9) 
autodockgpu

>  <m_score__min__energy>  (9) 
-7.3600000000000003

>  <m_primary>  (9) 
energy

>  <meeko>  (9) 
{"free_energy": -6.11, "intermolecular_energy": -7.9, "internal_energy": -2.35, "cluster_size": 16, "cluster_id": 2, "rank_in_cluster": 2}

>  <energy>  (9) 
-6.07

>  <cluster_rmsd>  (9) 
0.55

>  <rmsd>  (9) 
270.98

>  <cluster>  (9) 
2

$$$$
ZIUJVUPDDLJBQX-UVVXYEKPNA-M
     RDKit          3D

 46 49  0  0  0  0  0  0  0  0999 V2000
  135.8860   77.6230  223.6360 H   0  0  0  0  0  0  0  0  0  0  0  0
  136.3390   76.7630  223.2530 N   0  0  0  0  0  0  0  0  0  0  0  0
  137.4930   76.8050  222.6640 C   0  0  0  0  0  0  0  0  0  0  0  0
  138.2220   75.6600  222.5620 N   0  0  0  0  0  0  0  0  0  0  0  0
  139.4300   75.6190  221.9460 C   0  0  0  0  0  0  0  0  0  0  0  0
  140.1100   74.4520  221.8750 N   0  0  0  0  0  0  0  0  0  0  0  0
  141.3230   74.3690  221.2650 C   0  0  0  0  0  0  0  0  0  0  0  0
  141.9900   73.1280  221.2190 C   0  0  0  0  0  0  0  0  0  0  0  0
  141.3800   71.8970  221.8350 C   0  0  0  0  0  0  0  0  0  0  0  0
  141.4199   71.9774  222.9313 H   0  0  0  0  0  0  0  0  0  0  0  0
  140.3325   71.8059  221.5119 H   0  0  0  0  0  0  0  0  0  0  0  0
  141.9420   71.0083  221.5119 H   0  0  0  0  0  0  0  0  0  0  0  0
  143.2380   73.0530  220.5910 C   0  0  0  0  0  0  0  0  0  0  0  0
  143.7739   72.0934  220.5460 H   0  0  0  0  0  0  0  0  0  0  0  0
  143.8010   74.1900  220.0240 C   0  0  0  0  0  0  0  0  0  0  0  0
  144.7820   74.1334  219.5296 H   0  0  0  0  0  0  0  0  0  0  0  0
  143.1160   75.4030  220.0850 C   0  0  0  0  0  0  0  0  0  0  0  0
  143.5635   76.3015  219.6351 H   0  0  0  0  0  0  0  0  0  0  0  0
  141.8920   75.4920  220.6980 N   0  0  0  0  0  0  0  0  0  0  0  0
  141.2260   76.6950  220.7530 C   0  0  0  0  0  0  0  0  0  0  0  0
  141.7340   77.7310  220.2370 O   0  0  0  0  0  0  0  0  0  0  0  0
  139.9720   76.7800  221.3830 C   0  0  0  0  0  0  0  0  0  0  0  0
  139.2450   77.9780  221.4720 C   0  0  0  0  0  0  0  0  0  0  0  0
  139.6574   78.8982  221.0324 H   0  0  0  0  0  0  0  0  0  0  0  0
  137.9950   78.0150  222.1170 C   0  0  0  0  0  0  0  0  0  0  0  0
  137.2620   79.3120  222.1930 C   0  0  0  0  0  0  0  0  0  0  0  0
  137.9200   80.4360  222.1710 N   0  0  0  0  0  0  0  0  0  0  0  0
  138.6940   81.0320  223.2630 C   0  0  2  0  0  0  0  0  0  0  0  0
  138.6753   82.1270  223.1601 H   0  0  0  0  0  0  0  0  0  0  0  0
  140.1220   80.5390  223.1920 C   0  0  0  0  0  0  0  0  0  0  0  0
  141.0760   81.2390  222.4320 C   0  0  0  0  0  0  0  0  0  0  0  0
  140.7774   82.1381  221.8730 H   0  0  0  0  0  0  0  0  0  0  0  0
  142.4030   80.7980  222.3830 C   0  0  0  0  0  0  0  0  0  0  0  0
  143.1421   81.3474  221.7815 H   0  0  0  0  0  0  0  0  0  0  0  0
  142.7910   79.6620  223.0960 C   0  0  0  0  0  0  0  0  0  0  0  0
  143.8341   79.3155  223.0534 H   0  0  0  0  0  0  0  0  0  0  0  0
  141.8550   78.9660  223.8630 C   0  0  0  0  0  0  0  0  0  0  0  0
  142.1629   78.0724  224.4258 H   0  0  0  0  0  0  0  0  0  0  0  0
  140.5280   79.4010  223.9180 C   0  0  0  0  0  0  0  0  0  0  0  0
  139.7971   78.8529  224.5306 H   0  0  0  0  0  0  0  0  0  0  0  0
  138.0820   80.6590  224.6180 C   0  0  0  0  0  0  0  0  0  0  0  0
  138.7184   81.0469  225.4270 H   0  0  0  0  0  0  0  0  0  0  0  0
  137.0768   81.0981  224.6997 H   0  0  0  0  0  0  0  0  0  0  0  0
  138.0116   79.5643  224.6997 H   0  0  0  0  0  0  0  0  0  0  0  0
  135.8640   79.2870  222.2700 O   0  0  0  0  0  0  0  0  0  0  0  0
  135.3190   78.4420  222.3710 H   0  0  0  0  0  0  0  0  0  0  0  0
  1  2  1  0
  2  3  2  0
  3  4  1  0
  4  5  1  0
  5  6  1  0
  6  7  2  0
  7  8  1  0
  8  9  1  0
  9 10  1  0
  9 11  1  0
  9 12  1  0
  8 13  2  0
 13 14  1  0
 13 15  1  0
 15 16  1  0
 15 17  2  0
 17 18  1  0
 17 19  1  0
 19 20  1  0
 20 21  2  0
 20 22  1  0
 22 23  1  0
 23 24  1  0
 23 25  2  0
 25 26  1  0
 26 27  2  0
 27 28  1  0
 28 29  1  6
 28 30  1  0
 30 31  2  0
 31 32  1  0
 31 33  1  0
 33 34  1  0
 33 35  2  0
 35 36  1  0
 35 37  1  0
 37 38  1  0
 37 39  2  0
 39 40  1  0
 28 41  1  0
 41 42  1  0
 41 43  1  0
 41 44  1  0
 26 45  1  0
 45 46  1  0
 25  3  1  0
 39 30  1  0
 22  5  2  0
 19  7  1  0
M  CHG  1   4  -1
M  END
>  <UniqueID>  (10) 
113

>  <SMILES>  (10) 
[H]/N=c1\[n-]c2nc3c(C)cccn3c(=O)c2cc1/C(O)=N/[C@@H](C)c1ccccc1

>  <Energy>  (10) 
63.27061698251223

>  <Genealogy>  (10) 
Cc1cccn2c(=O)c3cc(C(=O)N[C@@H](C)c4ccccc4)c(=N)[n-]c3nc12 (protonated)
Cc1cccn2c(=O)c3cc(C(O)=N[C@@H](C)c4ccccc4)c(=N)[n-]c3nc12 (tautomer)
[H]/N=c1\[n-]c2nc3c(C)cccn3c(=O)c2cc1/C(O)=N/[C@@H](C)c1ccccc1 (cis-trans isomerization)
[H]/N=c1\[n-]c2nc3c(C)cccn3c(=O)c2cc1/C(O)=N/[C@@H](C)c1ccccc1 (3D coordinates assigned)
[H]/N=c1\[n-]c2nc3c(C)cccn3c(=O)c2cc1/C(O)=N/[C@@H](C)c1ccccc1 (optimized conformer: 63.27061698251223 kcal/mol)

>  <smiles>  (10) 
Cc1cccn2c(=O)c3cc(C(=O)N[C@@H](C)c4ccccc4)c(=N)[nH]c3nc12

>  <score_type>  (10) 
oracle

>  <origin>  (10) 
autodockgpu

>  <m_score__min__energy>  (10) 
-7.3600000000000003

>  <m_primary>  (10) 
energy

>  <meeko>  (10) 
{"free_energy": -6.04, "intermolecular_energy": -7.83, "internal_energy": -2.41, "cluster_size": 16, "cluster_id": 2, "rank_in_cluster": 11}

>  <energy>  (10) 
-6.07

>  <cluster_rmsd>  (10) 
0.55

>  <rmsd>  (10) 
270.98

>  <cluster>  (10) 
2

$$$$
ZIUJVUPDDLJBQX-UVVXYEKPNA-M
     RDKit          3D

 46 49  0  0  0  0  0  0  0  0999 V2000
  134.5400   68.7090  226.4460 H   0  0  0  0  0  0  0  0  0  0  0  0
  133.9410   69.5340  226.6730 N   0  0  0  0  0  0  0  0  0  0  0  0
  134.1760   70.7050  226.1720 C   0  0  0  0  0  0  0  0  0  0  0  0
  133.5630   71.7910  226.7190 N   0  0  0  0  0  0  0  0  0  0  0  0
  133.7710   73.0510  226.2610 C   0  0  0  0  0  0  0  0  0  0  0  0
  133.1330   74.0920  226.8440 N   0  0  0  0  0  0  0  0  0  0  0  0
  133.3150   75.3700  226.4160 C   0  0  0  0  0  0  0  0  0  0  0  0
  132.6260   76.4190  227.0590 C   0  0  0  0  0  0  0  0  0  0  0  0
  131.6940   76.1440  228.2080 C   0  0  0  0  0  0  0  0  0  0  0  0
  132.2264   76.3011  229.1577 H   0  0  0  0  0  0  0  0  0  0  0  0
  130.8330   76.8264  228.1531 H   0  0  0  0  0  0  0  0  0  0  0  0
  131.3413   75.1035  228.1531 H   0  0  0  0  0  0  0  0  0  0  0  0
  132.8180   77.7300  226.6100 C   0  0  0  0  0  0  0  0  0  0  0  0
  132.2881   78.5615  227.0977 H   0  0  0  0  0  0  0  0  0  0  0  0
  133.6780   77.9820  225.5480 C   0  0  0  0  0  0  0  0  0  0  0  0
  133.8309   79.0120  225.1935 H   0  0  0  0  0  0  0  0  0  0  0  0
  134.3460   76.9240  224.9340 C   0  0  0  0  0  0  0  0  0  0  0  0
  135.0266   77.1271  224.0940 H   0  0  0  0  0  0  0  0  0  0  0  0
  134.1670   75.6330  225.3620 N   0  0  0  0  0  0  0  0  0  0  0  0
  134.8310   74.5970  224.7470 C   0  0  0  0  0  0  0  0  0  0  0  0
  135.6150   74.8230  223.7810 O   0  0  0  0  0  0  0  0  0  0  0  0
  134.6430   73.2760  225.1910 C   0  0  0  0  0  0  0  0  0  0  0  0
  135.2910   72.1770  224.6030 C   0  0  0  0  0  0  0  0  0  0  0  0
  135.9808   72.3384  223.7615 H   0  0  0  0  0  0  0  0  0  0  0  0
  135.0670   70.8720  225.0790 C   0  0  0  0  0  0  0  0  0  0  0  0
  135.7720   69.7340  224.4200 C   0  0  0  0  0  0  0  0  0  0  0  0
  136.9570   69.9110  223.9060 N   0  0  0  0  0  0  0  0  0  0  0  0
  138.1420   69.0720  224.1020 C   0  0  2  0  0  0  0  0  0  0  0  0
  137.8212   68.0667  224.4124 H   0  0  0  0  0  0  0  0  0  0  0  0
  139.0160   69.6810  225.1750 C   0  0  0  0  0  0  0  0  0  0  0  0
  139.6500   70.9170  224.9550 C   0  0  0  0  0  0  0  0  0  0  0  0
  139.5232   71.4325  223.9916 H   0  0  0  0  0  0  0  0  0  0  0  0
  140.4410   71.4950  225.9540 C   0  0  0  0  0  0  0  0  0  0  0  0
  140.9383   72.4590  225.7716 H   0  0  0  0  0  0  0  0  0  0  0  0
  140.6000   70.8500  227.1820 C   0  0  0  0  0  0  0  0  0  0  0  0
  141.2253   71.3044  227.9647 H   0  0  0  0  0  0  0  0  0  0  0  0
  139.9660   69.6290  227.4170 C   0  0  0  0  0  0  0  0  0  0  0  0
  140.0903   69.1235  228.3860 H   0  0  0  0  0  0  0  0  0  0  0  0
  139.1730   69.0470  226.4230 C   0  0  0  0  0  0  0  0  0  0  0  0
  138.6690   68.0887  226.6168 H   0  0  0  0  0  0  0  0  0  0  0  0
  138.9340   68.9500  222.7950 C   0  0  0  0  0  0  0  0  0  0  0  0
  139.9973   68.7862  223.0245 H   0  0  0  0  0  0  0  0  0  0  0  0
  138.5498   68.1004  222.2114 H   0  0  0  0  0  0  0  0  0  0  0  0
  138.8232   69.8758  222.2114 H   0  0  0  0  0  0  0  0  0  0  0  0
  135.1410   68.4850  224.3840 O   0  0  0  0  0  0  0  0  0  0  0  0
  134.3580   68.2310  224.9710 H   0  0  0  0  0  0  0  0  0  0  0  0
  1  2  1  0
  2  3  2  0
  3  4  1  0
  4  5  1  0
  5  6  1  0
  6  7  2  0
  7  8  1  0
  8  9  1  0
  9 10  1  0
  9 11  1  0
  9 12  1  0
  8 13  2  0
 13 14  1  0
 13 15  1  0
 15 16  1  0
 15 17  2  0
 17 18  1  0
 17 19  1  0
 19 20  1  0
 20 21  2  0
 20 22  1  0
 22 23  1  0
 23 24  1  0
 23 25  2  0
 25 26  1  0
 26 27  2  0
 27 28  1  0
 28 29  1  1
 28 30  1  0
 30 31  2  0
 31 32  1  0
 31 33  1  0
 33 34  1  0
 33 35  2  0
 35 36  1  0
 35 37  1  0
 37 38  1  0
 37 39  2  0
 39 40  1  0
 28 41  1  0
 41 42  1  0
 41 43  1  0
 41 44  1  0
 26 45  1  0
 45 46  1  0
 25  3  1  0
 39 30  1  0
 22  5  2  0
 19  7  1  0
M  CHG  1   4  -1
M  END
>  <UniqueID>  (11) 
113

>  <SMILES>  (11) 
[H]/N=c1\[n-]c2nc3c(C)cccn3c(=O)c2cc1/C(O)=N/[C@@H](C)c1ccccc1

>  <Energy>  (11) 
63.27061698251223

>  <Genealogy>  (11) 
Cc1cccn2c(=O)c3cc(C(=O)N[C@@H](C)c4ccccc4)c(=N)[n-]c3nc12 (protonated)
Cc1cccn2c(=O)c3cc(C(O)=N[C@@H](C)c4ccccc4)c(=N)[n-]c3nc12 (tautomer)
[H]/N=c1\[n-]c2nc3c(C)cccn3c(=O)c2cc1/C(O)=N/[C@@H](C)c1ccccc1 (cis-trans isomerization)
[H]/N=c1\[n-]c2nc3c(C)cccn3c(=O)c2cc1/C(O)=N/[C@@H](C)c1ccccc1 (3D coordinates assigned)
[H]/N=c1\[n-]c2nc3c(C)cccn3c(=O)c2cc1/C(O)=N/[C@@H](C)c1ccccc1 (optimized conformer: 63.27061698251223 kcal/mol)

>  <smiles>  (11) 
Cc1cccn2c(=O)c3cc(C(=O)N[C@@H](C)c4ccccc4)c(=N)[nH]c3nc12

>  <score_type>  (11) 
oracle

>  <origin>  (11) 
autodockgpu

>  <m_score__min__energy>  (11) 
-7.3600000000000003

>  <m_primary>  (11) 
energy

>  <meeko>  (11) 
{"free_energy": -7.29, "intermolecular_energy": -9.08, "internal_energy": -1.68, "cluster_size": 4, "cluster_id": 1, "rank_in_cluster": 3}

>  <energy>  (11) 
-6.06

>  <cluster_rmsd>  (11) 
0.69

>  <rmsd>  (11) 
270.96

>  <cluster>  (11) 
2

$$$$
ZIUJVUPDDLJBQX-UVVXYEKPNA-M
     RDKit          3D

 46 49  0  0  0  0  0  0  0  0999 V2000
  135.9420   77.5930  223.7660 H   0  0  0  0  0  0  0  0  0  0  0  0
  136.3660   76.7460  223.3250 N   0  0  0  0  0  0  0  0  0  0  0  0
  137.5140   76.7910  222.7280 C   0  0  0  0  0  0  0  0  0  0  0  0
  138.2430   75.6470  222.6120 N   0  0  0  0  0  0  0  0  0  0  0  0
  139.4460   75.6100  221.9860 C   0  0  0  0  0  0  0  0  0  0  0  0
  140.1240   74.4430  221.9020 N   0  0  0  0  0  0  0  0  0  0  0  0
  141.3320   74.3630  221.2830 C   0  0  0  0  0  0  0  0  0  0  0  0
  141.9980   73.1220  221.2220 C   0  0  0  0  0  0  0  0  0  0  0  0
  141.3930   71.8870  221.8350 C   0  0  0  0  0  0  0  0  0  0  0  0
  141.4314   71.9654  222.9315 H   0  0  0  0  0  0  0  0  0  0  0  0
  140.3462   71.7918  221.5107 H   0  0  0  0  0  0  0  0  0  0  0  0
  141.9594   71.0015  221.5107 H   0  0  0  0  0  0  0  0  0  0  0  0
  143.2410   73.0500  220.5850 C   0  0  0  0  0  0  0  0  0  0  0  0
  143.7761   72.0906  220.5294 H   0  0  0  0  0  0  0  0  0  0  0  0
  143.8000   74.1920  220.0220 C   0  0  0  0  0  0  0  0  0  0  0  0
  144.7775   74.1386  219.5203 H   0  0  0  0  0  0  0  0  0  0  0  0
  143.1170   75.4040  220.0960 C   0  0  0  0  0  0  0  0  0  0  0  0
  143.5617   76.3050  219.6483 H   0  0  0  0  0  0  0  0  0  0  0  0
  141.8980   75.4900  220.7190 N   0  0  0  0  0  0  0  0  0  0  0  0
  141.2330   76.6930  220.7870 C   0  0  0  0  0  0  0  0  0  0  0  0
  141.7380   77.7320  220.2750 O   0  0  0  0  0  0  0  0  0  0  0  0
  139.9840   76.7740  221.4270 C   0  0  0  0  0  0  0  0  0  0  0  0
  139.2580   77.9720  221.5300 C   0  0  0  0  0  0  0  0  0  0  0  0
  139.6672   78.8950  221.0933 H   0  0  0  0  0  0  0  0  0  0  0  0
  138.0140   78.0050  222.1850 C   0  0  0  0  0  0  0  0  0  0  0  0
  137.2820   79.3010  222.2760 C   0  0  0  0  0  0  0  0  0  0  0  0
  137.9350   80.4270  222.2020 N   0  0  0  0  0  0  0  0  0  0  0  0
  138.7060   81.0750  223.2660 C   0  0  2  0  0  0  0  0  0  0  0  0
  138.6730   82.1647  223.1195 H   0  0  0  0  0  0  0  0  0  0  0  0
  140.1400   80.5960  223.2080 C   0  0  0  0  0  0  0  0  0  0  0  0
  140.5310   79.4450  223.9160 C   0  0  0  0  0  0  0  0  0  0  0  0
  139.7947   78.9028  224.5275 H   0  0  0  0  0  0  0  0  0  0  0  0
  141.8500   78.9860  223.8470 C   0  0  0  0  0  0  0  0  0  0  0  0
  142.1487   78.0877  224.4073 H   0  0  0  0  0  0  0  0  0  0  0  0
  142.7890   79.6660  223.0680 C   0  0  0  0  0  0  0  0  0  0  0  0
  143.8270   79.3054  223.0183 H   0  0  0  0  0  0  0  0  0  0  0  0
  142.4100   80.8040  222.3520 C   0  0  0  0  0  0  0  0  0  0  0  0
  143.1497   81.3374  221.7369 H   0  0  0  0  0  0  0  0  0  0  0  0
  141.0920   81.2660  222.4160 C   0  0  0  0  0  0  0  0  0  0  0  0
  140.7970   82.1582  221.8442 H   0  0  0  0  0  0  0  0  0  0  0  0
  138.1050   80.7500  224.6380 C   0  0  0  0  0  0  0  0  0  0  0  0
  138.7778   81.1138  225.4285 H   0  0  0  0  0  0  0  0  0  0  0  0
  137.1257   81.2415  224.7351 H   0  0  0  0  0  0  0  0  0  0  0  0
  137.9801   79.6614  224.7351 H   0  0  0  0  0  0  0  0  0  0  0  0
  135.8900   79.2760  222.4220 O   0  0  0  0  0  0  0  0  0  0  0  0
  135.3450   78.4280  222.4920 H   0  0  0  0  0  0  0  0  0  0  0  0
  1  2  1  0
  2  3  2  0
  3  4  1  0
  4  5  1  0
  5  6  1  0
  6  7  2  0
  7  8  1  0
  8  9  1  0
  9 10  1  0
  9 11  1  0
  9 12  1  0
  8 13  2  0
 13 14  1  0
 13 15  1  0
 15 16  1  0
 15 17  2  0
 17 18  1  0
 17 19  1  0
 19 20  1  0
 20 21  2  0
 20 22  1  0
 22 23  1  0
 23 24  1  0
 23 25  2  0
 25 26  1  0
 26 27  2  0
 27 28  1  0
 28 29  1  6
 28 30  1  0
 30 31  2  0
 31 32  1  0
 31 33  1  0
 33 34  1  0
 33 35  2  0
 35 36  1  0
 35 37  1  0
 37 38  1  0
 37 39  2  0
 39 40  1  0
 28 41  1  0
 41 42  1  0
 41 43  1  0
 41 44  1  0
 26 45  1  0
 45 46  1  0
 25  3  1  0
 39 30  1  0
 22  5  2  0
 19  7  1  0
M  CHG  1   4  -1
M  END
>  <UniqueID>  (12) 
113

>  <SMILES>  (12) 
[H]/N=c1\[n-]c2nc3c(C)cccn3c(=O)c2cc1/C(O)=N/[C@@H](C)c1ccccc1

>  <Energy>  (12) 
63.27061698251223

>  <Genealogy>  (12) 
Cc1cccn2c(=O)c3cc(C(=O)N[C@@H](C)c4ccccc4)c(=N)[n-]c3nc12 (protonated)
Cc1cccn2c(=O)c3cc(C(O)=N[C@@H](C)c4ccccc4)c(=N)[n-]c3nc12 (tautomer)
[H]/N=c1\[n-]c2nc3c(C)cccn3c(=O)c2cc1/C(O)=N/[C@@H](C)c1ccccc1 (cis-trans isomerization)
[H]/N=c1\[n-]c2nc3c(C)cccn3c(=O)c2cc1/C(O)=N/[C@@H](C)c1ccccc1 (3D coordinates assigned)
[H]/N=c1\[n-]c2nc3c(C)cccn3c(=O)c2cc1/C(O)=N/[C@@H](C)c1ccccc1 (optimized conformer: 63.27061698251223 kcal/mol)

>  <smiles>  (12) 
Cc1cccn2c(=O)c3cc(C(=O)N[C@@H](C)c4ccccc4)c(=N)[nH]c3nc12

>  <score_type>  (12) 
oracle

>  <origin>  (12) 
autodockgpu

>  <m_score__min__energy>  (12) 
-7.3600000000000003

>  <m_primary>  (12) 
energy

>  <meeko>  (12) 
{"free_energy": -6.07, "intermolecular_energy": -7.86, "internal_energy": -2.39, "cluster_size": 16, "cluster_id": 2, "rank_in_cluster": 6}

>  <energy>  (12) 
-6.04

>  <cluster_rmsd>  (12) 
0.69

>  <rmsd>  (12) 
270.93

>  <cluster>  (12) 
2

$$$$
ZIUJVUPDDLJBQX-UVVXYEKPNA-M
     RDKit          3D

 46 49  0  0  0  0  0  0  0  0999 V2000
  135.9220   77.5750  223.7570 H   0  0  0  0  0  0  0  0  0  0  0  0
  136.3460   76.7320  223.3090 N   0  0  0  0  0  0  0  0  0  0  0  0
  137.4950   76.7830  222.7110 C   0  0  0  0  0  0  0  0  0  0  0  0
  138.2280   75.6420  222.5940 N   0  0  0  0  0  0  0  0  0  0  0  0
  139.4310   75.6120  221.9680 C   0  0  0  0  0  0  0  0  0  0  0  0
  140.1160   74.4480  221.8830 N   0  0  0  0  0  0  0  0  0  0  0  0
  141.3240   74.3750  221.2630 C   0  0  0  0  0  0  0  0  0  0  0  0
  141.9960   73.1370  221.2010 C   0  0  0  0  0  0  0  0  0  0  0  0
  141.3960   71.8990  221.8120 C   0  0  0  0  0  0  0  0  0  0  0  0
  141.4334   71.9763  222.9086 H   0  0  0  0  0  0  0  0  0  0  0  0
  140.3498   71.7998  221.4869 H   0  0  0  0  0  0  0  0  0  0  0  0
  141.9663   71.0163  221.4869 H   0  0  0  0  0  0  0  0  0  0  0  0
  143.2390   73.0720  220.5630 C   0  0  0  0  0  0  0  0  0  0  0  0
  143.7788   72.1153  220.5059 H   0  0  0  0  0  0  0  0  0  0  0  0
  143.7920   74.2170  220.0010 C   0  0  0  0  0  0  0  0  0  0  0  0
  144.7696   74.1689  219.4991 H   0  0  0  0  0  0  0  0  0  0  0  0
  143.1030   75.4260  220.0760 C   0  0  0  0  0  0  0  0  0  0  0  0
  143.5428   76.3295  219.6286 H   0  0  0  0  0  0  0  0  0  0  0  0
  141.8840   75.5050  220.7000 N   0  0  0  0  0  0  0  0  0  0  0  0
  141.2130   76.7050  220.7690 C   0  0  0  0  0  0  0  0  0  0  0  0
  141.7130   77.7470  220.2580 O   0  0  0  0  0  0  0  0  0  0  0  0
  139.9640   76.7790  221.4100 C   0  0  0  0  0  0  0  0  0  0  0  0
  139.2330   77.9730  221.5140 C   0  0  0  0  0  0  0  0  0  0  0  0
  139.6379   78.8981  221.0778 H   0  0  0  0  0  0  0  0  0  0  0  0
  137.9880   78.0000  222.1700 C   0  0  0  0  0  0  0  0  0  0  0  0
  137.2500   79.2930  222.2620 C   0  0  0  0  0  0  0  0  0  0  0  0
  137.8970   80.4220  222.1820 N   0  0  0  0  0  0  0  0  0  0  0  0
  138.6760   81.0730  223.2380 C   0  0  2  0  0  0  0  0  0  0  0  0
  138.6513   82.1615  223.0815 H   0  0  0  0  0  0  0  0  0  0  0  0
  140.1060   80.5830  223.1810 C   0  0  0  0  0  0  0  0  0  0  0  0
  141.0680   81.2880  222.4360 C   0  0  0  0  0  0  0  0  0  0  0  0
  140.7744   82.1899  221.8788 H   0  0  0  0  0  0  0  0  0  0  0  0
  142.3950   80.8500  222.3990 C   0  0  0  0  0  0  0  0  0  0  0  0
  143.1397   81.4037  221.8084 H   0  0  0  0  0  0  0  0  0  0  0  0
  142.7770   79.7100  223.1110 C   0  0  0  0  0  0  0  0  0  0  0  0
  143.8212   79.3657  223.0790 H   0  0  0  0  0  0  0  0  0  0  0  0
  141.8330   79.0080  223.8630 C   0  0  0  0  0  0  0  0  0  0  0  0
  142.1351   78.1112  224.4238 H   0  0  0  0  0  0  0  0  0  0  0  0
  140.5050   79.4420  223.9050 C   0  0  0  0  0  0  0  0  0  0  0  0
  139.7677   78.8900  224.5063 H   0  0  0  0  0  0  0  0  0  0  0  0
  138.0760   80.7650  224.6140 C   0  0  0  0  0  0  0  0  0  0  0  0
  138.7609   81.1166  225.3997 H   0  0  0  0  0  0  0  0  0  0  0  0
  137.1080   81.2777  224.7150 H   0  0  0  0  0  0  0  0  0  0  0  0
  137.9284   79.6796  224.7150 H   0  0  0  0  0  0  0  0  0  0  0  0
  135.8590   79.2610  222.4170 O   0  0  0  0  0  0  0  0  0  0  0  0
  135.3180   78.4090  222.4820 H   0  0  0  0  0  0  0  0  0  0  0  0
  1  2  1  0
  2  3  2  0
  3  4  1  0
  4  5  1  0
  5  6  1  0
  6  7  2  0
  7  8  1  0
  8  9  1  0
  9 10  1  0
  9 11  1  0
  9 12  1  0
  8 13  2  0
 13 14  1  0
 13 15  1  0
 15 16  1  0
 15 17  2  0
 17 18  1  0
 17 19  1  0
 19 20  1  0
 20 21  2  0
 20 22  1  0
 22 23  1  0
 23 24  1  0
 23 25  2  0
 25 26  1  0
 26 27  2  0
 27 28  1  0
 28 29  1  6
 28 30  1  0
 30 31  2  0
 31 32  1  0
 31 33  1  0
 33 34  1  0
 33 35  2  0
 35 36  1  0
 35 37  1  0
 37 38  1  0
 37 39  2  0
 39 40  1  0
 28 41  1  0
 41 42  1  0
 41 43  1  0
 41 44  1  0
 26 45  1  0
 45 46  1  0
 25  3  1  0
 39 30  1  0
 22  5  2  0
 19  7  1  0
M  CHG  1   4  -1
M  END
>  <UniqueID>  (13) 
113

>  <SMILES>  (13) 
[H]/N=c1\[n-]c2nc3c(C)cccn3c(=O)c2cc1/C(O)=N/[C@@H](C)c1ccccc1

>  <Energy>  (13) 
63.27061698251223

>  <Genealogy>  (13) 
Cc1cccn2c(=O)c3cc(C(=O)N[C@@H](C)c4ccccc4)c(=N)[n-]c3nc12 (protonated)
Cc1cccn2c(=O)c3cc(C(O)=N[C@@H](C)c4ccccc4)c(=N)[n-]c3nc12 (tautomer)
[H]/N=c1\[n-]c2nc3c(C)cccn3c(=O)c2cc1/C(O)=N/[C@@H](C)c1ccccc1 (cis-trans isomerization)
[H]/N=c1\[n-]c2nc3c(C)cccn3c(=O)c2cc1/C(O)=N/[C@@H](C)c1ccccc1 (3D coordinates assigned)
[H]/N=c1\[n-]c2nc3c(C)cccn3c(=O)c2cc1/C(O)=N/[C@@H](C)c1ccccc1 (optimized conformer: 63.27061698251223 kcal/mol)

>  <smiles>  (13) 
Cc1cccn2c(=O)c3cc(C(=O)N[C@@H](C)c4ccccc4)c(=N)[nH]c3nc12

>  <score_type>  (13) 
oracle

>  <origin>  (13) 
autodockgpu

>  <m_score__min__energy>  (13) 
-7.3600000000000003

>  <m_primary>  (13) 
energy

>  <meeko>  (13) 
{"free_energy": -6.07, "intermolecular_energy": -7.86, "internal_energy": -2.37, "cluster_size": 16, "cluster_id": 2, "rank_in_cluster": 4}

>  <energy>  (13) 
-6.04

>  <cluster_rmsd>  (13) 
0.55

>  <rmsd>  (13) 
270.96

>  <cluster>  (13) 
2

$$$$
ZIUJVUPDDLJBQX-UVVXYEKPNA-M
     RDKit          3D

 46 49  0  0  0  0  0  0  0  0999 V2000
  135.9340   77.6040  223.7200 H   0  0  0  0  0  0  0  0  0  0  0  0
  136.3620   76.7590  223.2790 N   0  0  0  0  0  0  0  0  0  0  0  0
  137.5150   76.8090  222.6900 C   0  0  0  0  0  0  0  0  0  0  0  0
  138.2470   75.6660  222.5770 N   0  0  0  0  0  0  0  0  0  0  0  0
  139.4550   75.6340  221.9610 C   0  0  0  0  0  0  0  0  0  0  0  0
  140.1380   74.4690  221.8790 N   0  0  0  0  0  0  0  0  0  0  0  0
  141.3500   74.3940  221.2680 C   0  0  0  0  0  0  0  0  0  0  0  0
  142.0200   73.1550  221.2100 C   0  0  0  0  0  0  0  0  0  0  0  0
  141.4130   71.9170  221.8150 C   0  0  0  0  0  0  0  0  0  0  0  0
  141.4486   71.9897  222.9120 H   0  0  0  0  0  0  0  0  0  0  0  0
  140.3670   71.8238  221.4875 H   0  0  0  0  0  0  0  0  0  0  0  0
  141.9799   71.0330  221.4875 H   0  0  0  0  0  0  0  0  0  0  0  0
  143.2670   73.0880  220.5820 C   0  0  0  0  0  0  0  0  0  0  0  0
  143.8048   72.1299  220.5284 H   0  0  0  0  0  0  0  0  0  0  0  0
  143.8280   74.2320  220.0250 C   0  0  0  0  0  0  0  0  0  0  0  0
  144.8090   74.1817  219.5300 H   0  0  0  0  0  0  0  0  0  0  0  0
  143.1410   75.4430  220.0970 C   0  0  0  0  0  0  0  0  0  0  0  0
  143.5868   76.3464  219.6552 H   0  0  0  0  0  0  0  0  0  0  0  0
  141.9170   75.5240  220.7110 N   0  0  0  0  0  0  0  0  0  0  0  0
  141.2480   76.7250  220.7770 C   0  0  0  0  0  0  0  0  0  0  0  0
  141.7540   77.7670  220.2710 O   0  0  0  0  0  0  0  0  0  0  0  0
  139.9940   76.8010  221.4080 C   0  0  0  0  0  0  0  0  0  0  0  0
  139.2650   77.9970  221.5080 C   0  0  0  0  0  0  0  0  0  0  0  0
  139.6754   78.9220  221.0767 H   0  0  0  0  0  0  0  0  0  0  0  0
  138.0150   78.0250  222.1540 C   0  0  0  0  0  0  0  0  0  0  0  0
  137.2790   79.3190  222.2420 C   0  0  0  0  0  0  0  0  0  0  0  0
  137.9300   80.4470  222.1700 N   0  0  0  0  0  0  0  0  0  0  0  0
  138.6830   81.1050  223.2390 C   0  0  2  0  0  0  0  0  0  0  0  0
  138.6417   82.1938  223.0876 H   0  0  0  0  0  0  0  0  0  0  0  0
  140.1220   80.6390  223.1990 C   0  0  0  0  0  0  0  0  0  0  0  0
  140.5120   79.4850  223.9030 C   0  0  0  0  0  0  0  0  0  0  0  0
  139.7712   78.9312  224.4985 H   0  0  0  0  0  0  0  0  0  0  0  0
  141.8360   79.0380  223.8500 C   0  0  0  0  0  0  0  0  0  0  0  0
  142.1344   78.1382  224.4079 H   0  0  0  0  0  0  0  0  0  0  0  0
  142.7800   79.7320  223.0900 C   0  0  0  0  0  0  0  0  0  0  0  0
  143.8216   79.3804  223.0523 H   0  0  0  0  0  0  0  0  0  0  0  0
  142.4020   80.8720  222.3780 C   0  0  0  0  0  0  0  0  0  0  0  0
  143.1462   81.4163  221.7781 H   0  0  0  0  0  0  0  0  0  0  0  0
  141.0800   81.3230  222.4260 C   0  0  0  0  0  0  0  0  0  0  0  0
  140.7862   82.2172  221.8568 H   0  0  0  0  0  0  0  0  0  0  0  0
  138.0700   80.7790  224.6060 C   0  0  0  0  0  0  0  0  0  0  0  0
  138.7398   81.1352  225.4025 H   0  0  0  0  0  0  0  0  0  0  0  0
  137.0935   81.2769  224.6981 H   0  0  0  0  0  0  0  0  0  0  0  0
  137.9369   79.6910  224.6981 H   0  0  0  0  0  0  0  0  0  0  0  0
  135.8870   79.2900  222.3850 O   0  0  0  0  0  0  0  0  0  0  0  0
  135.3420   78.4400  222.4290 H   0  0  0  0  0  0  0  0  0  0  0  0
  1  2  1  0
  2  3  2  0
  3  4  1  0
  4  5  1  0
  5  6  1  0
  6  7  2  0
  7  8  1  0
  8  9  1  0
  9 10  1  0
  9 11  1  0
  9 12  1  0
  8 13  2  0
 13 14  1  0
 13 15  1  0
 15 16  1  0
 15 17  2  0
 17 18  1  0
 17 19  1  0
 19 20  1  0
 20 21  2  0
 20 22  1  0
 22 23  1  0
 23 24  1  0
 23 25  2  0
 25 26  1  0
 26 27  2  0
 27 28  1  0
 28 29  1  6
 28 30  1  0
 30 31  2  0
 31 32  1  0
 31 33  1  0
 33 34  1  0
 33 35  2  0
 35 36  1  0
 35 37  1  0
 37 38  1  0
 37 39  2  0
 39 40  1  0
 28 41  1  0
 41 42  1  0
 41 43  1  0
 41 44  1  0
 26 45  1  0
 45 46  1  0
 25  3  1  0
 39 30  1  0
 22  5  2  0
 19  7  1  0
M  CHG  1   4  -1
M  END
>  <UniqueID>  (14) 
113

>  <SMILES>  (14) 
[H]/N=c1\[n-]c2nc3c(C)cccn3c(=O)c2cc1/C(O)=N/[C@@H](C)c1ccccc1

>  <Energy>  (14) 
63.27061698251223

>  <Genealogy>  (14) 
Cc1cccn2c(=O)c3cc(C(=O)N[C@@H](C)c4ccccc4)c(=N)[n-]c3nc12 (protonated)
Cc1cccn2c(=O)c3cc(C(O)=N[C@@H](C)c4ccccc4)c(=N)[n-]c3nc12 (tautomer)
[H]/N=c1\[n-]c2nc3c(C)cccn3c(=O)c2cc1/C(O)=N/[C@@H](C)c1ccccc1 (cis-trans isomerization)
[H]/N=c1\[n-]c2nc3c(C)cccn3c(=O)c2cc1/C(O)=N/[C@@H](C)c1ccccc1 (3D coordinates assigned)
[H]/N=c1\[n-]c2nc3c(C)cccn3c(=O)c2cc1/C(O)=N/[C@@H](C)c1ccccc1 (optimized conformer: 63.27061698251223 kcal/mol)

>  <smiles>  (14) 
Cc1cccn2c(=O)c3cc(C(=O)N[C@@H](C)c4ccccc4)c(=N)[nH]c3nc12

>  <score_type>  (14) 
oracle

>  <origin>  (14) 
autodockgpu

>  <m_score__min__energy>  (14) 
-7.3600000000000003

>  <m_primary>  (14) 
energy

>  <meeko>  (14) 
{"free_energy": -6.07, "intermolecular_energy": -7.86, "internal_energy": -2.38, "cluster_size": 16, "cluster_id": 2, "rank_in_cluster": 5}

>  <energy>  (14) 
-6.04

>  <cluster_rmsd>  (14) 
0.67

>  <rmsd>  (14) 
270.94

>  <cluster>  (14) 
2

$$$$
ZIUJVUPDDLJBQX-UVVXYEKPNA-M
     RDKit          3D

 46 49  0  0  0  0  0  0  0  0999 V2000
  135.8460   77.8310  223.5900 H   0  0  0  0  0  0  0  0  0  0  0  0
  136.2960   76.9410  223.2780 N   0  0  0  0  0  0  0  0  0  0  0  0
  137.4470   76.9320  222.6830 C   0  0  0  0  0  0  0  0  0  0  0  0
  138.1400   75.7630  222.6070 N   0  0  0  0  0  0  0  0  0  0  0  0
  139.3430   75.6690  221.9860 C   0  0  0  0  0  0  0  0  0  0  0  0
  139.9860   74.4800  221.9420 N   0  0  0  0  0  0  0  0  0  0  0  0
  141.1920   74.3440  221.3290 C   0  0  0  0  0  0  0  0  0  0  0  0
  141.8200   73.0820  221.3110 C   0  0  0  0  0  0  0  0  0  0  0  0
  141.1770   71.8870  221.9630 C   0  0  0  0  0  0  0  0  0  0  0  0
  141.2332   71.9915  223.0566 H   0  0  0  0  0  0  0  0  0  0  0  0
  140.1231   71.8238  221.6544 H   0  0  0  0  0  0  0  0  0  0  0  0
  141.7049   70.9726  221.6544 H   0  0  0  0  0  0  0  0  0  0  0  0
  143.0610   72.9520  220.6800 C   0  0  0  0  0  0  0  0  0  0  0  0
  143.5668   71.9754  220.6574 H   0  0  0  0  0  0  0  0  0  0  0  0
  143.6560   74.0570  220.0810 C   0  0  0  0  0  0  0  0  0  0  0  0
  144.6325   73.9576  219.5844 H   0  0  0  0  0  0  0  0  0  0  0  0
  143.0090   75.2910  220.1130 C   0  0  0  0  0  0  0  0  0  0  0  0
  143.4810   76.1630  219.6367 H   0  0  0  0  0  0  0  0  0  0  0  0
  141.7920   75.4340  220.7300 N   0  0  0  0  0  0  0  0  0  0  0  0
  141.1630   76.6580  220.7560 C   0  0  0  0  0  0  0  0  0  0  0  0
  141.7000   77.6640  220.2110 O   0  0  0  0  0  0  0  0  0  0  0  0
  139.9160   76.7970  221.3900 C   0  0  0  0  0  0  0  0  0  0  0  0
  139.2270   78.0190  221.4510 C   0  0  0  0  0  0  0  0  0  0  0  0
  139.6646   78.9141  220.9848 H   0  0  0  0  0  0  0  0  0  0  0  0
  137.9830   78.1110  222.1020 C   0  0  0  0  0  0  0  0  0  0  0  0
  137.2900   79.4320  222.1470 C   0  0  0  0  0  0  0  0  0  0  0  0
  137.9850   80.5350  222.1440 N   0  0  0  0  0  0  0  0  0  0  0  0
  138.7440   81.1070  223.2590 C   0  0  2  0  0  0  0  0  0  0  0  0
  138.7351   82.2036  223.1735 H   0  0  0  0  0  0  0  0  0  0  0  0
  140.1700   80.6030  223.2050 C   0  0  0  0  0  0  0  0  0  0  0  0
  140.5380   79.4440  223.9120 C   0  0  0  0  0  0  0  0  0  0  0  0
  139.7900   78.9135  224.5195 H   0  0  0  0  0  0  0  0  0  0  0  0
  141.8500   78.9620  223.8470 C   0  0  0  0  0  0  0  0  0  0  0  0
  142.1318   78.0587  224.4080 H   0  0  0  0  0  0  0  0  0  0  0  0
  142.8020   79.6260  223.0710 C   0  0  0  0  0  0  0  0  0  0  0  0
  143.8334   79.2466  223.0230 H   0  0  0  0  0  0  0  0  0  0  0  0
  142.4460   80.7710  222.3560 C   0  0  0  0  0  0  0  0  0  0  0  0
  143.1973   81.2919  221.7443 H   0  0  0  0  0  0  0  0  0  0  0  0
  141.1360   81.2570  222.4160 C   0  0  0  0  0  0  0  0  0  0  0  0
  140.8587   82.1547  221.8440 H   0  0  0  0  0  0  0  0  0  0  0  0
  138.1060   80.7170  224.5970 C   0  0  0  0  0  0  0  0  0  0  0  0
  138.7258   81.0959  225.4230 H   0  0  0  0  0  0  0  0  0  0  0  0
  137.0987   81.1539  224.6641 H   0  0  0  0  0  0  0  0  0  0  0  0
  138.0356   79.6213  224.6641 H   0  0  0  0  0  0  0  0  0  0  0  0
  135.8910   79.4530  222.1750 O   0  0  0  0  0  0  0  0  0  0  0  0
  135.3180   78.6490  222.3920 H   0  0  0  0  0  0  0  0  0  0  0  0
  1  2  1  0
  2  3  2  0
  3  4  1  0
  4  5  1  0
  5  6  1  0
  6  7  2  0
  7  8  1  0
  8  9  1  0
  9 10  1  0
  9 11  1  0
  9 12  1  0
  8 13  2  0
 13 14  1  0
 13 15  1  0
 15 16  1  0
 15 17  2  0
 17 18  1  0
 17 19  1  0
 19 20  1  0
 20 21  2  0
 20 22  1  0
 22 23  1  0
 23 24  1  0
 23 25  2  0
 25 26  1  0
 26 27  2  0
 27 28  1  0
 28 29  1  6
 28 30  1  0
 30 31  2  0
 31 32  1  0
 31 33  1  0
 33 34  1  0
 33 35  2  0
 35 36  1  0
 35 37  1  0
 37 38  1  0
 37 39  2  0
 39 40  1  0
 28 41  1  0
 41 42  1  0
 41 43  1  0
 41 44  1  0
 26 45  1  0
 45 46  1  0
 25  3  1  0
 39 30  1  0
 22  5  2  0
 19  7  1  0
M  CHG  1   4  -1
M  END
>  <UniqueID>  (15) 
113

>  <SMILES>  (15) 
[H]/N=c1\[n-]c2nc3c(C)cccn3c(=O)c2cc1/C(O)=N/[C@@H](C)c1ccccc1

>  <Energy>  (15) 
63.27061698251223

>  <Genealogy>  (15) 
Cc1cccn2c(=O)c3cc(C(=O)N[C@@H](C)c4ccccc4)c(=N)[n-]c3nc12 (protonated)
Cc1cccn2c(=O)c3cc(C(O)=N[C@@H](C)c4ccccc4)c(=N)[n-]c3nc12 (tautomer)
[H]/N=c1\[n-]c2nc3c(C)cccn3c(=O)c2cc1/C(O)=N/[C@@H](C)c1ccccc1 (cis-trans isomerization)
[H]/N=c1\[n-]c2nc3c(C)cccn3c(=O)c2cc1/C(O)=N/[C@@H](C)c1ccccc1 (3D coordinates assigned)
[H]/N=c1\[n-]c2nc3c(C)cccn3c(=O)c2cc1/C(O)=N/[C@@H](C)c1ccccc1 (optimized conformer: 63.27061698251223 kcal/mol)

>  <smiles>  (15) 
Cc1cccn2c(=O)c3cc(C(=O)N[C@@H](C)c4ccccc4)c(=N)[nH]c3nc12

>  <score_type>  (15) 
oracle

>  <origin>  (15) 
autodockgpu

>  <m_score__min__energy>  (15) 
-7.3600000000000003

>  <m_primary>  (15) 
energy

>  <meeko>  (15) 
{"free_energy": -6.03, "intermolecular_energy": -7.82, "internal_energy": -2.42, "cluster_size": 16, "cluster_id": 2, "rank_in_cluster": 14}

>  <energy>  (15) 
-6.04

>  <cluster_rmsd>  (15) 
0.57

>  <rmsd>  (15) 
270.95

>  <cluster>  (15) 
2

$$$$
ZIUJVUPDDLJBQX-UVVXYEKPNA-M
     RDKit          3D

 46 49  0  0  0  0  0  0  0  0999 V2000
  135.8110   77.8350  223.5570 H   0  0  0  0  0  0  0  0  0  0  0  0
  136.2540   76.9450  223.2360 N   0  0  0  0  0  0  0  0  0  0  0  0
  137.4130   76.9310  222.6580 C   0  0  0  0  0  0  0  0  0  0  0  0
  138.0990   75.7570  222.5840 N   0  0  0  0  0  0  0  0  0  0  0  0
  139.3100   75.6580  221.9810 C   0  0  0  0  0  0  0  0  0  0  0  0
  139.9450   74.4650  221.9390 N   0  0  0  0  0  0  0  0  0  0  0  0
  141.1590   74.3230  221.3430 C   0  0  0  0  0  0  0  0  0  0  0  0
  141.7780   73.0570  221.3260 C   0  0  0  0  0  0  0  0  0  0  0  0
  141.1160   71.8630  221.9600 C   0  0  0  0  0  0  0  0  0  0  0  0
  141.1666   71.9542  223.0551 H   0  0  0  0  0  0  0  0  0  0  0  0
  140.0633   71.8167  221.6441 H   0  0  0  0  0  0  0  0  0  0  0  0
  141.6343   70.9456  221.6441 H   0  0  0  0  0  0  0  0  0  0  0  0
  143.0270   72.9210  220.7130 C   0  0  0  0  0  0  0  0  0  0  0  0
  143.5258   71.9408  220.6925 H   0  0  0  0  0  0  0  0  0  0  0  0
  143.6390   74.0250  220.1290 C   0  0  0  0  0  0  0  0  0  0  0  0
  144.6214   73.9210  219.6452 H   0  0  0  0  0  0  0  0  0  0  0  0
  143.0010   75.2640  220.1600 C   0  0  0  0  0  0  0  0  0  0  0  0
  143.4868   76.1353  219.6966 H   0  0  0  0  0  0  0  0  0  0  0  0
  141.7760   75.4130  220.7600 N   0  0  0  0  0  0  0  0  0  0  0  0
  141.1560   76.6410  220.7840 C   0  0  0  0  0  0  0  0  0  0  0  0
  141.7090   77.6470  220.2540 O   0  0  0  0  0  0  0  0  0  0  0  0
  139.9010   76.7860  221.4010 C   0  0  0  0  0  0  0  0  0  0  0  0
  139.2200   78.0130  221.4600 C   0  0  0  0  0  0  0  0  0  0  0  0
  139.6711   78.9079  221.0064 H   0  0  0  0  0  0  0  0  0  0  0  0
  137.9670   78.1100  222.0930 C   0  0  0  0  0  0  0  0  0  0  0  0
  137.2840   79.4350  222.1360 C   0  0  0  0  0  0  0  0  0  0  0  0
  137.9870   80.5330  222.1500 N   0  0  0  0  0  0  0  0  0  0  0  0
  138.7510   81.0820  223.2730 C   0  0  2  0  0  0  0  0  0  0  0  0
  138.7363   82.1803  223.2132 H   0  0  0  0  0  0  0  0  0  0  0  0
  140.1780   80.5870  223.1980 C   0  0  0  0  0  0  0  0  0  0  0  0
  141.1400   81.3080  222.4660 C   0  0  0  0  0  0  0  0  0  0  0  0
  140.8478   82.2247  221.9329 H   0  0  0  0  0  0  0  0  0  0  0  0
  142.4650   80.8650  222.4130 C   0  0  0  0  0  0  0  0  0  0  0  0
  143.2095   81.4303  221.8332 H   0  0  0  0  0  0  0  0  0  0  0  0
  142.8460   79.7070  223.0940 C   0  0  0  0  0  0  0  0  0  0  0  0
  143.8887   79.3598  223.0483 H   0  0  0  0  0  0  0  0  0  0  0  0
  141.9030   78.9900  223.8330 C   0  0  0  0  0  0  0  0  0  0  0  0
  142.2047   78.0791  224.3709 H   0  0  0  0  0  0  0  0  0  0  0  0
  140.5760   79.4270  223.8910 C   0  0  0  0  0  0  0  0  0  0  0  0
  139.8391   78.8621  224.4808 H   0  0  0  0  0  0  0  0  0  0  0  0
  138.1240   80.6570  224.6060 C   0  0  0  0  0  0  0  0  0  0  0  0
  138.7204   81.0613  225.4372 H   0  0  0  0  0  0  0  0  0  0  0  0
  137.0969   81.0459  224.6686 H   0  0  0  0  0  0  0  0  0  0  0  0
  138.1048   79.5589  224.6686 H   0  0  0  0  0  0  0  0  0  0  0  0
  135.8840   79.4670  222.1440 O   0  0  0  0  0  0  0  0  0  0  0  0
  135.3020   78.6580  222.3110 H   0  0  0  0  0  0  0  0  0  0  0  0
  1  2  1  0
  2  3  2  0
  3  4  1  0
  4  5  1  0
  5  6  1  0
  6  7  2  0
  7  8  1  0
  8  9  1  0
  9 10  1  0
  9 11  1  0
  9 12  1  0
  8 13  2  0
 13 14  1  0
 13 15  1  0
 15 16  1  0
 15 17  2  0
 17 18  1  0
 17 19  1  0
 19 20  1  0
 20 21  2  0
 20 22  1  0
 22 23  1  0
 23 24  1  0
 23 25  2  0
 25 26  1  0
 26 27  2  0
 27 28  1  0
 28 29  1  6
 28 30  1  0
 30 31  2  0
 31 32  1  0
 31 33  1  0
 33 34  1  0
 33 35  2  0
 35 36  1  0
 35 37  1  0
 37 38  1  0
 37 39  2  0
 39 40  1  0
 28 41  1  0
 41 42  1  0
 41 43  1  0
 41 44  1  0
 26 45  1  0
 45 46  1  0
 25  3  1  0
 39 30  1  0
 22  5  2  0
 19  7  1  0
M  CHG  1   4  -1
M  END
>  <UniqueID>  (16) 
113

>  <SMILES>  (16) 
[H]/N=c1\[n-]c2nc3c(C)cccn3c(=O)c2cc1/C(O)=N/[C@@H](C)c1ccccc1

>  <Energy>  (16) 
63.27061698251223

>  <Genealogy>  (16) 
Cc1cccn2c(=O)c3cc(C(=O)N[C@@H](C)c4ccccc4)c(=N)[n-]c3nc12 (protonated)
Cc1cccn2c(=O)c3cc(C(O)=N[C@@H](C)c4ccccc4)c(=N)[n-]c3nc12 (tautomer)
[H]/N=c1\[n-]c2nc3c(C)cccn3c(=O)c2cc1/C(O)=N/[C@@H](C)c1ccccc1 (cis-trans isomerization)
[H]/N=c1\[n-]c2nc3c(C)cccn3c(=O)c2cc1/C(O)=N/[C@@H](C)c1ccccc1 (3D coordinates assigned)
[H]/N=c1\[n-]c2nc3c(C)cccn3c(=O)c2cc1/C(O)=N/[C@@H](C)c1ccccc1 (optimized conformer: 63.27061698251223 kcal/mol)

>  <smiles>  (16) 
Cc1cccn2c(=O)c3cc(C(=O)N[C@@H](C)c4ccccc4)c(=N)[nH]c3nc12

>  <score_type>  (16) 
oracle

>  <origin>  (16) 
autodockgpu

>  <m_score__min__energy>  (16) 
-7.3600000000000003

>  <m_primary>  (16) 
energy

>  <meeko>  (16) 
{"free_energy": -6.04, "intermolecular_energy": -7.83, "internal_energy": -2.39, "cluster_size": 16, "cluster_id": 2, "rank_in_cluster": 10}

>  <energy>  (16) 
-6.03

>  <cluster_rmsd>  (16) 
0.66

>  <rmsd>  (16) 
270.93

>  <cluster>  (16) 
2

$$$$
ZIUJVUPDDLJBQX-UVVXYEKPNA-M
     RDKit          3D

 46 49  0  0  0  0  0  0  0  0999 V2000
  135.9180   77.6500  223.4950 H   0  0  0  0  0  0  0  0  0  0  0  0
  136.3990   76.7800  223.1740 N   0  0  0  0  0  0  0  0  0  0  0  0
  137.5560   76.8140  222.5930 C   0  0  0  0  0  0  0  0  0  0  0  0
  138.2820   75.6660  222.5020 N   0  0  0  0  0  0  0  0  0  0  0  0
  139.4940   75.6180  221.8940 C   0  0  0  0  0  0  0  0  0  0  0  0
  140.1710   74.4480  221.8350 N   0  0  0  0  0  0  0  0  0  0  0  0
  141.3870   74.3570  221.2340 C   0  0  0  0  0  0  0  0  0  0  0  0
  142.0500   73.1140  221.1990 C   0  0  0  0  0  0  0  0  0  0  0  0
  141.4320   71.8880  221.8170 C   0  0  0  0  0  0  0  0  0  0  0  0
  141.4731   71.9696  222.9132 H   0  0  0  0  0  0  0  0  0  0  0  0
  140.3837   71.8036  221.4947 H   0  0  0  0  0  0  0  0  0  0  0  0
  141.9877   70.9951  221.4947 H   0  0  0  0  0  0  0  0  0  0  0  0
  143.3020   73.0310  220.5810 C   0  0  0  0  0  0  0  0  0  0  0  0
  143.8351   72.0694  220.5460 H   0  0  0  0  0  0  0  0  0  0  0  0
  143.8730   74.1630  220.0110 C   0  0  0  0  0  0  0  0  0  0  0  0
  144.8568   74.1000  219.5231 H   0  0  0  0  0  0  0  0  0  0  0  0
  143.1920   75.3790  220.0610 C   0  0  0  0  0  0  0  0  0  0  0  0
  143.6461   76.2734  219.6096 H   0  0  0  0  0  0  0  0  0  0  0  0
  141.9640   75.4760  220.6650 N   0  0  0  0  0  0  0  0  0  0  0  0
  141.3020   76.6810  220.7080 C   0  0  0  0  0  0  0  0  0  0  0  0
  141.8180   77.7130  220.1910 O   0  0  0  0  0  0  0  0  0  0  0  0
  140.0440   76.7730  221.3290 C   0  0  0  0  0  0  0  0  0  0  0  0
  139.3210   77.9750  221.4060 C   0  0  0  0  0  0  0  0  0  0  0  0
  139.7394   78.8912  220.9638 H   0  0  0  0  0  0  0  0  0  0  0  0
  138.0670   78.0190  222.0430 C   0  0  0  0  0  0  0  0  0  0  0  0
  137.3380   79.3190  222.1060 C   0  0  0  0  0  0  0  0  0  0  0  0
  138.0020   80.4400  222.1420 N   0  0  0  0  0  0  0  0  0  0  0  0
  138.7340   81.0000  223.2810 C   0  0  2  0  0  0  0  0  0  0  0  0
  138.6949   82.0980  223.2268 H   0  0  0  0  0  0  0  0  0  0  0  0
  140.1730   80.5390  223.2280 C   0  0  0  0  0  0  0  0  0  0  0  0
  140.5680   79.3710  223.9060 C   0  0  0  0  0  0  0  0  0  0  0  0
  139.8305   78.8018  224.4909 H   0  0  0  0  0  0  0  0  0  0  0  0
  141.8940   78.9300  223.8400 C   0  0  0  0  0  0  0  0  0  0  0  0
  142.1965   78.0188  224.3768 H   0  0  0  0  0  0  0  0  0  0  0  0
  142.8350   79.6440  223.0940 C   0  0  0  0  0  0  0  0  0  0  0  0
  143.8778   79.2969  223.0471 H   0  0  0  0  0  0  0  0  0  0  0  0
  142.4520   80.7980  222.4080 C   0  0  0  0  0  0  0  0  0  0  0  0
  143.1931   81.3575  221.8184 H   0  0  0  0  0  0  0  0  0  0  0  0
  141.1280   81.2440  222.4690 C   0  0  0  0  0  0  0  0  0  0  0  0
  140.8305   82.1504  221.9213 H   0  0  0  0  0  0  0  0  0  0  0  0
  138.0940   80.5530  224.6010 C   0  0  0  0  0  0  0  0  0  0  0  0
  138.6728   80.9573  225.4445 H   0  0  0  0  0  0  0  0  0  0  0  0
  137.0608   80.9269  224.6526 H   0  0  0  0  0  0  0  0  0  0  0  0
  138.0893   79.4542  224.6526 H   0  0  0  0  0  0  0  0  0  0  0  0
  135.9380   79.3020  222.1090 O   0  0  0  0  0  0  0  0  0  0  0  0
  135.3830   78.4810  222.3060 H   0  0  0  0  0  0  0  0  0  0  0  0
  1  2  1  0
  2  3  2  0
  3  4  1  0
  4  5  1  0
  5  6  1  0
  6  7  2  0
  7  8  1  0
  8  9  1  0
  9 10  1  0
  9 11  1  0
  9 12  1  0
  8 13  2  0
 13 14  1  0
 13 15  1  0
 15 16  1  0
 15 17  2  0
 17 18  1  0
 17 19  1  0
 19 20  1  0
 20 21  2  0
 20 22  1  0
 22 23  1  0
 23 24  1  0
 23 25  2  0
 25 26  1  0
 26 27  2  0
 27 28  1  0
 28 29  1  6
 28 30  1  0
 30 31  2  0
 31 32  1  0
 31 33  1  0
 33 34  1  0
 33 35  2  0
 35 36  1  0
 35 37  1  0
 37 38  1  0
 37 39  2  0
 39 40  1  0
 28 41  1  0
 41 42  1  0
 41 43  1  0
 41 44  1  0
 26 45  1  0
 45 46  1  0
 25  3  1  0
 39 30  1  0
 22  5  2  0
 19  7  1  0
M  CHG  1   4  -1
M  END
>  <UniqueID>  (17) 
113

>  <SMILES>  (17) 
[H]/N=c1\[n-]c2nc3c(C)cccn3c(=O)c2cc1/C(O)=N/[C@@H](C)c1ccccc1

>  <Energy>  (17) 
63.27061698251223

>  <Genealogy>  (17) 
Cc1cccn2c(=O)c3cc(C(=O)N[C@@H](C)c4ccccc4)c(=N)[n-]c3nc12 (protonated)
Cc1cccn2c(=O)c3cc(C(O)=N[C@@H](C)c4ccccc4)c(=N)[n-]c3nc12 (tautomer)
[H]/N=c1\[n-]c2nc3c(C)cccn3c(=O)c2cc1/C(O)=N/[C@@H](C)c1ccccc1 (cis-trans isomerization)
[H]/N=c1\[n-]c2nc3c(C)cccn3c(=O)c2cc1/C(O)=N/[C@@H](C)c1ccccc1 (3D coordinates assigned)
[H]/N=c1\[n-]c2nc3c(C)cccn3c(=O)c2cc1/C(O)=N/[C@@H](C)c1ccccc1 (optimized conformer: 63.27061698251223 kcal/mol)

>  <smiles>  (17) 
Cc1cccn2c(=O)c3cc(C(=O)N[C@@H](C)c4ccccc4)c(=N)[nH]c3nc12

>  <score_type>  (17) 
oracle

>  <origin>  (17) 
autodockgpu

>  <m_score__min__energy>  (17) 
-7.3600000000000003

>  <m_primary>  (17) 
energy

>  <meeko>  (17) 
{"free_energy": -6.02, "intermolecular_energy": -7.81, "internal_energy": -2.42, "cluster_size": 16, "cluster_id": 2, "rank_in_cluster": 16}

>  <energy>  (17) 
-6.03

>  <cluster_rmsd>  (17) 
0.57

>  <rmsd>  (17) 
270.94

>  <cluster>  (17) 
2

$$$$
ZIUJVUPDDLJBQX-UVVXYEKPNA-M
     RDKit          3D

 46 49  0  0  0  0  0  0  0  0999 V2000
  135.8230   77.8090  223.6570 H   0  0  0  0  0  0  0  0  0  0  0  0
  136.2350   76.9240  223.2840 N   0  0  0  0  0  0  0  0  0  0  0  0
  137.3890   76.9040  222.6950 C   0  0  0  0  0  0  0  0  0  0  0  0
  138.0670   75.7260  222.6130 N   0  0  0  0  0  0  0  0  0  0  0  0
  139.2720   75.6210  221.9990 C   0  0  0  0  0  0  0  0  0  0  0  0
  139.8990   74.4240  221.9480 N   0  0  0  0  0  0  0  0  0  0  0  0
  141.1070   74.2760  221.3410 C   0  0  0  0  0  0  0  0  0  0  0  0
  141.7180   73.0060  221.3160 C   0  0  0  0  0  0  0  0  0  0  0  0
  141.0540   71.8150  221.9530 C   0  0  0  0  0  0  0  0  0  0  0  0
  141.1060   71.9082  223.0478 H   0  0  0  0  0  0  0  0  0  0  0  0
  140.0009   71.7705  221.6384 H   0  0  0  0  0  0  0  0  0  0  0  0
  141.5698   70.8958  221.6384 H   0  0  0  0  0  0  0  0  0  0  0  0
  142.9610   72.8650  220.6900 C   0  0  0  0  0  0  0  0  0  0  0  0
  143.4536   71.8819  220.6616 H   0  0  0  0  0  0  0  0  0  0  0  0
  143.5740   73.9660  220.1040 C   0  0  0  0  0  0  0  0  0  0  0  0
  144.5517   73.8572  219.6117 H   0  0  0  0  0  0  0  0  0  0  0  0
  142.9440   75.2090  220.1430 C   0  0  0  0  0  0  0  0  0  0  0  0
  143.4305   76.0785  219.6769 H   0  0  0  0  0  0  0  0  0  0  0  0
  141.7250   75.3630  220.7550 N   0  0  0  0  0  0  0  0  0  0  0  0
  141.1130   76.5960  220.7880 C   0  0  0  0  0  0  0  0  0  0  0  0
  141.6670   77.5990  220.2550 O   0  0  0  0  0  0  0  0  0  0  0  0
  139.8640   76.7460  221.4160 C   0  0  0  0  0  0  0  0  0  0  0  0
  139.1920   77.9770  221.4840 C   0  0  0  0  0  0  0  0  0  0  0  0
  139.6453   78.8700  221.0288 H   0  0  0  0  0  0  0  0  0  0  0  0
  137.9450   78.0810  222.1280 C   0  0  0  0  0  0  0  0  0  0  0  0
  137.2700   79.4100  222.1810 C   0  0  0  0  0  0  0  0  0  0  0  0
  137.9780   80.5040  222.1420 N   0  0  0  0  0  0  0  0  0  0  0  0
  138.7590   81.0930  223.2330 C   0  0  2  0  0  0  0  0  0  0  0  0
  138.7626   82.1873  223.1215 H   0  0  0  0  0  0  0  0  0  0  0  0
  140.1770   80.5710  223.1720 C   0  0  0  0  0  0  0  0  0  0  0  0
  141.1560   81.2620  222.4350 C   0  0  0  0  0  0  0  0  0  0  0  0
  140.8838   82.1760  221.8869 H   0  0  0  0  0  0  0  0  0  0  0  0
  142.4730   80.7940  222.3950 C   0  0  0  0  0  0  0  0  0  0  0  0
  143.2310   81.3365  221.8109 H   0  0  0  0  0  0  0  0  0  0  0  0
  142.8280   79.6380  223.0960 C   0  0  0  0  0  0  0  0  0  0  0  0
  143.8639   79.2696  223.0606 H   0  0  0  0  0  0  0  0  0  0  0  0
  141.8680   78.9510  223.8410 C   0  0  0  0  0  0  0  0  0  0  0  0
  142.1495   78.0432  224.3947 H   0  0  0  0  0  0  0  0  0  0  0  0
  140.5500   79.4140  223.8850 C   0  0  0  0  0  0  0  0  0  0  0  0
  139.7996   78.8723  224.4795 H   0  0  0  0  0  0  0  0  0  0  0  0
  138.1340   80.7440  224.5880 C   0  0  0  0  0  0  0  0  0  0  0  0
  138.7851   81.1076  225.3966 H   0  0  0  0  0  0  0  0  0  0  0  0
  137.1463   81.2211  224.6700 H   0  0  0  0  0  0  0  0  0  0  0  0
  138.0220   79.6528  224.6700 H   0  0  0  0  0  0  0  0  0  0  0  0
  135.8730   79.4490  222.2550 O   0  0  0  0  0  0  0  0  0  0  0  0
  135.2900   78.6310  222.3630 H   0  0  0  0  0  0  0  0  0  0  0  0
  1  2  1  0
  2  3  2  0
  3  4  1  0
  4  5  1  0
  5  6  1  0
  6  7  2  0
  7  8  1  0
  8  9  1  0
  9 10  1  0
  9 11  1  0
  9 12  1  0
  8 13  2  0
 13 14  1  0
 13 15  1  0
 15 16  1  0
 15 17  2  0
 17 18  1  0
 17 19  1  0
 19 20  1  0
 20 21  2  0
 20 22  1  0
 22 23  1  0
 23 24  1  0
 23 25  2  0
 25 26  1  0
 26 27  2  0
 27 28  1  0
 28 29  1  6
 28 30  1  0
 30 31  2  0
 31 32  1  0
 31 33  1  0
 33 34  1  0
 33 35  2  0
 35 36  1  0
 35 37  1  0
 37 38  1  0
 37 39  2  0
 39 40  1  0
 28 41  1  0
 41 42  1  0
 41 43  1  0
 41 44  1  0
 26 45  1  0
 45 46  1  0
 25  3  1  0
 39 30  1  0
 22  5  2  0
 19  7  1  0
M  CHG  1   4  -1
M  END
>  <UniqueID>  (18) 
113

>  <SMILES>  (18) 
[H]/N=c1\[n-]c2nc3c(C)cccn3c(=O)c2cc1/C(O)=N/[C@@H](C)c1ccccc1

>  <Energy>  (18) 
63.27061698251223

>  <Genealogy>  (18) 
Cc1cccn2c(=O)c3cc(C(=O)N[C@@H](C)c4ccccc4)c(=N)[n-]c3nc12 (protonated)
Cc1cccn2c(=O)c3cc(C(O)=N[C@@H](C)c4ccccc4)c(=N)[n-]c3nc12 (tautomer)
[H]/N=c1\[n-]c2nc3c(C)cccn3c(=O)c2cc1/C(O)=N/[C@@H](C)c1ccccc1 (cis-trans isomerization)
[H]/N=c1\[n-]c2nc3c(C)cccn3c(=O)c2cc1/C(O)=N/[C@@H](C)c1ccccc1 (3D coordinates assigned)
[H]/N=c1\[n-]c2nc3c(C)cccn3c(=O)c2cc1/C(O)=N/[C@@H](C)c1ccccc1 (optimized conformer: 63.27061698251223 kcal/mol)

>  <smiles>  (18) 
Cc1cccn2c(=O)c3cc(C(=O)N[C@@H](C)c4ccccc4)c(=N)[nH]c3nc12

>  <score_type>  (18) 
oracle

>  <origin>  (18) 
autodockgpu

>  <m_score__min__energy>  (18) 
-7.3600000000000003

>  <m_primary>  (18) 
energy

>  <meeko>  (18) 
{"free_energy": -6.04, "intermolecular_energy": -7.83, "internal_energy": -2.38, "cluster_size": 16, "cluster_id": 2, "rank_in_cluster": 8}

>  <energy>  (18) 
-6.03

>  <cluster_rmsd>  (18) 
0.66

>  <rmsd>  (18) 
270.94

>  <cluster>  (18) 
2

$$$$
ZIUJVUPDDLJBQX-UVVXYEKPNA-M
     RDKit          3D

 46 49  0  0  0  0  0  0  0  0999 V2000
  135.9240   77.6400  223.6130 H   0  0  0  0  0  0  0  0  0  0  0  0
  136.3710   76.7810  223.2210 N   0  0  0  0  0  0  0  0  0  0  0  0
  137.5290   76.8190  222.6410 C   0  0  0  0  0  0  0  0  0  0  0  0
  138.2540   75.6710  222.5410 N   0  0  0  0  0  0  0  0  0  0  0  0
  139.4660   75.6260  221.9340 C   0  0  0  0  0  0  0  0  0  0  0  0
  140.1410   74.4560  221.8640 N   0  0  0  0  0  0  0  0  0  0  0  0
  141.3580   74.3690  221.2630 C   0  0  0  0  0  0  0  0  0  0  0  0
  142.0190   73.1250  221.2180 C   0  0  0  0  0  0  0  0  0  0  0  0
  141.3990   71.8950  221.8260 C   0  0  0  0  0  0  0  0  0  0  0  0
  141.4365   71.9694  222.9228 H   0  0  0  0  0  0  0  0  0  0  0  0
  140.3517   71.8127  221.4997 H   0  0  0  0  0  0  0  0  0  0  0  0
  141.9558   71.0042  221.4997 H   0  0  0  0  0  0  0  0  0  0  0  0
  143.2710   73.0460  220.6000 C   0  0  0  0  0  0  0  0  0  0  0  0
  143.8029   72.0841  220.5570 H   0  0  0  0  0  0  0  0  0  0  0  0
  143.8440   74.1820  220.0400 C   0  0  0  0  0  0  0  0  0  0  0  0
  144.8285   74.1220  219.5530 H   0  0  0  0  0  0  0  0  0  0  0  0
  143.1640   75.3980  220.0990 C   0  0  0  0  0  0  0  0  0  0  0  0
  143.6184   76.2954  219.6539 H   0  0  0  0  0  0  0  0  0  0  0  0
  141.9370   75.4910  220.7040 N   0  0  0  0  0  0  0  0  0  0  0  0
  141.2760   76.6970  220.7570 C   0  0  0  0  0  0  0  0  0  0  0  0
  141.7930   77.7330  220.2480 O   0  0  0  0  0  0  0  0  0  0  0  0
  140.0180   76.7860  221.3780 C   0  0  0  0  0  0  0  0  0  0  0  0
  139.2960   77.9870  221.4650 C   0  0  0  0  0  0  0  0  0  0  0  0
  139.7156   78.9064  221.0306 H   0  0  0  0  0  0  0  0  0  0  0  0
  138.0410   78.0280  222.1020 C   0  0  0  0  0  0  0  0  0  0  0  0
  137.3130   79.3280  222.1750 C   0  0  0  0  0  0  0  0  0  0  0  0
  137.9770   80.4500  222.1500 N   0  0  0  0  0  0  0  0  0  0  0  0
  138.7240   81.0630  223.2510 C   0  0  2  0  0  0  0  0  0  0  0  0
  138.6955   82.1568  223.1375 H   0  0  0  0  0  0  0  0  0  0  0  0
  140.1580   80.5840  223.2120 C   0  0  0  0  0  0  0  0  0  0  0  0
  140.5390   79.4300  223.9190 C   0  0  0  0  0  0  0  0  0  0  0  0
  139.7943   78.8848  224.5175 H   0  0  0  0  0  0  0  0  0  0  0  0
  141.8590   78.9710  223.8660 C   0  0  0  0  0  0  0  0  0  0  0  0
  142.1499   78.0700  224.4259 H   0  0  0  0  0  0  0  0  0  0  0  0
  142.8090   79.6550  223.1030 C   0  0  0  0  0  0  0  0  0  0  0  0
  143.8477   79.2948  223.0660 H   0  0  0  0  0  0  0  0  0  0  0  0
  142.4400   80.7950  222.3880 C   0  0  0  0  0  0  0  0  0  0  0  0
  143.1884   81.3310  221.7858 H   0  0  0  0  0  0  0  0  0  0  0  0
  141.1210   81.2580  222.4350 C   0  0  0  0  0  0  0  0  0  0  0  0
  140.8341   82.1525  221.8627 H   0  0  0  0  0  0  0  0  0  0  0  0
  138.0910   80.6950  224.5980 C   0  0  0  0  0  0  0  0  0  0  0  0
  138.7273   81.0649  225.4154 H   0  0  0  0  0  0  0  0  0  0  0  0
  137.0943   81.1545  224.6725 H   0  0  0  0  0  0  0  0  0  0  0  0
  137.9972   79.6015  224.6725 H   0  0  0  0  0  0  0  0  0  0  0  0
  135.9160   79.3100  222.2540 O   0  0  0  0  0  0  0  0  0  0  0  0
  135.3680   78.4680  222.3620 H   0  0  0  0  0  0  0  0  0  0  0  0
  1  2  1  0
  2  3  2  0
  3  4  1  0
  4  5  1  0
  5  6  1  0
  6  7  2  0
  7  8  1  0
  8  9  1  0
  9 10  1  0
  9 11  1  0
  9 12  1  0
  8 13  2  0
 13 14  1  0
 13 15  1  0
 15 16  1  0
 15 17  2  0
 17 18  1  0
 17 19  1  0
 19 20  1  0
 20 21  2  0
 20 22  1  0
 22 23  1  0
 23 24  1  0
 23 25  2  0
 25 26  1  0
 26 27  2  0
 27 28  1  0
 28 29  1  6
 28 30  1  0
 30 31  2  0
 31 32  1  0
 31 33  1  0
 33 34  1  0
 33 35  2  0
 35 36  1  0
 35 37  1  0
 37 38  1  0
 37 39  2  0
 39 40  1  0
 28 41  1  0
 41 42  1  0
 41 43  1  0
 41 44  1  0
 26 45  1  0
 45 46  1  0
 25  3  1  0
 39 30  1  0
 22  5  2  0
 19  7  1  0
M  CHG  1   4  -1
M  END
>  <UniqueID>  (19) 
113

>  <SMILES>  (19) 
[H]/N=c1\[n-]c2nc3c(C)cccn3c(=O)c2cc1/C(O)=N/[C@@H](C)c1ccccc1

>  <Energy>  (19) 
63.27061698251223

>  <Genealogy>  (19) 
Cc1cccn2c(=O)c3cc(C(=O)N[C@@H](C)c4ccccc4)c(=N)[n-]c3nc12 (protonated)
Cc1cccn2c(=O)c3cc(C(O)=N[C@@H](C)c4ccccc4)c(=N)[n-]c3nc12 (tautomer)
[H]/N=c1\[n-]c2nc3c(C)cccn3c(=O)c2cc1/C(O)=N/[C@@H](C)c1ccccc1 (cis-trans isomerization)
[H]/N=c1\[n-]c2nc3c(C)cccn3c(=O)c2cc1/C(O)=N/[C@@H](C)c1ccccc1 (3D coordinates assigned)
[H]/N=c1\[n-]c2nc3c(C)cccn3c(=O)c2cc1/C(O)=N/[C@@H](C)c1ccccc1 (optimized conformer: 63.27061698251223 kcal/mol)

>  <smiles>  (19) 
Cc1cccn2c(=O)c3cc(C(=O)N[C@@H](C)c4ccccc4)c(=N)[nH]c3nc12

>  <score_type>  (19) 
oracle

>  <origin>  (19) 
autodockgpu

>  <m_score__min__energy>  (19) 
-7.3600000000000003

>  <m_primary>  (19) 
energy

>  <meeko>  (19) 
{"free_energy": -6.04, "intermolecular_energy": -7.83, "internal_energy": -2.42, "cluster_size": 16, "cluster_id": 2, "rank_in_cluster": 9}

>  <energy>  (19) 
-6.02

>  <cluster_rmsd>  (19) 
0.69

>  <rmsd>  (19) 
270.92

>  <cluster>  (19) 
2

$$$$
ZIUJVUPDDLJBQX-UVVXYEKPNA-M
     RDKit          3D

 46 49  0  0  0  0  0  0  0  0999 V2000
  134.4350   68.5620  226.3340 H   0  0  0  0  0  0  0  0  0  0  0  0
  133.9070   69.4110  226.6380 N   0  0  0  0  0  0  0  0  0  0  0  0
  134.1590   70.5830  226.1470 C   0  0  0  0  0  0  0  0  0  0  0  0
  133.5520   71.6720  226.6950 N   0  0  0  0  0  0  0  0  0  0  0  0
  133.7770   72.9320  226.2470 C   0  0  0  0  0  0  0  0  0  0  0  0
  133.1450   73.9760  226.8310 N   0  0  0  0  0  0  0  0  0  0  0  0
  133.3440   75.2550  226.4130 C   0  0  0  0  0  0  0  0  0  0  0  0
  132.6600   76.3070  227.0560 C   0  0  0  0  0  0  0  0  0  0  0  0
  131.7140   76.0340  228.1940 C   0  0  0  0  0  0  0  0  0  0  0  0
  132.2370   76.1849  229.1499 H   0  0  0  0  0  0  0  0  0  0  0  0
  130.8577   76.7217  228.1320 H   0  0  0  0  0  0  0  0  0  0  0  0
  131.3558   74.9958  228.1320 H   0  0  0  0  0  0  0  0  0  0  0  0
  132.8700   77.6180  226.6170 C   0  0  0  0  0  0  0  0  0  0  0  0
  132.3444   78.4517  227.1056 H   0  0  0  0  0  0  0  0  0  0  0  0
  133.7420   77.8690  225.5640 C   0  0  0  0  0  0  0  0  0  0  0  0
  133.9081   78.8996  225.2170 H   0  0  0  0  0  0  0  0  0  0  0  0
  134.4050   76.8070  224.9500 C   0  0  0  0  0  0  0  0  0  0  0  0
  135.0962   77.0078  224.1181 H   0  0  0  0  0  0  0  0  0  0  0  0
  134.2080   75.5160  225.3680 N   0  0  0  0  0  0  0  0  0  0  0  0
  134.8680   74.4760  224.7520 C   0  0  0  0  0  0  0  0  0  0  0  0
  135.6620   74.7000  223.7960 O   0  0  0  0  0  0  0  0  0  0  0  0
  134.6610   73.1550  225.1860 C   0  0  0  0  0  0  0  0  0  0  0  0
  135.3030   72.0530  224.5980 C   0  0  0  0  0  0  0  0  0  0  0  0
  136.0029   72.2125  223.7645 H   0  0  0  0  0  0  0  0  0  0  0  0
  135.0610   70.7470  225.0630 C   0  0  0  0  0  0  0  0  0  0  0  0
  135.7610   69.6060  224.4030 C   0  0  0  0  0  0  0  0  0  0  0  0
  136.9810   69.7530  223.9680 N   0  0  0  0  0  0  0  0  0  0  0  0
  138.1380   68.9080  224.2730 C   0  0  2  0  0  0  0  0  0  0  0  0
  137.7850   67.9606  224.7064 H   0  0  0  0  0  0  0  0  0  0  0  0
  139.0310   69.6200  225.2640 C   0  0  0  0  0  0  0  0  0  0  0  0
  139.2240   69.0890  226.5530 C   0  0  0  0  0  0  0  0  0  0  0  0
  138.7088   68.1622  226.8455 H   0  0  0  0  0  0  0  0  0  0  0  0
  140.0670   69.7330  227.4640 C   0  0  0  0  0  0  0  0  0  0  0  0
  140.2085   69.3146  228.4715 H   0  0  0  0  0  0  0  0  0  0  0  0
  140.7300   70.9070  227.0970 C   0  0  0  0  0  0  0  0  0  0  0  0
  141.3895   71.4137  227.8169 H   0  0  0  0  0  0  0  0  0  0  0  0
  140.5560   71.4370  225.8180 C   0  0  0  0  0  0  0  0  0  0  0  0
  141.0811   72.3596  225.5297 H   0  0  0  0  0  0  0  0  0  0  0  0
  139.7150   70.7970  224.9020 C   0  0  0  0  0  0  0  0  0  0  0  0
  139.5869   71.2153  223.8927 H   0  0  0  0  0  0  0  0  0  0  0  0
  138.9260   68.5960  222.9950 C   0  0  0  0  0  0  0  0  0  0  0  0
  139.9180   68.2032  223.2626 H   0  0  0  0  0  0  0  0  0  0  0  0
  138.3820   67.8454  222.4028 H   0  0  0  0  0  0  0  0  0  0  0  0
  139.0432   69.5156  222.4028 H   0  0  0  0  0  0  0  0  0  0  0  0
  135.0860   68.3860  224.2820 O   0  0  0  0  0  0  0  0  0  0  0  0
  134.3170   68.1050  224.8750 H   0  0  0  0  0  0  0  0  0  0  0  0
  1  2  1  0
  2  3  2  0
  3  4  1  0
  4  5  1  0
  5  6  1  0
  6  7  2  0
  7  8  1  0
  8  9  1  0
  9 10  1  0
  9 11  1  0
  9 12  1  0
  8 13  2  0
 13 14  1  0
 13 15  1  0
 15 16  1  0
 15 17  2  0
 17 18  1  0
 17 19  1  0
 19 20  1  0
 20 21  2  0
 20 22  1  0
 22 23  1  0
 23 24  1  0
 23 25  2  0
 25 26  1  0
 26 27  2  0
 27 28  1  0
 28 29  1  1
 28 30  1  0
 30 31  2  0
 31 32  1  0
 31 33  1  0
 33 34  1  0
 33 35  2  0
 35 36  1  0
 35 37  1  0
 37 38  1  0
 37 39  2  0
 39 40  1  0
 28 41  1  0
 41 42  1  0
 41 43  1  0
 41 44  1  0
 26 45  1  0
 45 46  1  0
 25  3  1  0
 39 30  1  0
 22  5  2  0
 19  7  1  0
M  CHG  1   4  -1
M  END
>  <UniqueID>  (20) 
113

>  <SMILES>  (20) 
[H]/N=c1\[n-]c2nc3c(C)cccn3c(=O)c2cc1/C(O)=N/[C@@H](C)c1ccccc1

>  <Energy>  (20) 
63.27061698251223

>  <Genealogy>  (20) 
Cc1cccn2c(=O)c3cc(C(=O)N[C@@H](C)c4ccccc4)c(=N)[n-]c3nc12 (protonated)
Cc1cccn2c(=O)c3cc(C(O)=N[C@@H](C)c4ccccc4)c(=N)[n-]c3nc12 (tautomer)
[H]/N=c1\[n-]c2nc3c(C)cccn3c(=O)c2cc1/C(O)=N/[C@@H](C)c1ccccc1 (cis-trans isomerization)
[H]/N=c1\[n-]c2nc3c(C)cccn3c(=O)c2cc1/C(O)=N/[C@@H](C)c1ccccc1 (3D coordinates assigned)
[H]/N=c1\[n-]c2nc3c(C)cccn3c(=O)c2cc1/C(O)=N/[C@@H](C)c1ccccc1 (optimized conformer: 63.27061698251223 kcal/mol)

>  <smiles>  (20) 
Cc1cccn2c(=O)c3cc(C(=O)N[C@@H](C)c4ccccc4)c(=N)[nH]c3nc12

>  <score_type>  (20) 
oracle

>  <origin>  (20) 
autodockgpu

>  <m_score__min__energy>  (20) 
-7.3600000000000003

>  <m_primary>  (20) 
energy

>  <meeko>  (20) 
{"free_energy": -7.36, "intermolecular_energy": -9.15, "internal_energy": -1.63, "cluster_size": 4, "cluster_id": 1, "rank_in_cluster": 1}

>  <energy>  (20) 
-6.02

>  <cluster_rmsd>  (20) 
0.54

>  <rmsd>  (20) 
270.94

>  <cluster>  (20) 
2

$$$$
ZIUJVUPDDLJBQX-BJEHGDLWNA-M
     RDKit          3D

 46 49  0  0  0  0  0  0  0  0999 V2000
  134.1620   68.4240  226.1080 H   0  0  0  0  0  0  0  0  0  0  0  0
  133.9400   69.2940  226.6410 N   0  0  0  0  0  0  0  0  0  0  0  0
  134.2080   70.4700  226.1670 C   0  0  0  0  0  0  0  0  0  0  0  0
  133.5850   71.5600  226.6950 N   0  0  0  0  0  0  0  0  0  0  0  0
  133.8130   72.8100  226.2240 C   0  0  0  0  0  0  0  0  0  0  0  0
  133.1660   73.8700  226.7450 N   0  0  0  0  0  0  0  0  0  0  0  0
  133.3800   75.1330  226.2880 C   0  0  0  0  0  0  0  0  0  0  0  0
  132.6740   76.1950  226.8920 C   0  0  0  0  0  0  0  0  0  0  0  0
  131.6880   75.9390  228.0010 C   0  0  0  0  0  0  0  0  0  0  0  0
  132.1872   76.0686  228.9726 H   0  0  0  0  0  0  0  0  0  0  0  0
  130.8526   76.6500  227.9203 H   0  0  0  0  0  0  0  0  0  0  0  0
  131.3040   74.9114  227.9203 H   0  0  0  0  0  0  0  0  0  0  0  0
  132.9150   77.5010  226.4660 C   0  0  0  0  0  0  0  0  0  0  0  0
  132.3684   78.3394  226.9224 H   0  0  0  0  0  0  0  0  0  0  0  0
  133.8450   77.7400  225.4660 C   0  0  0  0  0  0  0  0  0  0  0  0
  134.0482   78.7699  225.1372 H   0  0  0  0  0  0  0  0  0  0  0  0
  134.5220   76.6730  224.8780 C   0  0  0  0  0  0  0  0  0  0  0  0
  135.2650   76.8743  224.0922 H   0  0  0  0  0  0  0  0  0  0  0  0
  134.2810   75.3750  225.2590 N   0  0  0  0  0  0  0  0  0  0  0  0
  134.9400   74.3200  224.6510 C   0  0  0  0  0  0  0  0  0  0  0  0
  135.7840   74.4920  223.5450 O   0  0  0  0  0  0  0  0  0  0  0  0
  136.7290   74.1480  223.4720 H   0  0  0  0  0  0  0  0  0  0  0  0
  134.7540   73.0160  225.1250 C   0  0  0  0  0  0  0  0  0  0  0  0
  135.3930   71.8950  224.5850 C   0  0  0  0  0  0  0  0  0  0  0  0
  136.1136   72.0158  223.7628 H   0  0  0  0  0  0  0  0  0  0  0  0
  135.1150   70.6160  225.0920 C   0  0  0  0  0  0  0  0  0  0  0  0
  135.7460   69.4350  224.4660 C   0  0  0  0  0  0  0  0  0  0  0  0
  135.0580   68.3950  224.2860 O   0  0  0  0  0  0  0  0  0  0  0  0
  137.1070   69.4560  224.0130 N   0  0  0  0  0  0  0  0  0  0  0  0
  138.1540   68.5150  224.4170 C   0  0  2  0  0  0  0  0  0  0  0  0
  137.6851   67.6645  224.9334 H   0  0  0  0  0  0  0  0  0  0  0  0
  139.1250   69.1640  225.3820 C   0  0  0  0  0  0  0  0  0  0  0  0
  139.5660   70.4820  225.1580 C   0  0  0  0  0  0  0  0  0  0  0  0
  139.1766   71.0511  224.3010 H   0  0  0  0  0  0  0  0  0  0  0  0
  140.4960   71.0710  226.0190 C   0  0  0  0  0  0  0  0  0  0  0  0
  140.8429   72.0982  225.8330 H   0  0  0  0  0  0  0  0  0  0  0  0
  140.9860   70.3570  227.1160 C   0  0  0  0  0  0  0  0  0  0  0  0
  141.7204   70.8212  227.7907 H   0  0  0  0  0  0  0  0  0  0  0  0
  140.5430   69.0530  227.3560 C   0  0  0  0  0  0  0  0  0  0  0  0
  140.9247   68.4943  228.2233 H   0  0  0  0  0  0  0  0  0  0  0  0
  139.6160   68.4580  226.4960 C   0  0  0  0  0  0  0  0  0  0  0  0
  139.2684   67.4327  226.6908 H   0  0  0  0  0  0  0  0  0  0  0  0
  138.8920   68.0120  223.1770 C   0  0  0  0  0  0  0  0  0  0  0  0
  139.7645   67.4174  223.4856 H   0  0  0  0  0  0  0  0  0  0  0  0
  138.2155   67.3861  222.5764 H   0  0  0  0  0  0  0  0  0  0  0  0
  139.2272   68.8704  222.5764 H   0  0  0  0  0  0  0  0  0  0  0  0
  1  2  1  0
  2  3  2  0
  3  4  1  0
  4  5  2  0
  5  6  1  0
  6  7  2  0
  7  8  1  0
  8  9  1  0
  9 10  1  0
  9 11  1  0
  9 12  1  0
  8 13  2  0
 13 14  1  0
 13 15  1  0
 15 16  1  0
 15 17  2  0
 17 18  1  0
 17 19  1  0
 19 20  1  0
 20 21  1  0
 21 22  1  0
 20 23  2  0
 23 24  1  0
 24 25  1  0
 24 26  2  0
 26 27  1  0
 27 28  2  0
 27 29  1  0
 29 30  1  0
 30 31  1  1
 30 32  1  0
 32 33  2  0
 33 34  1  0
 33 35  1  0
 35 36  1  0
 35 37  2  0
 37 38  1  0
 37 39  1  0
 39 40  1  0
 39 41  2  0
 41 42  1  0
 30 43  1  0
 43 44  1  0
 43 45  1  0
 43 46  1  0
 26  3  1  0
 41 32  1  0
 23  5  1  0
 19  7  1  0
M  CHG  1  29  -1
M  END
>  <UniqueID>  (21) 
114

>  <SMILES>  (21) 
[H]/N=c1\nc2nc3c(C)cccn3c(O)c-2cc1C(=O)[N-][C@@H](C)c1ccccc1

>  <Energy>  (21) 
63.00471694634258

>  <Genealogy>  (21) 
Cc1cccn2c(=O)c3cc(C(=O)[N-][C@@H](C)c4ccccc4)c(=N)[nH]c3nc12 (protonated)
Cc1cccn2c(O)c3cc(C(=O)[N-][C@@H](C)c4ccccc4)c(=N)nc-3nc12 (tautomer)
[H]/N=c1\nc2nc3c(C)cccn3c(O)c-2cc1C(=O)[N-][C@@H](C)c1ccccc1 (cis-trans isomerization)
[H]/N=c1\nc2nc3c(C)cccn3c(O)c-2cc1C(=O)[N-][C@@H](C)c1ccccc1 (3D coordinates assigned)
[H]/N=c1\nc2nc3c(C)cccn3c(O)c-2cc1C(=O)[N-][C@@H](C)c1ccccc1 (optimized conformer: 63.00471694634258 kcal/mol)

>  <smiles>  (21) 
Cc1cccn2c(=O)c3cc(C(=O)N[C@@H](C)c4ccccc4)c(=N)[nH]c3nc12

>  <score_type>  (21) 
oracle

>  <origin>  (21) 
autodockgpu

>  <m_score__min__energy>  (21) 
-7.8600000000000003

>  <m_primary>  (21) 
energy

>  <meeko>  (21) 
{"free_energy": -7.71, "intermolecular_energy": -9.5, "internal_energy": -1.0, "cluster_size": 7, "cluster_id": 1, "rank_in_cluster": 6}

>  <energy>  (21) 
-7.86

>  <cluster_rmsd>  (21) 
0.0

>  <rmsd>  (21) 
270.15

>  <cluster>  (21) 
1

$$$$
ZIUJVUPDDLJBQX-BJEHGDLWNA-M
     RDKit          3D

 46 49  0  0  0  0  0  0  0  0999 V2000
  136.0510   76.9770  223.3120 H   0  0  0  0  0  0  0  0  0  0  0  0
  136.7300   76.1930  223.1940 N   0  0  0  0  0  0  0  0  0  0  0  0
  137.8610   76.3570  222.5820 C   0  0  0  0  0  0  0  0  0  0  0  0
  138.6560   75.2760  222.3490 N   0  0  0  0  0  0  0  0  0  0  0  0
  139.8560   75.3940  221.7320 C   0  0  0  0  0  0  0  0  0  0  0  0
  140.6370   74.3140  221.5350 N   0  0  0  0  0  0  0  0  0  0  0  0
  141.8450   74.4090  220.9170 C   0  0  0  0  0  0  0  0  0  0  0  0
  142.6010   73.2320  220.7350 C   0  0  0  0  0  0  0  0  0  0  0  0
  142.0980   71.9030  221.2320 C   0  0  0  0  0  0  0  0  0  0  0  0
  142.0967   71.8995  222.3320 H   0  0  0  0  0  0  0  0  0  0  0  0
  141.0749   71.7371  220.8636 H   0  0  0  0  0  0  0  0  0  0  0  0
  142.7549   71.1013  220.8636 H   0  0  0  0  0  0  0  0  0  0  0  0
  143.8210   73.3050  220.0630 C   0  0  0  0  0  0  0  0  0  0  0  0
  144.4250   72.3973  219.9173 H   0  0  0  0  0  0  0  0  0  0  0  0
  144.2710   74.5240  219.5790 C   0  0  0  0  0  0  0  0  0  0  0  0
  145.2265   74.5828  219.0372 H   0  0  0  0  0  0  0  0  0  0  0  0
  143.5110   75.6740  219.7800 C   0  0  0  0  0  0  0  0  0  0  0  0
  143.8721   76.6343  219.3831 H   0  0  0  0  0  0  0  0  0  0  0  0
  142.3190   75.6340  220.4640 N   0  0  0  0  0  0  0  0  0  0  0  0
  141.5830   76.7860  220.6820 C   0  0  0  0  0  0  0  0  0  0  0  0
  142.0550   78.0610  220.3370 O   0  0  0  0  0  0  0  0  0  0  0  0
  142.9470   78.4470  220.6080 H   0  0  0  0  0  0  0  0  0  0  0  0
  140.3250   76.7060  221.2910 C   0  0  0  0  0  0  0  0  0  0  0  0
  139.5060   77.8140  221.5310 C   0  0  0  0  0  0  0  0  0  0  0  0
  139.8252   78.8146  221.2039 H   0  0  0  0  0  0  0  0  0  0  0  0
  138.2770   77.6500  222.1890 C   0  0  0  0  0  0  0  0  0  0  0  0
  137.4550   78.8380  222.4970 C   0  0  0  0  0  0  0  0  0  0  0  0
  136.3280   78.6820  223.0360 O   0  0  0  0  0  0  0  0  0  0  0  0
  137.9260   80.1700  222.2430 N   0  0  0  0  0  0  0  0  0  0  0  0
  138.7080   80.9880  223.1730 C   0  0  2  0  0  0  0  0  0  0  0  0
  138.6633   82.0373  222.8458 H   0  0  0  0  0  0  0  0  0  0  0  0
  140.1630   80.5650  223.1760 C   0  0  0  0  0  0  0  0  0  0  0  0
  141.1020   81.2660  222.3970 C   0  0  0  0  0  0  0  0  0  0  0  0
  140.7836   82.1432  221.8147 H   0  0  0  0  0  0  0  0  0  0  0  0
  142.4370   80.8540  222.3590 C   0  0  0  0  0  0  0  0  0  0  0  0
  143.1635   81.4019  221.7410 H   0  0  0  0  0  0  0  0  0  0  0  0
  142.8500   79.7470  223.1050 C   0  0  0  0  0  0  0  0  0  0  0  0
  143.9006   79.4227  223.0718 H   0  0  0  0  0  0  0  0  0  0  0  0
  141.9280   79.0510  223.8940 C   0  0  0  0  0  0  0  0  0  0  0  0
  142.2552   78.1828  224.4849 H   0  0  0  0  0  0  0  0  0  0  0  0
  140.5910   79.4580  223.9320 C   0  0  0  0  0  0  0  0  0  0  0  0
  139.8698   78.9100  224.5562 H   0  0  0  0  0  0  0  0  0  0  0  0
  138.1160   80.8680  224.5770 C   0  0  0  0  0  0  0  0  0  0  0  0
  138.9077   81.0285  225.3237 H   0  0  0  0  0  0  0  0  0  0  0  0
  137.3287   81.6248  224.7089 H   0  0  0  0  0  0  0  0  0  0  0  0
  137.6856   79.8643  224.7089 H   0  0  0  0  0  0  0  0  0  0  0  0
  1  2  1  0
  2  3  2  0
  3  4  1  0
  4  5  2  0
  5  6  1  0
  6  7  2  0
  7  8  1  0
  8  9  1  0
  9 10  1  0
  9 11  1  0
  9 12  1  0
  8 13  2  0
 13 14  1  0
 13 15  1  0
 15 16  1  0
 15 17  2  0
 17 18  1  0
 17 19  1  0
 19 20  1  0
 20 21  1  0
 21 22  1  0
 20 23  2  0
 23 24  1  0
 24 25  1  0
 24 26  2  0
 26 27  1  0
 27 28  2  0
 27 29  1  0
 29 30  1  0
 30 31  1  6
 30 32  1  0
 32 33  2  0
 33 34  1  0
 33 35  1  0
 35 36  1  0
 35 37  2  0
 37 38  1  0
 37 39  1  0
 39 40  1  0
 39 41  2  0
 41 42  1  0
 30 43  1  0
 43 44  1  0
 43 45  1  0
 43 46  1  0
 26  3  1  0
 41 32  1  0
 23  5  1  0
 19  7  1  0
M  CHG  1  29  -1
M  END
>  <UniqueID>  (22) 
114

>  <SMILES>  (22) 
[H]/N=c1\nc2nc3c(C)cccn3c(O)c-2cc1C(=O)[N-][C@@H](C)c1ccccc1

>  <Energy>  (22) 
63.00471694634258

>  <Genealogy>  (22) 
Cc1cccn2c(=O)c3cc(C(=O)[N-][C@@H](C)c4ccccc4)c(=N)[nH]c3nc12 (protonated)
Cc1cccn2c(O)c3cc(C(=O)[N-][C@@H](C)c4ccccc4)c(=N)nc-3nc12 (tautomer)
[H]/N=c1\nc2nc3c(C)cccn3c(O)c-2cc1C(=O)[N-][C@@H](C)c1ccccc1 (cis-trans isomerization)
[H]/N=c1\nc2nc3c(C)cccn3c(O)c-2cc1C(=O)[N-][C@@H](C)c1ccccc1 (3D coordinates assigned)
[H]/N=c1\nc2nc3c(C)cccn3c(O)c-2cc1C(=O)[N-][C@@H](C)c1ccccc1 (optimized conformer: 63.00471694634258 kcal/mol)

>  <smiles>  (22) 
Cc1cccn2c(=O)c3cc(C(=O)N[C@@H](C)c4ccccc4)c(=N)[nH]c3nc12

>  <score_type>  (22) 
oracle

>  <origin>  (22) 
autodockgpu

>  <m_score__min__energy>  (22) 
-7.8600000000000003

>  <m_primary>  (22) 
energy

>  <meeko>  (22) 
{"free_energy": -6.56, "intermolecular_energy": -8.35, "internal_energy": -1.55, "cluster_size": 12, "cluster_id": 3, "rank_in_cluster": 6}

>  <energy>  (22) 
-7.74

>  <cluster_rmsd>  (22) 
0.49

>  <rmsd>  (22) 
270.14

>  <cluster>  (22) 
1

$$$$
ZIUJVUPDDLJBQX-BJEHGDLWNA-M
     RDKit          3D

 46 49  0  0  0  0  0  0  0  0999 V2000
  136.7280   79.0770  222.7270 H   0  0  0  0  0  0  0  0  0  0  0  0
  136.9210   78.0630  222.5710 N   0  0  0  0  0  0  0  0  0  0  0  0
  138.0390   77.6530  222.0590 C   0  0  0  0  0  0  0  0  0  0  0  0
  138.4230   76.3590  222.2450 N   0  0  0  0  0  0  0  0  0  0  0  0
  139.5910   75.8840  221.7490 C   0  0  0  0  0  0  0  0  0  0  0  0
  139.9620   74.6080  221.9680 N   0  0  0  0  0  0  0  0  0  0  0  0
  141.1290   74.1090  221.4790 C   0  0  0  0  0  0  0  0  0  0  0  0
  141.4450   72.7590  221.7390 C   0  0  0  0  0  0  0  0  0  0  0  0
  140.5260   71.8920  222.5580 C   0  0  0  0  0  0  0  0  0  0  0  0
  140.7125   72.0680  223.6277 H   0  0  0  0  0  0  0  0  0  0  0  0
  139.4807   72.1406  222.3223 H   0  0  0  0  0  0  0  0  0  0  0  0
  140.7134   70.8340  222.3223 H   0  0  0  0  0  0  0  0  0  0  0  0
  142.6160   72.2200  221.2070 C   0  0  0  0  0  0  0  0  0  0  0  0
  142.8792   71.1704  221.4049 H   0  0  0  0  0  0  0  0  0  0  0  0
  143.4480   73.0100  220.4280 C   0  0  0  0  0  0  0  0  0  0  0  0
  144.3657   72.5847  219.9957 H   0  0  0  0  0  0  0  0  0  0  0  0
  143.1190   74.3440  220.1940 C   0  0  0  0  0  0  0  0  0  0  0  0
  143.7802   74.9594  219.5662 H   0  0  0  0  0  0  0  0  0  0  0  0
  141.9860   74.9070  220.7310 N   0  0  0  0  0  0  0  0  0  0  0  0
  141.6820   76.2390  220.5140 C   0  0  0  0  0  0  0  0  0  0  0  0
  142.5530   77.1170  219.8530 O   0  0  0  0  0  0  0  0  0  0  0  0
  143.3610   77.5590  220.2660 H   0  0  0  0  0  0  0  0  0  0  0  0
  140.4720   76.7650  220.9850 C   0  0  0  0  0  0  0  0  0  0  0  0
  140.0750   78.0920  220.7950 C   0  0  0  0  0  0  0  0  0  0  0  0
  140.7115   78.7790  220.2180 H   0  0  0  0  0  0  0  0  0  0  0  0
  138.8650   78.5480  221.3400 C   0  0  0  0  0  0  0  0  0  0  0  0
  138.4910   79.9700  221.1900 C   0  0  0  0  0  0  0  0  0  0  0  0
  138.5720   80.5090  220.0550 O   0  0  0  0  0  0  0  0  0  0  0  0
  137.9920   80.7400  222.2930 N   0  0  0  0  0  0  0  0  0  0  0  0
  138.7650   81.1410  223.4710 C   0  0  2  0  0  0  0  0  0  0  0  0
  138.8134   82.2393  223.5079 H   0  0  0  0  0  0  0  0  0  0  0  0
  140.1840   80.6180  223.3910 C   0  0  0  0  0  0  0  0  0  0  0  0
  141.1760   81.3690  222.7330 C   0  0  0  0  0  0  0  0  0  0  0  0
  140.9263   82.3524  222.3080 H   0  0  0  0  0  0  0  0  0  0  0  0
  142.4770   80.8710  222.6170 C   0  0  0  0  0  0  0  0  0  0  0  0
  143.2451   81.4594  222.0937 H   0  0  0  0  0  0  0  0  0  0  0  0
  142.8040   79.6280  223.1640 C   0  0  0  0  0  0  0  0  0  0  0  0
  143.8280   79.2377  223.0691 H   0  0  0  0  0  0  0  0  0  0  0  0
  141.8300   78.8800  223.8320 C   0  0  0  0  0  0  0  0  0  0  0  0
  142.0899   77.9037  224.2670 H   0  0  0  0  0  0  0  0  0  0  0  0
  140.5260   79.3710  223.9480 C   0  0  0  0  0  0  0  0  0  0  0  0
  139.7637   78.7802  224.4770 H   0  0  0  0  0  0  0  0  0  0  0  0
  138.0750   80.6210  224.7310 C   0  0  0  0  0  0  0  0  0  0  0  0
  138.5925   81.0110  225.6199 H   0  0  0  0  0  0  0  0  0  0  0  0
  137.0273   80.9561  224.7402 H   0  0  0  0  0  0  0  0  0  0  0  0
  138.1084   79.5215  224.7402 H   0  0  0  0  0  0  0  0  0  0  0  0
  1  2  1  0
  2  3  2  0
  3  4  1  0
  4  5  2  0
  5  6  1  0
  6  7  2  0
  7  8  1  0
  8  9  1  0
  9 10  1  0
  9 11  1  0
  9 12  1  0
  8 13  2  0
 13 14  1  0
 13 15  1  0
 15 16  1  0
 15 17  2  0
 17 18  1  0
 17 19  1  0
 19 20  1  0
 20 21  1  0
 21 22  1  0
 20 23  2  0
 23 24  1  0
 24 25  1  0
 24 26  2  0
 26 27  1  0
 27 28  2  0
 27 29  1  0
 29 30  1  0
 30 31  1  1
 30 32  1  0
 32 33  2  0
 33 34  1  0
 33 35  1  0
 35 36  1  0
 35 37  2  0
 37 38  1  0
 37 39  1  0
 39 40  1  0
 39 41  2  0
 41 42  1  0
 30 43  1  0
 43 44  1  0
 43 45  1  0
 43 46  1  0
 26  3  1  0
 41 32  1  0
 23  5  1  0
 19  7  1  0
M  CHG  1  29  -1
M  END
>  <UniqueID>  (23) 
114

>  <SMILES>  (23) 
[H]/N=c1\nc2nc3c(C)cccn3c(O)c-2cc1C(=O)[N-][C@@H](C)c1ccccc1

>  <Energy>  (23) 
63.00471694634258

>  <Genealogy>  (23) 
Cc1cccn2c(=O)c3cc(C(=O)[N-][C@@H](C)c4ccccc4)c(=N)[nH]c3nc12 (protonated)
Cc1cccn2c(O)c3cc(C(=O)[N-][C@@H](C)c4ccccc4)c(=N)nc-3nc12 (tautomer)
[H]/N=c1\nc2nc3c(C)cccn3c(O)c-2cc1C(=O)[N-][C@@H](C)c1ccccc1 (cis-trans isomerization)
[H]/N=c1\nc2nc3c(C)cccn3c(O)c-2cc1C(=O)[N-][C@@H](C)c1ccccc1 (3D coordinates assigned)
[H]/N=c1\nc2nc3c(C)cccn3c(O)c-2cc1C(=O)[N-][C@@H](C)c1ccccc1 (optimized conformer: 63.00471694634258 kcal/mol)

>  <smiles>  (23) 
Cc1cccn2c(=O)c3cc(C(=O)N[C@@H](C)c4ccccc4)c(=N)[nH]c3nc12

>  <score_type>  (23) 
oracle

>  <origin>  (23) 
autodockgpu

>  <m_score__min__energy>  (23) 
-7.8600000000000003

>  <m_primary>  (23) 
energy

>  <meeko>  (23) 
{"free_energy": -6.31, "intermolecular_energy": -8.1, "internal_energy": -1.83, "cluster_size": 12, "cluster_id": 3, "rank_in_cluster": 12}

>  <energy>  (23) 
-7.73

>  <cluster_rmsd>  (23) 
0.5

>  <rmsd>  (23) 
270.19

>  <cluster>  (23) 
1

$$$$
ZIUJVUPDDLJBQX-BJEHGDLWNA-M
     RDKit          3D

 46 49  0  0  0  0  0  0  0  0999 V2000
  134.2120   68.4490  226.1350 H   0  0  0  0  0  0  0  0  0  0  0  0
  133.9840   69.3220  226.6620 N   0  0  0  0  0  0  0  0  0  0  0  0
  134.2510   70.4960  226.1820 C   0  0  0  0  0  0  0  0  0  0  0  0
  133.6210   71.5860  226.6990 N   0  0  0  0  0  0  0  0  0  0  0  0
  133.8480   72.8340  226.2220 C   0  0  0  0  0  0  0  0  0  0  0  0
  133.1930   73.8950  226.7330 N   0  0  0  0  0  0  0  0  0  0  0  0
  133.4060   75.1560  226.2690 C   0  0  0  0  0  0  0  0  0  0  0  0
  132.6930   76.2190  226.8620 C   0  0  0  0  0  0  0  0  0  0  0  0
  131.7010   75.9670  227.9660 C   0  0  0  0  0  0  0  0  0  0  0  0
  132.1965   76.0929  228.9400 H   0  0  0  0  0  0  0  0  0  0  0  0
  130.8697   76.6825  227.8824 H   0  0  0  0  0  0  0  0  0  0  0  0
  131.3120   74.9415  227.8824 H   0  0  0  0  0  0  0  0  0  0  0  0
  132.9320   77.5230  226.4290 C   0  0  0  0  0  0  0  0  0  0  0  0
  132.3800   78.3622  226.8774 H   0  0  0  0  0  0  0  0  0  0  0  0
  133.8660   77.7600  225.4330 C   0  0  0  0  0  0  0  0  0  0  0  0
  134.0665   78.7887  225.0991 H   0  0  0  0  0  0  0  0  0  0  0  0
  134.5510   76.6920  224.8550 C   0  0  0  0  0  0  0  0  0  0  0  0
  135.2976   76.8910  224.0721 H   0  0  0  0  0  0  0  0  0  0  0  0
  134.3120   75.3950  225.2440 N   0  0  0  0  0  0  0  0  0  0  0  0
  134.9780   74.3390  224.6460 C   0  0  0  0  0  0  0  0  0  0  0  0
  135.8280   74.5060  223.5430 O   0  0  0  0  0  0  0  0  0  0  0  0
  136.7680   74.1480  223.4710 H   0  0  0  0  0  0  0  0  0  0  0  0
  134.7950   73.0370  225.1270 C   0  0  0  0  0  0  0  0  0  0  0  0
  135.4400   71.9140  224.5980 C   0  0  0  0  0  0  0  0  0  0  0  0
  136.1645   72.0318  223.7787 H   0  0  0  0  0  0  0  0  0  0  0  0
  135.1640   70.6380  225.1110 C   0  0  0  0  0  0  0  0  0  0  0  0
  135.8030   69.4550  224.4970 C   0  0  0  0  0  0  0  0  0  0  0  0
  135.0940   68.4550  224.2080 O   0  0  0  0  0  0  0  0  0  0  0  0
  137.2010   69.4330  224.1750 N   0  0  0  0  0  0  0  0  0  0  0  0
  138.2270   68.6670  224.8860 C   0  0  2  0  0  0  0  0  0  0  0  0
  137.7331   67.9774  225.5864 H   0  0  0  0  0  0  0  0  0  0  0  0
  139.1250   69.5830  225.6930 C   0  0  0  0  0  0  0  0  0  0  0  0
  139.2590   69.3950  227.0810 C   0  0  0  0  0  0  0  0  0  0  0  0
  138.7387   68.5599  227.5729 H   0  0  0  0  0  0  0  0  0  0  0  0
  140.0500   70.2640  227.8380 C   0  0  0  0  0  0  0  0  0  0  0  0
  140.1430   70.1166  228.9241 H   0  0  0  0  0  0  0  0  0  0  0  0
  140.7230   71.3200  227.2170 C   0  0  0  0  0  0  0  0  0  0  0  0
  141.3432   72.0041  227.8148 H   0  0  0  0  0  0  0  0  0  0  0  0
  140.6080   71.5070  225.8360 C   0  0  0  0  0  0  0  0  0  0  0  0
  141.1419   72.3355  225.3475 H   0  0  0  0  0  0  0  0  0  0  0  0
  139.8150   70.6420  225.0750 C   0  0  0  0  0  0  0  0  0  0  0  0
  139.7304   70.7903  223.9883 H   0  0  0  0  0  0  0  0  0  0  0  0
  139.0500   67.8640  223.8810 C   0  0  0  0  0  0  0  0  0  0  0  0
  139.7361   67.1946  224.4206 H   0  0  0  0  0  0  0  0  0  0  0  0
  138.3761   67.2667  223.2493 H   0  0  0  0  0  0  0  0  0  0  0  0
  139.6306   68.5524  223.2493 H   0  0  0  0  0  0  0  0  0  0  0  0
  1  2  1  0
  2  3  2  0
  3  4  1  0
  4  5  2  0
  5  6  1  0
  6  7  2  0
  7  8  1  0
  8  9  1  0
  9 10  1  0
  9 11  1  0
  9 12  1  0
  8 13  2  0
 13 14  1  0
 13 15  1  0
 15 16  1  0
 15 17  2  0
 17 18  1  0
 17 19  1  0
 19 20  1  0
 20 21  1  0
 21 22  1  0
 20 23  2  0
 23 24  1  0
 24 25  1  0
 24 26  2  0
 26 27  1  0
 27 28  2  0
 27 29  1  0
 29 30  1  0
 30 31  1  1
 30 32  1  0
 32 33  2  0
 33 34  1  0
 33 35  1  0
 35 36  1  0
 35 37  2  0
 37 38  1  0
 37 39  1  0
 39 40  1  0
 39 41  2  0
 41 42  1  0
 30 43  1  0
 43 44  1  0
 43 45  1  0
 43 46  1  0
 26  3  1  0
 41 32  1  0
 23  5  1  0
 19  7  1  0
M  CHG  1  29  -1
M  END
>  <UniqueID>  (24) 
114

>  <SMILES>  (24) 
[H]/N=c1\nc2nc3c(C)cccn3c(O)c-2cc1C(=O)[N-][C@@H](C)c1ccccc1

>  <Energy>  (24) 
63.00471694634258

>  <Genealogy>  (24) 
Cc1cccn2c(=O)c3cc(C(=O)[N-][C@@H](C)c4ccccc4)c(=N)[nH]c3nc12 (protonated)
Cc1cccn2c(O)c3cc(C(=O)[N-][C@@H](C)c4ccccc4)c(=N)nc-3nc12 (tautomer)
[H]/N=c1\nc2nc3c(C)cccn3c(O)c-2cc1C(=O)[N-][C@@H](C)c1ccccc1 (cis-trans isomerization)
[H]/N=c1\nc2nc3c(C)cccn3c(O)c-2cc1C(=O)[N-][C@@H](C)c1ccccc1 (3D coordinates assigned)
[H]/N=c1\nc2nc3c(C)cccn3c(O)c-2cc1C(=O)[N-][C@@H](C)c1ccccc1 (optimized conformer: 63.00471694634258 kcal/mol)

>  <smiles>  (24) 
Cc1cccn2c(=O)c3cc(C(=O)N[C@@H](C)c4ccccc4)c(=N)[nH]c3nc12

>  <score_type>  (24) 
oracle

>  <origin>  (24) 
autodockgpu

>  <m_score__min__energy>  (24) 
-7.8600000000000003

>  <m_primary>  (24) 
energy

>  <meeko>  (24) 
{"free_energy": -7.74, "intermolecular_energy": -9.53, "internal_energy": -1.05, "cluster_size": 7, "cluster_id": 1, "rank_in_cluster": 2}

>  <energy>  (24) 
-7.73

>  <cluster_rmsd>  (24) 
0.5

>  <rmsd>  (24) 
270.2

>  <cluster>  (24) 
1

$$$$
ZIUJVUPDDLJBQX-BJEHGDLWNA-M
     RDKit          3D

 46 49  0  0  0  0  0  0  0  0999 V2000
  136.0910   76.9600  223.5410 H   0  0  0  0  0  0  0  0  0  0  0  0
  136.6920   76.1530  223.2600 N   0  0  0  0  0  0  0  0  0  0  0  0
  137.8180   76.3260  222.6410 C   0  0  0  0  0  0  0  0  0  0  0  0
  138.6130   75.2480  222.3920 N   0  0  0  0  0  0  0  0  0  0  0  0
  139.8090   75.3750  221.7680 C   0  0  0  0  0  0  0  0  0  0  0  0
  140.5910   74.2980  221.5550 N   0  0  0  0  0  0  0  0  0  0  0  0
  141.7940   74.4020  220.9290 C   0  0  0  0  0  0  0  0  0  0  0  0
  142.5510   73.2280  220.7300 C   0  0  0  0  0  0  0  0  0  0  0  0
  142.0550   71.8930  221.2180 C   0  0  0  0  0  0  0  0  0  0  0  0
  142.0513   71.8830  222.3180 H   0  0  0  0  0  0  0  0  0  0  0  0
  141.0337   71.7231  220.8463 H   0  0  0  0  0  0  0  0  0  0  0  0
  142.7176   71.0975  220.8463 H   0  0  0  0  0  0  0  0  0  0  0  0
  143.7670   73.3100  220.0510 C   0  0  0  0  0  0  0  0  0  0  0  0
  144.3728   72.4054  219.8936 H   0  0  0  0  0  0  0  0  0  0  0  0
  144.2100   74.5350  219.5750 C   0  0  0  0  0  0  0  0  0  0  0  0
  145.1613   74.6014  219.0267 H   0  0  0  0  0  0  0  0  0  0  0  0
  143.4490   75.6810  219.7920 C   0  0  0  0  0  0  0  0  0  0  0  0
  143.8048   76.6456  219.4009 H   0  0  0  0  0  0  0  0  0  0  0  0
  142.2620   75.6320  220.4850 N   0  0  0  0  0  0  0  0  0  0  0  0
  141.5260   76.7800  220.7180 C   0  0  0  0  0  0  0  0  0  0  0  0
  141.9920   78.0600  220.3830 O   0  0  0  0  0  0  0  0  0  0  0  0
  142.9180   78.4130  220.5730 H   0  0  0  0  0  0  0  0  0  0  0  0
  140.2730   76.6920  221.3360 C   0  0  0  0  0  0  0  0  0  0  0  0
  139.4530   77.7960  221.5930 C   0  0  0  0  0  0  0  0  0  0  0  0
  139.7681   78.8006  221.2743 H   0  0  0  0  0  0  0  0  0  0  0  0
  138.2290   77.6230  222.2570 C   0  0  0  0  0  0  0  0  0  0  0  0
  137.4060   78.8070  222.5820 C   0  0  0  0  0  0  0  0  0  0  0  0
  136.2970   78.6450  223.1560 O   0  0  0  0  0  0  0  0  0  0  0  0
  137.8590   80.1400  222.3060 N   0  0  0  0  0  0  0  0  0  0  0  0
  138.6520   80.9750  223.2110 C   0  0  2  0  0  0  0  0  0  0  0  0
  138.5977   82.0193  222.8697 H   0  0  0  0  0  0  0  0  0  0  0  0
  140.1090   80.5580  223.1960 C   0  0  0  0  0  0  0  0  0  0  0  0
  141.0380   81.2720  222.4170 C   0  0  0  0  0  0  0  0  0  0  0  0
  140.7113   82.1547  221.8478 H   0  0  0  0  0  0  0  0  0  0  0  0
  142.3740   80.8650  222.3630 C   0  0  0  0  0  0  0  0  0  0  0  0
  143.0930   81.4222  221.7445 H   0  0  0  0  0  0  0  0  0  0  0  0
  142.7980   79.7520  223.0930 C   0  0  0  0  0  0  0  0  0  0  0  0
  143.8496   79.4324  223.0472 H   0  0  0  0  0  0  0  0  0  0  0  0
  141.8860   79.0440  223.8820 C   0  0  0  0  0  0  0  0  0  0  0  0
  142.2218   78.1708  224.4606 H   0  0  0  0  0  0  0  0  0  0  0  0
  140.5480   79.4450  223.9360 C   0  0  0  0  0  0  0  0  0  0  0  0
  139.8345   78.8873  224.5605 H   0  0  0  0  0  0  0  0  0  0  0  0
  138.0830   80.8740  224.6250 C   0  0  0  0  0  0  0  0  0  0  0  0
  138.8916   81.0175  225.3568 H   0  0  0  0  0  0  0  0  0  0  0  0
  137.3168   81.6502  224.7682 H   0  0  0  0  0  0  0  0  0  0  0  0
  137.6308   79.8815  224.7682 H   0  0  0  0  0  0  0  0  0  0  0  0
  1  2  1  0
  2  3  2  0
  3  4  1  0
  4  5  2  0
  5  6  1  0
  6  7  2  0
  7  8  1  0
  8  9  1  0
  9 10  1  0
  9 11  1  0
  9 12  1  0
  8 13  2  0
 13 14  1  0
 13 15  1  0
 15 16  1  0
 15 17  2  0
 17 18  1  0
 17 19  1  0
 19 20  1  0
 20 21  1  0
 21 22  1  0
 20 23  2  0
 23 24  1  0
 24 25  1  0
 24 26  2  0
 26 27  1  0
 27 28  2  0
 27 29  1  0
 29 30  1  0
 30 31  1  6
 30 32  1  0
 32 33  2  0
 33 34  1  0
 33 35  1  0
 35 36  1  0
 35 37  2  0
 37 38  1  0
 37 39  1  0
 39 40  1  0
 39 41  2  0
 41 42  1  0
 30 43  1  0
 43 44  1  0
 43 45  1  0
 43 46  1  0
 26  3  1  0
 41 32  1  0
 23  5  1  0
 19  7  1  0
M  CHG  1  29  -1
M  END
>  <UniqueID>  (25) 
114

>  <SMILES>  (25) 
[H]/N=c1\nc2nc3c(C)cccn3c(O)c-2cc1C(=O)[N-][C@@H](C)c1ccccc1

>  <Energy>  (25) 
63.00471694634258

>  <Genealogy>  (25) 
Cc1cccn2c(=O)c3cc(C(=O)[N-][C@@H](C)c4ccccc4)c(=N)[nH]c3nc12 (protonated)
Cc1cccn2c(O)c3cc(C(=O)[N-][C@@H](C)c4ccccc4)c(=N)nc-3nc12 (tautomer)
[H]/N=c1\nc2nc3c(C)cccn3c(O)c-2cc1C(=O)[N-][C@@H](C)c1ccccc1 (cis-trans isomerization)
[H]/N=c1\nc2nc3c(C)cccn3c(O)c-2cc1C(=O)[N-][C@@H](C)c1ccccc1 (3D coordinates assigned)
[H]/N=c1\nc2nc3c(C)cccn3c(O)c-2cc1C(=O)[N-][C@@H](C)c1ccccc1 (optimized conformer: 63.00471694634258 kcal/mol)

>  <smiles>  (25) 
Cc1cccn2c(=O)c3cc(C(=O)N[C@@H](C)c4ccccc4)c(=N)[nH]c3nc12

>  <score_type>  (25) 
oracle

>  <origin>  (25) 
autodockgpu

>  <m_score__min__energy>  (25) 
-7.8600000000000003

>  <m_primary>  (25) 
energy

>  <meeko>  (25) 
{"free_energy": -6.58, "intermolecular_energy": -8.37, "internal_energy": -1.51, "cluster_size": 12, "cluster_id": 3, "rank_in_cluster": 2}

>  <energy>  (25) 
-7.73

>  <cluster_rmsd>  (25) 
0.49

>  <rmsd>  (25) 
270.14

>  <cluster>  (25) 
1

$$$$
ZIUJVUPDDLJBQX-BJEHGDLWNA-M
     RDKit          3D

 46 49  0  0  0  0  0  0  0  0999 V2000
  134.1990   68.4550  226.1280 H   0  0  0  0  0  0  0  0  0  0  0  0
  133.9760   69.3250  226.6600 N   0  0  0  0  0  0  0  0  0  0  0  0
  134.2420   70.5010  226.1840 C   0  0  0  0  0  0  0  0  0  0  0  0
  133.6120   71.5900  226.7060 N   0  0  0  0  0  0  0  0  0  0  0  0
  133.8380   72.8390  226.2330 C   0  0  0  0  0  0  0  0  0  0  0  0
  133.1830   73.8980  226.7480 N   0  0  0  0  0  0  0  0  0  0  0  0
  133.3950   75.1610  226.2880 C   0  0  0  0  0  0  0  0  0  0  0  0
  132.6820   76.2210  226.8850 C   0  0  0  0  0  0  0  0  0  0  0  0
  131.6910   75.9650  227.9900 C   0  0  0  0  0  0  0  0  0  0  0  0
  132.1864   76.0930  228.9638 H   0  0  0  0  0  0  0  0  0  0  0  0
  130.8568   76.6771  227.9066 H   0  0  0  0  0  0  0  0  0  0  0  0
  131.3061   74.9379  227.9066 H   0  0  0  0  0  0  0  0  0  0  0  0
  132.9200   77.5270  226.4570 C   0  0  0  0  0  0  0  0  0  0  0  0
  132.3680   78.3645  226.9086 H   0  0  0  0  0  0  0  0  0  0  0  0
  133.8540   77.7670  225.4610 C   0  0  0  0  0  0  0  0  0  0  0  0
  134.0542   78.7969  225.1305 H   0  0  0  0  0  0  0  0  0  0  0  0
  134.5390   76.7020  224.8790 C   0  0  0  0  0  0  0  0  0  0  0  0
  135.2852   76.9045  224.0966 H   0  0  0  0  0  0  0  0  0  0  0  0
  134.3010   75.4030  225.2630 N   0  0  0  0  0  0  0  0  0  0  0  0
  134.9670   74.3500  224.6620 C   0  0  0  0  0  0  0  0  0  0  0  0
  135.8160   74.5210  223.5590 O   0  0  0  0  0  0  0  0  0  0  0  0
  136.7530   74.1560  223.4810 H   0  0  0  0  0  0  0  0  0  0  0  0
  134.7840   73.0460  225.1380 C   0  0  0  0  0  0  0  0  0  0  0  0
  135.4300   71.9260  224.6050 C   0  0  0  0  0  0  0  0  0  0  0  0
  136.1543   72.0474  223.7861 H   0  0  0  0  0  0  0  0  0  0  0  0
  135.1550   70.6470  225.1140 C   0  0  0  0  0  0  0  0  0  0  0  0
  135.7930   69.4670  224.4950 C   0  0  0  0  0  0  0  0  0  0  0  0
  135.0840   68.4680  224.2020 O   0  0  0  0  0  0  0  0  0  0  0  0
  137.1910   69.4460  224.1730 N   0  0  0  0  0  0  0  0  0  0  0  0
  138.2180   68.6820  224.8860 C   0  0  2  0  0  0  0  0  0  0  0  0
  137.7247   67.9916  225.5860 H   0  0  0  0  0  0  0  0  0  0  0  0
  139.1130   69.5990  225.6950 C   0  0  0  0  0  0  0  0  0  0  0  0
  139.2350   69.4180  227.0850 C   0  0  0  0  0  0  0  0  0  0  0  0
  138.7075   68.5877  227.5773 H   0  0  0  0  0  0  0  0  0  0  0  0
  140.0230   70.2880  227.8430 C   0  0  0  0  0  0  0  0  0  0  0  0
  140.1072   70.1456  228.9305 H   0  0  0  0  0  0  0  0  0  0  0  0
  140.7040   71.3380  227.2230 C   0  0  0  0  0  0  0  0  0  0  0  0
  141.3207   72.0235  227.8227 H   0  0  0  0  0  0  0  0  0  0  0  0
  140.6020   71.5180  225.8400 C   0  0  0  0  0  0  0  0  0  0  0  0
  141.1436   72.3415  225.3517 H   0  0  0  0  0  0  0  0  0  0  0  0
  139.8120   70.6520  225.0770 C   0  0  0  0  0  0  0  0  0  0  0  0
  139.7369   70.7949  223.9889 H   0  0  0  0  0  0  0  0  0  0  0  0
  139.0440   67.8810  223.8810 C   0  0  0  0  0  0  0  0  0  0  0  0
  139.7320   67.2138  224.4209 H   0  0  0  0  0  0  0  0  0  0  0  0
  138.3721   67.2815  223.2492 H   0  0  0  0  0  0  0  0  0  0  0  0
  139.6226   68.5710  223.2492 H   0  0  0  0  0  0  0  0  0  0  0  0
  1  2  1  0
  2  3  2  0
  3  4  1  0
  4  5  2  0
  5  6  1  0
  6  7  2  0
  7  8  1  0
  8  9  1  0
  9 10  1  0
  9 11  1  0
  9 12  1  0
  8 13  2  0
 13 14  1  0
 13 15  1  0
 15 16  1  0
 15 17  2  0
 17 18  1  0
 17 19  1  0
 19 20  1  0
 20 21  1  0
 21 22  1  0
 20 23  2  0
 23 24  1  0
 24 25  1  0
 24 26  2  0
 26 27  1  0
 27 28  2  0
 27 29  1  0
 29 30  1  0
 30 31  1  1
 30 32  1  0
 32 33  2  0
 33 34  1  0
 33 35  1  0
 35 36  1  0
 35 37  2  0
 37 38  1  0
 37 39  1  0
 39 40  1  0
 39 41  2  0
 41 42  1  0
 30 43  1  0
 43 44  1  0
 43 45  1  0
 43 46  1  0
 26  3  1  0
 41 32  1  0
 23  5  1  0
 19  7  1  0
M  CHG  1  29  -1
M  END
>  <UniqueID>  (26) 
114

>  <SMILES>  (26) 
[H]/N=c1\nc2nc3c(C)cccn3c(O)c-2cc1C(=O)[N-][C@@H](C)c1ccccc1

>  <Energy>  (26) 
63.00471694634258

>  <Genealogy>  (26) 
Cc1cccn2c(=O)c3cc(C(=O)[N-][C@@H](C)c4ccccc4)c(=N)[nH]c3nc12 (protonated)
Cc1cccn2c(O)c3cc(C(=O)[N-][C@@H](C)c4ccccc4)c(=N)nc-3nc12 (tautomer)
[H]/N=c1\nc2nc3c(C)cccn3c(O)c-2cc1C(=O)[N-][C@@H](C)c1ccccc1 (cis-trans isomerization)
[H]/N=c1\nc2nc3c(C)cccn3c(O)c-2cc1C(=O)[N-][C@@H](C)c1ccccc1 (3D coordinates assigned)
[H]/N=c1\nc2nc3c(C)cccn3c(O)c-2cc1C(=O)[N-][C@@H](C)c1ccccc1 (optimized conformer: 63.00471694634258 kcal/mol)

>  <smiles>  (26) 
Cc1cccn2c(=O)c3cc(C(=O)N[C@@H](C)c4ccccc4)c(=N)[nH]c3nc12

>  <score_type>  (26) 
oracle

>  <origin>  (26) 
autodockgpu

>  <m_score__min__energy>  (26) 
-7.8600000000000003

>  <m_primary>  (26) 
energy

>  <meeko>  (26) 
{"free_energy": -7.73, "intermolecular_energy": -9.52, "internal_energy": -1.06, "cluster_size": 7, "cluster_id": 1, "rank_in_cluster": 5}

>  <energy>  (26) 
-7.71

>  <cluster_rmsd>  (26) 
0.64

>  <rmsd>  (26) 
270.02

>  <cluster>  (26) 
1

$$$$
ZIUJVUPDDLJBQX-BJEHGDLWNA-M
     RDKit          3D

 46 49  0  0  0  0  0  0  0  0999 V2000
  136.0240   76.9820  223.3600 H   0  0  0  0  0  0  0  0  0  0  0  0
  136.6840   76.1890  223.2040 N   0  0  0  0  0  0  0  0  0  0  0  0
  137.8140   76.3540  222.5910 C   0  0  0  0  0  0  0  0  0  0  0  0
  138.6130   75.2750  222.3630 N   0  0  0  0  0  0  0  0  0  0  0  0
  139.8130   75.3940  221.7450 C   0  0  0  0  0  0  0  0  0  0  0  0
  140.5970   74.3160  221.5530 N   0  0  0  0  0  0  0  0  0  0  0  0
  141.8050   74.4120  220.9340 C   0  0  0  0  0  0  0  0  0  0  0  0
  142.5650   73.2370  220.7580 C   0  0  0  0  0  0  0  0  0  0  0  0
  142.0680   71.9090  221.2620 C   0  0  0  0  0  0  0  0  0  0  0  0
  142.0686   71.9107  222.3620 H   0  0  0  0  0  0  0  0  0  0  0  0
  141.0449   71.7376  220.8962 H   0  0  0  0  0  0  0  0  0  0  0  0
  142.7272   71.1080  220.8962 H   0  0  0  0  0  0  0  0  0  0  0  0
  143.7850   73.3110  220.0850 C   0  0  0  0  0  0  0  0  0  0  0  0
  144.3924   72.4048  219.9436 H   0  0  0  0  0  0  0  0  0  0  0  0
  144.2300   74.5290  219.5950 C   0  0  0  0  0  0  0  0  0  0  0  0
  145.1852   74.5885  219.0528 H   0  0  0  0  0  0  0  0  0  0  0  0
  143.4660   75.6780  219.7900 C   0  0  0  0  0  0  0  0  0  0  0  0
  143.8233   76.6376  219.3881 H   0  0  0  0  0  0  0  0  0  0  0  0
  142.2740   75.6360  220.4750 N   0  0  0  0  0  0  0  0  0  0  0  0
  141.5350   76.7870  220.6870 C   0  0  0  0  0  0  0  0  0  0  0  0
  142.0010   78.0620  220.3360 O   0  0  0  0  0  0  0  0  0  0  0  0
  142.9230   78.4210  220.5320 H   0  0  0  0  0  0  0  0  0  0  0  0
  140.2770   76.7060  221.2970 C   0  0  0  0  0  0  0  0  0  0  0  0
  139.4540   77.8120  221.5320 C   0  0  0  0  0  0  0  0  0  0  0  0
  139.7695   78.8124  221.2008 H   0  0  0  0  0  0  0  0  0  0  0  0
  138.2260   77.6460  222.1900 C   0  0  0  0  0  0  0  0  0  0  0  0
  137.3990   78.8340  222.4930 C   0  0  0  0  0  0  0  0  0  0  0  0
  136.2570   78.6740  222.9980 O   0  0  0  0  0  0  0  0  0  0  0  0
  137.8820   80.1660  222.2710 N   0  0  0  0  0  0  0  0  0  0  0  0
  138.6630   80.9590  223.2240 C   0  0  2  0  0  0  0  0  0  0  0  0
  138.6115   82.0180  222.9309 H   0  0  0  0  0  0  0  0  0  0  0  0
  140.1200   80.5430  223.2080 C   0  0  0  0  0  0  0  0  0  0  0  0
  141.0500   81.2650  222.4370 C   0  0  0  0  0  0  0  0  0  0  0  0
  140.7236   82.1530  221.8757 H   0  0  0  0  0  0  0  0  0  0  0  0
  142.3870   80.8590  222.3810 C   0  0  0  0  0  0  0  0  0  0  0  0
  143.1066   81.4213  221.7678 H   0  0  0  0  0  0  0  0  0  0  0  0
  142.8100   79.7400  223.1030 C   0  0  0  0  0  0  0  0  0  0  0  0
  143.8619   79.4216  223.0566 H   0  0  0  0  0  0  0  0  0  0  0  0
  141.8980   79.0250  223.8840 C   0  0  0  0  0  0  0  0  0  0  0  0
  142.2338   78.1475  224.4560 H   0  0  0  0  0  0  0  0  0  0  0  0
  140.5590   79.4240  223.9390 C   0  0  0  0  0  0  0  0  0  0  0  0
  139.8451   78.8599  224.5571 H   0  0  0  0  0  0  0  0  0  0  0  0
  138.0770   80.7920  224.6250 C   0  0  0  0  0  0  0  0  0  0  0  0
  138.8510   81.0126  225.3749 H   0  0  0  0  0  0  0  0  0  0  0  0
  137.2329   81.4853  224.7544 H   0  0  0  0  0  0  0  0  0  0  0  0
  137.7252   79.7578  224.7544 H   0  0  0  0  0  0  0  0  0  0  0  0
  1  2  1  0
  2  3  2  0
  3  4  1  0
  4  5  2  0
  5  6  1  0
  6  7  2  0
  7  8  1  0
  8  9  1  0
  9 10  1  0
  9 11  1  0
  9 12  1  0
  8 13  2  0
 13 14  1  0
 13 15  1  0
 15 16  1  0
 15 17  2  0
 17 18  1  0
 17 19  1  0
 19 20  1  0
 20 21  1  0
 21 22  1  0
 20 23  2  0
 23 24  1  0
 24 25  1  0
 24 26  2  0
 26 27  1  0
 27 28  2  0
 27 29  1  0
 29 30  1  0
 30 31  1  6
 30 32  1  0
 32 33  2  0
 33 34  1  0
 33 35  1  0
 35 36  1  0
 35 37  2  0
 37 38  1  0
 37 39  1  0
 39 40  1  0
 39 41  2  0
 41 42  1  0
 30 43  1  0
 43 44  1  0
 43 45  1  0
 43 46  1  0
 26  3  1  0
 41 32  1  0
 23  5  1  0
 19  7  1  0
M  CHG  1  29  -1
M  END
>  <UniqueID>  (27) 
114

>  <SMILES>  (27) 
[H]/N=c1\nc2nc3c(C)cccn3c(O)c-2cc1C(=O)[N-][C@@H](C)c1ccccc1

>  <Energy>  (27) 
63.00471694634258

>  <Genealogy>  (27) 
Cc1cccn2c(=O)c3cc(C(=O)[N-][C@@H](C)c4ccccc4)c(=N)[nH]c3nc12 (protonated)
Cc1cccn2c(O)c3cc(C(=O)[N-][C@@H](C)c4ccccc4)c(=N)nc-3nc12 (tautomer)
[H]/N=c1\nc2nc3c(C)cccn3c(O)c-2cc1C(=O)[N-][C@@H](C)c1ccccc1 (cis-trans isomerization)
[H]/N=c1\nc2nc3c(C)cccn3c(O)c-2cc1C(=O)[N-][C@@H](C)c1ccccc1 (3D coordinates assigned)
[H]/N=c1\nc2nc3c(C)cccn3c(O)c-2cc1C(=O)[N-][C@@H](C)c1ccccc1 (optimized conformer: 63.00471694634258 kcal/mol)

>  <smiles>  (27) 
Cc1cccn2c(=O)c3cc(C(=O)N[C@@H](C)c4ccccc4)c(=N)[nH]c3nc12

>  <score_type>  (27) 
oracle

>  <origin>  (27) 
autodockgpu

>  <m_score__min__energy>  (27) 
-7.8600000000000003

>  <m_primary>  (27) 
energy

>  <meeko>  (27) 
{"free_energy": -6.55, "intermolecular_energy": -8.34, "internal_energy": -1.55, "cluster_size": 12, "cluster_id": 3, "rank_in_cluster": 7}

>  <energy>  (27) 
-7.71

>  <cluster_rmsd>  (27) 
0.62

>  <rmsd>  (27) 
270.02

>  <cluster>  (27) 
1

$$$$
ZIUJVUPDDLJBQX-BJEHGDLWNA-M
     RDKit          3D

 46 49  0  0  0  0  0  0  0  0999 V2000
  136.1040   76.9540  223.4340 H   0  0  0  0  0  0  0  0  0  0  0  0
  136.7380   76.1530  223.2200 N   0  0  0  0  0  0  0  0  0  0  0  0
  137.8680   76.3250  222.6080 C   0  0  0  0  0  0  0  0  0  0  0  0
  138.6660   75.2480  222.3680 N   0  0  0  0  0  0  0  0  0  0  0  0
  139.8660   75.3730  221.7500 C   0  0  0  0  0  0  0  0  0  0  0  0
  140.6500   74.2970  221.5470 N   0  0  0  0  0  0  0  0  0  0  0  0
  141.8570   74.3990  220.9280 C   0  0  0  0  0  0  0  0  0  0  0  0
  142.6170   73.2260  220.7390 C   0  0  0  0  0  0  0  0  0  0  0  0
  142.1190   71.8920  221.2290 C   0  0  0  0  0  0  0  0  0  0  0  0
  142.1158   71.8833  222.3290 H   0  0  0  0  0  0  0  0  0  0  0  0
  141.0973   71.7232  220.8580 H   0  0  0  0  0  0  0  0  0  0  0  0
  142.7802   71.0950  220.8580 H   0  0  0  0  0  0  0  0  0  0  0  0
  143.8370   73.3070  220.0660 C   0  0  0  0  0  0  0  0  0  0  0  0
  144.4441   72.4023  219.9144 H   0  0  0  0  0  0  0  0  0  0  0  0
  144.2820   74.5300  219.5890 C   0  0  0  0  0  0  0  0  0  0  0  0
  145.2370   74.5952  219.0470 H   0  0  0  0  0  0  0  0  0  0  0  0
  143.5180   75.6770  219.7970 C   0  0  0  0  0  0  0  0  0  0  0  0
  143.8751   76.6408  219.4052 H   0  0  0  0  0  0  0  0  0  0  0  0
  142.3270   75.6280  220.4820 N   0  0  0  0  0  0  0  0  0  0  0  0
  141.5870   76.7760  220.7060 C   0  0  0  0  0  0  0  0  0  0  0  0
  142.0540   78.0550  220.3690 O   0  0  0  0  0  0  0  0  0  0  0  0
  142.9310   78.4550  220.6670 H   0  0  0  0  0  0  0  0  0  0  0  0
  140.3300   76.6890  221.3160 C   0  0  0  0  0  0  0  0  0  0  0  0
  139.5080   77.7930  221.5640 C   0  0  0  0  0  0  0  0  0  0  0  0
  139.8243   78.7967  221.2439 H   0  0  0  0  0  0  0  0  0  0  0  0
  138.2800   77.6210  222.2210 C   0  0  0  0  0  0  0  0  0  0  0  0
  137.4530   78.8050  222.5370 C   0  0  0  0  0  0  0  0  0  0  0  0
  136.3390   78.6430  223.1000 O   0  0  0  0  0  0  0  0  0  0  0  0
  137.9080   80.1380  222.2630 N   0  0  0  0  0  0  0  0  0  0  0  0
  138.6880   80.9770  223.1760 C   0  0  2  0  0  0  0  0  0  0  0  0
  138.6319   82.0211  222.8342 H   0  0  0  0  0  0  0  0  0  0  0  0
  140.1470   80.5680  223.1760 C   0  0  0  0  0  0  0  0  0  0  0  0
  141.0780   81.2830  222.4000 C   0  0  0  0  0  0  0  0  0  0  0  0
  140.7508   82.1605  221.8231 H   0  0  0  0  0  0  0  0  0  0  0  0
  142.4170   80.8830  222.3590 C   0  0  0  0  0  0  0  0  0  0  0  0
  143.1379   81.4404  221.7428 H   0  0  0  0  0  0  0  0  0  0  0  0
  142.8410   79.7770  223.0990 C   0  0  0  0  0  0  0  0  0  0  0  0
  143.8946   79.4628  223.0634 H   0  0  0  0  0  0  0  0  0  0  0  0
  141.9270   79.0690  223.8850 C   0  0  0  0  0  0  0  0  0  0  0  0
  142.2634   78.2016  224.4719 H   0  0  0  0  0  0  0  0  0  0  0  0
  140.5860   79.4620  223.9260 C   0  0  0  0  0  0  0  0  0  0  0  0
  139.8707   78.9036  224.5478 H   0  0  0  0  0  0  0  0  0  0  0  0
  138.1050   80.8710  224.5850 C   0  0  0  0  0  0  0  0  0  0  0  0
  138.9057   81.0166  225.3250 H   0  0  0  0  0  0  0  0  0  0  0  0
  137.3342   81.6437  224.7220 H   0  0  0  0  0  0  0  0  0  0  0  0
  137.6555   79.8764  224.7220 H   0  0  0  0  0  0  0  0  0  0  0  0
  1  2  1  0
  2  3  2  0
  3  4  1  0
  4  5  2  0
  5  6  1  0
  6  7  2  0
  7  8  1  0
  8  9  1  0
  9 10  1  0
  9 11  1  0
  9 12  1  0
  8 13  2  0
 13 14  1  0
 13 15  1  0
 15 16  1  0
 15 17  2  0
 17 18  1  0
 17 19  1  0
 19 20  1  0
 20 21  1  0
 21 22  1  0
 20 23  2  0
 23 24  1  0
 24 25  1  0
 24 26  2  0
 26 27  1  0
 27 28  2  0
 27 29  1  0
 29 30  1  0
 30 31  1  6
 30 32  1  0
 32 33  2  0
 33 34  1  0
 33 35  1  0
 35 36  1  0
 35 37  2  0
 37 38  1  0
 37 39  1  0
 39 40  1  0
 39 41  2  0
 41 42  1  0
 30 43  1  0
 43 44  1  0
 43 45  1  0
 43 46  1  0
 26  3  1  0
 41 32  1  0
 23  5  1  0
 19  7  1  0
M  CHG  1  29  -1
M  END
>  <UniqueID>  (28) 
114

>  <SMILES>  (28) 
[H]/N=c1\nc2nc3c(C)cccn3c(O)c-2cc1C(=O)[N-][C@@H](C)c1ccccc1

>  <Energy>  (28) 
63.00471694634258

>  <Genealogy>  (28) 
Cc1cccn2c(=O)c3cc(C(=O)[N-][C@@H](C)c4ccccc4)c(=N)[nH]c3nc12 (protonated)
Cc1cccn2c(O)c3cc(C(=O)[N-][C@@H](C)c4ccccc4)c(=N)nc-3nc12 (tautomer)
[H]/N=c1\nc2nc3c(C)cccn3c(O)c-2cc1C(=O)[N-][C@@H](C)c1ccccc1 (cis-trans isomerization)
[H]/N=c1\nc2nc3c(C)cccn3c(O)c-2cc1C(=O)[N-][C@@H](C)c1ccccc1 (3D coordinates assigned)
[H]/N=c1\nc2nc3c(C)cccn3c(O)c-2cc1C(=O)[N-][C@@H](C)c1ccccc1 (optimized conformer: 63.00471694634258 kcal/mol)

>  <smiles>  (28) 
Cc1cccn2c(=O)c3cc(C(=O)N[C@@H](C)c4ccccc4)c(=N)[nH]c3nc12

>  <score_type>  (28) 
oracle

>  <origin>  (28) 
autodockgpu

>  <m_score__min__energy>  (28) 
-7.8600000000000003

>  <m_primary>  (28) 
energy

>  <meeko>  (28) 
{"free_energy": -6.58, "intermolecular_energy": -8.37, "internal_energy": -1.54, "cluster_size": 12, "cluster_id": 3, "rank_in_cluster": 3}

>  <energy>  (28) 
-6.96

>  <cluster_rmsd>  (28) 
0.0

>  <rmsd>  (28) 
270.18

>  <cluster>  (28) 
2

$$$$
ZIUJVUPDDLJBQX-BJEHGDLWNA-M
     RDKit          3D

 46 49  0  0  0  0  0  0  0  0999 V2000
  136.7310   79.0470  222.7430 H   0  0  0  0  0  0  0  0  0  0  0  0
  136.9180   78.0340  222.5760 N   0  0  0  0  0  0  0  0  0  0  0  0
  138.0360   77.6240  222.0620 C   0  0  0  0  0  0  0  0  0  0  0  0
  138.4190   76.3310  222.2460 N   0  0  0  0  0  0  0  0  0  0  0  0
  139.5870   75.8560  221.7480 C   0  0  0  0  0  0  0  0  0  0  0  0
  139.9580   74.5790  221.9650 N   0  0  0  0  0  0  0  0  0  0  0  0
  141.1250   74.0810  221.4740 C   0  0  0  0  0  0  0  0  0  0  0  0
  141.4400   72.7300  221.7320 C   0  0  0  0  0  0  0  0  0  0  0  0
  140.5220   71.8620  222.5510 C   0  0  0  0  0  0  0  0  0  0  0  0
  140.7084   72.0382  223.6207 H   0  0  0  0  0  0  0  0  0  0  0  0
  139.4764   72.1094  222.3153 H   0  0  0  0  0  0  0  0  0  0  0  0
  140.7106   70.8042  222.3153 H   0  0  0  0  0  0  0  0  0  0  0  0
  142.6100   72.1910  221.1980 C   0  0  0  0  0  0  0  0  0  0  0  0
  142.8734   71.1413  221.3947 H   0  0  0  0  0  0  0  0  0  0  0  0
  143.4410   72.9820  220.4180 C   0  0  0  0  0  0  0  0  0  0  0  0
  144.3575   72.5565  219.9833 H   0  0  0  0  0  0  0  0  0  0  0  0
  143.1130   74.3160  220.1860 C   0  0  0  0  0  0  0  0  0  0  0  0
  143.7741   74.9318  219.5586 H   0  0  0  0  0  0  0  0  0  0  0  0
  141.9800   74.8790  220.7250 N   0  0  0  0  0  0  0  0  0  0  0  0
  141.6760   76.2120  220.5100 C   0  0  0  0  0  0  0  0  0  0  0  0
  142.5470   77.0900  219.8490 O   0  0  0  0  0  0  0  0  0  0  0  0
  143.3230   77.5730  220.2750 H   0  0  0  0  0  0  0  0  0  0  0  0
  140.4670   76.7370  220.9840 C   0  0  0  0  0  0  0  0  0  0  0  0
  140.0700   78.0640  220.7960 C   0  0  0  0  0  0  0  0  0  0  0  0
  140.7059   78.7514  220.2188 H   0  0  0  0  0  0  0  0  0  0  0  0
  138.8610   78.5200  221.3430 C   0  0  0  0  0  0  0  0  0  0  0  0
  138.4870   79.9420  221.1940 C   0  0  0  0  0  0  0  0  0  0  0  0
  138.5680   80.4830  220.0600 O   0  0  0  0  0  0  0  0  0  0  0  0
  137.9880   80.7110  222.2980 N   0  0  0  0  0  0  0  0  0  0  0  0
  138.7810   81.1800  223.4370 C   0  0  2  0  0  0  0  0  0  0  0  0
  138.8317   82.2784  223.4062 H   0  0  0  0  0  0  0  0  0  0  0  0
  140.1980   80.6490  223.3660 C   0  0  0  0  0  0  0  0  0  0  0  0
  141.2000   81.3980  222.7210 C   0  0  0  0  0  0  0  0  0  0  0  0
  140.9595   82.3856  222.3005 H   0  0  0  0  0  0  0  0  0  0  0  0
  142.4980   80.8940  222.6120 C   0  0  0  0  0  0  0  0  0  0  0  0
  143.2733   81.4812  222.0981 H   0  0  0  0  0  0  0  0  0  0  0  0
  142.8140   79.6460  223.1540 C   0  0  0  0  0  0  0  0  0  0  0  0
  143.8366   79.2507  223.0650 H   0  0  0  0  0  0  0  0  0  0  0  0
  141.8300   78.8990  223.8100 C   0  0  0  0  0  0  0  0  0  0  0  0
  142.0804   77.9185  224.2412 H   0  0  0  0  0  0  0  0  0  0  0  0
  140.5280   79.3980  223.9180 C   0  0  0  0  0  0  0  0  0  0  0  0
  139.7578   78.8090  224.4374 H   0  0  0  0  0  0  0  0  0  0  0  0
  138.1110   80.7390  224.7380 C   0  0  0  0  0  0  0  0  0  0  0  0
  138.6877   81.1186  225.5944 H   0  0  0  0  0  0  0  0  0  0  0  0
  137.0878   81.1407  224.7780 H   0  0  0  0  0  0  0  0  0  0  0  0
  138.0754   79.6403  224.7780 H   0  0  0  0  0  0  0  0  0  0  0  0
  1  2  1  0
  2  3  2  0
  3  4  1  0
  4  5  2  0
  5  6  1  0
  6  7  2  0
  7  8  1  0
  8  9  1  0
  9 10  1  0
  9 11  1  0
  9 12  1  0
  8 13  2  0
 13 14  1  0
 13 15  1  0
 15 16  1  0
 15 17  2  0
 17 18  1  0
 17 19  1  0
 19 20  1  0
 20 21  1  0
 21 22  1  0
 20 23  2  0
 23 24  1  0
 24 25  1  0
 24 26  2  0
 26 27  1  0
 27 28  2  0
 27 29  1  0
 29 30  1  0
 30 31  1  1
 30 32  1  0
 32 33  2  0
 33 34  1  0
 33 35  1  0
 35 36  1  0
 35 37  2  0
 37 38  1  0
 37 39  1  0
 39 40  1  0
 39 41  2  0
 41 42  1  0
 30 43  1  0
 43 44  1  0
 43 45  1  0
 43 46  1  0
 26  3  1  0
 41 32  1  0
 23  5  1  0
 19  7  1  0
M  CHG  1  29  -1
M  END
>  <UniqueID>  (29) 
114

>  <SMILES>  (29) 
[H]/N=c1\nc2nc3c(C)cccn3c(O)c-2cc1C(=O)[N-][C@@H](C)c1ccccc1

>  <Energy>  (29) 
63.00471694634258

>  <Genealogy>  (29) 
Cc1cccn2c(=O)c3cc(C(=O)[N-][C@@H](C)c4ccccc4)c(=N)[nH]c3nc12 (protonated)
Cc1cccn2c(O)c3cc(C(=O)[N-][C@@H](C)c4ccccc4)c(=N)nc-3nc12 (tautomer)
[H]/N=c1\nc2nc3c(C)cccn3c(O)c-2cc1C(=O)[N-][C@@H](C)c1ccccc1 (cis-trans isomerization)
[H]/N=c1\nc2nc3c(C)cccn3c(O)c-2cc1C(=O)[N-][C@@H](C)c1ccccc1 (3D coordinates assigned)
[H]/N=c1\nc2nc3c(C)cccn3c(O)c-2cc1C(=O)[N-][C@@H](C)c1ccccc1 (optimized conformer: 63.00471694634258 kcal/mol)

>  <smiles>  (29) 
Cc1cccn2c(=O)c3cc(C(=O)N[C@@H](C)c4ccccc4)c(=N)[nH]c3nc12

>  <score_type>  (29) 
oracle

>  <origin>  (29) 
autodockgpu

>  <m_score__min__energy>  (29) 
-7.8600000000000003

>  <m_primary>  (29) 
energy

>  <meeko>  (29) 
{"free_energy": -6.33, "intermolecular_energy": -8.12, "internal_energy": -1.82, "cluster_size": 12, "cluster_id": 3, "rank_in_cluster": 10}

>  <energy>  (29) 
-6.58

>  <cluster_rmsd>  (29) 
0.0

>  <rmsd>  (29) 
270.93

>  <cluster>  (29) 
3

$$$$
ZIUJVUPDDLJBQX-BJEHGDLWNA-M
     RDKit          3D

 46 49  0  0  0  0  0  0  0  0999 V2000
  136.1390   76.9130  223.4480 H   0  0  0  0  0  0  0  0  0  0  0  0
  136.7740   76.1140  223.2280 N   0  0  0  0  0  0  0  0  0  0  0  0
  137.9020   76.2910  222.6130 C   0  0  0  0  0  0  0  0  0  0  0  0
  138.7050   75.2170  222.3720 N   0  0  0  0  0  0  0  0  0  0  0  0
  139.9020   75.3480  221.7520 C   0  0  0  0  0  0  0  0  0  0  0  0
  140.6910   74.2750  221.5470 N   0  0  0  0  0  0  0  0  0  0  0  0
  141.8960   74.3830  220.9260 C   0  0  0  0  0  0  0  0  0  0  0  0
  142.6610   73.2130  220.7350 C   0  0  0  0  0  0  0  0  0  0  0  0
  142.1710   71.8770  221.2270 C   0  0  0  0  0  0  0  0  0  0  0  0
  142.1684   71.8698  222.3270 H   0  0  0  0  0  0  0  0  0  0  0  0
  141.1501   71.7018  220.8567 H   0  0  0  0  0  0  0  0  0  0  0  0
  142.8366   71.0833  220.8567 H   0  0  0  0  0  0  0  0  0  0  0  0
  143.8790   73.2990  220.0600 C   0  0  0  0  0  0  0  0  0  0  0  0
  144.4904   72.3972  219.9089 H   0  0  0  0  0  0  0  0  0  0  0  0
  144.3170   74.5240  219.5800 C   0  0  0  0  0  0  0  0  0  0  0  0
  145.2697   74.5934  219.0345 H   0  0  0  0  0  0  0  0  0  0  0  0
  143.5480   75.6670  219.7900 C   0  0  0  0  0  0  0  0  0  0  0  0
  143.9002   76.6323  219.3974 H   0  0  0  0  0  0  0  0  0  0  0  0
  142.3590   75.6140  220.4770 N   0  0  0  0  0  0  0  0  0  0  0  0
  141.6150   76.7590  220.7030 C   0  0  0  0  0  0  0  0  0  0  0  0
  142.0750   78.0390  220.3630 O   0  0  0  0  0  0  0  0  0  0  0  0
  142.9390   78.4520  220.6790 H   0  0  0  0  0  0  0  0  0  0  0  0
  140.3590   76.6660  221.3160 C   0  0  0  0  0  0  0  0  0  0  0  0
  139.5320   77.7660  221.5640 C   0  0  0  0  0  0  0  0  0  0  0  0
  139.8420   78.7707  221.2407 H   0  0  0  0  0  0  0  0  0  0  0  0
  138.3070   77.5890  222.2250 C   0  0  0  0  0  0  0  0  0  0  0  0
  137.4760   78.7690  222.5410 C   0  0  0  0  0  0  0  0  0  0  0  0
  136.3700   78.6040  223.1200 O   0  0  0  0  0  0  0  0  0  0  0  0
  137.9170   80.1030  222.2510 N   0  0  0  0  0  0  0  0  0  0  0  0
  138.6880   80.9610  223.1540 C   0  0  2  0  0  0  0  0  0  0  0  0
  138.6335   81.9979  222.7908 H   0  0  0  0  0  0  0  0  0  0  0  0
  140.1470   80.5540  223.1750 C   0  0  0  0  0  0  0  0  0  0  0  0
  141.0900   81.2720  222.4160 C   0  0  0  0  0  0  0  0  0  0  0  0
  140.7710   82.1512  221.8370 H   0  0  0  0  0  0  0  0  0  0  0  0
  142.4290   80.8740  222.3940 C   0  0  0  0  0  0  0  0  0  0  0  0
  143.1586   81.4344  221.7909 H   0  0  0  0  0  0  0  0  0  0  0  0
  142.8430   79.7650  223.1370 C   0  0  0  0  0  0  0  0  0  0  0  0
  143.8973   79.4518  223.1164 H   0  0  0  0  0  0  0  0  0  0  0  0
  141.9180   79.0540  223.9060 C   0  0  0  0  0  0  0  0  0  0  0  0
  142.2460   78.1847  224.4949 H   0  0  0  0  0  0  0  0  0  0  0  0
  140.5760   79.4460  223.9280 C   0  0  0  0  0  0  0  0  0  0  0  0
  139.8520   78.8851  224.5372 H   0  0  0  0  0  0  0  0  0  0  0  0
  138.0930   80.8830  224.5600 C   0  0  0  0  0  0  0  0  0  0  0  0
  138.8960   80.9883  225.3043 H   0  0  0  0  0  0  0  0  0  0  0  0
  137.3607   81.6928  224.6937 H   0  0  0  0  0  0  0  0  0  0  0  0
  137.5941   79.9118  224.6937 H   0  0  0  0  0  0  0  0  0  0  0  0
  1  2  1  0
  2  3  2  0
  3  4  1  0
  4  5  2  0
  5  6  1  0
  6  7  2  0
  7  8  1  0
  8  9  1  0
  9 10  1  0
  9 11  1  0
  9 12  1  0
  8 13  2  0
 13 14  1  0
 13 15  1  0
 15 16  1  0
 15 17  2  0
 17 18  1  0
 17 19  1  0
 19 20  1  0
 20 21  1  0
 21 22  1  0
 20 23  2  0
 23 24  1  0
 24 25  1  0
 24 26  2  0
 26 27  1  0
 27 28  2  0
 27 29  1  0
 29 30  1  0
 30 31  1  6
 30 32  1  0
 32 33  2  0
 33 34  1  0
 33 35  1  0
 35 36  1  0
 35 37  2  0
 37 38  1  0
 37 39  1  0
 39 40  1  0
 39 41  2  0
 41 42  1  0
 30 43  1  0
 43 44  1  0
 43 45  1  0
 43 46  1  0
 26  3  1  0
 41 32  1  0
 23  5  1  0
 19  7  1  0
M  CHG  1  29  -1
M  END
>  <UniqueID>  (30) 
114

>  <SMILES>  (30) 
[H]/N=c1\nc2nc3c(C)cccn3c(O)c-2cc1C(=O)[N-][C@@H](C)c1ccccc1

>  <Energy>  (30) 
63.00471694634258

>  <Genealogy>  (30) 
Cc1cccn2c(=O)c3cc(C(=O)[N-][C@@H](C)c4ccccc4)c(=N)[nH]c3nc12 (protonated)
Cc1cccn2c(O)c3cc(C(=O)[N-][C@@H](C)c4ccccc4)c(=N)nc-3nc12 (tautomer)
[H]/N=c1\nc2nc3c(C)cccn3c(O)c-2cc1C(=O)[N-][C@@H](C)c1ccccc1 (cis-trans isomerization)
[H]/N=c1\nc2nc3c(C)cccn3c(O)c-2cc1C(=O)[N-][C@@H](C)c1ccccc1 (3D coordinates assigned)
[H]/N=c1\nc2nc3c(C)cccn3c(O)c-2cc1C(=O)[N-][C@@H](C)c1ccccc1 (optimized conformer: 63.00471694634258 kcal/mol)

>  <smiles>  (30) 
Cc1cccn2c(=O)c3cc(C(=O)N[C@@H](C)c4ccccc4)c(=N)[nH]c3nc12

>  <score_type>  (30) 
oracle

>  <origin>  (30) 
autodockgpu

>  <m_score__min__energy>  (30) 
-7.8600000000000003

>  <m_primary>  (30) 
energy

>  <meeko>  (30) 
{"free_energy": -6.58, "intermolecular_energy": -8.37, "internal_energy": -1.52, "cluster_size": 12, "cluster_id": 3, "rank_in_cluster": 1}

>  <energy>  (30) 
-6.58

>  <cluster_rmsd>  (30) 
0.09

>  <rmsd>  (30) 
270.91

>  <cluster>  (30) 
3

$$$$
ZIUJVUPDDLJBQX-BJEHGDLWNA-M
     RDKit          3D

 46 49  0  0  0  0  0  0  0  0999 V2000
  134.2690   68.4100  226.0670 H   0  0  0  0  0  0  0  0  0  0  0  0
  134.0570   69.2730  226.6140 N   0  0  0  0  0  0  0  0  0  0  0  0
  134.3250   70.4540  226.1530 C   0  0  0  0  0  0  0  0  0  0  0  0
  133.6760   71.5350  226.6700 N   0  0  0  0  0  0  0  0  0  0  0  0
  133.9040   72.7890  226.2110 C   0  0  0  0  0  0  0  0  0  0  0  0
  133.2320   73.8400  226.7200 N   0  0  0  0  0  0  0  0  0  0  0  0
  133.4440   75.1080  226.2750 C   0  0  0  0  0  0  0  0  0  0  0  0
  132.7120   76.1590  226.8650 C   0  0  0  0  0  0  0  0  0  0  0  0
  131.6990   75.8870  227.9460 C   0  0  0  0  0  0  0  0  0  0  0  0
  132.1713   76.0138  228.9313 H   0  0  0  0  0  0  0  0  0  0  0  0
  130.8601   76.5917  227.8481 H   0  0  0  0  0  0  0  0  0  0  0  0
  131.3259   74.8569  227.8481 H   0  0  0  0  0  0  0  0  0  0  0  0
  132.9500   77.4700  226.4530 C   0  0  0  0  0  0  0  0  0  0  0  0
  132.3831   78.3001  226.8997 H   0  0  0  0  0  0  0  0  0  0  0  0
  133.9040   77.7240  225.4780 C   0  0  0  0  0  0  0  0  0  0  0  0
  134.1042   78.7574  225.1588 H   0  0  0  0  0  0  0  0  0  0  0  0
  134.6080   76.6670  224.9040 C   0  0  0  0  0  0  0  0  0  0  0  0
  135.3704   76.8799  224.1402 H   0  0  0  0  0  0  0  0  0  0  0  0
  134.3700   75.3640  225.2720 N   0  0  0  0  0  0  0  0  0  0  0  0
  135.0560   74.3200  224.6770 C   0  0  0  0  0  0  0  0  0  0  0  0
  135.9280   74.5060  223.5940 O   0  0  0  0  0  0  0  0  0  0  0  0
  136.8680   74.1440  223.5320 H   0  0  0  0  0  0  0  0  0  0  0  0
  134.8720   73.0110  225.1390 C   0  0  0  0  0  0  0  0  0  0  0  0
  135.5370   71.8990  224.6110 C   0  0  0  0  0  0  0  0  0  0  0  0
  136.2781   72.0314  223.8090 H   0  0  0  0  0  0  0  0  0  0  0  0
  135.2590   70.6150  225.1040 C   0  0  0  0  0  0  0  0  0  0  0  0
  135.9190   69.4440  224.4900 C   0  0  0  0  0  0  0  0  0  0  0  0
  135.2160   68.4660  224.1230 O   0  0  0  0  0  0  0  0  0  0  0  0
  137.3340   69.4110  224.2550 N   0  0  0  0  0  0  0  0  0  0  0  0
  138.3170   68.6980  225.0740 C   0  0  2  0  0  0  0  0  0  0  0  0
  137.7826   68.0692  225.8014 H   0  0  0  0  0  0  0  0  0  0  0  0
  139.1840   69.6700  225.8490 C   0  0  0  0  0  0  0  0  0  0  0  0
  139.8930   70.6790  225.1700 C   0  0  0  0  0  0  0  0  0  0  0  0
  139.7879   70.7826  224.0799 H   0  0  0  0  0  0  0  0  0  0  0  0
  140.7290   71.5490  225.8730 C   0  0  0  0  0  0  0  0  0  0  0  0
  141.2872   72.3289  225.3343 H   0  0  0  0  0  0  0  0  0  0  0  0
  140.8580   71.4310  227.2590 C   0  0  0  0  0  0  0  0  0  0  0  0
  141.5190   72.1162  227.8101 H   0  0  0  0  0  0  0  0  0  0  0  0
  140.1470   70.4420  227.9460 C   0  0  0  0  0  0  0  0  0  0  0  0
  140.2448   70.3532  229.0380 H   0  0  0  0  0  0  0  0  0  0  0  0
  139.3120   69.5660  227.2460 C   0  0  0  0  0  0  0  0  0  0  0  0
  138.7522   68.7914  227.7905 H   0  0  0  0  0  0  0  0  0  0  0  0
  139.1810   67.8130  224.1770 C   0  0  0  0  0  0  0  0  0  0  0  0
  139.8137   67.1649  224.8013 H   0  0  0  0  0  0  0  0  0  0  0  0
  138.5330   67.1910  223.5420 H   0  0  0  0  0  0  0  0  0  0  0  0
  139.8183   68.4459  223.5420 H   0  0  0  0  0  0  0  0  0  0  0  0
  1  2  1  0
  2  3  2  0
  3  4  1  0
  4  5  2  0
  5  6  1  0
  6  7  2  0
  7  8  1  0
  8  9  1  0
  9 10  1  0
  9 11  1  0
  9 12  1  0
  8 13  2  0
 13 14  1  0
 13 15  1  0
 15 16  1  0
 15 17  2  0
 17 18  1  0
 17 19  1  0
 19 20  1  0
 20 21  1  0
 21 22  1  0
 20 23  2  0
 23 24  1  0
 24 25  1  0
 24 26  2  0
 26 27  1  0
 27 28  2  0
 27 29  1  0
 29 30  1  0
 30 31  1  1
 30 32  1  0
 32 33  2  0
 33 34  1  0
 33 35  1  0
 35 36  1  0
 35 37  2  0
 37 38  1  0
 37 39  1  0
 39 40  1  0
 39 41  2  0
 41 42  1  0
 30 43  1  0
 43 44  1  0
 43 45  1  0
 43 46  1  0
 26  3  1  0
 41 32  1  0
 23  5  1  0
 19  7  1  0
M  CHG  1  29  -1
M  END
>  <UniqueID>  (31) 
114

>  <SMILES>  (31) 
[H]/N=c1\nc2nc3c(C)cccn3c(O)c-2cc1C(=O)[N-][C@@H](C)c1ccccc1

>  <Energy>  (31) 
63.00471694634258

>  <Genealogy>  (31) 
Cc1cccn2c(=O)c3cc(C(=O)[N-][C@@H](C)c4ccccc4)c(=N)[nH]c3nc12 (protonated)
Cc1cccn2c(O)c3cc(C(=O)[N-][C@@H](C)c4ccccc4)c(=N)nc-3nc12 (tautomer)
[H]/N=c1\nc2nc3c(C)cccn3c(O)c-2cc1C(=O)[N-][C@@H](C)c1ccccc1 (cis-trans isomerization)
[H]/N=c1\nc2nc3c(C)cccn3c(O)c-2cc1C(=O)[N-][C@@H](C)c1ccccc1 (3D coordinates assigned)
[H]/N=c1\nc2nc3c(C)cccn3c(O)c-2cc1C(=O)[N-][C@@H](C)c1ccccc1 (optimized conformer: 63.00471694634258 kcal/mol)

>  <smiles>  (31) 
Cc1cccn2c(=O)c3cc(C(=O)N[C@@H](C)c4ccccc4)c(=N)[nH]c3nc12

>  <score_type>  (31) 
oracle

>  <origin>  (31) 
autodockgpu

>  <m_score__min__energy>  (31) 
-7.8600000000000003

>  <m_primary>  (31) 
energy

>  <meeko>  (31) 
{"free_energy": -7.73, "intermolecular_energy": -9.52, "internal_energy": -1.06, "cluster_size": 7, "cluster_id": 1, "rank_in_cluster": 4}

>  <energy>  (31) 
-6.58

>  <cluster_rmsd>  (31) 
0.04

>  <rmsd>  (31) 
270.92

>  <cluster>  (31) 
3

$$$$
ZIUJVUPDDLJBQX-BJEHGDLWNA-M
     RDKit          3D

 46 49  0  0  0  0  0  0  0  0999 V2000
  139.9690   68.5880  222.0310 H   0  0  0  0  0  0  0  0  0  0  0  0
  140.2990   69.2110  221.2600 N   0  0  0  0  0  0  0  0  0  0  0  0
  140.2890   70.5020  221.3770 C   0  0  0  0  0  0  0  0  0  0  0  0
  141.0990   71.2500  220.5780 N   0  0  0  0  0  0  0  0  0  0  0  0
  141.1420   72.6010  220.6720 C   0  0  0  0  0  0  0  0  0  0  0  0
  141.9700   73.3190  219.8880 N   0  0  0  0  0  0  0  0  0  0  0  0
  142.0300   74.6760  219.9660 C   0  0  0  0  0  0  0  0  0  0  0  0
  142.9120   75.3600  219.1030 C   0  0  0  0  0  0  0  0  0  0  0  0
  143.7880   74.6090  218.1350 C   0  0  0  0  0  0  0  0  0  0  0  0
  144.5073   73.9923  218.6939 H   0  0  0  0  0  0  0  0  0  0  0  0
  143.1637   73.9612  217.5021 H   0  0  0  0  0  0  0  0  0  0  0  0
  144.3328   75.3250  217.5021 H   0  0  0  0  0  0  0  0  0  0  0  0
  142.9530   76.7530  219.1380 C   0  0  0  0  0  0  0  0  0  0  0  0
  143.6403   77.3007  218.4765 H   0  0  0  0  0  0  0  0  0  0  0  0
  142.1260   77.4470  220.0080 C   0  0  0  0  0  0  0  0  0  0  0  0
  142.1455   78.5466  220.0280 H   0  0  0  0  0  0  0  0  0  0  0  0
  141.2700   76.7480  220.8570 C   0  0  0  0  0  0  0  0  0  0  0  0
  140.6108   77.3077  221.5368 H   0  0  0  0  0  0  0  0  0  0  0  0
  141.2320   75.3740  220.8630 N   0  0  0  0  0  0  0  0  0  0  0  0
  140.3970   74.6880  221.7280 C   0  0  0  0  0  0  0  0  0  0  0  0
  139.6440   75.3300  222.7220 O   0  0  0  0  0  0  0  0  0  0  0  0
  138.8710   74.9210  223.2240 H   0  0  0  0  0  0  0  0  0  0  0  0
  140.3010   73.2930  221.6460 C   0  0  0  0  0  0  0  0  0  0  0  0
  139.4700   72.5220  222.4650 C   0  0  0  0  0  0  0  0  0  0  0  0
  138.8181   73.0120  223.2032 H   0  0  0  0  0  0  0  0  0  0  0  0
  139.4670   71.1240  222.3460 C   0  0  0  0  0  0  0  0  0  0  0  0
  138.6350   70.3190  223.2650 C   0  0  0  0  0  0  0  0  0  0  0  0
  137.4170   70.6060  223.4010 O   0  0  0  0  0  0  0  0  0  0  0  0
  139.1670   69.1870  223.9690 N   0  0  0  0  0  0  0  0  0  0  0  0
  139.0570   68.9530  225.4110 C   0  0  2  0  0  0  0  0  0  0  0  0
  137.9965   69.0028  225.6990 H   0  0  0  0  0  0  0  0  0  0  0  0
  139.8000   70.0190  226.1910 C   0  0  0  0  0  0  0  0  0  0  0  0
  140.6630   70.9090  225.5240 C   0  0  0  0  0  0  0  0  0  0  0  0
  140.7694   70.8522  224.4306 H   0  0  0  0  0  0  0  0  0  0  0  0
  141.3850   71.8640  226.2440 C   0  0  0  0  0  0  0  0  0  0  0  0
  142.0647   72.5499  225.7172 H   0  0  0  0  0  0  0  0  0  0  0  0
  141.2460   71.9500  227.6310 C   0  0  0  0  0  0  0  0  0  0  0  0
  141.8177   72.7013  228.1956 H   0  0  0  0  0  0  0  0  0  0  0  0
  140.3800   71.0810  228.3020 C   0  0  0  0  0  0  0  0  0  0  0  0
  140.2668   71.1529  229.3938 H   0  0  0  0  0  0  0  0  0  0  0  0
  139.6580   70.1210  227.5870 C   0  0  0  0  0  0  0  0  0  0  0  0
  138.9753   69.4418  228.1186 H   0  0  0  0  0  0  0  0  0  0  0  0
  139.6090   67.5680  225.7440 C   0  0  0  0  0  0  0  0  0  0  0  0
  139.6578   67.4456  226.8361 H   0  0  0  0  0  0  0  0  0  0  0  0
  138.9490   66.7981  225.3179 H   0  0  0  0  0  0  0  0  0  0  0  0
  140.6177   67.4631  225.3179 H   0  0  0  0  0  0  0  0  0  0  0  0
  1  2  1  0
  2  3  2  0
  3  4  1  0
  4  5  2  0
  5  6  1  0
  6  7  2  0
  7  8  1  0
  8  9  1  0
  9 10  1  0
  9 11  1  0
  9 12  1  0
  8 13  2  0
 13 14  1  0
 13 15  1  0
 15 16  1  0
 15 17  2  0
 17 18  1  0
 17 19  1  0
 19 20  1  0
 20 21  1  0
 21 22  1  0
 20 23  2  0
 23 24  1  0
 24 25  1  0
 24 26  2  0
 26 27  1  0
 27 28  2  0
 27 29  1  0
 29 30  1  0
 30 31  1  1
 30 32  1  0
 32 33  2  0
 33 34  1  0
 33 35  1  0
 35 36  1  0
 35 37  2  0
 37 38  1  0
 37 39  1  0
 39 40  1  0
 39 41  2  0
 41 42  1  0
 30 43  1  0
 43 44  1  0
 43 45  1  0
 43 46  1  0
 26  3  1  0
 41 32  1  0
 23  5  1  0
 19  7  1  0
M  CHG  1  29  -1
M  END
>  <UniqueID>  (32) 
114

>  <SMILES>  (32) 
[H]/N=c1\nc2nc3c(C)cccn3c(O)c-2cc1C(=O)[N-][C@@H](C)c1ccccc1

>  <Energy>  (32) 
63.00471694634258

>  <Genealogy>  (32) 
Cc1cccn2c(=O)c3cc(C(=O)[N-][C@@H](C)c4ccccc4)c(=N)[nH]c3nc12 (protonated)
Cc1cccn2c(O)c3cc(C(=O)[N-][C@@H](C)c4ccccc4)c(=N)nc-3nc12 (tautomer)
[H]/N=c1\nc2nc3c(C)cccn3c(O)c-2cc1C(=O)[N-][C@@H](C)c1ccccc1 (cis-trans isomerization)
[H]/N=c1\nc2nc3c(C)cccn3c(O)c-2cc1C(=O)[N-][C@@H](C)c1ccccc1 (3D coordinates assigned)
[H]/N=c1\nc2nc3c(C)cccn3c(O)c-2cc1C(=O)[N-][C@@H](C)c1ccccc1 (optimized conformer: 63.00471694634258 kcal/mol)

>  <smiles>  (32) 
Cc1cccn2c(=O)c3cc(C(=O)N[C@@H](C)c4ccccc4)c(=N)[nH]c3nc12

>  <score_type>  (32) 
oracle

>  <origin>  (32) 
autodockgpu

>  <m_score__min__energy>  (32) 
-7.8600000000000003

>  <m_primary>  (32) 
energy

>  <meeko>  (32) 
{"free_energy": -6.96, "intermolecular_energy": -8.75, "internal_energy": -1.17, "cluster_size": 1, "cluster_id": 2, "rank_in_cluster": 1}

>  <energy>  (32) 
-6.56

>  <cluster_rmsd>  (32) 
0.1

>  <rmsd>  (32) 
270.88

>  <cluster>  (32) 
3

$$$$
ZIUJVUPDDLJBQX-BJEHGDLWNA-M
     RDKit          3D

 46 49  0  0  0  0  0  0  0  0999 V2000
  136.0620   76.9480  223.3800 H   0  0  0  0  0  0  0  0  0  0  0  0
  136.7150   76.1530  223.2030 N   0  0  0  0  0  0  0  0  0  0  0  0
  137.8450   76.3240  222.5920 C   0  0  0  0  0  0  0  0  0  0  0  0
  138.6440   75.2460  222.3560 N   0  0  0  0  0  0  0  0  0  0  0  0
  139.8440   75.3700  221.7390 C   0  0  0  0  0  0  0  0  0  0  0  0
  140.6290   74.2940  221.5390 N   0  0  0  0  0  0  0  0  0  0  0  0
  141.8370   74.3950  220.9210 C   0  0  0  0  0  0  0  0  0  0  0  0
  142.5970   73.2210  220.7360 C   0  0  0  0  0  0  0  0  0  0  0  0
  142.1000   71.8890  221.2290 C   0  0  0  0  0  0  0  0  0  0  0  0
  142.0977   71.8828  222.3290 H   0  0  0  0  0  0  0  0  0  0  0  0
  141.0780   71.7192  220.8592 H   0  0  0  0  0  0  0  0  0  0  0  0
  142.7610   71.0913  220.8592 H   0  0  0  0  0  0  0  0  0  0  0  0
  143.8170   73.3010  220.0650 C   0  0  0  0  0  0  0  0  0  0  0  0
  144.4247   72.3961  219.9175 H   0  0  0  0  0  0  0  0  0  0  0  0
  144.2630   74.5230  219.5840 C   0  0  0  0  0  0  0  0  0  0  0  0
  145.2185   74.5868  219.0427 H   0  0  0  0  0  0  0  0  0  0  0  0
  143.4980   75.6700  219.7880 C   0  0  0  0  0  0  0  0  0  0  0  0
  143.8551   76.6328  219.3937 H   0  0  0  0  0  0  0  0  0  0  0  0
  142.3060   75.6230  220.4720 N   0  0  0  0  0  0  0  0  0  0  0  0
  141.5660   76.7710  220.6930 C   0  0  0  0  0  0  0  0  0  0  0  0
  142.0330   78.0490  220.3520 O   0  0  0  0  0  0  0  0  0  0  0  0
  142.9210   78.4400  220.6280 H   0  0  0  0  0  0  0  0  0  0  0  0
  140.3080   76.6850  221.3020 C   0  0  0  0  0  0  0  0  0  0  0  0
  139.4850   77.7890  221.5450 C   0  0  0  0  0  0  0  0  0  0  0  0
  139.8006   78.7916  221.2208 H   0  0  0  0  0  0  0  0  0  0  0  0
  138.2570   77.6190  222.2020 C   0  0  0  0  0  0  0  0  0  0  0  0
  137.4300   78.8030  222.5130 C   0  0  0  0  0  0  0  0  0  0  0  0
  136.3030   78.6410  223.0510 O   0  0  0  0  0  0  0  0  0  0  0  0
  137.8970   80.1370  222.2640 N   0  0  0  0  0  0  0  0  0  0  0  0
  138.6780   80.9540  223.1950 C   0  0  2  0  0  0  0  0  0  0  0  0
  138.6306   82.0041  222.8709 H   0  0  0  0  0  0  0  0  0  0  0  0
  140.1340   80.5340  223.1950 C   0  0  0  0  0  0  0  0  0  0  0  0
  141.0700   81.2390  222.4160 C   0  0  0  0  0  0  0  0  0  0  0  0
  140.7486   82.1168  221.8361 H   0  0  0  0  0  0  0  0  0  0  0  0
  142.4060   80.8300  222.3750 C   0  0  0  0  0  0  0  0  0  0  0  0
  143.1306   81.3808  221.7573 H   0  0  0  0  0  0  0  0  0  0  0  0
  142.8220   79.7220  223.1180 C   0  0  0  0  0  0  0  0  0  0  0  0
  143.8730   79.3994  223.0822 H   0  0  0  0  0  0  0  0  0  0  0  0
  141.9030   79.0230  223.9070 C   0  0  0  0  0  0  0  0  0  0  0  0
  142.2330   78.1545  224.4959 H   0  0  0  0  0  0  0  0  0  0  0  0
  140.5650   79.4270  223.9480 C   0  0  0  0  0  0  0  0  0  0  0  0
  139.8459   78.8763  224.5723 H   0  0  0  0  0  0  0  0  0  0  0  0
  138.0880   80.8290  224.5990 C   0  0  0  0  0  0  0  0  0  0  0  0
  138.8786   80.9965  225.3452 H   0  0  0  0  0  0  0  0  0  0  0  0
  137.2942   81.5789  224.7312 H   0  0  0  0  0  0  0  0  0  0  0  0
  137.6665   79.8216  224.7312 H   0  0  0  0  0  0  0  0  0  0  0  0
  1  2  1  0
  2  3  2  0
  3  4  1  0
  4  5  2  0
  5  6  1  0
  6  7  2  0
  7  8  1  0
  8  9  1  0
  9 10  1  0
  9 11  1  0
  9 12  1  0
  8 13  2  0
 13 14  1  0
 13 15  1  0
 15 16  1  0
 15 17  2  0
 17 18  1  0
 17 19  1  0
 19 20  1  0
 20 21  1  0
 21 22  1  0
 20 23  2  0
 23 24  1  0
 24 25  1  0
 24 26  2  0
 26 27  1  0
 27 28  2  0
 27 29  1  0
 29 30  1  0
 30 31  1  6
 30 32  1  0
 32 33  2  0
 33 34  1  0
 33 35  1  0
 35 36  1  0
 35 37  2  0
 37 38  1  0
 37 39  1  0
 39 40  1  0
 39 41  2  0
 41 42  1  0
 30 43  1  0
 43 44  1  0
 43 45  1  0
 43 46  1  0
 26  3  1  0
 41 32  1  0
 23  5  1  0
 19  7  1  0
M  CHG  1  29  -1
M  END
>  <UniqueID>  (33) 
114

>  <SMILES>  (33) 
[H]/N=c1\nc2nc3c(C)cccn3c(O)c-2cc1C(=O)[N-][C@@H](C)c1ccccc1

>  <Energy>  (33) 
63.00471694634258

>  <Genealogy>  (33) 
Cc1cccn2c(=O)c3cc(C(=O)[N-][C@@H](C)c4ccccc4)c(=N)[nH]c3nc12 (protonated)
Cc1cccn2c(O)c3cc(C(=O)[N-][C@@H](C)c4ccccc4)c(=N)nc-3nc12 (tautomer)
[H]/N=c1\nc2nc3c(C)cccn3c(O)c-2cc1C(=O)[N-][C@@H](C)c1ccccc1 (cis-trans isomerization)
[H]/N=c1\nc2nc3c(C)cccn3c(O)c-2cc1C(=O)[N-][C@@H](C)c1ccccc1 (3D coordinates assigned)
[H]/N=c1\nc2nc3c(C)cccn3c(O)c-2cc1C(=O)[N-][C@@H](C)c1ccccc1 (optimized conformer: 63.00471694634258 kcal/mol)

>  <smiles>  (33) 
Cc1cccn2c(=O)c3cc(C(=O)N[C@@H](C)c4ccccc4)c(=N)[nH]c3nc12

>  <score_type>  (33) 
oracle

>  <origin>  (33) 
autodockgpu

>  <m_score__min__energy>  (33) 
-7.8600000000000003

>  <m_primary>  (33) 
energy

>  <meeko>  (33) 
{"free_energy": -6.56, "intermolecular_energy": -8.35, "internal_energy": -1.55, "cluster_size": 12, "cluster_id": 3, "rank_in_cluster": 5}

>  <energy>  (33) 
-6.56

>  <cluster_rmsd>  (33) 
0.06

>  <rmsd>  (33) 
270.9

>  <cluster>  (33) 
3

$$$$
ZIUJVUPDDLJBQX-BJEHGDLWNA-M
     RDKit          3D

 46 49  0  0  0  0  0  0  0  0999 V2000
  136.7360   79.0680  222.7490 H   0  0  0  0  0  0  0  0  0  0  0  0
  136.9220   78.0550  222.5810 N   0  0  0  0  0  0  0  0  0  0  0  0
  138.0380   77.6450  222.0640 C   0  0  0  0  0  0  0  0  0  0  0  0
  138.4220   76.3510  222.2490 N   0  0  0  0  0  0  0  0  0  0  0  0
  139.5880   75.8760  221.7480 C   0  0  0  0  0  0  0  0  0  0  0  0
  139.9600   74.5990  221.9660 N   0  0  0  0  0  0  0  0  0  0  0  0
  141.1250   74.1010  221.4720 C   0  0  0  0  0  0  0  0  0  0  0  0
  141.4410   72.7500  221.7310 C   0  0  0  0  0  0  0  0  0  0  0  0
  140.5250   71.8830  222.5530 C   0  0  0  0  0  0  0  0  0  0  0  0
  140.7132   72.0611  223.6220 H   0  0  0  0  0  0  0  0  0  0  0  0
  139.4789   72.1295  222.3188 H   0  0  0  0  0  0  0  0  0  0  0  0
  140.7137   70.8249  222.3188 H   0  0  0  0  0  0  0  0  0  0  0  0
  142.6100   72.2110  221.1940 C   0  0  0  0  0  0  0  0  0  0  0  0
  142.8736   71.1613  221.3908 H   0  0  0  0  0  0  0  0  0  0  0  0
  143.4390   73.0000  220.4120 C   0  0  0  0  0  0  0  0  0  0  0  0
  144.3548   72.5740  219.9762 H   0  0  0  0  0  0  0  0  0  0  0  0
  143.1100   74.3340  220.1790 C   0  0  0  0  0  0  0  0  0  0  0  0
  143.7693   74.9492  219.5490 H   0  0  0  0  0  0  0  0  0  0  0  0
  141.9790   74.8970  220.7200 N   0  0  0  0  0  0  0  0  0  0  0  0
  141.6740   76.2300  220.5050 C   0  0  0  0  0  0  0  0  0  0  0  0
  142.5430   77.1080  219.8400 O   0  0  0  0  0  0  0  0  0  0  0  0
  143.3320   77.5780  220.2590 H   0  0  0  0  0  0  0  0  0  0  0  0
  140.4670   76.7560  220.9810 C   0  0  0  0  0  0  0  0  0  0  0  0
  140.0690   78.0830  220.7920 C   0  0  0  0  0  0  0  0  0  0  0  0
  140.7031   78.7695  220.2118 H   0  0  0  0  0  0  0  0  0  0  0  0
  138.8610   78.5400  221.3420 C   0  0  0  0  0  0  0  0  0  0  0  0
  138.4870   79.9620  221.1930 C   0  0  0  0  0  0  0  0  0  0  0  0
  138.5680   80.5020  220.0590 O   0  0  0  0  0  0  0  0  0  0  0  0
  137.9880   80.7310  222.2960 N   0  0  0  0  0  0  0  0  0  0  0  0
  138.7700   81.1610  223.4580 C   0  0  2  0  0  0  0  0  0  0  0  0
  138.8196   82.2599  223.4653 H   0  0  0  0  0  0  0  0  0  0  0  0
  140.1880   80.6330  223.3820 C   0  0  0  0  0  0  0  0  0  0  0  0
  141.1820   81.3770  222.7190 C   0  0  0  0  0  0  0  0  0  0  0  0
  140.9349   82.3586  222.2884 H   0  0  0  0  0  0  0  0  0  0  0  0
  142.4810   80.8750  222.6050 C   0  0  0  0  0  0  0  0  0  0  0  0
  143.2501   81.4573  222.0764 H   0  0  0  0  0  0  0  0  0  0  0  0
  142.8050   79.6350  223.1610 C   0  0  0  0  0  0  0  0  0  0  0  0
  143.8281   79.2416  223.0692 H   0  0  0  0  0  0  0  0  0  0  0  0
  141.8290   78.8940  223.8340 C   0  0  0  0  0  0  0  0  0  0  0  0
  142.0859   77.9196  224.2751 H   0  0  0  0  0  0  0  0  0  0  0  0
  140.5270   79.3900  223.9470 C   0  0  0  0  0  0  0  0  0  0  0  0
  139.7633   78.8052  224.4806 H   0  0  0  0  0  0  0  0  0  0  0  0
  138.0890   80.6750  224.7370 C   0  0  0  0  0  0  0  0  0  0  0  0
  138.6321   81.0626  225.6116 H   0  0  0  0  0  0  0  0  0  0  0  0
  137.0507   81.0374  224.7600 H   0  0  0  0  0  0  0  0  0  0  0  0
  138.0941   79.5753  224.7600 H   0  0  0  0  0  0  0  0  0  0  0  0
  1  2  1  0
  2  3  2  0
  3  4  1  0
  4  5  2  0
  5  6  1  0
  6  7  2  0
  7  8  1  0
  8  9  1  0
  9 10  1  0
  9 11  1  0
  9 12  1  0
  8 13  2  0
 13 14  1  0
 13 15  1  0
 15 16  1  0
 15 17  2  0
 17 18  1  0
 17 19  1  0
 19 20  1  0
 20 21  1  0
 21 22  1  0
 20 23  2  0
 23 24  1  0
 24 25  1  0
 24 26  2  0
 26 27  1  0
 27 28  2  0
 27 29  1  0
 29 30  1  0
 30 31  1  1
 30 32  1  0
 32 33  2  0
 33 34  1  0
 33 35  1  0
 35 36  1  0
 35 37  2  0
 37 38  1  0
 37 39  1  0
 39 40  1  0
 39 41  2  0
 41 42  1  0
 30 43  1  0
 43 44  1  0
 43 45  1  0
 43 46  1  0
 26  3  1  0
 41 32  1  0
 23  5  1  0
 19  7  1  0
M  CHG  1  29  -1
M  END
>  <UniqueID>  (34) 
114

>  <SMILES>  (34) 
[H]/N=c1\nc2nc3c(C)cccn3c(O)c-2cc1C(=O)[N-][C@@H](C)c1ccccc1

>  <Energy>  (34) 
63.00471694634258

>  <Genealogy>  (34) 
Cc1cccn2c(=O)c3cc(C(=O)[N-][C@@H](C)c4ccccc4)c(=N)[nH]c3nc12 (protonated)
Cc1cccn2c(O)c3cc(C(=O)[N-][C@@H](C)c4ccccc4)c(=N)nc-3nc12 (tautomer)
[H]/N=c1\nc2nc3c(C)cccn3c(O)c-2cc1C(=O)[N-][C@@H](C)c1ccccc1 (cis-trans isomerization)
[H]/N=c1\nc2nc3c(C)cccn3c(O)c-2cc1C(=O)[N-][C@@H](C)c1ccccc1 (3D coordinates assigned)
[H]/N=c1\nc2nc3c(C)cccn3c(O)c-2cc1C(=O)[N-][C@@H](C)c1ccccc1 (optimized conformer: 63.00471694634258 kcal/mol)

>  <smiles>  (34) 
Cc1cccn2c(=O)c3cc(C(=O)N[C@@H](C)c4ccccc4)c(=N)[nH]c3nc12

>  <score_type>  (34) 
oracle

>  <origin>  (34) 
autodockgpu

>  <m_score__min__energy>  (34) 
-7.8600000000000003

>  <m_primary>  (34) 
energy

>  <meeko>  (34) 
{"free_energy": -6.32, "intermolecular_energy": -8.11, "internal_energy": -1.83, "cluster_size": 12, "cluster_id": 3, "rank_in_cluster": 11}

>  <energy>  (34) 
-6.56

>  <cluster_rmsd>  (34) 
0.07

>  <rmsd>  (34) 
270.91

>  <cluster>  (34) 
3

$$$$
ZIUJVUPDDLJBQX-BJEHGDLWNA-M
     RDKit          3D

 46 49  0  0  0  0  0  0  0  0999 V2000
  136.7650   79.0910  222.7150 H   0  0  0  0  0  0  0  0  0  0  0  0
  136.9450   78.0740  222.5590 N   0  0  0  0  0  0  0  0  0  0  0  0
  138.0590   77.6510  222.0480 C   0  0  0  0  0  0  0  0  0  0  0  0
  138.4300   76.3550  222.2410 N   0  0  0  0  0  0  0  0  0  0  0  0
  139.5930   75.8660  221.7460 C   0  0  0  0  0  0  0  0  0  0  0  0
  139.9520   74.5870  221.9710 N   0  0  0  0  0  0  0  0  0  0  0  0
  141.1140   74.0750  221.4840 C   0  0  0  0  0  0  0  0  0  0  0  0
  141.4170   72.7230  221.7500 C   0  0  0  0  0  0  0  0  0  0  0  0
  140.4910   71.8690  222.5740 C   0  0  0  0  0  0  0  0  0  0  0  0
  140.6828   72.0459  223.6426 H   0  0  0  0  0  0  0  0  0  0  0  0
  139.4479   72.1288  222.3408 H   0  0  0  0  0  0  0  0  0  0  0  0
  140.6657   70.8083  222.3408 H   0  0  0  0  0  0  0  0  0  0  0  0
  142.5820   72.1690  221.2200 C   0  0  0  0  0  0  0  0  0  0  0  0
  142.8348   71.1179  221.4232 H   0  0  0  0  0  0  0  0  0  0  0  0
  143.4210   72.9470  220.4360 C   0  0  0  0  0  0  0  0  0  0  0  0
  144.3341   72.5104  220.0052 H   0  0  0  0  0  0  0  0  0  0  0  0
  143.1050   74.2830  220.1950 C   0  0  0  0  0  0  0  0  0  0  0  0
  143.7712   74.8884  219.5628 H   0  0  0  0  0  0  0  0  0  0  0  0
  141.9780   74.8600  220.7310 N   0  0  0  0  0  0  0  0  0  0  0  0
  141.6860   76.1940  220.5070 C   0  0  0  0  0  0  0  0  0  0  0  0
  142.5660   77.0600  219.8410 O   0  0  0  0  0  0  0  0  0  0  0  0
  143.3380   77.5500  220.2670 H   0  0  0  0  0  0  0  0  0  0  0  0
  140.4830   76.7340  220.9770 C   0  0  0  0  0  0  0  0  0  0  0  0
  140.0980   78.0640  220.7800 C   0  0  0  0  0  0  0  0  0  0  0  0
  140.7401   78.7419  220.1984 H   0  0  0  0  0  0  0  0  0  0  0  0
  138.8930   78.5340  221.3240 C   0  0  0  0  0  0  0  0  0  0  0  0
  138.5320   79.9590  221.1660 C   0  0  0  0  0  0  0  0  0  0  0  0
  138.6370   80.4970  220.0330 O   0  0  0  0  0  0  0  0  0  0  0  0
  138.0210   80.7340  222.2600 N   0  0  0  0  0  0  0  0  0  0  0  0
  138.7740   81.1220  223.4550 C   0  0  2  0  0  0  0  0  0  0  0  0
  138.8142   82.2200  223.5081 H   0  0  0  0  0  0  0  0  0  0  0  0
  140.1980   80.6090  223.3880 C   0  0  0  0  0  0  0  0  0  0  0  0
  141.1940   81.3730  222.7530 C   0  0  0  0  0  0  0  0  0  0  0  0
  140.9440   82.3601  222.3368 H   0  0  0  0  0  0  0  0  0  0  0  0
  142.4990   80.8850  222.6480 C   0  0  0  0  0  0  0  0  0  0  0  0
  143.2701   81.4840  222.1415 H   0  0  0  0  0  0  0  0  0  0  0  0
  142.8260   79.6380  223.1850 C   0  0  0  0  0  0  0  0  0  0  0  0
  143.8537   79.2551  223.0996 H   0  0  0  0  0  0  0  0  0  0  0  0
  141.8480   78.8760  223.8310 C   0  0  0  0  0  0  0  0  0  0  0  0
  142.1080   77.8961  224.2579 H   0  0  0  0  0  0  0  0  0  0  0  0
  140.5400   79.3580  223.9350 C   0  0  0  0  0  0  0  0  0  0  0  0
  139.7742   78.7567  224.4468 H   0  0  0  0  0  0  0  0  0  0  0  0
  138.0700   80.5810  224.6980 C   0  0  0  0  0  0  0  0  0  0  0  0
  138.5702   80.9654  225.5992 H   0  0  0  0  0  0  0  0  0  0  0  0
  137.0192   80.9062  224.6950 H   0  0  0  0  0  0  0  0  0  0  0  0
  138.1137   79.4819  224.6950 H   0  0  0  0  0  0  0  0  0  0  0  0
  1  2  1  0
  2  3  2  0
  3  4  1  0
  4  5  2  0
  5  6  1  0
  6  7  2  0
  7  8  1  0
  8  9  1  0
  9 10  1  0
  9 11  1  0
  9 12  1  0
  8 13  2  0
 13 14  1  0
 13 15  1  0
 15 16  1  0
 15 17  2  0
 17 18  1  0
 17 19  1  0
 19 20  1  0
 20 21  1  0
 21 22  1  0
 20 23  2  0
 23 24  1  0
 24 25  1  0
 24 26  2  0
 26 27  1  0
 27 28  2  0
 27 29  1  0
 29 30  1  0
 30 31  1  1
 30 32  1  0
 32 33  2  0
 33 34  1  0
 33 35  1  0
 35 36  1  0
 35 37  2  0
 37 38  1  0
 37 39  1  0
 39 40  1  0
 39 41  2  0
 41 42  1  0
 30 43  1  0
 43 44  1  0
 43 45  1  0
 43 46  1  0
 26  3  1  0
 41 32  1  0
 23  5  1  0
 19  7  1  0
M  CHG  1  29  -1
M  END
>  <UniqueID>  (35) 
114

>  <SMILES>  (35) 
[H]/N=c1\nc2nc3c(C)cccn3c(O)c-2cc1C(=O)[N-][C@@H](C)c1ccccc1

>  <Energy>  (35) 
63.00471694634258

>  <Genealogy>  (35) 
Cc1cccn2c(=O)c3cc(C(=O)[N-][C@@H](C)c4ccccc4)c(=N)[nH]c3nc12 (protonated)
Cc1cccn2c(O)c3cc(C(=O)[N-][C@@H](C)c4ccccc4)c(=N)nc-3nc12 (tautomer)
[H]/N=c1\nc2nc3c(C)cccn3c(O)c-2cc1C(=O)[N-][C@@H](C)c1ccccc1 (cis-trans isomerization)
[H]/N=c1\nc2nc3c(C)cccn3c(O)c-2cc1C(=O)[N-][C@@H](C)c1ccccc1 (3D coordinates assigned)
[H]/N=c1\nc2nc3c(C)cccn3c(O)c-2cc1C(=O)[N-][C@@H](C)c1ccccc1 (optimized conformer: 63.00471694634258 kcal/mol)

>  <smiles>  (35) 
Cc1cccn2c(=O)c3cc(C(=O)N[C@@H](C)c4ccccc4)c(=N)[nH]c3nc12

>  <score_type>  (35) 
oracle

>  <origin>  (35) 
autodockgpu

>  <m_score__min__energy>  (35) 
-7.8600000000000003

>  <m_primary>  (35) 
energy

>  <meeko>  (35) 
{"free_energy": -6.33, "intermolecular_energy": -8.12, "internal_energy": -1.82, "cluster_size": 12, "cluster_id": 3, "rank_in_cluster": 9}

>  <energy>  (35) 
-6.55

>  <cluster_rmsd>  (35) 
0.1

>  <rmsd>  (35) 
270.89

>  <cluster>  (35) 
3

$$$$
ZIUJVUPDDLJBQX-BJEHGDLWNA-M
     RDKit          3D

 46 49  0  0  0  0  0  0  0  0999 V2000
  134.1840   68.2900  226.3000 H   0  0  0  0  0  0  0  0  0  0  0  0
  133.9590   69.1760  226.8060 N   0  0  0  0  0  0  0  0  0  0  0  0
  134.2330   70.3370  226.2990 C   0  0  0  0  0  0  0  0  0  0  0  0
  133.6060   71.4430  226.7880 N   0  0  0  0  0  0  0  0  0  0  0  0
  133.8400   72.6770  226.2810 C   0  0  0  0  0  0  0  0  0  0  0  0
  133.1890   73.7530  226.7650 N   0  0  0  0  0  0  0  0  0  0  0  0
  133.4080   75.0020  226.2720 C   0  0  0  0  0  0  0  0  0  0  0  0
  132.6980   76.0820  226.8370 C   0  0  0  0  0  0  0  0  0  0  0  0
  131.7020   75.8600  227.9440 C   0  0  0  0  0  0  0  0  0  0  0  0
  132.2037   75.9718  228.9165 H   0  0  0  0  0  0  0  0  0  0  0  0
  130.8919   76.5996  227.8621 H   0  0  0  0  0  0  0  0  0  0  0  0
  131.2827   74.8464  227.8621 H   0  0  0  0  0  0  0  0  0  0  0  0
  132.9440   77.3740  226.3740 C   0  0  0  0  0  0  0  0  0  0  0  0
  132.3942   78.2260  226.8004 H   0  0  0  0  0  0  0  0  0  0  0  0
  133.8830   77.5830  225.3750 C   0  0  0  0  0  0  0  0  0  0  0  0
  134.0892   78.6024  225.0167 H   0  0  0  0  0  0  0  0  0  0  0  0
  134.5650   76.4980  224.8260 C   0  0  0  0  0  0  0  0  0  0  0  0
  135.3158   76.6749  224.0418 H   0  0  0  0  0  0  0  0  0  0  0  0
  134.3190   75.2120  225.2440 N   0  0  0  0  0  0  0  0  0  0  0  0
  134.9820   74.1390  224.6750 C   0  0  0  0  0  0  0  0  0  0  0  0
  135.8360   74.2770  223.5710 O   0  0  0  0  0  0  0  0  0  0  0  0
  136.8100   74.0150  223.5500 H   0  0  0  0  0  0  0  0  0  0  0  0
  134.7910   72.8500  225.1850 C   0  0  0  0  0  0  0  0  0  0  0  0
  135.4340   71.7120  224.6850 C   0  0  0  0  0  0  0  0  0  0  0  0
  136.1622   71.8070  223.8661 H   0  0  0  0  0  0  0  0  0  0  0  0
  135.1500   70.4500  225.2280 C   0  0  0  0  0  0  0  0  0  0  0  0
  135.7850   69.2500  224.6440 C   0  0  0  0  0  0  0  0  0  0  0  0
  135.1420   68.5590  223.8110 O   0  0  0  0  0  0  0  0  0  0  0  0
  137.1330   68.8770  224.9640 N   0  0  0  0  0  0  0  0  0  0  0  0
  138.3410   69.4690  224.3840 C   0  0  2  0  0  0  0  0  0  0  0  0
  138.9063   68.6827  223.8622 H   0  0  0  0  0  0  0  0  0  0  0  0
  139.2360   70.0430  225.4640 C   0  0  0  0  0  0  0  0  0  0  0  0
  139.2130   69.4980  226.7610 C   0  0  0  0  0  0  0  0  0  0  0  0
  138.5711   68.6319  226.9796 H   0  0  0  0  0  0  0  0  0  0  0  0
  140.0020   70.0520  227.7730 C   0  0  0  0  0  0  0  0  0  0  0  0
  139.9726   69.6267  228.7870 H   0  0  0  0  0  0  0  0  0  0  0  0
  140.8280   71.1450  227.4990 C   0  0  0  0  0  0  0  0  0  0  0  0
  141.4468   71.5806  228.2973 H   0  0  0  0  0  0  0  0  0  0  0  0
  140.8680   71.6850  226.2100 C   0  0  0  0  0  0  0  0  0  0  0  0
  141.5219   72.5428  225.9941 H   0  0  0  0  0  0  0  0  0  0  0  0
  140.0790   71.1370  225.1960 C   0  0  0  0  0  0  0  0  0  0  0  0
  140.1170   71.5631  224.1826 H   0  0  0  0  0  0  0  0  0  0  0  0
  137.9450   70.5560  223.3860 C   0  0  0  0  0  0  0  0  0  0  0  0
  137.6181   71.4534  223.9318 H   0  0  0  0  0  0  0  0  0  0  0  0
  138.8098   70.8060  222.7539 H   0  0  0  0  0  0  0  0  0  0  0  0
  137.1220   70.1912  222.7539 H   0  0  0  0  0  0  0  0  0  0  0  0
  1  2  1  0
  2  3  2  0
  3  4  1  0
  4  5  2  0
  5  6  1  0
  6  7  2  0
  7  8  1  0
  8  9  1  0
  9 10  1  0
  9 11  1  0
  9 12  1  0
  8 13  2  0
 13 14  1  0
 13 15  1  0
 15 16  1  0
 15 17  2  0
 17 18  1  0
 17 19  1  0
 19 20  1  0
 20 21  1  0
 21 22  1  0
 20 23  2  0
 23 24  1  0
 24 25  1  0
 24 26  2  0
 26 27  1  0
 27 28  2  0
 27 29  1  0
 29 30  1  0
 30 31  1  6
 30 32  1  0
 32 33  2  0
 33 34  1  0
 33 35  1  0
 35 36  1  0
 35 37  2  0
 37 38  1  0
 37 39  1  0
 39 40  1  0
 39 41  2  0
 41 42  1  0
 30 43  1  0
 43 44  1  0
 43 45  1  0
 43 46  1  0
 26  3  1  0
 41 32  1  0
 23  5  1  0
 19  7  1  0
M  CHG  1  29  -1
M  END
>  <UniqueID>  (36) 
114

>  <SMILES>  (36) 
[H]/N=c1\nc2nc3c(C)cccn3c(O)c-2cc1C(=O)[N-][C@@H](C)c1ccccc1

>  <Energy>  (36) 
63.00471694634258

>  <Genealogy>  (36) 
Cc1cccn2c(=O)c3cc(C(=O)[N-][C@@H](C)c4ccccc4)c(=N)[nH]c3nc12 (protonated)
Cc1cccn2c(O)c3cc(C(=O)[N-][C@@H](C)c4ccccc4)c(=N)nc-3nc12 (tautomer)
[H]/N=c1\nc2nc3c(C)cccn3c(O)c-2cc1C(=O)[N-][C@@H](C)c1ccccc1 (cis-trans isomerization)
[H]/N=c1\nc2nc3c(C)cccn3c(O)c-2cc1C(=O)[N-][C@@H](C)c1ccccc1 (3D coordinates assigned)
[H]/N=c1\nc2nc3c(C)cccn3c(O)c-2cc1C(=O)[N-][C@@H](C)c1ccccc1 (optimized conformer: 63.00471694634258 kcal/mol)

>  <smiles>  (36) 
Cc1cccn2c(=O)c3cc(C(=O)N[C@@H](C)c4ccccc4)c(=N)[nH]c3nc12

>  <score_type>  (36) 
oracle

>  <origin>  (36) 
autodockgpu

>  <m_score__min__energy>  (36) 
-7.8600000000000003

>  <m_primary>  (36) 
energy

>  <meeko>  (36) 
{"free_energy": -7.86, "intermolecular_energy": -9.65, "internal_energy": -0.6, "cluster_size": 7, "cluster_id": 1, "rank_in_cluster": 1}

>  <energy>  (36) 
-6.44

>  <cluster_rmsd>  (36) 
0.53

>  <rmsd>  (36) 
270.89

>  <cluster>  (36) 
3

$$$$
ZIUJVUPDDLJBQX-BJEHGDLWNA-M
     RDKit          3D

 46 49  0  0  0  0  0  0  0  0999 V2000
  135.8170   77.6530  223.1860 H   0  0  0  0  0  0  0  0  0  0  0  0
  136.4080   76.7950  223.1360 N   0  0  0  0  0  0  0  0  0  0  0  0
  137.5690   76.8010  222.5580 C   0  0  0  0  0  0  0  0  0  0  0  0
  138.2700   75.6370  222.4600 N   0  0  0  0  0  0  0  0  0  0  0  0
  139.4960   75.5910  221.8850 C   0  0  0  0  0  0  0  0  0  0  0  0
  140.1820   74.4330  221.8210 N   0  0  0  0  0  0  0  0  0  0  0  0
  141.4140   74.3630  221.2480 C   0  0  0  0  0  0  0  0  0  0  0  0
  142.0660   73.1130  221.2080 C   0  0  0  0  0  0  0  0  0  0  0  0
  141.4300   71.8860  221.8050 C   0  0  0  0  0  0  0  0  0  0  0  0
  141.4644   71.9523  222.9025 H   0  0  0  0  0  0  0  0  0  0  0  0
  140.3831   71.8179  221.4744 H   0  0  0  0  0  0  0  0  0  0  0  0
  141.9778   70.9913  221.4744 H   0  0  0  0  0  0  0  0  0  0  0  0
  143.3100   73.0140  220.5830 C   0  0  0  0  0  0  0  0  0  0  0  0
  143.8344   72.0477  220.5483 H   0  0  0  0  0  0  0  0  0  0  0  0
  143.8830   74.1370  220.0060 C   0  0  0  0  0  0  0  0  0  0  0  0
  144.8568   74.0605  219.5002 H   0  0  0  0  0  0  0  0  0  0  0  0
  143.2230   75.3630  220.0680 C   0  0  0  0  0  0  0  0  0  0  0  0
  143.6818   76.2459  219.5989 H   0  0  0  0  0  0  0  0  0  0  0  0
  142.0110   75.4920  220.7030 N   0  0  0  0  0  0  0  0  0  0  0  0
  141.3760   76.7200  220.7820 C   0  0  0  0  0  0  0  0  0  0  0  0
  141.9710   77.9100  220.3400 O   0  0  0  0  0  0  0  0  0  0  0  0
  142.9470   78.1470  220.4390 H   0  0  0  0  0  0  0  0  0  0  0  0
  140.0960   76.8080  221.3430 C   0  0  0  0  0  0  0  0  0  0  0  0
  139.3730   78.0010  221.4450 C   0  0  0  0  0  0  0  0  0  0  0  0
  139.7918   78.9341  221.0401 H   0  0  0  0  0  0  0  0  0  0  0  0
  138.1130   78.0080  222.0640 C   0  0  0  0  0  0  0  0  0  0  0  0
  137.3920   79.2880  222.2260 C   0  0  0  0  0  0  0  0  0  0  0  0
  136.1550   79.2700  222.4630 O   0  0  0  0  0  0  0  0  0  0  0  0
  138.0710   80.5500  222.1680 N   0  0  0  0  0  0  0  0  0  0  0  0
  138.8890   81.1270  223.2380 C   0  0  2  0  0  0  0  0  0  0  0  0
  138.9645   82.2131  223.0810 H   0  0  0  0  0  0  0  0  0  0  0  0
  140.2930   80.5570  223.2140 C   0  0  0  0  0  0  0  0  0  0  0  0
  141.2910   81.1750  222.4400 C   0  0  0  0  0  0  0  0  0  0  0  0
  141.0591   82.0935  221.8809 H   0  0  0  0  0  0  0  0  0  0  0  0
  142.5760   80.6290  222.3770 C   0  0  0  0  0  0  0  0  0  0  0  0
  143.3490   81.1131  221.7621 H   0  0  0  0  0  0  0  0  0  0  0  0
  142.8800   79.4690  223.0940 C   0  0  0  0  0  0  0  0  0  0  0  0
  143.8913   79.0394  223.0417 H   0  0  0  0  0  0  0  0  0  0  0  0
  141.8990   78.8540  223.8780 C   0  0  0  0  0  0  0  0  0  0  0  0
  142.1407   77.9438  224.4465 H   0  0  0  0  0  0  0  0  0  0  0  0
  140.6110   79.3950  223.9400 C   0  0  0  0  0  0  0  0  0  0  0  0
  139.8427   78.9094  224.5596 H   0  0  0  0  0  0  0  0  0  0  0  0
  138.2260   80.8550  224.5870 C   0  0  0  0  0  0  0  0  0  0  0  0
  138.9142   81.1373  225.3974 H   0  0  0  0  0  0  0  0  0  0  0  0
  137.3023   81.4468  224.6675 H   0  0  0  0  0  0  0  0  0  0  0  0
  137.9841   79.7850  224.6675 H   0  0  0  0  0  0  0  0  0  0  0  0
  1  2  1  0
  2  3  2  0
  3  4  1  0
  4  5  2  0
  5  6  1  0
  6  7  2  0
  7  8  1  0
  8  9  1  0
  9 10  1  0
  9 11  1  0
  9 12  1  0
  8 13  2  0
 13 14  1  0
 13 15  1  0
 15 16  1  0
 15 17  2  0
 17 18  1  0
 17 19  1  0
 19 20  1  0
 20 21  1  0
 21 22  1  0
 20 23  2  0
 23 24  1  0
 24 25  1  0
 24 26  2  0
 26 27  1  0
 27 28  2  0
 27 29  1  0
 29 30  1  0
 30 31  1  6
 30 32  1  0
 32 33  2  0
 33 34  1  0
 33 35  1  0
 35 36  1  0
 35 37  2  0
 37 38  1  0
 37 39  1  0
 39 40  1  0
 39 41  2  0
 41 42  1  0
 30 43  1  0
 43 44  1  0
 43 45  1  0
 43 46  1  0
 26  3  1  0
 41 32  1  0
 23  5  1  0
 19  7  1  0
M  CHG  1  29  -1
M  END
>  <UniqueID>  (37) 
114

>  <SMILES>  (37) 
[H]/N=c1\nc2nc3c(C)cccn3c(O)c-2cc1C(=O)[N-][C@@H](C)c1ccccc1

>  <Energy>  (37) 
63.00471694634258

>  <Genealogy>  (37) 
Cc1cccn2c(=O)c3cc(C(=O)[N-][C@@H](C)c4ccccc4)c(=N)[nH]c3nc12 (protonated)
Cc1cccn2c(O)c3cc(C(=O)[N-][C@@H](C)c4ccccc4)c(=N)nc-3nc12 (tautomer)
[H]/N=c1\nc2nc3c(C)cccn3c(O)c-2cc1C(=O)[N-][C@@H](C)c1ccccc1 (cis-trans isomerization)
[H]/N=c1\nc2nc3c(C)cccn3c(O)c-2cc1C(=O)[N-][C@@H](C)c1ccccc1 (3D coordinates assigned)
[H]/N=c1\nc2nc3c(C)cccn3c(O)c-2cc1C(=O)[N-][C@@H](C)c1ccccc1 (optimized conformer: 63.00471694634258 kcal/mol)

>  <smiles>  (37) 
Cc1cccn2c(=O)c3cc(C(=O)N[C@@H](C)c4ccccc4)c(=N)[nH]c3nc12

>  <score_type>  (37) 
oracle

>  <origin>  (37) 
autodockgpu

>  <m_score__min__energy>  (37) 
-7.8600000000000003

>  <m_primary>  (37) 
energy

>  <meeko>  (37) 
{"free_energy": -6.44, "intermolecular_energy": -8.23, "internal_energy": -1.67, "cluster_size": 12, "cluster_id": 3, "rank_in_cluster": 8}

>  <energy>  (37) 
-6.33

>  <cluster_rmsd>  (37) 
1.34

>  <rmsd>  (37) 
270.88

>  <cluster>  (37) 
3

$$$$
ZIUJVUPDDLJBQX-BJEHGDLWNA-M
     RDKit          3D

 46 49  0  0  0  0  0  0  0  0999 V2000
  134.1750   68.4070  226.1160 H   0  0  0  0  0  0  0  0  0  0  0  0
  133.9140   69.2760  226.6320 N   0  0  0  0  0  0  0  0  0  0  0  0
  134.1870   70.4540  226.1650 C   0  0  0  0  0  0  0  0  0  0  0  0
  133.5710   71.5430  226.7010 N   0  0  0  0  0  0  0  0  0  0  0  0
  133.8040   72.7950  226.2380 C   0  0  0  0  0  0  0  0  0  0  0  0
  133.1630   73.8550  226.7670 N   0  0  0  0  0  0  0  0  0  0  0  0
  133.3830   75.1200  226.3180 C   0  0  0  0  0  0  0  0  0  0  0  0
  132.6840   76.1810  226.9300 C   0  0  0  0  0  0  0  0  0  0  0  0
  131.6990   75.9230  228.0390 C   0  0  0  0  0  0  0  0  0  0  0  0
  132.1981   76.0537  229.0105 H   0  0  0  0  0  0  0  0  0  0  0  0
  130.8620   76.6322  227.9584 H   0  0  0  0  0  0  0  0  0  0  0  0
  131.3172   74.8945  227.9584 H   0  0  0  0  0  0  0  0  0  0  0  0
  132.9310   77.4890  226.5120 C   0  0  0  0  0  0  0  0  0  0  0  0
  132.3900   78.3272  226.9754 H   0  0  0  0  0  0  0  0  0  0  0  0
  133.8600   77.7300  225.5110 C   0  0  0  0  0  0  0  0  0  0  0  0
  134.0676   78.7609  225.1881 H   0  0  0  0  0  0  0  0  0  0  0  0
  134.5300   76.6630  224.9150 C   0  0  0  0  0  0  0  0  0  0  0  0
  135.2722   76.8650  224.1286 H   0  0  0  0  0  0  0  0  0  0  0  0
  134.2830   75.3640  225.2890 N   0  0  0  0  0  0  0  0  0  0  0  0
  134.9350   74.3100  224.6730 C   0  0  0  0  0  0  0  0  0  0  0  0
  135.7780   74.4840  223.5650 O   0  0  0  0  0  0  0  0  0  0  0  0
  136.7250   74.1440  223.4930 H   0  0  0  0  0  0  0  0  0  0  0  0
  134.7440   73.0030  225.1380 C   0  0  0  0  0  0  0  0  0  0  0  0
  135.3760   71.8820  224.5900 C   0  0  0  0  0  0  0  0  0  0  0  0
  136.0956   72.0043  223.7670 H   0  0  0  0  0  0  0  0  0  0  0  0
  135.0930   70.6020  225.0890 C   0  0  0  0  0  0  0  0  0  0  0  0
  135.7160   69.4210  224.4540 C   0  0  0  0  0  0  0  0  0  0  0  0
  135.0340   68.3740  224.3020 O   0  0  0  0  0  0  0  0  0  0  0  0
  137.0640   69.4510  223.9630 N   0  0  0  0  0  0  0  0  0  0  0  0
  138.1370   68.5390  224.3640 C   0  0  2  0  0  0  0  0  0  0  0  0
  137.6939   67.6810  224.8908 H   0  0  0  0  0  0  0  0  0  0  0  0
  139.1010   69.2200  225.3150 C   0  0  0  0  0  0  0  0  0  0  0  0
  139.5460   68.5470  226.4680 C   0  0  0  0  0  0  0  0  0  0  0  0
  139.2218   67.5132  226.6578 H   0  0  0  0  0  0  0  0  0  0  0  0
  140.3980   69.1860  227.3730 C   0  0  0  0  0  0  0  0  0  0  0  0
  140.7345   68.6577  228.2772 H   0  0  0  0  0  0  0  0  0  0  0  0
  140.8230   70.4950  227.1310 C   0  0  0  0  0  0  0  0  0  0  0  0
  141.4916   70.9969  227.8459 H   0  0  0  0  0  0  0  0  0  0  0  0
  140.3990   71.1670  225.9810 C   0  0  0  0  0  0  0  0  0  0  0  0
  140.7393   72.1952  225.7887 H   0  0  0  0  0  0  0  0  0  0  0  0
  139.5430   70.5340  225.0750 C   0  0  0  0  0  0  0  0  0  0  0  0
  139.2135   71.0657  224.1702 H   0  0  0  0  0  0  0  0  0  0  0  0
  138.8760   68.0450  223.1210 C   0  0  0  0  0  0  0  0  0  0  0  0
  139.7546   67.4577  223.4260 H   0  0  0  0  0  0  0  0  0  0  0  0
  138.2035   67.4142  222.5211 H   0  0  0  0  0  0  0  0  0  0  0  0
  139.2018   68.9075  222.5211 H   0  0  0  0  0  0  0  0  0  0  0  0
  1  2  1  0
  2  3  2  0
  3  4  1  0
  4  5  2  0
  5  6  1  0
  6  7  2  0
  7  8  1  0
  8  9  1  0
  9 10  1  0
  9 11  1  0
  9 12  1  0
  8 13  2  0
 13 14  1  0
 13 15  1  0
 15 16  1  0
 15 17  2  0
 17 18  1  0
 17 19  1  0
 19 20  1  0
 20 21  1  0
 21 22  1  0
 20 23  2  0
 23 24  1  0
 24 25  1  0
 24 26  2  0
 26 27  1  0
 27 28  2  0
 27 29  1  0
 29 30  1  0
 30 31  1  1
 30 32  1  0
 32 33  2  0
 33 34  1  0
 33 35  1  0
 35 36  1  0
 35 37  2  0
 37 38  1  0
 37 39  1  0
 39 40  1  0
 39 41  2  0
 41 42  1  0
 30 43  1  0
 43 44  1  0
 43 45  1  0
 43 46  1  0
 26  3  1  0
 41 32  1  0
 23  5  1  0
 19  7  1  0
M  CHG  1  29  -1
M  END
>  <UniqueID>  (38) 
114

>  <SMILES>  (38) 
[H]/N=c1\nc2nc3c(C)cccn3c(O)c-2cc1C(=O)[N-][C@@H](C)c1ccccc1

>  <Energy>  (38) 
63.00471694634258

>  <Genealogy>  (38) 
Cc1cccn2c(=O)c3cc(C(=O)[N-][C@@H](C)c4ccccc4)c(=N)[nH]c3nc12 (protonated)
Cc1cccn2c(O)c3cc(C(=O)[N-][C@@H](C)c4ccccc4)c(=N)nc-3nc12 (tautomer)
[H]/N=c1\nc2nc3c(C)cccn3c(O)c-2cc1C(=O)[N-][C@@H](C)c1ccccc1 (cis-trans isomerization)
[H]/N=c1\nc2nc3c(C)cccn3c(O)c-2cc1C(=O)[N-][C@@H](C)c1ccccc1 (3D coordinates assigned)
[H]/N=c1\nc2nc3c(C)cccn3c(O)c-2cc1C(=O)[N-][C@@H](C)c1ccccc1 (optimized conformer: 63.00471694634258 kcal/mol)

>  <smiles>  (38) 
Cc1cccn2c(=O)c3cc(C(=O)N[C@@H](C)c4ccccc4)c(=N)[nH]c3nc12

>  <score_type>  (38) 
oracle

>  <origin>  (38) 
autodockgpu

>  <m_score__min__energy>  (38) 
-7.8600000000000003

>  <m_primary>  (38) 
energy

>  <meeko>  (38) 
{"free_energy": -7.71, "intermolecular_energy": -9.5, "internal_energy": -1.01, "cluster_size": 7, "cluster_id": 1, "rank_in_cluster": 7}

>  <energy>  (38) 
-6.33

>  <cluster_rmsd>  (38) 
1.32

>  <rmsd>  (38) 
270.88

>  <cluster>  (38) 
3

$$$$
ZIUJVUPDDLJBQX-BJEHGDLWNA-M
     RDKit          3D

 46 49  0  0  0  0  0  0  0  0999 V2000
  136.0360   76.9310  223.4360 H   0  0  0  0  0  0  0  0  0  0  0  0
  136.6870   76.1350  223.2510 N   0  0  0  0  0  0  0  0  0  0  0  0
  137.8110   76.3070  222.6300 C   0  0  0  0  0  0  0  0  0  0  0  0
  138.6070   75.2290  222.3830 N   0  0  0  0  0  0  0  0  0  0  0  0
  139.8020   75.3540  221.7560 C   0  0  0  0  0  0  0  0  0  0  0  0
  140.5830   74.2780  221.5450 N   0  0  0  0  0  0  0  0  0  0  0  0
  141.7860   74.3800  220.9170 C   0  0  0  0  0  0  0  0  0  0  0  0
  142.5430   73.2060  220.7210 C   0  0  0  0  0  0  0  0  0  0  0  0
  142.0490   71.8720  221.2150 C   0  0  0  0  0  0  0  0  0  0  0  0
  142.0469   71.8662  222.3150 H   0  0  0  0  0  0  0  0  0  0  0  0
  141.0274   71.6996  220.8454 H   0  0  0  0  0  0  0  0  0  0  0  0
  142.7119   71.0758  220.8454 H   0  0  0  0  0  0  0  0  0  0  0  0
  143.7570   73.2860  220.0390 C   0  0  0  0  0  0  0  0  0  0  0  0
  144.3625   72.3810  219.8829 H   0  0  0  0  0  0  0  0  0  0  0  0
  144.1990   74.5100  219.5580 C   0  0  0  0  0  0  0  0  0  0  0  0
  145.1492   74.5750  219.0076 H   0  0  0  0  0  0  0  0  0  0  0  0
  143.4380   75.6560  219.7730 C   0  0  0  0  0  0  0  0  0  0  0  0
  143.7926   76.6198  219.3788 H   0  0  0  0  0  0  0  0  0  0  0  0
  142.2520   75.6080  220.4680 N   0  0  0  0  0  0  0  0  0  0  0  0
  141.5160   76.7570  220.6990 C   0  0  0  0  0  0  0  0  0  0  0  0
  141.9800   78.0360  220.3580 O   0  0  0  0  0  0  0  0  0  0  0  0
  142.9040   78.3930  220.5520 H   0  0  0  0  0  0  0  0  0  0  0  0
  140.2630   76.6700  221.3190 C   0  0  0  0  0  0  0  0  0  0  0  0
  139.4430   77.7740  221.5730 C   0  0  0  0  0  0  0  0  0  0  0  0
  139.7563   78.7774  221.2488 H   0  0  0  0  0  0  0  0  0  0  0  0
  138.2210   77.6030  222.2410 C   0  0  0  0  0  0  0  0  0  0  0  0
  137.3980   78.7870  222.5640 C   0  0  0  0  0  0  0  0  0  0  0  0
  136.2860   78.6260  223.1320 O   0  0  0  0  0  0  0  0  0  0  0  0
  137.8530   80.1200  222.2900 N   0  0  0  0  0  0  0  0  0  0  0  0
  138.6550   80.9490  223.1940 C   0  0  2  0  0  0  0  0  0  0  0  0
  138.6126   81.9930  222.8502 H   0  0  0  0  0  0  0  0  0  0  0  0
  140.1070   80.5150  223.1810 C   0  0  0  0  0  0  0  0  0  0  0  0
  141.0410   81.2040  222.3860 C   0  0  0  0  0  0  0  0  0  0  0  0
  140.7218   82.0795  221.8015 H   0  0  0  0  0  0  0  0  0  0  0  0
  142.3720   80.7820  222.3350 C   0  0  0  0  0  0  0  0  0  0  0  0
  143.0951   81.3207  221.7049 H   0  0  0  0  0  0  0  0  0  0  0  0
  142.7860   79.6770  223.0830 C   0  0  0  0  0  0  0  0  0  0  0  0
  143.8335   79.3442  223.0387 H   0  0  0  0  0  0  0  0  0  0  0  0
  141.8690   78.9940  223.8880 C   0  0  0  0  0  0  0  0  0  0  0  0
  142.1975   78.1279  224.4812 H   0  0  0  0  0  0  0  0  0  0  0  0
  140.5360   79.4100  223.9400 C   0  0  0  0  0  0  0  0  0  0  0  0
  139.8188   78.8715  224.5769 H   0  0  0  0  0  0  0  0  0  0  0  0
  138.0840   80.8580  224.6080 C   0  0  0  0  0  0  0  0  0  0  0  0
  138.8949   80.9872  225.3399 H   0  0  0  0  0  0  0  0  0  0  0  0
  137.3316   81.6476  224.7511 H   0  0  0  0  0  0  0  0  0  0  0  0
  137.6143   79.8737  224.7511 H   0  0  0  0  0  0  0  0  0  0  0  0
  1  2  1  0
  2  3  2  0
  3  4  1  0
  4  5  2  0
  5  6  1  0
  6  7  2  0
  7  8  1  0
  8  9  1  0
  9 10  1  0
  9 11  1  0
  9 12  1  0
  8 13  2  0
 13 14  1  0
 13 15  1  0
 15 16  1  0
 15 17  2  0
 17 18  1  0
 17 19  1  0
 19 20  1  0
 20 21  1  0
 21 22  1  0
 20 23  2  0
 23 24  1  0
 24 25  1  0
 24 26  2  0
 26 27  1  0
 27 28  2  0
 27 29  1  0
 29 30  1  0
 30 31  1  6
 30 32  1  0
 32 33  2  0
 33 34  1  0
 33 35  1  0
 35 36  1  0
 35 37  2  0
 37 38  1  0
 37 39  1  0
 39 40  1  0
 39 41  2  0
 41 42  1  0
 30 43  1  0
 43 44  1  0
 43 45  1  0
 43 46  1  0
 26  3  1  0
 41 32  1  0
 23  5  1  0
 19  7  1  0
M  CHG  1  29  -1
M  END
>  <UniqueID>  (39) 
114

>  <SMILES>  (39) 
[H]/N=c1\nc2nc3c(C)cccn3c(O)c-2cc1C(=O)[N-][C@@H](C)c1ccccc1

>  <Energy>  (39) 
63.00471694634258

>  <Genealogy>  (39) 
Cc1cccn2c(=O)c3cc(C(=O)[N-][C@@H](C)c4ccccc4)c(=N)[nH]c3nc12 (protonated)
Cc1cccn2c(O)c3cc(C(=O)[N-][C@@H](C)c4ccccc4)c(=N)nc-3nc12 (tautomer)
[H]/N=c1\nc2nc3c(C)cccn3c(O)c-2cc1C(=O)[N-][C@@H](C)c1ccccc1 (cis-trans isomerization)
[H]/N=c1\nc2nc3c(C)cccn3c(O)c-2cc1C(=O)[N-][C@@H](C)c1ccccc1 (3D coordinates assigned)
[H]/N=c1\nc2nc3c(C)cccn3c(O)c-2cc1C(=O)[N-][C@@H](C)c1ccccc1 (optimized conformer: 63.00471694634258 kcal/mol)

>  <smiles>  (39) 
Cc1cccn2c(=O)c3cc(C(=O)N[C@@H](C)c4ccccc4)c(=N)[nH]c3nc12

>  <score_type>  (39) 
oracle

>  <origin>  (39) 
autodockgpu

>  <m_score__min__energy>  (39) 
-7.8600000000000003

>  <m_primary>  (39) 
energy

>  <meeko>  (39) 
{"free_energy": -6.56, "intermolecular_energy": -8.35, "internal_energy": -1.54, "cluster_size": 12, "cluster_id": 3, "rank_in_cluster": 4}

>  <energy>  (39) 
-6.32

>  <cluster_rmsd>  (39) 
1.32

>  <rmsd>  (39) 
270.88

>  <cluster>  (39) 
3

$$$$
ZIUJVUPDDLJBQX-BJEHGDLWNA-M
     RDKit          3D

 46 49  0  0  0  0  0  0  0  0999 V2000
  134.2910   68.4010  226.0630 H   0  0  0  0  0  0  0  0  0  0  0  0
  134.0730   69.2640  226.6080 N   0  0  0  0  0  0  0  0  0  0  0  0
  134.3340   70.4460  226.1450 C   0  0  0  0  0  0  0  0  0  0  0  0
  133.6790   71.5230  226.6590 N   0  0  0  0  0  0  0  0  0  0  0  0
  133.8990   72.7780  226.1980 C   0  0  0  0  0  0  0  0  0  0  0  0
  133.2200   73.8260  226.7050 N   0  0  0  0  0  0  0  0  0  0  0  0
  133.4250   75.0940  226.2570 C   0  0  0  0  0  0  0  0  0  0  0  0
  132.6860   76.1420  226.8450 C   0  0  0  0  0  0  0  0  0  0  0  0
  131.6750   75.8660  227.9260 C   0  0  0  0  0  0  0  0  0  0  0  0
  132.1471   75.9949  228.9111 H   0  0  0  0  0  0  0  0  0  0  0  0
  130.8331   76.5672  227.8283 H   0  0  0  0  0  0  0  0  0  0  0  0
  131.3062   74.8343  227.8283 H   0  0  0  0  0  0  0  0  0  0  0  0
  132.9170   77.4530  226.4290 C   0  0  0  0  0  0  0  0  0  0  0  0
  132.3447   78.2809  226.8730 H   0  0  0  0  0  0  0  0  0  0  0  0
  133.8690   77.7110  225.4550 C   0  0  0  0  0  0  0  0  0  0  0  0
  134.0636   78.7453  225.1350 H   0  0  0  0  0  0  0  0  0  0  0  0
  134.5790   76.6580  224.8820 C   0  0  0  0  0  0  0  0  0  0  0  0
  135.3388   76.8745  224.1166 H   0  0  0  0  0  0  0  0  0  0  0  0
  134.3500   75.3540  225.2530 N   0  0  0  0  0  0  0  0  0  0  0  0
  135.0420   74.3120  224.6600 C   0  0  0  0  0  0  0  0  0  0  0  0
  135.9120   74.5020  223.5770 O   0  0  0  0  0  0  0  0  0  0  0  0
  136.8540   74.1450  223.5150 H   0  0  0  0  0  0  0  0  0  0  0  0
  134.8660   73.0030  225.1250 C   0  0  0  0  0  0  0  0  0  0  0  0
  135.5370   71.8950  224.5990 C   0  0  0  0  0  0  0  0  0  0  0  0
  136.2767   72.0303  223.7962 H   0  0  0  0  0  0  0  0  0  0  0  0
  135.2670   70.6100  225.0950 C   0  0  0  0  0  0  0  0  0  0  0  0
  135.9340   69.4410  224.4830 C   0  0  0  0  0  0  0  0  0  0  0  0
  135.2360   68.4620  224.1120 O   0  0  0  0  0  0  0  0  0  0  0  0
  137.3500   69.4130  224.2560 N   0  0  0  0  0  0  0  0  0  0  0  0
  138.3280   68.6830  225.0670 C   0  0  2  0  0  0  0  0  0  0  0  0
  137.7899   68.0506  225.7885 H   0  0  0  0  0  0  0  0  0  0  0  0
  139.2030   69.6390  225.8510 C   0  0  0  0  0  0  0  0  0  0  0  0
  139.2840   69.5320  227.2520 C   0  0  0  0  0  0  0  0  0  0  0  0
  138.7391   68.7302  227.7719 H   0  0  0  0  0  0  0  0  0  0  0  0
  140.0530   70.4390  227.9860 C   0  0  0  0  0  0  0  0  0  0  0  0
  140.1043   70.3546  229.0816 H   0  0  0  0  0  0  0  0  0  0  0  0
  140.7570   71.4530  227.3310 C   0  0  0  0  0  0  0  0  0  0  0  0
  141.3600   72.1670  227.9111 H   0  0  0  0  0  0  0  0  0  0  0  0
  140.6950   71.5600  225.9390 C   0  0  0  0  0  0  0  0  0  0  0  0
  141.2534   72.3555  225.4239 H   0  0  0  0  0  0  0  0  0  0  0  0
  139.9240   70.6570  225.2000 C   0  0  0  0  0  0  0  0  0  0  0  0
  139.8810   70.7430  224.1042 H   0  0  0  0  0  0  0  0  0  0  0  0
  139.1840   67.8020  224.1580 C   0  0  0  0  0  0  0  0  0  0  0  0
  139.8193   67.1482  224.7736 H   0  0  0  0  0  0  0  0  0  0  0  0
  138.5303   67.1860  223.5231 H   0  0  0  0  0  0  0  0  0  0  0  0
  139.8186   68.4377  223.5231 H   0  0  0  0  0  0  0  0  0  0  0  0
  1  2  1  0
  2  3  2  0
  3  4  1  0
  4  5  2  0
  5  6  1  0
  6  7  2  0
  7  8  1  0
  8  9  1  0
  9 10  1  0
  9 11  1  0
  9 12  1  0
  8 13  2  0
 13 14  1  0
 13 15  1  0
 15 16  1  0
 15 17  2  0
 17 18  1  0
 17 19  1  0
 19 20  1  0
 20 21  1  0
 21 22  1  0
 20 23  2  0
 23 24  1  0
 24 25  1  0
 24 26  2  0
 26 27  1  0
 27 28  2  0
 27 29  1  0
 29 30  1  0
 30 31  1  1
 30 32  1  0
 32 33  2  0
 33 34  1  0
 33 35  1  0
 35 36  1  0
 35 37  2  0
 37 38  1  0
 37 39  1  0
 39 40  1  0
 39 41  2  0
 41 42  1  0
 30 43  1  0
 43 44  1  0
 43 45  1  0
 43 46  1  0
 26  3  1  0
 41 32  1  0
 23  5  1  0
 19  7  1  0
M  CHG  1  29  -1
M  END
>  <UniqueID>  (40) 
114

>  <SMILES>  (40) 
[H]/N=c1\nc2nc3c(C)cccn3c(O)c-2cc1C(=O)[N-][C@@H](C)c1ccccc1

>  <Energy>  (40) 
63.00471694634258

>  <Genealogy>  (40) 
Cc1cccn2c(=O)c3cc(C(=O)[N-][C@@H](C)c4ccccc4)c(=N)[nH]c3nc12 (protonated)
Cc1cccn2c(O)c3cc(C(=O)[N-][C@@H](C)c4ccccc4)c(=N)nc-3nc12 (tautomer)
[H]/N=c1\nc2nc3c(C)cccn3c(O)c-2cc1C(=O)[N-][C@@H](C)c1ccccc1 (cis-trans isomerization)
[H]/N=c1\nc2nc3c(C)cccn3c(O)c-2cc1C(=O)[N-][C@@H](C)c1ccccc1 (3D coordinates assigned)
[H]/N=c1\nc2nc3c(C)cccn3c(O)c-2cc1C(=O)[N-][C@@H](C)c1ccccc1 (optimized conformer: 63.00471694634258 kcal/mol)

>  <smiles>  (40) 
Cc1cccn2c(=O)c3cc(C(=O)N[C@@H](C)c4ccccc4)c(=N)[nH]c3nc12

>  <score_type>  (40) 
oracle

>  <origin>  (40) 
autodockgpu

>  <m_score__min__energy>  (40) 
-7.8600000000000003

>  <m_primary>  (40) 
energy

>  <meeko>  (40) 
{"free_energy": -7.73, "intermolecular_energy": -9.52, "internal_energy": -1.06, "cluster_size": 7, "cluster_id": 1, "rank_in_cluster": 3}

>  <energy>  (40) 
-6.31

>  <cluster_rmsd>  (40) 
1.33

>  <rmsd>  (40) 
270.88

>  <cluster>  (40) 
3

$$$$
PSCKMLPRYLACNW-QMAGNZAUNA-N
     RDKit          3D

 47 50  0  0  0  0  0  0  0  0999 V2000
  136.4600   70.7530  224.2230 H   0  0  0  0  0  0  0  0  0  0  0  0
  136.8170   71.6410  223.8060 N   0  0  0  0  0  0  0  0  0  0  0  0
  137.9940   71.7720  223.2700 C   0  0  0  0  0  0  0  0  0  0  0  0
  138.9260   70.7080  223.2600 C   0  0  0  0  0  0  0  0  0  0  0  0
  138.6170   69.3780  223.8230 C   0  0  0  0  0  0  0  0  0  0  0  0
  139.4870   68.6900  224.5100 N   0  0  0  0  0  0  0  0  0  0  0  0
  139.5560   68.5760  225.9710 C   0  0  2  0  0  0  0  0  0  0  0  0
  138.5420   68.4082  226.3629 H   0  0  0  0  0  0  0  0  0  0  0  0
  140.1160   69.8540  226.5530 C   0  0  0  0  0  0  0  0  0  0  0  0
  139.7590   70.2730  227.8490 C   0  0  0  0  0  0  0  0  0  0  0  0
  139.0880   69.6506  228.4592 H   0  0  0  0  0  0  0  0  0  0  0  0
  140.2520   71.4750  228.3650 C   0  0  0  0  0  0  0  0  0  0  0  0
  139.9743   71.7910  229.3814 H   0  0  0  0  0  0  0  0  0  0  0  0
  141.0960   72.2750  227.5930 C   0  0  0  0  0  0  0  0  0  0  0  0
  141.4840   73.2196  228.0018 H   0  0  0  0  0  0  0  0  0  0  0  0
  141.4480   71.8760  226.3010 C   0  0  0  0  0  0  0  0  0  0  0  0
  142.1113   72.5081  225.6923 H   0  0  0  0  0  0  0  0  0  0  0  0
  140.9580   70.6740  225.7810 C   0  0  0  0  0  0  0  0  0  0  0  0
  141.2331   70.3678  224.7609 H   0  0  0  0  0  0  0  0  0  0  0  0
  140.4380   67.3890  226.3750 C   0  0  0  0  0  0  0  0  0  0  0  0
  140.4859   67.3245  227.4721 H   0  0  0  0  0  0  0  0  0  0  0  0
  140.0096   66.4597  225.9714 H   0  0  0  0  0  0  0  0  0  0  0  0
  141.4514   67.5311  225.9714 H   0  0  0  0  0  0  0  0  0  0  0  0
  137.3470   68.8500  223.6140 O   0  0  0  0  0  0  0  0  0  0  0  0
  136.5560   69.4510  223.4120 H   0  0  0  0  0  0  0  0  0  0  0  0
  140.2010   70.9290  222.7270 C   0  0  0  0  0  0  0  0  0  0  0  0
  140.9522   70.1259  222.7529 H   0  0  0  0  0  0  0  0  0  0  0  0
  140.5250   72.1700  222.1600 C   0  0  0  0  0  0  0  0  0  0  0  0
  141.7780   72.4350  221.5800 C   0  0  0  0  0  0  0  0  0  0  0  0
  142.6620   71.5320  221.5710 O   0  0  0  0  0  0  0  0  0  0  0  0
  142.0340   73.6670  221.0240 N   0  0  0  0  0  0  0  0  0  0  0  0
  143.2510   73.9260  220.4440 C   0  0  0  0  0  0  0  0  0  0  0  0
  144.0236   73.1431  220.4312 H   0  0  0  0  0  0  0  0  0  0  0  0
  143.5210   75.1680  219.8710 C   0  0  0  0  0  0  0  0  0  0  0  0
  144.4997   75.3624  219.4080 H   0  0  0  0  0  0  0  0  0  0  0  0
  142.5470   76.1590  219.8880 C   0  0  0  0  0  0  0  0  0  0  0  0
  142.7532   77.1395  219.4339 H   0  0  0  0  0  0  0  0  0  0  0  0
  141.3060   75.9120  220.4810 C   0  0  0  0  0  0  0  0  0  0  0  0
  140.2510   76.9840  220.5000 C   0  0  0  0  0  0  0  0  0  0  0  0
  140.0030   77.2360  221.5416 H   0  0  0  0  0  0  0  0  0  0  0  0
  140.6294   77.8800  219.9861 H   0  0  0  0  0  0  0  0  0  0  0  0
  139.3491   76.6200  219.9861 H   0  0  0  0  0  0  0  0  0  0  0  0
  141.0600   74.6440  221.0470 C   0  0  0  0  0  0  0  0  0  0  0  0
  139.8510   74.3890  221.6140 N   0  0  0  0  0  0  0  0  0  0  0  0
  139.5600   73.1860  222.1630 C   0  0  0  0  0  0  0  0  0  0  0  0
  138.3360   72.9720  222.7180 N   0  0  0  0  0  0  0  0  0  0  0  0
  137.6400   73.7530  222.7230 H   0  0  0  0  0  0  0  0  0  0  0  0
  1  2  1  0
  2  3  2  0
  3  4  1  0
  4  5  1  0
  5  6  2  0
  6  7  1  0
  7  8  1  1
  7  9  1  0
  9 10  2  0
 10 11  1  0
 10 12  1  0
 12 13  1  0
 12 14  2  0
 14 15  1  0
 14 16  1  0
 16 17  1  0
 16 18  2  0
 18 19  1  0
  7 20  1  0
 20 21  1  0
 20 22  1  0
 20 23  1  0
  5 24  1  0
 24 25  1  0
  4 26  2  0
 26 27  1  0
 26 28  1  0
 28 29  1  0
 29 30  2  0
 29 31  1  0
 31 32  1  0
 32 33  1  0
 32 34  2  0
 34 35  1  0
 34 36  1  0
 36 37  1  0
 36 38  2  0
 38 39  1  0
 39 40  1  0
 39 41  1  0
 39 42  1  0
 38 43  1  0
 43 44  2  0
 44 45  1  0
 45 46  1  0
 46 47  1  0
 46  3  1  0
 18  9  1  0
 45 28  2  0
 43 31  1  0
M  END
>  <UniqueID>  (41) 
115

>  <SMILES>  (41) 
[H]/N=c1/[nH]c2nc3c(C)cccn3c(=O)c2cc1/C(O)=N\[C@@H](C)c1ccccc1

>  <Energy>  (41) 
68.70808571819731

>  <Genealogy>  (41) 
Cc1cccn2c(=O)c3cc(C(O)=N[C@@H](C)c4ccccc4)c(=N)[nH]c3nc12 (tautomer)
[H]/N=c1/[nH]c2nc3c(C)cccn3c(=O)c2cc1/C(O)=N\[C@@H](C)c1ccccc1 (cis-trans isomerization)
[H]/N=c1/[nH]c2nc3c(C)cccn3c(=O)c2cc1/C(O)=N\[C@@H](C)c1ccccc1 (3D coordinates assigned)
[H]/N=c1/[nH]c2nc3c(C)cccn3c(=O)c2cc1/C(O)=N\[C@@H](C)c1ccccc1 (optimized conformer: 68.70808571819731 kcal/mol)

>  <smiles>  (41) 
Cc1cccn2c(=O)c3cc(C(=O)N[C@@H](C)c4ccccc4)c(=N)[nH]c3nc12

>  <score_type>  (41) 
oracle

>  <origin>  (41) 
autodockgpu

>  <m_score__min__energy>  (41) 
-7.4400000000000004

>  <m_primary>  (41) 
energy

>  <meeko>  (41) 
{"free_energy": -7.1, "intermolecular_energy": -8.89, "internal_energy": -1.74, "cluster_size": 1, "cluster_id": 3, "rank_in_cluster": 1}

>  <energy>  (41) 
-7.44

>  <cluster_rmsd>  (41) 
0.0

>  <rmsd>  (41) 
270.7

>  <cluster>  (41) 
1

$$$$
PSCKMLPRYLACNW-QMAGNZAUNA-N
     RDKit          3D

 47 50  0  0  0  0  0  0  0  0999 V2000
  136.1580   77.2110  223.6570 H   0  0  0  0  0  0  0  0  0  0  0  0
  136.6280   76.4470  223.1230 N   0  0  0  0  0  0  0  0  0  0  0  0
  137.7760   76.5770  222.5260 C   0  0  0  0  0  0  0  0  0  0  0  0
  138.2230   77.8290  222.0420 C   0  0  0  0  0  0  0  0  0  0  0  0
  137.4380   79.0700  222.2100 C   0  0  0  0  0  0  0  0  0  0  0  0
  137.9840   80.2530  222.1710 N   0  0  0  0  0  0  0  0  0  0  0  0
  138.7060   80.9200  223.2590 C   0  0  2  0  0  0  0  0  0  0  0  0
  138.6218   82.0087  223.1259 H   0  0  0  0  0  0  0  0  0  0  0  0
  140.1640   80.5180  223.2220 C   0  0  0  0  0  0  0  0  0  0  0  0
  141.0940   81.2510  222.4610 C   0  0  0  0  0  0  0  0  0  0  0  0
  140.7656   82.1449  221.9104 H   0  0  0  0  0  0  0  0  0  0  0  0
  142.4320   80.8510  222.4000 C   0  0  0  0  0  0  0  0  0  0  0  0
  143.1538   81.4346  221.8097 H   0  0  0  0  0  0  0  0  0  0  0  0
  142.8530   79.7110  223.0880 C   0  0  0  0  0  0  0  0  0  0  0  0
  143.9064   79.3976  223.0406 H   0  0  0  0  0  0  0  0  0  0  0  0
  141.9370   78.9690  223.8360 C   0  0  0  0  0  0  0  0  0  0  0  0
  142.2695   78.0702  224.3761 H   0  0  0  0  0  0  0  0  0  0  0  0
  140.5980   79.3660  223.9000 C   0  0  0  0  0  0  0  0  0  0  0  0
  139.8795   78.7729  224.4848 H   0  0  0  0  0  0  0  0  0  0  0  0
  138.0980   80.5440  224.6150 C   0  0  0  0  0  0  0  0  0  0  0  0
  138.7328   80.9366  225.4230 H   0  0  0  0  0  0  0  0  0  0  0  0
  137.0900   80.9767  224.6975 H   0  0  0  0  0  0  0  0  0  0  0  0
  138.0349   79.4489  224.6975 H   0  0  0  0  0  0  0  0  0  0  0  0
  136.0650   78.9610  222.4090 O   0  0  0  0  0  0  0  0  0  0  0  0
  135.5750   78.0950  222.2190 H   0  0  0  0  0  0  0  0  0  0  0  0
  139.4370   77.8950  221.3500 C   0  0  0  0  0  0  0  0  0  0  0  0
  139.7759   78.8527  220.9282 H   0  0  0  0  0  0  0  0  0  0  0  0
  140.2240   76.7440  221.1920 C   0  0  0  0  0  0  0  0  0  0  0  0
  141.4670   76.7600  220.5370 C   0  0  0  0  0  0  0  0  0  0  0  0
  141.9020   77.8440  220.0550 O   0  0  0  0  0  0  0  0  0  0  0  0
  142.2030   75.6040  220.4260 N   0  0  0  0  0  0  0  0  0  0  0  0
  143.4240   75.6160  219.7980 C   0  0  0  0  0  0  0  0  0  0  0  0
  143.8079   76.5570  219.3772 H   0  0  0  0  0  0  0  0  0  0  0  0
  144.1840   74.4530  219.6860 C   0  0  0  0  0  0  0  0  0  0  0  0
  145.1630   74.4782  219.1850 H   0  0  0  0  0  0  0  0  0  0  0  0
  143.6980   73.2610  220.2110 C   0  0  0  0  0  0  0  0  0  0  0  0
  144.2932   72.3399  220.1257 H   0  0  0  0  0  0  0  0  0  0  0  0
  142.4540   73.2320  220.8470 C   0  0  0  0  0  0  0  0  0  0  0  0
  141.9270   71.9430  221.4170 C   0  0  0  0  0  0  0  0  0  0  0  0
  141.9473   71.9925  222.5157 H   0  0  0  0  0  0  0  0  0  0  0  0
  140.8929   71.7870  221.0760 H   0  0  0  0  0  0  0  0  0  0  0  0
  142.5556   71.1072  221.0760 H   0  0  0  0  0  0  0  0  0  0  0  0
  141.7120   74.4260  220.9520 C   0  0  0  0  0  0  0  0  0  0  0  0
  140.5060   74.4110  221.5800 N   0  0  0  0  0  0  0  0  0  0  0  0
  139.7580   75.5310  221.7150 C   0  0  0  0  0  0  0  0  0  0  0  0
  138.5570   75.4720  222.3540 N   0  0  0  0  0  0  0  0  0  0  0  0
  138.2250   74.5500  222.7190 H   0  0  0  0  0  0  0  0  0  0  0  0
  1  2  1  0
  2  3  2  0
  3  4  1  0
  4  5  1  0
  5  6  2  0
  6  7  1  0
  7  8  1  6
  7  9  1  0
  9 10  2  0
 10 11  1  0
 10 12  1  0
 12 13  1  0
 12 14  2  0
 14 15  1  0
 14 16  1  0
 16 17  1  0
 16 18  2  0
 18 19  1  0
  7 20  1  0
 20 21  1  0
 20 22  1  0
 20 23  1  0
  5 24  1  0
 24 25  1  0
  4 26  2  0
 26 27  1  0
 26 28  1  0
 28 29  1  0
 29 30  2  0
 29 31  1  0
 31 32  1  0
 32 33  1  0
 32 34  2  0
 34 35  1  0
 34 36  1  0
 36 37  1  0
 36 38  2  0
 38 39  1  0
 39 40  1  0
 39 41  1  0
 39 42  1  0
 38 43  1  0
 43 44  2  0
 44 45  1  0
 45 46  1  0
 46 47  1  0
 46  3  1  0
 18  9  1  0
 45 28  2  0
 43 31  1  0
M  END
>  <UniqueID>  (42) 
115

>  <SMILES>  (42) 
[H]/N=c1/[nH]c2nc3c(C)cccn3c(=O)c2cc1/C(O)=N\[C@@H](C)c1ccccc1

>  <Energy>  (42) 
68.70808571819731

>  <Genealogy>  (42) 
Cc1cccn2c(=O)c3cc(C(O)=N[C@@H](C)c4ccccc4)c(=N)[nH]c3nc12 (tautomer)
[H]/N=c1/[nH]c2nc3c(C)cccn3c(=O)c2cc1/C(O)=N\[C@@H](C)c1ccccc1 (cis-trans isomerization)
[H]/N=c1/[nH]c2nc3c(C)cccn3c(=O)c2cc1/C(O)=N\[C@@H](C)c1ccccc1 (3D coordinates assigned)
[H]/N=c1/[nH]c2nc3c(C)cccn3c(=O)c2cc1/C(O)=N\[C@@H](C)c1ccccc1 (optimized conformer: 68.70808571819731 kcal/mol)

>  <smiles>  (42) 
Cc1cccn2c(=O)c3cc(C(=O)N[C@@H](C)c4ccccc4)c(=N)[nH]c3nc12

>  <score_type>  (42) 
oracle

>  <origin>  (42) 
autodockgpu

>  <m_score__min__energy>  (42) 
-7.4400000000000004

>  <m_primary>  (42) 
energy

>  <meeko>  (42) 
{"free_energy": -6.69, "intermolecular_energy": -8.48, "internal_energy": -2.26, "cluster_size": 16, "cluster_id": 4, "rank_in_cluster": 16}

>  <energy>  (42) 
-7.38

>  <cluster_rmsd>  (42) 
0.0

>  <rmsd>  (42) 
270.62

>  <cluster>  (42) 
2

$$$$
PSCKMLPRYLACNW-QMAGNZAUNA-N
     RDKit          3D

 47 50  0  0  0  0  0  0  0  0999 V2000
  136.2070   77.1000  223.8370 H   0  0  0  0  0  0  0  0  0  0  0  0
  136.6400   76.3780  223.2200 N   0  0  0  0  0  0  0  0  0  0  0  0
  137.7820   76.5250  222.6180 C   0  0  0  0  0  0  0  0  0  0  0  0
  138.2200   77.7890  222.1570 C   0  0  0  0  0  0  0  0  0  0  0  0
  137.4300   79.0220  222.3560 C   0  0  0  0  0  0  0  0  0  0  0  0
  137.9400   80.2120  222.1950 N   0  0  0  0  0  0  0  0  0  0  0  0
  138.6890   80.9850  223.1910 C   0  0  2  0  0  0  0  0  0  0  0  0
  138.6187   82.0532  222.9380 H   0  0  0  0  0  0  0  0  0  0  0  0
  140.1400   80.5580  223.1780 C   0  0  0  0  0  0  0  0  0  0  0  0
  141.0880   81.2520  222.4020 C   0  0  0  0  0  0  0  0  0  0  0  0
  140.7790   82.1332  221.8206 H   0  0  0  0  0  0  0  0  0  0  0  0
  142.4190   80.8280  222.3660 C   0  0  0  0  0  0  0  0  0  0  0  0
  143.1549   81.3808  221.7637 H   0  0  0  0  0  0  0  0  0  0  0  0
  142.8170   79.7040  223.0930 C   0  0  0  0  0  0  0  0  0  0  0  0
  143.8656   79.3728  223.0647 H   0  0  0  0  0  0  0  0  0  0  0  0
  141.8820   79.0010  223.8560 C   0  0  0  0  0  0  0  0  0  0  0  0
  142.1952   78.1145  224.4270 H   0  0  0  0  0  0  0  0  0  0  0  0
  140.5490   79.4210  223.8960 C   0  0  0  0  0  0  0  0  0  0  0  0
  139.8161   78.8583  224.4929 H   0  0  0  0  0  0  0  0  0  0  0  0
  138.0970   80.7740  224.5890 C   0  0  0  0  0  0  0  0  0  0  0  0
  138.8464   81.0411  225.3487 H   0  0  0  0  0  0  0  0  0  0  0  0
  137.2083   81.4108  224.7108 H   0  0  0  0  0  0  0  0  0  0  0  0
  137.8114   79.7187  224.7108 H   0  0  0  0  0  0  0  0  0  0  0  0
  136.0930   78.9000  222.7210 O   0  0  0  0  0  0  0  0  0  0  0  0
  135.5550   78.0780  222.4720 H   0  0  0  0  0  0  0  0  0  0  0  0
  139.4290   77.8750  221.4570 C   0  0  0  0  0  0  0  0  0  0  0  0
  139.7604   78.8426  221.0522 H   0  0  0  0  0  0  0  0  0  0  0  0
  140.2190   76.7320  221.2700 C   0  0  0  0  0  0  0  0  0  0  0  0
  141.4580   76.7680  220.6060 C   0  0  0  0  0  0  0  0  0  0  0  0
  141.8850   77.8630  220.1440 O   0  0  0  0  0  0  0  0  0  0  0  0
  142.1990   75.6170  220.4660 N   0  0  0  0  0  0  0  0  0  0  0  0
  143.4150   75.6480  219.8300 C   0  0  0  0  0  0  0  0  0  0  0  0
  143.7918   76.5995  219.4267 H   0  0  0  0  0  0  0  0  0  0  0  0
  144.1790   74.4910  219.6880 C   0  0  0  0  0  0  0  0  0  0  0  0
  145.1539   74.5309  219.1801 H   0  0  0  0  0  0  0  0  0  0  0  0
  143.7020   73.2860  220.1920 C   0  0  0  0  0  0  0  0  0  0  0  0
  144.3007   72.3696  220.0836 H   0  0  0  0  0  0  0  0  0  0  0  0
  142.4630   73.2380  220.8360 C   0  0  0  0  0  0  0  0  0  0  0  0
  141.9460   71.9350  221.3820 C   0  0  0  0  0  0  0  0  0  0  0  0
  141.9588   71.9673  222.4815 H   0  0  0  0  0  0  0  0  0  0  0  0
  140.9157   71.7737  221.0319 H   0  0  0  0  0  0  0  0  0  0  0  0
  142.5854   71.1112  221.0319 H   0  0  0  0  0  0  0  0  0  0  0  0
  141.7160   74.4270  220.9700 C   0  0  0  0  0  0  0  0  0  0  0  0
  140.5150   74.3920  221.6070 N   0  0  0  0  0  0  0  0  0  0  0  0
  139.7630   75.5060  221.7710 C   0  0  0  0  0  0  0  0  0  0  0  0
  138.5670   75.4280  222.4170 N   0  0  0  0  0  0  0  0  0  0  0  0
  138.2420   74.4970  222.7650 H   0  0  0  0  0  0  0  0  0  0  0  0
  1  2  1  0
  2  3  2  0
  3  4  1  0
  4  5  1  0
  5  6  2  0
  6  7  1  0
  7  8  1  6
  7  9  1  0
  9 10  2  0
 10 11  1  0
 10 12  1  0
 12 13  1  0
 12 14  2  0
 14 15  1  0
 14 16  1  0
 16 17  1  0
 16 18  2  0
 18 19  1  0
  7 20  1  0
 20 21  1  0
 20 22  1  0
 20 23  1  0
  5 24  1  0
 24 25  1  0
  4 26  2  0
 26 27  1  0
 26 28  1  0
 28 29  1  0
 29 30  2  0
 29 31  1  0
 31 32  1  0
 32 33  1  0
 32 34  2  0
 34 35  1  0
 34 36  1  0
 36 37  1  0
 36 38  2  0
 38 39  1  0
 39 40  1  0
 39 41  1  0
 39 42  1  0
 38 43  1  0
 43 44  2  0
 44 45  1  0
 45 46  1  0
 46 47  1  0
 46  3  1  0
 18  9  1  0
 45 28  2  0
 43 31  1  0
M  END
>  <UniqueID>  (43) 
115

>  <SMILES>  (43) 
[H]/N=c1/[nH]c2nc3c(C)cccn3c(=O)c2cc1/C(O)=N\[C@@H](C)c1ccccc1

>  <Energy>  (43) 
68.70808571819731

>  <Genealogy>  (43) 
Cc1cccn2c(=O)c3cc(C(O)=N[C@@H](C)c4ccccc4)c(=N)[nH]c3nc12 (tautomer)
[H]/N=c1/[nH]c2nc3c(C)cccn3c(=O)c2cc1/C(O)=N\[C@@H](C)c1ccccc1 (cis-trans isomerization)
[H]/N=c1/[nH]c2nc3c(C)cccn3c(=O)c2cc1/C(O)=N\[C@@H](C)c1ccccc1 (3D coordinates assigned)
[H]/N=c1/[nH]c2nc3c(C)cccn3c(=O)c2cc1/C(O)=N\[C@@H](C)c1ccccc1 (optimized conformer: 68.70808571819731 kcal/mol)

>  <smiles>  (43) 
Cc1cccn2c(=O)c3cc(C(=O)N[C@@H](C)c4ccccc4)c(=N)[nH]c3nc12

>  <score_type>  (43) 
oracle

>  <origin>  (43) 
autodockgpu

>  <m_score__min__energy>  (43) 
-7.4400000000000004

>  <m_primary>  (43) 
energy

>  <meeko>  (43) 
{"free_energy": -6.76, "intermolecular_energy": -8.55, "internal_energy": -2.2, "cluster_size": 16, "cluster_id": 4, "rank_in_cluster": 5}

>  <energy>  (43) 
-7.33

>  <cluster_rmsd>  (43) 
0.06

>  <rmsd>  (43) 
270.64

>  <cluster>  (43) 
2

$$$$
PSCKMLPRYLACNW-QMAGNZAUNA-N
     RDKit          3D

 47 50  0  0  0  0  0  0  0  0999 V2000
  136.1990   77.0710  223.8370 H   0  0  0  0  0  0  0  0  0  0  0  0
  136.6240   76.3590  223.2030 N   0  0  0  0  0  0  0  0  0  0  0  0
  137.7690   76.5080  222.6040 C   0  0  0  0  0  0  0  0  0  0  0  0
  138.2070   77.7740  222.1480 C   0  0  0  0  0  0  0  0  0  0  0  0
  137.4170   79.0060  222.3490 C   0  0  0  0  0  0  0  0  0  0  0  0
  137.9270   80.1960  222.1940 N   0  0  0  0  0  0  0  0  0  0  0  0
  138.6720   80.9660  223.1970 C   0  0  2  0  0  0  0  0  0  0  0  0
  138.5976   82.0358  222.9520 H   0  0  0  0  0  0  0  0  0  0  0  0
  140.1240   80.5450  223.1820 C   0  0  0  0  0  0  0  0  0  0  0  0
  141.0700   81.2470  222.4100 C   0  0  0  0  0  0  0  0  0  0  0  0
  140.7576   82.1300  221.8332 H   0  0  0  0  0  0  0  0  0  0  0  0
  142.4030   80.8290  222.3720 C   0  0  0  0  0  0  0  0  0  0  0  0
  143.1368   81.3877  221.7725 H   0  0  0  0  0  0  0  0  0  0  0  0
  142.8050   79.7030  223.0940 C   0  0  0  0  0  0  0  0  0  0  0  0
  143.8549   79.3762  223.0642 H   0  0  0  0  0  0  0  0  0  0  0  0
  141.8730   78.9920  223.8540 C   0  0  0  0  0  0  0  0  0  0  0  0
  142.1901   78.1046  224.4214 H   0  0  0  0  0  0  0  0  0  0  0  0
  140.5380   79.4060  223.8950 C   0  0  0  0  0  0  0  0  0  0  0  0
  139.8072   78.8372  224.4887 H   0  0  0  0  0  0  0  0  0  0  0  0
  138.0790   80.7430  224.5930 C   0  0  0  0  0  0  0  0  0  0  0  0
  138.8211   81.0221  225.3555 H   0  0  0  0  0  0  0  0  0  0  0  0
  137.1790   81.3641  224.7126 H   0  0  0  0  0  0  0  0  0  0  0  0
  137.8113   79.6828  224.7126 H   0  0  0  0  0  0  0  0  0  0  0  0
  136.0790   78.8820  222.7090 O   0  0  0  0  0  0  0  0  0  0  0  0
  135.5410   78.0620  222.4550 H   0  0  0  0  0  0  0  0  0  0  0  0
  139.4170   77.8620  221.4520 C   0  0  0  0  0  0  0  0  0  0  0  0
  139.7492   78.8310  221.0512 H   0  0  0  0  0  0  0  0  0  0  0  0
  140.2090   76.7190  221.2630 C   0  0  0  0  0  0  0  0  0  0  0  0
  141.4490   76.7570  220.6020 C   0  0  0  0  0  0  0  0  0  0  0  0
  141.8760   77.8540  220.1450 O   0  0  0  0  0  0  0  0  0  0  0  0
  142.1900   75.6070  220.4600 N   0  0  0  0  0  0  0  0  0  0  0  0
  143.4080   75.6400  219.8280 C   0  0  0  0  0  0  0  0  0  0  0  0
  143.7865   76.5929  219.4295 H   0  0  0  0  0  0  0  0  0  0  0  0
  144.1720   74.4830  219.6840 C   0  0  0  0  0  0  0  0  0  0  0  0
  145.1477   74.5245  219.1778 H   0  0  0  0  0  0  0  0  0  0  0  0
  143.6950   73.2770  220.1830 C   0  0  0  0  0  0  0  0  0  0  0  0
  144.2944   72.3612  220.0735 H   0  0  0  0  0  0  0  0  0  0  0  0
  142.4540   73.2270  220.8240 C   0  0  0  0  0  0  0  0  0  0  0  0
  141.9360   71.9220  221.3660 C   0  0  0  0  0  0  0  0  0  0  0  0
  141.9476   71.9512  222.4655 H   0  0  0  0  0  0  0  0  0  0  0  0
  140.9061   71.7618  221.0143 H   0  0  0  0  0  0  0  0  0  0  0  0
  142.5757   71.0991  221.0143 H   0  0  0  0  0  0  0  0  0  0  0  0
  141.7070   74.4150  220.9600 C   0  0  0  0  0  0  0  0  0  0  0  0
  140.5040   74.3780  221.5940 N   0  0  0  0  0  0  0  0  0  0  0  0
  139.7510   75.4910  221.7590 C   0  0  0  0  0  0  0  0  0  0  0  0
  138.5540   75.4110  222.4020 N   0  0  0  0  0  0  0  0  0  0  0  0
  138.2280   74.4790  222.7470 H   0  0  0  0  0  0  0  0  0  0  0  0
  1  2  1  0
  2  3  2  0
  3  4  1  0
  4  5  1  0
  5  6  2  0
  6  7  1  0
  7  8  1  6
  7  9  1  0
  9 10  2  0
 10 11  1  0
 10 12  1  0
 12 13  1  0
 12 14  2  0
 14 15  1  0
 14 16  1  0
 16 17  1  0
 16 18  2  0
 18 19  1  0
  7 20  1  0
 20 21  1  0
 20 22  1  0
 20 23  1  0
  5 24  1  0
 24 25  1  0
  4 26  2  0
 26 27  1  0
 26 28  1  0
 28 29  1  0
 29 30  2  0
 29 31  1  0
 31 32  1  0
 32 33  1  0
 32 34  2  0
 34 35  1  0
 34 36  1  0
 36 37  1  0
 36 38  2  0
 38 39  1  0
 39 40  1  0
 39 41  1  0
 39 42  1  0
 38 43  1  0
 43 44  2  0
 44 45  1  0
 45 46  1  0
 46 47  1  0
 46  3  1  0
 18  9  1  0
 45 28  2  0
 43 31  1  0
M  END
>  <UniqueID>  (44) 
115

>  <SMILES>  (44) 
[H]/N=c1/[nH]c2nc3c(C)cccn3c(=O)c2cc1/C(O)=N\[C@@H](C)c1ccccc1

>  <Energy>  (44) 
68.70808571819731

>  <Genealogy>  (44) 
Cc1cccn2c(=O)c3cc(C(O)=N[C@@H](C)c4ccccc4)c(=N)[nH]c3nc12 (tautomer)
[H]/N=c1/[nH]c2nc3c(C)cccn3c(=O)c2cc1/C(O)=N\[C@@H](C)c1ccccc1 (cis-trans isomerization)
[H]/N=c1/[nH]c2nc3c(C)cccn3c(=O)c2cc1/C(O)=N\[C@@H](C)c1ccccc1 (3D coordinates assigned)
[H]/N=c1/[nH]c2nc3c(C)cccn3c(=O)c2cc1/C(O)=N\[C@@H](C)c1ccccc1 (optimized conformer: 68.70808571819731 kcal/mol)

>  <smiles>  (44) 
Cc1cccn2c(=O)c3cc(C(=O)N[C@@H](C)c4ccccc4)c(=N)[nH]c3nc12

>  <score_type>  (44) 
oracle

>  <origin>  (44) 
autodockgpu

>  <m_score__min__energy>  (44) 
-7.4400000000000004

>  <m_primary>  (44) 
energy

>  <meeko>  (44) 
{"free_energy": -6.76, "intermolecular_energy": -8.55, "internal_energy": -2.2, "cluster_size": 16, "cluster_id": 4, "rank_in_cluster": 4}

>  <energy>  (44) 
-7.1

>  <cluster_rmsd>  (44) 
0.0

>  <rmsd>  (44) 
270.87

>  <cluster>  (44) 
3

$$$$
PSCKMLPRYLACNW-QMAGNZAUNA-N
     RDKit          3D

 47 50  0  0  0  0  0  0  0  0999 V2000
  136.2100   77.0500  223.8440 H   0  0  0  0  0  0  0  0  0  0  0  0
  136.6420   76.3350  223.2180 N   0  0  0  0  0  0  0  0  0  0  0  0
  137.7850   76.4900  222.6170 C   0  0  0  0  0  0  0  0  0  0  0  0
  138.2180   77.7580  222.1640 C   0  0  0  0  0  0  0  0  0  0  0  0
  137.4250   78.9870  222.3710 C   0  0  0  0  0  0  0  0  0  0  0  0
  137.9280   80.1800  222.2090 N   0  0  0  0  0  0  0  0  0  0  0  0
  138.6730   80.9580  223.2050 C   0  0  2  0  0  0  0  0  0  0  0  0
  138.5926   82.0262  222.9549 H   0  0  0  0  0  0  0  0  0  0  0  0
  140.1270   80.5430  223.1870 C   0  0  0  0  0  0  0  0  0  0  0  0
  141.0670   81.2480  222.4110 C   0  0  0  0  0  0  0  0  0  0  0  0
  140.7486   82.1283  221.8334 H   0  0  0  0  0  0  0  0  0  0  0  0
  142.4030   80.8360  222.3700 C   0  0  0  0  0  0  0  0  0  0  0  0
  143.1329   81.3969  221.7678 H   0  0  0  0  0  0  0  0  0  0  0  0
  142.8110   79.7130  223.0930 C   0  0  0  0  0  0  0  0  0  0  0  0
  143.8623   79.3909  223.0614 H   0  0  0  0  0  0  0  0  0  0  0  0
  141.8850   78.9990  223.8560 C   0  0  0  0  0  0  0  0  0  0  0  0
  142.2073   78.1130  224.4227 H   0  0  0  0  0  0  0  0  0  0  0  0
  140.5490   79.4080  223.9010 C   0  0  0  0  0  0  0  0  0  0  0  0
  139.8230   78.8378  224.4992 H   0  0  0  0  0  0  0  0  0  0  0  0
  138.0870   80.7380  224.6040 C   0  0  0  0  0  0  0  0  0  0  0  0
  138.8331   81.0181  225.3622 H   0  0  0  0  0  0  0  0  0  0  0  0
  137.1880   81.3598  224.7269 H   0  0  0  0  0  0  0  0  0  0  0  0
  137.8194   79.6782  224.7269 H   0  0  0  0  0  0  0  0  0  0  0  0
  136.0910   78.8580  222.7450 O   0  0  0  0  0  0  0  0  0  0  0  0
  135.5510   78.0410  222.4870 H   0  0  0  0  0  0  0  0  0  0  0  0
  139.4260   77.8520  221.4660 C   0  0  0  0  0  0  0  0  0  0  0  0
  139.7545   78.8235  221.0681 H   0  0  0  0  0  0  0  0  0  0  0  0
  140.2210   76.7120  221.2710 C   0  0  0  0  0  0  0  0  0  0  0  0
  141.4600   76.7560  220.6070 C   0  0  0  0  0  0  0  0  0  0  0  0
  141.8820   77.8560  220.1520 O   0  0  0  0  0  0  0  0  0  0  0  0
  142.2040   75.6090  220.4600 N   0  0  0  0  0  0  0  0  0  0  0  0
  143.4200   75.6480  219.8240 C   0  0  0  0  0  0  0  0  0  0  0  0
  143.7940   76.6031  219.4266 H   0  0  0  0  0  0  0  0  0  0  0  0
  144.1870   74.4940  219.6750 C   0  0  0  0  0  0  0  0  0  0  0  0
  145.1613   74.5398  219.1665 H   0  0  0  0  0  0  0  0  0  0  0  0
  143.7150   73.2850  220.1720 C   0  0  0  0  0  0  0  0  0  0  0  0
  144.3175   72.3716  220.0593 H   0  0  0  0  0  0  0  0  0  0  0  0
  142.4750   73.2290  220.8150 C   0  0  0  0  0  0  0  0  0  0  0  0
  141.9630   71.9210  221.3540 C   0  0  0  0  0  0  0  0  0  0  0  0
  141.9736   71.9482  222.4536 H   0  0  0  0  0  0  0  0  0  0  0  0
  140.9341   71.7566  221.0012 H   0  0  0  0  0  0  0  0  0  0  0  0
  142.6068   71.1018  221.0012 H   0  0  0  0  0  0  0  0  0  0  0  0
  141.7250   74.4140  220.9570 C   0  0  0  0  0  0  0  0  0  0  0  0
  140.5240   74.3720  221.5930 N   0  0  0  0  0  0  0  0  0  0  0  0
  139.7680   75.4820  221.7640 C   0  0  0  0  0  0  0  0  0  0  0  0
  138.5730   75.3960  222.4100 N   0  0  0  0  0  0  0  0  0  0  0  0
  138.2510   74.4620  222.7520 H   0  0  0  0  0  0  0  0  0  0  0  0
  1  2  1  0
  2  3  2  0
  3  4  1  0
  4  5  1  0
  5  6  2  0
  6  7  1  0
  7  8  1  6
  7  9  1  0
  9 10  2  0
 10 11  1  0
 10 12  1  0
 12 13  1  0
 12 14  2  0
 14 15  1  0
 14 16  1  0
 16 17  1  0
 16 18  2  0
 18 19  1  0
  7 20  1  0
 20 21  1  0
 20 22  1  0
 20 23  1  0
  5 24  1  0
 24 25  1  0
  4 26  2  0
 26 27  1  0
 26 28  1  0
 28 29  1  0
 29 30  2  0
 29 31  1  0
 31 32  1  0
 32 33  1  0
 32 34  2  0
 34 35  1  0
 34 36  1  0
 36 37  1  0
 36 38  2  0
 38 39  1  0
 39 40  1  0
 39 41  1  0
 39 42  1  0
 38 43  1  0
 43 44  2  0
 44 45  1  0
 45 46  1  0
 46 47  1  0
 46  3  1  0
 18  9  1  0
 45 28  2  0
 43 31  1  0
M  END
>  <UniqueID>  (45) 
115

>  <SMILES>  (45) 
[H]/N=c1/[nH]c2nc3c(C)cccn3c(=O)c2cc1/C(O)=N\[C@@H](C)c1ccccc1

>  <Energy>  (45) 
68.70808571819731

>  <Genealogy>  (45) 
Cc1cccn2c(=O)c3cc(C(O)=N[C@@H](C)c4ccccc4)c(=N)[nH]c3nc12 (tautomer)
[H]/N=c1/[nH]c2nc3c(C)cccn3c(=O)c2cc1/C(O)=N\[C@@H](C)c1ccccc1 (cis-trans isomerization)
[H]/N=c1/[nH]c2nc3c(C)cccn3c(=O)c2cc1/C(O)=N\[C@@H](C)c1ccccc1 (3D coordinates assigned)
[H]/N=c1/[nH]c2nc3c(C)cccn3c(=O)c2cc1/C(O)=N\[C@@H](C)c1ccccc1 (optimized conformer: 68.70808571819731 kcal/mol)

>  <smiles>  (45) 
Cc1cccn2c(=O)c3cc(C(=O)N[C@@H](C)c4ccccc4)c(=N)[nH]c3nc12

>  <score_type>  (45) 
oracle

>  <origin>  (45) 
autodockgpu

>  <m_score__min__energy>  (45) 
-7.4400000000000004

>  <m_primary>  (45) 
energy

>  <meeko>  (45) 
{"free_energy": -6.77, "intermolecular_energy": -8.55, "internal_energy": -2.2, "cluster_size": 16, "cluster_id": 4, "rank_in_cluster": 3}

>  <energy>  (45) 
-6.78

>  <cluster_rmsd>  (45) 
0.0

>  <rmsd>  (45) 
271.17

>  <cluster>  (45) 
4

$$$$
PSCKMLPRYLACNW-QMAGNZAUNA-N
     RDKit          3D

 47 50  0  0  0  0  0  0  0  0999 V2000
  136.2000   77.0960  223.7960 H   0  0  0  0  0  0  0  0  0  0  0  0
  136.6330   76.3800  223.1720 N   0  0  0  0  0  0  0  0  0  0  0  0
  137.7810   76.5290  222.5800 C   0  0  0  0  0  0  0  0  0  0  0  0
  138.2200   77.7930  222.1210 C   0  0  0  0  0  0  0  0  0  0  0  0
  137.4260   79.0250  222.3110 C   0  0  0  0  0  0  0  0  0  0  0  0
  137.9410   80.2160  222.1780 N   0  0  0  0  0  0  0  0  0  0  0  0
  138.6790   80.9690  223.1980 C   0  0  2  0  0  0  0  0  0  0  0  0
  138.5936   82.0433  222.9777 H   0  0  0  0  0  0  0  0  0  0  0  0
  140.1360   80.5620  223.1730 C   0  0  0  0  0  0  0  0  0  0  0  0
  141.0700   81.2760  222.3980 C   0  0  0  0  0  0  0  0  0  0  0  0
  140.7455   82.1578  221.8261 H   0  0  0  0  0  0  0  0  0  0  0  0
  142.4070   80.8710  222.3510 C   0  0  0  0  0  0  0  0  0  0  0  0
  143.1322   81.4400  221.7507 H   0  0  0  0  0  0  0  0  0  0  0  0
  142.8240   79.7450  223.0650 C   0  0  0  0  0  0  0  0  0  0  0  0
  143.8767   79.4281  223.0270 H   0  0  0  0  0  0  0  0  0  0  0  0
  141.9040   79.0220  223.8270 C   0  0  0  0  0  0  0  0  0  0  0  0
  142.2328   78.1345  224.3876 H   0  0  0  0  0  0  0  0  0  0  0  0
  140.5650   79.4240  223.8790 C   0  0  0  0  0  0  0  0  0  0  0  0
  139.8435   78.8465  224.4756 H   0  0  0  0  0  0  0  0  0  0  0  0
  138.0900   80.7070  224.5890 C   0  0  0  0  0  0  0  0  0  0  0  0
  138.8089   81.0268  225.3578 H   0  0  0  0  0  0  0  0  0  0  0  0
  137.1542   81.2737  224.7036 H   0  0  0  0  0  0  0  0  0  0  0  0
  137.8843   79.6325  224.7036 H   0  0  0  0  0  0  0  0  0  0  0  0
  136.0790   78.9000  222.6360 O   0  0  0  0  0  0  0  0  0  0  0  0
  135.5550   78.0690  222.3890 H   0  0  0  0  0  0  0  0  0  0  0  0
  139.4340   77.8800  221.4330 C   0  0  0  0  0  0  0  0  0  0  0  0
  139.7672   78.8479  221.0304 H   0  0  0  0  0  0  0  0  0  0  0  0
  140.2290   76.7380  221.2540 C   0  0  0  0  0  0  0  0  0  0  0  0
  141.4740   76.7750  220.6010 C   0  0  0  0  0  0  0  0  0  0  0  0
  141.9020   77.8710  220.1420 O   0  0  0  0  0  0  0  0  0  0  0  0
  142.2180   75.6260  220.4690 N   0  0  0  0  0  0  0  0  0  0  0  0
  143.4400   75.6590  219.8450 C   0  0  0  0  0  0  0  0  0  0  0  0
  143.8195   76.6109  219.4452 H   0  0  0  0  0  0  0  0  0  0  0  0
  144.2070   74.5020  219.7110 C   0  0  0  0  0  0  0  0  0  0  0  0
  145.1858   74.5422  219.2107 H   0  0  0  0  0  0  0  0  0  0  0  0
  143.7280   73.2980  220.2130 C   0  0  0  0  0  0  0  0  0  0  0  0
  144.3300   72.3828  220.1126 H   0  0  0  0  0  0  0  0  0  0  0  0
  142.4830   73.2480  220.8450 C   0  0  0  0  0  0  0  0  0  0  0  0
  141.9650   71.9450  221.3890 C   0  0  0  0  0  0  0  0  0  0  0  0
  141.9773   71.9759  222.4885 H   0  0  0  0  0  0  0  0  0  0  0  0
  140.9348   71.7848  221.0382 H   0  0  0  0  0  0  0  0  0  0  0  0
  142.6040   71.1213  221.0382 H   0  0  0  0  0  0  0  0  0  0  0  0
  141.7330   74.4350  220.9710 C   0  0  0  0  0  0  0  0  0  0  0  0
  140.5270   74.3990  221.5970 N   0  0  0  0  0  0  0  0  0  0  0  0
  139.7710   75.5120  221.7530 C   0  0  0  0  0  0  0  0  0  0  0  0
  138.5690   75.4330  222.3880 N   0  0  0  0  0  0  0  0  0  0  0  0
  138.2430   74.5010  222.7340 H   0  0  0  0  0  0  0  0  0  0  0  0
  1  2  1  0
  2  3  2  0
  3  4  1  0
  4  5  1  0
  5  6  2  0
  6  7  1  0
  7  8  1  6
  7  9  1  0
  9 10  2  0
 10 11  1  0
 10 12  1  0
 12 13  1  0
 12 14  2  0
 14 15  1  0
 14 16  1  0
 16 17  1  0
 16 18  2  0
 18 19  1  0
  7 20  1  0
 20 21  1  0
 20 22  1  0
 20 23  1  0
  5 24  1  0
 24 25  1  0
  4 26  2  0
 26 27  1  0
 26 28  1  0
 28 29  1  0
 29 30  2  0
 29 31  1  0
 31 32  1  0
 32 33  1  0
 32 34  2  0
 34 35  1  0
 34 36  1  0
 36 37  1  0
 36 38  2  0
 38 39  1  0
 39 40  1  0
 39 41  1  0
 39 42  1  0
 38 43  1  0
 43 44  2  0
 44 45  1  0
 45 46  1  0
 46 47  1  0
 46  3  1  0
 18  9  1  0
 45 28  2  0
 43 31  1  0
M  END
>  <UniqueID>  (46) 
115

>  <SMILES>  (46) 
[H]/N=c1/[nH]c2nc3c(C)cccn3c(=O)c2cc1/C(O)=N\[C@@H](C)c1ccccc1

>  <Energy>  (46) 
68.70808571819731

>  <Genealogy>  (46) 
Cc1cccn2c(=O)c3cc(C(O)=N[C@@H](C)c4ccccc4)c(=N)[nH]c3nc12 (tautomer)
[H]/N=c1/[nH]c2nc3c(C)cccn3c(=O)c2cc1/C(O)=N\[C@@H](C)c1ccccc1 (cis-trans isomerization)
[H]/N=c1/[nH]c2nc3c(C)cccn3c(=O)c2cc1/C(O)=N\[C@@H](C)c1ccccc1 (3D coordinates assigned)
[H]/N=c1/[nH]c2nc3c(C)cccn3c(=O)c2cc1/C(O)=N\[C@@H](C)c1ccccc1 (optimized conformer: 68.70808571819731 kcal/mol)

>  <smiles>  (46) 
Cc1cccn2c(=O)c3cc(C(=O)N[C@@H](C)c4ccccc4)c(=N)[nH]c3nc12

>  <score_type>  (46) 
oracle

>  <origin>  (46) 
autodockgpu

>  <m_score__min__energy>  (46) 
-7.4400000000000004

>  <m_primary>  (46) 
energy

>  <meeko>  (46) 
{"free_energy": -6.76, "intermolecular_energy": -8.55, "internal_energy": -2.22, "cluster_size": 16, "cluster_id": 4, "rank_in_cluster": 8}

>  <energy>  (46) 
-6.77

>  <cluster_rmsd>  (46) 
0.03

>  <rmsd>  (46) 
271.17

>  <cluster>  (46) 
4

$$$$
PSCKMLPRYLACNW-QMAGNZAUNA-N
     RDKit          3D

 47 50  0  0  0  0  0  0  0  0999 V2000
  136.1540   77.1150  223.7780 H   0  0  0  0  0  0  0  0  0  0  0  0
  136.5870   76.3950  223.1580 N   0  0  0  0  0  0  0  0  0  0  0  0
  137.7390   76.5370  222.5720 C   0  0  0  0  0  0  0  0  0  0  0  0
  138.1890   77.7980  222.1180 C   0  0  0  0  0  0  0  0  0  0  0  0
  137.4030   79.0360  222.3050 C   0  0  0  0  0  0  0  0  0  0  0  0
  137.9290   80.2230  222.1830 N   0  0  0  0  0  0  0  0  0  0  0  0
  138.6630   80.9650  223.2130 C   0  0  2  0  0  0  0  0  0  0  0  0
  138.5822   82.0414  223.0013 H   0  0  0  0  0  0  0  0  0  0  0  0
  140.1190   80.5540  223.1930 C   0  0  0  0  0  0  0  0  0  0  0  0
  141.0590   81.2720  222.4290 C   0  0  0  0  0  0  0  0  0  0  0  0
  140.7401   82.1600  221.8635 H   0  0  0  0  0  0  0  0  0  0  0  0
  142.3950   80.8630  222.3850 C   0  0  0  0  0  0  0  0  0  0  0  0
  143.1247   81.4337  221.7917 H   0  0  0  0  0  0  0  0  0  0  0  0
  142.8050   79.7310  223.0930 C   0  0  0  0  0  0  0  0  0  0  0  0
  143.8572   79.4121  223.0593 H   0  0  0  0  0  0  0  0  0  0  0  0
  141.8780   79.0040  223.8440 C   0  0  0  0  0  0  0  0  0  0  0  0
  142.2010   78.1108  224.3988 H   0  0  0  0  0  0  0  0  0  0  0  0
  140.5410   79.4090  223.8920 C   0  0  0  0  0  0  0  0  0  0  0  0
  139.8147   78.8287  224.4800 H   0  0  0  0  0  0  0  0  0  0  0  0
  138.0650   80.6930  224.5980 C   0  0  0  0  0  0  0  0  0  0  0  0
  138.7749   81.0159  225.3737 H   0  0  0  0  0  0  0  0  0  0  0  0
  137.1236   81.2515  224.7071 H   0  0  0  0  0  0  0  0  0  0  0  0
  137.8674   79.6164  224.7071 H   0  0  0  0  0  0  0  0  0  0  0  0
  136.0520   78.9190  222.6170 O   0  0  0  0  0  0  0  0  0  0  0  0
  135.5250   78.0920  222.3640 H   0  0  0  0  0  0  0  0  0  0  0  0
  139.4080   77.8780  221.4360 C   0  0  0  0  0  0  0  0  0  0  0  0
  139.7503   78.8443  221.0372 H   0  0  0  0  0  0  0  0  0  0  0  0
  140.1950   76.7310  221.2590 C   0  0  0  0  0  0  0  0  0  0  0  0
  141.4440   76.7600  220.6130 C   0  0  0  0  0  0  0  0  0  0  0  0
  141.8820   77.8540  220.1570 O   0  0  0  0  0  0  0  0  0  0  0  0
  142.1800   75.6050  220.4830 N   0  0  0  0  0  0  0  0  0  0  0  0
  143.4060   75.6310  219.8650 C   0  0  0  0  0  0  0  0  0  0  0  0
  143.7943   76.5809  219.4690 H   0  0  0  0  0  0  0  0  0  0  0  0
  144.1650   74.4690  219.7330 C   0  0  0  0  0  0  0  0  0  0  0  0
  145.1462   74.5031  219.2369 H   0  0  0  0  0  0  0  0  0  0  0  0
  143.6760   73.2680  220.2310 C   0  0  0  0  0  0  0  0  0  0  0  0
  144.2727   72.3492  220.1326 H   0  0  0  0  0  0  0  0  0  0  0  0
  142.4270   73.2250  220.8570 C   0  0  0  0  0  0  0  0  0  0  0  0
  141.8960   71.9250  221.3970 C   0  0  0  0  0  0  0  0  0  0  0  0
  141.9073   71.9528  222.4966 H   0  0  0  0  0  0  0  0  0  0  0  0
  140.8647   71.7755  221.0446 H   0  0  0  0  0  0  0  0  0  0  0  0
  142.5277   71.0963  221.0446 H   0  0  0  0  0  0  0  0  0  0  0  0
  141.6850   74.4180  220.9810 C   0  0  0  0  0  0  0  0  0  0  0  0
  140.4750   74.3890  221.6010 N   0  0  0  0  0  0  0  0  0  0  0  0
  139.7260   75.5070  221.7540 C   0  0  0  0  0  0  0  0  0  0  0  0
  138.5210   75.4350  222.3830 N   0  0  0  0  0  0  0  0  0  0  0  0
  138.1860   74.5060  222.7270 H   0  0  0  0  0  0  0  0  0  0  0  0
  1  2  1  0
  2  3  2  0
  3  4  1  0
  4  5  1  0
  5  6  2  0
  6  7  1  0
  7  8  1  6
  7  9  1  0
  9 10  2  0
 10 11  1  0
 10 12  1  0
 12 13  1  0
 12 14  2  0
 14 15  1  0
 14 16  1  0
 16 17  1  0
 16 18  2  0
 18 19  1  0
  7 20  1  0
 20 21  1  0
 20 22  1  0
 20 23  1  0
  5 24  1  0
 24 25  1  0
  4 26  2  0
 26 27  1  0
 26 28  1  0
 28 29  1  0
 29 30  2  0
 29 31  1  0
 31 32  1  0
 32 33  1  0
 32 34  2  0
 34 35  1  0
 34 36  1  0
 36 37  1  0
 36 38  2  0
 38 39  1  0
 39 40  1  0
 39 41  1  0
 39 42  1  0
 38 43  1  0
 43 44  2  0
 44 45  1  0
 45 46  1  0
 46 47  1  0
 46  3  1  0
 18  9  1  0
 45 28  2  0
 43 31  1  0
M  END
>  <UniqueID>  (47) 
115

>  <SMILES>  (47) 
[H]/N=c1/[nH]c2nc3c(C)cccn3c(=O)c2cc1/C(O)=N\[C@@H](C)c1ccccc1

>  <Energy>  (47) 
68.70808571819731

>  <Genealogy>  (47) 
Cc1cccn2c(=O)c3cc(C(O)=N[C@@H](C)c4ccccc4)c(=N)[nH]c3nc12 (tautomer)
[H]/N=c1/[nH]c2nc3c(C)cccn3c(=O)c2cc1/C(O)=N\[C@@H](C)c1ccccc1 (cis-trans isomerization)
[H]/N=c1/[nH]c2nc3c(C)cccn3c(=O)c2cc1/C(O)=N\[C@@H](C)c1ccccc1 (3D coordinates assigned)
[H]/N=c1/[nH]c2nc3c(C)cccn3c(=O)c2cc1/C(O)=N\[C@@H](C)c1ccccc1 (optimized conformer: 68.70808571819731 kcal/mol)

>  <smiles>  (47) 
Cc1cccn2c(=O)c3cc(C(=O)N[C@@H](C)c4ccccc4)c(=N)[nH]c3nc12

>  <score_type>  (47) 
oracle

>  <origin>  (47) 
autodockgpu

>  <m_score__min__energy>  (47) 
-7.4400000000000004

>  <m_primary>  (47) 
energy

>  <meeko>  (47) 
{"free_energy": -6.76, "intermolecular_energy": -8.55, "internal_energy": -2.22, "cluster_size": 16, "cluster_id": 4, "rank_in_cluster": 7}

>  <energy>  (47) 
-6.77

>  <cluster_rmsd>  (47) 
0.02

>  <rmsd>  (47) 
271.17

>  <cluster>  (47) 
4

$$$$
PSCKMLPRYLACNW-QMAGNZAUNA-N
     RDKit          3D

 47 50  0  0  0  0  0  0  0  0999 V2000
  136.1990   77.1440  223.7390 H   0  0  0  0  0  0  0  0  0  0  0  0
  136.6570   76.4000  223.1680 N   0  0  0  0  0  0  0  0  0  0  0  0
  137.8000   76.5460  222.5660 C   0  0  0  0  0  0  0  0  0  0  0  0
  138.2310   77.8050  222.0860 C   0  0  0  0  0  0  0  0  0  0  0  0
  137.4320   79.0360  222.2640 C   0  0  0  0  0  0  0  0  0  0  0  0
  137.9580   80.2270  222.1850 N   0  0  0  0  0  0  0  0  0  0  0  0
  138.6850   80.9350  223.2440 C   0  0  2  0  0  0  0  0  0  0  0  0
  138.5993   82.0181  223.0719 H   0  0  0  0  0  0  0  0  0  0  0  0
  140.1420   80.5330  223.2130 C   0  0  0  0  0  0  0  0  0  0  0  0
  141.0750   81.2650  222.4540 C   0  0  0  0  0  0  0  0  0  0  0  0
  140.7489   82.1577  221.9001 H   0  0  0  0  0  0  0  0  0  0  0  0
  142.4140   80.8640  222.4000 C   0  0  0  0  0  0  0  0  0  0  0  0
  143.1380   81.4452  221.8100 H   0  0  0  0  0  0  0  0  0  0  0  0
  142.8330   79.7270  223.0940 C   0  0  0  0  0  0  0  0  0  0  0  0
  143.8869   79.4146  223.0528 H   0  0  0  0  0  0  0  0  0  0  0  0
  141.9140   78.9870  223.8400 C   0  0  0  0  0  0  0  0  0  0  0  0
  142.2447   78.0902  224.3844 H   0  0  0  0  0  0  0  0  0  0  0  0
  140.5740   79.3830  223.8970 C   0  0  0  0  0  0  0  0  0  0  0  0
  139.8535   78.7911  224.4806 H   0  0  0  0  0  0  0  0  0  0  0  0
  138.0840   80.6100  224.6160 C   0  0  0  0  0  0  0  0  0  0  0  0
  138.7568   80.9738  225.4065 H   0  0  0  0  0  0  0  0  0  0  0  0
  137.1047   81.1015  224.7131 H   0  0  0  0  0  0  0  0  0  0  0  0
  137.9591   79.5214  224.7131 H   0  0  0  0  0  0  0  0  0  0  0  0
  136.0700   78.9090  222.5170 O   0  0  0  0  0  0  0  0  0  0  0  0
  135.5760   78.0500  222.3090 H   0  0  0  0  0  0  0  0  0  0  0  0
  139.4400   77.8880  221.3890 C   0  0  0  0  0  0  0  0  0  0  0  0
  139.7662   78.8516  220.9707 H   0  0  0  0  0  0  0  0  0  0  0  0
  140.2390   76.7470  221.2210 C   0  0  0  0  0  0  0  0  0  0  0  0
  141.4790   76.7810  220.5590 C   0  0  0  0  0  0  0  0  0  0  0  0
  141.8990   77.8720  220.0810 O   0  0  0  0  0  0  0  0  0  0  0  0
  142.2280   75.6330  220.4390 N   0  0  0  0  0  0  0  0  0  0  0  0
  143.4450   75.6620  219.8060 C   0  0  0  0  0  0  0  0  0  0  0  0
  143.8169   76.6098  219.3895 H   0  0  0  0  0  0  0  0  0  0  0  0
  144.2170   74.5080  219.6830 C   0  0  0  0  0  0  0  0  0  0  0  0
  145.1921   74.5459  219.1752 H   0  0  0  0  0  0  0  0  0  0  0  0
  143.7470   73.3090  220.2060 C   0  0  0  0  0  0  0  0  0  0  0  0
  144.3526   72.3953  220.1142 H   0  0  0  0  0  0  0  0  0  0  0  0
  142.5070   73.2620  220.8480 C   0  0  0  0  0  0  0  0  0  0  0  0
  141.9980   71.9640  221.4140 C   0  0  0  0  0  0  0  0  0  0  0  0
  142.0164   72.0109  222.5128 H   0  0  0  0  0  0  0  0  0  0  0  0
  140.9666   71.7940  221.0715 H   0  0  0  0  0  0  0  0  0  0  0  0
  142.6389   71.1382  221.0715 H   0  0  0  0  0  0  0  0  0  0  0  0
  141.7520   74.4480  220.9610 C   0  0  0  0  0  0  0  0  0  0  0  0
  140.5500   74.4150  221.5960 N   0  0  0  0  0  0  0  0  0  0  0  0
  139.7900   75.5260  221.7400 C   0  0  0  0  0  0  0  0  0  0  0  0
  138.5930   75.4500  222.3850 N   0  0  0  0  0  0  0  0  0  0  0  0
  138.2730   74.5230  222.7470 H   0  0  0  0  0  0  0  0  0  0  0  0
  1  2  1  0
  2  3  2  0
  3  4  1  0
  4  5  1  0
  5  6  2  0
  6  7  1  0
  7  8  1  6
  7  9  1  0
  9 10  2  0
 10 11  1  0
 10 12  1  0
 12 13  1  0
 12 14  2  0
 14 15  1  0
 14 16  1  0
 16 17  1  0
 16 18  2  0
 18 19  1  0
  7 20  1  0
 20 21  1  0
 20 22  1  0
 20 23  1  0
  5 24  1  0
 24 25  1  0
  4 26  2  0
 26 27  1  0
 26 28  1  0
 28 29  1  0
 29 30  2  0
 29 31  1  0
 31 32  1  0
 32 33  1  0
 32 34  2  0
 34 35  1  0
 34 36  1  0
 36 37  1  0
 36 38  2  0
 38 39  1  0
 39 40  1  0
 39 41  1  0
 39 42  1  0
 38 43  1  0
 43 44  2  0
 44 45  1  0
 45 46  1  0
 46 47  1  0
 46  3  1  0
 18  9  1  0
 45 28  2  0
 43 31  1  0
M  END
>  <UniqueID>  (48) 
115

>  <SMILES>  (48) 
[H]/N=c1/[nH]c2nc3c(C)cccn3c(=O)c2cc1/C(O)=N\[C@@H](C)c1ccccc1

>  <Energy>  (48) 
68.70808571819731

>  <Genealogy>  (48) 
Cc1cccn2c(=O)c3cc(C(O)=N[C@@H](C)c4ccccc4)c(=N)[nH]c3nc12 (tautomer)
[H]/N=c1/[nH]c2nc3c(C)cccn3c(=O)c2cc1/C(O)=N\[C@@H](C)c1ccccc1 (cis-trans isomerization)
[H]/N=c1/[nH]c2nc3c(C)cccn3c(=O)c2cc1/C(O)=N\[C@@H](C)c1ccccc1 (3D coordinates assigned)
[H]/N=c1/[nH]c2nc3c(C)cccn3c(=O)c2cc1/C(O)=N\[C@@H](C)c1ccccc1 (optimized conformer: 68.70808571819731 kcal/mol)

>  <smiles>  (48) 
Cc1cccn2c(=O)c3cc(C(=O)N[C@@H](C)c4ccccc4)c(=N)[nH]c3nc12

>  <score_type>  (48) 
oracle

>  <origin>  (48) 
autodockgpu

>  <m_score__min__energy>  (48) 
-7.4400000000000004

>  <m_primary>  (48) 
energy

>  <meeko>  (48) 
{"free_energy": -6.72, "intermolecular_energy": -8.51, "internal_energy": -2.25, "cluster_size": 16, "cluster_id": 4, "rank_in_cluster": 13}

>  <energy>  (48) 
-6.76

>  <cluster_rmsd>  (48) 
0.03

>  <rmsd>  (48) 
271.16

>  <cluster>  (48) 
4

$$$$
PSCKMLPRYLACNW-QMAGNZAUNA-N
     RDKit          3D

 47 50  0  0  0  0  0  0  0  0999 V2000
  136.1940   77.0540  223.8330 H   0  0  0  0  0  0  0  0  0  0  0  0
  136.6130   76.3510  223.1850 N   0  0  0  0  0  0  0  0  0  0  0  0
  137.7630   76.5000  222.5960 C   0  0  0  0  0  0  0  0  0  0  0  0
  138.2110   77.7670  222.1530 C   0  0  0  0  0  0  0  0  0  0  0  0
  137.4250   79.0010  222.3570 C   0  0  0  0  0  0  0  0  0  0  0  0
  137.9390   80.1900  222.2040 N   0  0  0  0  0  0  0  0  0  0  0  0
  138.6970   80.9510  223.2030 C   0  0  2  0  0  0  0  0  0  0  0  0
  138.6367   82.0212  222.9559 H   0  0  0  0  0  0  0  0  0  0  0  0
  140.1430   80.5100  223.1850 C   0  0  0  0  0  0  0  0  0  0  0  0
  141.0880   81.1730  222.3790 C   0  0  0  0  0  0  0  0  0  0  0  0
  140.7798   82.0404  221.7768 H   0  0  0  0  0  0  0  0  0  0  0  0
  142.4160   80.7360  222.3390 C   0  0  0  0  0  0  0  0  0  0  0  0
  143.1500   81.2650  221.7135 H   0  0  0  0  0  0  0  0  0  0  0  0
  142.8110   79.6280  223.0930 C   0  0  0  0  0  0  0  0  0  0  0  0
  143.8560   79.2858  223.0620 H   0  0  0  0  0  0  0  0  0  0  0  0
  141.8790   78.9550  223.8860 C   0  0  0  0  0  0  0  0  0  0  0  0
  142.1903   78.0811  224.4771 H   0  0  0  0  0  0  0  0  0  0  0  0
  140.5510   79.3900  223.9300 C   0  0  0  0  0  0  0  0  0  0  0  0
  139.8204   78.8520  224.5519 H   0  0  0  0  0  0  0  0  0  0  0  0
  138.1050   80.7390  224.6010 C   0  0  0  0  0  0  0  0  0  0  0  0
  138.8538   81.0072  225.3608 H   0  0  0  0  0  0  0  0  0  0  0  0
  137.2154   81.3744  224.7227 H   0  0  0  0  0  0  0  0  0  0  0  0
  137.8210   79.6833  224.7227 H   0  0  0  0  0  0  0  0  0  0  0  0
  136.0870   78.8810  222.7200 O   0  0  0  0  0  0  0  0  0  0  0  0
  135.5410   78.0720  222.4490 H   0  0  0  0  0  0  0  0  0  0  0  0
  139.4270   77.8550  221.4670 C   0  0  0  0  0  0  0  0  0  0  0  0
  139.7674   78.8255  221.0768 H   0  0  0  0  0  0  0  0  0  0  0  0
  140.2140   76.7090  221.2750 C   0  0  0  0  0  0  0  0  0  0  0  0
  141.4600   76.7470  220.6240 C   0  0  0  0  0  0  0  0  0  0  0  0
  141.8960   77.8450  220.1790 O   0  0  0  0  0  0  0  0  0  0  0  0
  142.1960   75.5940  220.4790 N   0  0  0  0  0  0  0  0  0  0  0  0
  143.4190   75.6270  219.8560 C   0  0  0  0  0  0  0  0  0  0  0  0
  143.8046   76.5812  219.4676 H   0  0  0  0  0  0  0  0  0  0  0  0
  144.1790   74.4670  219.7090 C   0  0  0  0  0  0  0  0  0  0  0  0
  145.1589   74.5075  219.2109 H   0  0  0  0  0  0  0  0  0  0  0  0
  143.6920   73.2600  220.1950 C   0  0  0  0  0  0  0  0  0  0  0  0
  144.2880   72.3423  220.0830 H   0  0  0  0  0  0  0  0  0  0  0  0
  142.4460   73.2100  220.8260 C   0  0  0  0  0  0  0  0  0  0  0  0
  141.9180   71.9040  221.3530 C   0  0  0  0  0  0  0  0  0  0  0  0
  141.9255   71.9225  222.4528 H   0  0  0  0  0  0  0  0  0  0  0  0
  140.8885   71.7538  220.9958 H   0  0  0  0  0  0  0  0  0  0  0  0
  142.5538   71.0805  220.9958 H   0  0  0  0  0  0  0  0  0  0  0  0
  141.7040   74.4010  220.9660 C   0  0  0  0  0  0  0  0  0  0  0  0
  140.4960   74.3650  221.5900 N   0  0  0  0  0  0  0  0  0  0  0  0
  139.7470   75.4800  221.7580 C   0  0  0  0  0  0  0  0  0  0  0  0
  138.5440   75.4010  222.3910 N   0  0  0  0  0  0  0  0  0  0  0  0
  138.2120   74.4670  222.7260 H   0  0  0  0  0  0  0  0  0  0  0  0
  1  2  1  0
  2  3  2  0
  3  4  1  0
  4  5  1  0
  5  6  2  0
  6  7  1  0
  7  8  1  6
  7  9  1  0
  9 10  2  0
 10 11  1  0
 10 12  1  0
 12 13  1  0
 12 14  2  0
 14 15  1  0
 14 16  1  0
 16 17  1  0
 16 18  2  0
 18 19  1  0
  7 20  1  0
 20 21  1  0
 20 22  1  0
 20 23  1  0
  5 24  1  0
 24 25  1  0
  4 26  2  0
 26 27  1  0
 26 28  1  0
 28 29  1  0
 29 30  2  0
 29 31  1  0
 31 32  1  0
 32 33  1  0
 32 34  2  0
 34 35  1  0
 34 36  1  0
 36 37  1  0
 36 38  2  0
 38 39  1  0
 39 40  1  0
 39 41  1  0
 39 42  1  0
 38 43  1  0
 43 44  2  0
 44 45  1  0
 45 46  1  0
 46 47  1  0
 46  3  1  0
 18  9  1  0
 45 28  2  0
 43 31  1  0
M  END
>  <UniqueID>  (49) 
115

>  <SMILES>  (49) 
[H]/N=c1/[nH]c2nc3c(C)cccn3c(=O)c2cc1/C(O)=N\[C@@H](C)c1ccccc1

>  <Energy>  (49) 
68.70808571819731

>  <Genealogy>  (49) 
Cc1cccn2c(=O)c3cc(C(O)=N[C@@H](C)c4ccccc4)c(=N)[nH]c3nc12 (tautomer)
[H]/N=c1/[nH]c2nc3c(C)cccn3c(=O)c2cc1/C(O)=N\[C@@H](C)c1ccccc1 (cis-trans isomerization)
[H]/N=c1/[nH]c2nc3c(C)cccn3c(=O)c2cc1/C(O)=N\[C@@H](C)c1ccccc1 (3D coordinates assigned)
[H]/N=c1/[nH]c2nc3c(C)cccn3c(=O)c2cc1/C(O)=N\[C@@H](C)c1ccccc1 (optimized conformer: 68.70808571819731 kcal/mol)

>  <smiles>  (49) 
Cc1cccn2c(=O)c3cc(C(=O)N[C@@H](C)c4ccccc4)c(=N)[nH]c3nc12

>  <score_type>  (49) 
oracle

>  <origin>  (49) 
autodockgpu

>  <m_score__min__energy>  (49) 
-7.4400000000000004

>  <m_primary>  (49) 
energy

>  <meeko>  (49) 
{"free_energy": -6.74, "intermolecular_energy": -8.53, "internal_energy": -2.22, "cluster_size": 16, "cluster_id": 4, "rank_in_cluster": 11}

>  <energy>  (49) 
-6.76

>  <cluster_rmsd>  (49) 
0.03

>  <rmsd>  (49) 
271.18

>  <cluster>  (49) 
4

$$$$
PSCKMLPRYLACNW-QMAGNZAUNA-N
     RDKit          3D

 47 50  0  0  0  0  0  0  0  0999 V2000
  136.2090   77.0680  223.8330 H   0  0  0  0  0  0  0  0  0  0  0  0
  136.6460   76.3480  223.2170 N   0  0  0  0  0  0  0  0  0  0  0  0
  137.7880   76.5040  222.6140 C   0  0  0  0  0  0  0  0  0  0  0  0
  138.2190   77.7710  222.1570 C   0  0  0  0  0  0  0  0  0  0  0  0
  137.4240   79.0000  222.3630 C   0  0  0  0  0  0  0  0  0  0  0  0
  137.9270   80.1930  222.2010 N   0  0  0  0  0  0  0  0  0  0  0  0
  138.6780   80.9680  223.1950 C   0  0  2  0  0  0  0  0  0  0  0  0
  138.6000   82.0367  222.9463 H   0  0  0  0  0  0  0  0  0  0  0  0
  140.1310   80.5490  223.1710 C   0  0  0  0  0  0  0  0  0  0  0  0
  141.0660   81.2400  222.3780 C   0  0  0  0  0  0  0  0  0  0  0  0
  140.7456   82.1133  221.7909 H   0  0  0  0  0  0  0  0  0  0  0  0
  142.4000   80.8230  222.3320 C   0  0  0  0  0  0  0  0  0  0  0  0
  143.1266   81.3737  221.7165 H   0  0  0  0  0  0  0  0  0  0  0  0
  142.8110   79.7090  223.0660 C   0  0  0  0  0  0  0  0  0  0  0  0
  143.8610   79.3831  223.0294 H   0  0  0  0  0  0  0  0  0  0  0  0
  141.8890   79.0080  223.8470 C   0  0  0  0  0  0  0  0  0  0  0  0
  142.2134   78.1291  224.4235 H   0  0  0  0  0  0  0  0  0  0  0  0
  140.5540   79.4220  223.8970 C   0  0  0  0  0  0  0  0  0  0  0  0
  139.8306   78.8623  224.5081 H   0  0  0  0  0  0  0  0  0  0  0  0
  138.0960   80.7490  224.5960 C   0  0  0  0  0  0  0  0  0  0  0  0
  138.8440   81.0305  225.3519 H   0  0  0  0  0  0  0  0  0  0  0  0
  137.1969   81.3703  224.7208 H   0  0  0  0  0  0  0  0  0  0  0  0
  137.8295   79.6891  224.7208 H   0  0  0  0  0  0  0  0  0  0  0  0
  136.0890   78.8700  222.7340 O   0  0  0  0  0  0  0  0  0  0  0  0
  135.5520   78.0500  222.4790 H   0  0  0  0  0  0  0  0  0  0  0  0
  139.4260   77.8660  221.4570 C   0  0  0  0  0  0  0  0  0  0  0  0
  139.7525   78.8373  221.0570 H   0  0  0  0  0  0  0  0  0  0  0  0
  140.2220   76.7270  221.2630 C   0  0  0  0  0  0  0  0  0  0  0  0
  141.4600   76.7710  220.5980 C   0  0  0  0  0  0  0  0  0  0  0  0
  141.8800   77.8710  220.1400 O   0  0  0  0  0  0  0  0  0  0  0  0
  142.2050   75.6240  220.4520 N   0  0  0  0  0  0  0  0  0  0  0  0
  143.4200   75.6640  219.8150 C   0  0  0  0  0  0  0  0  0  0  0  0
  143.7922   76.6190  219.4158 H   0  0  0  0  0  0  0  0  0  0  0  0
  144.1890   74.5100  219.6670 C   0  0  0  0  0  0  0  0  0  0  0  0
  145.1626   74.5560  219.1571 H   0  0  0  0  0  0  0  0  0  0  0  0
  143.7190   73.3020  220.1670 C   0  0  0  0  0  0  0  0  0  0  0  0
  144.3226   72.3892  220.0552 H   0  0  0  0  0  0  0  0  0  0  0  0
  142.4800   73.2450  220.8120 C   0  0  0  0  0  0  0  0  0  0  0  0
  141.9710   71.9370  221.3540 C   0  0  0  0  0  0  0  0  0  0  0  0
  141.9824   71.9664  222.4536 H   0  0  0  0  0  0  0  0  0  0  0  0
  140.9422   71.7699  221.0024 H   0  0  0  0  0  0  0  0  0  0  0  0
  142.6162   71.1184  221.0024 H   0  0  0  0  0  0  0  0  0  0  0  0
  141.7290   74.4300  220.9520 C   0  0  0  0  0  0  0  0  0  0  0  0
  140.5290   74.3870  221.5910 N   0  0  0  0  0  0  0  0  0  0  0  0
  139.7710   75.4960  221.7600 C   0  0  0  0  0  0  0  0  0  0  0  0
  138.5770   75.4110  222.4080 N   0  0  0  0  0  0  0  0  0  0  0  0
  138.2570   74.4760  222.7520 H   0  0  0  0  0  0  0  0  0  0  0  0
  1  2  1  0
  2  3  2  0
  3  4  1  0
  4  5  1  0
  5  6  2  0
  6  7  1  0
  7  8  1  6
  7  9  1  0
  9 10  2  0
 10 11  1  0
 10 12  1  0
 12 13  1  0
 12 14  2  0
 14 15  1  0
 14 16  1  0
 16 17  1  0
 16 18  2  0
 18 19  1  0
  7 20  1  0
 20 21  1  0
 20 22  1  0
 20 23  1  0
  5 24  1  0
 24 25  1  0
  4 26  2  0
 26 27  1  0
 26 28  1  0
 28 29  1  0
 29 30  2  0
 29 31  1  0
 31 32  1  0
 32 33  1  0
 32 34  2  0
 34 35  1  0
 34 36  1  0
 36 37  1  0
 36 38  2  0
 38 39  1  0
 39 40  1  0
 39 41  1  0
 39 42  1  0
 38 43  1  0
 43 44  2  0
 44 45  1  0
 45 46  1  0
 46 47  1  0
 46  3  1  0
 18  9  1  0
 45 28  2  0
 43 31  1  0
M  END
>  <UniqueID>  (50) 
115

>  <SMILES>  (50) 
[H]/N=c1/[nH]c2nc3c(C)cccn3c(=O)c2cc1/C(O)=N\[C@@H](C)c1ccccc1

>  <Energy>  (50) 
68.70808571819731

>  <Genealogy>  (50) 
Cc1cccn2c(=O)c3cc(C(O)=N[C@@H](C)c4ccccc4)c(=N)[nH]c3nc12 (tautomer)
[H]/N=c1/[nH]c2nc3c(C)cccn3c(=O)c2cc1/C(O)=N\[C@@H](C)c1ccccc1 (cis-trans isomerization)
[H]/N=c1/[nH]c2nc3c(C)cccn3c(=O)c2cc1/C(O)=N\[C@@H](C)c1ccccc1 (3D coordinates assigned)
[H]/N=c1/[nH]c2nc3c(C)cccn3c(=O)c2cc1/C(O)=N\[C@@H](C)c1ccccc1 (optimized conformer: 68.70808571819731 kcal/mol)

>  <smiles>  (50) 
Cc1cccn2c(=O)c3cc(C(=O)N[C@@H](C)c4ccccc4)c(=N)[nH]c3nc12

>  <score_type>  (50) 
oracle

>  <origin>  (50) 
autodockgpu

>  <m_score__min__energy>  (50) 
-7.4400000000000004

>  <m_primary>  (50) 
energy

>  <meeko>  (50) 
{"free_energy": -6.75, "intermolecular_energy": -8.54, "internal_energy": -2.21, "cluster_size": 16, "cluster_id": 4, "rank_in_cluster": 10}

>  <energy>  (50) 
-6.76

>  <cluster_rmsd>  (50) 
0.04

>  <rmsd>  (50) 
271.18

>  <cluster>  (50) 
4

$$$$
PSCKMLPRYLACNW-QMAGNZAUNA-N
     RDKit          3D

 47 50  0  0  0  0  0  0  0  0999 V2000
  136.2030   77.0360  223.8500 H   0  0  0  0  0  0  0  0  0  0  0  0
  136.6340   76.3290  223.2130 N   0  0  0  0  0  0  0  0  0  0  0  0
  137.7780   76.4890  222.6170 C   0  0  0  0  0  0  0  0  0  0  0  0
  138.2090   77.7590  222.1680 C   0  0  0  0  0  0  0  0  0  0  0  0
  137.4110   78.9860  222.3730 C   0  0  0  0  0  0  0  0  0  0  0  0
  137.9050   80.1790  222.1940 N   0  0  0  0  0  0  0  0  0  0  0  0
  138.6870   80.9560  223.1620 C   0  0  2  0  0  0  0  0  0  0  0  0
  138.6210   82.0219  222.8985 H   0  0  0  0  0  0  0  0  0  0  0  0
  140.1320   80.5130  223.1170 C   0  0  0  0  0  0  0  0  0  0  0  0
  140.5710   79.4100  223.8740 C   0  0  0  0  0  0  0  0  0  0  0  0
  139.8508   78.8436  224.4827 H   0  0  0  0  0  0  0  0  0  0  0  0
  141.9160   79.0300  223.8570 C   0  0  0  0  0  0  0  0  0  0  0  0
  142.2487   78.1620  224.4451 H   0  0  0  0  0  0  0  0  0  0  0  0
  142.8380   79.7500  223.0950 C   0  0  0  0  0  0  0  0  0  0  0  0
  143.8956   79.4480  223.0813 H   0  0  0  0  0  0  0  0  0  0  0  0
  142.4170   80.8540  222.3500 C   0  0  0  0  0  0  0  0  0  0  0  0
  143.1444   81.4229  221.7523 H   0  0  0  0  0  0  0  0  0  0  0  0
  141.0720   81.2370  222.3630 C   0  0  0  0  0  0  0  0  0  0  0  0
  140.7473   82.1109  221.7791 H   0  0  0  0  0  0  0  0  0  0  0  0
  138.1290   80.7680  224.5770 C   0  0  0  0  0  0  0  0  0  0  0  0
  138.9029   81.0287  225.3140 H   0  0  0  0  0  0  0  0  0  0  0  0
  137.2550   81.4213  224.7163 H   0  0  0  0  0  0  0  0  0  0  0  0
  137.8286   79.7190  224.7163 H   0  0  0  0  0  0  0  0  0  0  0  0
  136.0820   78.8520  222.7630 O   0  0  0  0  0  0  0  0  0  0  0  0
  135.5380   78.0390  222.5000 H   0  0  0  0  0  0  0  0  0  0  0  0
  139.4200   77.8590  221.4750 C   0  0  0  0  0  0  0  0  0  0  0  0
  139.7467   78.8325  221.0805 H   0  0  0  0  0  0  0  0  0  0  0  0
  140.2200   76.7220  221.2810 C   0  0  0  0  0  0  0  0  0  0  0  0
  141.4610   76.7710  220.6230 C   0  0  0  0  0  0  0  0  0  0  0  0
  141.8820   77.8730  220.1720 O   0  0  0  0  0  0  0  0  0  0  0  0
  142.2100   75.6260  220.4780 N   0  0  0  0  0  0  0  0  0  0  0  0
  143.4280   75.6710  219.8470 C   0  0  0  0  0  0  0  0  0  0  0  0
  143.7995   76.6283  219.4526 H   0  0  0  0  0  0  0  0  0  0  0  0
  144.2010   74.5200  219.6990 C   0  0  0  0  0  0  0  0  0  0  0  0
  145.1776   74.5704  219.1953 H   0  0  0  0  0  0  0  0  0  0  0  0
  143.7300   73.3080  220.1920 C   0  0  0  0  0  0  0  0  0  0  0  0
  144.3352   72.3964  220.0791 H   0  0  0  0  0  0  0  0  0  0  0  0
  142.4880   73.2470  220.8310 C   0  0  0  0  0  0  0  0  0  0  0  0
  141.9780   71.9360  221.3650 C   0  0  0  0  0  0  0  0  0  0  0  0
  141.9872   71.9596  222.4647 H   0  0  0  0  0  0  0  0  0  0  0  0
  140.9500   71.7706  221.0103 H   0  0  0  0  0  0  0  0  0  0  0  0
  142.6240   71.1194  221.0103 H   0  0  0  0  0  0  0  0  0  0  0  0
  141.7330   74.4290  220.9710 C   0  0  0  0  0  0  0  0  0  0  0  0
  140.5300   74.3820  221.6020 N   0  0  0  0  0  0  0  0  0  0  0  0
  139.7690   75.4890  221.7710 C   0  0  0  0  0  0  0  0  0  0  0  0
  138.5710   75.3980  222.4120 N   0  0  0  0  0  0  0  0  0  0  0  0
  138.2510   74.4620  222.7510 H   0  0  0  0  0  0  0  0  0  0  0  0
  1  2  1  0
  2  3  2  0
  3  4  1  0
  4  5  1  0
  5  6  2  0
  6  7  1  0
  7  8  1  6
  7  9  1  0
  9 10  2  0
 10 11  1  0
 10 12  1  0
 12 13  1  0
 12 14  2  0
 14 15  1  0
 14 16  1  0
 16 17  1  0
 16 18  2  0
 18 19  1  0
  7 20  1  0
 20 21  1  0
 20 22  1  0
 20 23  1  0
  5 24  1  0
 24 25  1  0
  4 26  2  0
 26 27  1  0
 26 28  1  0
 28 29  1  0
 29 30  2  0
 29 31  1  0
 31 32  1  0
 32 33  1  0
 32 34  2  0
 34 35  1  0
 34 36  1  0
 36 37  1  0
 36 38  2  0
 38 39  1  0
 39 40  1  0
 39 41  1  0
 39 42  1  0
 38 43  1  0
 43 44  2  0
 44 45  1  0
 45 46  1  0
 46 47  1  0
 46  3  1  0
 18  9  1  0
 45 28  2  0
 43 31  1  0
M  END
>  <UniqueID>  (51) 
115

>  <SMILES>  (51) 
[H]/N=c1/[nH]c2nc3c(C)cccn3c(=O)c2cc1/C(O)=N\[C@@H](C)c1ccccc1

>  <Energy>  (51) 
68.70808571819731

>  <Genealogy>  (51) 
Cc1cccn2c(=O)c3cc(C(O)=N[C@@H](C)c4ccccc4)c(=N)[nH]c3nc12 (tautomer)
[H]/N=c1/[nH]c2nc3c(C)cccn3c(=O)c2cc1/C(O)=N\[C@@H](C)c1ccccc1 (cis-trans isomerization)
[H]/N=c1/[nH]c2nc3c(C)cccn3c(=O)c2cc1/C(O)=N\[C@@H](C)c1ccccc1 (3D coordinates assigned)
[H]/N=c1/[nH]c2nc3c(C)cccn3c(=O)c2cc1/C(O)=N\[C@@H](C)c1ccccc1 (optimized conformer: 68.70808571819731 kcal/mol)

>  <smiles>  (51) 
Cc1cccn2c(=O)c3cc(C(=O)N[C@@H](C)c4ccccc4)c(=N)[nH]c3nc12

>  <score_type>  (51) 
oracle

>  <origin>  (51) 
autodockgpu

>  <m_score__min__energy>  (51) 
-7.4400000000000004

>  <m_primary>  (51) 
energy

>  <meeko>  (51) 
{"free_energy": -6.76, "intermolecular_energy": -8.55, "internal_energy": -2.18, "cluster_size": 16, "cluster_id": 4, "rank_in_cluster": 6}

>  <energy>  (51) 
-6.76

>  <cluster_rmsd>  (51) 
0.06

>  <rmsd>  (51) 
271.15

>  <cluster>  (51) 
4

$$$$
PSCKMLPRYLACNW-QMAGNZAUNA-N
     RDKit          3D

 47 50  0  0  0  0  0  0  0  0999 V2000
  136.2070   77.0720  223.8480 H   0  0  0  0  0  0  0  0  0  0  0  0
  136.6360   76.3550  223.2210 N   0  0  0  0  0  0  0  0  0  0  0  0
  137.7780   76.5070  222.6190 C   0  0  0  0  0  0  0  0  0  0  0  0
  138.2120   77.7730  222.1600 C   0  0  0  0  0  0  0  0  0  0  0  0
  137.4200   79.0040  222.3610 C   0  0  0  0  0  0  0  0  0  0  0  0
  137.9270   80.1950  222.2050 N   0  0  0  0  0  0  0  0  0  0  0  0
  138.6760   80.9650  223.2030 C   0  0  2  0  0  0  0  0  0  0  0  0
  138.5992   82.0346  222.9579 H   0  0  0  0  0  0  0  0  0  0  0  0
  140.1290   80.5450  223.1810 C   0  0  0  0  0  0  0  0  0  0  0  0
  141.0680   81.2410  222.3960 C   0  0  0  0  0  0  0  0  0  0  0  0
  140.7505   82.1190  221.8144 H   0  0  0  0  0  0  0  0  0  0  0  0
  142.4020   80.8230  222.3510 C   0  0  0  0  0  0  0  0  0  0  0  0
  143.1312   81.3770  221.7416 H   0  0  0  0  0  0  0  0  0  0  0  0
  142.8090   79.7030  223.0790 C   0  0  0  0  0  0  0  0  0  0  0  0
  143.8587   79.3759  223.0435 H   0  0  0  0  0  0  0  0  0  0  0  0
  141.8840   78.9980  223.8520 C   0  0  0  0  0  0  0  0  0  0  0  0
  142.2060   78.1154  224.4242 H   0  0  0  0  0  0  0  0  0  0  0  0
  140.5490   79.4120  223.9000 C   0  0  0  0  0  0  0  0  0  0  0  0
  139.8231   78.8478  224.5039 H   0  0  0  0  0  0  0  0  0  0  0  0
  138.0910   80.7410  224.6020 C   0  0  0  0  0  0  0  0  0  0  0  0
  138.8350   81.0259  225.3605 H   0  0  0  0  0  0  0  0  0  0  0  0
  137.1879   81.3569  224.7247 H   0  0  0  0  0  0  0  0  0  0  0  0
  137.8303   79.6794  224.7247 H   0  0  0  0  0  0  0  0  0  0  0  0
  136.0820   78.8770  222.7240 O   0  0  0  0  0  0  0  0  0  0  0  0
  135.5470   78.0540  222.4730 H   0  0  0  0  0  0  0  0  0  0  0  0
  139.4200   77.8630  221.4600 C   0  0  0  0  0  0  0  0  0  0  0  0
  139.7486   78.8323  221.0570 H   0  0  0  0  0  0  0  0  0  0  0  0
  140.2140   76.7220  221.2700 C   0  0  0  0  0  0  0  0  0  0  0  0
  141.4520   76.7620  220.6060 C   0  0  0  0  0  0  0  0  0  0  0  0
  141.8760   77.8590  220.1450 O   0  0  0  0  0  0  0  0  0  0  0  0
  142.1960   75.6130  220.4630 N   0  0  0  0  0  0  0  0  0  0  0  0
  143.4120   75.6490  219.8270 C   0  0  0  0  0  0  0  0  0  0  0  0
  143.7869   76.6022  219.4258 H   0  0  0  0  0  0  0  0  0  0  0  0
  144.1780   74.4930  219.6830 C   0  0  0  0  0  0  0  0  0  0  0  0
  145.1524   74.5356  219.1743 H   0  0  0  0  0  0  0  0  0  0  0  0
  143.7050   73.2870  220.1850 C   0  0  0  0  0  0  0  0  0  0  0  0
  144.3064   72.3726  220.0747 H   0  0  0  0  0  0  0  0  0  0  0  0
  142.4660   73.2340  220.8300 C   0  0  0  0  0  0  0  0  0  0  0  0
  141.9530   71.9290  221.3750 C   0  0  0  0  0  0  0  0  0  0  0  0
  141.9654   71.9606  222.4745 H   0  0  0  0  0  0  0  0  0  0  0  0
  140.9234   71.7647  221.0245 H   0  0  0  0  0  0  0  0  0  0  0  0
  142.5951   71.1075  221.0245 H   0  0  0  0  0  0  0  0  0  0  0  0
  141.7170   74.4210  220.9660 C   0  0  0  0  0  0  0  0  0  0  0  0
  140.5160   74.3820  221.6040 N   0  0  0  0  0  0  0  0  0  0  0  0
  139.7610   75.4940  221.7700 C   0  0  0  0  0  0  0  0  0  0  0  0
  138.5660   75.4120  222.4160 N   0  0  0  0  0  0  0  0  0  0  0  0
  138.2430   74.4790  222.7630 H   0  0  0  0  0  0  0  0  0  0  0  0
  1  2  1  0
  2  3  2  0
  3  4  1  0
  4  5  1  0
  5  6  2  0
  6  7  1  0
  7  8  1  6
  7  9  1  0
  9 10  2  0
 10 11  1  0
 10 12  1  0
 12 13  1  0
 12 14  2  0
 14 15  1  0
 14 16  1  0
 16 17  1  0
 16 18  2  0
 18 19  1  0
  7 20  1  0
 20 21  1  0
 20 22  1  0
 20 23  1  0
  5 24  1  0
 24 25  1  0
  4 26  2  0
 26 27  1  0
 26 28  1  0
 28 29  1  0
 29 30  2  0
 29 31  1  0
 31 32  1  0
 32 33  1  0
 32 34  2  0
 34 35  1  0
 34 36  1  0
 36 37  1  0
 36 38  2  0
 38 39  1  0
 39 40  1  0
 39 41  1  0
 39 42  1  0
 38 43  1  0
 43 44  2  0
 44 45  1  0
 45 46  1  0
 46 47  1  0
 46  3  1  0
 18  9  1  0
 45 28  2  0
 43 31  1  0
M  END
>  <UniqueID>  (52) 
115

>  <SMILES>  (52) 
[H]/N=c1/[nH]c2nc3c(C)cccn3c(=O)c2cc1/C(O)=N\[C@@H](C)c1ccccc1

>  <Energy>  (52) 
68.70808571819731

>  <Genealogy>  (52) 
Cc1cccn2c(=O)c3cc(C(O)=N[C@@H](C)c4ccccc4)c(=N)[nH]c3nc12 (tautomer)
[H]/N=c1/[nH]c2nc3c(C)cccn3c(=O)c2cc1/C(O)=N\[C@@H](C)c1ccccc1 (cis-trans isomerization)
[H]/N=c1/[nH]c2nc3c(C)cccn3c(=O)c2cc1/C(O)=N\[C@@H](C)c1ccccc1 (3D coordinates assigned)
[H]/N=c1/[nH]c2nc3c(C)cccn3c(=O)c2cc1/C(O)=N\[C@@H](C)c1ccccc1 (optimized conformer: 68.70808571819731 kcal/mol)

>  <smiles>  (52) 
Cc1cccn2c(=O)c3cc(C(=O)N[C@@H](C)c4ccccc4)c(=N)[nH]c3nc12

>  <score_type>  (52) 
oracle

>  <origin>  (52) 
autodockgpu

>  <m_score__min__energy>  (52) 
-7.4400000000000004

>  <m_primary>  (52) 
energy

>  <meeko>  (52) 
{"free_energy": -6.76, "intermolecular_energy": -8.55, "internal_energy": -2.21, "cluster_size": 16, "cluster_id": 4, "rank_in_cluster": 9}

>  <energy>  (52) 
-6.76

>  <cluster_rmsd>  (52) 
0.04

>  <rmsd>  (52) 
271.17

>  <cluster>  (52) 
4

$$$$
PSCKMLPRYLACNW-QMAGNZAUNA-N
     RDKit          3D

 47 50  0  0  0  0  0  0  0  0999 V2000
  136.1910   77.0730  223.8280 H   0  0  0  0  0  0  0  0  0  0  0  0
  136.6250   76.3560  223.2050 N   0  0  0  0  0  0  0  0  0  0  0  0
  137.7720   76.5070  222.6100 C   0  0  0  0  0  0  0  0  0  0  0  0
  138.2110   77.7730  222.1570 C   0  0  0  0  0  0  0  0  0  0  0  0
  137.4190   79.0050  222.3560 C   0  0  0  0  0  0  0  0  0  0  0  0
  137.9280   80.1960  222.1990 N   0  0  0  0  0  0  0  0  0  0  0  0
  138.6730   80.9680  223.1980 C   0  0  2  0  0  0  0  0  0  0  0  0
  138.5962   82.0370  222.9504 H   0  0  0  0  0  0  0  0  0  0  0  0
  140.1260   80.5480  223.1820 C   0  0  0  0  0  0  0  0  0  0  0  0
  141.0690   81.2480  222.4050 C   0  0  0  0  0  0  0  0  0  0  0  0
  140.7541   82.1285  221.8258 H   0  0  0  0  0  0  0  0  0  0  0  0
  142.4030   80.8310  222.3650 C   0  0  0  0  0  0  0  0  0  0  0  0
  143.1349   81.3877  221.7614 H   0  0  0  0  0  0  0  0  0  0  0  0
  142.8070   79.7080  223.0910 C   0  0  0  0  0  0  0  0  0  0  0  0
  143.8572   79.3822  223.0608 H   0  0  0  0  0  0  0  0  0  0  0  0
  141.8780   78.9990  223.8550 C   0  0  0  0  0  0  0  0  0  0  0  0
  142.1968   78.1132  224.4240 H   0  0  0  0  0  0  0  0  0  0  0  0
  140.5430   79.4130  223.8980 C   0  0  0  0  0  0  0  0  0  0  0  0
  139.8143   78.8464  224.4963 H   0  0  0  0  0  0  0  0  0  0  0  0
  138.0840   80.7460  224.5960 C   0  0  0  0  0  0  0  0  0  0  0  0
  138.8280   81.0264  225.3561 H   0  0  0  0  0  0  0  0  0  0  0  0
  137.1839   81.3666  224.7174 H   0  0  0  0  0  0  0  0  0  0  0  0
  137.8175   79.6857  224.7174 H   0  0  0  0  0  0  0  0  0  0  0  0
  136.0810   78.8800  222.7170 O   0  0  0  0  0  0  0  0  0  0  0  0
  135.5420   78.0630  222.4560 H   0  0  0  0  0  0  0  0  0  0  0  0
  139.4240   77.8630  221.4660 C   0  0  0  0  0  0  0  0  0  0  0  0
  139.7572   78.8328  221.0678 H   0  0  0  0  0  0  0  0  0  0  0  0
  140.2170   76.7210  221.2790 C   0  0  0  0  0  0  0  0  0  0  0  0
  141.4600   76.7600  220.6230 C   0  0  0  0  0  0  0  0  0  0  0  0
  141.8880   77.8580  220.1680 O   0  0  0  0  0  0  0  0  0  0  0  0
  142.2020   75.6110  220.4830 N   0  0  0  0  0  0  0  0  0  0  0  0
  143.4230   75.6460  219.8550 C   0  0  0  0  0  0  0  0  0  0  0  0
  143.8024   76.5995  219.4588 H   0  0  0  0  0  0  0  0  0  0  0  0
  144.1880   74.4890  219.7130 C   0  0  0  0  0  0  0  0  0  0  0  0
  145.1653   74.5309  219.2099 H   0  0  0  0  0  0  0  0  0  0  0  0
  143.7100   73.2830  220.2100 C   0  0  0  0  0  0  0  0  0  0  0  0
  144.3110   72.3679  220.1030 H   0  0  0  0  0  0  0  0  0  0  0  0
  142.4660   73.2310  220.8460 C   0  0  0  0  0  0  0  0  0  0  0  0
  141.9470   71.9250  221.3840 C   0  0  0  0  0  0  0  0  0  0  0  0
  141.9575   71.9514  222.4836 H   0  0  0  0  0  0  0  0  0  0  0  0
  140.9174   71.7662  221.0308 H   0  0  0  0  0  0  0  0  0  0  0  0
  142.5867   71.1028  221.0308 H   0  0  0  0  0  0  0  0  0  0  0  0
  141.7180   74.4180  220.9800 C   0  0  0  0  0  0  0  0  0  0  0  0
  140.5130   74.3800  221.6090 N   0  0  0  0  0  0  0  0  0  0  0  0
  139.7580   75.4920  221.7720 C   0  0  0  0  0  0  0  0  0  0  0  0
  138.5590   75.4110  222.4110 N   0  0  0  0  0  0  0  0  0  0  0  0
  138.2320   74.4780  222.7530 H   0  0  0  0  0  0  0  0  0  0  0  0
  1  2  1  0
  2  3  2  0
  3  4  1  0
  4  5  1  0
  5  6  2  0
  6  7  1  0
  7  8  1  6
  7  9  1  0
  9 10  2  0
 10 11  1  0
 10 12  1  0
 12 13  1  0
 12 14  2  0
 14 15  1  0
 14 16  1  0
 16 17  1  0
 16 18  2  0
 18 19  1  0
  7 20  1  0
 20 21  1  0
 20 22  1  0
 20 23  1  0
  5 24  1  0
 24 25  1  0
  4 26  2  0
 26 27  1  0
 26 28  1  0
 28 29  1  0
 29 30  2  0
 29 31  1  0
 31 32  1  0
 32 33  1  0
 32 34  2  0
 34 35  1  0
 34 36  1  0
 36 37  1  0
 36 38  2  0
 38 39  1  0
 39 40  1  0
 39 41  1  0
 39 42  1  0
 38 43  1  0
 43 44  2  0
 44 45  1  0
 45 46  1  0
 46 47  1  0
 46  3  1  0
 18  9  1  0
 45 28  2  0
 43 31  1  0
M  END
>  <UniqueID>  (53) 
115

>  <SMILES>  (53) 
[H]/N=c1/[nH]c2nc3c(C)cccn3c(=O)c2cc1/C(O)=N\[C@@H](C)c1ccccc1

>  <Energy>  (53) 
68.70808571819731

>  <Genealogy>  (53) 
Cc1cccn2c(=O)c3cc(C(O)=N[C@@H](C)c4ccccc4)c(=N)[nH]c3nc12 (tautomer)
[H]/N=c1/[nH]c2nc3c(C)cccn3c(=O)c2cc1/C(O)=N\[C@@H](C)c1ccccc1 (cis-trans isomerization)
[H]/N=c1/[nH]c2nc3c(C)cccn3c(=O)c2cc1/C(O)=N\[C@@H](C)c1ccccc1 (3D coordinates assigned)
[H]/N=c1/[nH]c2nc3c(C)cccn3c(=O)c2cc1/C(O)=N\[C@@H](C)c1ccccc1 (optimized conformer: 68.70808571819731 kcal/mol)

>  <smiles>  (53) 
Cc1cccn2c(=O)c3cc(C(=O)N[C@@H](C)c4ccccc4)c(=N)[nH]c3nc12

>  <score_type>  (53) 
oracle

>  <origin>  (53) 
autodockgpu

>  <m_score__min__energy>  (53) 
-7.4400000000000004

>  <m_primary>  (53) 
energy

>  <meeko>  (53) 
{"free_energy": -6.77, "intermolecular_energy": -8.56, "internal_energy": -2.2, "cluster_size": 16, "cluster_id": 4, "rank_in_cluster": 2}

>  <energy>  (53) 
-6.76

>  <cluster_rmsd>  (53) 
0.03

>  <rmsd>  (53) 
271.17

>  <cluster>  (53) 
4

$$$$
PSCKMLPRYLACNW-QMAGNZAUNA-N
     RDKit          3D

 47 50  0  0  0  0  0  0  0  0999 V2000
  136.1520   77.1910  223.6820 H   0  0  0  0  0  0  0  0  0  0  0  0
  136.6200   76.4370  223.1320 N   0  0  0  0  0  0  0  0  0  0  0  0
  137.7670   76.5750  222.5370 C   0  0  0  0  0  0  0  0  0  0  0  0
  138.2080   77.8310  222.0580 C   0  0  0  0  0  0  0  0  0  0  0  0
  137.4160   79.0670  222.2290 C   0  0  0  0  0  0  0  0  0  0  0  0
  137.9530   80.2540  222.1760 N   0  0  0  0  0  0  0  0  0  0  0  0
  138.6720   80.9380  223.2560 C   0  0  2  0  0  0  0  0  0  0  0  0
  138.5795   82.0247  223.1126 H   0  0  0  0  0  0  0  0  0  0  0  0
  140.1320   80.5480  223.2190 C   0  0  0  0  0  0  0  0  0  0  0  0
  141.0560   81.2850  222.4550 C   0  0  0  0  0  0  0  0  0  0  0  0
  140.7207   82.1735  221.8999 H   0  0  0  0  0  0  0  0  0  0  0  0
  142.3980   80.8950  222.3970 C   0  0  0  0  0  0  0  0  0  0  0  0
  143.1155   81.4818  221.8046 H   0  0  0  0  0  0  0  0  0  0  0  0
  142.8280   79.7620  223.0900 C   0  0  0  0  0  0  0  0  0  0  0  0
  143.8840   79.4575  223.0445 H   0  0  0  0  0  0  0  0  0  0  0  0
  141.9180   79.0150  223.8410 C   0  0  0  0  0  0  0  0  0  0  0  0
  142.2575   78.1209  224.3845 H   0  0  0  0  0  0  0  0  0  0  0  0
  140.5760   79.4020  223.9030 C   0  0  0  0  0  0  0  0  0  0  0  0
  139.8623   78.8061  224.4908 H   0  0  0  0  0  0  0  0  0  0  0  0
  138.0690   80.5730  224.6160 C   0  0  0  0  0  0  0  0  0  0  0  0
  138.7124   80.9624  225.4188 H   0  0  0  0  0  0  0  0  0  0  0  0
  137.0657   81.0156  224.7029 H   0  0  0  0  0  0  0  0  0  0  0  0
  137.9959   79.4789  224.7029 H   0  0  0  0  0  0  0  0  0  0  0  0
  136.0470   78.9490  222.4480 O   0  0  0  0  0  0  0  0  0  0  0  0
  135.5560   78.0860  222.2470 H   0  0  0  0  0  0  0  0  0  0  0  0
  139.4220   77.9060  221.3670 C   0  0  0  0  0  0  0  0  0  0  0  0
  139.7562   78.8668  220.9485 H   0  0  0  0  0  0  0  0  0  0  0  0
  140.2150   76.7590  221.2060 C   0  0  0  0  0  0  0  0  0  0  0  0
  141.4590   76.7850  220.5520 C   0  0  0  0  0  0  0  0  0  0  0  0
  141.8890   77.8730  220.0740 O   0  0  0  0  0  0  0  0  0  0  0  0
  142.2010   75.6320  220.4370 N   0  0  0  0  0  0  0  0  0  0  0  0
  143.4230   75.6540  219.8110 C   0  0  0  0  0  0  0  0  0  0  0  0
  143.8033   76.5989  219.3957 H   0  0  0  0  0  0  0  0  0  0  0  0
  144.1880   74.4940  219.6950 C   0  0  0  0  0  0  0  0  0  0  0  0
  145.1664   74.5252  219.1932 H   0  0  0  0  0  0  0  0  0  0  0  0
  143.7090   73.2990  220.2160 C   0  0  0  0  0  0  0  0  0  0  0  0
  144.3100   72.3819  220.1289 H   0  0  0  0  0  0  0  0  0  0  0  0
  142.4640   73.2600  220.8510 C   0  0  0  0  0  0  0  0  0  0  0  0
  141.9440   71.9670  221.4160 C   0  0  0  0  0  0  0  0  0  0  0  0
  141.9626   72.0132  222.5149 H   0  0  0  0  0  0  0  0  0  0  0  0
  140.9112   71.8061  221.0732 H   0  0  0  0  0  0  0  0  0  0  0  0
  142.5778   71.1359  221.0732 H   0  0  0  0  0  0  0  0  0  0  0  0
  141.7160   74.4510  220.9580 C   0  0  0  0  0  0  0  0  0  0  0  0
  140.5090   74.4260  221.5860 N   0  0  0  0  0  0  0  0  0  0  0  0
  139.7550   75.5420  221.7240 C   0  0  0  0  0  0  0  0  0  0  0  0
  138.5540   75.4740  222.3620 N   0  0  0  0  0  0  0  0  0  0  0  0
  138.2270   74.5490  222.7230 H   0  0  0  0  0  0  0  0  0  0  0  0
  1  2  1  0
  2  3  2  0
  3  4  1  0
  4  5  1  0
  5  6  2  0
  6  7  1  0
  7  8  1  6
  7  9  1  0
  9 10  2  0
 10 11  1  0
 10 12  1  0
 12 13  1  0
 12 14  2  0
 14 15  1  0
 14 16  1  0
 16 17  1  0
 16 18  2  0
 18 19  1  0
  7 20  1  0
 20 21  1  0
 20 22  1  0
 20 23  1  0
  5 24  1  0
 24 25  1  0
  4 26  2  0
 26 27  1  0
 26 28  1  0
 28 29  1  0
 29 30  2  0
 29 31  1  0
 31 32  1  0
 32 33  1  0
 32 34  2  0
 34 35  1  0
 34 36  1  0
 36 37  1  0
 36 38  2  0
 38 39  1  0
 39 40  1  0
 39 41  1  0
 39 42  1  0
 38 43  1  0
 43 44  2  0
 44 45  1  0
 45 46  1  0
 46 47  1  0
 46  3  1  0
 18  9  1  0
 45 28  2  0
 43 31  1  0
M  END
>  <UniqueID>  (54) 
115

>  <SMILES>  (54) 
[H]/N=c1/[nH]c2nc3c(C)cccn3c(=O)c2cc1/C(O)=N\[C@@H](C)c1ccccc1

>  <Energy>  (54) 
68.70808571819731

>  <Genealogy>  (54) 
Cc1cccn2c(=O)c3cc(C(O)=N[C@@H](C)c4ccccc4)c(=N)[nH]c3nc12 (tautomer)
[H]/N=c1/[nH]c2nc3c(C)cccn3c(=O)c2cc1/C(O)=N\[C@@H](C)c1ccccc1 (cis-trans isomerization)
[H]/N=c1/[nH]c2nc3c(C)cccn3c(=O)c2cc1/C(O)=N\[C@@H](C)c1ccccc1 (3D coordinates assigned)
[H]/N=c1/[nH]c2nc3c(C)cccn3c(=O)c2cc1/C(O)=N\[C@@H](C)c1ccccc1 (optimized conformer: 68.70808571819731 kcal/mol)

>  <smiles>  (54) 
Cc1cccn2c(=O)c3cc(C(=O)N[C@@H](C)c4ccccc4)c(=N)[nH]c3nc12

>  <score_type>  (54) 
oracle

>  <origin>  (54) 
autodockgpu

>  <m_score__min__energy>  (54) 
-7.4400000000000004

>  <m_primary>  (54) 
energy

>  <meeko>  (54) 
{"free_energy": -6.7, "intermolecular_energy": -8.49, "internal_energy": -2.26, "cluster_size": 16, "cluster_id": 4, "rank_in_cluster": 15}

>  <energy>  (54) 
-6.75

>  <cluster_rmsd>  (54) 
0.03

>  <rmsd>  (54) 
271.17

>  <cluster>  (54) 
4

$$$$
PSCKMLPRYLACNW-QMAGNZAUNA-N
     RDKit          3D

 47 50  0  0  0  0  0  0  0  0999 V2000
  139.7340   71.0180  223.3750 H   0  0  0  0  0  0  0  0  0  0  0  0
  138.8130   71.4930  223.2480 N   0  0  0  0  0  0  0  0  0  0  0  0
  137.7380   71.1840  223.9110 C   0  0  0  0  0  0  0  0  0  0  0  0
  137.5980   69.9320  224.5550 C   0  0  0  0  0  0  0  0  0  0  0  0
  138.6680   68.9120  224.5460 C   0  0  0  0  0  0  0  0  0  0  0  0
  138.8220   68.0530  225.5150 N   0  0  0  0  0  0  0  0  0  0  0  0
  139.7970   68.1310  226.6080 C   0  0  2  0  0  0  0  0  0  0  0  0
  139.3626   67.6678  227.5062 H   0  0  0  0  0  0  0  0  0  0  0  0
  140.1220   69.5800  226.8940 C   0  0  0  0  0  0  0  0  0  0  0  0
  140.9690   70.3110  226.0390 C   0  0  0  0  0  0  0  0  0  0  0  0
  141.3767   69.8343  225.1354 H   0  0  0  0  0  0  0  0  0  0  0  0
  141.2950   71.6380  226.3310 C   0  0  0  0  0  0  0  0  0  0  0  0
  141.9511   72.2041  225.6535 H   0  0  0  0  0  0  0  0  0  0  0  0
  140.7890   72.2470  227.4820 C   0  0  0  0  0  0  0  0  0  0  0  0
  141.0450   73.2924  227.7093 H   0  0  0  0  0  0  0  0  0  0  0  0
  139.9580   71.5280  228.3440 C   0  0  0  0  0  0  0  0  0  0  0  0
  139.5624   72.0070  229.2517 H   0  0  0  0  0  0  0  0  0  0  0  0
  139.6280   70.2000  228.0550 C   0  0  0  0  0  0  0  0  0  0  0  0
  138.9777   69.6369  228.7406 H   0  0  0  0  0  0  0  0  0  0  0  0
  141.0780   67.3740  226.2380 C   0  0  0  0  0  0  0  0  0  0  0  0
  141.5998   67.0657  227.1560 H   0  0  0  0  0  0  0  0  0  0  0  0
  140.8197   66.4834  225.6463 H   0  0  0  0  0  0  0  0  0  0  0  0
  141.7335   68.0299  225.6463 H   0  0  0  0  0  0  0  0  0  0  0  0
  139.5330   68.8710  223.4580 O   0  0  0  0  0  0  0  0  0  0  0  0
  139.4130   69.4950  222.6690 H   0  0  0  0  0  0  0  0  0  0  0  0
  136.3930   69.6300  225.1970 C   0  0  0  0  0  0  0  0  0  0  0  0
  136.2530   68.6438  225.6638 H   0  0  0  0  0  0  0  0  0  0  0  0
  135.3620   70.5800  225.2480 C   0  0  0  0  0  0  0  0  0  0  0  0
  134.1450   70.3430  225.9100 C   0  0  0  0  0  0  0  0  0  0  0  0
  133.9510   69.2300  226.4750 O   0  0  0  0  0  0  0  0  0  0  0  0
  133.1760   71.3190  225.9420 N   0  0  0  0  0  0  0  0  0  0  0  0
  131.9900   71.0980  226.5980 C   0  0  0  0  0  0  0  0  0  0  0  0
  131.8165   70.1317  227.0941 H   0  0  0  0  0  0  0  0  0  0  0  0
  131.0030   72.0810  226.6440 C   0  0  0  0  0  0  0  0  0  0  0  0
  130.0584   71.8919  227.1750 H   0  0  0  0  0  0  0  0  0  0  0  0
  131.2190   73.3020  226.0150 C   0  0  0  0  0  0  0  0  0  0  0  0
  130.4445   74.0824  226.0498 H   0  0  0  0  0  0  0  0  0  0  0  0
  132.4180   73.5390  225.3390 C   0  0  0  0  0  0  0  0  0  0  0  0
  132.6530   74.8600  224.6580 C   0  0  0  0  0  0  0  0  0  0  0  0
  132.7925   75.6440  225.4168 H   0  0  0  0  0  0  0  0  0  0  0  0
  133.5534   74.7935  224.0297 H   0  0  0  0  0  0  0  0  0  0  0  0
  131.7849   75.1082  224.0297 H   0  0  0  0  0  0  0  0  0  0  0  0
  133.4000   72.5270  225.3150 C   0  0  0  0  0  0  0  0  0  0  0  0
  134.5760   72.7540  224.6700 N   0  0  0  0  0  0  0  0  0  0  0  0
  135.5550   71.8200  224.6250 C   0  0  0  0  0  0  0  0  0  0  0  0
  136.7190   72.0880  223.9710 N   0  0  0  0  0  0  0  0  0  0  0  0
  136.8290   73.0150  223.4980 H   0  0  0  0  0  0  0  0  0  0  0  0
  1  2  1  0
  2  3  2  0
  3  4  1  0
  4  5  1  0
  5  6  2  0
  6  7  1  0
  7  8  1  1
  7  9  1  0
  9 10  2  0
 10 11  1  0
 10 12  1  0
 12 13  1  0
 12 14  2  0
 14 15  1  0
 14 16  1  0
 16 17  1  0
 16 18  2  0
 18 19  1  0
  7 20  1  0
 20 21  1  0
 20 22  1  0
 20 23  1  0
  5 24  1  0
 24 25  1  0
  4 26  2  0
 26 27  1  0
 26 28  1  0
 28 29  1  0
 29 30  2  0
 29 31  1  0
 31 32  1  0
 32 33  1  0
 32 34  2  0
 34 35  1  0
 34 36  1  0
 36 37  1  0
 36 38  2  0
 38 39  1  0
 39 40  1  0
 39 41  1  0
 39 42  1  0
 38 43  1  0
 43 44  2  0
 44 45  1  0
 45 46  1  0
 46 47  1  0
 46  3  1  0
 18  9  1  0
 45 28  2  0
 43 31  1  0
M  END
>  <UniqueID>  (55) 
115

>  <SMILES>  (55) 
[H]/N=c1/[nH]c2nc3c(C)cccn3c(=O)c2cc1/C(O)=N\[C@@H](C)c1ccccc1

>  <Energy>  (55) 
68.70808571819731

>  <Genealogy>  (55) 
Cc1cccn2c(=O)c3cc(C(O)=N[C@@H](C)c4ccccc4)c(=N)[nH]c3nc12 (tautomer)
[H]/N=c1/[nH]c2nc3c(C)cccn3c(=O)c2cc1/C(O)=N\[C@@H](C)c1ccccc1 (cis-trans isomerization)
[H]/N=c1/[nH]c2nc3c(C)cccn3c(=O)c2cc1/C(O)=N\[C@@H](C)c1ccccc1 (3D coordinates assigned)
[H]/N=c1/[nH]c2nc3c(C)cccn3c(=O)c2cc1/C(O)=N\[C@@H](C)c1ccccc1 (optimized conformer: 68.70808571819731 kcal/mol)

>  <smiles>  (55) 
Cc1cccn2c(=O)c3cc(C(=O)N[C@@H](C)c4ccccc4)c(=N)[nH]c3nc12

>  <score_type>  (55) 
oracle

>  <origin>  (55) 
autodockgpu

>  <m_score__min__energy>  (55) 
-7.4400000000000004

>  <m_primary>  (55) 
energy

>  <meeko>  (55) 
{"free_energy": -7.44, "intermolecular_energy": -9.23, "internal_energy": -1.85, "cluster_size": 1, "cluster_id": 1, "rank_in_cluster": 1}

>  <energy>  (55) 
-6.74

>  <cluster_rmsd>  (55) 
0.05

>  <rmsd>  (55) 
271.16

>  <cluster>  (55) 
4

$$$$
PSCKMLPRYLACNW-QMAGNZAUNA-N
     RDKit          3D

 47 50  0  0  0  0  0  0  0  0999 V2000
  136.1610   77.1740  223.7560 H   0  0  0  0  0  0  0  0  0  0  0  0
  136.6010   76.4440  223.1540 N   0  0  0  0  0  0  0  0  0  0  0  0
  137.7500   76.5830  222.5630 C   0  0  0  0  0  0  0  0  0  0  0  0
  138.1990   77.8430  222.1010 C   0  0  0  0  0  0  0  0  0  0  0  0
  137.4130   79.0810  222.2870 C   0  0  0  0  0  0  0  0  0  0  0  0
  137.9450   80.2670  222.1860 N   0  0  0  0  0  0  0  0  0  0  0  0
  138.6790   80.9890  223.2310 C   0  0  2  0  0  0  0  0  0  0  0  0
  138.5960   82.0694  223.0416 H   0  0  0  0  0  0  0  0  0  0  0  0
  140.1350   80.5820  223.2010 C   0  0  0  0  0  0  0  0  0  0  0  0
  141.0670   81.2980  222.4260 C   0  0  0  0  0  0  0  0  0  0  0  0
  140.7414   82.1823  221.8586 H   0  0  0  0  0  0  0  0  0  0  0  0
  142.4040   80.8920  222.3730 C   0  0  0  0  0  0  0  0  0  0  0  0
  143.1275   81.4614  221.7710 H   0  0  0  0  0  0  0  0  0  0  0  0
  142.8220   79.7650  223.0830 C   0  0  0  0  0  0  0  0  0  0  0  0
  143.8748   79.4487  223.0422 H   0  0  0  0  0  0  0  0  0  0  0  0
  141.9040   79.0390  223.8450 C   0  0  0  0  0  0  0  0  0  0  0  0
  142.2338   78.1495  224.4018 H   0  0  0  0  0  0  0  0  0  0  0  0
  140.5650   79.4420  223.9010 C   0  0  0  0  0  0  0  0  0  0  0  0
  139.8444   78.8626  224.4969 H   0  0  0  0  0  0  0  0  0  0  0  0
  138.0830   80.6880  224.6100 C   0  0  0  0  0  0  0  0  0  0  0  0
  138.7736   81.0368  225.3920 H   0  0  0  0  0  0  0  0  0  0  0  0
  137.1189   81.2073  224.7140 H   0  0  0  0  0  0  0  0  0  0  0  0
  137.9286   79.6039  224.7140 H   0  0  0  0  0  0  0  0  0  0  0  0
  136.0560   78.9660  222.5720 O   0  0  0  0  0  0  0  0  0  0  0  0
  135.5400   78.1280  222.3330 H   0  0  0  0  0  0  0  0  0  0  0  0
  139.4150   77.9200  221.4150 C   0  0  0  0  0  0  0  0  0  0  0  0
  139.7558   78.8846  221.0109 H   0  0  0  0  0  0  0  0  0  0  0  0
  140.2020   76.7720  221.2400 C   0  0  0  0  0  0  0  0  0  0  0  0
  141.4480   76.7990  220.5890 C   0  0  0  0  0  0  0  0  0  0  0  0
  141.8850   77.8910  220.1280 O   0  0  0  0  0  0  0  0  0  0  0  0
  142.1850   75.6440  220.4620 N   0  0  0  0  0  0  0  0  0  0  0  0
  143.4080   75.6670  219.8390 C   0  0  0  0  0  0  0  0  0  0  0  0
  143.7943   76.6152  219.4369 H   0  0  0  0  0  0  0  0  0  0  0  0
  144.1670   74.5050  219.7090 C   0  0  0  0  0  0  0  0  0  0  0  0
  145.1464   74.5373  219.2092 H   0  0  0  0  0  0  0  0  0  0  0  0
  143.6800   73.3060  220.2140 C   0  0  0  0  0  0  0  0  0  0  0  0
  144.2763   72.3867  220.1173 H   0  0  0  0  0  0  0  0  0  0  0  0
  142.4330   73.2660  220.8450 C   0  0  0  0  0  0  0  0  0  0  0  0
  141.9050   71.9680  221.3910 C   0  0  0  0  0  0  0  0  0  0  0  0
  141.9181   72.0003  222.4905 H   0  0  0  0  0  0  0  0  0  0  0  0
  140.8734   71.8156  221.0410 H   0  0  0  0  0  0  0  0  0  0  0  0
  142.5373   71.1387  221.0410 H   0  0  0  0  0  0  0  0  0  0  0  0
  141.6910   74.4590  220.9660 C   0  0  0  0  0  0  0  0  0  0  0  0
  140.4830   74.4320  221.5900 N   0  0  0  0  0  0  0  0  0  0  0  0
  139.7350   75.5500  221.7420 C   0  0  0  0  0  0  0  0  0  0  0  0
  138.5320   75.4810  222.3750 N   0  0  0  0  0  0  0  0  0  0  0  0
  138.1990   74.5530  222.7240 H   0  0  0  0  0  0  0  0  0  0  0  0
  1  2  1  0
  2  3  2  0
  3  4  1  0
  4  5  1  0
  5  6  2  0
  6  7  1  0
  7  8  1  6
  7  9  1  0
  9 10  2  0
 10 11  1  0
 10 12  1  0
 12 13  1  0
 12 14  2  0
 14 15  1  0
 14 16  1  0
 16 17  1  0
 16 18  2  0
 18 19  1  0
  7 20  1  0
 20 21  1  0
 20 22  1  0
 20 23  1  0
  5 24  1  0
 24 25  1  0
  4 26  2  0
 26 27  1  0
 26 28  1  0
 28 29  1  0
 29 30  2  0
 29 31  1  0
 31 32  1  0
 32 33  1  0
 32 34  2  0
 34 35  1  0
 34 36  1  0
 36 37  1  0
 36 38  2  0
 38 39  1  0
 39 40  1  0
 39 41  1  0
 39 42  1  0
 38 43  1  0
 43 44  2  0
 44 45  1  0
 45 46  1  0
 46 47  1  0
 46  3  1  0
 18  9  1  0
 45 28  2  0
 43 31  1  0
M  END
>  <UniqueID>  (56) 
115

>  <SMILES>  (56) 
[H]/N=c1/[nH]c2nc3c(C)cccn3c(=O)c2cc1/C(O)=N\[C@@H](C)c1ccccc1

>  <Energy>  (56) 
68.70808571819731

>  <Genealogy>  (56) 
Cc1cccn2c(=O)c3cc(C(O)=N[C@@H](C)c4ccccc4)c(=N)[nH]c3nc12 (tautomer)
[H]/N=c1/[nH]c2nc3c(C)cccn3c(=O)c2cc1/C(O)=N\[C@@H](C)c1ccccc1 (cis-trans isomerization)
[H]/N=c1/[nH]c2nc3c(C)cccn3c(=O)c2cc1/C(O)=N\[C@@H](C)c1ccccc1 (3D coordinates assigned)
[H]/N=c1/[nH]c2nc3c(C)cccn3c(=O)c2cc1/C(O)=N\[C@@H](C)c1ccccc1 (optimized conformer: 68.70808571819731 kcal/mol)

>  <smiles>  (56) 
Cc1cccn2c(=O)c3cc(C(=O)N[C@@H](C)c4ccccc4)c(=N)[nH]c3nc12

>  <score_type>  (56) 
oracle

>  <origin>  (56) 
autodockgpu

>  <m_score__min__energy>  (56) 
-7.4400000000000004

>  <m_primary>  (56) 
energy

>  <meeko>  (56) 
{"free_energy": -6.73, "intermolecular_energy": -8.52, "internal_energy": -2.24, "cluster_size": 16, "cluster_id": 4, "rank_in_cluster": 12}

>  <energy>  (56) 
-6.73

>  <cluster_rmsd>  (56) 
0.09

>  <rmsd>  (56) 
271.16

>  <cluster>  (56) 
4

$$$$
PSCKMLPRYLACNW-QMAGNZAUNA-N
     RDKit          3D

 47 50  0  0  0  0  0  0  0  0999 V2000
  134.3730   68.6050  226.4600 H   0  0  0  0  0  0  0  0  0  0  0  0
  133.9460   69.4960  226.8000 N   0  0  0  0  0  0  0  0  0  0  0  0
  134.1690   70.6590  226.2640 C   0  0  0  0  0  0  0  0  0  0  0  0
  135.0380   70.8120  225.1580 C   0  0  0  0  0  0  0  0  0  0  0  0
  135.7200   69.6660  224.5210 C   0  0  0  0  0  0  0  0  0  0  0  0
  136.9470   69.7370  224.0860 N   0  0  0  0  0  0  0  0  0  0  0  0
  138.0680   68.8800  224.4860 C   0  0  2  0  0  0  0  0  0  0  0  0
  137.6724   68.0084  225.0281 H   0  0  0  0  0  0  0  0  0  0  0  0
  139.0020   69.6560  225.3880 C   0  0  0  0  0  0  0  0  0  0  0  0
  139.7100   70.7720  224.9030 C   0  0  0  0  0  0  0  0  0  0  0  0
  139.5619   71.1040  223.8648 H   0  0  0  0  0  0  0  0  0  0  0  0
  140.6000   71.4610  225.7320 C   0  0  0  0  0  0  0  0  0  0  0  0
  141.1434   72.3366  225.3472 H   0  0  0  0  0  0  0  0  0  0  0  0
  140.8000   71.0390  227.0480 C   0  0  0  0  0  0  0  0  0  0  0  0
  141.4990   71.5836  227.6997 H   0  0  0  0  0  0  0  0  0  0  0  0
  140.1130   69.9260  227.5370 C   0  0  0  0  0  0  0  0  0  0  0  0
  140.2738   69.5930  228.5730 H   0  0  0  0  0  0  0  0  0  0  0  0
  139.2210   69.2340  226.7120 C   0  0  0  0  0  0  0  0  0  0  0  0
  138.6872   68.3542  227.1007 H   0  0  0  0  0  0  0  0  0  0  0  0
  138.8310   68.3830  223.2530 C   0  0  0  0  0  0  0  0  0  0  0  0
  139.7125   67.8088  223.5742 H   0  0  0  0  0  0  0  0  0  0  0  0
  138.1738   67.7392  222.6500 H   0  0  0  0  0  0  0  0  0  0  0  0
  139.1542   69.2444  222.6500 H   0  0  0  0  0  0  0  0  0  0  0  0
  135.0200   68.4700  224.3900 O   0  0  0  0  0  0  0  0  0  0  0  0
  134.2150   68.2680  224.9710 H   0  0  0  0  0  0  0  0  0  0  0  0
  135.2910   72.0970  224.6660 C   0  0  0  0  0  0  0  0  0  0  0  0
  135.9993   72.2368  223.8361 H   0  0  0  0  0  0  0  0  0  0  0  0
  134.6440   73.2080  225.2280 C   0  0  0  0  0  0  0  0  0  0  0  0
  134.8330   74.5170  224.7500 C   0  0  0  0  0  0  0  0  0  0  0  0
  135.6230   74.7180  223.7850 O   0  0  0  0  0  0  0  0  0  0  0  0
  134.1590   75.5670  225.3290 N   0  0  0  0  0  0  0  0  0  0  0  0
  134.3310   76.8450  224.8590 C   0  0  0  0  0  0  0  0  0  0  0  0
  135.0172   77.0260  224.0186 H   0  0  0  0  0  0  0  0  0  0  0  0
  133.6480   77.9170  225.4320 C   0  0  0  0  0  0  0  0  0  0  0  0
  133.7913   78.9358  225.0427 H   0  0  0  0  0  0  0  0  0  0  0  0
  132.7850   77.6910  226.4980 C   0  0  0  0  0  0  0  0  0  0  0  0
  132.2428   78.5328  226.9535 H   0  0  0  0  0  0  0  0  0  0  0  0
  132.6050   76.3960  226.9920 C   0  0  0  0  0  0  0  0  0  0  0  0
  131.6710   76.1500  228.1450 C   0  0  0  0  0  0  0  0  0  0  0  0
  132.2121   76.2925  229.0920 H   0  0  0  0  0  0  0  0  0  0  0  0
  130.8302   76.8573  228.0931 H   0  0  0  0  0  0  0  0  0  0  0  0
  131.2877   75.1203  228.0931 H   0  0  0  0  0  0  0  0  0  0  0  0
  133.3050   75.3320  226.3870 C   0  0  0  0  0  0  0  0  0  0  0  0
  133.1260   74.0660  226.8520 N   0  0  0  0  0  0  0  0  0  0  0  0
  133.7660   73.0080  226.3010 C   0  0  0  0  0  0  0  0  0  0  0  0
  133.5580   71.7560  226.7950 N   0  0  0  0  0  0  0  0  0  0  0  0
  132.9120   71.6370  227.6090 H   0  0  0  0  0  0  0  0  0  0  0  0
  1  2  1  0
  2  3  2  0
  3  4  1  0
  4  5  1  0
  5  6  2  0
  6  7  1  0
  7  8  1  1
  7  9  1  0
  9 10  2  0
 10 11  1  0
 10 12  1  0
 12 13  1  0
 12 14  2  0
 14 15  1  0
 14 16  1  0
 16 17  1  0
 16 18  2  0
 18 19  1  0
  7 20  1  0
 20 21  1  0
 20 22  1  0
 20 23  1  0
  5 24  1  0
 24 25  1  0
  4 26  2  0
 26 27  1  0
 26 28  1  0
 28 29  1  0
 29 30  2  0
 29 31  1  0
 31 32  1  0
 32 33  1  0
 32 34  2  0
 34 35  1  0
 34 36  1  0
 36 37  1  0
 36 38  2  0
 38 39  1  0
 39 40  1  0
 39 41  1  0
 39 42  1  0
 38 43  1  0
 43 44  2  0
 44 45  1  0
 45 46  1  0
 46 47  1  0
 46  3  1  0
 18  9  1  0
 45 28  2  0
 43 31  1  0
M  END
>  <UniqueID>  (57) 
115

>  <SMILES>  (57) 
[H]/N=c1/[nH]c2nc3c(C)cccn3c(=O)c2cc1/C(O)=N\[C@@H](C)c1ccccc1

>  <Energy>  (57) 
68.70808571819731

>  <Genealogy>  (57) 
Cc1cccn2c(=O)c3cc(C(O)=N[C@@H](C)c4ccccc4)c(=N)[nH]c3nc12 (tautomer)
[H]/N=c1/[nH]c2nc3c(C)cccn3c(=O)c2cc1/C(O)=N\[C@@H](C)c1ccccc1 (cis-trans isomerization)
[H]/N=c1/[nH]c2nc3c(C)cccn3c(=O)c2cc1/C(O)=N\[C@@H](C)c1ccccc1 (3D coordinates assigned)
[H]/N=c1/[nH]c2nc3c(C)cccn3c(=O)c2cc1/C(O)=N\[C@@H](C)c1ccccc1 (optimized conformer: 68.70808571819731 kcal/mol)

>  <smiles>  (57) 
Cc1cccn2c(=O)c3cc(C(=O)N[C@@H](C)c4ccccc4)c(=N)[nH]c3nc12

>  <score_type>  (57) 
oracle

>  <origin>  (57) 
autodockgpu

>  <m_score__min__energy>  (57) 
-7.4400000000000004

>  <m_primary>  (57) 
energy

>  <meeko>  (57) 
{"free_energy": -7.38, "intermolecular_energy": -9.17, "internal_energy": -1.48, "cluster_size": 2, "cluster_id": 2, "rank_in_cluster": 1}

>  <energy>  (57) 
-6.72

>  <cluster_rmsd>  (57) 
0.08

>  <rmsd>  (57) 
271.16

>  <cluster>  (57) 
4

$$$$
PSCKMLPRYLACNW-QMAGNZAUNA-N
     RDKit          3D

 47 50  0  0  0  0  0  0  0  0999 V2000
  136.1730   77.0630  223.8240 H   0  0  0  0  0  0  0  0  0  0  0  0
  136.6010   76.3550  223.1880 N   0  0  0  0  0  0  0  0  0  0  0  0
  137.7500   76.5070  222.5980 C   0  0  0  0  0  0  0  0  0  0  0  0
  138.1900   77.7740  222.1490 C   0  0  0  0  0  0  0  0  0  0  0  0
  137.3970   79.0050  222.3460 C   0  0  0  0  0  0  0  0  0  0  0  0
  137.9060   80.1960  222.1960 N   0  0  0  0  0  0  0  0  0  0  0  0
  138.6700   80.9540  223.1930 C   0  0  2  0  0  0  0  0  0  0  0  0
  138.6137   82.0244  222.9457 H   0  0  0  0  0  0  0  0  0  0  0  0
  140.1150   80.5060  223.1720 C   0  0  0  0  0  0  0  0  0  0  0  0
  141.0530   81.1420  222.3370 C   0  0  0  0  0  0  0  0  0  0  0  0
  140.7416   81.9933  221.7139 H   0  0  0  0  0  0  0  0  0  0  0  0
  142.3780   80.6980  222.2950 C   0  0  0  0  0  0  0  0  0  0  0  0
  143.1072   81.2056  221.6465 H   0  0  0  0  0  0  0  0  0  0  0  0
  142.7770   79.6100  223.0760 C   0  0  0  0  0  0  0  0  0  0  0  0
  143.8202   79.2626  223.0430 H   0  0  0  0  0  0  0  0  0  0  0  0
  141.8520   78.9640  223.8980 C   0  0  0  0  0  0  0  0  0  0  0  0
  142.1669   78.1064  224.5107 H   0  0  0  0  0  0  0  0  0  0  0  0
  140.5260   79.4050  223.9440 C   0  0  0  0  0  0  0  0  0  0  0  0
  139.7998   78.8875  224.5881 H   0  0  0  0  0  0  0  0  0  0  0  0
  138.0810   80.7440  224.5920 C   0  0  0  0  0  0  0  0  0  0  0  0
  138.8319   81.0117  225.3499 H   0  0  0  0  0  0  0  0  0  0  0  0
  137.1925   81.3808  224.7151 H   0  0  0  0  0  0  0  0  0  0  0  0
  137.7958   79.6888  224.7151 H   0  0  0  0  0  0  0  0  0  0  0  0
  136.0570   78.8780  222.6980 O   0  0  0  0  0  0  0  0  0  0  0  0
  135.5220   78.0590  222.4380 H   0  0  0  0  0  0  0  0  0  0  0  0
  139.4060   77.8660  221.4620 C   0  0  0  0  0  0  0  0  0  0  0  0
  139.7402   78.8363  221.0660 H   0  0  0  0  0  0  0  0  0  0  0  0
  140.2000   76.7240  221.2770 C   0  0  0  0  0  0  0  0  0  0  0  0
  141.4460   76.7650  220.6260 C   0  0  0  0  0  0  0  0  0  0  0  0
  141.8750   77.8640  220.1740 O   0  0  0  0  0  0  0  0  0  0  0  0
  142.1890   75.6160  220.4870 N   0  0  0  0  0  0  0  0  0  0  0  0
  143.4120   75.6530  219.8640 C   0  0  0  0  0  0  0  0  0  0  0  0
  143.7918   76.6073  219.4701 H   0  0  0  0  0  0  0  0  0  0  0  0
  144.1790   74.4970  219.7240 C   0  0  0  0  0  0  0  0  0  0  0  0
  145.1591   74.5409  219.2266 H   0  0  0  0  0  0  0  0  0  0  0  0
  143.6990   73.2890  220.2160 C   0  0  0  0  0  0  0  0  0  0  0  0
  144.3001   72.3741  220.1087 H   0  0  0  0  0  0  0  0  0  0  0  0
  142.4530   73.2360  220.8470 C   0  0  0  0  0  0  0  0  0  0  0  0
  141.9330   71.9290  221.3820 C   0  0  0  0  0  0  0  0  0  0  0  0
  141.9426   71.9531  222.4817 H   0  0  0  0  0  0  0  0  0  0  0  0
  140.9036   71.7713  221.0277 H   0  0  0  0  0  0  0  0  0  0  0  0
  142.5727   71.1073  221.0277 H   0  0  0  0  0  0  0  0  0  0  0  0
  141.7040   74.4230  220.9800 C   0  0  0  0  0  0  0  0  0  0  0  0
  140.4960   74.3830  221.6040 N   0  0  0  0  0  0  0  0  0  0  0  0
  139.7400   75.4950  221.7660 C   0  0  0  0  0  0  0  0  0  0  0  0
  138.5380   75.4120  222.4000 N   0  0  0  0  0  0  0  0  0  0  0  0
  138.2110   74.4780  222.7390 H   0  0  0  0  0  0  0  0  0  0  0  0
  1  2  1  0
  2  3  2  0
  3  4  1  0
  4  5  1  0
  5  6  2  0
  6  7  1  0
  7  8  1  6
  7  9  1  0
  9 10  2  0
 10 11  1  0
 10 12  1  0
 12 13  1  0
 12 14  2  0
 14 15  1  0
 14 16  1  0
 16 17  1  0
 16 18  2  0
 18 19  1  0
  7 20  1  0
 20 21  1  0
 20 22  1  0
 20 23  1  0
  5 24  1  0
 24 25  1  0
  4 26  2  0
 26 27  1  0
 26 28  1  0
 28 29  1  0
 29 30  2  0
 29 31  1  0
 31 32  1  0
 32 33  1  0
 32 34  2  0
 34 35  1  0
 34 36  1  0
 36 37  1  0
 36 38  2  0
 38 39  1  0
 39 40  1  0
 39 41  1  0
 39 42  1  0
 38 43  1  0
 43 44  2  0
 44 45  1  0
 45 46  1  0
 46 47  1  0
 46  3  1  0
 18  9  1  0
 45 28  2  0
 43 31  1  0
M  END
>  <UniqueID>  (58) 
115

>  <SMILES>  (58) 
[H]/N=c1/[nH]c2nc3c(C)cccn3c(=O)c2cc1/C(O)=N\[C@@H](C)c1ccccc1

>  <Energy>  (58) 
68.70808571819731

>  <Genealogy>  (58) 
Cc1cccn2c(=O)c3cc(C(O)=N[C@@H](C)c4ccccc4)c(=N)[nH]c3nc12 (tautomer)
[H]/N=c1/[nH]c2nc3c(C)cccn3c(=O)c2cc1/C(O)=N\[C@@H](C)c1ccccc1 (cis-trans isomerization)
[H]/N=c1/[nH]c2nc3c(C)cccn3c(=O)c2cc1/C(O)=N\[C@@H](C)c1ccccc1 (3D coordinates assigned)
[H]/N=c1/[nH]c2nc3c(C)cccn3c(=O)c2cc1/C(O)=N\[C@@H](C)c1ccccc1 (optimized conformer: 68.70808571819731 kcal/mol)

>  <smiles>  (58) 
Cc1cccn2c(=O)c3cc(C(=O)N[C@@H](C)c4ccccc4)c(=N)[nH]c3nc12

>  <score_type>  (58) 
oracle

>  <origin>  (58) 
autodockgpu

>  <m_score__min__energy>  (58) 
-7.4400000000000004

>  <m_primary>  (58) 
energy

>  <meeko>  (58) 
{"free_energy": -6.72, "intermolecular_energy": -8.51, "internal_energy": -2.25, "cluster_size": 16, "cluster_id": 4, "rank_in_cluster": 14}

>  <energy>  (58) 
-6.72

>  <cluster_rmsd>  (58) 
0.06

>  <rmsd>  (58) 
271.16

>  <cluster>  (58) 
4

$$$$
PSCKMLPRYLACNW-QMAGNZAUNA-N
     RDKit          3D

 47 50  0  0  0  0  0  0  0  0999 V2000
  134.4480   68.6280  226.5320 H   0  0  0  0  0  0  0  0  0  0  0  0
  133.9610   69.5080  226.8120 N   0  0  0  0  0  0  0  0  0  0  0  0
  134.1910   70.6690  226.2760 C   0  0  0  0  0  0  0  0  0  0  0  0
  135.0660   70.8170  225.1750 C   0  0  0  0  0  0  0  0  0  0  0  0
  135.7470   69.6680  224.5420 C   0  0  0  0  0  0  0  0  0  0  0  0
  136.9570   69.7490  224.0630 N   0  0  0  0  0  0  0  0  0  0  0  0
  138.1040   68.9140  224.4360 C   0  0  2  0  0  0  0  0  0  0  0  0
  137.7382   68.0230  224.9673 H   0  0  0  0  0  0  0  0  0  0  0  0
  139.0270   69.6980  225.3410 C   0  0  0  0  0  0  0  0  0  0  0  0
  139.7180   70.8270  224.8620 C   0  0  0  0  0  0  0  0  0  0  0  0
  139.5632   71.1633  223.8262 H   0  0  0  0  0  0  0  0  0  0  0  0
  140.6000   71.5240  225.6940 C   0  0  0  0  0  0  0  0  0  0  0  0
  141.1304   72.4095  225.3136 H   0  0  0  0  0  0  0  0  0  0  0  0
  140.8080   71.0970  227.0070 C   0  0  0  0  0  0  0  0  0  0  0  0
  141.5007   71.6471  227.6610 H   0  0  0  0  0  0  0  0  0  0  0  0
  140.1370   69.9720  227.4900 C   0  0  0  0  0  0  0  0  0  0  0  0
  140.3028   69.6359  228.5242 H   0  0  0  0  0  0  0  0  0  0  0  0
  139.2550   69.2720  226.6620 C   0  0  0  0  0  0  0  0  0  0  0  0
  138.7355   68.3817  227.0461 H   0  0  0  0  0  0  0  0  0  0  0  0
  138.8640   68.4590  223.1860 C   0  0  0  0  0  0  0  0  0  0  0  0
  139.7719   67.9154  223.4865 H   0  0  0  0  0  0  0  0  0  0  0  0
  138.2215   67.7968  222.5870 H   0  0  0  0  0  0  0  0  0  0  0  0
  139.1442   69.3380  222.5870 H   0  0  0  0  0  0  0  0  0  0  0  0
  135.0660   68.4570  224.4670 O   0  0  0  0  0  0  0  0  0  0  0  0
  134.2210   68.2960  225.0030 H   0  0  0  0  0  0  0  0  0  0  0  0
  135.3270   72.1010  224.6820 C   0  0  0  0  0  0  0  0  0  0  0  0
  136.0404   72.2369  223.8558 H   0  0  0  0  0  0  0  0  0  0  0  0
  134.6810   73.2150  225.2390 C   0  0  0  0  0  0  0  0  0  0  0  0
  134.8790   74.5230  224.7600 C   0  0  0  0  0  0  0  0  0  0  0  0
  135.6750   74.7190  223.7990 O   0  0  0  0  0  0  0  0  0  0  0  0
  134.2060   75.5760  225.3350 N   0  0  0  0  0  0  0  0  0  0  0  0
  134.3850   76.8530  224.8630 C   0  0  0  0  0  0  0  0  0  0  0  0
  135.0754   77.0298  224.0251 H   0  0  0  0  0  0  0  0  0  0  0  0
  133.7040   77.9280  225.4310 C   0  0  0  0  0  0  0  0  0  0  0  0
  133.8538   78.9457  225.0414 H   0  0  0  0  0  0  0  0  0  0  0  0
  132.8340   77.7070  226.4930 C   0  0  0  0  0  0  0  0  0  0  0  0
  132.2922   78.5514  226.9440 H   0  0  0  0  0  0  0  0  0  0  0  0
  132.6470   76.4140  226.9880 C   0  0  0  0  0  0  0  0  0  0  0  0
  131.7050   76.1740  228.1360 C   0  0  0  0  0  0  0  0  0  0  0  0
  132.2424   76.3109  229.0860 H   0  0  0  0  0  0  0  0  0  0  0  0
  130.8702   76.8881  228.0807 H   0  0  0  0  0  0  0  0  0  0  0  0
  131.3137   75.1475  228.0807 H   0  0  0  0  0  0  0  0  0  0  0  0
  133.3450   75.3450  226.3880 C   0  0  0  0  0  0  0  0  0  0  0  0
  133.1590   74.0810  226.8540 N   0  0  0  0  0  0  0  0  0  0  0  0
  133.7980   73.0190  226.3080 C   0  0  0  0  0  0  0  0  0  0  0  0
  133.5810   71.7700  226.8030 N   0  0  0  0  0  0  0  0  0  0  0  0
  132.9300   71.6550  227.6130 H   0  0  0  0  0  0  0  0  0  0  0  0
  1  2  1  0
  2  3  2  0
  3  4  1  0
  4  5  1  0
  5  6  2  0
  6  7  1  0
  7  8  1  1
  7  9  1  0
  9 10  2  0
 10 11  1  0
 10 12  1  0
 12 13  1  0
 12 14  2  0
 14 15  1  0
 14 16  1  0
 16 17  1  0
 16 18  2  0
 18 19  1  0
  7 20  1  0
 20 21  1  0
 20 22  1  0
 20 23  1  0
  5 24  1  0
 24 25  1  0
  4 26  2  0
 26 27  1  0
 26 28  1  0
 28 29  1  0
 29 30  2  0
 29 31  1  0
 31 32  1  0
 32 33  1  0
 32 34  2  0
 34 35  1  0
 34 36  1  0
 36 37  1  0
 36 38  2  0
 38 39  1  0
 39 40  1  0
 39 41  1  0
 39 42  1  0
 38 43  1  0
 43 44  2  0
 44 45  1  0
 45 46  1  0
 46 47  1  0
 46  3  1  0
 18  9  1  0
 45 28  2  0
 43 31  1  0
M  END
>  <UniqueID>  (59) 
115

>  <SMILES>  (59) 
[H]/N=c1/[nH]c2nc3c(C)cccn3c(=O)c2cc1/C(O)=N\[C@@H](C)c1ccccc1

>  <Energy>  (59) 
68.70808571819731

>  <Genealogy>  (59) 
Cc1cccn2c(=O)c3cc(C(O)=N[C@@H](C)c4ccccc4)c(=N)[nH]c3nc12 (tautomer)
[H]/N=c1/[nH]c2nc3c(C)cccn3c(=O)c2cc1/C(O)=N\[C@@H](C)c1ccccc1 (cis-trans isomerization)
[H]/N=c1/[nH]c2nc3c(C)cccn3c(=O)c2cc1/C(O)=N\[C@@H](C)c1ccccc1 (3D coordinates assigned)
[H]/N=c1/[nH]c2nc3c(C)cccn3c(=O)c2cc1/C(O)=N\[C@@H](C)c1ccccc1 (optimized conformer: 68.70808571819731 kcal/mol)

>  <smiles>  (59) 
Cc1cccn2c(=O)c3cc(C(=O)N[C@@H](C)c4ccccc4)c(=N)[nH]c3nc12

>  <score_type>  (59) 
oracle

>  <origin>  (59) 
autodockgpu

>  <m_score__min__energy>  (59) 
-7.4400000000000004

>  <m_primary>  (59) 
energy

>  <meeko>  (59) 
{"free_energy": -7.33, "intermolecular_energy": -9.12, "internal_energy": -1.53, "cluster_size": 2, "cluster_id": 2, "rank_in_cluster": 2}

>  <energy>  (59) 
-6.7

>  <cluster_rmsd>  (59) 
0.11

>  <rmsd>  (59) 
271.14

>  <cluster>  (59) 
4

$$$$
PSCKMLPRYLACNW-QMAGNZAUNA-N
     RDKit          3D

 47 50  0  0  0  0  0  0  0  0999 V2000
  136.2080   77.0440  223.8260 H   0  0  0  0  0  0  0  0  0  0  0  0
  136.6370   76.3360  223.1900 N   0  0  0  0  0  0  0  0  0  0  0  0
  137.7830   76.4900  222.5970 C   0  0  0  0  0  0  0  0  0  0  0  0
  138.2230   77.7580  222.1500 C   0  0  0  0  0  0  0  0  0  0  0  0
  137.4310   78.9890  222.3550 C   0  0  0  0  0  0  0  0  0  0  0  0
  137.9360   80.1800  222.1900 N   0  0  0  0  0  0  0  0  0  0  0  0
  138.6700   80.9650  223.1890 C   0  0  2  0  0  0  0  0  0  0  0  0
  138.5865   82.0319  222.9344 H   0  0  0  0  0  0  0  0  0  0  0  0
  140.1260   80.5560  223.1830 C   0  0  0  0  0  0  0  0  0  0  0  0
  141.0730   81.2740  222.4270 C   0  0  0  0  0  0  0  0  0  0  0  0
  140.7586   82.1605  221.8567 H   0  0  0  0  0  0  0  0  0  0  0  0
  142.4100   80.8670  222.3970 C   0  0  0  0  0  0  0  0  0  0  0  0
  143.1445   81.4378  221.8099 H   0  0  0  0  0  0  0  0  0  0  0  0
  142.8150   79.7370  223.1110 C   0  0  0  0  0  0  0  0  0  0  0  0
  143.8678   79.4190  223.0874 H   0  0  0  0  0  0  0  0  0  0  0  0
  141.8820   79.0110  223.8550 C   0  0  0  0  0  0  0  0  0  0  0  0
  142.2010   78.1199  224.4155 H   0  0  0  0  0  0  0  0  0  0  0  0
  140.5440   79.4140  223.8890 C   0  0  0  0  0  0  0  0  0  0  0  0
  139.8133   78.8340  224.4718 H   0  0  0  0  0  0  0  0  0  0  0  0
  138.0750   80.7490  224.5840 C   0  0  0  0  0  0  0  0  0  0  0  0
  138.8203   81.0196  225.3464 H   0  0  0  0  0  0  0  0  0  0  0  0
  137.1822   81.3804  224.7036 H   0  0  0  0  0  0  0  0  0  0  0  0
  137.7952   79.6919  224.7036 H   0  0  0  0  0  0  0  0  0  0  0  0
  136.0970   78.8620  222.7300 O   0  0  0  0  0  0  0  0  0  0  0  0
  135.5530   78.0500  222.4640 H   0  0  0  0  0  0  0  0  0  0  0  0
  139.4360   77.8510  221.4600 C   0  0  0  0  0  0  0  0  0  0  0  0
  139.7694   78.8226  221.0664 H   0  0  0  0  0  0  0  0  0  0  0  0
  140.2290   76.7100  221.2680 C   0  0  0  0  0  0  0  0  0  0  0  0
  141.4730   76.7520  220.6130 C   0  0  0  0  0  0  0  0  0  0  0  0
  141.9010   77.8530  220.1640 O   0  0  0  0  0  0  0  0  0  0  0  0
  142.2150   75.6030  220.4670 N   0  0  0  0  0  0  0  0  0  0  0  0
  143.4350   75.6410  219.8400 C   0  0  0  0  0  0  0  0  0  0  0  0
  143.8137   76.5964  219.4479 H   0  0  0  0  0  0  0  0  0  0  0  0
  144.2010   74.4860  219.6930 C   0  0  0  0  0  0  0  0  0  0  0  0
  145.1792   74.5311  219.1919 H   0  0  0  0  0  0  0  0  0  0  0  0
  143.7220   73.2770  220.1830 C   0  0  0  0  0  0  0  0  0  0  0  0
  144.3229   72.3625  220.0710 H   0  0  0  0  0  0  0  0  0  0  0  0
  142.4780   73.2210  220.8180 C   0  0  0  0  0  0  0  0  0  0  0  0
  141.9590   71.9130  221.3490 C   0  0  0  0  0  0  0  0  0  0  0  0
  141.9675   71.9345  222.4488 H   0  0  0  0  0  0  0  0  0  0  0  0
  140.9301   71.7552  220.9933 H   0  0  0  0  0  0  0  0  0  0  0  0
  142.5998   71.0927  220.9933 H   0  0  0  0  0  0  0  0  0  0  0  0
  141.7300   74.4080  220.9580 C   0  0  0  0  0  0  0  0  0  0  0  0
  140.5250   74.3670  221.5860 N   0  0  0  0  0  0  0  0  0  0  0  0
  139.7700   75.4790  221.7550 C   0  0  0  0  0  0  0  0  0  0  0  0
  138.5700   75.3940  222.3920 N   0  0  0  0  0  0  0  0  0  0  0  0
  138.2440   74.4600  222.7290 H   0  0  0  0  0  0  0  0  0  0  0  0
  1  2  1  0
  2  3  2  0
  3  4  1  0
  4  5  1  0
  5  6  2  0
  6  7  1  0
  7  8  1  6
  7  9  1  0
  9 10  2  0
 10 11  1  0
 10 12  1  0
 12 13  1  0
 12 14  2  0
 14 15  1  0
 14 16  1  0
 16 17  1  0
 16 18  2  0
 18 19  1  0
  7 20  1  0
 20 21  1  0
 20 22  1  0
 20 23  1  0
  5 24  1  0
 24 25  1  0
  4 26  2  0
 26 27  1  0
 26 28  1  0
 28 29  1  0
 29 30  2  0
 29 31  1  0
 31 32  1  0
 32 33  1  0
 32 34  2  0
 34 35  1  0
 34 36  1  0
 36 37  1  0
 36 38  2  0
 38 39  1  0
 39 40  1  0
 39 41  1  0
 39 42  1  0
 38 43  1  0
 43 44  2  0
 44 45  1  0
 45 46  1  0
 46 47  1  0
 46  3  1  0
 18  9  1  0
 45 28  2  0
 43 31  1  0
M  END
>  <UniqueID>  (60) 
115

>  <SMILES>  (60) 
[H]/N=c1/[nH]c2nc3c(C)cccn3c(=O)c2cc1/C(O)=N\[C@@H](C)c1ccccc1

>  <Energy>  (60) 
68.70808571819731

>  <Genealogy>  (60) 
Cc1cccn2c(=O)c3cc(C(O)=N[C@@H](C)c4ccccc4)c(=N)[nH]c3nc12 (tautomer)
[H]/N=c1/[nH]c2nc3c(C)cccn3c(=O)c2cc1/C(O)=N\[C@@H](C)c1ccccc1 (cis-trans isomerization)
[H]/N=c1/[nH]c2nc3c(C)cccn3c(=O)c2cc1/C(O)=N\[C@@H](C)c1ccccc1 (3D coordinates assigned)
[H]/N=c1/[nH]c2nc3c(C)cccn3c(=O)c2cc1/C(O)=N\[C@@H](C)c1ccccc1 (optimized conformer: 68.70808571819731 kcal/mol)

>  <smiles>  (60) 
Cc1cccn2c(=O)c3cc(C(=O)N[C@@H](C)c4ccccc4)c(=N)[nH]c3nc12

>  <score_type>  (60) 
oracle

>  <origin>  (60) 
autodockgpu

>  <m_score__min__energy>  (60) 
-7.4400000000000004

>  <m_primary>  (60) 
energy

>  <meeko>  (60) 
{"free_energy": -6.78, "intermolecular_energy": -8.57, "internal_energy": -2.18, "cluster_size": 16, "cluster_id": 4, "rank_in_cluster": 1}

>  <energy>  (60) 
-6.69

>  <cluster_rmsd>  (60) 
0.12

>  <rmsd>  (60) 
271.14

>  <cluster>  (60) 
4

$$$$
PSCKMLPRYLACNW-GLSXUUDRNA-N
     RDKit          3D

 47 50  0  0  0  0  0  0  0  0999 V2000
  135.7270   76.7870  222.9150 H   0  0  0  0  0  0  0  0  0  0  0  0
  136.6210   76.3860  223.2780 N   0  0  0  0  0  0  0  0  0  0  0  0
  137.7500   76.5200  222.6530 C   0  0  0  0  0  0  0  0  0  0  0  0
  138.1700   77.7920  222.1870 C   0  0  0  0  0  0  0  0  0  0  0  0
  137.3510   79.0290  222.3760 C   0  0  0  0  0  0  0  0  0  0  0  0
  137.9110   80.1950  222.2010 N   0  0  0  0  0  0  0  0  0  0  0  0
  138.6590   80.9770  223.1880 C   0  0  2  0  0  0  0  0  0  0  0  0
  138.5763   82.0447  222.9369 H   0  0  0  0  0  0  0  0  0  0  0  0
  140.1110   80.5570  223.1610 C   0  0  0  0  0  0  0  0  0  0  0  0
  141.0450   81.2410  222.3570 C   0  0  0  0  0  0  0  0  0  0  0  0
  140.7208   82.1018  221.7538 H   0  0  0  0  0  0  0  0  0  0  0  0
  142.3820   80.8310  222.3220 C   0  0  0  0  0  0  0  0  0  0  0  0
  143.1070   81.3755  221.6992 H   0  0  0  0  0  0  0  0  0  0  0  0
  142.7980   79.7320  223.0760 C   0  0  0  0  0  0  0  0  0  0  0  0
  143.8504   79.4130  223.0483 H   0  0  0  0  0  0  0  0  0  0  0  0
  141.8780   79.0370  223.8660 C   0  0  0  0  0  0  0  0  0  0  0  0
  142.2066   78.1695  224.4571 H   0  0  0  0  0  0  0  0  0  0  0  0
  140.5400   79.4430  223.9060 C   0  0  0  0  0  0  0  0  0  0  0  0
  139.8187   78.8880  224.5237 H   0  0  0  0  0  0  0  0  0  0  0  0
  138.0830   80.7610  224.5910 C   0  0  0  0  0  0  0  0  0  0  0  0
  138.8345   81.0428  225.3433 H   0  0  0  0  0  0  0  0  0  0  0  0
  137.1851   81.3835  224.7186 H   0  0  0  0  0  0  0  0  0  0  0  0
  137.8158   79.7016  224.7186 H   0  0  0  0  0  0  0  0  0  0  0  0
  136.0010   78.9190  222.7280 O   0  0  0  0  0  0  0  0  0  0  0  0
  135.6560   78.3120  223.4590 H   0  0  0  0  0  0  0  0  0  0  0  0
  139.4090   77.8740  221.5210 C   0  0  0  0  0  0  0  0  0  0  0  0
  139.7615   78.8469  221.1478 H   0  0  0  0  0  0  0  0  0  0  0  0
  140.1980   76.7320  221.3280 C   0  0  0  0  0  0  0  0  0  0  0  0
  141.4400   76.7710  220.6680 C   0  0  0  0  0  0  0  0  0  0  0  0
  141.8760   77.8720  220.2280 O   0  0  0  0  0  0  0  0  0  0  0  0
  142.1720   75.6170  220.5070 N   0  0  0  0  0  0  0  0  0  0  0  0
  143.3850   75.6480  219.8660 C   0  0  0  0  0  0  0  0  0  0  0  0
  143.7702   76.6036  219.4808 H   0  0  0  0  0  0  0  0  0  0  0  0
  144.1360   74.4860  219.6960 C   0  0  0  0  0  0  0  0  0  0  0  0
  145.1069   74.5258  219.1805 H   0  0  0  0  0  0  0  0  0  0  0  0
  143.6520   73.2770  220.1810 C   0  0  0  0  0  0  0  0  0  0  0  0
  144.2408   72.3571  220.0503 H   0  0  0  0  0  0  0  0  0  0  0  0
  142.4170   73.2290  220.8350 C   0  0  0  0  0  0  0  0  0  0  0  0
  141.8940   71.9210  221.3630 C   0  0  0  0  0  0  0  0  0  0  0  0
  141.9017   71.9402  222.4628 H   0  0  0  0  0  0  0  0  0  0  0  0
  140.8650   71.7667  221.0061 H   0  0  0  0  0  0  0  0  0  0  0  0
  142.5329   71.0997  221.0061 H   0  0  0  0  0  0  0  0  0  0  0  0
  141.6820   74.4210  220.9920 C   0  0  0  0  0  0  0  0  0  0  0  0
  140.4810   74.3860  221.6290 N   0  0  0  0  0  0  0  0  0  0  0  0
  139.7340   75.5020  221.8070 C   0  0  0  0  0  0  0  0  0  0  0  0
  138.5390   75.4230  222.4510 N   0  0  0  0  0  0  0  0  0  0  0  0
  138.2220   74.4880  222.7980 H   0  0  0  0  0  0  0  0  0  0  0  0
  1  2  1  0
  2  3  2  0
  3  4  1  0
  4  5  1  0
  5  6  2  0
  6  7  1  0
  7  8  1  6
  7  9  1  0
  9 10  2  0
 10 11  1  0
 10 12  1  0
 12 13  1  0
 12 14  2  0
 14 15  1  0
 14 16  1  0
 16 17  1  0
 16 18  2  0
 18 19  1  0
  7 20  1  0
 20 21  1  0
 20 22  1  0
 20 23  1  0
  5 24  1  0
 24 25  1  0
  4 26  2  0
 26 27  1  0
 26 28  1  0
 28 29  1  0
 29 30  2  0
 29 31  1  0
 31 32  1  0
 32 33  1  0
 32 34  2  0
 34 35  1  0
 34 36  1  0
 36 37  1  0
 36 38  2  0
 38 39  1  0
 39 40  1  0
 39 41  1  0
 39 42  1  0
 38 43  1  0
 43 44  2  0
 44 45  1  0
 45 46  1  0
 46 47  1  0
 46  3  1  0
 18  9  1  0
 45 28  2  0
 43 31  1  0
M  END
>  <UniqueID>  (61) 
116

>  <SMILES>  (61) 
[H]/N=c1\[nH]c2nc3c(C)cccn3c(=O)c2cc1/C(O)=N/[C@@H](C)c1ccccc1

>  <Energy>  (61) 
64.4707771888291

>  <Genealogy>  (61) 
Cc1cccn2c(=O)c3cc(C(O)=N[C@@H](C)c4ccccc4)c(=N)[nH]c3nc12 (tautomer)
[H]/N=c1\[nH]c2nc3c(C)cccn3c(=O)c2cc1/C(O)=N/[C@@H](C)c1ccccc1 (cis-trans isomerization)
[H]/N=c1\[nH]c2nc3c(C)cccn3c(=O)c2cc1/C(O)=N/[C@@H](C)c1ccccc1 (3D coordinates assigned)
[H]/N=c1\[nH]c2nc3c(C)cccn3c(=O)c2cc1/C(O)=N/[C@@H](C)c1ccccc1 (optimized conformer: 64.4707771888291 kcal/mol)

>  <smiles>  (61) 
Cc1cccn2c(=O)c3cc(C(=O)N[C@@H](C)c4ccccc4)c(=N)[nH]c3nc12

>  <score_type>  (61) 
oracle

>  <origin>  (61) 
autodockgpu

>  <m_score__min__energy>  (61) 
-8.3699999999999992

>  <m_primary>  (61) 
energy

>  <meeko>  (61) 
{"free_energy": -6.75, "intermolecular_energy": -8.54, "internal_energy": -2.16, "cluster_size": 16, "cluster_id": 3, "rank_in_cluster": 1}

>  <energy>  (61) 
-8.37

>  <cluster_rmsd>  (61) 
0.0

>  <rmsd>  (61) 
269.93

>  <cluster>  (61) 
1

$$$$
PSCKMLPRYLACNW-GLSXUUDRNA-N
     RDKit          3D

 47 50  0  0  0  0  0  0  0  0999 V2000
  136.1790   77.2210  223.7390 H   0  0  0  0  0  0  0  0  0  0  0  0
  136.6110   76.4390  223.1970 N   0  0  0  0  0  0  0  0  0  0  0  0
  137.7460   76.5610  222.5810 C   0  0  0  0  0  0  0  0  0  0  0  0
  138.1750   77.8250  222.1010 C   0  0  0  0  0  0  0  0  0  0  0  0
  137.3590   79.0670  222.2650 C   0  0  0  0  0  0  0  0  0  0  0  0
  137.9470   80.2290  222.1860 N   0  0  0  0  0  0  0  0  0  0  0  0
  138.6720   80.9320  223.2470 C   0  0  2  0  0  0  0  0  0  0  0  0
  138.5869   82.0162  223.0820 H   0  0  0  0  0  0  0  0  0  0  0  0
  140.1270   80.5230  223.2130 C   0  0  0  0  0  0  0  0  0  0  0  0
  141.0600   81.2410  222.4380 C   0  0  0  0  0  0  0  0  0  0  0  0
  140.7330   82.1201  221.8634 H   0  0  0  0  0  0  0  0  0  0  0  0
  142.4000   80.8410  222.3960 C   0  0  0  0  0  0  0  0  0  0  0  0
  143.1247   81.4113  221.7964 H   0  0  0  0  0  0  0  0  0  0  0  0
  142.8190   79.7190  223.1140 C   0  0  0  0  0  0  0  0  0  0  0  0
  143.8736   79.4080  223.0812 H   0  0  0  0  0  0  0  0  0  0  0  0
  141.9000   78.9910  223.8740 C   0  0  0  0  0  0  0  0  0  0  0  0
  142.2311   78.1053  224.4360 H   0  0  0  0  0  0  0  0  0  0  0  0
  140.5600   79.3870  223.9210 C   0  0  0  0  0  0  0  0  0  0  0  0
  139.8393   78.8064  224.5156 H   0  0  0  0  0  0  0  0  0  0  0  0
  138.0720   80.5990  224.6170 C   0  0  0  0  0  0  0  0  0  0  0  0
  138.7392   80.9693  225.4093 H   0  0  0  0  0  0  0  0  0  0  0  0
  137.0872   81.0796  224.7126 H   0  0  0  0  0  0  0  0  0  0  0  0
  137.9589   79.5090  224.7126 H   0  0  0  0  0  0  0  0  0  0  0  0
  135.9810   78.9660  222.4940 O   0  0  0  0  0  0  0  0  0  0  0  0
  135.4610   78.1020  222.4340 H   0  0  0  0  0  0  0  0  0  0  0  0
  139.4200   77.8940  221.4450 C   0  0  0  0  0  0  0  0  0  0  0  0
  139.7788   78.8605  221.0614 H   0  0  0  0  0  0  0  0  0  0  0  0
  140.2070   76.7470  221.2750 C   0  0  0  0  0  0  0  0  0  0  0  0
  141.4550   76.7720  220.6260 C   0  0  0  0  0  0  0  0  0  0  0  0
  141.8990   77.8660  220.1750 O   0  0  0  0  0  0  0  0  0  0  0  0
  142.1850   75.6140  220.4870 N   0  0  0  0  0  0  0  0  0  0  0  0
  143.4030   75.6330  219.8570 C   0  0  0  0  0  0  0  0  0  0  0  0
  143.7946   76.5821  219.4621 H   0  0  0  0  0  0  0  0  0  0  0  0
  144.1520   74.4660  219.7100 C   0  0  0  0  0  0  0  0  0  0  0  0
  145.1279   74.4956  219.2034 H   0  0  0  0  0  0  0  0  0  0  0  0
  143.6590   73.2650  220.2070 C   0  0  0  0  0  0  0  0  0  0  0  0
  144.2458   72.3414  220.0943 H   0  0  0  0  0  0  0  0  0  0  0  0
  142.4180   73.2300  220.8500 C   0  0  0  0  0  0  0  0  0  0  0  0
  141.8860   71.9310  221.3910 C   0  0  0  0  0  0  0  0  0  0  0  0
  141.8977   71.9595  222.4906 H   0  0  0  0  0  0  0  0  0  0  0  0
  140.8545   71.7822  221.0390 H   0  0  0  0  0  0  0  0  0  0  0  0
  142.5168   71.1014  221.0390 H   0  0  0  0  0  0  0  0  0  0  0  0
  141.6860   74.4260  220.9840 C   0  0  0  0  0  0  0  0  0  0  0  0
  140.4800   74.4040  221.6110 N   0  0  0  0  0  0  0  0  0  0  0  0
  139.7350   75.5250  221.7670 C   0  0  0  0  0  0  0  0  0  0  0  0
  138.5330   75.4590  222.4000 N   0  0  0  0  0  0  0  0  0  0  0  0
  138.2100   74.5300  222.7580 H   0  0  0  0  0  0  0  0  0  0  0  0
  1  2  1  0
  2  3  2  0
  3  4  1  0
  4  5  1  0
  5  6  2  0
  6  7  1  0
  7  8  1  6
  7  9  1  0
  9 10  2  0
 10 11  1  0
 10 12  1  0
 12 13  1  0
 12 14  2  0
 14 15  1  0
 14 16  1  0
 16 17  1  0
 16 18  2  0
 18 19  1  0
  7 20  1  0
 20 21  1  0
 20 22  1  0
 20 23  1  0
  5 24  1  0
 24 25  1  0
  4 26  2  0
 26 27  1  0
 26 28  1  0
 28 29  1  0
 29 30  2  0
 29 31  1  0
 31 32  1  0
 32 33  1  0
 32 34  2  0
 34 35  1  0
 34 36  1  0
 36 37  1  0
 36 38  2  0
 38 39  1  0
 39 40  1  0
 39 41  1  0
 39 42  1  0
 38 43  1  0
 43 44  2  0
 44 45  1  0
 45 46  1  0
 46 47  1  0
 46  3  1  0
 18  9  1  0
 45 28  2  0
 43 31  1  0
M  END
>  <UniqueID>  (62) 
116

>  <SMILES>  (62) 
[H]/N=c1\[nH]c2nc3c(C)cccn3c(=O)c2cc1/C(O)=N/[C@@H](C)c1ccccc1

>  <Energy>  (62) 
64.4707771888291

>  <Genealogy>  (62) 
Cc1cccn2c(=O)c3cc(C(O)=N[C@@H](C)c4ccccc4)c(=N)[nH]c3nc12 (tautomer)
[H]/N=c1\[nH]c2nc3c(C)cccn3c(=O)c2cc1/C(O)=N/[C@@H](C)c1ccccc1 (cis-trans isomerization)
[H]/N=c1\[nH]c2nc3c(C)cccn3c(=O)c2cc1/C(O)=N/[C@@H](C)c1ccccc1 (3D coordinates assigned)
[H]/N=c1\[nH]c2nc3c(C)cccn3c(=O)c2cc1/C(O)=N/[C@@H](C)c1ccccc1 (optimized conformer: 64.4707771888291 kcal/mol)

>  <smiles>  (62) 
Cc1cccn2c(=O)c3cc(C(=O)N[C@@H](C)c4ccccc4)c(=N)[nH]c3nc12

>  <score_type>  (62) 
oracle

>  <origin>  (62) 
autodockgpu

>  <m_score__min__energy>  (62) 
-8.3699999999999992

>  <m_primary>  (62) 
energy

>  <meeko>  (62) 
{"free_energy": -6.72, "intermolecular_energy": -8.51, "internal_energy": -2.24, "cluster_size": 16, "cluster_id": 3, "rank_in_cluster": 8}

>  <energy>  (62) 
-8.37

>  <cluster_rmsd>  (62) 
0.06

>  <rmsd>  (62) 
269.95

>  <cluster>  (62) 
1

$$$$
PSCKMLPRYLACNW-GLSXUUDRNA-N
     RDKit          3D

 47 50  0  0  0  0  0  0  0  0999 V2000
  134.4120   68.4850  226.3950 H   0  0  0  0  0  0  0  0  0  0  0  0
  133.8080   69.3260  226.5380 N   0  0  0  0  0  0  0  0  0  0  0  0
  134.1110   70.4920  226.0590 C   0  0  0  0  0  0  0  0  0  0  0  0
  135.0380   70.6170  224.9930 C   0  0  0  0  0  0  0  0  0  0  0  0
  135.7150   69.4360  224.3740 C   0  0  0  0  0  0  0  0  0  0  0  0
  136.9060   69.5830  223.8610 N   0  0  0  0  0  0  0  0  0  0  0  0
  138.1110   68.8130  224.1780 C   0  0  2  0  0  0  0  0  0  0  0  0
  137.8174   67.8696  224.6616 H   0  0  0  0  0  0  0  0  0  0  0  0
  138.9850   69.6160  225.1150 C   0  0  0  0  0  0  0  0  0  0  0  0
  139.6350   70.7840  224.6710 C   0  0  0  0  0  0  0  0  0  0  0  0
  139.4937   71.1291  223.6362 H   0  0  0  0  0  0  0  0  0  0  0  0
  140.4590   71.5070  225.5390 C   0  0  0  0  0  0  0  0  0  0  0  0
  140.9564   72.4230  225.1876 H   0  0  0  0  0  0  0  0  0  0  0  0
  140.6520   71.0690  226.8510 C   0  0  0  0  0  0  0  0  0  0  0  0
  141.2990   71.6410  227.5324 H   0  0  0  0  0  0  0  0  0  0  0  0
  140.0230   69.9040  227.2980 C   0  0  0  0  0  0  0  0  0  0  0  0
  140.1779   69.5581  228.3307 H   0  0  0  0  0  0  0  0  0  0  0  0
  139.1970   69.1770  226.4350 C   0  0  0  0  0  0  0  0  0  0  0  0
  138.7102   68.2567  226.7901 H   0  0  0  0  0  0  0  0  0  0  0  0
  138.8880   68.4840  222.8980 C   0  0  0  0  0  0  0  0  0  0  0  0
  139.8712   68.0677  223.1627 H   0  0  0  0  0  0  0  0  0  0  0  0
  138.3250   67.7471  222.3065 H   0  0  0  0  0  0  0  0  0  0  0  0
  139.0254   69.4012  222.3065 H   0  0  0  0  0  0  0  0  0  0  0  0
  135.0680   68.1950  224.3600 O   0  0  0  0  0  0  0  0  0  0  0  0
  134.1970   68.0070  224.8380 H   0  0  0  0  0  0  0  0  0  0  0  0
  135.3210   71.9110  224.5120 C   0  0  0  0  0  0  0  0  0  0  0  0
  136.0355   72.0392  223.6855 H   0  0  0  0  0  0  0  0  0  0  0  0
  134.7030   73.0370  225.0740 C   0  0  0  0  0  0  0  0  0  0  0  0
  134.9580   74.3450  224.6230 C   0  0  0  0  0  0  0  0  0  0  0  0
  135.7720   74.5290  223.6750 O   0  0  0  0  0  0  0  0  0  0  0  0
  134.3220   75.4140  225.2130 N   0  0  0  0  0  0  0  0  0  0  0  0
  134.5650   76.6920  224.7770 C   0  0  0  0  0  0  0  0  0  0  0  0
  135.2732   76.8580  223.9518 H   0  0  0  0  0  0  0  0  0  0  0  0
  133.9270   77.7830  225.3650 C   0  0  0  0  0  0  0  0  0  0  0  0
  134.1308   78.8024  225.0054 H   0  0  0  0  0  0  0  0  0  0  0  0
  133.0320   77.5760  226.4080 C   0  0  0  0  0  0  0  0  0  0  0  0
  132.5247   78.4330  226.8751 H   0  0  0  0  0  0  0  0  0  0  0  0
  132.7760   76.2790  226.8640 C   0  0  0  0  0  0  0  0  0  0  0  0
  131.8050   76.0550  227.9920 C   0  0  0  0  0  0  0  0  0  0  0  0
  132.3258   76.1751  228.9534 H   0  0  0  0  0  0  0  0  0  0  0  0
  130.9879   76.7882  227.9235 H   0  0  0  0  0  0  0  0  0  0  0  0
  131.3917   75.0379  227.9235 H   0  0  0  0  0  0  0  0  0  0  0  0
  133.4350   75.1970  226.2480 C   0  0  0  0  0  0  0  0  0  0  0  0
  133.1910   73.9320  226.6810 N   0  0  0  0  0  0  0  0  0  0  0  0
  133.7970   72.8560  226.1240 C   0  0  0  0  0  0  0  0  0  0  0  0
  133.5240   71.6070  226.5880 N   0  0  0  0  0  0  0  0  0  0  0  0
  132.8400   71.5070  227.3740 H   0  0  0  0  0  0  0  0  0  0  0  0
  1  2  1  0
  2  3  2  0
  3  4  1  0
  4  5  1  0
  5  6  2  0
  6  7  1  0
  7  8  1  1
  7  9  1  0
  9 10  2  0
 10 11  1  0
 10 12  1  0
 12 13  1  0
 12 14  2  0
 14 15  1  0
 14 16  1  0
 16 17  1  0
 16 18  2  0
 18 19  1  0
  7 20  1  0
 20 21  1  0
 20 22  1  0
 20 23  1  0
  5 24  1  0
 24 25  1  0
  4 26  2  0
 26 27  1  0
 26 28  1  0
 28 29  1  0
 29 30  2  0
 29 31  1  0
 31 32  1  0
 32 33  1  0
 32 34  2  0
 34 35  1  0
 34 36  1  0
 36 37  1  0
 36 38  2  0
 38 39  1  0
 39 40  1  0
 39 41  1  0
 39 42  1  0
 38 43  1  0
 43 44  2  0
 44 45  1  0
 45 46  1  0
 46 47  1  0
 46  3  1  0
 18  9  1  0
 45 28  2  0
 43 31  1  0
M  END
>  <UniqueID>  (63) 
116

>  <SMILES>  (63) 
[H]/N=c1\[nH]c2nc3c(C)cccn3c(=O)c2cc1/C(O)=N/[C@@H](C)c1ccccc1

>  <Energy>  (63) 
64.4707771888291

>  <Genealogy>  (63) 
Cc1cccn2c(=O)c3cc(C(O)=N[C@@H](C)c4ccccc4)c(=N)[nH]c3nc12 (tautomer)
[H]/N=c1\[nH]c2nc3c(C)cccn3c(=O)c2cc1/C(O)=N/[C@@H](C)c1ccccc1 (cis-trans isomerization)
[H]/N=c1\[nH]c2nc3c(C)cccn3c(=O)c2cc1/C(O)=N/[C@@H](C)c1ccccc1 (3D coordinates assigned)
[H]/N=c1\[nH]c2nc3c(C)cccn3c(=O)c2cc1/C(O)=N/[C@@H](C)c1ccccc1 (optimized conformer: 64.4707771888291 kcal/mol)

>  <smiles>  (63) 
Cc1cccn2c(=O)c3cc(C(=O)N[C@@H](C)c4ccccc4)c(=N)[nH]c3nc12

>  <score_type>  (63) 
oracle

>  <origin>  (63) 
autodockgpu

>  <m_score__min__energy>  (63) 
-8.3699999999999992

>  <m_primary>  (63) 
energy

>  <meeko>  (63) 
{"free_energy": -7.2, "intermolecular_energy": -8.99, "internal_energy": -1.57, "cluster_size": 1, "cluster_id": 2, "rank_in_cluster": 1}

>  <energy>  (63) 
-7.36

>  <cluster_rmsd>  (63) 
1.08

>  <rmsd>  (63) 
270.0

>  <cluster>  (63) 
1

$$$$
PSCKMLPRYLACNW-GLSXUUDRNA-N
     RDKit          3D

 47 50  0  0  0  0  0  0  0  0999 V2000
  138.7650   72.6530  223.1140 H   0  0  0  0  0  0  0  0  0  0  0  0
  139.0300   68.7540  224.4820 N   0  0  0  0  0  0  0  0  0  0  0  0
  137.2820   71.4100  223.8110 C   0  0  0  0  0  0  0  0  0  0  0  0
  137.0240   70.0700  224.1980 C   0  0  0  0  0  0  0  0  0  0  0  0
  137.9210   68.9360  223.8200 C   0  0  0  0  0  0  0  0  0  0  0  0
  138.3310   71.7030  223.1060 N   0  0  0  0  0  0  0  0  0  0  0  0
  139.1880   68.6220  225.9320 C   0  0  2  0  0  0  0  0  0  0  0  0
  138.1955   68.5076  226.3923 H   0  0  0  0  0  0  0  0  0  0  0  0
  139.8620   69.8600  226.4760 C   0  0  0  0  0  0  0  0  0  0  0  0
  139.7540   70.2010  227.8390 C   0  0  0  0  0  0  0  0  0  0  0  0
  139.1875   69.5511  228.5222 H   0  0  0  0  0  0  0  0  0  0  0  0
  140.3630   71.3610  228.3280 C   0  0  0  0  0  0  0  0  0  0  0  0
  140.2817   71.6154  229.3951 H   0  0  0  0  0  0  0  0  0  0  0  0
  141.0740   72.1970  227.4650 C   0  0  0  0  0  0  0  0  0  0  0  0
  141.5539   73.1077  227.8528 H   0  0  0  0  0  0  0  0  0  0  0  0
  141.1760   71.8770  226.1090 C   0  0  0  0  0  0  0  0  0  0  0  0
  141.7337   72.5385  225.4297 H   0  0  0  0  0  0  0  0  0  0  0  0
  140.5710   70.7180  225.6130 C   0  0  0  0  0  0  0  0  0  0  0  0
  140.6492   70.4751  224.5430 H   0  0  0  0  0  0  0  0  0  0  0  0
  140.0280   67.3840  226.2680 C   0  0  0  0  0  0  0  0  0  0  0  0
  140.1013   67.2760  227.3602 H   0  0  0  0  0  0  0  0  0  0  0  0
  139.5495   66.4897  225.8424 H   0  0  0  0  0  0  0  0  0  0  0  0
  141.0359   67.4982  225.8424 H   0  0  0  0  0  0  0  0  0  0  0  0
  137.5560   68.0850  222.7700 O   0  0  0  0  0  0  0  0  0  0  0  0
  136.9980   68.3720  221.9780 H   0  0  0  0  0  0  0  0  0  0  0  0
  135.8710   69.8170  224.9700 C   0  0  0  0  0  0  0  0  0  0  0  0
  135.6443   68.7881  225.2863 H   0  0  0  0  0  0  0  0  0  0  0  0
  135.0110   70.8590  225.3390 C   0  0  0  0  0  0  0  0  0  0  0  0
  133.8510   70.6490  226.1070 C   0  0  0  0  0  0  0  0  0  0  0  0
  133.5610   69.4800  226.4880 O   0  0  0  0  0  0  0  0  0  0  0  0
  133.0420   71.7120  226.4400 N   0  0  0  0  0  0  0  0  0  0  0  0
  131.9100   71.5130  227.1910 C   0  0  0  0  0  0  0  0  0  0  0  0
  131.6523   70.4973  227.5256 H   0  0  0  0  0  0  0  0  0  0  0  0
  131.0830   72.5810  227.5350 C   0  0  0  0  0  0  0  0  0  0  0  0
  130.1790   72.4081  228.1375 H   0  0  0  0  0  0  0  0  0  0  0  0
  131.4060   73.8660  227.1130 C   0  0  0  0  0  0  0  0  0  0  0  0
  130.7569   74.7123  227.3822 H   0  0  0  0  0  0  0  0  0  0  0  0
  132.5550   74.0830  226.3470 C   0  0  0  0  0  0  0  0  0  0  0  0
  132.9070   75.4730  225.8920 C   0  0  0  0  0  0  0  0  0  0  0  0
  133.0698   76.1159  226.7696 H   0  0  0  0  0  0  0  0  0  0  0  0
  133.8250   75.4393  225.2868 H   0  0  0  0  0  0  0  0  0  0  0  0
  132.0836   75.8802  225.2868 H   0  0  0  0  0  0  0  0  0  0  0  0
  133.3720   72.9830  226.0160 C   0  0  0  0  0  0  0  0  0  0  0  0
  134.4930   73.1840  225.2740 N   0  0  0  0  0  0  0  0  0  0  0  0
  135.3130   72.1620  224.9280 C   0  0  0  0  0  0  0  0  0  0  0  0
  136.4260   72.4070  224.1850 N   0  0  0  0  0  0  0  0  0  0  0  0
  136.6240   73.3930  223.8950 H   0  0  0  0  0  0  0  0  0  0  0  0
  1  2  1  0
  2  3  2  0
  3  4  1  0
  4  5  1  0
  5  6  2  0
  6  7  1  0
  7  8  1  1
  7  9  1  0
  9 10  2  0
 10 11  1  0
 10 12  1  0
 12 13  1  0
 12 14  2  0
 14 15  1  0
 14 16  1  0
 16 17  1  0
 16 18  2  0
 18 19  1  0
  7 20  1  0
 20 21  1  0
 20 22  1  0
 20 23  1  0
  5 24  1  0
 24 25  1  0
  4 26  2  0
 26 27  1  0
 26 28  1  0
 28 29  1  0
 29 30  2  0
 29 31  1  0
 31 32  1  0
 32 33  1  0
 32 34  2  0
 34 35  1  0
 34 36  1  0
 36 37  1  0
 36 38  2  0
 38 39  1  0
 39 40  1  0
 39 41  1  0
 39 42  1  0
 38 43  1  0
 43 44  2  0
 44 45  1  0
 45 46  1  0
 46 47  1  0
 46  3  1  0
 18  9  1  0
 45 28  2  0
 43 31  1  0
M  END
>  <UniqueID>  (64) 
116

>  <SMILES>  (64) 
[H]/N=c1\[nH]c2nc3c(C)cccn3c(=O)c2cc1/C(O)=N/[C@@H](C)c1ccccc1

>  <Energy>  (64) 
64.4707771888291

>  <Genealogy>  (64) 
Cc1cccn2c(=O)c3cc(C(O)=N[C@@H](C)c4ccccc4)c(=N)[nH]c3nc12 (tautomer)
[H]/N=c1\[nH]c2nc3c(C)cccn3c(=O)c2cc1/C(O)=N/[C@@H](C)c1ccccc1 (cis-trans isomerization)
[H]/N=c1\[nH]c2nc3c(C)cccn3c(=O)c2cc1/C(O)=N/[C@@H](C)c1ccccc1 (3D coordinates assigned)
[H]/N=c1\[nH]c2nc3c(C)cccn3c(=O)c2cc1/C(O)=N/[C@@H](C)c1ccccc1 (optimized conformer: 64.4707771888291 kcal/mol)

>  <smiles>  (64) 
Cc1cccn2c(=O)c3cc(C(=O)N[C@@H](C)c4ccccc4)c(=N)[nH]c3nc12

>  <score_type>  (64) 
oracle

>  <origin>  (64) 
autodockgpu

>  <m_score__min__energy>  (64) 
-8.3699999999999992

>  <m_primary>  (64) 
energy

>  <meeko>  (64) 
{"free_energy": -8.37, "intermolecular_energy": -10.16, "internal_energy": -0.63, "cluster_size": 3, "cluster_id": 1, "rank_in_cluster": 1}

>  <energy>  (64) 
-7.2

>  <cluster_rmsd>  (64) 
0.0

>  <rmsd>  (64) 
269.77

>  <cluster>  (64) 
2

$$$$
PSCKMLPRYLACNW-GLSXUUDRNA-N
     RDKit          3D

 47 50  0  0  0  0  0  0  0  0999 V2000
  136.1760   77.1840  223.7350 H   0  0  0  0  0  0  0  0  0  0  0  0
  136.6160   76.4010  223.2000 N   0  0  0  0  0  0  0  0  0  0  0  0
  137.7480   76.5300  222.5810 C   0  0  0  0  0  0  0  0  0  0  0  0
  138.1660   77.7960  222.0960 C   0  0  0  0  0  0  0  0  0  0  0  0
  137.3420   79.0320  222.2610 C   0  0  0  0  0  0  0  0  0  0  0  0
  137.9230   80.1980  222.1850 N   0  0  0  0  0  0  0  0  0  0  0  0
  138.6460   80.9020  223.2460 C   0  0  2  0  0  0  0  0  0  0  0  0
  138.5497   81.9863  223.0877 H   0  0  0  0  0  0  0  0  0  0  0  0
  140.1050   80.5090  223.2030 C   0  0  0  0  0  0  0  0  0  0  0  0
  141.0240   81.2330  222.4190 C   0  0  0  0  0  0  0  0  0  0  0  0
  140.6831   82.1062  221.8435 H   0  0  0  0  0  0  0  0  0  0  0  0
  142.3680   80.8480  222.3680 C   0  0  0  0  0  0  0  0  0  0  0  0
  143.0815   81.4239  221.7604 H   0  0  0  0  0  0  0  0  0  0  0  0
  142.8050   79.7340  223.0870 C   0  0  0  0  0  0  0  0  0  0  0  0
  143.8627   79.4345  223.0476 H   0  0  0  0  0  0  0  0  0  0  0  0
  141.8990   78.9990  223.8570 C   0  0  0  0  0  0  0  0  0  0  0  0
  142.2441   78.1192  224.4199 H   0  0  0  0  0  0  0  0  0  0  0  0
  140.5550   79.3800  223.9130 C   0  0  0  0  0  0  0  0  0  0  0  0
  139.8451   78.7941  224.5154 H   0  0  0  0  0  0  0  0  0  0  0  0
  138.0550   80.5540  224.6170 C   0  0  0  0  0  0  0  0  0  0  0  0
  138.7129   80.9414  225.4089 H   0  0  0  0  0  0  0  0  0  0  0  0
  137.0583   81.0094  224.7129 H   0  0  0  0  0  0  0  0  0  0  0  0
  137.9697   79.4615  224.7129 H   0  0  0  0  0  0  0  0  0  0  0  0
  135.9650   78.9220  222.4860 O   0  0  0  0  0  0  0  0  0  0  0  0
  135.4520   78.0530  222.4360 H   0  0  0  0  0  0  0  0  0  0  0  0
  139.4100   77.8720  221.4380 C   0  0  0  0  0  0  0  0  0  0  0  0
  139.7624   78.8405  221.0536 H   0  0  0  0  0  0  0  0  0  0  0  0
  140.2040   76.7300  221.2670 C   0  0  0  0  0  0  0  0  0  0  0  0
  141.4500   76.7630  220.6150 C   0  0  0  0  0  0  0  0  0  0  0  0
  141.8850   77.8580  220.1600 O   0  0  0  0  0  0  0  0  0  0  0  0
  142.1870   75.6090  220.4760 N   0  0  0  0  0  0  0  0  0  0  0  0
  143.4040   75.6350  219.8420 C   0  0  0  0  0  0  0  0  0  0  0  0
  143.7880   76.5857  219.4437 H   0  0  0  0  0  0  0  0  0  0  0  0
  144.1600   74.4730  219.6960 C   0  0  0  0  0  0  0  0  0  0  0  0
  145.1343   74.5080  219.1866 H   0  0  0  0  0  0  0  0  0  0  0  0
  143.6770   73.2700  220.1970 C   0  0  0  0  0  0  0  0  0  0  0  0
  144.2700   72.3503  220.0852 H   0  0  0  0  0  0  0  0  0  0  0  0
  142.4380   73.2280  220.8430 C   0  0  0  0  0  0  0  0  0  0  0  0
  141.9160   71.9260  221.3880 C   0  0  0  0  0  0  0  0  0  0  0  0
  141.9286   71.9574  222.4875 H   0  0  0  0  0  0  0  0  0  0  0  0
  140.8853   71.7687  221.0374 H   0  0  0  0  0  0  0  0  0  0  0  0
  142.5526   71.1002  221.0374 H   0  0  0  0  0  0  0  0  0  0  0  0
  141.6980   74.4190  220.9770 C   0  0  0  0  0  0  0  0  0  0  0  0
  140.4940   74.3900  221.6070 N   0  0  0  0  0  0  0  0  0  0  0  0
  139.7420   75.5060  221.7630 C   0  0  0  0  0  0  0  0  0  0  0  0
  138.5420   75.4330  222.4000 N   0  0  0  0  0  0  0  0  0  0  0  0
  138.2260   74.5020  222.7600 H   0  0  0  0  0  0  0  0  0  0  0  0
  1  2  1  0
  2  3  2  0
  3  4  1  0
  4  5  1  0
  5  6  2  0
  6  7  1  0
  7  8  1  6
  7  9  1  0
  9 10  2  0
 10 11  1  0
 10 12  1  0
 12 13  1  0
 12 14  2  0
 14 15  1  0
 14 16  1  0
 16 17  1  0
 16 18  2  0
 18 19  1  0
  7 20  1  0
 20 21  1  0
 20 22  1  0
 20 23  1  0
  5 24  1  0
 24 25  1  0
  4 26  2  0
 26 27  1  0
 26 28  1  0
 28 29  1  0
 29 30  2  0
 29 31  1  0
 31 32  1  0
 32 33  1  0
 32 34  2  0
 34 35  1  0
 34 36  1  0
 36 37  1  0
 36 38  2  0
 38 39  1  0
 39 40  1  0
 39 41  1  0
 39 42  1  0
 38 43  1  0
 43 44  2  0
 44 45  1  0
 45 46  1  0
 46 47  1  0
 46  3  1  0
 18  9  1  0
 45 28  2  0
 43 31  1  0
M  END
>  <UniqueID>  (65) 
116

>  <SMILES>  (65) 
[H]/N=c1\[nH]c2nc3c(C)cccn3c(=O)c2cc1/C(O)=N/[C@@H](C)c1ccccc1

>  <Energy>  (65) 
64.4707771888291

>  <Genealogy>  (65) 
Cc1cccn2c(=O)c3cc(C(O)=N[C@@H](C)c4ccccc4)c(=N)[nH]c3nc12 (tautomer)
[H]/N=c1\[nH]c2nc3c(C)cccn3c(=O)c2cc1/C(O)=N/[C@@H](C)c1ccccc1 (cis-trans isomerization)
[H]/N=c1\[nH]c2nc3c(C)cccn3c(=O)c2cc1/C(O)=N/[C@@H](C)c1ccccc1 (3D coordinates assigned)
[H]/N=c1\[nH]c2nc3c(C)cccn3c(=O)c2cc1/C(O)=N/[C@@H](C)c1ccccc1 (optimized conformer: 64.4707771888291 kcal/mol)

>  <smiles>  (65) 
Cc1cccn2c(=O)c3cc(C(=O)N[C@@H](C)c4ccccc4)c(=N)[nH]c3nc12

>  <score_type>  (65) 
oracle

>  <origin>  (65) 
autodockgpu

>  <m_score__min__energy>  (65) 
-8.3699999999999992

>  <m_primary>  (65) 
energy

>  <meeko>  (65) 
{"free_energy": -6.72, "intermolecular_energy": -8.51, "internal_energy": -2.24, "cluster_size": 16, "cluster_id": 3, "rank_in_cluster": 11}

>  <energy>  (65) 
-6.75

>  <cluster_rmsd>  (65) 
0.0

>  <rmsd>  (65) 
270.56

>  <cluster>  (65) 
3

$$$$
PSCKMLPRYLACNW-GLSXUUDRNA-N
     RDKit          3D

 47 50  0  0  0  0  0  0  0  0999 V2000
  136.1890   77.1750  223.7200 H   0  0  0  0  0  0  0  0  0  0  0  0
  136.6170   76.4010  223.1620 N   0  0  0  0  0  0  0  0  0  0  0  0
  137.7540   76.5280  222.5530 C   0  0  0  0  0  0  0  0  0  0  0  0
  138.1860   77.7950  222.0850 C   0  0  0  0  0  0  0  0  0  0  0  0
  137.3700   79.0360  222.2550 C   0  0  0  0  0  0  0  0  0  0  0  0
  137.9560   80.1990  222.1730 N   0  0  0  0  0  0  0  0  0  0  0  0
  138.6750   80.9090  223.2330 C   0  0  2  0  0  0  0  0  0  0  0  0
  138.5759   81.9924  223.0706 H   0  0  0  0  0  0  0  0  0  0  0  0
  140.1350   80.5190  223.1940 C   0  0  0  0  0  0  0  0  0  0  0  0
  141.0540   81.2430  222.4080 C   0  0  0  0  0  0  0  0  0  0  0  0
  140.7120   82.1132  221.8285 H   0  0  0  0  0  0  0  0  0  0  0  0
  142.3980   80.8610  222.3610 C   0  0  0  0  0  0  0  0  0  0  0  0
  143.1112   81.4360  221.7522 H   0  0  0  0  0  0  0  0  0  0  0  0
  142.8370   79.7500  223.0860 C   0  0  0  0  0  0  0  0  0  0  0  0
  143.8956   79.4532  223.0497 H   0  0  0  0  0  0  0  0  0  0  0  0
  141.9320   79.0160  223.8570 C   0  0  0  0  0  0  0  0  0  0  0  0
  142.2784   78.1394  224.4241 H   0  0  0  0  0  0  0  0  0  0  0  0
  140.5860   79.3940  223.9090 C   0  0  0  0  0  0  0  0  0  0  0  0
  139.8764   78.8086  224.5121 H   0  0  0  0  0  0  0  0  0  0  0  0
  138.0830   80.5650  224.6040 C   0  0  0  0  0  0  0  0  0  0  0  0
  138.7436   80.9488  225.3954 H   0  0  0  0  0  0  0  0  0  0  0  0
  137.0890   81.0262  224.7004 H   0  0  0  0  0  0  0  0  0  0  0  0
  137.9915   79.4731  224.7004 H   0  0  0  0  0  0  0  0  0  0  0  0
  135.9940   78.9340  222.4930 O   0  0  0  0  0  0  0  0  0  0  0  0
  135.4690   78.0740  222.4090 H   0  0  0  0  0  0  0  0  0  0  0  0
  139.4350   77.8690  221.4360 C   0  0  0  0  0  0  0  0  0  0  0  0
  139.7965   78.8386  221.0630 H   0  0  0  0  0  0  0  0  0  0  0  0
  140.2220   76.7230  221.2600 C   0  0  0  0  0  0  0  0  0  0  0  0
  141.4730   76.7530  220.6180 C   0  0  0  0  0  0  0  0  0  0  0  0
  141.9200   77.8500  220.1780 O   0  0  0  0  0  0  0  0  0  0  0  0
  142.2030   75.5960  220.4730 N   0  0  0  0  0  0  0  0  0  0  0  0
  143.4250   75.6190  219.8490 C   0  0  0  0  0  0  0  0  0  0  0  0
  143.8191   76.5708  219.4633 H   0  0  0  0  0  0  0  0  0  0  0  0
  144.1740   74.4530  219.6970 C   0  0  0  0  0  0  0  0  0  0  0  0
  145.1526   74.4860  219.1957 H   0  0  0  0  0  0  0  0  0  0  0  0
  143.6780   73.2490  220.1820 C   0  0  0  0  0  0  0  0  0  0  0  0
  144.2649   72.3261  220.0646 H   0  0  0  0  0  0  0  0  0  0  0  0
  142.4340   73.2090  220.8190 C   0  0  0  0  0  0  0  0  0  0  0  0
  141.8990   71.9060  221.3460 C   0  0  0  0  0  0  0  0  0  0  0  0
  141.9066   71.9245  222.4458 H   0  0  0  0  0  0  0  0  0  0  0  0
  140.8687   71.7614  220.9888 H   0  0  0  0  0  0  0  0  0  0  0  0
  142.5304   71.0791  220.9888 H   0  0  0  0  0  0  0  0  0  0  0  0
  141.7020   74.4040  220.9590 C   0  0  0  0  0  0  0  0  0  0  0  0
  140.4920   74.3780  221.5790 N   0  0  0  0  0  0  0  0  0  0  0  0
  139.7470   75.4980  221.7400 C   0  0  0  0  0  0  0  0  0  0  0  0
  138.5420   75.4270  222.3670 N   0  0  0  0  0  0  0  0  0  0  0  0
  138.2170   74.4950  222.7150 H   0  0  0  0  0  0  0  0  0  0  0  0
  1  2  1  0
  2  3  2  0
  3  4  1  0
  4  5  1  0
  5  6  2  0
  6  7  1  0
  7  8  1  6
  7  9  1  0
  9 10  2  0
 10 11  1  0
 10 12  1  0
 12 13  1  0
 12 14  2  0
 14 15  1  0
 14 16  1  0
 16 17  1  0
 16 18  2  0
 18 19  1  0
  7 20  1  0
 20 21  1  0
 20 22  1  0
 20 23  1  0
  5 24  1  0
 24 25  1  0
  4 26  2  0
 26 27  1  0
 26 28  1  0
 28 29  1  0
 29 30  2  0
 29 31  1  0
 31 32  1  0
 32 33  1  0
 32 34  2  0
 34 35  1  0
 34 36  1  0
 36 37  1  0
 36 38  2  0
 38 39  1  0
 39 40  1  0
 39 41  1  0
 39 42  1  0
 38 43  1  0
 43 44  2  0
 44 45  1  0
 45 46  1  0
 46 47  1  0
 46  3  1  0
 18  9  1  0
 45 28  2  0
 43 31  1  0
M  END
>  <UniqueID>  (66) 
116

>  <SMILES>  (66) 
[H]/N=c1\[nH]c2nc3c(C)cccn3c(=O)c2cc1/C(O)=N/[C@@H](C)c1ccccc1

>  <Energy>  (66) 
64.4707771888291

>  <Genealogy>  (66) 
Cc1cccn2c(=O)c3cc(C(O)=N[C@@H](C)c4ccccc4)c(=N)[nH]c3nc12 (tautomer)
[H]/N=c1\[nH]c2nc3c(C)cccn3c(=O)c2cc1/C(O)=N/[C@@H](C)c1ccccc1 (cis-trans isomerization)
[H]/N=c1\[nH]c2nc3c(C)cccn3c(=O)c2cc1/C(O)=N/[C@@H](C)c1ccccc1 (3D coordinates assigned)
[H]/N=c1\[nH]c2nc3c(C)cccn3c(=O)c2cc1/C(O)=N/[C@@H](C)c1ccccc1 (optimized conformer: 64.4707771888291 kcal/mol)

>  <smiles>  (66) 
Cc1cccn2c(=O)c3cc(C(=O)N[C@@H](C)c4ccccc4)c(=N)[nH]c3nc12

>  <score_type>  (66) 
oracle

>  <origin>  (66) 
autodockgpu

>  <m_score__min__energy>  (66) 
-8.3699999999999992

>  <m_primary>  (66) 
energy

>  <meeko>  (66) 
{"free_energy": -6.73, "intermolecular_energy": -8.51, "internal_energy": -2.23, "cluster_size": 16, "cluster_id": 3, "rank_in_cluster": 5}

>  <energy>  (66) 
-6.74

>  <cluster_rmsd>  (66) 
0.27

>  <rmsd>  (66) 
270.54

>  <cluster>  (66) 
3

$$$$
PSCKMLPRYLACNW-GLSXUUDRNA-N
     RDKit          3D

 47 50  0  0  0  0  0  0  0  0999 V2000
  139.6560   71.0670  223.5640 H   0  0  0  0  0  0  0  0  0  0  0  0
  138.7560   71.5910  223.4800 N   0  0  0  0  0  0  0  0  0  0  0  0
  137.6670   71.2020  224.0680 C   0  0  0  0  0  0  0  0  0  0  0  0
  137.5650   69.8960  224.6100 C   0  0  0  0  0  0  0  0  0  0  0  0
  138.6820   68.9040  224.5340 C   0  0  0  0  0  0  0  0  0  0  0  0
  138.8340   68.0430  225.5030 N   0  0  0  0  0  0  0  0  0  0  0  0
  139.7730   68.1240  226.6240 C   0  0  2  0  0  0  0  0  0  0  0  0
  139.3076   67.6765  227.5145 H   0  0  0  0  0  0  0  0  0  0  0  0
  140.1040   69.5740  226.8950 C   0  0  0  0  0  0  0  0  0  0  0  0
  140.9130   70.3080  226.0060 C   0  0  0  0  0  0  0  0  0  0  0  0
  141.2968   69.8292  225.0931 H   0  0  0  0  0  0  0  0  0  0  0  0
  141.2310   71.6430  226.2780 C   0  0  0  0  0  0  0  0  0  0  0  0
  141.8555   72.2130  225.5744 H   0  0  0  0  0  0  0  0  0  0  0  0
  140.7570   72.2530  227.4410 C   0  0  0  0  0  0  0  0  0  0  0  0
  141.0075   73.3031  227.6519 H   0  0  0  0  0  0  0  0  0  0  0  0
  139.9650   71.5310  228.3370 C   0  0  0  0  0  0  0  0  0  0  0  0
  139.5941   72.0131  229.2535 H   0  0  0  0  0  0  0  0  0  0  0  0
  139.6430   70.1970  228.0710 C   0  0  0  0  0  0  0  0  0  0  0  0
  139.0261   69.6306  228.7842 H   0  0  0  0  0  0  0  0  0  0  0  0
  141.0580   67.3510  226.3030 C   0  0  0  0  0  0  0  0  0  0  0  0
  141.5513   67.0543  227.2404 H   0  0  0  0  0  0  0  0  0  0  0  0
  140.8093   66.4525  225.7192 H   0  0  0  0  0  0  0  0  0  0  0  0
  141.7352   67.9917  225.7192 H   0  0  0  0  0  0  0  0  0  0  0  0
  139.5390   68.9090  223.4280 O   0  0  0  0  0  0  0  0  0  0  0  0
  139.6300   69.6870  222.7880 H   0  0  0  0  0  0  0  0  0  0  0  0
  136.3580   69.5350  225.2420 C   0  0  0  0  0  0  0  0  0  0  0  0
  136.2502   68.5287  225.6730 H   0  0  0  0  0  0  0  0  0  0  0  0
  135.2930   70.4430  225.3280 C   0  0  0  0  0  0  0  0  0  0  0  0
  134.0720   70.1220  225.9490 C   0  0  0  0  0  0  0  0  0  0  0  0
  133.9140   68.9760  226.4550 O   0  0  0  0  0  0  0  0  0  0  0  0
  133.0600   71.0540  226.0030 N   0  0  0  0  0  0  0  0  0  0  0  0
  131.8680   70.7480  226.6090 C   0  0  0  0  0  0  0  0  0  0  0  0
  131.7246   69.7514  227.0519 H   0  0  0  0  0  0  0  0  0  0  0  0
  130.8360   71.6830  226.6710 C   0  0  0  0  0  0  0  0  0  0  0  0
  129.8851   71.4248  227.1601 H   0  0  0  0  0  0  0  0  0  0  0  0
  131.0140   72.9430  226.1120 C   0  0  0  0  0  0  0  0  0  0  0  0
  130.2032   73.6848  226.1590 H   0  0  0  0  0  0  0  0  0  0  0  0
  132.2230   73.2680  225.4900 C   0  0  0  0  0  0  0  0  0  0  0  0
  132.4180   74.6330  224.8870 C   0  0  0  0  0  0  0  0  0  0  0  0
  132.5243   75.3769  225.6903 H   0  0  0  0  0  0  0  0  0  0  0  0
  133.3252   74.6329  224.2650 H   0  0  0  0  0  0  0  0  0  0  0  0
  131.5470   74.8869  224.2650 H   0  0  0  0  0  0  0  0  0  0  0  0
  133.2480   72.3020  225.4450 C   0  0  0  0  0  0  0  0  0  0  0  0
  134.4290   72.6090  224.8450 N   0  0  0  0  0  0  0  0  0  0  0  0
  135.4470   71.7180  224.7740 C   0  0  0  0  0  0  0  0  0  0  0  0
  136.6120   72.0660  224.1650 N   0  0  0  0  0  0  0  0  0  0  0  0
  136.6950   73.0280  223.7620 H   0  0  0  0  0  0  0  0  0  0  0  0
  1  2  1  0
  2  3  2  0
  3  4  1  0
  4  5  1  0
  5  6  2  0
  6  7  1  0
  7  8  1  1
  7  9  1  0
  9 10  2  0
 10 11  1  0
 10 12  1  0
 12 13  1  0
 12 14  2  0
 14 15  1  0
 14 16  1  0
 16 17  1  0
 16 18  2  0
 18 19  1  0
  7 20  1  0
 20 21  1  0
 20 22  1  0
 20 23  1  0
  5 24  1  0
 24 25  1  0
  4 26  2  0
 26 27  1  0
 26 28  1  0
 28 29  1  0
 29 30  2  0
 29 31  1  0
 31 32  1  0
 32 33  1  0
 32 34  2  0
 34 35  1  0
 34 36  1  0
 36 37  1  0
 36 38  2  0
 38 39  1  0
 39 40  1  0
 39 41  1  0
 39 42  1  0
 38 43  1  0
 43 44  2  0
 44 45  1  0
 45 46  1  0
 46 47  1  0
 46  3  1  0
 18  9  1  0
 45 28  2  0
 43 31  1  0
M  END
>  <UniqueID>  (67) 
116

>  <SMILES>  (67) 
[H]/N=c1\[nH]c2nc3c(C)cccn3c(=O)c2cc1/C(O)=N/[C@@H](C)c1ccccc1

>  <Energy>  (67) 
64.4707771888291

>  <Genealogy>  (67) 
Cc1cccn2c(=O)c3cc(C(O)=N[C@@H](C)c4ccccc4)c(=N)[nH]c3nc12 (tautomer)
[H]/N=c1\[nH]c2nc3c(C)cccn3c(=O)c2cc1/C(O)=N/[C@@H](C)c1ccccc1 (cis-trans isomerization)
[H]/N=c1\[nH]c2nc3c(C)cccn3c(=O)c2cc1/C(O)=N/[C@@H](C)c1ccccc1 (3D coordinates assigned)
[H]/N=c1\[nH]c2nc3c(C)cccn3c(=O)c2cc1/C(O)=N/[C@@H](C)c1ccccc1 (optimized conformer: 64.4707771888291 kcal/mol)

>  <smiles>  (67) 
Cc1cccn2c(=O)c3cc(C(=O)N[C@@H](C)c4ccccc4)c(=N)[nH]c3nc12

>  <score_type>  (67) 
oracle

>  <origin>  (67) 
autodockgpu

>  <m_score__min__energy>  (67) 
-8.3699999999999992

>  <m_primary>  (67) 
energy

>  <meeko>  (67) 
{"free_energy": -7.36, "intermolecular_energy": -9.15, "internal_energy": -1.78, "cluster_size": 3, "cluster_id": 1, "rank_in_cluster": 3}

>  <energy>  (67) 
-6.73

>  <cluster_rmsd>  (67) 
0.28

>  <rmsd>  (67) 
270.56

>  <cluster>  (67) 
3

$$$$
PSCKMLPRYLACNW-GLSXUUDRNA-N
     RDKit          3D

 47 50  0  0  0  0  0  0  0  0999 V2000
  136.1700   77.2800  223.6380 H   0  0  0  0  0  0  0  0  0  0  0  0
  136.6220   76.4820  223.1370 N   0  0  0  0  0  0  0  0  0  0  0  0
  137.7620   76.5970  222.5290 C   0  0  0  0  0  0  0  0  0  0  0  0
  138.1980   77.8550  222.0420 C   0  0  0  0  0  0  0  0  0  0  0  0
  137.3840   79.1010  222.1900 C   0  0  0  0  0  0  0  0  0  0  0  0
  137.9820   80.2600  222.1480 N   0  0  0  0  0  0  0  0  0  0  0  0
  138.6940   80.9320  223.2370 C   0  0  2  0  0  0  0  0  0  0  0  0
  138.5980   82.0205  223.1104 H   0  0  0  0  0  0  0  0  0  0  0  0
  140.1540   80.5400  223.1960 C   0  0  0  0  0  0  0  0  0  0  0  0
  141.0750   81.2690  222.4180 C   0  0  0  0  0  0  0  0  0  0  0  0
  140.7352   82.1450  221.8460 H   0  0  0  0  0  0  0  0  0  0  0  0
  142.4190   80.8850  222.3690 C   0  0  0  0  0  0  0  0  0  0  0  0
  143.1338   81.4642  221.7660 H   0  0  0  0  0  0  0  0  0  0  0  0
  142.8550   79.7680  223.0840 C   0  0  0  0  0  0  0  0  0  0  0  0
  143.9130   79.4695  223.0459 H   0  0  0  0  0  0  0  0  0  0  0  0
  141.9480   79.0290  223.8480 C   0  0  0  0  0  0  0  0  0  0  0  0
  142.2927   78.1473  224.4082 H   0  0  0  0  0  0  0  0  0  0  0  0
  140.6030   79.4080  223.9020 C   0  0  0  0  0  0  0  0  0  0  0  0
  139.8921   78.8183  224.4994 H   0  0  0  0  0  0  0  0  0  0  0  0
  138.0910   80.5440  224.5910 C   0  0  0  0  0  0  0  0  0  0  0  0
  138.7174   80.9471  225.4004 H   0  0  0  0  0  0  0  0  0  0  0  0
  137.0753   80.9585  224.6724 H   0  0  0  0  0  0  0  0  0  0  0  0
  138.0473   79.4479  224.6724 H   0  0  0  0  0  0  0  0  0  0  0  0
  135.9980   79.0070  222.3630 O   0  0  0  0  0  0  0  0  0  0  0  0
  135.4820   78.1380  222.3250 H   0  0  0  0  0  0  0  0  0  0  0  0
  139.4490   77.9160  221.3960 C   0  0  0  0  0  0  0  0  0  0  0  0
  139.8138   78.8785  221.0079 H   0  0  0  0  0  0  0  0  0  0  0  0
  140.2340   76.7650  221.2420 C   0  0  0  0  0  0  0  0  0  0  0  0
  141.4880   76.7820  220.6030 C   0  0  0  0  0  0  0  0  0  0  0  0
  141.9380   77.8710  220.1470 O   0  0  0  0  0  0  0  0  0  0  0  0
  142.2150   75.6210  220.4790 N   0  0  0  0  0  0  0  0  0  0  0  0
  143.4390   75.6310  219.8590 C   0  0  0  0  0  0  0  0  0  0  0  0
  143.8366   76.5756  219.4595 H   0  0  0  0  0  0  0  0  0  0  0  0
  144.1860   74.4610  219.7280 C   0  0  0  0  0  0  0  0  0  0  0  0
  145.1661   74.4838  219.2291 H   0  0  0  0  0  0  0  0  0  0  0  0
  143.6860   73.2660  220.2310 C   0  0  0  0  0  0  0  0  0  0  0  0
  144.2715   72.3401  220.1309 H   0  0  0  0  0  0  0  0  0  0  0  0
  142.4400   73.2390  220.8640 C   0  0  0  0  0  0  0  0  0  0  0  0
  141.8990   71.9460  221.4110 C   0  0  0  0  0  0  0  0  0  0  0  0
  141.9127   71.9787  222.5104 H   0  0  0  0  0  0  0  0  0  0  0  0
  140.8658   71.8036  221.0612 H   0  0  0  0  0  0  0  0  0  0  0  0
  142.5229   71.1103  221.0612 H   0  0  0  0  0  0  0  0  0  0  0  0
  141.7090   74.4380  220.9820 C   0  0  0  0  0  0  0  0  0  0  0  0
  140.4980   74.4250  221.5990 N   0  0  0  0  0  0  0  0  0  0  0  0
  139.7550   75.5490  221.7400 C   0  0  0  0  0  0  0  0  0  0  0  0
  138.5480   75.4910  222.3640 N   0  0  0  0  0  0  0  0  0  0  0  0
  138.2190   74.5650  222.7260 H   0  0  0  0  0  0  0  0  0  0  0  0
  1  2  1  0
  2  3  2  0
  3  4  1  0
  4  5  1  0
  5  6  2  0
  6  7  1  0
  7  8  1  6
  7  9  1  0
  9 10  2  0
 10 11  1  0
 10 12  1  0
 12 13  1  0
 12 14  2  0
 14 15  1  0
 14 16  1  0
 16 17  1  0
 16 18  2  0
 18 19  1  0
  7 20  1  0
 20 21  1  0
 20 22  1  0
 20 23  1  0
  5 24  1  0
 24 25  1  0
  4 26  2  0
 26 27  1  0
 26 28  1  0
 28 29  1  0
 29 30  2  0
 29 31  1  0
 31 32  1  0
 32 33  1  0
 32 34  2  0
 34 35  1  0
 34 36  1  0
 36 37  1  0
 36 38  2  0
 38 39  1  0
 39 40  1  0
 39 41  1  0
 39 42  1  0
 38 43  1  0
 43 44  2  0
 44 45  1  0
 45 46  1  0
 46 47  1  0
 46  3  1  0
 18  9  1  0
 45 28  2  0
 43 31  1  0
M  END
>  <UniqueID>  (68) 
116

>  <SMILES>  (68) 
[H]/N=c1\[nH]c2nc3c(C)cccn3c(=O)c2cc1/C(O)=N/[C@@H](C)c1ccccc1

>  <Energy>  (68) 
64.4707771888291

>  <Genealogy>  (68) 
Cc1cccn2c(=O)c3cc(C(O)=N[C@@H](C)c4ccccc4)c(=N)[nH]c3nc12 (tautomer)
[H]/N=c1\[nH]c2nc3c(C)cccn3c(=O)c2cc1/C(O)=N/[C@@H](C)c1ccccc1 (cis-trans isomerization)
[H]/N=c1\[nH]c2nc3c(C)cccn3c(=O)c2cc1/C(O)=N/[C@@H](C)c1ccccc1 (3D coordinates assigned)
[H]/N=c1\[nH]c2nc3c(C)cccn3c(=O)c2cc1/C(O)=N/[C@@H](C)c1ccccc1 (optimized conformer: 64.4707771888291 kcal/mol)

>  <smiles>  (68) 
Cc1cccn2c(=O)c3cc(C(=O)N[C@@H](C)c4ccccc4)c(=N)[nH]c3nc12

>  <score_type>  (68) 
oracle

>  <origin>  (68) 
autodockgpu

>  <m_score__min__energy>  (68) 
-8.3699999999999992

>  <m_primary>  (68) 
energy

>  <meeko>  (68) 
{"free_energy": -6.7, "intermolecular_energy": -8.49, "internal_energy": -2.25, "cluster_size": 16, "cluster_id": 3, "rank_in_cluster": 14}

>  <energy>  (68) 
-6.73

>  <cluster_rmsd>  (68) 
0.27

>  <rmsd>  (68) 
270.55

>  <cluster>  (68) 
3

$$$$
PSCKMLPRYLACNW-GLSXUUDRNA-N
     RDKit          3D

 47 50  0  0  0  0  0  0  0  0999 V2000
  136.1780   77.1690  223.7870 H   0  0  0  0  0  0  0  0  0  0  0  0
  136.5980   76.3970  223.2210 N   0  0  0  0  0  0  0  0  0  0  0  0
  137.7270   76.5270  222.5960 C   0  0  0  0  0  0  0  0  0  0  0  0
  138.1450   77.7940  222.1150 C   0  0  0  0  0  0  0  0  0  0  0  0
  137.3240   79.0310  222.2880 C   0  0  0  0  0  0  0  0  0  0  0  0
  137.8990   80.1970  222.1760 N   0  0  0  0  0  0  0  0  0  0  0  0
  138.6360   80.9270  223.2100 C   0  0  2  0  0  0  0  0  0  0  0  0
  138.5549   82.0063  223.0136 H   0  0  0  0  0  0  0  0  0  0  0  0
  140.0890   80.5110  223.1770 C   0  0  0  0  0  0  0  0  0  0  0  0
  141.0220   81.2100  222.3840 C   0  0  0  0  0  0  0  0  0  0  0  0
  140.6964   82.0799  221.7947 H   0  0  0  0  0  0  0  0  0  0  0  0
  142.3590   80.8030  222.3430 C   0  0  0  0  0  0  0  0  0  0  0  0
  143.0832   81.3588  221.7293 H   0  0  0  0  0  0  0  0  0  0  0  0
  142.7770   79.6930  223.0790 C   0  0  0  0  0  0  0  0  0  0  0  0
  143.8301   79.3770  223.0464 H   0  0  0  0  0  0  0  0  0  0  0  0
  141.8590   78.9830  223.8570 C   0  0  0  0  0  0  0  0  0  0  0  0
  142.1897   78.1065  224.4335 H   0  0  0  0  0  0  0  0  0  0  0  0
  140.5200   79.3850  223.9040 C   0  0  0  0  0  0  0  0  0  0  0  0
  139.7998   78.8182  224.5124 H   0  0  0  0  0  0  0  0  0  0  0  0
  138.0450   80.6370  224.5940 C   0  0  0  0  0  0  0  0  0  0  0  0
  138.7444   80.9802  225.3706 H   0  0  0  0  0  0  0  0  0  0  0  0
  137.0876   81.1676  224.7024 H   0  0  0  0  0  0  0  0  0  0  0  0
  137.8789   79.5550  224.7024 H   0  0  0  0  0  0  0  0  0  0  0  0
  135.9550   78.9220  222.5600 O   0  0  0  0  0  0  0  0  0  0  0  0
  135.4320   78.0600  222.4850 H   0  0  0  0  0  0  0  0  0  0  0  0
  139.3860   77.8710  221.4500 C   0  0  0  0  0  0  0  0  0  0  0  0
  139.7377   78.8403  221.0669 H   0  0  0  0  0  0  0  0  0  0  0  0
  140.1770   76.7280  221.2710 C   0  0  0  0  0  0  0  0  0  0  0  0
  141.4200   76.7610  220.6130 C   0  0  0  0  0  0  0  0  0  0  0  0
  141.8550   77.8580  220.1610 O   0  0  0  0  0  0  0  0  0  0  0  0
  142.1550   75.6070  220.4660 N   0  0  0  0  0  0  0  0  0  0  0  0
  143.3680   75.6340  219.8270 C   0  0  0  0  0  0  0  0  0  0  0  0
  143.7516   76.5860  219.4312 H   0  0  0  0  0  0  0  0  0  0  0  0
  144.1220   74.4710  219.6720 C   0  0  0  0  0  0  0  0  0  0  0  0
  145.0935   74.5066  219.1573 H   0  0  0  0  0  0  0  0  0  0  0  0
  143.6400   73.2670  220.1710 C   0  0  0  0  0  0  0  0  0  0  0  0
  144.2314   72.3470  220.0529 H   0  0  0  0  0  0  0  0  0  0  0  0
  142.4040   73.2240  220.8230 C   0  0  0  0  0  0  0  0  0  0  0  0
  141.8830   71.9210  221.3660 C   0  0  0  0  0  0  0  0  0  0  0  0
  141.8950   71.9510  222.4655 H   0  0  0  0  0  0  0  0  0  0  0  0
  140.8526   71.7632  221.0147 H   0  0  0  0  0  0  0  0  0  0  0  0
  142.5205   71.0963  221.0147 H   0  0  0  0  0  0  0  0  0  0  0  0
  141.6660   74.4160  220.9650 C   0  0  0  0  0  0  0  0  0  0  0  0
  140.4650   74.3860  221.6010 N   0  0  0  0  0  0  0  0  0  0  0  0
  139.7150   75.5030  221.7650 C   0  0  0  0  0  0  0  0  0  0  0  0
  138.5190   75.4290  222.4070 N   0  0  0  0  0  0  0  0  0  0  0  0
  138.2030   74.4970  222.7650 H   0  0  0  0  0  0  0  0  0  0  0  0
  1  2  1  0
  2  3  2  0
  3  4  1  0
  4  5  1  0
  5  6  2  0
  6  7  1  0
  7  8  1  6
  7  9  1  0
  9 10  2  0
 10 11  1  0
 10 12  1  0
 12 13  1  0
 12 14  2  0
 14 15  1  0
 14 16  1  0
 16 17  1  0
 16 18  2  0
 18 19  1  0
  7 20  1  0
 20 21  1  0
 20 22  1  0
 20 23  1  0
  5 24  1  0
 24 25  1  0
  4 26  2  0
 26 27  1  0
 26 28  1  0
 28 29  1  0
 29 30  2  0
 29 31  1  0
 31 32  1  0
 32 33  1  0
 32 34  2  0
 34 35  1  0
 34 36  1  0
 36 37  1  0
 36 38  2  0
 38 39  1  0
 39 40  1  0
 39 41  1  0
 39 42  1  0
 38 43  1  0
 43 44  2  0
 44 45  1  0
 45 46  1  0
 46 47  1  0
 46  3  1  0
 18  9  1  0
 45 28  2  0
 43 31  1  0
M  END
>  <UniqueID>  (69) 
116

>  <SMILES>  (69) 
[H]/N=c1\[nH]c2nc3c(C)cccn3c(=O)c2cc1/C(O)=N/[C@@H](C)c1ccccc1

>  <Energy>  (69) 
64.4707771888291

>  <Genealogy>  (69) 
Cc1cccn2c(=O)c3cc(C(O)=N[C@@H](C)c4ccccc4)c(=N)[nH]c3nc12 (tautomer)
[H]/N=c1\[nH]c2nc3c(C)cccn3c(=O)c2cc1/C(O)=N/[C@@H](C)c1ccccc1 (cis-trans isomerization)
[H]/N=c1\[nH]c2nc3c(C)cccn3c(=O)c2cc1/C(O)=N/[C@@H](C)c1ccccc1 (3D coordinates assigned)
[H]/N=c1\[nH]c2nc3c(C)cccn3c(=O)c2cc1/C(O)=N/[C@@H](C)c1ccccc1 (optimized conformer: 64.4707771888291 kcal/mol)

>  <smiles>  (69) 
Cc1cccn2c(=O)c3cc(C(=O)N[C@@H](C)c4ccccc4)c(=N)[nH]c3nc12

>  <score_type>  (69) 
oracle

>  <origin>  (69) 
autodockgpu

>  <m_score__min__energy>  (69) 
-8.3699999999999992

>  <m_primary>  (69) 
energy

>  <meeko>  (69) 
{"free_energy": -6.72, "intermolecular_energy": -8.51, "internal_energy": -2.23, "cluster_size": 16, "cluster_id": 3, "rank_in_cluster": 9}

>  <energy>  (69) 
-6.73

>  <cluster_rmsd>  (69) 
0.28

>  <rmsd>  (69) 
270.53

>  <cluster>  (69) 
3

$$$$
PSCKMLPRYLACNW-GLSXUUDRNA-N
     RDKit          3D

 47 50  0  0  0  0  0  0  0  0999 V2000
  136.1840   77.2070  223.7150 H   0  0  0  0  0  0  0  0  0  0  0  0
  136.6240   76.4210  223.1860 N   0  0  0  0  0  0  0  0  0  0  0  0
  137.7570   76.5450  222.5670 C   0  0  0  0  0  0  0  0  0  0  0  0
  138.1770   77.8080  222.0770 C   0  0  0  0  0  0  0  0  0  0  0  0
  137.3540   79.0460  222.2340 C   0  0  0  0  0  0  0  0  0  0  0  0
  137.9360   80.2120  222.1570 N   0  0  0  0  0  0  0  0  0  0  0  0
  138.6610   80.9150  223.2170 C   0  0  2  0  0  0  0  0  0  0  0  0
  138.5671   81.9993  223.0577 H   0  0  0  0  0  0  0  0  0  0  0  0
  140.1190   80.5180  223.1740 C   0  0  0  0  0  0  0  0  0  0  0  0
  141.0420   81.2470  222.3990 C   0  0  0  0  0  0  0  0  0  0  0  0
  140.7048   82.1264  221.8307 H   0  0  0  0  0  0  0  0  0  0  0  0
  142.3850   80.8590  222.3480 C   0  0  0  0  0  0  0  0  0  0  0  0
  143.1018   81.4391  221.7482 H   0  0  0  0  0  0  0  0  0  0  0  0
  142.8170   79.7370  223.0570 C   0  0  0  0  0  0  0  0  0  0  0  0
  143.8738   79.4345  223.0165 H   0  0  0  0  0  0  0  0  0  0  0  0
  141.9080   78.9980  223.8180 C   0  0  0  0  0  0  0  0  0  0  0  0
  142.2499   78.1128  224.3743 H   0  0  0  0  0  0  0  0  0  0  0  0
  140.5650   79.3810  223.8740 C   0  0  0  0  0  0  0  0  0  0  0  0
  139.8524   78.7905  224.4685 H   0  0  0  0  0  0  0  0  0  0  0  0
  138.0700   80.5690  224.5890 C   0  0  0  0  0  0  0  0  0  0  0  0
  138.7295   80.9551  225.3802 H   0  0  0  0  0  0  0  0  0  0  0  0
  137.0745   81.0269  224.6855 H   0  0  0  0  0  0  0  0  0  0  0  0
  137.9821   79.4768  224.6855 H   0  0  0  0  0  0  0  0  0  0  0  0
  135.9760   78.9390  222.4540 O   0  0  0  0  0  0  0  0  0  0  0  0
  135.4640   78.0680  222.4130 H   0  0  0  0  0  0  0  0  0  0  0  0
  139.4210   77.8800  221.4180 C   0  0  0  0  0  0  0  0  0  0  0  0
  139.7735   78.8461  221.0276 H   0  0  0  0  0  0  0  0  0  0  0  0
  140.2140   76.7370  221.2540 C   0  0  0  0  0  0  0  0  0  0  0  0
  141.4610   76.7650  220.6030 C   0  0  0  0  0  0  0  0  0  0  0  0
  141.8970   77.8580  220.1430 O   0  0  0  0  0  0  0  0  0  0  0  0
  142.1980   75.6110  220.4710 N   0  0  0  0  0  0  0  0  0  0  0  0
  143.4150   75.6320  219.8380 C   0  0  0  0  0  0  0  0  0  0  0  0
  143.8003   76.5803  219.4352 H   0  0  0  0  0  0  0  0  0  0  0  0
  144.1700   74.4690  219.6980 C   0  0  0  0  0  0  0  0  0  0  0  0
  145.1444   74.5007  219.1886 H   0  0  0  0  0  0  0  0  0  0  0  0
  143.6860   73.2690  220.2050 C   0  0  0  0  0  0  0  0  0  0  0  0
  144.2784   72.3483  220.0979 H   0  0  0  0  0  0  0  0  0  0  0  0
  142.4470   73.2310  220.8510 C   0  0  0  0  0  0  0  0  0  0  0  0
  141.9230   71.9320  221.4020 C   0  0  0  0  0  0  0  0  0  0  0  0
  141.9374   71.9676  222.5013 H   0  0  0  0  0  0  0  0  0  0  0  0
  140.8914   71.7755  221.0537 H   0  0  0  0  0  0  0  0  0  0  0  0
  142.5573   71.1035  221.0537 H   0  0  0  0  0  0  0  0  0  0  0  0
  141.7070   74.4240  220.9780 C   0  0  0  0  0  0  0  0  0  0  0  0
  140.5020   74.3980  221.6070 N   0  0  0  0  0  0  0  0  0  0  0  0
  139.7510   75.5160  221.7560 C   0  0  0  0  0  0  0  0  0  0  0  0
  138.5510   75.4470  222.3920 N   0  0  0  0  0  0  0  0  0  0  0  0
  138.2340   74.5180  222.7570 H   0  0  0  0  0  0  0  0  0  0  0  0
  1  2  1  0
  2  3  2  0
  3  4  1  0
  4  5  1  0
  5  6  2  0
  6  7  1  0
  7  8  1  6
  7  9  1  0
  9 10  2  0
 10 11  1  0
 10 12  1  0
 12 13  1  0
 12 14  2  0
 14 15  1  0
 14 16  1  0
 16 17  1  0
 16 18  2  0
 18 19  1  0
  7 20  1  0
 20 21  1  0
 20 22  1  0
 20 23  1  0
  5 24  1  0
 24 25  1  0
  4 26  2  0
 26 27  1  0
 26 28  1  0
 28 29  1  0
 29 30  2  0
 29 31  1  0
 31 32  1  0
 32 33  1  0
 32 34  2  0
 34 35  1  0
 34 36  1  0
 36 37  1  0
 36 38  2  0
 38 39  1  0
 39 40  1  0
 39 41  1  0
 39 42  1  0
 38 43  1  0
 43 44  2  0
 44 45  1  0
 45 46  1  0
 46 47  1  0
 46  3  1  0
 18  9  1  0
 45 28  2  0
 43 31  1  0
M  END
>  <UniqueID>  (70) 
116

>  <SMILES>  (70) 
[H]/N=c1\[nH]c2nc3c(C)cccn3c(=O)c2cc1/C(O)=N/[C@@H](C)c1ccccc1

>  <Energy>  (70) 
64.4707771888291

>  <Genealogy>  (70) 
Cc1cccn2c(=O)c3cc(C(O)=N[C@@H](C)c4ccccc4)c(=N)[nH]c3nc12 (tautomer)
[H]/N=c1\[nH]c2nc3c(C)cccn3c(=O)c2cc1/C(O)=N/[C@@H](C)c1ccccc1 (cis-trans isomerization)
[H]/N=c1\[nH]c2nc3c(C)cccn3c(=O)c2cc1/C(O)=N/[C@@H](C)c1ccccc1 (3D coordinates assigned)
[H]/N=c1\[nH]c2nc3c(C)cccn3c(=O)c2cc1/C(O)=N/[C@@H](C)c1ccccc1 (optimized conformer: 64.4707771888291 kcal/mol)

>  <smiles>  (70) 
Cc1cccn2c(=O)c3cc(C(=O)N[C@@H](C)c4ccccc4)c(=N)[nH]c3nc12

>  <score_type>  (70) 
oracle

>  <origin>  (70) 
autodockgpu

>  <m_score__min__energy>  (70) 
-8.3699999999999992

>  <m_primary>  (70) 
energy

>  <meeko>  (70) 
{"free_energy": -6.72, "intermolecular_energy": -8.51, "internal_energy": -2.23, "cluster_size": 16, "cluster_id": 3, "rank_in_cluster": 6}

>  <energy>  (70) 
-6.72

>  <cluster_rmsd>  (70) 
0.28

>  <rmsd>  (70) 
270.53

>  <cluster>  (70) 
3

$$$$
PSCKMLPRYLACNW-GLSXUUDRNA-N
     RDKit          3D

 47 50  0  0  0  0  0  0  0  0999 V2000
  136.2020   77.1740  223.7640 H   0  0  0  0  0  0  0  0  0  0  0  0
  136.6420   76.3930  223.2260 N   0  0  0  0  0  0  0  0  0  0  0  0
  137.7720   76.5250  222.6030 C   0  0  0  0  0  0  0  0  0  0  0  0
  138.1900   77.7930  222.1260 C   0  0  0  0  0  0  0  0  0  0  0  0
  137.3680   79.0300  222.3010 C   0  0  0  0  0  0  0  0  0  0  0  0
  137.9380   80.1960  222.1730 N   0  0  0  0  0  0  0  0  0  0  0  0
  138.6710   80.9450  223.1960 C   0  0  2  0  0  0  0  0  0  0  0  0
  138.5904   82.0207  222.9807 H   0  0  0  0  0  0  0  0  0  0  0  0
  140.1240   80.5290  223.1750 C   0  0  0  0  0  0  0  0  0  0  0  0
  141.0600   81.2170  222.3780 C   0  0  0  0  0  0  0  0  0  0  0  0
  140.7365   82.0787  221.7757 H   0  0  0  0  0  0  0  0  0  0  0  0
  142.3980   80.8110  222.3480 C   0  0  0  0  0  0  0  0  0  0  0  0
  143.1245   81.3587  221.7298 H   0  0  0  0  0  0  0  0  0  0  0  0
  142.8130   79.7110  223.1020 C   0  0  0  0  0  0  0  0  0  0  0  0
  143.8664   79.3949  223.0793 H   0  0  0  0  0  0  0  0  0  0  0  0
  141.8910   79.0120  223.8850 C   0  0  0  0  0  0  0  0  0  0  0  0
  142.2190   78.1436  224.4752 H   0  0  0  0  0  0  0  0  0  0  0  0
  140.5520   79.4140  223.9200 C   0  0  0  0  0  0  0  0  0  0  0  0
  139.8292   78.8558  224.5331 H   0  0  0  0  0  0  0  0  0  0  0  0
  138.0750   80.6780  224.5830 C   0  0  0  0  0  0  0  0  0  0  0  0
  138.7887   80.9977  225.3565 H   0  0  0  0  0  0  0  0  0  0  0  0
  137.1371   81.2420  224.6938 H   0  0  0  0  0  0  0  0  0  0  0  0
  137.8715   79.6027  224.6938 H   0  0  0  0  0  0  0  0  0  0  0  0
  136.0030   78.9190  222.5920 O   0  0  0  0  0  0  0  0  0  0  0  0
  135.4740   78.0630  222.5000 H   0  0  0  0  0  0  0  0  0  0  0  0
  139.4310   77.8720  221.4630 C   0  0  0  0  0  0  0  0  0  0  0  0
  139.7826   78.8424  221.0827 H   0  0  0  0  0  0  0  0  0  0  0  0
  140.2230   76.7300  221.2820 C   0  0  0  0  0  0  0  0  0  0  0  0
  141.4670   76.7660  220.6250 C   0  0  0  0  0  0  0  0  0  0  0  0
  141.9010   77.8640  220.1760 O   0  0  0  0  0  0  0  0  0  0  0  0
  142.2020   75.6130  220.4760 N   0  0  0  0  0  0  0  0  0  0  0  0
  143.4160   75.6420  219.8380 C   0  0  0  0  0  0  0  0  0  0  0  0
  143.7992   76.5949  219.4441 H   0  0  0  0  0  0  0  0  0  0  0  0
  144.1710   74.4800  219.6820 C   0  0  0  0  0  0  0  0  0  0  0  0
  145.1441   74.5177  219.1705 H   0  0  0  0  0  0  0  0  0  0  0  0
  143.6880   73.2740  220.1760 C   0  0  0  0  0  0  0  0  0  0  0  0
  144.2790   72.3542  220.0545 H   0  0  0  0  0  0  0  0  0  0  0  0
  142.4520   73.2290  220.8270 C   0  0  0  0  0  0  0  0  0  0  0  0
  141.9300   71.9240  221.3660 C   0  0  0  0  0  0  0  0  0  0  0  0
  141.9408   71.9509  222.4656 H   0  0  0  0  0  0  0  0  0  0  0  0
  140.9000   71.7673  221.0131 H   0  0  0  0  0  0  0  0  0  0  0  0
  142.5678   71.1002  221.0131 H   0  0  0  0  0  0  0  0  0  0  0  0
  141.7140   74.4200  220.9710 C   0  0  0  0  0  0  0  0  0  0  0  0
  140.5110   74.3880  221.6060 N   0  0  0  0  0  0  0  0  0  0  0  0
  139.7610   75.5040  221.7710 C   0  0  0  0  0  0  0  0  0  0  0  0
  138.5640   75.4280  222.4120 N   0  0  0  0  0  0  0  0  0  0  0  0
  138.2480   74.4950  222.7670 H   0  0  0  0  0  0  0  0  0  0  0  0
  1  2  1  0
  2  3  2  0
  3  4  1  0
  4  5  1  0
  5  6  2  0
  6  7  1  0
  7  8  1  6
  7  9  1  0
  9 10  2  0
 10 11  1  0
 10 12  1  0
 12 13  1  0
 12 14  2  0
 14 15  1  0
 14 16  1  0
 16 17  1  0
 16 18  2  0
 18 19  1  0
  7 20  1  0
 20 21  1  0
 20 22  1  0
 20 23  1  0
  5 24  1  0
 24 25  1  0
  4 26  2  0
 26 27  1  0
 26 28  1  0
 28 29  1  0
 29 30  2  0
 29 31  1  0
 31 32  1  0
 32 33  1  0
 32 34  2  0
 34 35  1  0
 34 36  1  0
 36 37  1  0
 36 38  2  0
 38 39  1  0
 39 40  1  0
 39 41  1  0
 39 42  1  0
 38 43  1  0
 43 44  2  0
 44 45  1  0
 45 46  1  0
 46 47  1  0
 46  3  1  0
 18  9  1  0
 45 28  2  0
 43 31  1  0
M  END
>  <UniqueID>  (71) 
116

>  <SMILES>  (71) 
[H]/N=c1\[nH]c2nc3c(C)cccn3c(=O)c2cc1/C(O)=N/[C@@H](C)c1ccccc1

>  <Energy>  (71) 
64.4707771888291

>  <Genealogy>  (71) 
Cc1cccn2c(=O)c3cc(C(O)=N[C@@H](C)c4ccccc4)c(=N)[nH]c3nc12 (tautomer)
[H]/N=c1\[nH]c2nc3c(C)cccn3c(=O)c2cc1/C(O)=N/[C@@H](C)c1ccccc1 (cis-trans isomerization)
[H]/N=c1\[nH]c2nc3c(C)cccn3c(=O)c2cc1/C(O)=N/[C@@H](C)c1ccccc1 (3D coordinates assigned)
[H]/N=c1\[nH]c2nc3c(C)cccn3c(=O)c2cc1/C(O)=N/[C@@H](C)c1ccccc1 (optimized conformer: 64.4707771888291 kcal/mol)

>  <smiles>  (71) 
Cc1cccn2c(=O)c3cc(C(=O)N[C@@H](C)c4ccccc4)c(=N)[nH]c3nc12

>  <score_type>  (71) 
oracle

>  <origin>  (71) 
autodockgpu

>  <m_score__min__energy>  (71) 
-8.3699999999999992

>  <m_primary>  (71) 
energy

>  <meeko>  (71) 
{"free_energy": -6.73, "intermolecular_energy": -8.52, "internal_energy": -2.23, "cluster_size": 16, "cluster_id": 3, "rank_in_cluster": 4}

>  <energy>  (71) 
-6.72

>  <cluster_rmsd>  (71) 
0.28

>  <rmsd>  (71) 
270.55

>  <cluster>  (71) 
3

$$$$
PSCKMLPRYLACNW-GLSXUUDRNA-N
     RDKit          3D

 47 50  0  0  0  0  0  0  0  0999 V2000
  136.2360   77.1580  223.7400 H   0  0  0  0  0  0  0  0  0  0  0  0
  136.6690   76.3840  223.1880 N   0  0  0  0  0  0  0  0  0  0  0  0
  137.8010   76.5170  222.5690 C   0  0  0  0  0  0  0  0  0  0  0  0
  138.2140   77.7840  222.0830 C   0  0  0  0  0  0  0  0  0  0  0  0
  137.3840   79.0170  222.2460 C   0  0  0  0  0  0  0  0  0  0  0  0
  137.9550   80.1860  222.1430 N   0  0  0  0  0  0  0  0  0  0  0  0
  138.6780   80.9170  223.1870 C   0  0  2  0  0  0  0  0  0  0  0  0
  138.5863   81.9969  222.9986 H   0  0  0  0  0  0  0  0  0  0  0  0
  140.1350   80.5170  223.1590 C   0  0  0  0  0  0  0  0  0  0  0  0
  141.0630   81.2260  222.3710 C   0  0  0  0  0  0  0  0  0  0  0  0
  140.7301   82.0929  221.7814 H   0  0  0  0  0  0  0  0  0  0  0  0
  142.4050   80.8340  222.3340 C   0  0  0  0  0  0  0  0  0  0  0  0
  143.1252   81.3976  221.7227 H   0  0  0  0  0  0  0  0  0  0  0  0
  142.8320   79.7280  223.0720 C   0  0  0  0  0  0  0  0  0  0  0  0
  143.8886   79.4235  223.0438 H   0  0  0  0  0  0  0  0  0  0  0  0
  141.9190   79.0080  223.8460 C   0  0  0  0  0  0  0  0  0  0  0  0
  142.2566   78.1350  224.4238 H   0  0  0  0  0  0  0  0  0  0  0  0
  140.5760   79.3960  223.8870 C   0  0  0  0  0  0  0  0  0  0  0  0
  139.8595   78.8213  224.4922 H   0  0  0  0  0  0  0  0  0  0  0  0
  138.0820   80.6100  224.5650 C   0  0  0  0  0  0  0  0  0  0  0  0
  138.7685   80.9636  225.3484 H   0  0  0  0  0  0  0  0  0  0  0  0
  137.1136   81.1215  224.6679 H   0  0  0  0  0  0  0  0  0  0  0  0
  137.9362   79.5246  224.6679 H   0  0  0  0  0  0  0  0  0  0  0  0
  136.0120   78.9010  222.4980 O   0  0  0  0  0  0  0  0  0  0  0  0
  135.4980   78.0330  222.4320 H   0  0  0  0  0  0  0  0  0  0  0  0
  139.4570   77.8660  221.4250 C   0  0  0  0  0  0  0  0  0  0  0  0
  139.8046   78.8357  221.0392 H   0  0  0  0  0  0  0  0  0  0  0  0
  140.2560   76.7270  221.2560 C   0  0  0  0  0  0  0  0  0  0  0  0
  141.5030   76.7650  220.6040 C   0  0  0  0  0  0  0  0  0  0  0  0
  141.9330   77.8620  220.1490 O   0  0  0  0  0  0  0  0  0  0  0  0
  142.2450   75.6140  220.4670 N   0  0  0  0  0  0  0  0  0  0  0  0
  143.4620   75.6450  219.8340 C   0  0  0  0  0  0  0  0  0  0  0  0
  143.8417   76.5973  219.4353 H   0  0  0  0  0  0  0  0  0  0  0  0
  144.2240   74.4870  219.6890 C   0  0  0  0  0  0  0  0  0  0  0  0
  145.1984   74.5264  219.1801 H   0  0  0  0  0  0  0  0  0  0  0  0
  143.7460   73.2820  220.1910 C   0  0  0  0  0  0  0  0  0  0  0  0
  144.3430   72.3648  220.0799 H   0  0  0  0  0  0  0  0  0  0  0  0
  142.5070   73.2350  220.8370 C   0  0  0  0  0  0  0  0  0  0  0  0
  141.9910   71.9310  221.3840 C   0  0  0  0  0  0  0  0  0  0  0  0
  142.0040   71.9638  222.4834 H   0  0  0  0  0  0  0  0  0  0  0  0
  140.9608   71.7686  221.0341 H   0  0  0  0  0  0  0  0  0  0  0  0
  142.6311   71.1077  221.0341 H   0  0  0  0  0  0  0  0  0  0  0  0
  141.7620   74.4230  220.9690 C   0  0  0  0  0  0  0  0  0  0  0  0
  140.5570   74.3890  221.5990 N   0  0  0  0  0  0  0  0  0  0  0  0
  139.8000   75.5010  221.7530 C   0  0  0  0  0  0  0  0  0  0  0  0
  138.6000   75.4230  222.3900 N   0  0  0  0  0  0  0  0  0  0  0  0
  138.2890   74.4920  222.7500 H   0  0  0  0  0  0  0  0  0  0  0  0
  1  2  1  0
  2  3  2  0
  3  4  1  0
  4  5  1  0
  5  6  2  0
  6  7  1  0
  7  8  1  6
  7  9  1  0
  9 10  2  0
 10 11  1  0
 10 12  1  0
 12 13  1  0
 12 14  2  0
 14 15  1  0
 14 16  1  0
 16 17  1  0
 16 18  2  0
 18 19  1  0
  7 20  1  0
 20 21  1  0
 20 22  1  0
 20 23  1  0
  5 24  1  0
 24 25  1  0
  4 26  2  0
 26 27  1  0
 26 28  1  0
 28 29  1  0
 29 30  2  0
 29 31  1  0
 31 32  1  0
 32 33  1  0
 32 34  2  0
 34 35  1  0
 34 36  1  0
 36 37  1  0
 36 38  2  0
 38 39  1  0
 39 40  1  0
 39 41  1  0
 39 42  1  0
 38 43  1  0
 43 44  2  0
 44 45  1  0
 45 46  1  0
 46 47  1  0
 46  3  1  0
 18  9  1  0
 45 28  2  0
 43 31  1  0
M  END
>  <UniqueID>  (72) 
116

>  <SMILES>  (72) 
[H]/N=c1\[nH]c2nc3c(C)cccn3c(=O)c2cc1/C(O)=N/[C@@H](C)c1ccccc1

>  <Energy>  (72) 
64.4707771888291

>  <Genealogy>  (72) 
Cc1cccn2c(=O)c3cc(C(O)=N[C@@H](C)c4ccccc4)c(=N)[nH]c3nc12 (tautomer)
[H]/N=c1\[nH]c2nc3c(C)cccn3c(=O)c2cc1/C(O)=N/[C@@H](C)c1ccccc1 (cis-trans isomerization)
[H]/N=c1\[nH]c2nc3c(C)cccn3c(=O)c2cc1/C(O)=N/[C@@H](C)c1ccccc1 (3D coordinates assigned)
[H]/N=c1\[nH]c2nc3c(C)cccn3c(=O)c2cc1/C(O)=N/[C@@H](C)c1ccccc1 (optimized conformer: 64.4707771888291 kcal/mol)

>  <smiles>  (72) 
Cc1cccn2c(=O)c3cc(C(=O)N[C@@H](C)c4ccccc4)c(=N)[nH]c3nc12

>  <score_type>  (72) 
oracle

>  <origin>  (72) 
autodockgpu

>  <m_score__min__energy>  (72) 
-8.3699999999999992

>  <m_primary>  (72) 
energy

>  <meeko>  (72) 
{"free_energy": -6.72, "intermolecular_energy": -8.51, "internal_energy": -2.24, "cluster_size": 16, "cluster_id": 3, "rank_in_cluster": 7}

>  <energy>  (72) 
-6.72

>  <cluster_rmsd>  (72) 
0.28

>  <rmsd>  (72) 
270.55

>  <cluster>  (72) 
3

$$$$
PSCKMLPRYLACNW-GLSXUUDRNA-N
     RDKit          3D

 47 50  0  0  0  0  0  0  0  0999 V2000
  136.2270   77.1440  223.8070 H   0  0  0  0  0  0  0  0  0  0  0  0
  136.6400   76.3810  223.2240 N   0  0  0  0  0  0  0  0  0  0  0  0
  137.7690   76.5150  222.6000 C   0  0  0  0  0  0  0  0  0  0  0  0
  138.1850   77.7840  222.1220 C   0  0  0  0  0  0  0  0  0  0  0  0
  137.3610   79.0190  222.2990 C   0  0  0  0  0  0  0  0  0  0  0  0
  137.9290   80.1870  222.1690 N   0  0  0  0  0  0  0  0  0  0  0  0
  138.6580   80.9390  223.1920 C   0  0  2  0  0  0  0  0  0  0  0  0
  138.5688   82.0142  222.9774 H   0  0  0  0  0  0  0  0  0  0  0  0
  140.1140   80.5330  223.1690 C   0  0  0  0  0  0  0  0  0  0  0  0
  141.0460   81.2350  222.3790 C   0  0  0  0  0  0  0  0  0  0  0  0
  140.7173   82.0999  221.7842 H   0  0  0  0  0  0  0  0  0  0  0  0
  142.3870   80.8380  222.3470 C   0  0  0  0  0  0  0  0  0  0  0  0
  143.1108   81.3970  221.7358 H   0  0  0  0  0  0  0  0  0  0  0  0
  142.8080   79.7330  223.0900 C   0  0  0  0  0  0  0  0  0  0  0  0
  143.8633   79.4238  223.0650 H   0  0  0  0  0  0  0  0  0  0  0  0
  141.8900   79.0200  223.8650 C   0  0  0  0  0  0  0  0  0  0  0  0
  142.2229   78.1480  224.4470 H   0  0  0  0  0  0  0  0  0  0  0  0
  140.5490   79.4130  223.9020 C   0  0  0  0  0  0  0  0  0  0  0  0
  139.8291   78.8432  224.5079 H   0  0  0  0  0  0  0  0  0  0  0  0
  138.0670   80.6670  224.5800 C   0  0  0  0  0  0  0  0  0  0  0  0
  138.7787   80.9945  225.3522 H   0  0  0  0  0  0  0  0  0  0  0  0
  137.1236   81.2215  224.6919 H   0  0  0  0  0  0  0  0  0  0  0  0
  137.8746   79.5898  224.6919 H   0  0  0  0  0  0  0  0  0  0  0  0
  135.9970   78.9060  222.5940 O   0  0  0  0  0  0  0  0  0  0  0  0
  135.4690   78.0490  222.5040 H   0  0  0  0  0  0  0  0  0  0  0  0
  139.4250   77.8660  221.4580 C   0  0  0  0  0  0  0  0  0  0  0  0
  139.7744   78.8372  221.0777 H   0  0  0  0  0  0  0  0  0  0  0  0
  140.2190   76.7250  221.2760 C   0  0  0  0  0  0  0  0  0  0  0  0
  141.4620   76.7630  220.6180 C   0  0  0  0  0  0  0  0  0  0  0  0
  141.8940   77.8620  220.1690 O   0  0  0  0  0  0  0  0  0  0  0  0
  142.1990   75.6110  220.4670 N   0  0  0  0  0  0  0  0  0  0  0  0
  143.4120   75.6420  219.8280 C   0  0  0  0  0  0  0  0  0  0  0  0
  143.7932   76.5959  219.4345 H   0  0  0  0  0  0  0  0  0  0  0  0
  144.1690   74.4820  219.6700 C   0  0  0  0  0  0  0  0  0  0  0  0
  145.1409   74.5217  219.1564 H   0  0  0  0  0  0  0  0  0  0  0  0
  143.6890   73.2750  220.1650 C   0  0  0  0  0  0  0  0  0  0  0  0
  144.2822   72.3566  220.0436 H   0  0  0  0  0  0  0  0  0  0  0  0
  142.4530   73.2270  220.8170 C   0  0  0  0  0  0  0  0  0  0  0  0
  141.9340   71.9220  221.3550 C   0  0  0  0  0  0  0  0  0  0  0  0
  141.9446   71.9486  222.4546 H   0  0  0  0  0  0  0  0  0  0  0  0
  140.9044   71.7634  221.0019 H   0  0  0  0  0  0  0  0  0  0  0  0
  142.5735   71.0996  221.0019 H   0  0  0  0  0  0  0  0  0  0  0  0
  141.7130   74.4180  220.9630 C   0  0  0  0  0  0  0  0  0  0  0  0
  140.5120   74.3830  221.5980 N   0  0  0  0  0  0  0  0  0  0  0  0
  139.7590   75.4980  221.7650 C   0  0  0  0  0  0  0  0  0  0  0  0
  138.5630   75.4190  222.4080 N   0  0  0  0  0  0  0  0  0  0  0  0
  138.2500   74.4860  222.7630 H   0  0  0  0  0  0  0  0  0  0  0  0
  1  2  1  0
  2  3  2  0
  3  4  1  0
  4  5  1  0
  5  6  2  0
  6  7  1  0
  7  8  1  6
  7  9  1  0
  9 10  2  0
 10 11  1  0
 10 12  1  0
 12 13  1  0
 12 14  2  0
 14 15  1  0
 14 16  1  0
 16 17  1  0
 16 18  2  0
 18 19  1  0
  7 20  1  0
 20 21  1  0
 20 22  1  0
 20 23  1  0
  5 24  1  0
 24 25  1  0
  4 26  2  0
 26 27  1  0
 26 28  1  0
 28 29  1  0
 29 30  2  0
 29 31  1  0
 31 32  1  0
 32 33  1  0
 32 34  2  0
 34 35  1  0
 34 36  1  0
 36 37  1  0
 36 38  2  0
 38 39  1  0
 39 40  1  0
 39 41  1  0
 39 42  1  0
 38 43  1  0
 43 44  2  0
 44 45  1  0
 45 46  1  0
 46 47  1  0
 46  3  1  0
 18  9  1  0
 45 28  2  0
 43 31  1  0
M  END
>  <UniqueID>  (73) 
116

>  <SMILES>  (73) 
[H]/N=c1\[nH]c2nc3c(C)cccn3c(=O)c2cc1/C(O)=N/[C@@H](C)c1ccccc1

>  <Energy>  (73) 
64.4707771888291

>  <Genealogy>  (73) 
Cc1cccn2c(=O)c3cc(C(O)=N[C@@H](C)c4ccccc4)c(=N)[nH]c3nc12 (tautomer)
[H]/N=c1\[nH]c2nc3c(C)cccn3c(=O)c2cc1/C(O)=N/[C@@H](C)c1ccccc1 (cis-trans isomerization)
[H]/N=c1\[nH]c2nc3c(C)cccn3c(=O)c2cc1/C(O)=N/[C@@H](C)c1ccccc1 (3D coordinates assigned)
[H]/N=c1\[nH]c2nc3c(C)cccn3c(=O)c2cc1/C(O)=N/[C@@H](C)c1ccccc1 (optimized conformer: 64.4707771888291 kcal/mol)

>  <smiles>  (73) 
Cc1cccn2c(=O)c3cc(C(=O)N[C@@H](C)c4ccccc4)c(=N)[nH]c3nc12

>  <score_type>  (73) 
oracle

>  <origin>  (73) 
autodockgpu

>  <m_score__min__energy>  (73) 
-8.3699999999999992

>  <m_primary>  (73) 
energy

>  <meeko>  (73) 
{"free_energy": -6.74, "intermolecular_energy": -8.53, "internal_energy": -2.22, "cluster_size": 16, "cluster_id": 3, "rank_in_cluster": 2}

>  <energy>  (73) 
-6.72

>  <cluster_rmsd>  (73) 
0.27

>  <rmsd>  (73) 
270.52

>  <cluster>  (73) 
3

$$$$
PSCKMLPRYLACNW-GLSXUUDRNA-N
     RDKit          3D

 47 50  0  0  0  0  0  0  0  0999 V2000
  136.1930   77.2150  223.7590 H   0  0  0  0  0  0  0  0  0  0  0  0
  136.6230   76.4390  223.2070 N   0  0  0  0  0  0  0  0  0  0  0  0
  137.7560   76.5670  222.5890 C   0  0  0  0  0  0  0  0  0  0  0  0
  138.1790   77.8340  222.1120 C   0  0  0  0  0  0  0  0  0  0  0  0
  137.3580   79.0720  222.2810 C   0  0  0  0  0  0  0  0  0  0  0  0
  137.9400   80.2370  222.1970 N   0  0  0  0  0  0  0  0  0  0  0  0
  138.6650   80.9470  223.2530 C   0  0  2  0  0  0  0  0  0  0  0  0
  138.5720   82.0303  223.0865 H   0  0  0  0  0  0  0  0  0  0  0  0
  140.1230   80.5490  223.2130 C   0  0  0  0  0  0  0  0  0  0  0  0
  141.0490   81.2750  222.4380 C   0  0  0  0  0  0  0  0  0  0  0  0
  140.7143   82.1538  221.8673 H   0  0  0  0  0  0  0  0  0  0  0  0
  142.3910   80.8850  222.3900 C   0  0  0  0  0  0  0  0  0  0  0  0
  143.1093   81.4624  221.7894 H   0  0  0  0  0  0  0  0  0  0  0  0
  142.8210   79.7640  223.1030 C   0  0  0  0  0  0  0  0  0  0  0  0
  143.8777   79.4608  223.0658 H   0  0  0  0  0  0  0  0  0  0  0  0
  141.9090   79.0270  223.8640 C   0  0  0  0  0  0  0  0  0  0  0  0
  142.2486   78.1425  224.4229 H   0  0  0  0  0  0  0  0  0  0  0  0
  140.5660   79.4120  223.9160 C   0  0  0  0  0  0  0  0  0  0  0  0
  139.8511   78.8233  224.5096 H   0  0  0  0  0  0  0  0  0  0  0  0
  138.0730   80.6120  224.6260 C   0  0  0  0  0  0  0  0  0  0  0  0
  138.7401   80.9895  225.4150 H   0  0  0  0  0  0  0  0  0  0  0  0
  137.0846   81.0847  224.7244 H   0  0  0  0  0  0  0  0  0  0  0  0
  137.9693   79.5213  224.7244 H   0  0  0  0  0  0  0  0  0  0  0  0
  135.9830   78.9650  222.5200 O   0  0  0  0  0  0  0  0  0  0  0  0
  135.4630   78.1010  222.4480 H   0  0  0  0  0  0  0  0  0  0  0  0
  139.4230   77.9090  221.4540 C   0  0  0  0  0  0  0  0  0  0  0  0
  139.7783   78.8778  221.0730 H   0  0  0  0  0  0  0  0  0  0  0  0
  140.2130   76.7650  221.2790 C   0  0  0  0  0  0  0  0  0  0  0  0
  141.4610   76.7980  220.6280 C   0  0  0  0  0  0  0  0  0  0  0  0
  141.8990   77.8940  220.1790 O   0  0  0  0  0  0  0  0  0  0  0  0
  142.1940   75.6420  220.4840 N   0  0  0  0  0  0  0  0  0  0  0  0
  143.4120   75.6670  219.8520 C   0  0  0  0  0  0  0  0  0  0  0  0
  143.7998   76.6185  219.4593 H   0  0  0  0  0  0  0  0  0  0  0  0
  144.1640   74.5040  219.7010 C   0  0  0  0  0  0  0  0  0  0  0  0
  145.1390   74.5387  219.1929 H   0  0  0  0  0  0  0  0  0  0  0  0
  143.6770   73.3000  220.1950 C   0  0  0  0  0  0  0  0  0  0  0  0
  144.2671   72.3791  220.0780 H   0  0  0  0  0  0  0  0  0  0  0  0
  142.4370   73.2580  220.8410 C   0  0  0  0  0  0  0  0  0  0  0  0
  141.9110   71.9560  221.3790 C   0  0  0  0  0  0  0  0  0  0  0  0
  141.9217   71.9826  222.4786 H   0  0  0  0  0  0  0  0  0  0  0  0
  140.8805   71.8029  221.0260 H   0  0  0  0  0  0  0  0  0  0  0  0
  142.5460   71.1301  221.0260 H   0  0  0  0  0  0  0  0  0  0  0  0
  141.7010   74.4520  220.9800 C   0  0  0  0  0  0  0  0  0  0  0  0
  140.4960   74.4230  221.6080 N   0  0  0  0  0  0  0  0  0  0  0  0
  139.7470   75.5410  221.7690 C   0  0  0  0  0  0  0  0  0  0  0  0
  138.5470   75.4680  222.4040 N   0  0  0  0  0  0  0  0  0  0  0  0
  138.2270   74.5370  222.7590 H   0  0  0  0  0  0  0  0  0  0  0  0
  1  2  1  0
  2  3  2  0
  3  4  1  0
  4  5  1  0
  5  6  2  0
  6  7  1  0
  7  8  1  6
  7  9  1  0
  9 10  2  0
 10 11  1  0
 10 12  1  0
 12 13  1  0
 12 14  2  0
 14 15  1  0
 14 16  1  0
 16 17  1  0
 16 18  2  0
 18 19  1  0
  7 20  1  0
 20 21  1  0
 20 22  1  0
 20 23  1  0
  5 24  1  0
 24 25  1  0
  4 26  2  0
 26 27  1  0
 26 28  1  0
 28 29  1  0
 29 30  2  0
 29 31  1  0
 31 32  1  0
 32 33  1  0
 32 34  2  0
 34 35  1  0
 34 36  1  0
 36 37  1  0
 36 38  2  0
 38 39  1  0
 39 40  1  0
 39 41  1  0
 39 42  1  0
 38 43  1  0
 43 44  2  0
 44 45  1  0
 45 46  1  0
 46 47  1  0
 46  3  1  0
 18  9  1  0
 45 28  2  0
 43 31  1  0
M  END
>  <UniqueID>  (74) 
116

>  <SMILES>  (74) 
[H]/N=c1\[nH]c2nc3c(C)cccn3c(=O)c2cc1/C(O)=N/[C@@H](C)c1ccccc1

>  <Energy>  (74) 
64.4707771888291

>  <Genealogy>  (74) 
Cc1cccn2c(=O)c3cc(C(O)=N[C@@H](C)c4ccccc4)c(=N)[nH]c3nc12 (tautomer)
[H]/N=c1\[nH]c2nc3c(C)cccn3c(=O)c2cc1/C(O)=N/[C@@H](C)c1ccccc1 (cis-trans isomerization)
[H]/N=c1\[nH]c2nc3c(C)cccn3c(=O)c2cc1/C(O)=N/[C@@H](C)c1ccccc1 (3D coordinates assigned)
[H]/N=c1\[nH]c2nc3c(C)cccn3c(=O)c2cc1/C(O)=N/[C@@H](C)c1ccccc1 (optimized conformer: 64.4707771888291 kcal/mol)

>  <smiles>  (74) 
Cc1cccn2c(=O)c3cc(C(=O)N[C@@H](C)c4ccccc4)c(=N)[nH]c3nc12

>  <score_type>  (74) 
oracle

>  <origin>  (74) 
autodockgpu

>  <m_score__min__energy>  (74) 
-8.3699999999999992

>  <m_primary>  (74) 
energy

>  <meeko>  (74) 
{"free_energy": -6.73, "intermolecular_energy": -8.52, "internal_energy": -2.23, "cluster_size": 16, "cluster_id": 3, "rank_in_cluster": 3}

>  <energy>  (74) 
-6.72

>  <cluster_rmsd>  (74) 
0.28

>  <rmsd>  (74) 
270.53

>  <cluster>  (74) 
3

$$$$
PSCKMLPRYLACNW-GLSXUUDRNA-N
     RDKit          3D

 47 50  0  0  0  0  0  0  0  0999 V2000
  136.1860   77.2140  223.7290 H   0  0  0  0  0  0  0  0  0  0  0  0
  136.6250   76.4290  223.1960 N   0  0  0  0  0  0  0  0  0  0  0  0
  137.7560   76.5560  222.5740 C   0  0  0  0  0  0  0  0  0  0  0  0
  138.1720   77.8200  222.0830 C   0  0  0  0  0  0  0  0  0  0  0  0
  137.3470   79.0560  222.2420 C   0  0  0  0  0  0  0  0  0  0  0  0
  137.9270   80.2230  222.1610 N   0  0  0  0  0  0  0  0  0  0  0  0
  138.6530   80.9300  223.2180 C   0  0  2  0  0  0  0  0  0  0  0  0
  138.5601   82.0137  223.0541 H   0  0  0  0  0  0  0  0  0  0  0  0
  140.1100   80.5320  223.1760 C   0  0  0  0  0  0  0  0  0  0  0  0
  141.0330   81.2510  222.3920 C   0  0  0  0  0  0  0  0  0  0  0  0
  140.6961   82.1250  221.8153 H   0  0  0  0  0  0  0  0  0  0  0  0
  142.3750   80.8610  222.3420 C   0  0  0  0  0  0  0  0  0  0  0  0
  143.0908   81.4330  221.7333 H   0  0  0  0  0  0  0  0  0  0  0  0
  142.8080   79.7460  223.0640 C   0  0  0  0  0  0  0  0  0  0  0  0
  143.8647   79.4428  223.0262 H   0  0  0  0  0  0  0  0  0  0  0  0
  141.8990   79.0160  223.8340 C   0  0  0  0  0  0  0  0  0  0  0  0
  142.2404   78.1360  224.3988 H   0  0  0  0  0  0  0  0  0  0  0  0
  140.5560   79.4020  223.8880 C   0  0  0  0  0  0  0  0  0  0  0  0
  139.8436   78.8193  224.4904 H   0  0  0  0  0  0  0  0  0  0  0  0
  138.0620   80.5920  224.5910 C   0  0  0  0  0  0  0  0  0  0  0  0
  138.7271   80.9724  225.3802 H   0  0  0  0  0  0  0  0  0  0  0  0
  137.0714   81.0601  224.6891 H   0  0  0  0  0  0  0  0  0  0  0  0
  137.9632   79.5009  224.6891 H   0  0  0  0  0  0  0  0  0  0  0  0
  135.9700   78.9470  222.4680 O   0  0  0  0  0  0  0  0  0  0  0  0
  135.4590   78.0760  222.4250 H   0  0  0  0  0  0  0  0  0  0  0  0
  139.4150   77.8940  221.4220 C   0  0  0  0  0  0  0  0  0  0  0  0
  139.7654   78.8608  221.0314 H   0  0  0  0  0  0  0  0  0  0  0  0
  140.2100   76.7520  221.2560 C   0  0  0  0  0  0  0  0  0  0  0  0
  141.4550   76.7830  220.6010 C   0  0  0  0  0  0  0  0  0  0  0  0
  141.8880   77.8770  220.1410 O   0  0  0  0  0  0  0  0  0  0  0  0
  142.1930   75.6290  220.4670 N   0  0  0  0  0  0  0  0  0  0  0  0
  143.4090   75.6530  219.8320 C   0  0  0  0  0  0  0  0  0  0  0  0
  143.7919   76.6023  219.4293 H   0  0  0  0  0  0  0  0  0  0  0  0
  144.1660   74.4910  219.6900 C   0  0  0  0  0  0  0  0  0  0  0  0
  145.1392   74.5242  219.1783 H   0  0  0  0  0  0  0  0  0  0  0  0
  143.6850   73.2910  220.1980 C   0  0  0  0  0  0  0  0  0  0  0  0
  144.2789   72.3715  220.0896 H   0  0  0  0  0  0  0  0  0  0  0  0
  142.4470   73.2500  220.8470 C   0  0  0  0  0  0  0  0  0  0  0  0
  141.9280   71.9510  221.3990 C   0  0  0  0  0  0  0  0  0  0  0  0
  141.9427   71.9878  222.4983 H   0  0  0  0  0  0  0  0  0  0  0  0
  140.8968   71.7908  221.0512 H   0  0  0  0  0  0  0  0  0  0  0  0
  142.5649   71.1243  221.0512 H   0  0  0  0  0  0  0  0  0  0  0  0
  141.7060   74.4420  220.9760 C   0  0  0  0  0  0  0  0  0  0  0  0
  140.5030   74.4140  221.6070 N   0  0  0  0  0  0  0  0  0  0  0  0
  139.7500   75.5300  221.7590 C   0  0  0  0  0  0  0  0  0  0  0  0
  138.5510   75.4590  222.3980 N   0  0  0  0  0  0  0  0  0  0  0  0
  138.2370   74.5300  222.7630 H   0  0  0  0  0  0  0  0  0  0  0  0
  1  2  1  0
  2  3  2  0
  3  4  1  0
  4  5  1  0
  5  6  2  0
  6  7  1  0
  7  8  1  6
  7  9  1  0
  9 10  2  0
 10 11  1  0
 10 12  1  0
 12 13  1  0
 12 14  2  0
 14 15  1  0
 14 16  1  0
 16 17  1  0
 16 18  2  0
 18 19  1  0
  7 20  1  0
 20 21  1  0
 20 22  1  0
 20 23  1  0
  5 24  1  0
 24 25  1  0
  4 26  2  0
 26 27  1  0
 26 28  1  0
 28 29  1  0
 29 30  2  0
 29 31  1  0
 31 32  1  0
 32 33  1  0
 32 34  2  0
 34 35  1  0
 34 36  1  0
 36 37  1  0
 36 38  2  0
 38 39  1  0
 39 40  1  0
 39 41  1  0
 39 42  1  0
 38 43  1  0
 43 44  2  0
 44 45  1  0
 45 46  1  0
 46 47  1  0
 46  3  1  0
 18  9  1  0
 45 28  2  0
 43 31  1  0
M  END
>  <UniqueID>  (75) 
116

>  <SMILES>  (75) 
[H]/N=c1\[nH]c2nc3c(C)cccn3c(=O)c2cc1/C(O)=N/[C@@H](C)c1ccccc1

>  <Energy>  (75) 
64.4707771888291

>  <Genealogy>  (75) 
Cc1cccn2c(=O)c3cc(C(O)=N[C@@H](C)c4ccccc4)c(=N)[nH]c3nc12 (tautomer)
[H]/N=c1\[nH]c2nc3c(C)cccn3c(=O)c2cc1/C(O)=N/[C@@H](C)c1ccccc1 (cis-trans isomerization)
[H]/N=c1\[nH]c2nc3c(C)cccn3c(=O)c2cc1/C(O)=N/[C@@H](C)c1ccccc1 (3D coordinates assigned)
[H]/N=c1\[nH]c2nc3c(C)cccn3c(=O)c2cc1/C(O)=N/[C@@H](C)c1ccccc1 (optimized conformer: 64.4707771888291 kcal/mol)

>  <smiles>  (75) 
Cc1cccn2c(=O)c3cc(C(=O)N[C@@H](C)c4ccccc4)c(=N)[nH]c3nc12

>  <score_type>  (75) 
oracle

>  <origin>  (75) 
autodockgpu

>  <m_score__min__energy>  (75) 
-8.3699999999999992

>  <m_primary>  (75) 
energy

>  <meeko>  (75) 
{"free_energy": -6.72, "intermolecular_energy": -8.51, "internal_energy": -2.24, "cluster_size": 16, "cluster_id": 3, "rank_in_cluster": 10}

>  <energy>  (75) 
-6.72

>  <cluster_rmsd>  (75) 
0.28

>  <rmsd>  (75) 
270.53

>  <cluster>  (75) 
3

$$$$
PSCKMLPRYLACNW-GLSXUUDRNA-N
     RDKit          3D

 47 50  0  0  0  0  0  0  0  0999 V2000
  138.7850   72.6390  223.1130 H   0  0  0  0  0  0  0  0  0  0  0  0
  139.0550   68.7150  224.5350 N   0  0  0  0  0  0  0  0  0  0  0  0
  137.3200   71.3850  223.8290 C   0  0  0  0  0  0  0  0  0  0  0  0
  137.0630   70.0460  224.2180 C   0  0  0  0  0  0  0  0  0  0  0  0
  137.9650   68.9130  223.8460 C   0  0  0  0  0  0  0  0  0  0  0  0
  138.3710   71.6800  223.1290 N   0  0  0  0  0  0  0  0  0  0  0  0
  139.1800   68.6220  225.9910 C   0  0  2  0  0  0  0  0  0  0  0  0
  138.1765   68.5314  226.4323 H   0  0  0  0  0  0  0  0  0  0  0  0
  139.8570   69.8680  226.5150 C   0  0  0  0  0  0  0  0  0  0  0  0
  139.7710   70.2170  227.8780 C   0  0  0  0  0  0  0  0  0  0  0  0
  139.2212   69.5679  228.5754 H   0  0  0  0  0  0  0  0  0  0  0  0
  140.3810   71.3840  228.3480 C   0  0  0  0  0  0  0  0  0  0  0  0
  140.3155   71.6463  229.4143 H   0  0  0  0  0  0  0  0  0  0  0  0
  141.0730   72.2170  227.4670 C   0  0  0  0  0  0  0  0  0  0  0  0
  141.5550   73.1325  227.8406 H   0  0  0  0  0  0  0  0  0  0  0  0
  141.1540   71.8890  226.1110 C   0  0  0  0  0  0  0  0  0  0  0  0
  141.6964   72.5484  225.4175 H   0  0  0  0  0  0  0  0  0  0  0  0
  140.5460   70.7230  225.6350 C   0  0  0  0  0  0  0  0  0  0  0  0
  140.6068   70.4726  224.5656 H   0  0  0  0  0  0  0  0  0  0  0  0
  139.9980   67.3850  226.3800 C   0  0  0  0  0  0  0  0  0  0  0  0
  140.0485   67.3087  227.4762 H   0  0  0  0  0  0  0  0  0  0  0  0
  139.5170   66.4840  225.9715 H   0  0  0  0  0  0  0  0  0  0  0  0
  141.0154   67.4748  225.9715 H   0  0  0  0  0  0  0  0  0  0  0  0
  137.6260   68.0800  222.7730 O   0  0  0  0  0  0  0  0  0  0  0  0
  137.1710   68.4040  221.9290 H   0  0  0  0  0  0  0  0  0  0  0  0
  135.9080   69.7910  224.9840 C   0  0  0  0  0  0  0  0  0  0  0  0
  135.6832   68.7622  225.3018 H   0  0  0  0  0  0  0  0  0  0  0  0
  135.0420   70.8320  225.3460 C   0  0  0  0  0  0  0  0  0  0  0  0
  133.8790   70.6210  226.1090 C   0  0  0  0  0  0  0  0  0  0  0  0
  133.5900   69.4520  226.4910 O   0  0  0  0  0  0  0  0  0  0  0  0
  133.0660   71.6820  226.4360 N   0  0  0  0  0  0  0  0  0  0  0  0
  131.9310   71.4820  227.1810 C   0  0  0  0  0  0  0  0  0  0  0  0
  131.6740   70.4663  227.5161 H   0  0  0  0  0  0  0  0  0  0  0  0
  131.0990   72.5490  227.5190 C   0  0  0  0  0  0  0  0  0  0  0  0
  130.1925   72.3752  228.1174 H   0  0  0  0  0  0  0  0  0  0  0  0
  131.4210   73.8330  227.0960 C   0  0  0  0  0  0  0  0  0  0  0  0
  130.7685   74.6782  227.3604 H   0  0  0  0  0  0  0  0  0  0  0  0
  132.5730   74.0520  226.3350 C   0  0  0  0  0  0  0  0  0  0  0  0
  132.9230   75.4420  225.8790 C   0  0  0  0  0  0  0  0  0  0  0  0
  133.0851   76.0857  226.7561 H   0  0  0  0  0  0  0  0  0  0  0  0
  133.8409   75.4091  225.2737 H   0  0  0  0  0  0  0  0  0  0  0  0
  132.0990   75.8477  225.2737 H   0  0  0  0  0  0  0  0  0  0  0  0
  133.3950   72.9530  226.0110 C   0  0  0  0  0  0  0  0  0  0  0  0
  134.5190   73.1550  225.2740 N   0  0  0  0  0  0  0  0  0  0  0  0
  135.3440   72.1350  224.9350 C   0  0  0  0  0  0  0  0  0  0  0  0
  136.4590   72.3810  224.1960 N   0  0  0  0  0  0  0  0  0  0  0  0
  136.6560   73.3670  223.9060 H   0  0  0  0  0  0  0  0  0  0  0  0
  1  2  1  0
  2  3  2  0
  3  4  1  0
  4  5  1  0
  5  6  2  0
  6  7  1  0
  7  8  1  1
  7  9  1  0
  9 10  2  0
 10 11  1  0
 10 12  1  0
 12 13  1  0
 12 14  2  0
 14 15  1  0
 14 16  1  0
 16 17  1  0
 16 18  2  0
 18 19  1  0
  7 20  1  0
 20 21  1  0
 20 22  1  0
 20 23  1  0
  5 24  1  0
 24 25  1  0
  4 26  2  0
 26 27  1  0
 26 28  1  0
 28 29  1  0
 29 30  2  0
 29 31  1  0
 31 32  1  0
 32 33  1  0
 32 34  2  0
 34 35  1  0
 34 36  1  0
 36 37  1  0
 36 38  2  0
 38 39  1  0
 39 40  1  0
 39 41  1  0
 39 42  1  0
 38 43  1  0
 43 44  2  0
 44 45  1  0
 45 46  1  0
 46 47  1  0
 46  3  1  0
 18  9  1  0
 45 28  2  0
 43 31  1  0
M  END
>  <UniqueID>  (76) 
116

>  <SMILES>  (76) 
[H]/N=c1\[nH]c2nc3c(C)cccn3c(=O)c2cc1/C(O)=N/[C@@H](C)c1ccccc1

>  <Energy>  (76) 
64.4707771888291

>  <Genealogy>  (76) 
Cc1cccn2c(=O)c3cc(C(O)=N[C@@H](C)c4ccccc4)c(=N)[nH]c3nc12 (tautomer)
[H]/N=c1\[nH]c2nc3c(C)cccn3c(=O)c2cc1/C(O)=N/[C@@H](C)c1ccccc1 (cis-trans isomerization)
[H]/N=c1\[nH]c2nc3c(C)cccn3c(=O)c2cc1/C(O)=N/[C@@H](C)c1ccccc1 (3D coordinates assigned)
[H]/N=c1\[nH]c2nc3c(C)cccn3c(=O)c2cc1/C(O)=N/[C@@H](C)c1ccccc1 (optimized conformer: 64.4707771888291 kcal/mol)

>  <smiles>  (76) 
Cc1cccn2c(=O)c3cc(C(=O)N[C@@H](C)c4ccccc4)c(=N)[nH]c3nc12

>  <score_type>  (76) 
oracle

>  <origin>  (76) 
autodockgpu

>  <m_score__min__energy>  (76) 
-8.3699999999999992

>  <m_primary>  (76) 
energy

>  <meeko>  (76) 
{"free_energy": -8.37, "intermolecular_energy": -10.16, "internal_energy": -0.64, "cluster_size": 3, "cluster_id": 1, "rank_in_cluster": 2}

>  <energy>  (76) 
-6.72

>  <cluster_rmsd>  (76) 
0.28

>  <rmsd>  (76) 
270.54

>  <cluster>  (76) 
3

$$$$
PSCKMLPRYLACNW-GLSXUUDRNA-N
     RDKit          3D

 47 50  0  0  0  0  0  0  0  0999 V2000
  136.1750   77.2300  223.7270 H   0  0  0  0  0  0  0  0  0  0  0  0
  136.6150   76.4440  223.1960 N   0  0  0  0  0  0  0  0  0  0  0  0
  137.7490   76.5670  222.5800 C   0  0  0  0  0  0  0  0  0  0  0  0
  138.1740   77.8310  222.0960 C   0  0  0  0  0  0  0  0  0  0  0  0
  137.3550   79.0710  222.2570 C   0  0  0  0  0  0  0  0  0  0  0  0
  137.9420   80.2340  222.1910 N   0  0  0  0  0  0  0  0  0  0  0  0
  138.6880   80.9150  223.2520 C   0  0  2  0  0  0  0  0  0  0  0  0
  138.6140   82.0021  223.1013 H   0  0  0  0  0  0  0  0  0  0  0  0
  140.1380   80.4900  223.1960 C   0  0  0  0  0  0  0  0  0  0  0  0
  140.5900   79.3690  223.9200 C   0  0  0  0  0  0  0  0  0  0  0  0
  139.8789   78.7831  224.5210 H   0  0  0  0  0  0  0  0  0  0  0  0
  141.9370   78.9970  223.8790 C   0  0  0  0  0  0  0  0  0  0  0  0
  142.2803   78.1150  224.4395 H   0  0  0  0  0  0  0  0  0  0  0  0
  142.8470   79.7430  223.1280 C   0  0  0  0  0  0  0  0  0  0  0  0
  143.9061   79.4474  223.0966 H   0  0  0  0  0  0  0  0  0  0  0  0
  142.4140   80.8650  222.4160 C   0  0  0  0  0  0  0  0  0  0  0  0
  143.1331   81.4529  221.8266 H   0  0  0  0  0  0  0  0  0  0  0  0
  141.0680   81.2410  222.4520 C   0  0  0  0  0  0  0  0  0  0  0  0
  140.7334   82.1290  221.8957 H   0  0  0  0  0  0  0  0  0  0  0  0
  138.1000   80.5710  224.6250 C   0  0  0  0  0  0  0  0  0  0  0  0
  138.7612   80.9578  225.4144 H   0  0  0  0  0  0  0  0  0  0  0  0
  137.1049   81.0294  224.7230 H   0  0  0  0  0  0  0  0  0  0  0  0
  138.0119   79.4789  224.7230 H   0  0  0  0  0  0  0  0  0  0  0  0
  135.9750   78.9680  222.4700 O   0  0  0  0  0  0  0  0  0  0  0  0
  135.4600   78.0990  222.4220 H   0  0  0  0  0  0  0  0  0  0  0  0
  139.4190   77.9010  221.4400 C   0  0  0  0  0  0  0  0  0  0  0  0
  139.7756   78.8676  221.0546 H   0  0  0  0  0  0  0  0  0  0  0  0
  140.2090   76.7560  221.2720 C   0  0  0  0  0  0  0  0  0  0  0  0
  141.4570   76.7830  220.6230 C   0  0  0  0  0  0  0  0  0  0  0  0
  141.8980   77.8760  220.1690 O   0  0  0  0  0  0  0  0  0  0  0  0
  142.1890   75.6260  220.4860 N   0  0  0  0  0  0  0  0  0  0  0  0
  143.4080   75.6460  219.8560 C   0  0  0  0  0  0  0  0  0  0  0  0
  143.7978   76.5950  219.4591 H   0  0  0  0  0  0  0  0  0  0  0  0
  144.1590   74.4810  219.7120 C   0  0  0  0  0  0  0  0  0  0  0  0
  145.1346   74.5116  219.2047 H   0  0  0  0  0  0  0  0  0  0  0  0
  143.6700   73.2810  220.2120 C   0  0  0  0  0  0  0  0  0  0  0  0
  144.2593   72.3588  220.1014 H   0  0  0  0  0  0  0  0  0  0  0  0
  142.4290   73.2440  220.8560 C   0  0  0  0  0  0  0  0  0  0  0  0
  141.9000   71.9450  221.4000 C   0  0  0  0  0  0  0  0  0  0  0  0
  141.9125   71.9757  222.4995 H   0  0  0  0  0  0  0  0  0  0  0  0
  140.8685   71.7935  221.0491 H   0  0  0  0  0  0  0  0  0  0  0  0
  142.5322   71.1160  221.0491 H   0  0  0  0  0  0  0  0  0  0  0  0
  141.6940   74.4390  220.9870 C   0  0  0  0  0  0  0  0  0  0  0  0
  140.4880   74.4150  221.6140 N   0  0  0  0  0  0  0  0  0  0  0  0
  139.7400   75.5340  221.7670 C   0  0  0  0  0  0  0  0  0  0  0  0
  138.5390   75.4660  222.4010 N   0  0  0  0  0  0  0  0  0  0  0  0
  138.2180   74.5370  222.7610 H   0  0  0  0  0  0  0  0  0  0  0  0
  1  2  1  0
  2  3  2  0
  3  4  1  0
  4  5  1  0
  5  6  2  0
  6  7  1  0
  7  8  1  6
  7  9  1  0
  9 10  2  0
 10 11  1  0
 10 12  1  0
 12 13  1  0
 12 14  2  0
 14 15  1  0
 14 16  1  0
 16 17  1  0
 16 18  2  0
 18 19  1  0
  7 20  1  0
 20 21  1  0
 20 22  1  0
 20 23  1  0
  5 24  1  0
 24 25  1  0
  4 26  2  0
 26 27  1  0
 26 28  1  0
 28 29  1  0
 29 30  2  0
 29 31  1  0
 31 32  1  0
 32 33  1  0
 32 34  2  0
 34 35  1  0
 34 36  1  0
 36 37  1  0
 36 38  2  0
 38 39  1  0
 39 40  1  0
 39 41  1  0
 39 42  1  0
 38 43  1  0
 43 44  2  0
 44 45  1  0
 45 46  1  0
 46 47  1  0
 46  3  1  0
 18  9  1  0
 45 28  2  0
 43 31  1  0
M  END
>  <UniqueID>  (77) 
116

>  <SMILES>  (77) 
[H]/N=c1\[nH]c2nc3c(C)cccn3c(=O)c2cc1/C(O)=N/[C@@H](C)c1ccccc1

>  <Energy>  (77) 
64.4707771888291

>  <Genealogy>  (77) 
Cc1cccn2c(=O)c3cc(C(O)=N[C@@H](C)c4ccccc4)c(=N)[nH]c3nc12 (tautomer)
[H]/N=c1\[nH]c2nc3c(C)cccn3c(=O)c2cc1/C(O)=N/[C@@H](C)c1ccccc1 (cis-trans isomerization)
[H]/N=c1\[nH]c2nc3c(C)cccn3c(=O)c2cc1/C(O)=N/[C@@H](C)c1ccccc1 (3D coordinates assigned)
[H]/N=c1\[nH]c2nc3c(C)cccn3c(=O)c2cc1/C(O)=N/[C@@H](C)c1ccccc1 (optimized conformer: 64.4707771888291 kcal/mol)

>  <smiles>  (77) 
Cc1cccn2c(=O)c3cc(C(=O)N[C@@H](C)c4ccccc4)c(=N)[nH]c3nc12

>  <score_type>  (77) 
oracle

>  <origin>  (77) 
autodockgpu

>  <m_score__min__energy>  (77) 
-8.3699999999999992

>  <m_primary>  (77) 
energy

>  <meeko>  (77) 
{"free_energy": -6.7, "intermolecular_energy": -8.49, "internal_energy": -2.23, "cluster_size": 16, "cluster_id": 3, "rank_in_cluster": 15}

>  <energy>  (77) 
-6.71

>  <cluster_rmsd>  (77) 
0.27

>  <rmsd>  (77) 
270.56

>  <cluster>  (77) 
3

$$$$
PSCKMLPRYLACNW-GLSXUUDRNA-N
     RDKit          3D

 47 50  0  0  0  0  0  0  0  0999 V2000
  136.2150   77.1510  223.7740 H   0  0  0  0  0  0  0  0  0  0  0  0
  136.6380   76.3850  223.2020 N   0  0  0  0  0  0  0  0  0  0  0  0
  137.7730   76.5190  222.5890 C   0  0  0  0  0  0  0  0  0  0  0  0
  138.1940   77.7890  222.1180 C   0  0  0  0  0  0  0  0  0  0  0  0
  137.3700   79.0240  222.2900 C   0  0  0  0  0  0  0  0  0  0  0  0
  137.9430   80.1910  222.1770 N   0  0  0  0  0  0  0  0  0  0  0  0
  138.6750   80.9250  223.2110 C   0  0  2  0  0  0  0  0  0  0  0  0
  138.5869   82.0039  223.0158 H   0  0  0  0  0  0  0  0  0  0  0  0
  140.1310   80.5180  223.1770 C   0  0  0  0  0  0  0  0  0  0  0  0
  141.0510   81.1960  222.3530 C   0  0  0  0  0  0  0  0  0  0  0  0
  140.7136   82.0437  221.7386 H   0  0  0  0  0  0  0  0  0  0  0  0
  142.3910   80.7970  222.3120 C   0  0  0  0  0  0  0  0  0  0  0  0
  143.1056   81.3369  221.6733 H   0  0  0  0  0  0  0  0  0  0  0  0
  142.8230   79.7140  223.0810 C   0  0  0  0  0  0  0  0  0  0  0  0
  143.8775   79.4025  223.0480 H   0  0  0  0  0  0  0  0  0  0  0  0
  141.9170   79.0260  223.8920 C   0  0  0  0  0  0  0  0  0  0  0  0
  142.2593   78.1725  224.4957 H   0  0  0  0  0  0  0  0  0  0  0  0
  140.5760   79.4200  223.9380 C   0  0  0  0  0  0  0  0  0  0  0  0
  139.8653   78.8694  224.5718 H   0  0  0  0  0  0  0  0  0  0  0  0
  138.0860   80.6300  224.5950 C   0  0  0  0  0  0  0  0  0  0  0  0
  138.7824   80.9788  225.3718 H   0  0  0  0  0  0  0  0  0  0  0  0
  137.1242   81.1528  224.7032 H   0  0  0  0  0  0  0  0  0  0  0  0
  137.9287   79.5467  224.7032 H   0  0  0  0  0  0  0  0  0  0  0  0
  136.0010   78.9130  222.5610 O   0  0  0  0  0  0  0  0  0  0  0  0
  135.4760   78.0540  222.4690 H   0  0  0  0  0  0  0  0  0  0  0  0
  139.4410   77.8700  221.4660 C   0  0  0  0  0  0  0  0  0  0  0  0
  139.7957   78.8417  221.0919 H   0  0  0  0  0  0  0  0  0  0  0  0
  140.2350   76.7290  221.2880 C   0  0  0  0  0  0  0  0  0  0  0  0
  141.4840   76.7670  220.6420 C   0  0  0  0  0  0  0  0  0  0  0  0
  141.9220   77.8660  220.2000 O   0  0  0  0  0  0  0  0  0  0  0  0
  142.2210   75.6140  220.4970 N   0  0  0  0  0  0  0  0  0  0  0  0
  143.4410   75.6450  219.8690 C   0  0  0  0  0  0  0  0  0  0  0  0
  143.8274   76.5991  219.4812 H   0  0  0  0  0  0  0  0  0  0  0  0
  144.1970   74.4840  219.7160 C   0  0  0  0  0  0  0  0  0  0  0  0
  145.1737   74.5230  219.2114 H   0  0  0  0  0  0  0  0  0  0  0  0
  143.7110   73.2770  220.2040 C   0  0  0  0  0  0  0  0  0  0  0  0
  144.3043   72.3582  220.0865 H   0  0  0  0  0  0  0  0  0  0  0  0
  142.4690   73.2290  220.8440 C   0  0  0  0  0  0  0  0  0  0  0  0
  141.9440   71.9230  221.3750 C   0  0  0  0  0  0  0  0  0  0  0  0
  141.9526   71.9443  222.4748 H   0  0  0  0  0  0  0  0  0  0  0  0
  140.9144   71.7699  221.0193 H   0  0  0  0  0  0  0  0  0  0  0  0
  142.5811   71.0999  221.0193 H   0  0  0  0  0  0  0  0  0  0  0  0
  141.7290   74.4200  220.9850 C   0  0  0  0  0  0  0  0  0  0  0  0
  140.5220   74.3860  221.6090 N   0  0  0  0  0  0  0  0  0  0  0  0
  139.7690   75.5010  221.7710 C   0  0  0  0  0  0  0  0  0  0  0  0
  138.5670   75.4230  222.4020 N   0  0  0  0  0  0  0  0  0  0  0  0
  138.2490   74.4890  222.7520 H   0  0  0  0  0  0  0  0  0  0  0  0
  1  2  1  0
  2  3  2  0
  3  4  1  0
  4  5  1  0
  5  6  2  0
  6  7  1  0
  7  8  1  6
  7  9  1  0
  9 10  2  0
 10 11  1  0
 10 12  1  0
 12 13  1  0
 12 14  2  0
 14 15  1  0
 14 16  1  0
 16 17  1  0
 16 18  2  0
 18 19  1  0
  7 20  1  0
 20 21  1  0
 20 22  1  0
 20 23  1  0
  5 24  1  0
 24 25  1  0
  4 26  2  0
 26 27  1  0
 26 28  1  0
 28 29  1  0
 29 30  2  0
 29 31  1  0
 31 32  1  0
 32 33  1  0
 32 34  2  0
 34 35  1  0
 34 36  1  0
 36 37  1  0
 36 38  2  0
 38 39  1  0
 39 40  1  0
 39 41  1  0
 39 42  1  0
 38 43  1  0
 43 44  2  0
 44 45  1  0
 45 46  1  0
 46 47  1  0
 46  3  1  0
 18  9  1  0
 45 28  2  0
 43 31  1  0
M  END
>  <UniqueID>  (78) 
116

>  <SMILES>  (78) 
[H]/N=c1\[nH]c2nc3c(C)cccn3c(=O)c2cc1/C(O)=N/[C@@H](C)c1ccccc1

>  <Energy>  (78) 
64.4707771888291

>  <Genealogy>  (78) 
Cc1cccn2c(=O)c3cc(C(O)=N[C@@H](C)c4ccccc4)c(=N)[nH]c3nc12 (tautomer)
[H]/N=c1\[nH]c2nc3c(C)cccn3c(=O)c2cc1/C(O)=N/[C@@H](C)c1ccccc1 (cis-trans isomerization)
[H]/N=c1\[nH]c2nc3c(C)cccn3c(=O)c2cc1/C(O)=N/[C@@H](C)c1ccccc1 (3D coordinates assigned)
[H]/N=c1\[nH]c2nc3c(C)cccn3c(=O)c2cc1/C(O)=N/[C@@H](C)c1ccccc1 (optimized conformer: 64.4707771888291 kcal/mol)

>  <smiles>  (78) 
Cc1cccn2c(=O)c3cc(C(=O)N[C@@H](C)c4ccccc4)c(=N)[nH]c3nc12

>  <score_type>  (78) 
oracle

>  <origin>  (78) 
autodockgpu

>  <m_score__min__energy>  (78) 
-8.3699999999999992

>  <m_primary>  (78) 
energy

>  <meeko>  (78) 
{"free_energy": -6.71, "intermolecular_energy": -8.5, "internal_energy": -2.24, "cluster_size": 16, "cluster_id": 3, "rank_in_cluster": 13}

>  <energy>  (78) 
-6.7

>  <cluster_rmsd>  (78) 
0.3

>  <rmsd>  (78) 
270.54

>  <cluster>  (78) 
3

$$$$
PSCKMLPRYLACNW-GLSXUUDRNA-N
     RDKit          3D

 47 50  0  0  0  0  0  0  0  0999 V2000
  136.1840   77.2370  223.6830 H   0  0  0  0  0  0  0  0  0  0  0  0
  136.6350   76.4430  223.1750 N   0  0  0  0  0  0  0  0  0  0  0  0
  137.7660   76.5680  222.5510 C   0  0  0  0  0  0  0  0  0  0  0  0
  138.1810   77.8300  222.0540 C   0  0  0  0  0  0  0  0  0  0  0  0
  137.3550   79.0670  222.2090 C   0  0  0  0  0  0  0  0  0  0  0  0
  137.9390   80.2320  222.1520 N   0  0  0  0  0  0  0  0  0  0  0  0
  138.6630   80.9170  223.2250 C   0  0  2  0  0  0  0  0  0  0  0  0
  138.5658   82.0039  223.0868 H   0  0  0  0  0  0  0  0  0  0  0  0
  140.1220   80.5250  223.1730 C   0  0  0  0  0  0  0  0  0  0  0  0
  141.0360   81.2510  222.3840 C   0  0  0  0  0  0  0  0  0  0  0  0
  140.6906   82.1242  221.8110 H   0  0  0  0  0  0  0  0  0  0  0  0
  142.3800   80.8680  222.3250 C   0  0  0  0  0  0  0  0  0  0  0  0
  143.0896   81.4454  221.7142 H   0  0  0  0  0  0  0  0  0  0  0  0
  142.8220   79.7530  223.0410 C   0  0  0  0  0  0  0  0  0  0  0  0
  143.8797   79.4544  222.9952 H   0  0  0  0  0  0  0  0  0  0  0  0
  141.9220   79.0170  223.8150 C   0  0  0  0  0  0  0  0  0  0  0  0
  142.2715   78.1373  224.3754 H   0  0  0  0  0  0  0  0  0  0  0  0
  140.5780   79.3960  223.8790 C   0  0  0  0  0  0  0  0  0  0  0  0
  139.8725   78.8083  224.4848 H   0  0  0  0  0  0  0  0  0  0  0  0
  138.0740   80.5430  224.5910 C   0  0  0  0  0  0  0  0  0  0  0  0
  138.7129   80.9487  225.3893 H   0  0  0  0  0  0  0  0  0  0  0  0
  137.0619   80.9643  224.6817 H   0  0  0  0  0  0  0  0  0  0  0  0
  138.0248   79.4478  224.6817 H   0  0  0  0  0  0  0  0  0  0  0  0
  135.9740   78.9580  222.4050 O   0  0  0  0  0  0  0  0  0  0  0  0
  135.4680   78.0830  222.3830 H   0  0  0  0  0  0  0  0  0  0  0  0
  139.4230   77.9020  221.3920 C   0  0  0  0  0  0  0  0  0  0  0  0
  139.7730   78.8673  220.9974 H   0  0  0  0  0  0  0  0  0  0  0  0
  140.2180   76.7590  221.2300 C   0  0  0  0  0  0  0  0  0  0  0  0
  141.4630   76.7880  220.5750 C   0  0  0  0  0  0  0  0  0  0  0  0
  141.8950   77.8800  220.1090 O   0  0  0  0  0  0  0  0  0  0  0  0
  142.2020   75.6350  220.4450 N   0  0  0  0  0  0  0  0  0  0  0  0
  143.4170   75.6570  219.8080 C   0  0  0  0  0  0  0  0  0  0  0  0
  143.7983   76.6046  219.3997 H   0  0  0  0  0  0  0  0  0  0  0  0
  144.1750   74.4950  219.6710 C   0  0  0  0  0  0  0  0  0  0  0  0
  145.1482   74.5271  219.1594 H   0  0  0  0  0  0  0  0  0  0  0  0
  143.6950   73.2960  220.1840 C   0  0  0  0  0  0  0  0  0  0  0  0
  144.2892   72.3764  220.0785 H   0  0  0  0  0  0  0  0  0  0  0  0
  142.4580   73.2570  220.8340 C   0  0  0  0  0  0  0  0  0  0  0  0
  141.9390   71.9600  221.3930 C   0  0  0  0  0  0  0  0  0  0  0  0
  141.9557   72.0017  222.4921 H   0  0  0  0  0  0  0  0  0  0  0  0
  140.9071   71.7988  221.0478 H   0  0  0  0  0  0  0  0  0  0  0  0
  142.5748   71.1314  221.0478 H   0  0  0  0  0  0  0  0  0  0  0  0
  141.7160   74.4490  220.9590 C   0  0  0  0  0  0  0  0  0  0  0  0
  140.5130   74.4230  221.5920 N   0  0  0  0  0  0  0  0  0  0  0  0
  139.7590   75.5400  221.7390 C   0  0  0  0  0  0  0  0  0  0  0  0
  138.5610   75.4700  222.3790 N   0  0  0  0  0  0  0  0  0  0  0  0
  138.2480   74.5430  222.7490 H   0  0  0  0  0  0  0  0  0  0  0  0
  1  2  1  0
  2  3  2  0
  3  4  1  0
  4  5  1  0
  5  6  2  0
  6  7  1  0
  7  8  1  6
  7  9  1  0
  9 10  2  0
 10 11  1  0
 10 12  1  0
 12 13  1  0
 12 14  2  0
 14 15  1  0
 14 16  1  0
 16 17  1  0
 16 18  2  0
 18 19  1  0
  7 20  1  0
 20 21  1  0
 20 22  1  0
 20 23  1  0
  5 24  1  0
 24 25  1  0
  4 26  2  0
 26 27  1  0
 26 28  1  0
 28 29  1  0
 29 30  2  0
 29 31  1  0
 31 32  1  0
 32 33  1  0
 32 34  2  0
 34 35  1  0
 34 36  1  0
 36 37  1  0
 36 38  2  0
 38 39  1  0
 39 40  1  0
 39 41  1  0
 39 42  1  0
 38 43  1  0
 43 44  2  0
 44 45  1  0
 45 46  1  0
 46 47  1  0
 46  3  1  0
 18  9  1  0
 45 28  2  0
 43 31  1  0
M  END
>  <UniqueID>  (79) 
116

>  <SMILES>  (79) 
[H]/N=c1\[nH]c2nc3c(C)cccn3c(=O)c2cc1/C(O)=N/[C@@H](C)c1ccccc1

>  <Energy>  (79) 
64.4707771888291

>  <Genealogy>  (79) 
Cc1cccn2c(=O)c3cc(C(O)=N[C@@H](C)c4ccccc4)c(=N)[nH]c3nc12 (tautomer)
[H]/N=c1\[nH]c2nc3c(C)cccn3c(=O)c2cc1/C(O)=N/[C@@H](C)c1ccccc1 (cis-trans isomerization)
[H]/N=c1\[nH]c2nc3c(C)cccn3c(=O)c2cc1/C(O)=N/[C@@H](C)c1ccccc1 (3D coordinates assigned)
[H]/N=c1\[nH]c2nc3c(C)cccn3c(=O)c2cc1/C(O)=N/[C@@H](C)c1ccccc1 (optimized conformer: 64.4707771888291 kcal/mol)

>  <smiles>  (79) 
Cc1cccn2c(=O)c3cc(C(=O)N[C@@H](C)c4ccccc4)c(=N)[nH]c3nc12

>  <score_type>  (79) 
oracle

>  <origin>  (79) 
autodockgpu

>  <m_score__min__energy>  (79) 
-8.3699999999999992

>  <m_primary>  (79) 
energy

>  <meeko>  (79) 
{"free_energy": -6.7, "intermolecular_energy": -8.49, "internal_energy": -2.25, "cluster_size": 16, "cluster_id": 3, "rank_in_cluster": 16}

>  <energy>  (79) 
-6.7

>  <cluster_rmsd>  (79) 
0.28

>  <rmsd>  (79) 
270.55

>  <cluster>  (79) 
3

$$$$
PSCKMLPRYLACNW-GLSXUUDRNA-N
     RDKit          3D

 47 50  0  0  0  0  0  0  0  0999 V2000
  136.2360   77.0960  223.8100 H   0  0  0  0  0  0  0  0  0  0  0  0
  136.6550   76.3360  223.2270 N   0  0  0  0  0  0  0  0  0  0  0  0
  137.7830   76.4790  222.6020 C   0  0  0  0  0  0  0  0  0  0  0  0
  138.1890   77.7520  222.1260 C   0  0  0  0  0  0  0  0  0  0  0  0
  137.3560   78.9810  222.3050 C   0  0  0  0  0  0  0  0  0  0  0  0
  137.9170   80.1520  222.1800 N   0  0  0  0  0  0  0  0  0  0  0  0
  138.6450   80.9030  223.2050 C   0  0  2  0  0  0  0  0  0  0  0  0
  138.5527   81.9789  222.9955 H   0  0  0  0  0  0  0  0  0  0  0  0
  140.1030   80.5010  223.1780 C   0  0  0  0  0  0  0  0  0  0  0  0
  141.0270   81.1920  222.3700 C   0  0  0  0  0  0  0  0  0  0  0  0
  140.6914   82.0458  221.7630 H   0  0  0  0  0  0  0  0  0  0  0  0
  142.3680   80.7990  222.3350 C   0  0  0  0  0  0  0  0  0  0  0  0
  143.0852   81.3499  221.7088 H   0  0  0  0  0  0  0  0  0  0  0  0
  142.7990   79.7090  223.0930 C   0  0  0  0  0  0  0  0  0  0  0  0
  143.8553   79.4033  223.0653 H   0  0  0  0  0  0  0  0  0  0  0  0
  141.8890   79.0060  223.8870 C   0  0  0  0  0  0  0  0  0  0  0  0
  142.2294   78.1453  224.4815 H   0  0  0  0  0  0  0  0  0  0  0  0
  140.5460   79.3950  223.9270 C   0  0  0  0  0  0  0  0  0  0  0  0
  139.8321   78.8333  224.5474 H   0  0  0  0  0  0  0  0  0  0  0  0
  138.0560   80.6230  224.5920 C   0  0  0  0  0  0  0  0  0  0  0  0
  138.7627   80.9590  225.3651 H   0  0  0  0  0  0  0  0  0  0  0  0
  137.1057   81.1657  224.7032 H   0  0  0  0  0  0  0  0  0  0  0  0
  137.8769   79.5434  224.7032 H   0  0  0  0  0  0  0  0  0  0  0  0
  135.9930   78.8580  222.5960 O   0  0  0  0  0  0  0  0  0  0  0  0
  135.4730   77.9950  222.5100 H   0  0  0  0  0  0  0  0  0  0  0  0
  139.4280   77.8430  221.4600 C   0  0  0  0  0  0  0  0  0  0  0  0
  139.7703   78.8169  221.0801 H   0  0  0  0  0  0  0  0  0  0  0  0
  140.2290   76.7080  221.2760 C   0  0  0  0  0  0  0  0  0  0  0  0
  141.4720   76.7560  220.6170 C   0  0  0  0  0  0  0  0  0  0  0  0
  141.8960   77.8580  220.1690 O   0  0  0  0  0  0  0  0  0  0  0  0
  142.2170   75.6090  220.4650 N   0  0  0  0  0  0  0  0  0  0  0  0
  143.4300   75.6490  219.8250 C   0  0  0  0  0  0  0  0  0  0  0  0
  143.8049   76.6058  219.4327 H   0  0  0  0  0  0  0  0  0  0  0  0
  144.1940   74.4940  219.6650 C   0  0  0  0  0  0  0  0  0  0  0  0
  145.1653   74.5407  219.1507 H   0  0  0  0  0  0  0  0  0  0  0  0
  143.7230   73.2840  220.1580 C   0  0  0  0  0  0  0  0  0  0  0  0
  144.3218   72.3697  220.0340 H   0  0  0  0  0  0  0  0  0  0  0  0
  142.4880   73.2270  220.8120 C   0  0  0  0  0  0  0  0  0  0  0  0
  141.9790   71.9170  221.3490 C   0  0  0  0  0  0  0  0  0  0  0  0
  141.9890   71.9428  222.4487 H   0  0  0  0  0  0  0  0  0  0  0  0
  140.9508   71.7505  220.9955 H   0  0  0  0  0  0  0  0  0  0  0  0
  142.6251   71.0999  220.9955 H   0  0  0  0  0  0  0  0  0  0  0  0
  141.7400   74.4110  220.9590 C   0  0  0  0  0  0  0  0  0  0  0  0
  140.5390   74.3680  221.5960 N   0  0  0  0  0  0  0  0  0  0  0  0
  139.7790   75.4770  221.7650 C   0  0  0  0  0  0  0  0  0  0  0  0
  138.5840   75.3890  222.4080 N   0  0  0  0  0  0  0  0  0  0  0  0
  138.2770   74.4530  222.7620 H   0  0  0  0  0  0  0  0  0  0  0  0
  1  2  1  0
  2  3  2  0
  3  4  1  0
  4  5  1  0
  5  6  2  0
  6  7  1  0
  7  8  1  6
  7  9  1  0
  9 10  2  0
 10 11  1  0
 10 12  1  0
 12 13  1  0
 12 14  2  0
 14 15  1  0
 14 16  1  0
 16 17  1  0
 16 18  2  0
 18 19  1  0
  7 20  1  0
 20 21  1  0
 20 22  1  0
 20 23  1  0
  5 24  1  0
 24 25  1  0
  4 26  2  0
 26 27  1  0
 26 28  1  0
 28 29  1  0
 29 30  2  0
 29 31  1  0
 31 32  1  0
 32 33  1  0
 32 34  2  0
 34 35  1  0
 34 36  1  0
 36 37  1  0
 36 38  2  0
 38 39  1  0
 39 40  1  0
 39 41  1  0
 39 42  1  0
 38 43  1  0
 43 44  2  0
 44 45  1  0
 45 46  1  0
 46 47  1  0
 46  3  1  0
 18  9  1  0
 45 28  2  0
 43 31  1  0
M  END
>  <UniqueID>  (80) 
116

>  <SMILES>  (80) 
[H]/N=c1\[nH]c2nc3c(C)cccn3c(=O)c2cc1/C(O)=N/[C@@H](C)c1ccccc1

>  <Energy>  (80) 
64.4707771888291

>  <Genealogy>  (80) 
Cc1cccn2c(=O)c3cc(C(O)=N[C@@H](C)c4ccccc4)c(=N)[nH]c3nc12 (tautomer)
[H]/N=c1\[nH]c2nc3c(C)cccn3c(=O)c2cc1/C(O)=N/[C@@H](C)c1ccccc1 (cis-trans isomerization)
[H]/N=c1\[nH]c2nc3c(C)cccn3c(=O)c2cc1/C(O)=N/[C@@H](C)c1ccccc1 (3D coordinates assigned)
[H]/N=c1\[nH]c2nc3c(C)cccn3c(=O)c2cc1/C(O)=N/[C@@H](C)c1ccccc1 (optimized conformer: 64.4707771888291 kcal/mol)

>  <smiles>  (80) 
Cc1cccn2c(=O)c3cc(C(=O)N[C@@H](C)c4ccccc4)c(=N)[nH]c3nc12

>  <score_type>  (80) 
oracle

>  <origin>  (80) 
autodockgpu

>  <m_score__min__energy>  (80) 
-8.3699999999999992

>  <m_primary>  (80) 
energy

>  <meeko>  (80) 
{"free_energy": -6.72, "intermolecular_energy": -8.51, "internal_energy": -2.24, "cluster_size": 16, "cluster_id": 3, "rank_in_cluster": 12}

>  <energy>  (80) 
-6.7

>  <cluster_rmsd>  (80) 
0.29

>  <rmsd>  (80) 
270.52

>  <cluster>  (80) 
3

$$$$
