ZZFUSXOZLWDLQL-LJQANCHMNA-N
     RDKit          3D

 38 41  0  0  0  0  0  0  0  0999 V2000
  143.6750   75.2670  219.4090 C   0  0  0  0  0  0  0  0  0  0  0  0
  142.4430   75.4950  220.2230 C   0  0  0  0  0  0  0  0  0  0  0  0
  141.8840   76.7730  220.3120 C   0  0  0  0  0  0  0  0  0  0  0  0
  140.7270   76.9640  221.0790 C   0  0  0  0  0  0  0  0  0  0  0  0
  140.1560   75.8600  221.7380 C   0  0  0  0  0  0  0  0  0  0  0  0
  140.7920   74.6080  221.6140 C   0  0  0  0  0  0  0  0  0  0  0  0
  140.3330   73.5960  222.2080 O   0  0  0  0  0  0  0  0  0  0  0  0
  141.8860   74.4770  220.8700 O   0  0  0  0  0  0  0  0  0  0  0  0
  138.9390   76.0130  222.6190 C   0  0  0  0  0  0  0  0  0  0  0  0
  138.1370   77.2540  222.3250 C   0  0  0  0  0  0  0  0  0  0  0  0
  136.8080   77.3260  222.7770 C   0  0  0  0  0  0  0  0  0  0  0  0
  136.0470   78.4770  222.5580 C   0  0  0  0  0  0  0  0  0  0  0  0
  136.6080   79.5710  221.9000 C   0  0  0  0  0  0  0  0  0  0  0  0
  137.9320   79.5190  221.4600 C   0  0  0  0  0  0  0  0  0  0  0  0
  138.7070   78.3650  221.6660 C   0  0  0  0  0  0  0  0  0  0  0  0
  140.1490   78.3560  221.2060 C   0  0  1  0  0  0  0  0  0  0  0  0
  141.0070   79.2070  222.1210 C   0  0  0  0  0  0  0  0  0  0  0  0
  141.4070   78.7080  223.3740 C   0  0  0  0  0  0  0  0  0  0  0  0
  142.1980   79.4870  224.2250 C   0  0  0  0  0  0  0  0  0  0  0  0
  142.5960   80.7690  223.8360 C   0  0  0  0  0  0  0  0  0  0  0  0
  142.2050   81.2740  222.5940 C   0  0  0  0  0  0  0  0  0  0  0  0
  141.4140   80.5000  221.7390 C   0  0  0  0  0  0  0  0  0  0  0  0
  144.5329   75.1082  220.0789 H   0  0  0  0  0  0  0  0  0  0  0  0
  143.5361   74.3793  218.7744 H   0  0  0  0  0  0  0  0  0  0  0  0
  143.8630   76.1456  218.7744 H   0  0  0  0  0  0  0  0  0  0  0  0
  142.3476   77.6202  219.7853 H   0  0  0  0  0  0  0  0  0  0  0  0
  138.2906   75.1365  222.4726 H   0  0  0  0  0  0  0  0  0  0  0  0
  139.2981   76.0975  223.6553 H   0  0  0  0  0  0  0  0  0  0  0  0
  136.3641   76.4703  223.3068 H   0  0  0  0  0  0  0  0  0  0  0  0
  135.0041   78.5203  222.9050 H   0  0  0  0  0  0  0  0  0  0  0  0
  136.0068   80.4759  221.7274 H   0  0  0  0  0  0  0  0  0  0  0  0
  138.3718   80.3878  220.9483 H   0  0  0  0  0  0  0  0  0  0  0  0
  140.1545   78.7893  220.1949 H   0  0  0  0  0  0  0  0  0  0  0  0
  141.0962   77.7001  223.6861 H   0  0  0  0  0  0  0  0  0  0  0  0
  142.5075   79.0895  225.2029 H   0  0  0  0  0  0  0  0  0  0  0  0
  143.2169   81.3800  224.5077 H   0  0  0  0  0  0  0  0  0  0  0  0
  142.5198   82.2825  222.2877 H   0  0  0  0  0  0  0  0  0  0  0  0
  141.1080   80.9034  220.7625 H   0  0  0  0  0  0  0  0  0  0  0  0
  1  2  1  0
  2  3  2  0
  3  4  1  0
  4  5  2  0
  5  6  1  0
  6  7  2  0
  6  8  1  0
  5  9  1  0
  9 10  1  0
 10 11  2  0
 11 12  1  0
 12 13  2  0
 13 14  1  0
 14 15  2  0
 15 16  1  0
 16 17  1  0
 17 18  2  0
 18 19  1  0
 19 20  2  0
 20 21  1  0
 21 22  2  0
  8  2  1  0
 15 10  1  0
 22 17  1  0
 16  4  1  0
  1 23  1  0
  1 24  1  0
  1 25  1  0
  3 26  1  0
  9 27  1  0
  9 28  1  0
 11 29  1  0
 12 30  1  0
 13 31  1  0
 14 32  1  0
 16 33  1  6
 18 34  1  0
 19 35  1  0
 20 36  1  0
 21 37  1  0
 22 38  1  0
M  END
>  <UniqueID>  (1) 
16

>  <SMILES>  (1) 
Cc1cc2c(c(=O)o1)Cc1ccccc1[C@H]2c1ccccc1

>  <Energy>  (1) 
47.71909749416466

>  <Genealogy>  (1) 
Cc1cc2c(c(=O)o1)Cc1ccccc1[C@H]2c1ccccc1 (chirality)
Cc1cc2c(c(=O)o1)Cc1ccccc1[C@H]2c1ccccc1 (3D coordinates assigned)
Cc1cc2c(c(=O)o1)Cc1ccccc1[C@H]2c1ccccc1 (nonaromatic ring conformer: 47.71909749416466 kcal/mol)

>  <smiles>  (1) 
Cc1cc2c(c(=O)o1)Cc1ccccc1C2c1ccccc1

>  <score_type>  (1) 
oracle

>  <origin>  (1) 
autodockgpu

>  <m_score__min__energy>  (1) 
-6.7800000000000002

>  <m_primary>  (1) 
energy

>  <meeko>  (1) 
{"free_energy": -6.77, "intermolecular_energy": -7.07, "internal_energy": -0.77, "cluster_size": 20, "cluster_id": 1, "rank_in_cluster": 19}

>  <energy>  (1) 
-6.78

>  <cluster_rmsd>  (1) 
0.0

>  <rmsd>  (1) 
270.27

>  <cluster>  (1) 
1

$$$$
ZZFUSXOZLWDLQL-LJQANCHMNA-N
     RDKit          3D

 38 41  0  0  0  0  0  0  0  0999 V2000
  143.6870   75.2830  219.3910 C   0  0  0  0  0  0  0  0  0  0  0  0
  142.4540   75.5030  220.2070 C   0  0  0  0  0  0  0  0  0  0  0  0
  141.8890   76.7780  220.2980 C   0  0  0  0  0  0  0  0  0  0  0  0
  140.7320   76.9620  221.0670 C   0  0  0  0  0  0  0  0  0  0  0  0
  140.1670   75.8530  221.7240 C   0  0  0  0  0  0  0  0  0  0  0  0
  140.8090   74.6050  221.5970 C   0  0  0  0  0  0  0  0  0  0  0  0
  140.3560   73.5900  222.1900 O   0  0  0  0  0  0  0  0  0  0  0  0
  141.9030   74.4810  220.8530 O   0  0  0  0  0  0  0  0  0  0  0  0
  138.9500   75.9990  222.6070 C   0  0  0  0  0  0  0  0  0  0  0  0
  138.1420   77.2370  222.3160 C   0  0  0  0  0  0  0  0  0  0  0  0
  136.8130   77.3010  222.7690 C   0  0  0  0  0  0  0  0  0  0  0  0
  136.0450   78.4480  222.5540 C   0  0  0  0  0  0  0  0  0  0  0  0
  136.6000   79.5460  221.8970 C   0  0  0  0  0  0  0  0  0  0  0  0
  137.9250   79.5020  221.4550 C   0  0  0  0  0  0  0  0  0  0  0  0
  138.7060   78.3520  221.6590 C   0  0  0  0  0  0  0  0  0  0  0  0
  140.1470   78.3510  221.1970 C   0  0  1  0  0  0  0  0  0  0  0  0
  141.0020   79.2040  222.1130 C   0  0  0  0  0  0  0  0  0  0  0  0
  141.4100   78.7030  223.3630 C   0  0  0  0  0  0  0  0  0  0  0  0
  142.1980   79.4840  224.2140 C   0  0  0  0  0  0  0  0  0  0  0  0
  142.5840   80.7700  223.8300 C   0  0  0  0  0  0  0  0  0  0  0  0
  142.1850   81.2780  222.5920 C   0  0  0  0  0  0  0  0  0  0  0  0
  141.3970   80.5020  221.7360 C   0  0  0  0  0  0  0  0  0  0  0  0
  144.5468   75.1296  220.0598 H   0  0  0  0  0  0  0  0  0  0  0  0
  143.5530   74.3946  218.7564 H   0  0  0  0  0  0  0  0  0  0  0  0
  143.8685   76.1629  218.7564 H   0  0  0  0  0  0  0  0  0  0  0  0
  142.3476   77.6281  219.7716 H   0  0  0  0  0  0  0  0  0  0  0  0
  138.3054   75.1199  222.4598 H   0  0  0  0  0  0  0  0  0  0  0  0
  139.3099   76.0834  223.6430 H   0  0  0  0  0  0  0  0  0  0  0  0
  136.3743   76.4414  223.2968 H   0  0  0  0  0  0  0  0  0  0  0  0
  135.0025   78.4852  222.9029 H   0  0  0  0  0  0  0  0  0  0  0  0
  135.9939   80.4480  221.7265 H   0  0  0  0  0  0  0  0  0  0  0  0
  138.3595   80.3737  220.9438 H   0  0  0  0  0  0  0  0  0  0  0  0
  140.1488   78.7862  220.1867 H   0  0  0  0  0  0  0  0  0  0  0  0
  141.1075   77.6917  223.6723 H   0  0  0  0  0  0  0  0  0  0  0  0
  142.5147   79.0844  225.1887 H   0  0  0  0  0  0  0  0  0  0  0  0
  143.2022   81.3827  224.5026 H   0  0  0  0  0  0  0  0  0  0  0  0
  142.4910   82.2903  222.2895 H   0  0  0  0  0  0  0  0  0  0  0  0
  141.0840   80.9079  220.7627 H   0  0  0  0  0  0  0  0  0  0  0  0
  1  2  1  0
  2  3  2  0
  3  4  1  0
  4  5  2  0
  5  6  1  0
  6  7  2  0
  6  8  1  0
  5  9  1  0
  9 10  1  0
 10 11  2  0
 11 12  1  0
 12 13  2  0
 13 14  1  0
 14 15  2  0
 15 16  1  0
 16 17  1  0
 17 18  2  0
 18 19  1  0
 19 20  2  0
 20 21  1  0
 21 22  2  0
  8  2  1  0
 15 10  1  0
 22 17  1  0
 16  4  1  0
  1 23  1  0
  1 24  1  0
  1 25  1  0
  3 26  1  0
  9 27  1  0
  9 28  1  0
 11 29  1  0
 12 30  1  0
 13 31  1  0
 14 32  1  0
 16 33  1  6
 18 34  1  0
 19 35  1  0
 20 36  1  0
 21 37  1  0
 22 38  1  0
M  END
>  <UniqueID>  (2) 
16

>  <SMILES>  (2) 
Cc1cc2c(c(=O)o1)Cc1ccccc1[C@H]2c1ccccc1

>  <Energy>  (2) 
47.71909749416466

>  <Genealogy>  (2) 
Cc1cc2c(c(=O)o1)Cc1ccccc1[C@H]2c1ccccc1 (chirality)
Cc1cc2c(c(=O)o1)Cc1ccccc1[C@H]2c1ccccc1 (3D coordinates assigned)
Cc1cc2c(c(=O)o1)Cc1ccccc1[C@H]2c1ccccc1 (nonaromatic ring conformer: 47.71909749416466 kcal/mol)

>  <smiles>  (2) 
Cc1cc2c(c(=O)o1)Cc1ccccc1C2c1ccccc1

>  <score_type>  (2) 
oracle

>  <origin>  (2) 
autodockgpu

>  <m_score__min__energy>  (2) 
-6.7800000000000002

>  <m_primary>  (2) 
energy

>  <meeko>  (2) 
{"free_energy": -6.77, "intermolecular_energy": -7.07, "internal_energy": -0.77, "cluster_size": 20, "cluster_id": 1, "rank_in_cluster": 6}

>  <energy>  (2) 
-6.78

>  <cluster_rmsd>  (2) 
0.01

>  <rmsd>  (2) 
270.27

>  <cluster>  (2) 
1

$$$$
ZZFUSXOZLWDLQL-LJQANCHMNA-N
     RDKit          3D

 38 41  0  0  0  0  0  0  0  0999 V2000
  143.6820   75.2840  219.3940 C   0  0  0  0  0  0  0  0  0  0  0  0
  142.4510   75.5070  220.2110 C   0  0  0  0  0  0  0  0  0  0  0  0
  141.8880   76.7840  220.3020 C   0  0  0  0  0  0  0  0  0  0  0  0
  140.7330   76.9700  221.0720 C   0  0  0  0  0  0  0  0  0  0  0  0
  140.1660   75.8630  221.7310 C   0  0  0  0  0  0  0  0  0  0  0  0
  140.8050   74.6140  221.6040 C   0  0  0  0  0  0  0  0  0  0  0  0
  140.3520   73.6000  222.1990 O   0  0  0  0  0  0  0  0  0  0  0  0
  141.8990   74.4870  220.8590 O   0  0  0  0  0  0  0  0  0  0  0  0
  138.9510   76.0120  222.6160 C   0  0  0  0  0  0  0  0  0  0  0  0
  138.1440   77.2510  222.3250 C   0  0  0  0  0  0  0  0  0  0  0  0
  136.8160   77.3180  222.7800 C   0  0  0  0  0  0  0  0  0  0  0  0
  136.0500   78.4670  222.5640 C   0  0  0  0  0  0  0  0  0  0  0  0
  136.6060   79.5630  221.9060 C   0  0  0  0  0  0  0  0  0  0  0  0
  137.9300   79.5160  221.4620 C   0  0  0  0  0  0  0  0  0  0  0  0
  138.7100   78.3640  221.6660 C   0  0  0  0  0  0  0  0  0  0  0  0
  140.1500   78.3610  221.2020 C   0  0  1  0  0  0  0  0  0  0  0  0
  141.0080   79.2130  222.1160 C   0  0  0  0  0  0  0  0  0  0  0  0
  141.4090   78.7160  223.3690 C   0  0  0  0  0  0  0  0  0  0  0  0
  142.1990   79.4960  224.2190 C   0  0  0  0  0  0  0  0  0  0  0  0
  142.5950   80.7780  223.8290 C   0  0  0  0  0  0  0  0  0  0  0  0
  142.2020   81.2820  222.5870 C   0  0  0  0  0  0  0  0  0  0  0  0
  141.4130   80.5060  221.7330 C   0  0  0  0  0  0  0  0  0  0  0  0
  144.5421   75.1282  220.0618 H   0  0  0  0  0  0  0  0  0  0  0  0
  143.5450   74.3961  218.7593 H   0  0  0  0  0  0  0  0  0  0  0  0
  143.8652   76.1636  218.7593 H   0  0  0  0  0  0  0  0  0  0  0  0
  142.3473   77.6330  219.7746 H   0  0  0  0  0  0  0  0  0  0  0  0
  138.3049   75.1336  222.4712 H   0  0  0  0  0  0  0  0  0  0  0  0
  139.3131   76.0973  223.6512 H   0  0  0  0  0  0  0  0  0  0  0  0
  136.3763   76.4601  223.3099 H   0  0  0  0  0  0  0  0  0  0  0  0
  135.0077   78.5065  222.9134 H   0  0  0  0  0  0  0  0  0  0  0  0
  136.0015   80.4662  221.7361 H   0  0  0  0  0  0  0  0  0  0  0  0
  138.3652   80.3864  220.9492 H   0  0  0  0  0  0  0  0  0  0  0  0
  140.1508   78.7961  220.1917 H   0  0  0  0  0  0  0  0  0  0  0  0
  141.0994   77.7080  223.6821 H   0  0  0  0  0  0  0  0  0  0  0  0
  142.5095   79.0995  225.1969 H   0  0  0  0  0  0  0  0  0  0  0  0
  143.2159   81.3900  224.4997 H   0  0  0  0  0  0  0  0  0  0  0  0
  142.5139   82.2913  222.2804 H   0  0  0  0  0  0  0  0  0  0  0  0
  141.1067   80.9079  220.7559 H   0  0  0  0  0  0  0  0  0  0  0  0
  1  2  1  0
  2  3  2  0
  3  4  1  0
  4  5  2  0
  5  6  1  0
  6  7  2  0
  6  8  1  0
  5  9  1  0
  9 10  1  0
 10 11  2  0
 11 12  1  0
 12 13  2  0
 13 14  1  0
 14 15  2  0
 15 16  1  0
 16 17  1  0
 17 18  2  0
 18 19  1  0
 19 20  2  0
 20 21  1  0
 21 22  2  0
  8  2  1  0
 15 10  1  0
 22 17  1  0
 16  4  1  0
  1 23  1  0
  1 24  1  0
  1 25  1  0
  3 26  1  0
  9 27  1  0
  9 28  1  0
 11 29  1  0
 12 30  1  0
 13 31  1  0
 14 32  1  0
 16 33  1  6
 18 34  1  0
 19 35  1  0
 20 36  1  0
 21 37  1  0
 22 38  1  0
M  END
>  <UniqueID>  (3) 
16

>  <SMILES>  (3) 
Cc1cc2c(c(=O)o1)Cc1ccccc1[C@H]2c1ccccc1

>  <Energy>  (3) 
47.71909749416466

>  <Genealogy>  (3) 
Cc1cc2c(c(=O)o1)Cc1ccccc1[C@H]2c1ccccc1 (chirality)
Cc1cc2c(c(=O)o1)Cc1ccccc1[C@H]2c1ccccc1 (3D coordinates assigned)
Cc1cc2c(c(=O)o1)Cc1ccccc1[C@H]2c1ccccc1 (nonaromatic ring conformer: 47.71909749416466 kcal/mol)

>  <smiles>  (3) 
Cc1cc2c(c(=O)o1)Cc1ccccc1C2c1ccccc1

>  <score_type>  (3) 
oracle

>  <origin>  (3) 
autodockgpu

>  <m_score__min__energy>  (3) 
-6.7800000000000002

>  <m_primary>  (3) 
energy

>  <meeko>  (3) 
{"free_energy": -6.78, "intermolecular_energy": -7.07, "internal_energy": -0.77, "cluster_size": 20, "cluster_id": 1, "rank_in_cluster": 3}

>  <energy>  (3) 
-6.78

>  <cluster_rmsd>  (3) 
0.01

>  <rmsd>  (3) 
270.28

>  <cluster>  (3) 
1

$$$$
ZZFUSXOZLWDLQL-LJQANCHMNA-N
     RDKit          3D

 38 41  0  0  0  0  0  0  0  0999 V2000
  143.6970   75.2790  219.4000 C   0  0  0  0  0  0  0  0  0  0  0  0
  142.4630   75.5000  220.2150 C   0  0  0  0  0  0  0  0  0  0  0  0
  141.8980   76.7750  220.3040 C   0  0  0  0  0  0  0  0  0  0  0  0
  140.7400   76.9590  221.0720 C   0  0  0  0  0  0  0  0  0  0  0  0
  140.1750   75.8510  221.7300 C   0  0  0  0  0  0  0  0  0  0  0  0
  140.8170   74.6030  221.6050 C   0  0  0  0  0  0  0  0  0  0  0  0
  140.3640   73.5880  222.1990 O   0  0  0  0  0  0  0  0  0  0  0  0
  141.9120   74.4790  220.8610 O   0  0  0  0  0  0  0  0  0  0  0  0
  138.9570   75.9980  222.6120 C   0  0  0  0  0  0  0  0  0  0  0  0
  138.1490   77.2350  222.3200 C   0  0  0  0  0  0  0  0  0  0  0  0
  136.8200   77.3000  222.7710 C   0  0  0  0  0  0  0  0  0  0  0  0
  136.0520   78.4460  222.5540 C   0  0  0  0  0  0  0  0  0  0  0  0
  136.6070   79.5440  221.8970 C   0  0  0  0  0  0  0  0  0  0  0  0
  137.9320   79.5000  221.4560 C   0  0  0  0  0  0  0  0  0  0  0  0
  138.7130   78.3490  221.6610 C   0  0  0  0  0  0  0  0  0  0  0  0
  140.1550   78.3490  221.2000 C   0  0  1  0  0  0  0  0  0  0  0  0
  141.0090   79.2030  222.1160 C   0  0  0  0  0  0  0  0  0  0  0  0
  141.4070   78.7080  223.3710 C   0  0  0  0  0  0  0  0  0  0  0  0
  142.1940   79.4890  224.2220 C   0  0  0  0  0  0  0  0  0  0  0  0
  142.5900   80.7720  223.8320 C   0  0  0  0  0  0  0  0  0  0  0  0
  142.2000   81.2740  222.5890 C   0  0  0  0  0  0  0  0  0  0  0  0
  141.4130   80.4960  221.7330 C   0  0  0  0  0  0  0  0  0  0  0  0
  144.5560   75.1252  220.0696 H   0  0  0  0  0  0  0  0  0  0  0  0
  143.5631   74.3906  218.7654 H   0  0  0  0  0  0  0  0  0  0  0  0
  143.8797   76.1587  218.7654 H   0  0  0  0  0  0  0  0  0  0  0  0
  142.3569   77.6247  219.7773 H   0  0  0  0  0  0  0  0  0  0  0  0
  138.3127   75.1187  222.4651 H   0  0  0  0  0  0  0  0  0  0  0  0
  139.3165   76.0837  223.6481 H   0  0  0  0  0  0  0  0  0  0  0  0
  136.3807   76.4410  223.2994 H   0  0  0  0  0  0  0  0  0  0  0  0
  135.0089   78.4827  222.9014 H   0  0  0  0  0  0  0  0  0  0  0  0
  136.0008   80.4458  221.7258 H   0  0  0  0  0  0  0  0  0  0  0  0
  138.3670   80.3716  220.9450 H   0  0  0  0  0  0  0  0  0  0  0  0
  140.1582   78.7841  220.1897 H   0  0  0  0  0  0  0  0  0  0  0  0
  141.0970   77.7002  223.6846 H   0  0  0  0  0  0  0  0  0  0  0  0
  142.5026   79.0934  225.2009 H   0  0  0  0  0  0  0  0  0  0  0  0
  143.2083   81.3853  224.5040 H   0  0  0  0  0  0  0  0  0  0  0  0
  142.5121   82.2832  222.2821 H   0  0  0  0  0  0  0  0  0  0  0  0
  141.1081   80.8970  220.7551 H   0  0  0  0  0  0  0  0  0  0  0  0
  1  2  1  0
  2  3  2  0
  3  4  1  0
  4  5  2  0
  5  6  1  0
  6  7  2  0
  6  8  1  0
  5  9  1  0
  9 10  1  0
 10 11  2  0
 11 12  1  0
 12 13  2  0
 13 14  1  0
 14 15  2  0
 15 16  1  0
 16 17  1  0
 17 18  2  0
 18 19  1  0
 19 20  2  0
 20 21  1  0
 21 22  2  0
  8  2  1  0
 15 10  1  0
 22 17  1  0
 16  4  1  0
  1 23  1  0
  1 24  1  0
  1 25  1  0
  3 26  1  0
  9 27  1  0
  9 28  1  0
 11 29  1  0
 12 30  1  0
 13 31  1  0
 14 32  1  0
 16 33  1  6
 18 34  1  0
 19 35  1  0
 20 36  1  0
 21 37  1  0
 22 38  1  0
M  END
>  <UniqueID>  (4) 
16

>  <SMILES>  (4) 
Cc1cc2c(c(=O)o1)Cc1ccccc1[C@H]2c1ccccc1

>  <Energy>  (4) 
47.71909749416466

>  <Genealogy>  (4) 
Cc1cc2c(c(=O)o1)Cc1ccccc1[C@H]2c1ccccc1 (chirality)
Cc1cc2c(c(=O)o1)Cc1ccccc1[C@H]2c1ccccc1 (3D coordinates assigned)
Cc1cc2c(c(=O)o1)Cc1ccccc1[C@H]2c1ccccc1 (nonaromatic ring conformer: 47.71909749416466 kcal/mol)

>  <smiles>  (4) 
Cc1cc2c(c(=O)o1)Cc1ccccc1C2c1ccccc1

>  <score_type>  (4) 
oracle

>  <origin>  (4) 
autodockgpu

>  <m_score__min__energy>  (4) 
-6.7800000000000002

>  <m_primary>  (4) 
energy

>  <meeko>  (4) 
{"free_energy": -6.77, "intermolecular_energy": -7.07, "internal_energy": -0.77, "cluster_size": 20, "cluster_id": 1, "rank_in_cluster": 13}

>  <energy>  (4) 
-6.78

>  <cluster_rmsd>  (4) 
0.01

>  <rmsd>  (4) 
270.28

>  <cluster>  (4) 
1

$$$$
ZZFUSXOZLWDLQL-LJQANCHMNA-N
     RDKit          3D

 38 41  0  0  0  0  0  0  0  0999 V2000
  143.6630   75.2590  219.4070 C   0  0  0  0  0  0  0  0  0  0  0  0
  142.4310   75.4860  220.2210 C   0  0  0  0  0  0  0  0  0  0  0  0
  141.8720   76.7650  220.3100 C   0  0  0  0  0  0  0  0  0  0  0  0
  140.7150   76.9550  221.0780 C   0  0  0  0  0  0  0  0  0  0  0  0
  140.1450   75.8510  221.7380 C   0  0  0  0  0  0  0  0  0  0  0  0
  140.7810   74.6000  221.6130 C   0  0  0  0  0  0  0  0  0  0  0  0
  140.3240   73.5870  222.2090 O   0  0  0  0  0  0  0  0  0  0  0  0
  141.8750   74.4690  220.8690 O   0  0  0  0  0  0  0  0  0  0  0  0
  138.9280   76.0040  222.6200 C   0  0  0  0  0  0  0  0  0  0  0  0
  138.1260   77.2450  222.3260 C   0  0  0  0  0  0  0  0  0  0  0  0
  136.7970   77.3170  222.7790 C   0  0  0  0  0  0  0  0  0  0  0  0
  136.0350   78.4670  222.5610 C   0  0  0  0  0  0  0  0  0  0  0  0
  136.5950   79.5610  221.9020 C   0  0  0  0  0  0  0  0  0  0  0  0
  137.9190   79.5090  221.4600 C   0  0  0  0  0  0  0  0  0  0  0  0
  138.6950   78.3560  221.6670 C   0  0  0  0  0  0  0  0  0  0  0  0
  140.1370   78.3470  221.2050 C   0  0  1  0  0  0  0  0  0  0  0  0
  140.9950   79.1980  222.1190 C   0  0  0  0  0  0  0  0  0  0  0  0
  141.4050   78.6970  223.3680 C   0  0  0  0  0  0  0  0  0  0  0  0
  142.1960   79.4760  224.2170 C   0  0  0  0  0  0  0  0  0  0  0  0
  142.5850   80.7610  223.8320 C   0  0  0  0  0  0  0  0  0  0  0  0
  142.1830   81.2700  222.5950 C   0  0  0  0  0  0  0  0  0  0  0  0
  141.3930   80.4960  221.7410 C   0  0  0  0  0  0  0  0  0  0  0  0
  144.5211   75.1009  220.0769 H   0  0  0  0  0  0  0  0  0  0  0  0
  143.5248   74.3712  218.7724 H   0  0  0  0  0  0  0  0  0  0  0  0
  143.8503   76.1378  218.7724 H   0  0  0  0  0  0  0  0  0  0  0  0
  142.3352   77.6123  219.7832 H   0  0  0  0  0  0  0  0  0  0  0  0
  138.2796   75.1275  222.4740 H   0  0  0  0  0  0  0  0  0  0  0  0
  139.2874   76.0885  223.6562 H   0  0  0  0  0  0  0  0  0  0  0  0
  136.3539   76.4611  223.3092 H   0  0  0  0  0  0  0  0  0  0  0  0
  134.9925   78.5098  222.9093 H   0  0  0  0  0  0  0  0  0  0  0  0
  135.9935   80.4658  221.7301 H   0  0  0  0  0  0  0  0  0  0  0  0
  138.3575   80.3771  220.9461 H   0  0  0  0  0  0  0  0  0  0  0  0
  140.1418   78.7797  220.1937 H   0  0  0  0  0  0  0  0  0  0  0  0
  141.1013   77.6863  223.6782 H   0  0  0  0  0  0  0  0  0  0  0  0
  142.5131   79.0759  225.1913 H   0  0  0  0  0  0  0  0  0  0  0  0
  143.2075   81.3717  224.5025 H   0  0  0  0  0  0  0  0  0  0  0  0
  142.4890   82.2823  222.2924 H   0  0  0  0  0  0  0  0  0  0  0  0
  141.0799   80.9022  220.7679 H   0  0  0  0  0  0  0  0  0  0  0  0
  1  2  1  0
  2  3  2  0
  3  4  1  0
  4  5  2  0
  5  6  1  0
  6  7  2  0
  6  8  1  0
  5  9  1  0
  9 10  1  0
 10 11  2  0
 11 12  1  0
 12 13  2  0
 13 14  1  0
 14 15  2  0
 15 16  1  0
 16 17  1  0
 17 18  2  0
 18 19  1  0
 19 20  2  0
 20 21  1  0
 21 22  2  0
  8  2  1  0
 15 10  1  0
 22 17  1  0
 16  4  1  0
  1 23  1  0
  1 24  1  0
  1 25  1  0
  3 26  1  0
  9 27  1  0
  9 28  1  0
 11 29  1  0
 12 30  1  0
 13 31  1  0
 14 32  1  0
 16 33  1  6
 18 34  1  0
 19 35  1  0
 20 36  1  0
 21 37  1  0
 22 38  1  0
M  END
>  <UniqueID>  (5) 
16

>  <SMILES>  (5) 
Cc1cc2c(c(=O)o1)Cc1ccccc1[C@H]2c1ccccc1

>  <Energy>  (5) 
47.71909749416466

>  <Genealogy>  (5) 
Cc1cc2c(c(=O)o1)Cc1ccccc1[C@H]2c1ccccc1 (chirality)
Cc1cc2c(c(=O)o1)Cc1ccccc1[C@H]2c1ccccc1 (3D coordinates assigned)
Cc1cc2c(c(=O)o1)Cc1ccccc1[C@H]2c1ccccc1 (nonaromatic ring conformer: 47.71909749416466 kcal/mol)

>  <smiles>  (5) 
Cc1cc2c(c(=O)o1)Cc1ccccc1C2c1ccccc1

>  <score_type>  (5) 
oracle

>  <origin>  (5) 
autodockgpu

>  <m_score__min__energy>  (5) 
-6.7800000000000002

>  <m_primary>  (5) 
energy

>  <meeko>  (5) 
{"free_energy": -6.77, "intermolecular_energy": -7.07, "internal_energy": -0.77, "cluster_size": 20, "cluster_id": 1, "rank_in_cluster": 10}

>  <energy>  (5) 
-6.77

>  <cluster_rmsd>  (5) 
0.02

>  <rmsd>  (5) 
270.27

>  <cluster>  (5) 
1

$$$$
ZZFUSXOZLWDLQL-LJQANCHMNA-N
     RDKit          3D

 38 41  0  0  0  0  0  0  0  0999 V2000
  143.6770   75.2660  219.3920 C   0  0  0  0  0  0  0  0  0  0  0  0
  142.4460   75.4910  220.2090 C   0  0  0  0  0  0  0  0  0  0  0  0
  141.8850   76.7680  220.3000 C   0  0  0  0  0  0  0  0  0  0  0  0
  140.7300   76.9550  221.0710 C   0  0  0  0  0  0  0  0  0  0  0  0
  140.1630   75.8500  221.7310 C   0  0  0  0  0  0  0  0  0  0  0  0
  140.8010   74.6000  221.6050 C   0  0  0  0  0  0  0  0  0  0  0  0
  140.3470   73.5860  222.2000 O   0  0  0  0  0  0  0  0  0  0  0  0
  141.8940   74.4710  220.8580 O   0  0  0  0  0  0  0  0  0  0  0  0
  138.9480   76.0000  222.6170 C   0  0  0  0  0  0  0  0  0  0  0  0
  138.1430   77.2400  222.3260 C   0  0  0  0  0  0  0  0  0  0  0  0
  136.8150   77.3080  222.7810 C   0  0  0  0  0  0  0  0  0  0  0  0
  136.0500   78.4570  222.5660 C   0  0  0  0  0  0  0  0  0  0  0  0
  136.6070   79.5530  221.9060 C   0  0  0  0  0  0  0  0  0  0  0  0
  137.9300   79.5040  221.4620 C   0  0  0  0  0  0  0  0  0  0  0  0
  138.7090   78.3520  221.6650 C   0  0  0  0  0  0  0  0  0  0  0  0
  140.1490   78.3470  221.2000 C   0  0  1  0  0  0  0  0  0  0  0  0
  141.0080   79.1980  222.1130 C   0  0  0  0  0  0  0  0  0  0  0  0
  141.4080   78.7030  223.3680 C   0  0  0  0  0  0  0  0  0  0  0  0
  142.1990   79.4830  224.2160 C   0  0  0  0  0  0  0  0  0  0  0  0
  142.5980   80.7630  223.8240 C   0  0  0  0  0  0  0  0  0  0  0  0
  142.2070   81.2660  222.5820 C   0  0  0  0  0  0  0  0  0  0  0  0
  141.4160   80.4900  221.7280 C   0  0  0  0  0  0  0  0  0  0  0  0
  144.5367   75.1089  220.0600 H   0  0  0  0  0  0  0  0  0  0  0  0
  143.5387   74.3783  218.7573 H   0  0  0  0  0  0  0  0  0  0  0  0
  143.8617   76.1453  218.7573 H   0  0  0  0  0  0  0  0  0  0  0  0
  142.3450   77.6165  219.7724 H   0  0  0  0  0  0  0  0  0  0  0  0
  138.3007   75.1224  222.4723 H   0  0  0  0  0  0  0  0  0  0  0  0
  139.3101   76.0842  223.6523 H   0  0  0  0  0  0  0  0  0  0  0  0
  136.3747   76.4501  223.3104 H   0  0  0  0  0  0  0  0  0  0  0  0
  135.0083   78.4977  222.9171 H   0  0  0  0  0  0  0  0  0  0  0  0
  136.0033   80.4565  221.7353 H   0  0  0  0  0  0  0  0  0  0  0  0
  138.3660   80.3741  220.9492 H   0  0  0  0  0  0  0  0  0  0  0  0
  140.1501   78.7814  220.1894 H   0  0  0  0  0  0  0  0  0  0  0  0
  141.0963   77.6963  223.6834 H   0  0  0  0  0  0  0  0  0  0  0  0
  142.5083   79.0879  225.1949 H   0  0  0  0  0  0  0  0  0  0  0  0
  143.2203   81.3745  224.4940 H   0  0  0  0  0  0  0  0  0  0  0  0
  142.5213   82.2742  222.2742 H   0  0  0  0  0  0  0  0  0  0  0  0
  141.1109   80.8911  220.7502 H   0  0  0  0  0  0  0  0  0  0  0  0
  1  2  1  0
  2  3  2  0
  3  4  1  0
  4  5  2  0
  5  6  1  0
  6  7  2  0
  6  8  1  0
  5  9  1  0
  9 10  1  0
 10 11  2  0
 11 12  1  0
 12 13  2  0
 13 14  1  0
 14 15  2  0
 15 16  1  0
 16 17  1  0
 17 18  2  0
 18 19  1  0
 19 20  2  0
 20 21  1  0
 21 22  2  0
  8  2  1  0
 15 10  1  0
 22 17  1  0
 16  4  1  0
  1 23  1  0
  1 24  1  0
  1 25  1  0
  3 26  1  0
  9 27  1  0
  9 28  1  0
 11 29  1  0
 12 30  1  0
 13 31  1  0
 14 32  1  0
 16 33  1  6
 18 34  1  0
 19 35  1  0
 20 36  1  0
 21 37  1  0
 22 38  1  0
M  END
>  <UniqueID>  (6) 
16

>  <SMILES>  (6) 
Cc1cc2c(c(=O)o1)Cc1ccccc1[C@H]2c1ccccc1

>  <Energy>  (6) 
47.71909749416466

>  <Genealogy>  (6) 
Cc1cc2c(c(=O)o1)Cc1ccccc1[C@H]2c1ccccc1 (chirality)
Cc1cc2c(c(=O)o1)Cc1ccccc1[C@H]2c1ccccc1 (3D coordinates assigned)
Cc1cc2c(c(=O)o1)Cc1ccccc1[C@H]2c1ccccc1 (nonaromatic ring conformer: 47.71909749416466 kcal/mol)

>  <smiles>  (6) 
Cc1cc2c(c(=O)o1)Cc1ccccc1C2c1ccccc1

>  <score_type>  (6) 
oracle

>  <origin>  (6) 
autodockgpu

>  <m_score__min__energy>  (6) 
-6.7800000000000002

>  <m_primary>  (6) 
energy

>  <meeko>  (6) 
{"free_energy": -6.77, "intermolecular_energy": -7.07, "internal_energy": -0.77, "cluster_size": 20, "cluster_id": 1, "rank_in_cluster": 5}

>  <energy>  (6) 
-6.77

>  <cluster_rmsd>  (6) 
0.02

>  <rmsd>  (6) 
270.27

>  <cluster>  (6) 
1

$$$$
ZZFUSXOZLWDLQL-LJQANCHMNA-N
     RDKit          3D

 38 41  0  0  0  0  0  0  0  0999 V2000
  143.6740   75.2750  219.3930 C   0  0  0  0  0  0  0  0  0  0  0  0
  142.4430   75.5010  220.2090 C   0  0  0  0  0  0  0  0  0  0  0  0
  141.8830   76.7790  220.3010 C   0  0  0  0  0  0  0  0  0  0  0  0
  140.7270   76.9670  221.0700 C   0  0  0  0  0  0  0  0  0  0  0  0
  140.1570   75.8610  221.7270 C   0  0  0  0  0  0  0  0  0  0  0  0
  140.7930   74.6100  221.6000 C   0  0  0  0  0  0  0  0  0  0  0  0
  140.3360   73.5960  222.1930 O   0  0  0  0  0  0  0  0  0  0  0  0
  141.8870   74.4810  220.8550 O   0  0  0  0  0  0  0  0  0  0  0  0
  138.9410   76.0120  222.6100 C   0  0  0  0  0  0  0  0  0  0  0  0
  138.1380   77.2540  222.3200 C   0  0  0  0  0  0  0  0  0  0  0  0
  136.8100   77.3240  222.7730 C   0  0  0  0  0  0  0  0  0  0  0  0
  136.0470   78.4740  222.5580 C   0  0  0  0  0  0  0  0  0  0  0  0
  136.6070   79.5700  221.9010 C   0  0  0  0  0  0  0  0  0  0  0  0
  137.9310   79.5200  221.4590 C   0  0  0  0  0  0  0  0  0  0  0  0
  138.7070   78.3660  221.6620 C   0  0  0  0  0  0  0  0  0  0  0  0
  140.1480   78.3590  221.2000 C   0  0  1  0  0  0  0  0  0  0  0  0
  141.0070   79.2080  222.1160 C   0  0  0  0  0  0  0  0  0  0  0  0
  141.4120   78.7060  223.3660 C   0  0  0  0  0  0  0  0  0  0  0  0
  142.2030   79.4830  224.2170 C   0  0  0  0  0  0  0  0  0  0  0  0
  142.5970   80.7670  223.8320 C   0  0  0  0  0  0  0  0  0  0  0  0
  142.2000   81.2760  222.5940 C   0  0  0  0  0  0  0  0  0  0  0  0
  141.4090   80.5040  221.7380 C   0  0  0  0  0  0  0  0  0  0  0  0
  144.5332   75.1173  220.0615 H   0  0  0  0  0  0  0  0  0  0  0  0
  143.5354   74.3873  218.7584 H   0  0  0  0  0  0  0  0  0  0  0  0
  143.8597   76.1541  218.7584 H   0  0  0  0  0  0  0  0  0  0  0  0
  142.3451   77.6276  219.7753 H   0  0  0  0  0  0  0  0  0  0  0  0
  138.2926   75.1358  222.4624 H   0  0  0  0  0  0  0  0  0  0  0  0
  139.3016   76.0944  223.6460 H   0  0  0  0  0  0  0  0  0  0  0  0
  136.3676   76.4664  223.3011 H   0  0  0  0  0  0  0  0  0  0  0  0
  135.0046   78.5155  222.9067 H   0  0  0  0  0  0  0  0  0  0  0  0
  136.0050   80.4748  221.7309 H   0  0  0  0  0  0  0  0  0  0  0  0
  138.3695   80.3901  220.9484 H   0  0  0  0  0  0  0  0  0  0  0  0
  140.1516   78.7946  220.1899 H   0  0  0  0  0  0  0  0  0  0  0  0
  141.1045   77.6962  223.6755 H   0  0  0  0  0  0  0  0  0  0  0  0
  142.5162   79.0825  225.1925 H   0  0  0  0  0  0  0  0  0  0  0  0
  143.2195   81.3764  224.5037 H   0  0  0  0  0  0  0  0  0  0  0  0
  142.5104   82.2870  222.2914 H   0  0  0  0  0  0  0  0  0  0  0  0
  141.0989   80.9108  220.7642 H   0  0  0  0  0  0  0  0  0  0  0  0
  1  2  1  0
  2  3  2  0
  3  4  1  0
  4  5  2  0
  5  6  1  0
  6  7  2  0
  6  8  1  0
  5  9  1  0
  9 10  1  0
 10 11  2  0
 11 12  1  0
 12 13  2  0
 13 14  1  0
 14 15  2  0
 15 16  1  0
 16 17  1  0
 17 18  2  0
 18 19  1  0
 19 20  2  0
 20 21  1  0
 21 22  2  0
  8  2  1  0
 15 10  1  0
 22 17  1  0
 16  4  1  0
  1 23  1  0
  1 24  1  0
  1 25  1  0
  3 26  1  0
  9 27  1  0
  9 28  1  0
 11 29  1  0
 12 30  1  0
 13 31  1  0
 14 32  1  0
 16 33  1  6
 18 34  1  0
 19 35  1  0
 20 36  1  0
 21 37  1  0
 22 38  1  0
M  END
>  <UniqueID>  (7) 
16

>  <SMILES>  (7) 
Cc1cc2c(c(=O)o1)Cc1ccccc1[C@H]2c1ccccc1

>  <Energy>  (7) 
47.71909749416466

>  <Genealogy>  (7) 
Cc1cc2c(c(=O)o1)Cc1ccccc1[C@H]2c1ccccc1 (chirality)
Cc1cc2c(c(=O)o1)Cc1ccccc1[C@H]2c1ccccc1 (3D coordinates assigned)
Cc1cc2c(c(=O)o1)Cc1ccccc1[C@H]2c1ccccc1 (nonaromatic ring conformer: 47.71909749416466 kcal/mol)

>  <smiles>  (7) 
Cc1cc2c(c(=O)o1)Cc1ccccc1C2c1ccccc1

>  <score_type>  (7) 
oracle

>  <origin>  (7) 
autodockgpu

>  <m_score__min__energy>  (7) 
-6.7800000000000002

>  <m_primary>  (7) 
energy

>  <meeko>  (7) 
{"free_energy": -6.78, "intermolecular_energy": -7.08, "internal_energy": -0.77, "cluster_size": 20, "cluster_id": 1, "rank_in_cluster": 2}

>  <energy>  (7) 
-6.77

>  <cluster_rmsd>  (7) 
0.02

>  <rmsd>  (7) 
270.27

>  <cluster>  (7) 
1

$$$$
ZZFUSXOZLWDLQL-LJQANCHMNA-N
     RDKit          3D

 38 41  0  0  0  0  0  0  0  0999 V2000
  143.6860   75.3020  219.3880 C   0  0  0  0  0  0  0  0  0  0  0  0
  142.4550   75.5220  220.2070 C   0  0  0  0  0  0  0  0  0  0  0  0
  141.8890   76.7960  220.2990 C   0  0  0  0  0  0  0  0  0  0  0  0
  140.7340   76.9790  221.0700 C   0  0  0  0  0  0  0  0  0  0  0  0
  140.1710   75.8710  221.7300 C   0  0  0  0  0  0  0  0  0  0  0  0
  140.8140   74.6230  221.6020 C   0  0  0  0  0  0  0  0  0  0  0  0
  140.3640   73.6070  222.1970 O   0  0  0  0  0  0  0  0  0  0  0  0
  141.9070   74.5000  220.8550 O   0  0  0  0  0  0  0  0  0  0  0  0
  138.9560   76.0160  222.6160 C   0  0  0  0  0  0  0  0  0  0  0  0
  138.1460   77.2520  222.3260 C   0  0  0  0  0  0  0  0  0  0  0  0
  136.8180   77.3150  222.7820 C   0  0  0  0  0  0  0  0  0  0  0  0
  136.0490   78.4610  222.5680 C   0  0  0  0  0  0  0  0  0  0  0  0
  136.6010   79.5590  221.9090 C   0  0  0  0  0  0  0  0  0  0  0  0
  137.9240   79.5170  221.4640 C   0  0  0  0  0  0  0  0  0  0  0  0
  138.7070   78.3670  221.6660 C   0  0  0  0  0  0  0  0  0  0  0  0
  140.1470   78.3680  221.2010 C   0  0  1  0  0  0  0  0  0  0  0  0
  141.0030   79.2220  222.1140 C   0  0  0  0  0  0  0  0  0  0  0  0
  141.4110   78.7250  223.3650 C   0  0  0  0  0  0  0  0  0  0  0  0
  142.2000   79.5080  224.2140 C   0  0  0  0  0  0  0  0  0  0  0  0
  142.5880   80.7920  223.8250 C   0  0  0  0  0  0  0  0  0  0  0  0
  142.1890   81.2970  222.5860 C   0  0  0  0  0  0  0  0  0  0  0  0
  141.4010   80.5190  221.7320 C   0  0  0  0  0  0  0  0  0  0  0  0
  144.5473   75.1481  220.0547 H   0  0  0  0  0  0  0  0  0  0  0  0
  143.5503   74.4139  218.7533 H   0  0  0  0  0  0  0  0  0  0  0  0
  143.8663   76.1822  218.7533 H   0  0  0  0  0  0  0  0  0  0  0  0
  142.3456   77.6464  219.7715 H   0  0  0  0  0  0  0  0  0  0  0  0
  138.3123   75.1358  222.4712 H   0  0  0  0  0  0  0  0  0  0  0  0
  139.3183   76.1017  223.6511 H   0  0  0  0  0  0  0  0  0  0  0  0
  136.3811   76.4554  223.3113 H   0  0  0  0  0  0  0  0  0  0  0  0
  135.0073   78.4975  222.9195 H   0  0  0  0  0  0  0  0  0  0  0  0
  135.9931   80.4599  221.7394 H   0  0  0  0  0  0  0  0  0  0  0  0
  138.3563   80.3894  220.9521 H   0  0  0  0  0  0  0  0  0  0  0  0
  140.1456   78.8032  220.1908 H   0  0  0  0  0  0  0  0  0  0  0  0
  141.1078   77.7148  223.6774 H   0  0  0  0  0  0  0  0  0  0  0  0
  142.5156   79.1116  225.1903 H   0  0  0  0  0  0  0  0  0  0  0  0
  143.2081   81.4056  224.4950 H   0  0  0  0  0  0  0  0  0  0  0  0
  142.4950   82.3086  222.2811 H   0  0  0  0  0  0  0  0  0  0  0  0
  141.0900   80.9215  220.7567 H   0  0  0  0  0  0  0  0  0  0  0  0
  1  2  1  0
  2  3  2  0
  3  4  1  0
  4  5  2  0
  5  6  1  0
  6  7  2  0
  6  8  1  0
  5  9  1  0
  9 10  1  0
 10 11  2  0
 11 12  1  0
 12 13  2  0
 13 14  1  0
 14 15  2  0
 15 16  1  0
 16 17  1  0
 17 18  2  0
 18 19  1  0
 19 20  2  0
 20 21  1  0
 21 22  2  0
  8  2  1  0
 15 10  1  0
 22 17  1  0
 16  4  1  0
  1 23  1  0
  1 24  1  0
  1 25  1  0
  3 26  1  0
  9 27  1  0
  9 28  1  0
 11 29  1  0
 12 30  1  0
 13 31  1  0
 14 32  1  0
 16 33  1  6
 18 34  1  0
 19 35  1  0
 20 36  1  0
 21 37  1  0
 22 38  1  0
M  END
>  <UniqueID>  (8) 
16

>  <SMILES>  (8) 
Cc1cc2c(c(=O)o1)Cc1ccccc1[C@H]2c1ccccc1

>  <Energy>  (8) 
47.71909749416466

>  <Genealogy>  (8) 
Cc1cc2c(c(=O)o1)Cc1ccccc1[C@H]2c1ccccc1 (chirality)
Cc1cc2c(c(=O)o1)Cc1ccccc1[C@H]2c1ccccc1 (3D coordinates assigned)
Cc1cc2c(c(=O)o1)Cc1ccccc1[C@H]2c1ccccc1 (nonaromatic ring conformer: 47.71909749416466 kcal/mol)

>  <smiles>  (8) 
Cc1cc2c(c(=O)o1)Cc1ccccc1C2c1ccccc1

>  <score_type>  (8) 
oracle

>  <origin>  (8) 
autodockgpu

>  <m_score__min__energy>  (8) 
-6.7800000000000002

>  <m_primary>  (8) 
energy

>  <meeko>  (8) 
{"free_energy": -6.77, "intermolecular_energy": -7.07, "internal_energy": -0.77, "cluster_size": 20, "cluster_id": 1, "rank_in_cluster": 11}

>  <energy>  (8) 
-6.77

>  <cluster_rmsd>  (8) 
0.02

>  <rmsd>  (8) 
270.27

>  <cluster>  (8) 
1

$$$$
ZZFUSXOZLWDLQL-LJQANCHMNA-N
     RDKit          3D

 38 41  0  0  0  0  0  0  0  0999 V2000
  143.6930   75.3020  219.3930 C   0  0  0  0  0  0  0  0  0  0  0  0
  142.4610   75.5190  220.2100 C   0  0  0  0  0  0  0  0  0  0  0  0
  141.8930   76.7930  220.3030 C   0  0  0  0  0  0  0  0  0  0  0  0
  140.7370   76.9740  221.0730 C   0  0  0  0  0  0  0  0  0  0  0  0
  140.1750   75.8640  221.7320 C   0  0  0  0  0  0  0  0  0  0  0  0
  140.8200   74.6180  221.6040 C   0  0  0  0  0  0  0  0  0  0  0  0
  140.3710   73.6010  222.1980 O   0  0  0  0  0  0  0  0  0  0  0  0
  141.9130   74.4960  220.8570 O   0  0  0  0  0  0  0  0  0  0  0  0
  138.9600   76.0070  222.6180 C   0  0  0  0  0  0  0  0  0  0  0  0
  138.1480   77.2430  222.3280 C   0  0  0  0  0  0  0  0  0  0  0  0
  136.8200   77.3050  222.7830 C   0  0  0  0  0  0  0  0  0  0  0  0
  136.0490   78.4500  222.5690 C   0  0  0  0  0  0  0  0  0  0  0  0
  136.6010   79.5490  221.9110 C   0  0  0  0  0  0  0  0  0  0  0  0
  137.9240   79.5080  221.4670 C   0  0  0  0  0  0  0  0  0  0  0  0
  138.7090   78.3590  221.6690 C   0  0  0  0  0  0  0  0  0  0  0  0
  140.1490   78.3620  221.2050 C   0  0  1  0  0  0  0  0  0  0  0  0
  141.0030   79.2170  222.1190 C   0  0  0  0  0  0  0  0  0  0  0  0
  141.4140   78.7180  223.3680 C   0  0  0  0  0  0  0  0  0  0  0  0
  142.2020   79.5000  224.2180 C   0  0  0  0  0  0  0  0  0  0  0  0
  142.5850   80.7870  223.8320 C   0  0  0  0  0  0  0  0  0  0  0  0
  142.1830   81.2940  222.5950 C   0  0  0  0  0  0  0  0  0  0  0  0
  141.3960   80.5150  221.7400 C   0  0  0  0  0  0  0  0  0  0  0  0
  144.5538   75.1504  220.0608 H   0  0  0  0  0  0  0  0  0  0  0  0
  143.5603   74.4134  218.7584 H   0  0  0  0  0  0  0  0  0  0  0  0
  143.8719   76.1825  218.7584 H   0  0  0  0  0  0  0  0  0  0  0  0
  142.3492   77.6445  219.7769 H   0  0  0  0  0  0  0  0  0  0  0  0
  138.3174   75.1261  222.4730 H   0  0  0  0  0  0  0  0  0  0  0  0
  139.3221   76.0927  223.6532 H   0  0  0  0  0  0  0  0  0  0  0  0
  136.3840   76.4448  223.3121 H   0  0  0  0  0  0  0  0  0  0  0  0
  135.0068   78.4849  222.9193 H   0  0  0  0  0  0  0  0  0  0  0  0
  135.9928   80.4498  221.7416 H   0  0  0  0  0  0  0  0  0  0  0  0
  138.3555   80.3810  220.9554 H   0  0  0  0  0  0  0  0  0  0  0  0
  140.1485   78.7978  220.1950 H   0  0  0  0  0  0  0  0  0  0  0  0
  141.1137   77.7062  223.6781 H   0  0  0  0  0  0  0  0  0  0  0  0
  142.5209   79.1013  225.1923 H   0  0  0  0  0  0  0  0  0  0  0  0
  143.2036   81.4010  224.5031 H   0  0  0  0  0  0  0  0  0  0  0  0
  142.4854   82.3073  222.2922 H   0  0  0  0  0  0  0  0  0  0  0  0
  141.0824   80.9188  220.7660 H   0  0  0  0  0  0  0  0  0  0  0  0
  1  2  1  0
  2  3  2  0
  3  4  1  0
  4  5  2  0
  5  6  1  0
  6  7  2  0
  6  8  1  0
  5  9  1  0
  9 10  1  0
 10 11  2  0
 11 12  1  0
 12 13  2  0
 13 14  1  0
 14 15  2  0
 15 16  1  0
 16 17  1  0
 17 18  2  0
 18 19  1  0
 19 20  2  0
 20 21  1  0
 21 22  2  0
  8  2  1  0
 15 10  1  0
 22 17  1  0
 16  4  1  0
  1 23  1  0
  1 24  1  0
  1 25  1  0
  3 26  1  0
  9 27  1  0
  9 28  1  0
 11 29  1  0
 12 30  1  0
 13 31  1  0
 14 32  1  0
 16 33  1  6
 18 34  1  0
 19 35  1  0
 20 36  1  0
 21 37  1  0
 22 38  1  0
M  END
>  <UniqueID>  (9) 
16

>  <SMILES>  (9) 
Cc1cc2c(c(=O)o1)Cc1ccccc1[C@H]2c1ccccc1

>  <Energy>  (9) 
47.71909749416466

>  <Genealogy>  (9) 
Cc1cc2c(c(=O)o1)Cc1ccccc1[C@H]2c1ccccc1 (chirality)
Cc1cc2c(c(=O)o1)Cc1ccccc1[C@H]2c1ccccc1 (3D coordinates assigned)
Cc1cc2c(c(=O)o1)Cc1ccccc1[C@H]2c1ccccc1 (nonaromatic ring conformer: 47.71909749416466 kcal/mol)

>  <smiles>  (9) 
Cc1cc2c(c(=O)o1)Cc1ccccc1C2c1ccccc1

>  <score_type>  (9) 
oracle

>  <origin>  (9) 
autodockgpu

>  <m_score__min__energy>  (9) 
-6.7800000000000002

>  <m_primary>  (9) 
energy

>  <meeko>  (9) 
{"free_energy": -6.77, "intermolecular_energy": -7.07, "internal_energy": -0.77, "cluster_size": 20, "cluster_id": 1, "rank_in_cluster": 18}

>  <energy>  (9) 
-6.77

>  <cluster_rmsd>  (9) 
0.02

>  <rmsd>  (9) 
270.27

>  <cluster>  (9) 
1

$$$$
ZZFUSXOZLWDLQL-LJQANCHMNA-N
     RDKit          3D

 38 41  0  0  0  0  0  0  0  0999 V2000
  143.6600   75.2870  219.3680 C   0  0  0  0  0  0  0  0  0  0  0  0
  142.4340   75.5040  220.1930 C   0  0  0  0  0  0  0  0  0  0  0  0
  141.8690   76.7790  220.2930 C   0  0  0  0  0  0  0  0  0  0  0  0
  140.7170   76.9600  221.0700 C   0  0  0  0  0  0  0  0  0  0  0  0
  140.1570   75.8490  221.7290 C   0  0  0  0  0  0  0  0  0  0  0  0
  140.7990   74.6020  221.5930 C   0  0  0  0  0  0  0  0  0  0  0  0
  140.3510   73.5840  222.1870 O   0  0  0  0  0  0  0  0  0  0  0  0
  141.8880   74.4800  220.8410 O   0  0  0  0  0  0  0  0  0  0  0  0
  138.9470   75.9920  222.6210 C   0  0  0  0  0  0  0  0  0  0  0  0
  138.1360   77.2300  222.3400 C   0  0  0  0  0  0  0  0  0  0  0  0
  136.8110   77.2930  222.8030 C   0  0  0  0  0  0  0  0  0  0  0  0
  136.0410   78.4400  222.5960 C   0  0  0  0  0  0  0  0  0  0  0  0
  136.5900   79.5400  221.9390 C   0  0  0  0  0  0  0  0  0  0  0  0
  137.9110   79.4980  221.4870 C   0  0  0  0  0  0  0  0  0  0  0  0
  138.6950   78.3470  221.6810 C   0  0  0  0  0  0  0  0  0  0  0  0
  140.1330   78.3480  221.2090 C   0  0  1  0  0  0  0  0  0  0  0  0
  140.9940   79.1990  222.1210 C   0  0  0  0  0  0  0  0  0  0  0  0
  141.3950   78.7030  223.3740 C   0  0  0  0  0  0  0  0  0  0  0  0
  142.1880   79.4820  224.2220 C   0  0  0  0  0  0  0  0  0  0  0  0
  142.5880   80.7620  223.8300 C   0  0  0  0  0  0  0  0  0  0  0  0
  142.1960   81.2650  222.5880 C   0  0  0  0  0  0  0  0  0  0  0  0
  141.4030   80.4910  221.7350 C   0  0  0  0  0  0  0  0  0  0  0  0
  144.5251   75.1339  220.0300 H   0  0  0  0  0  0  0  0  0  0  0  0
  143.5224   74.3993  218.7332 H   0  0  0  0  0  0  0  0  0  0  0  0
  143.8355   76.1680  218.7332 H   0  0  0  0  0  0  0  0  0  0  0  0
  142.3241   77.6313  219.7671 H   0  0  0  0  0  0  0  0  0  0  0  0
  138.3019   75.1129  222.4762 H   0  0  0  0  0  0  0  0  0  0  0  0
  139.3149   76.0739  223.6544 H   0  0  0  0  0  0  0  0  0  0  0  0
  136.3765   76.4324  223.3327 H   0  0  0  0  0  0  0  0  0  0  0  0
  135.0007   78.4752  222.9517 H   0  0  0  0  0  0  0  0  0  0  0  0
  135.9822   80.4423  221.7763 H   0  0  0  0  0  0  0  0  0  0  0  0
  138.3411   80.3717  220.9755 H   0  0  0  0  0  0  0  0  0  0  0  0
  140.1279   78.7864  220.2001 H   0  0  0  0  0  0  0  0  0  0  0  0
  141.0830   77.6963  223.6889 H   0  0  0  0  0  0  0  0  0  0  0  0
  142.4978   79.0861  225.2004 H   0  0  0  0  0  0  0  0  0  0  0  0
  143.2113   81.3730  224.4994 H   0  0  0  0  0  0  0  0  0  0  0  0
  142.5117   82.2726  222.2797 H   0  0  0  0  0  0  0  0  0  0  0  0
  141.0970   80.8928  220.7578 H   0  0  0  0  0  0  0  0  0  0  0  0
  1  2  1  0
  2  3  2  0
  3  4  1  0
  4  5  2  0
  5  6  1  0
  6  7  2  0
  6  8  1  0
  5  9  1  0
  9 10  1  0
 10 11  2  0
 11 12  1  0
 12 13  2  0
 13 14  1  0
 14 15  2  0
 15 16  1  0
 16 17  1  0
 17 18  2  0
 18 19  1  0
 19 20  2  0
 20 21  1  0
 21 22  2  0
  8  2  1  0
 15 10  1  0
 22 17  1  0
 16  4  1  0
  1 23  1  0
  1 24  1  0
  1 25  1  0
  3 26  1  0
  9 27  1  0
  9 28  1  0
 11 29  1  0
 12 30  1  0
 13 31  1  0
 14 32  1  0
 16 33  1  6
 18 34  1  0
 19 35  1  0
 20 36  1  0
 21 37  1  0
 22 38  1  0
M  END
>  <UniqueID>  (10) 
16

>  <SMILES>  (10) 
Cc1cc2c(c(=O)o1)Cc1ccccc1[C@H]2c1ccccc1

>  <Energy>  (10) 
47.71909749416466

>  <Genealogy>  (10) 
Cc1cc2c(c(=O)o1)Cc1ccccc1[C@H]2c1ccccc1 (chirality)
Cc1cc2c(c(=O)o1)Cc1ccccc1[C@H]2c1ccccc1 (3D coordinates assigned)
Cc1cc2c(c(=O)o1)Cc1ccccc1[C@H]2c1ccccc1 (nonaromatic ring conformer: 47.71909749416466 kcal/mol)

>  <smiles>  (10) 
Cc1cc2c(c(=O)o1)Cc1ccccc1C2c1ccccc1

>  <score_type>  (10) 
oracle

>  <origin>  (10) 
autodockgpu

>  <m_score__min__energy>  (10) 
-6.7800000000000002

>  <m_primary>  (10) 
energy

>  <meeko>  (10) 
{"free_energy": -6.77, "intermolecular_energy": -7.07, "internal_energy": -0.77, "cluster_size": 20, "cluster_id": 1, "rank_in_cluster": 12}

>  <energy>  (10) 
-6.77

>  <cluster_rmsd>  (10) 
0.02

>  <rmsd>  (10) 
270.27

>  <cluster>  (10) 
1

$$$$
ZZFUSXOZLWDLQL-LJQANCHMNA-N
     RDKit          3D

 38 41  0  0  0  0  0  0  0  0999 V2000
  143.6730   75.2790  219.4020 C   0  0  0  0  0  0  0  0  0  0  0  0
  142.4400   75.5000  220.2170 C   0  0  0  0  0  0  0  0  0  0  0  0
  141.8770   76.7770  220.3090 C   0  0  0  0  0  0  0  0  0  0  0  0
  140.7200   76.9610  221.0770 C   0  0  0  0  0  0  0  0  0  0  0  0
  140.1520   75.8530  221.7330 C   0  0  0  0  0  0  0  0  0  0  0  0
  140.7920   74.6040  221.6060 C   0  0  0  0  0  0  0  0  0  0  0  0
  140.3380   73.5890  222.1980 O   0  0  0  0  0  0  0  0  0  0  0  0
  141.8870   74.4790  220.8620 O   0  0  0  0  0  0  0  0  0  0  0  0
  138.9350   76.0010  222.6160 C   0  0  0  0  0  0  0  0  0  0  0  0
  138.1290   77.2400  222.3250 C   0  0  0  0  0  0  0  0  0  0  0  0
  136.8000   77.3060  222.7780 C   0  0  0  0  0  0  0  0  0  0  0  0
  136.0340   78.4540  222.5620 C   0  0  0  0  0  0  0  0  0  0  0  0
  136.5910   79.5520  221.9070 C   0  0  0  0  0  0  0  0  0  0  0  0
  137.9160   79.5060  221.4660 C   0  0  0  0  0  0  0  0  0  0  0  0
  138.6950   78.3540  221.6690 C   0  0  0  0  0  0  0  0  0  0  0  0
  140.1370   78.3510  221.2070 C   0  0  1  0  0  0  0  0  0  0  0  0
  140.9920   79.2020  222.1250 C   0  0  0  0  0  0  0  0  0  0  0  0
  141.4110   78.6950  223.3680 C   0  0  0  0  0  0  0  0  0  0  0  0
  142.1990   79.4740  224.2200 C   0  0  0  0  0  0  0  0  0  0  0  0
  142.5770   80.7650  223.8430 C   0  0  0  0  0  0  0  0  0  0  0  0
  142.1670   81.2800  222.6110 C   0  0  0  0  0  0  0  0  0  0  0  0
  141.3780   80.5050  221.7540 C   0  0  0  0  0  0  0  0  0  0  0  0
  144.5322   75.1250  220.0713 H   0  0  0  0  0  0  0  0  0  0  0  0
  143.5387   74.3906  218.7674 H   0  0  0  0  0  0  0  0  0  0  0  0
  143.8556   76.1587  218.7674 H   0  0  0  0  0  0  0  0  0  0  0  0
  142.3375   77.6271  219.7843 H   0  0  0  0  0  0  0  0  0  0  0  0
  138.2891   75.1228  222.4688 H   0  0  0  0  0  0  0  0  0  0  0  0
  139.2950   76.0849  223.6520 H   0  0  0  0  0  0  0  0  0  0  0  0
  136.3600   76.4474  223.3064 H   0  0  0  0  0  0  0  0  0  0  0  0
  134.9908   78.4920  222.9088 H   0  0  0  0  0  0  0  0  0  0  0  0
  135.9866   80.4553  221.7374 H   0  0  0  0  0  0  0  0  0  0  0  0
  138.3525   80.3776  220.9563 H   0  0  0  0  0  0  0  0  0  0  0  0
  140.1406   78.7863  220.1968 H   0  0  0  0  0  0  0  0  0  0  0  0
  141.1169   77.6794  223.6715 H   0  0  0  0  0  0  0  0  0  0  0  0
  142.5225   79.0693  225.1903 H   0  0  0  0  0  0  0  0  0  0  0  0
  143.1971   81.3755  224.5159 H   0  0  0  0  0  0  0  0  0  0  0  0
  142.4649   82.2964  222.3141 H   0  0  0  0  0  0  0  0  0  0  0  0
  141.0573   80.9154  220.7851 H   0  0  0  0  0  0  0  0  0  0  0  0
  1  2  1  0
  2  3  2  0
  3  4  1  0
  4  5  2  0
  5  6  1  0
  6  7  2  0
  6  8  1  0
  5  9  1  0
  9 10  1  0
 10 11  2  0
 11 12  1  0
 12 13  2  0
 13 14  1  0
 14 15  2  0
 15 16  1  0
 16 17  1  0
 17 18  2  0
 18 19  1  0
 19 20  2  0
 20 21  1  0
 21 22  2  0
  8  2  1  0
 15 10  1  0
 22 17  1  0
 16  4  1  0
  1 23  1  0
  1 24  1  0
  1 25  1  0
  3 26  1  0
  9 27  1  0
  9 28  1  0
 11 29  1  0
 12 30  1  0
 13 31  1  0
 14 32  1  0
 16 33  1  6
 18 34  1  0
 19 35  1  0
 20 36  1  0
 21 37  1  0
 22 38  1  0
M  END
>  <UniqueID>  (11) 
16

>  <SMILES>  (11) 
Cc1cc2c(c(=O)o1)Cc1ccccc1[C@H]2c1ccccc1

>  <Energy>  (11) 
47.71909749416466

>  <Genealogy>  (11) 
Cc1cc2c(c(=O)o1)Cc1ccccc1[C@H]2c1ccccc1 (chirality)
Cc1cc2c(c(=O)o1)Cc1ccccc1[C@H]2c1ccccc1 (3D coordinates assigned)
Cc1cc2c(c(=O)o1)Cc1ccccc1[C@H]2c1ccccc1 (nonaromatic ring conformer: 47.71909749416466 kcal/mol)

>  <smiles>  (11) 
Cc1cc2c(c(=O)o1)Cc1ccccc1C2c1ccccc1

>  <score_type>  (11) 
oracle

>  <origin>  (11) 
autodockgpu

>  <m_score__min__energy>  (11) 
-6.7800000000000002

>  <m_primary>  (11) 
energy

>  <meeko>  (11) 
{"free_energy": -6.77, "intermolecular_energy": -7.07, "internal_energy": -0.77, "cluster_size": 20, "cluster_id": 1, "rank_in_cluster": 9}

>  <energy>  (11) 
-6.77

>  <cluster_rmsd>  (11) 
0.02

>  <rmsd>  (11) 
270.28

>  <cluster>  (11) 
1

$$$$
ZZFUSXOZLWDLQL-LJQANCHMNA-N
     RDKit          3D

 38 41  0  0  0  0  0  0  0  0999 V2000
  143.6970   75.2750  219.4020 C   0  0  0  0  0  0  0  0  0  0  0  0
  142.4640   75.4960  220.2160 C   0  0  0  0  0  0  0  0  0  0  0  0
  141.9000   76.7720  220.3070 C   0  0  0  0  0  0  0  0  0  0  0  0
  140.7420   76.9570  221.0740 C   0  0  0  0  0  0  0  0  0  0  0  0
  140.1750   75.8500  221.7320 C   0  0  0  0  0  0  0  0  0  0  0  0
  140.8160   74.6010  221.6060 C   0  0  0  0  0  0  0  0  0  0  0  0
  140.3620   73.5860  222.1990 O   0  0  0  0  0  0  0  0  0  0  0  0
  141.9110   74.4760  220.8620 O   0  0  0  0  0  0  0  0  0  0  0  0
  138.9570   75.9970  222.6140 C   0  0  0  0  0  0  0  0  0  0  0  0
  138.1500   77.2350  222.3210 C   0  0  0  0  0  0  0  0  0  0  0  0
  136.8210   77.3010  222.7730 C   0  0  0  0  0  0  0  0  0  0  0  0
  136.0550   78.4490  222.5560 C   0  0  0  0  0  0  0  0  0  0  0  0
  136.6110   79.5460  221.8990 C   0  0  0  0  0  0  0  0  0  0  0  0
  137.9360   79.5000  221.4590 C   0  0  0  0  0  0  0  0  0  0  0  0
  138.7160   78.3490  221.6640 C   0  0  0  0  0  0  0  0  0  0  0  0
  140.1580   78.3470  221.2030 C   0  0  1  0  0  0  0  0  0  0  0  0
  141.0120   79.2000  222.1190 C   0  0  0  0  0  0  0  0  0  0  0  0
  141.4170   78.7010  223.3710 C   0  0  0  0  0  0  0  0  0  0  0  0
  142.2040   79.4810  224.2220 C   0  0  0  0  0  0  0  0  0  0  0  0
  142.5950   80.7660  223.8360 C   0  0  0  0  0  0  0  0  0  0  0  0
  142.1990   81.2720  222.5960 C   0  0  0  0  0  0  0  0  0  0  0  0
  141.4120   80.4960  221.7400 C   0  0  0  0  0  0  0  0  0  0  0  0
  144.5559   75.1211  220.0718 H   0  0  0  0  0  0  0  0  0  0  0  0
  143.5631   74.3866  218.7674 H   0  0  0  0  0  0  0  0  0  0  0  0
  143.8800   76.1547  218.7674 H   0  0  0  0  0  0  0  0  0  0  0  0
  142.3605   77.6219  219.7820 H   0  0  0  0  0  0  0  0  0  0  0  0
  138.3123   75.1180  222.4670 H   0  0  0  0  0  0  0  0  0  0  0  0
  139.3158   76.0819  223.6504 H   0  0  0  0  0  0  0  0  0  0  0  0
  136.3807   76.4426  223.3015 H   0  0  0  0  0  0  0  0  0  0  0  0
  135.0121   78.4875  222.9038 H   0  0  0  0  0  0  0  0  0  0  0  0
  136.0058   80.4483  221.7270 H   0  0  0  0  0  0  0  0  0  0  0  0
  138.3722   80.3712  220.9483 H   0  0  0  0  0  0  0  0  0  0  0  0
  140.1617   78.7816  220.1925 H   0  0  0  0  0  0  0  0  0  0  0  0
  141.1121   77.6907  223.6815 H   0  0  0  0  0  0  0  0  0  0  0  0
  142.5167   79.0826  225.1985 H   0  0  0  0  0  0  0  0  0  0  0  0
  143.2141   81.3783  224.5082 H   0  0  0  0  0  0  0  0  0  0  0  0
  142.5070   82.2834  222.2922 H   0  0  0  0  0  0  0  0  0  0  0  0
  141.1033   80.9001  220.7646 H   0  0  0  0  0  0  0  0  0  0  0  0
  1  2  1  0
  2  3  2  0
  3  4  1  0
  4  5  2  0
  5  6  1  0
  6  7  2  0
  6  8  1  0
  5  9  1  0
  9 10  1  0
 10 11  2  0
 11 12  1  0
 12 13  2  0
 13 14  1  0
 14 15  2  0
 15 16  1  0
 16 17  1  0
 17 18  2  0
 18 19  1  0
 19 20  2  0
 20 21  1  0
 21 22  2  0
  8  2  1  0
 15 10  1  0
 22 17  1  0
 16  4  1  0
  1 23  1  0
  1 24  1  0
  1 25  1  0
  3 26  1  0
  9 27  1  0
  9 28  1  0
 11 29  1  0
 12 30  1  0
 13 31  1  0
 14 32  1  0
 16 33  1  6
 18 34  1  0
 19 35  1  0
 20 36  1  0
 21 37  1  0
 22 38  1  0
M  END
>  <UniqueID>  (12) 
16

>  <SMILES>  (12) 
Cc1cc2c(c(=O)o1)Cc1ccccc1[C@H]2c1ccccc1

>  <Energy>  (12) 
47.71909749416466

>  <Genealogy>  (12) 
Cc1cc2c(c(=O)o1)Cc1ccccc1[C@H]2c1ccccc1 (chirality)
Cc1cc2c(c(=O)o1)Cc1ccccc1[C@H]2c1ccccc1 (3D coordinates assigned)
Cc1cc2c(c(=O)o1)Cc1ccccc1[C@H]2c1ccccc1 (nonaromatic ring conformer: 47.71909749416466 kcal/mol)

>  <smiles>  (12) 
Cc1cc2c(c(=O)o1)Cc1ccccc1C2c1ccccc1

>  <score_type>  (12) 
oracle

>  <origin>  (12) 
autodockgpu

>  <m_score__min__energy>  (12) 
-6.7800000000000002

>  <m_primary>  (12) 
energy

>  <meeko>  (12) 
{"free_energy": -6.77, "intermolecular_energy": -7.07, "internal_energy": -0.77, "cluster_size": 20, "cluster_id": 1, "rank_in_cluster": 20}

>  <energy>  (12) 
-6.77

>  <cluster_rmsd>  (12) 
0.03

>  <rmsd>  (12) 
270.27

>  <cluster>  (12) 
1

$$$$
ZZFUSXOZLWDLQL-LJQANCHMNA-N
     RDKit          3D

 38 41  0  0  0  0  0  0  0  0999 V2000
  143.6560   75.2510  219.4170 C   0  0  0  0  0  0  0  0  0  0  0  0
  142.4240   75.4840  220.2300 C   0  0  0  0  0  0  0  0  0  0  0  0
  141.8700   76.7650  220.3150 C   0  0  0  0  0  0  0  0  0  0  0  0
  140.7130   76.9610  221.0810 C   0  0  0  0  0  0  0  0  0  0  0  0
  140.1380   75.8600  221.7430 C   0  0  0  0  0  0  0  0  0  0  0  0
  140.7690   74.6060  221.6220 C   0  0  0  0  0  0  0  0  0  0  0  0
  140.3080   73.5970  222.2190 O   0  0  0  0  0  0  0  0  0  0  0  0
  141.8640   74.4700  220.8790 O   0  0  0  0  0  0  0  0  0  0  0  0
  138.9210   76.0200  222.6240 C   0  0  0  0  0  0  0  0  0  0  0  0
  138.1230   77.2630  222.3270 C   0  0  0  0  0  0  0  0  0  0  0  0
  136.7950   77.3400  222.7780 C   0  0  0  0  0  0  0  0  0  0  0  0
  136.0370   78.4920  222.5570 C   0  0  0  0  0  0  0  0  0  0  0  0
  136.6020   79.5830  221.8960 C   0  0  0  0  0  0  0  0  0  0  0  0
  137.9260   79.5260  221.4560 C   0  0  0  0  0  0  0  0  0  0  0  0
  138.6980   78.3700  221.6650 C   0  0  0  0  0  0  0  0  0  0  0  0
  140.1390   78.3550  221.2050 C   0  0  1  0  0  0  0  0  0  0  0  0
  141.0000   79.2050  222.1190 C   0  0  0  0  0  0  0  0  0  0  0  0
  141.4050   78.7050  223.3700 C   0  0  0  0  0  0  0  0  0  0  0  0
  142.1980   79.4830  224.2190 C   0  0  0  0  0  0  0  0  0  0  0  0
  142.5930   80.7660  223.8300 C   0  0  0  0  0  0  0  0  0  0  0  0
  142.1970   81.2730  222.5910 C   0  0  0  0  0  0  0  0  0  0  0  0
  141.4050   80.4990  221.7370 C   0  0  0  0  0  0  0  0  0  0  0  0
  144.5127   75.0890  220.0877 H   0  0  0  0  0  0  0  0  0  0  0  0
  143.5142   74.3638  218.7824 H   0  0  0  0  0  0  0  0  0  0  0  0
  143.8480   76.1288  218.7824 H   0  0  0  0  0  0  0  0  0  0  0  0
  142.3370   77.6092  219.7867 H   0  0  0  0  0  0  0  0  0  0  0  0
  138.2696   75.1454  222.4800 H   0  0  0  0  0  0  0  0  0  0  0  0
  139.2807   76.1064  223.6599 H   0  0  0  0  0  0  0  0  0  0  0  0
  136.3486   76.4865  223.3093 H   0  0  0  0  0  0  0  0  0  0  0  0
  134.9943   78.5392  222.9042 H   0  0  0  0  0  0  0  0  0  0  0  0
  136.0037   80.4893  221.7212 H   0  0  0  0  0  0  0  0  0  0  0  0
  138.3682   80.3922  220.9420 H   0  0  0  0  0  0  0  0  0  0  0  0
  140.1455   78.7858  220.1929 H   0  0  0  0  0  0  0  0  0  0  0  0
  141.0961   77.6964  223.6820 H   0  0  0  0  0  0  0  0  0  0  0  0
  142.5116   79.0845  225.1951 H   0  0  0  0  0  0  0  0  0  0  0  0
  143.2160   81.3764  224.5002 H   0  0  0  0  0  0  0  0  0  0  0  0
  142.5085   82.2829  222.2860 H   0  0  0  0  0  0  0  0  0  0  0  0
  141.0965   80.9029  220.7614 H   0  0  0  0  0  0  0  0  0  0  0  0
  1  2  1  0
  2  3  2  0
  3  4  1  0
  4  5  2  0
  5  6  1  0
  6  7  2  0
  6  8  1  0
  5  9  1  0
  9 10  1  0
 10 11  2  0
 11 12  1  0
 12 13  2  0
 13 14  1  0
 14 15  2  0
 15 16  1  0
 16 17  1  0
 17 18  2  0
 18 19  1  0
 19 20  2  0
 20 21  1  0
 21 22  2  0
  8  2  1  0
 15 10  1  0
 22 17  1  0
 16  4  1  0
  1 23  1  0
  1 24  1  0
  1 25  1  0
  3 26  1  0
  9 27  1  0
  9 28  1  0
 11 29  1  0
 12 30  1  0
 13 31  1  0
 14 32  1  0
 16 33  1  6
 18 34  1  0
 19 35  1  0
 20 36  1  0
 21 37  1  0
 22 38  1  0
M  END
>  <UniqueID>  (13) 
16

>  <SMILES>  (13) 
Cc1cc2c(c(=O)o1)Cc1ccccc1[C@H]2c1ccccc1

>  <Energy>  (13) 
47.71909749416466

>  <Genealogy>  (13) 
Cc1cc2c(c(=O)o1)Cc1ccccc1[C@H]2c1ccccc1 (chirality)
Cc1cc2c(c(=O)o1)Cc1ccccc1[C@H]2c1ccccc1 (3D coordinates assigned)
Cc1cc2c(c(=O)o1)Cc1ccccc1[C@H]2c1ccccc1 (nonaromatic ring conformer: 47.71909749416466 kcal/mol)

>  <smiles>  (13) 
Cc1cc2c(c(=O)o1)Cc1ccccc1C2c1ccccc1

>  <score_type>  (13) 
oracle

>  <origin>  (13) 
autodockgpu

>  <m_score__min__energy>  (13) 
-6.7800000000000002

>  <m_primary>  (13) 
energy

>  <meeko>  (13) 
{"free_energy": -6.77, "intermolecular_energy": -7.07, "internal_energy": -0.77, "cluster_size": 20, "cluster_id": 1, "rank_in_cluster": 16}

>  <energy>  (13) 
-6.77

>  <cluster_rmsd>  (13) 
0.02

>  <rmsd>  (13) 
270.28

>  <cluster>  (13) 
1

$$$$
ZZFUSXOZLWDLQL-LJQANCHMNA-N
     RDKit          3D

 38 41  0  0  0  0  0  0  0  0999 V2000
  143.6810   75.2740  219.3960 C   0  0  0  0  0  0  0  0  0  0  0  0
  142.4480   75.5000  220.2090 C   0  0  0  0  0  0  0  0  0  0  0  0
  141.8890   76.7780  220.3000 C   0  0  0  0  0  0  0  0  0  0  0  0
  140.7310   76.9670  221.0660 C   0  0  0  0  0  0  0  0  0  0  0  0
  140.1600   75.8610  221.7230 C   0  0  0  0  0  0  0  0  0  0  0  0
  140.7960   74.6100  221.5970 C   0  0  0  0  0  0  0  0  0  0  0  0
  140.3380   73.5960  222.1900 O   0  0  0  0  0  0  0  0  0  0  0  0
  141.8910   74.4810  220.8550 O   0  0  0  0  0  0  0  0  0  0  0  0
  138.9420   76.0130  222.6040 C   0  0  0  0  0  0  0  0  0  0  0  0
  138.1400   77.2540  222.3120 C   0  0  0  0  0  0  0  0  0  0  0  0
  136.8110   77.3240  222.7630 C   0  0  0  0  0  0  0  0  0  0  0  0
  136.0490   78.4750  222.5460 C   0  0  0  0  0  0  0  0  0  0  0  0
  136.6090   79.5700  221.8900 C   0  0  0  0  0  0  0  0  0  0  0  0
  137.9340   79.5200  221.4500 C   0  0  0  0  0  0  0  0  0  0  0  0
  138.7100   78.3660  221.6550 C   0  0  0  0  0  0  0  0  0  0  0  0
  140.1520   78.3590  221.1950 C   0  0  1  0  0  0  0  0  0  0  0  0
  141.0090   79.2080  222.1130 C   0  0  0  0  0  0  0  0  0  0  0  0
  141.4110   78.7060  223.3640 C   0  0  0  0  0  0  0  0  0  0  0  0
  142.2010   79.4840  224.2160 C   0  0  0  0  0  0  0  0  0  0  0  0
  142.5960   80.7680  223.8310 C   0  0  0  0  0  0  0  0  0  0  0  0
  142.2020   81.2760  222.5910 C   0  0  0  0  0  0  0  0  0  0  0  0
  141.4130   80.5030  221.7340 C   0  0  0  0  0  0  0  0  0  0  0  0
  144.5387   75.1168  220.0666 H   0  0  0  0  0  0  0  0  0  0  0  0
  143.5441   74.3860  218.7614 H   0  0  0  0  0  0  0  0  0  0  0  0
  143.8680   76.1528  218.7614 H   0  0  0  0  0  0  0  0  0  0  0  0
  142.3533   77.6263  219.7758 H   0  0  0  0  0  0  0  0  0  0  0  0
  138.2937   75.1367  222.4560 H   0  0  0  0  0  0  0  0  0  0  0  0
  139.3009   76.0963  223.6405 H   0  0  0  0  0  0  0  0  0  0  0  0
  136.3674   76.4667  223.2906 H   0  0  0  0  0  0  0  0  0  0  0  0
  135.0061   78.5170  222.8932 H   0  0  0  0  0  0  0  0  0  0  0  0
  136.0070   80.4745  221.7186 H   0  0  0  0  0  0  0  0  0  0  0  0
  138.3731   80.3898  220.9395 H   0  0  0  0  0  0  0  0  0  0  0  0
  140.1577   78.7944  220.1849 H   0  0  0  0  0  0  0  0  0  0  0  0
  141.1024   77.6966  223.6735 H   0  0  0  0  0  0  0  0  0  0  0  0
  142.5125   79.0841  225.1923 H   0  0  0  0  0  0  0  0  0  0  0  0
  143.2166   81.3780  224.5038 H   0  0  0  0  0  0  0  0  0  0  0  0
  142.5132   82.2866  222.2881 H   0  0  0  0  0  0  0  0  0  0  0  0
  141.1061   80.9083  220.7585 H   0  0  0  0  0  0  0  0  0  0  0  0
  1  2  1  0
  2  3  2  0
  3  4  1  0
  4  5  2  0
  5  6  1  0
  6  7  2  0
  6  8  1  0
  5  9  1  0
  9 10  1  0
 10 11  2  0
 11 12  1  0
 12 13  2  0
 13 14  1  0
 14 15  2  0
 15 16  1  0
 16 17  1  0
 17 18  2  0
 18 19  1  0
 19 20  2  0
 20 21  1  0
 21 22  2  0
  8  2  1  0
 15 10  1  0
 22 17  1  0
 16  4  1  0
  1 23  1  0
  1 24  1  0
  1 25  1  0
  3 26  1  0
  9 27  1  0
  9 28  1  0
 11 29  1  0
 12 30  1  0
 13 31  1  0
 14 32  1  0
 16 33  1  6
 18 34  1  0
 19 35  1  0
 20 36  1  0
 21 37  1  0
 22 38  1  0
M  END
>  <UniqueID>  (14) 
16

>  <SMILES>  (14) 
Cc1cc2c(c(=O)o1)Cc1ccccc1[C@H]2c1ccccc1

>  <Energy>  (14) 
47.71909749416466

>  <Genealogy>  (14) 
Cc1cc2c(c(=O)o1)Cc1ccccc1[C@H]2c1ccccc1 (chirality)
Cc1cc2c(c(=O)o1)Cc1ccccc1[C@H]2c1ccccc1 (3D coordinates assigned)
Cc1cc2c(c(=O)o1)Cc1ccccc1[C@H]2c1ccccc1 (nonaromatic ring conformer: 47.71909749416466 kcal/mol)

>  <smiles>  (14) 
Cc1cc2c(c(=O)o1)Cc1ccccc1C2c1ccccc1

>  <score_type>  (14) 
oracle

>  <origin>  (14) 
autodockgpu

>  <m_score__min__energy>  (14) 
-6.7800000000000002

>  <m_primary>  (14) 
energy

>  <meeko>  (14) 
{"free_energy": -6.78, "intermolecular_energy": -7.08, "internal_energy": -0.77, "cluster_size": 20, "cluster_id": 1, "rank_in_cluster": 1}

>  <energy>  (14) 
-6.77

>  <cluster_rmsd>  (14) 
0.02

>  <rmsd>  (14) 
270.27

>  <cluster>  (14) 
1

$$$$
ZZFUSXOZLWDLQL-LJQANCHMNA-N
     RDKit          3D

 38 41  0  0  0  0  0  0  0  0999 V2000
  143.6740   75.2890  219.3860 C   0  0  0  0  0  0  0  0  0  0  0  0
  142.4430   75.5130  220.2030 C   0  0  0  0  0  0  0  0  0  0  0  0
  141.8810   76.7900  220.2940 C   0  0  0  0  0  0  0  0  0  0  0  0
  140.7250   76.9770  221.0640 C   0  0  0  0  0  0  0  0  0  0  0  0
  140.1590   75.8710  221.7240 C   0  0  0  0  0  0  0  0  0  0  0  0
  140.7980   74.6210  221.5980 C   0  0  0  0  0  0  0  0  0  0  0  0
  140.3440   73.6080  222.1940 O   0  0  0  0  0  0  0  0  0  0  0  0
  141.8910   74.4940  220.8520 O   0  0  0  0  0  0  0  0  0  0  0  0
  138.9440   76.0210  222.6090 C   0  0  0  0  0  0  0  0  0  0  0  0
  138.1380   77.2600  222.3180 C   0  0  0  0  0  0  0  0  0  0  0  0
  136.8100   77.3280  222.7730 C   0  0  0  0  0  0  0  0  0  0  0  0
  136.0450   78.4770  222.5570 C   0  0  0  0  0  0  0  0  0  0  0  0
  136.6010   79.5720  221.8980 C   0  0  0  0  0  0  0  0  0  0  0  0
  137.9240   79.5250  221.4530 C   0  0  0  0  0  0  0  0  0  0  0  0
  138.7030   78.3730  221.6570 C   0  0  0  0  0  0  0  0  0  0  0  0
  140.1440   78.3680  221.1930 C   0  0  1  0  0  0  0  0  0  0  0  0
  141.0020   79.2210  222.1060 C   0  0  0  0  0  0  0  0  0  0  0  0
  141.4100   78.7220  223.3570 C   0  0  0  0  0  0  0  0  0  0  0  0
  142.2000   79.5020  224.2050 C   0  0  0  0  0  0  0  0  0  0  0  0
  142.5910   80.7870  223.8170 C   0  0  0  0  0  0  0  0  0  0  0  0
  142.1920   81.2920  222.5780 C   0  0  0  0  0  0  0  0  0  0  0  0
  141.4020   80.5160  221.7250 C   0  0  0  0  0  0  0  0  0  0  0  0
  144.5339   75.1325  220.0539 H   0  0  0  0  0  0  0  0  0  0  0  0
  143.5363   74.4012  218.7513 H   0  0  0  0  0  0  0  0  0  0  0  0
  143.8579   76.1684  218.7513 H   0  0  0  0  0  0  0  0  0  0  0  0
  142.3412   77.6388  219.7669 H   0  0  0  0  0  0  0  0  0  0  0  0
  138.2973   75.1430  222.4643 H   0  0  0  0  0  0  0  0  0  0  0  0
  139.3062   76.1063  223.6441 H   0  0  0  0  0  0  0  0  0  0  0  0
  136.3697   76.4705  223.3029 H   0  0  0  0  0  0  0  0  0  0  0  0
  135.0031   78.5174  222.9074 H   0  0  0  0  0  0  0  0  0  0  0  0
  135.9965   80.4752  221.7280 H   0  0  0  0  0  0  0  0  0  0  0  0
  138.3591   80.3951  220.9396 H   0  0  0  0  0  0  0  0  0  0  0  0
  140.1462   78.8016  220.1821 H   0  0  0  0  0  0  0  0  0  0  0  0
  141.1052   77.7121  223.6688 H   0  0  0  0  0  0  0  0  0  0  0  0
  142.5153   79.1040  225.1808 H   0  0  0  0  0  0  0  0  0  0  0  0
  143.2122   81.3994  224.4871 H   0  0  0  0  0  0  0  0  0  0  0  0
  142.5000   82.3028  222.2724 H   0  0  0  0  0  0  0  0  0  0  0  0
  141.0909   80.9196  220.7501 H   0  0  0  0  0  0  0  0  0  0  0  0
  1  2  1  0
  2  3  2  0
  3  4  1  0
  4  5  2  0
  5  6  1  0
  6  7  2  0
  6  8  1  0
  5  9  1  0
  9 10  1  0
 10 11  2  0
 11 12  1  0
 12 13  2  0
 13 14  1  0
 14 15  2  0
 15 16  1  0
 16 17  1  0
 17 18  2  0
 18 19  1  0
 19 20  2  0
 20 21  1  0
 21 22  2  0
  8  2  1  0
 15 10  1  0
 22 17  1  0
 16  4  1  0
  1 23  1  0
  1 24  1  0
  1 25  1  0
  3 26  1  0
  9 27  1  0
  9 28  1  0
 11 29  1  0
 12 30  1  0
 13 31  1  0
 14 32  1  0
 16 33  1  6
 18 34  1  0
 19 35  1  0
 20 36  1  0
 21 37  1  0
 22 38  1  0
M  END
>  <UniqueID>  (15) 
16

>  <SMILES>  (15) 
Cc1cc2c(c(=O)o1)Cc1ccccc1[C@H]2c1ccccc1

>  <Energy>  (15) 
47.71909749416466

>  <Genealogy>  (15) 
Cc1cc2c(c(=O)o1)Cc1ccccc1[C@H]2c1ccccc1 (chirality)
Cc1cc2c(c(=O)o1)Cc1ccccc1[C@H]2c1ccccc1 (3D coordinates assigned)
Cc1cc2c(c(=O)o1)Cc1ccccc1[C@H]2c1ccccc1 (nonaromatic ring conformer: 47.71909749416466 kcal/mol)

>  <smiles>  (15) 
Cc1cc2c(c(=O)o1)Cc1ccccc1C2c1ccccc1

>  <score_type>  (15) 
oracle

>  <origin>  (15) 
autodockgpu

>  <m_score__min__energy>  (15) 
-6.7800000000000002

>  <m_primary>  (15) 
energy

>  <meeko>  (15) 
{"free_energy": -6.77, "intermolecular_energy": -7.07, "internal_energy": -0.77, "cluster_size": 20, "cluster_id": 1, "rank_in_cluster": 14}

>  <energy>  (15) 
-6.77

>  <cluster_rmsd>  (15) 
0.02

>  <rmsd>  (15) 
270.27

>  <cluster>  (15) 
1

$$$$
ZZFUSXOZLWDLQL-LJQANCHMNA-N
     RDKit          3D

 38 41  0  0  0  0  0  0  0  0999 V2000
  143.6760   75.2790  219.3940 C   0  0  0  0  0  0  0  0  0  0  0  0
  142.4440   75.5010  220.2120 C   0  0  0  0  0  0  0  0  0  0  0  0
  141.8810   76.7780  220.3020 C   0  0  0  0  0  0  0  0  0  0  0  0
  140.7250   76.9630  221.0720 C   0  0  0  0  0  0  0  0  0  0  0  0
  140.1600   75.8570  221.7320 C   0  0  0  0  0  0  0  0  0  0  0  0
  140.8000   74.6080  221.6060 C   0  0  0  0  0  0  0  0  0  0  0  0
  140.3470   73.5930  222.2010 O   0  0  0  0  0  0  0  0  0  0  0  0
  141.8930   74.4810  220.8600 O   0  0  0  0  0  0  0  0  0  0  0  0
  138.9440   76.0050  222.6170 C   0  0  0  0  0  0  0  0  0  0  0  0
  138.1370   77.2430  222.3260 C   0  0  0  0  0  0  0  0  0  0  0  0
  136.8090   77.3100  222.7810 C   0  0  0  0  0  0  0  0  0  0  0  0
  136.0420   78.4570  222.5650 C   0  0  0  0  0  0  0  0  0  0  0  0
  136.5970   79.5540  221.9050 C   0  0  0  0  0  0  0  0  0  0  0  0
  137.9210   79.5070  221.4620 C   0  0  0  0  0  0  0  0  0  0  0  0
  138.7010   78.3560  221.6660 C   0  0  0  0  0  0  0  0  0  0  0  0
  140.1420   78.3530  221.2010 C   0  0  1  0  0  0  0  0  0  0  0  0
  140.9990   79.2070  222.1150 C   0  0  0  0  0  0  0  0  0  0  0  0
  141.4010   78.7110  223.3680 C   0  0  0  0  0  0  0  0  0  0  0  0
  142.1910   79.4920  224.2170 C   0  0  0  0  0  0  0  0  0  0  0  0
  142.5860   80.7740  223.8260 C   0  0  0  0  0  0  0  0  0  0  0  0
  142.1920   81.2770  222.5840 C   0  0  0  0  0  0  0  0  0  0  0  0
  141.4030   80.5000  221.7310 C   0  0  0  0  0  0  0  0  0  0  0  0
  144.5364   75.1240  220.0616 H   0  0  0  0  0  0  0  0  0  0  0  0
  143.5396   74.3910  218.7593 H   0  0  0  0  0  0  0  0  0  0  0  0
  143.8582   76.1588  218.7593 H   0  0  0  0  0  0  0  0  0  0  0  0
  142.3402   77.6271  219.7746 H   0  0  0  0  0  0  0  0  0  0  0  0
  138.2984   75.1263  222.4717 H   0  0  0  0  0  0  0  0  0  0  0  0
  139.3055   76.0900  223.6524 H   0  0  0  0  0  0  0  0  0  0  0  0
  136.3701   76.4521  223.3115 H   0  0  0  0  0  0  0  0  0  0  0  0
  135.0000   78.4956  222.9153 H   0  0  0  0  0  0  0  0  0  0  0  0
  135.9916   80.4563  221.7334 H   0  0  0  0  0  0  0  0  0  0  0  0
  138.3563   80.3776  220.9496 H   0  0  0  0  0  0  0  0  0  0  0  0
  140.1434   78.7865  220.1900 H   0  0  0  0  0  0  0  0  0  0  0  0
  141.0922   77.7030  223.6819 H   0  0  0  0  0  0  0  0  0  0  0  0
  142.5023   79.0963  225.1950 H   0  0  0  0  0  0  0  0  0  0  0  0
  143.2069   81.3868  224.4960 H   0  0  0  0  0  0  0  0  0  0  0  0
  142.5031   82.2863  222.2766 H   0  0  0  0  0  0  0  0  0  0  0  0
  141.0959   80.9011  220.7539 H   0  0  0  0  0  0  0  0  0  0  0  0
  1  2  1  0
  2  3  2  0
  3  4  1  0
  4  5  2  0
  5  6  1  0
  6  7  2  0
  6  8  1  0
  5  9  1  0
  9 10  1  0
 10 11  2  0
 11 12  1  0
 12 13  2  0
 13 14  1  0
 14 15  2  0
 15 16  1  0
 16 17  1  0
 17 18  2  0
 18 19  1  0
 19 20  2  0
 20 21  1  0
 21 22  2  0
  8  2  1  0
 15 10  1  0
 22 17  1  0
 16  4  1  0
  1 23  1  0
  1 24  1  0
  1 25  1  0
  3 26  1  0
  9 27  1  0
  9 28  1  0
 11 29  1  0
 12 30  1  0
 13 31  1  0
 14 32  1  0
 16 33  1  6
 18 34  1  0
 19 35  1  0
 20 36  1  0
 21 37  1  0
 22 38  1  0
M  END
>  <UniqueID>  (16) 
16

>  <SMILES>  (16) 
Cc1cc2c(c(=O)o1)Cc1ccccc1[C@H]2c1ccccc1

>  <Energy>  (16) 
47.71909749416466

>  <Genealogy>  (16) 
Cc1cc2c(c(=O)o1)Cc1ccccc1[C@H]2c1ccccc1 (chirality)
Cc1cc2c(c(=O)o1)Cc1ccccc1[C@H]2c1ccccc1 (3D coordinates assigned)
Cc1cc2c(c(=O)o1)Cc1ccccc1[C@H]2c1ccccc1 (nonaromatic ring conformer: 47.71909749416466 kcal/mol)

>  <smiles>  (16) 
Cc1cc2c(c(=O)o1)Cc1ccccc1C2c1ccccc1

>  <score_type>  (16) 
oracle

>  <origin>  (16) 
autodockgpu

>  <m_score__min__energy>  (16) 
-6.7800000000000002

>  <m_primary>  (16) 
energy

>  <meeko>  (16) 
{"free_energy": -6.77, "intermolecular_energy": -7.07, "internal_energy": -0.77, "cluster_size": 20, "cluster_id": 1, "rank_in_cluster": 15}

>  <energy>  (16) 
-6.77

>  <cluster_rmsd>  (16) 
0.02

>  <rmsd>  (16) 
270.27

>  <cluster>  (16) 
1

$$$$
ZZFUSXOZLWDLQL-LJQANCHMNA-N
     RDKit          3D

 38 41  0  0  0  0  0  0  0  0999 V2000
  143.6850   75.2800  219.4090 C   0  0  0  0  0  0  0  0  0  0  0  0
  142.4510   75.5060  220.2210 C   0  0  0  0  0  0  0  0  0  0  0  0
  141.8900   76.7830  220.3090 C   0  0  0  0  0  0  0  0  0  0  0  0
  140.7310   76.9720  221.0740 C   0  0  0  0  0  0  0  0  0  0  0  0
  140.1610   75.8670  221.7320 C   0  0  0  0  0  0  0  0  0  0  0  0
  140.7990   74.6160  221.6090 C   0  0  0  0  0  0  0  0  0  0  0  0
  140.3410   73.6030  222.2030 O   0  0  0  0  0  0  0  0  0  0  0  0
  141.8950   74.4870  220.8670 O   0  0  0  0  0  0  0  0  0  0  0  0
  138.9420   76.0180  222.6130 C   0  0  0  0  0  0  0  0  0  0  0  0
  138.1390   77.2580  222.3180 C   0  0  0  0  0  0  0  0  0  0  0  0
  136.8090   77.3280  222.7670 C   0  0  0  0  0  0  0  0  0  0  0  0
  136.0460   78.4770  222.5480 C   0  0  0  0  0  0  0  0  0  0  0  0
  136.6060   79.5720  221.8900 C   0  0  0  0  0  0  0  0  0  0  0  0
  137.9310   79.5220  221.4520 C   0  0  0  0  0  0  0  0  0  0  0  0
  138.7080   78.3700  221.6590 C   0  0  0  0  0  0  0  0  0  0  0  0
  140.1510   78.3630  221.2010 C   0  0  1  0  0  0  0  0  0  0  0  0
  141.0060   79.2150  222.1180 C   0  0  0  0  0  0  0  0  0  0  0  0
  141.4100   78.7150  223.3690 C   0  0  0  0  0  0  0  0  0  0  0  0
  142.1980   79.4950  224.2200 C   0  0  0  0  0  0  0  0  0  0  0  0
  142.5900   80.7790  223.8350 C   0  0  0  0  0  0  0  0  0  0  0  0
  142.1940   81.2860  222.5950 C   0  0  0  0  0  0  0  0  0  0  0  0
  141.4060   80.5110  221.7390 C   0  0  0  0  0  0  0  0  0  0  0  0
  144.5421   75.1230  220.0804 H   0  0  0  0  0  0  0  0  0  0  0  0
  143.5488   74.3919  218.7744 H   0  0  0  0  0  0  0  0  0  0  0  0
  143.8724   76.1588  218.7744 H   0  0  0  0  0  0  0  0  0  0  0  0
  142.3533   77.6309  219.7833 H   0  0  0  0  0  0  0  0  0  0  0  0
  138.2950   75.1407  222.4659 H   0  0  0  0  0  0  0  0  0  0  0  0
  139.2998   76.1025  223.6498 H   0  0  0  0  0  0  0  0  0  0  0  0
  136.3656   76.4710  223.2951 H   0  0  0  0  0  0  0  0  0  0  0  0
  135.0029   78.5185  222.8946 H   0  0  0  0  0  0  0  0  0  0  0  0
  136.0034   80.4756  221.7160 H   0  0  0  0  0  0  0  0  0  0  0  0
  138.3699   80.3915  220.9408 H   0  0  0  0  0  0  0  0  0  0  0  0
  140.1579   78.7964  220.1900 H   0  0  0  0  0  0  0  0  0  0  0  0
  141.1042   77.7049  223.6792 H   0  0  0  0  0  0  0  0  0  0  0  0
  142.5105   79.0962  225.1964 H   0  0  0  0  0  0  0  0  0  0  0  0
  143.2098   81.3903  224.5074 H   0  0  0  0  0  0  0  0  0  0  0  0
  142.5029   82.2972  222.2915 H   0  0  0  0  0  0  0  0  0  0  0  0
  141.0967   80.9157  220.7640 H   0  0  0  0  0  0  0  0  0  0  0  0
  1  2  1  0
  2  3  2  0
  3  4  1  0
  4  5  2  0
  5  6  1  0
  6  7  2  0
  6  8  1  0
  5  9  1  0
  9 10  1  0
 10 11  2  0
 11 12  1  0
 12 13  2  0
 13 14  1  0
 14 15  2  0
 15 16  1  0
 16 17  1  0
 17 18  2  0
 18 19  1  0
 19 20  2  0
 20 21  1  0
 21 22  2  0
  8  2  1  0
 15 10  1  0
 22 17  1  0
 16  4  1  0
  1 23  1  0
  1 24  1  0
  1 25  1  0
  3 26  1  0
  9 27  1  0
  9 28  1  0
 11 29  1  0
 12 30  1  0
 13 31  1  0
 14 32  1  0
 16 33  1  6
 18 34  1  0
 19 35  1  0
 20 36  1  0
 21 37  1  0
 22 38  1  0
M  END
>  <UniqueID>  (17) 
16

>  <SMILES>  (17) 
Cc1cc2c(c(=O)o1)Cc1ccccc1[C@H]2c1ccccc1

>  <Energy>  (17) 
47.71909749416466

>  <Genealogy>  (17) 
Cc1cc2c(c(=O)o1)Cc1ccccc1[C@H]2c1ccccc1 (chirality)
Cc1cc2c(c(=O)o1)Cc1ccccc1[C@H]2c1ccccc1 (3D coordinates assigned)
Cc1cc2c(c(=O)o1)Cc1ccccc1[C@H]2c1ccccc1 (nonaromatic ring conformer: 47.71909749416466 kcal/mol)

>  <smiles>  (17) 
Cc1cc2c(c(=O)o1)Cc1ccccc1C2c1ccccc1

>  <score_type>  (17) 
oracle

>  <origin>  (17) 
autodockgpu

>  <m_score__min__energy>  (17) 
-6.7800000000000002

>  <m_primary>  (17) 
energy

>  <meeko>  (17) 
{"free_energy": -6.78, "intermolecular_energy": -7.07, "internal_energy": -0.77, "cluster_size": 20, "cluster_id": 1, "rank_in_cluster": 4}

>  <energy>  (17) 
-6.77

>  <cluster_rmsd>  (17) 
0.03

>  <rmsd>  (17) 
270.27

>  <cluster>  (17) 
1

$$$$
ZZFUSXOZLWDLQL-LJQANCHMNA-N
     RDKit          3D

 38 41  0  0  0  0  0  0  0  0999 V2000
  143.6410   75.2900  219.3620 C   0  0  0  0  0  0  0  0  0  0  0  0
  142.4150   75.5140  220.1860 C   0  0  0  0  0  0  0  0  0  0  0  0
  141.8570   76.7910  220.2840 C   0  0  0  0  0  0  0  0  0  0  0  0
  140.7050   76.9780  221.0610 C   0  0  0  0  0  0  0  0  0  0  0  0
  140.1390   75.8710  221.7190 C   0  0  0  0  0  0  0  0  0  0  0  0
  140.7740   74.6200  221.5840 C   0  0  0  0  0  0  0  0  0  0  0  0
  140.3200   73.6050  222.1770 O   0  0  0  0  0  0  0  0  0  0  0  0
  141.8630   74.4930  220.8320 O   0  0  0  0  0  0  0  0  0  0  0  0
  138.9280   76.0200  222.6100 C   0  0  0  0  0  0  0  0  0  0  0  0
  138.1240   77.2620  222.3280 C   0  0  0  0  0  0  0  0  0  0  0  0
  136.7990   77.3320  222.7890 C   0  0  0  0  0  0  0  0  0  0  0  0
  136.0350   78.4830  222.5820 C   0  0  0  0  0  0  0  0  0  0  0  0
  136.5920   79.5810  221.9250 C   0  0  0  0  0  0  0  0  0  0  0  0
  137.9130   79.5310  221.4750 C   0  0  0  0  0  0  0  0  0  0  0  0
  138.6900   78.3760  221.6700 C   0  0  0  0  0  0  0  0  0  0  0  0
  140.1280   78.3700  221.1990 C   0  0  1  0  0  0  0  0  0  0  0  0
  140.9930   79.2160  222.1120 C   0  0  0  0  0  0  0  0  0  0  0  0
  141.3960   78.7150  223.3630 C   0  0  0  0  0  0  0  0  0  0  0  0
  142.1920   79.4890  224.2120 C   0  0  0  0  0  0  0  0  0  0  0  0
  142.5940   80.7700  223.8230 C   0  0  0  0  0  0  0  0  0  0  0  0
  142.1990   81.2780  222.5840 C   0  0  0  0  0  0  0  0  0  0  0  0
  141.4030   80.5080  221.7300 C   0  0  0  0  0  0  0  0  0  0  0  0
  144.5045   75.1322  220.0249 H   0  0  0  0  0  0  0  0  0  0  0  0
  143.4991   74.4029  218.7272 H   0  0  0  0  0  0  0  0  0  0  0  0
  143.8220   76.1699  218.7272 H   0  0  0  0  0  0  0  0  0  0  0  0
  142.3164   77.6405  219.7573 H   0  0  0  0  0  0  0  0  0  0  0  0
  138.2786   75.1442  222.4642 H   0  0  0  0  0  0  0  0  0  0  0  0
  139.2948   76.0998  223.6440 H   0  0  0  0  0  0  0  0  0  0  0  0
  136.3593   76.4733  223.3174 H   0  0  0  0  0  0  0  0  0  0  0  0
  134.9946   78.5239  222.9368 H   0  0  0  0  0  0  0  0  0  0  0  0
  135.9898   80.4869  221.7614 H   0  0  0  0  0  0  0  0  0  0  0  0
  138.3489   80.4022  220.9640 H   0  0  0  0  0  0  0  0  0  0  0  0
  140.1260   78.8089  220.1903 H   0  0  0  0  0  0  0  0  0  0  0  0
  141.0827   77.7078  223.6751 H   0  0  0  0  0  0  0  0  0  0  0  0
  142.5028   79.0892  225.1885 H   0  0  0  0  0  0  0  0  0  0  0  0
  143.2210   81.3773  224.4924 H   0  0  0  0  0  0  0  0  0  0  0  0
  142.5147   82.2865  222.2787 H   0  0  0  0  0  0  0  0  0  0  0  0
  141.0956   80.9136  220.7548 H   0  0  0  0  0  0  0  0  0  0  0  0
  1  2  1  0
  2  3  2  0
  3  4  1  0
  4  5  2  0
  5  6  1  0
  6  7  2  0
  6  8  1  0
  5  9  1  0
  9 10  1  0
 10 11  2  0
 11 12  1  0
 12 13  2  0
 13 14  1  0
 14 15  2  0
 15 16  1  0
 16 17  1  0
 17 18  2  0
 18 19  1  0
 19 20  2  0
 20 21  1  0
 21 22  2  0
  8  2  1  0
 15 10  1  0
 22 17  1  0
 16  4  1  0
  1 23  1  0
  1 24  1  0
  1 25  1  0
  3 26  1  0
  9 27  1  0
  9 28  1  0
 11 29  1  0
 12 30  1  0
 13 31  1  0
 14 32  1  0
 16 33  1  6
 18 34  1  0
 19 35  1  0
 20 36  1  0
 21 37  1  0
 22 38  1  0
M  END
>  <UniqueID>  (18) 
16

>  <SMILES>  (18) 
Cc1cc2c(c(=O)o1)Cc1ccccc1[C@H]2c1ccccc1

>  <Energy>  (18) 
47.71909749416466

>  <Genealogy>  (18) 
Cc1cc2c(c(=O)o1)Cc1ccccc1[C@H]2c1ccccc1 (chirality)
Cc1cc2c(c(=O)o1)Cc1ccccc1[C@H]2c1ccccc1 (3D coordinates assigned)
Cc1cc2c(c(=O)o1)Cc1ccccc1[C@H]2c1ccccc1 (nonaromatic ring conformer: 47.71909749416466 kcal/mol)

>  <smiles>  (18) 
Cc1cc2c(c(=O)o1)Cc1ccccc1C2c1ccccc1

>  <score_type>  (18) 
oracle

>  <origin>  (18) 
autodockgpu

>  <m_score__min__energy>  (18) 
-6.7800000000000002

>  <m_primary>  (18) 
energy

>  <meeko>  (18) 
{"free_energy": -6.77, "intermolecular_energy": -7.07, "internal_energy": -0.77, "cluster_size": 20, "cluster_id": 1, "rank_in_cluster": 17}

>  <energy>  (18) 
-6.77

>  <cluster_rmsd>  (18) 
0.02

>  <rmsd>  (18) 
270.28

>  <cluster>  (18) 
1

$$$$
ZZFUSXOZLWDLQL-LJQANCHMNA-N
     RDKit          3D

 38 41  0  0  0  0  0  0  0  0999 V2000
  143.6800   75.2880  219.3830 C   0  0  0  0  0  0  0  0  0  0  0  0
  142.4490   75.5070  220.2010 C   0  0  0  0  0  0  0  0  0  0  0  0
  141.8830   76.7820  220.2960 C   0  0  0  0  0  0  0  0  0  0  0  0
  140.7280   76.9640  221.0670 C   0  0  0  0  0  0  0  0  0  0  0  0
  140.1640   75.8540  221.7240 C   0  0  0  0  0  0  0  0  0  0  0  0
  140.8060   74.6070  221.5940 C   0  0  0  0  0  0  0  0  0  0  0  0
  140.3560   73.5900  222.1870 O   0  0  0  0  0  0  0  0  0  0  0  0
  141.8990   74.4840  220.8470 O   0  0  0  0  0  0  0  0  0  0  0  0
  138.9490   75.9980  222.6100 C   0  0  0  0  0  0  0  0  0  0  0  0
  138.1400   77.2360  222.3230 C   0  0  0  0  0  0  0  0  0  0  0  0
  136.8120   77.2990  222.7780 C   0  0  0  0  0  0  0  0  0  0  0  0
  136.0430   78.4460  222.5660 C   0  0  0  0  0  0  0  0  0  0  0  0
  136.5960   79.5450  221.9090 C   0  0  0  0  0  0  0  0  0  0  0  0
  137.9190   79.5020  221.4650 C   0  0  0  0  0  0  0  0  0  0  0  0
  138.7020   78.3520  221.6650 C   0  0  0  0  0  0  0  0  0  0  0  0
  140.1420   78.3520  221.2000 C   0  0  1  0  0  0  0  0  0  0  0  0
  140.9980   79.2050  222.1150 C   0  0  0  0  0  0  0  0  0  0  0  0
  141.4040   78.7050  223.3660 C   0  0  0  0  0  0  0  0  0  0  0  0
  142.1930   79.4850  224.2170 C   0  0  0  0  0  0  0  0  0  0  0  0
  142.5840   80.7700  223.8300 C   0  0  0  0  0  0  0  0  0  0  0  0
  142.1870   81.2770  222.5910 C   0  0  0  0  0  0  0  0  0  0  0  0
  141.3980   80.5010  221.7360 C   0  0  0  0  0  0  0  0  0  0  0  0
  144.5411   75.1348  220.0501 H   0  0  0  0  0  0  0  0  0  0  0  0
  143.5453   74.3997  218.7483 H   0  0  0  0  0  0  0  0  0  0  0  0
  143.8599   76.1682  218.7483 H   0  0  0  0  0  0  0  0  0  0  0  0
  142.3402   77.6334  219.7706 H   0  0  0  0  0  0  0  0  0  0  0  0
  138.3045   75.1189  222.4628 H   0  0  0  0  0  0  0  0  0  0  0  0
  139.3112   76.0807  223.6454 H   0  0  0  0  0  0  0  0  0  0  0  0
  136.3744   76.4385  223.3053 H   0  0  0  0  0  0  0  0  0  0  0  0
  135.0012   78.4823  222.9173 H   0  0  0  0  0  0  0  0  0  0  0  0
  135.9890   80.4468  221.7404 H   0  0  0  0  0  0  0  0  0  0  0  0
  138.3520   80.3750  220.9547 H   0  0  0  0  0  0  0  0  0  0  0  0
  140.1413   78.7876  220.1899 H   0  0  0  0  0  0  0  0  0  0  0  0
  141.0990   77.6947  223.6763 H   0  0  0  0  0  0  0  0  0  0  0  0
  142.5067   79.0865  225.1931 H   0  0  0  0  0  0  0  0  0  0  0  0
  143.2044   81.3818  224.5015 H   0  0  0  0  0  0  0  0  0  0  0  0
  142.4953   82.2882  222.2870 H   0  0  0  0  0  0  0  0  0  0  0  0
  141.0878   80.9055  220.7612 H   0  0  0  0  0  0  0  0  0  0  0  0
  1  2  1  0
  2  3  2  0
  3  4  1  0
  4  5  2  0
  5  6  1  0
  6  7  2  0
  6  8  1  0
  5  9  1  0
  9 10  1  0
 10 11  2  0
 11 12  1  0
 12 13  2  0
 13 14  1  0
 14 15  2  0
 15 16  1  0
 16 17  1  0
 17 18  2  0
 18 19  1  0
 19 20  2  0
 20 21  1  0
 21 22  2  0
  8  2  1  0
 15 10  1  0
 22 17  1  0
 16  4  1  0
  1 23  1  0
  1 24  1  0
  1 25  1  0
  3 26  1  0
  9 27  1  0
  9 28  1  0
 11 29  1  0
 12 30  1  0
 13 31  1  0
 14 32  1  0
 16 33  1  6
 18 34  1  0
 19 35  1  0
 20 36  1  0
 21 37  1  0
 22 38  1  0
M  END
>  <UniqueID>  (19) 
16

>  <SMILES>  (19) 
Cc1cc2c(c(=O)o1)Cc1ccccc1[C@H]2c1ccccc1

>  <Energy>  (19) 
47.71909749416466

>  <Genealogy>  (19) 
Cc1cc2c(c(=O)o1)Cc1ccccc1[C@H]2c1ccccc1 (chirality)
Cc1cc2c(c(=O)o1)Cc1ccccc1[C@H]2c1ccccc1 (3D coordinates assigned)
Cc1cc2c(c(=O)o1)Cc1ccccc1[C@H]2c1ccccc1 (nonaromatic ring conformer: 47.71909749416466 kcal/mol)

>  <smiles>  (19) 
Cc1cc2c(c(=O)o1)Cc1ccccc1C2c1ccccc1

>  <score_type>  (19) 
oracle

>  <origin>  (19) 
autodockgpu

>  <m_score__min__energy>  (19) 
-6.7800000000000002

>  <m_primary>  (19) 
energy

>  <meeko>  (19) 
{"free_energy": -6.77, "intermolecular_energy": -7.07, "internal_energy": -0.77, "cluster_size": 20, "cluster_id": 1, "rank_in_cluster": 7}

>  <energy>  (19) 
-6.77

>  <cluster_rmsd>  (19) 
0.01

>  <rmsd>  (19) 
270.28

>  <cluster>  (19) 
1

$$$$
ZZFUSXOZLWDLQL-LJQANCHMNA-N
     RDKit          3D

 38 41  0  0  0  0  0  0  0  0999 V2000
  143.6860   75.2860  219.3830 C   0  0  0  0  0  0  0  0  0  0  0  0
  142.4540   75.5050  220.2000 C   0  0  0  0  0  0  0  0  0  0  0  0
  141.8890   76.7800  220.2940 C   0  0  0  0  0  0  0  0  0  0  0  0
  140.7330   76.9620  221.0640 C   0  0  0  0  0  0  0  0  0  0  0  0
  140.1690   75.8530  221.7220 C   0  0  0  0  0  0  0  0  0  0  0  0
  140.8120   74.6050  221.5930 C   0  0  0  0  0  0  0  0  0  0  0  0
  140.3610   73.5890  222.1860 O   0  0  0  0  0  0  0  0  0  0  0  0
  141.9050   74.4820  220.8470 O   0  0  0  0  0  0  0  0  0  0  0  0
  138.9540   75.9970  222.6080 C   0  0  0  0  0  0  0  0  0  0  0  0
  138.1440   77.2350  222.3190 C   0  0  0  0  0  0  0  0  0  0  0  0
  136.8160   77.2980  222.7740 C   0  0  0  0  0  0  0  0  0  0  0  0
  136.0480   78.4440  222.5610 C   0  0  0  0  0  0  0  0  0  0  0  0
  136.6010   79.5430  221.9040 C   0  0  0  0  0  0  0  0  0  0  0  0
  137.9240   79.5000  221.4600 C   0  0  0  0  0  0  0  0  0  0  0  0
  138.7070   78.3500  221.6610 C   0  0  0  0  0  0  0  0  0  0  0  0
  140.1470   78.3510  221.1960 C   0  0  1  0  0  0  0  0  0  0  0  0
  141.0030   79.2040  222.1120 C   0  0  0  0  0  0  0  0  0  0  0  0
  141.4030   78.7070  223.3650 C   0  0  0  0  0  0  0  0  0  0  0  0
  142.1920   79.4880  224.2160 C   0  0  0  0  0  0  0  0  0  0  0  0
  142.5870   80.7700  223.8260 C   0  0  0  0  0  0  0  0  0  0  0  0
  142.1950   81.2740  222.5840 C   0  0  0  0  0  0  0  0  0  0  0  0
  141.4070   80.4970  221.7290 C   0  0  0  0  0  0  0  0  0  0  0  0
  144.5465   75.1330  220.0509 H   0  0  0  0  0  0  0  0  0  0  0  0
  143.5520   74.3976  218.7483 H   0  0  0  0  0  0  0  0  0  0  0  0
  143.8664   76.1662  218.7483 H   0  0  0  0  0  0  0  0  0  0  0  0
  142.3471   77.6312  219.7691 H   0  0  0  0  0  0  0  0  0  0  0  0
  138.3100   75.1173  222.4619 H   0  0  0  0  0  0  0  0  0  0  0  0
  139.3159   76.0809  223.6434 H   0  0  0  0  0  0  0  0  0  0  0  0
  136.3784   76.4379  223.3019 H   0  0  0  0  0  0  0  0  0  0  0  0
  135.0060   78.4803  222.9116 H   0  0  0  0  0  0  0  0  0  0  0  0
  135.9940   80.4448  221.7354 H   0  0  0  0  0  0  0  0  0  0  0  0
  138.3569   80.3726  220.9490 H   0  0  0  0  0  0  0  0  0  0  0  0
  140.1469   78.7872  220.1862 H   0  0  0  0  0  0  0  0  0  0  0  0
  141.0938   77.6987  223.6777 H   0  0  0  0  0  0  0  0  0  0  0  0
  142.5021   79.0919  225.1943 H   0  0  0  0  0  0  0  0  0  0  0  0
  143.2069   81.3825  224.4973 H   0  0  0  0  0  0  0  0  0  0  0  0
  142.5065   82.2836  222.2778 H   0  0  0  0  0  0  0  0  0  0  0  0
  141.1011   80.8985  220.7516 H   0  0  0  0  0  0  0  0  0  0  0  0
  1  2  1  0
  2  3  2  0
  3  4  1  0
  4  5  2  0
  5  6  1  0
  6  7  2  0
  6  8  1  0
  5  9  1  0
  9 10  1  0
 10 11  2  0
 11 12  1  0
 12 13  2  0
 13 14  1  0
 14 15  2  0
 15 16  1  0
 16 17  1  0
 17 18  2  0
 18 19  1  0
 19 20  2  0
 20 21  1  0
 21 22  2  0
  8  2  1  0
 15 10  1  0
 22 17  1  0
 16  4  1  0
  1 23  1  0
  1 24  1  0
  1 25  1  0
  3 26  1  0
  9 27  1  0
  9 28  1  0
 11 29  1  0
 12 30  1  0
 13 31  1  0
 14 32  1  0
 16 33  1  6
 18 34  1  0
 19 35  1  0
 20 36  1  0
 21 37  1  0
 22 38  1  0
M  END
>  <UniqueID>  (20) 
16

>  <SMILES>  (20) 
Cc1cc2c(c(=O)o1)Cc1ccccc1[C@H]2c1ccccc1

>  <Energy>  (20) 
47.71909749416466

>  <Genealogy>  (20) 
Cc1cc2c(c(=O)o1)Cc1ccccc1[C@H]2c1ccccc1 (chirality)
Cc1cc2c(c(=O)o1)Cc1ccccc1[C@H]2c1ccccc1 (3D coordinates assigned)
Cc1cc2c(c(=O)o1)Cc1ccccc1[C@H]2c1ccccc1 (nonaromatic ring conformer: 47.71909749416466 kcal/mol)

>  <smiles>  (20) 
Cc1cc2c(c(=O)o1)Cc1ccccc1C2c1ccccc1

>  <score_type>  (20) 
oracle

>  <origin>  (20) 
autodockgpu

>  <m_score__min__energy>  (20) 
-6.7800000000000002

>  <m_primary>  (20) 
energy

>  <meeko>  (20) 
{"free_energy": -6.77, "intermolecular_energy": -7.07, "internal_energy": -0.77, "cluster_size": 20, "cluster_id": 1, "rank_in_cluster": 8}

>  <energy>  (20) 
-6.77

>  <cluster_rmsd>  (20) 
0.02

>  <rmsd>  (20) 
270.28

>  <cluster>  (20) 
1

$$$$
ZZFUSXOZLWDLQL-LJQANCHMNA-N
     RDKit          3D

 38 41  0  0  0  0  0  0  0  0999 V2000
  143.6750   75.2670  219.4090 C   0  0  0  0  0  0  0  0  0  0  0  0
  142.4430   75.4950  220.2230 C   0  0  0  0  0  0  0  0  0  0  0  0
  141.8840   76.7730  220.3120 C   0  0  0  0  0  0  0  0  0  0  0  0
  140.7270   76.9640  221.0790 C   0  0  0  0  0  0  0  0  0  0  0  0
  140.1560   75.8600  221.7380 C   0  0  0  0  0  0  0  0  0  0  0  0
  140.7920   74.6080  221.6140 C   0  0  0  0  0  0  0  0  0  0  0  0
  140.3330   73.5960  222.2080 O   0  0  0  0  0  0  0  0  0  0  0  0
  141.8860   74.4770  220.8700 O   0  0  0  0  0  0  0  0  0  0  0  0
  138.9390   76.0130  222.6190 C   0  0  0  0  0  0  0  0  0  0  0  0
  138.1370   77.2540  222.3250 C   0  0  0  0  0  0  0  0  0  0  0  0
  136.8080   77.3260  222.7770 C   0  0  0  0  0  0  0  0  0  0  0  0
  136.0470   78.4770  222.5580 C   0  0  0  0  0  0  0  0  0  0  0  0
  136.6080   79.5710  221.9000 C   0  0  0  0  0  0  0  0  0  0  0  0
  137.9320   79.5190  221.4600 C   0  0  0  0  0  0  0  0  0  0  0  0
  138.7070   78.3650  221.6660 C   0  0  0  0  0  0  0  0  0  0  0  0
  140.1490   78.3560  221.2060 C   0  0  1  0  0  0  0  0  0  0  0  0
  141.0070   79.2070  222.1210 C   0  0  0  0  0  0  0  0  0  0  0  0
  141.4070   78.7080  223.3740 C   0  0  0  0  0  0  0  0  0  0  0  0
  142.1980   79.4870  224.2250 C   0  0  0  0  0  0  0  0  0  0  0  0
  142.5960   80.7690  223.8360 C   0  0  0  0  0  0  0  0  0  0  0  0
  142.2050   81.2740  222.5940 C   0  0  0  0  0  0  0  0  0  0  0  0
  141.4140   80.5000  221.7390 C   0  0  0  0  0  0  0  0  0  0  0  0
  144.5329   75.1082  220.0789 H   0  0  0  0  0  0  0  0  0  0  0  0
  143.5361   74.3793  218.7744 H   0  0  0  0  0  0  0  0  0  0  0  0
  143.8630   76.1456  218.7744 H   0  0  0  0  0  0  0  0  0  0  0  0
  142.3476   77.6202  219.7853 H   0  0  0  0  0  0  0  0  0  0  0  0
  138.2906   75.1365  222.4726 H   0  0  0  0  0  0  0  0  0  0  0  0
  139.2981   76.0975  223.6553 H   0  0  0  0  0  0  0  0  0  0  0  0
  136.3641   76.4703  223.3068 H   0  0  0  0  0  0  0  0  0  0  0  0
  135.0041   78.5203  222.9050 H   0  0  0  0  0  0  0  0  0  0  0  0
  136.0068   80.4759  221.7274 H   0  0  0  0  0  0  0  0  0  0  0  0
  138.3718   80.3878  220.9483 H   0  0  0  0  0  0  0  0  0  0  0  0
  140.1545   78.7893  220.1949 H   0  0  0  0  0  0  0  0  0  0  0  0
  141.0962   77.7001  223.6861 H   0  0  0  0  0  0  0  0  0  0  0  0
  142.5075   79.0895  225.2029 H   0  0  0  0  0  0  0  0  0  0  0  0
  143.2169   81.3800  224.5077 H   0  0  0  0  0  0  0  0  0  0  0  0
  142.5198   82.2825  222.2877 H   0  0  0  0  0  0  0  0  0  0  0  0
  141.1080   80.9034  220.7625 H   0  0  0  0  0  0  0  0  0  0  0  0
  1  2  1  0
  2  3  2  0
  3  4  1  0
  4  5  2  0
  5  6  1  0
  6  7  2  0
  6  8  1  0
  5  9  1  0
  9 10  1  0
 10 11  2  0
 11 12  1  0
 12 13  2  0
 13 14  1  0
 14 15  2  0
 15 16  1  0
 16 17  1  0
 17 18  2  0
 18 19  1  0
 19 20  2  0
 20 21  1  0
 21 22  2  0
  8  2  1  0
 15 10  1  0
 22 17  1  0
 16  4  1  0
  1 23  1  0
  1 24  1  0
  1 25  1  0
  3 26  1  0
  9 27  1  0
  9 28  1  0
 11 29  1  0
 12 30  1  0
 13 31  1  0
 14 32  1  0
 16 33  1  6
 18 34  1  0
 19 35  1  0
 20 36  1  0
 21 37  1  0
 22 38  1  0
M  END
>  <UniqueID>  (21) 
17

>  <SMILES>  (21) 
Cc1cc2c(c(=O)o1)Cc1ccccc1[C@H]2c1ccccc1

>  <Energy>  (21) 
47.71909750177956

>  <Genealogy>  (21) 
Cc1cc2c(c(=O)o1)Cc1ccccc1[C@H]2c1ccccc1 (chirality)
Cc1cc2c(c(=O)o1)Cc1ccccc1[C@H]2c1ccccc1 (3D coordinates assigned)
Cc1cc2c(c(=O)o1)Cc1ccccc1[C@H]2c1ccccc1 (nonaromatic ring conformer: 47.71909750177956 kcal/mol)

>  <smiles>  (21) 
Cc1cc2c(c(=O)o1)Cc1ccccc1C2c1ccccc1

>  <score_type>  (21) 
oracle

>  <origin>  (21) 
autodockgpu

>  <m_score__min__energy>  (21) 
-6.7800000000000002

>  <m_primary>  (21) 
energy

>  <meeko>  (21) 
{"free_energy": -6.77, "intermolecular_energy": -7.07, "internal_energy": -0.77, "cluster_size": 20, "cluster_id": 1, "rank_in_cluster": 19}

>  <energy>  (21) 
-6.78

>  <cluster_rmsd>  (21) 
0.0

>  <rmsd>  (21) 
270.27

>  <cluster>  (21) 
1

$$$$
ZZFUSXOZLWDLQL-LJQANCHMNA-N
     RDKit          3D

 38 41  0  0  0  0  0  0  0  0999 V2000
  143.6870   75.2830  219.3910 C   0  0  0  0  0  0  0  0  0  0  0  0
  142.4540   75.5030  220.2070 C   0  0  0  0  0  0  0  0  0  0  0  0
  141.8890   76.7780  220.2980 C   0  0  0  0  0  0  0  0  0  0  0  0
  140.7320   76.9620  221.0670 C   0  0  0  0  0  0  0  0  0  0  0  0
  140.1670   75.8530  221.7240 C   0  0  0  0  0  0  0  0  0  0  0  0
  140.8090   74.6050  221.5970 C   0  0  0  0  0  0  0  0  0  0  0  0
  140.3560   73.5900  222.1900 O   0  0  0  0  0  0  0  0  0  0  0  0
  141.9030   74.4810  220.8530 O   0  0  0  0  0  0  0  0  0  0  0  0
  138.9500   75.9990  222.6070 C   0  0  0  0  0  0  0  0  0  0  0  0
  138.1420   77.2370  222.3160 C   0  0  0  0  0  0  0  0  0  0  0  0
  136.8130   77.3010  222.7690 C   0  0  0  0  0  0  0  0  0  0  0  0
  136.0450   78.4480  222.5540 C   0  0  0  0  0  0  0  0  0  0  0  0
  136.6000   79.5460  221.8970 C   0  0  0  0  0  0  0  0  0  0  0  0
  137.9250   79.5020  221.4550 C   0  0  0  0  0  0  0  0  0  0  0  0
  138.7060   78.3520  221.6590 C   0  0  0  0  0  0  0  0  0  0  0  0
  140.1470   78.3510  221.1970 C   0  0  1  0  0  0  0  0  0  0  0  0
  141.0020   79.2040  222.1130 C   0  0  0  0  0  0  0  0  0  0  0  0
  141.4100   78.7030  223.3630 C   0  0  0  0  0  0  0  0  0  0  0  0
  142.1980   79.4840  224.2140 C   0  0  0  0  0  0  0  0  0  0  0  0
  142.5840   80.7700  223.8300 C   0  0  0  0  0  0  0  0  0  0  0  0
  142.1850   81.2780  222.5920 C   0  0  0  0  0  0  0  0  0  0  0  0
  141.3970   80.5020  221.7360 C   0  0  0  0  0  0  0  0  0  0  0  0
  144.5468   75.1296  220.0598 H   0  0  0  0  0  0  0  0  0  0  0  0
  143.5530   74.3946  218.7564 H   0  0  0  0  0  0  0  0  0  0  0  0
  143.8685   76.1629  218.7564 H   0  0  0  0  0  0  0  0  0  0  0  0
  142.3476   77.6281  219.7716 H   0  0  0  0  0  0  0  0  0  0  0  0
  138.3054   75.1199  222.4598 H   0  0  0  0  0  0  0  0  0  0  0  0
  139.3099   76.0834  223.6430 H   0  0  0  0  0  0  0  0  0  0  0  0
  136.3743   76.4414  223.2968 H   0  0  0  0  0  0  0  0  0  0  0  0
  135.0025   78.4852  222.9029 H   0  0  0  0  0  0  0  0  0  0  0  0
  135.9939   80.4480  221.7265 H   0  0  0  0  0  0  0  0  0  0  0  0
  138.3595   80.3737  220.9438 H   0  0  0  0  0  0  0  0  0  0  0  0
  140.1488   78.7862  220.1867 H   0  0  0  0  0  0  0  0  0  0  0  0
  141.1075   77.6917  223.6723 H   0  0  0  0  0  0  0  0  0  0  0  0
  142.5147   79.0844  225.1887 H   0  0  0  0  0  0  0  0  0  0  0  0
  143.2022   81.3827  224.5026 H   0  0  0  0  0  0  0  0  0  0  0  0
  142.4910   82.2903  222.2895 H   0  0  0  0  0  0  0  0  0  0  0  0
  141.0840   80.9079  220.7627 H   0  0  0  0  0  0  0  0  0  0  0  0
  1  2  1  0
  2  3  2  0
  3  4  1  0
  4  5  2  0
  5  6  1  0
  6  7  2  0
  6  8  1  0
  5  9  1  0
  9 10  1  0
 10 11  2  0
 11 12  1  0
 12 13  2  0
 13 14  1  0
 14 15  2  0
 15 16  1  0
 16 17  1  0
 17 18  2  0
 18 19  1  0
 19 20  2  0
 20 21  1  0
 21 22  2  0
  8  2  1  0
 15 10  1  0
 22 17  1  0
 16  4  1  0
  1 23  1  0
  1 24  1  0
  1 25  1  0
  3 26  1  0
  9 27  1  0
  9 28  1  0
 11 29  1  0
 12 30  1  0
 13 31  1  0
 14 32  1  0
 16 33  1  6
 18 34  1  0
 19 35  1  0
 20 36  1  0
 21 37  1  0
 22 38  1  0
M  END
>  <UniqueID>  (22) 
17

>  <SMILES>  (22) 
Cc1cc2c(c(=O)o1)Cc1ccccc1[C@H]2c1ccccc1

>  <Energy>  (22) 
47.71909750177956

>  <Genealogy>  (22) 
Cc1cc2c(c(=O)o1)Cc1ccccc1[C@H]2c1ccccc1 (chirality)
Cc1cc2c(c(=O)o1)Cc1ccccc1[C@H]2c1ccccc1 (3D coordinates assigned)
Cc1cc2c(c(=O)o1)Cc1ccccc1[C@H]2c1ccccc1 (nonaromatic ring conformer: 47.71909750177956 kcal/mol)

>  <smiles>  (22) 
Cc1cc2c(c(=O)o1)Cc1ccccc1C2c1ccccc1

>  <score_type>  (22) 
oracle

>  <origin>  (22) 
autodockgpu

>  <m_score__min__energy>  (22) 
-6.7800000000000002

>  <m_primary>  (22) 
energy

>  <meeko>  (22) 
{"free_energy": -6.77, "intermolecular_energy": -7.07, "internal_energy": -0.77, "cluster_size": 20, "cluster_id": 1, "rank_in_cluster": 6}

>  <energy>  (22) 
-6.78

>  <cluster_rmsd>  (22) 
0.01

>  <rmsd>  (22) 
270.27

>  <cluster>  (22) 
1

$$$$
ZZFUSXOZLWDLQL-LJQANCHMNA-N
     RDKit          3D

 38 41  0  0  0  0  0  0  0  0999 V2000
  143.6820   75.2840  219.3940 C   0  0  0  0  0  0  0  0  0  0  0  0
  142.4510   75.5070  220.2110 C   0  0  0  0  0  0  0  0  0  0  0  0
  141.8880   76.7840  220.3020 C   0  0  0  0  0  0  0  0  0  0  0  0
  140.7330   76.9700  221.0720 C   0  0  0  0  0  0  0  0  0  0  0  0
  140.1660   75.8630  221.7310 C   0  0  0  0  0  0  0  0  0  0  0  0
  140.8050   74.6140  221.6040 C   0  0  0  0  0  0  0  0  0  0  0  0
  140.3520   73.6000  222.1990 O   0  0  0  0  0  0  0  0  0  0  0  0
  141.8990   74.4870  220.8590 O   0  0  0  0  0  0  0  0  0  0  0  0
  138.9510   76.0120  222.6160 C   0  0  0  0  0  0  0  0  0  0  0  0
  138.1440   77.2510  222.3250 C   0  0  0  0  0  0  0  0  0  0  0  0
  136.8160   77.3180  222.7800 C   0  0  0  0  0  0  0  0  0  0  0  0
  136.0500   78.4670  222.5640 C   0  0  0  0  0  0  0  0  0  0  0  0
  136.6060   79.5630  221.9060 C   0  0  0  0  0  0  0  0  0  0  0  0
  137.9300   79.5160  221.4620 C   0  0  0  0  0  0  0  0  0  0  0  0
  138.7100   78.3640  221.6660 C   0  0  0  0  0  0  0  0  0  0  0  0
  140.1500   78.3610  221.2020 C   0  0  1  0  0  0  0  0  0  0  0  0
  141.0080   79.2130  222.1160 C   0  0  0  0  0  0  0  0  0  0  0  0
  141.4090   78.7160  223.3690 C   0  0  0  0  0  0  0  0  0  0  0  0
  142.1990   79.4960  224.2190 C   0  0  0  0  0  0  0  0  0  0  0  0
  142.5950   80.7780  223.8290 C   0  0  0  0  0  0  0  0  0  0  0  0
  142.2020   81.2820  222.5870 C   0  0  0  0  0  0  0  0  0  0  0  0
  141.4130   80.5060  221.7330 C   0  0  0  0  0  0  0  0  0  0  0  0
  144.5421   75.1282  220.0618 H   0  0  0  0  0  0  0  0  0  0  0  0
  143.5450   74.3961  218.7593 H   0  0  0  0  0  0  0  0  0  0  0  0
  143.8652   76.1636  218.7593 H   0  0  0  0  0  0  0  0  0  0  0  0
  142.3473   77.6330  219.7746 H   0  0  0  0  0  0  0  0  0  0  0  0
  138.3049   75.1336  222.4712 H   0  0  0  0  0  0  0  0  0  0  0  0
  139.3131   76.0973  223.6512 H   0  0  0  0  0  0  0  0  0  0  0  0
  136.3763   76.4601  223.3099 H   0  0  0  0  0  0  0  0  0  0  0  0
  135.0077   78.5065  222.9134 H   0  0  0  0  0  0  0  0  0  0  0  0
  136.0015   80.4662  221.7361 H   0  0  0  0  0  0  0  0  0  0  0  0
  138.3652   80.3864  220.9492 H   0  0  0  0  0  0  0  0  0  0  0  0
  140.1508   78.7961  220.1917 H   0  0  0  0  0  0  0  0  0  0  0  0
  141.0994   77.7080  223.6821 H   0  0  0  0  0  0  0  0  0  0  0  0
  142.5095   79.0995  225.1969 H   0  0  0  0  0  0  0  0  0  0  0  0
  143.2159   81.3900  224.4997 H   0  0  0  0  0  0  0  0  0  0  0  0
  142.5139   82.2913  222.2804 H   0  0  0  0  0  0  0  0  0  0  0  0
  141.1067   80.9079  220.7559 H   0  0  0  0  0  0  0  0  0  0  0  0
  1  2  1  0
  2  3  2  0
  3  4  1  0
  4  5  2  0
  5  6  1  0
  6  7  2  0
  6  8  1  0
  5  9  1  0
  9 10  1  0
 10 11  2  0
 11 12  1  0
 12 13  2  0
 13 14  1  0
 14 15  2  0
 15 16  1  0
 16 17  1  0
 17 18  2  0
 18 19  1  0
 19 20  2  0
 20 21  1  0
 21 22  2  0
  8  2  1  0
 15 10  1  0
 22 17  1  0
 16  4  1  0
  1 23  1  0
  1 24  1  0
  1 25  1  0
  3 26  1  0
  9 27  1  0
  9 28  1  0
 11 29  1  0
 12 30  1  0
 13 31  1  0
 14 32  1  0
 16 33  1  6
 18 34  1  0
 19 35  1  0
 20 36  1  0
 21 37  1  0
 22 38  1  0
M  END
>  <UniqueID>  (23) 
17

>  <SMILES>  (23) 
Cc1cc2c(c(=O)o1)Cc1ccccc1[C@H]2c1ccccc1

>  <Energy>  (23) 
47.71909750177956

>  <Genealogy>  (23) 
Cc1cc2c(c(=O)o1)Cc1ccccc1[C@H]2c1ccccc1 (chirality)
Cc1cc2c(c(=O)o1)Cc1ccccc1[C@H]2c1ccccc1 (3D coordinates assigned)
Cc1cc2c(c(=O)o1)Cc1ccccc1[C@H]2c1ccccc1 (nonaromatic ring conformer: 47.71909750177956 kcal/mol)

>  <smiles>  (23) 
Cc1cc2c(c(=O)o1)Cc1ccccc1C2c1ccccc1

>  <score_type>  (23) 
oracle

>  <origin>  (23) 
autodockgpu

>  <m_score__min__energy>  (23) 
-6.7800000000000002

>  <m_primary>  (23) 
energy

>  <meeko>  (23) 
{"free_energy": -6.78, "intermolecular_energy": -7.07, "internal_energy": -0.77, "cluster_size": 20, "cluster_id": 1, "rank_in_cluster": 3}

>  <energy>  (23) 
-6.78

>  <cluster_rmsd>  (23) 
0.01

>  <rmsd>  (23) 
270.28

>  <cluster>  (23) 
1

$$$$
ZZFUSXOZLWDLQL-LJQANCHMNA-N
     RDKit          3D

 38 41  0  0  0  0  0  0  0  0999 V2000
  143.6970   75.2790  219.4000 C   0  0  0  0  0  0  0  0  0  0  0  0
  142.4630   75.5000  220.2150 C   0  0  0  0  0  0  0  0  0  0  0  0
  141.8980   76.7750  220.3040 C   0  0  0  0  0  0  0  0  0  0  0  0
  140.7400   76.9590  221.0720 C   0  0  0  0  0  0  0  0  0  0  0  0
  140.1750   75.8510  221.7300 C   0  0  0  0  0  0  0  0  0  0  0  0
  140.8170   74.6030  221.6050 C   0  0  0  0  0  0  0  0  0  0  0  0
  140.3640   73.5880  222.1990 O   0  0  0  0  0  0  0  0  0  0  0  0
  141.9120   74.4790  220.8610 O   0  0  0  0  0  0  0  0  0  0  0  0
  138.9570   75.9980  222.6120 C   0  0  0  0  0  0  0  0  0  0  0  0
  138.1490   77.2350  222.3200 C   0  0  0  0  0  0  0  0  0  0  0  0
  136.8200   77.3000  222.7710 C   0  0  0  0  0  0  0  0  0  0  0  0
  136.0520   78.4460  222.5540 C   0  0  0  0  0  0  0  0  0  0  0  0
  136.6070   79.5440  221.8970 C   0  0  0  0  0  0  0  0  0  0  0  0
  137.9320   79.5000  221.4560 C   0  0  0  0  0  0  0  0  0  0  0  0
  138.7130   78.3490  221.6610 C   0  0  0  0  0  0  0  0  0  0  0  0
  140.1550   78.3490  221.2000 C   0  0  1  0  0  0  0  0  0  0  0  0
  141.0090   79.2030  222.1160 C   0  0  0  0  0  0  0  0  0  0  0  0
  141.4070   78.7080  223.3710 C   0  0  0  0  0  0  0  0  0  0  0  0
  142.1940   79.4890  224.2220 C   0  0  0  0  0  0  0  0  0  0  0  0
  142.5900   80.7720  223.8320 C   0  0  0  0  0  0  0  0  0  0  0  0
  142.2000   81.2740  222.5890 C   0  0  0  0  0  0  0  0  0  0  0  0
  141.4130   80.4960  221.7330 C   0  0  0  0  0  0  0  0  0  0  0  0
  144.5560   75.1252  220.0696 H   0  0  0  0  0  0  0  0  0  0  0  0
  143.5631   74.3906  218.7654 H   0  0  0  0  0  0  0  0  0  0  0  0
  143.8797   76.1587  218.7654 H   0  0  0  0  0  0  0  0  0  0  0  0
  142.3569   77.6247  219.7773 H   0  0  0  0  0  0  0  0  0  0  0  0
  138.3127   75.1187  222.4651 H   0  0  0  0  0  0  0  0  0  0  0  0
  139.3165   76.0837  223.6481 H   0  0  0  0  0  0  0  0  0  0  0  0
  136.3807   76.4410  223.2994 H   0  0  0  0  0  0  0  0  0  0  0  0
  135.0089   78.4827  222.9014 H   0  0  0  0  0  0  0  0  0  0  0  0
  136.0008   80.4458  221.7258 H   0  0  0  0  0  0  0  0  0  0  0  0
  138.3670   80.3716  220.9450 H   0  0  0  0  0  0  0  0  0  0  0  0
  140.1582   78.7841  220.1897 H   0  0  0  0  0  0  0  0  0  0  0  0
  141.0970   77.7002  223.6846 H   0  0  0  0  0  0  0  0  0  0  0  0
  142.5026   79.0934  225.2009 H   0  0  0  0  0  0  0  0  0  0  0  0
  143.2083   81.3853  224.5040 H   0  0  0  0  0  0  0  0  0  0  0  0
  142.5121   82.2832  222.2821 H   0  0  0  0  0  0  0  0  0  0  0  0
  141.1081   80.8970  220.7551 H   0  0  0  0  0  0  0  0  0  0  0  0
  1  2  1  0
  2  3  2  0
  3  4  1  0
  4  5  2  0
  5  6  1  0
  6  7  2  0
  6  8  1  0
  5  9  1  0
  9 10  1  0
 10 11  2  0
 11 12  1  0
 12 13  2  0
 13 14  1  0
 14 15  2  0
 15 16  1  0
 16 17  1  0
 17 18  2  0
 18 19  1  0
 19 20  2  0
 20 21  1  0
 21 22  2  0
  8  2  1  0
 15 10  1  0
 22 17  1  0
 16  4  1  0
  1 23  1  0
  1 24  1  0
  1 25  1  0
  3 26  1  0
  9 27  1  0
  9 28  1  0
 11 29  1  0
 12 30  1  0
 13 31  1  0
 14 32  1  0
 16 33  1  6
 18 34  1  0
 19 35  1  0
 20 36  1  0
 21 37  1  0
 22 38  1  0
M  END
>  <UniqueID>  (24) 
17

>  <SMILES>  (24) 
Cc1cc2c(c(=O)o1)Cc1ccccc1[C@H]2c1ccccc1

>  <Energy>  (24) 
47.71909750177956

>  <Genealogy>  (24) 
Cc1cc2c(c(=O)o1)Cc1ccccc1[C@H]2c1ccccc1 (chirality)
Cc1cc2c(c(=O)o1)Cc1ccccc1[C@H]2c1ccccc1 (3D coordinates assigned)
Cc1cc2c(c(=O)o1)Cc1ccccc1[C@H]2c1ccccc1 (nonaromatic ring conformer: 47.71909750177956 kcal/mol)

>  <smiles>  (24) 
Cc1cc2c(c(=O)o1)Cc1ccccc1C2c1ccccc1

>  <score_type>  (24) 
oracle

>  <origin>  (24) 
autodockgpu

>  <m_score__min__energy>  (24) 
-6.7800000000000002

>  <m_primary>  (24) 
energy

>  <meeko>  (24) 
{"free_energy": -6.77, "intermolecular_energy": -7.07, "internal_energy": -0.77, "cluster_size": 20, "cluster_id": 1, "rank_in_cluster": 13}

>  <energy>  (24) 
-6.78

>  <cluster_rmsd>  (24) 
0.01

>  <rmsd>  (24) 
270.28

>  <cluster>  (24) 
1

$$$$
ZZFUSXOZLWDLQL-LJQANCHMNA-N
     RDKit          3D

 38 41  0  0  0  0  0  0  0  0999 V2000
  143.6630   75.2590  219.4070 C   0  0  0  0  0  0  0  0  0  0  0  0
  142.4310   75.4860  220.2210 C   0  0  0  0  0  0  0  0  0  0  0  0
  141.8720   76.7650  220.3100 C   0  0  0  0  0  0  0  0  0  0  0  0
  140.7150   76.9550  221.0780 C   0  0  0  0  0  0  0  0  0  0  0  0
  140.1450   75.8510  221.7380 C   0  0  0  0  0  0  0  0  0  0  0  0
  140.7810   74.6000  221.6130 C   0  0  0  0  0  0  0  0  0  0  0  0
  140.3240   73.5870  222.2090 O   0  0  0  0  0  0  0  0  0  0  0  0
  141.8750   74.4690  220.8690 O   0  0  0  0  0  0  0  0  0  0  0  0
  138.9280   76.0040  222.6200 C   0  0  0  0  0  0  0  0  0  0  0  0
  138.1260   77.2450  222.3260 C   0  0  0  0  0  0  0  0  0  0  0  0
  136.7970   77.3170  222.7790 C   0  0  0  0  0  0  0  0  0  0  0  0
  136.0350   78.4670  222.5610 C   0  0  0  0  0  0  0  0  0  0  0  0
  136.5950   79.5610  221.9020 C   0  0  0  0  0  0  0  0  0  0  0  0
  137.9190   79.5090  221.4600 C   0  0  0  0  0  0  0  0  0  0  0  0
  138.6950   78.3560  221.6670 C   0  0  0  0  0  0  0  0  0  0  0  0
  140.1370   78.3470  221.2050 C   0  0  1  0  0  0  0  0  0  0  0  0
  140.9950   79.1980  222.1190 C   0  0  0  0  0  0  0  0  0  0  0  0
  141.4050   78.6970  223.3680 C   0  0  0  0  0  0  0  0  0  0  0  0
  142.1960   79.4760  224.2170 C   0  0  0  0  0  0  0  0  0  0  0  0
  142.5850   80.7610  223.8320 C   0  0  0  0  0  0  0  0  0  0  0  0
  142.1830   81.2700  222.5950 C   0  0  0  0  0  0  0  0  0  0  0  0
  141.3930   80.4960  221.7410 C   0  0  0  0  0  0  0  0  0  0  0  0
  144.5211   75.1009  220.0769 H   0  0  0  0  0  0  0  0  0  0  0  0
  143.5248   74.3712  218.7724 H   0  0  0  0  0  0  0  0  0  0  0  0
  143.8503   76.1378  218.7724 H   0  0  0  0  0  0  0  0  0  0  0  0
  142.3352   77.6123  219.7832 H   0  0  0  0  0  0  0  0  0  0  0  0
  138.2796   75.1275  222.4740 H   0  0  0  0  0  0  0  0  0  0  0  0
  139.2874   76.0885  223.6562 H   0  0  0  0  0  0  0  0  0  0  0  0
  136.3539   76.4611  223.3092 H   0  0  0  0  0  0  0  0  0  0  0  0
  134.9925   78.5098  222.9093 H   0  0  0  0  0  0  0  0  0  0  0  0
  135.9935   80.4658  221.7301 H   0  0  0  0  0  0  0  0  0  0  0  0
  138.3575   80.3771  220.9461 H   0  0  0  0  0  0  0  0  0  0  0  0
  140.1418   78.7797  220.1937 H   0  0  0  0  0  0  0  0  0  0  0  0
  141.1013   77.6863  223.6782 H   0  0  0  0  0  0  0  0  0  0  0  0
  142.5131   79.0759  225.1913 H   0  0  0  0  0  0  0  0  0  0  0  0
  143.2075   81.3717  224.5025 H   0  0  0  0  0  0  0  0  0  0  0  0
  142.4890   82.2823  222.2924 H   0  0  0  0  0  0  0  0  0  0  0  0
  141.0799   80.9022  220.7679 H   0  0  0  0  0  0  0  0  0  0  0  0
  1  2  1  0
  2  3  2  0
  3  4  1  0
  4  5  2  0
  5  6  1  0
  6  7  2  0
  6  8  1  0
  5  9  1  0
  9 10  1  0
 10 11  2  0
 11 12  1  0
 12 13  2  0
 13 14  1  0
 14 15  2  0
 15 16  1  0
 16 17  1  0
 17 18  2  0
 18 19  1  0
 19 20  2  0
 20 21  1  0
 21 22  2  0
  8  2  1  0
 15 10  1  0
 22 17  1  0
 16  4  1  0
  1 23  1  0
  1 24  1  0
  1 25  1  0
  3 26  1  0
  9 27  1  0
  9 28  1  0
 11 29  1  0
 12 30  1  0
 13 31  1  0
 14 32  1  0
 16 33  1  6
 18 34  1  0
 19 35  1  0
 20 36  1  0
 21 37  1  0
 22 38  1  0
M  END
>  <UniqueID>  (25) 
17

>  <SMILES>  (25) 
Cc1cc2c(c(=O)o1)Cc1ccccc1[C@H]2c1ccccc1

>  <Energy>  (25) 
47.71909750177956

>  <Genealogy>  (25) 
Cc1cc2c(c(=O)o1)Cc1ccccc1[C@H]2c1ccccc1 (chirality)
Cc1cc2c(c(=O)o1)Cc1ccccc1[C@H]2c1ccccc1 (3D coordinates assigned)
Cc1cc2c(c(=O)o1)Cc1ccccc1[C@H]2c1ccccc1 (nonaromatic ring conformer: 47.71909750177956 kcal/mol)

>  <smiles>  (25) 
Cc1cc2c(c(=O)o1)Cc1ccccc1C2c1ccccc1

>  <score_type>  (25) 
oracle

>  <origin>  (25) 
autodockgpu

>  <m_score__min__energy>  (25) 
-6.7800000000000002

>  <m_primary>  (25) 
energy

>  <meeko>  (25) 
{"free_energy": -6.77, "intermolecular_energy": -7.07, "internal_energy": -0.77, "cluster_size": 20, "cluster_id": 1, "rank_in_cluster": 10}

>  <energy>  (25) 
-6.77

>  <cluster_rmsd>  (25) 
0.02

>  <rmsd>  (25) 
270.27

>  <cluster>  (25) 
1

$$$$
ZZFUSXOZLWDLQL-LJQANCHMNA-N
     RDKit          3D

 38 41  0  0  0  0  0  0  0  0999 V2000
  143.6770   75.2660  219.3920 C   0  0  0  0  0  0  0  0  0  0  0  0
  142.4460   75.4910  220.2090 C   0  0  0  0  0  0  0  0  0  0  0  0
  141.8850   76.7680  220.3000 C   0  0  0  0  0  0  0  0  0  0  0  0
  140.7300   76.9550  221.0710 C   0  0  0  0  0  0  0  0  0  0  0  0
  140.1630   75.8500  221.7310 C   0  0  0  0  0  0  0  0  0  0  0  0
  140.8010   74.6000  221.6050 C   0  0  0  0  0  0  0  0  0  0  0  0
  140.3470   73.5860  222.2000 O   0  0  0  0  0  0  0  0  0  0  0  0
  141.8940   74.4710  220.8580 O   0  0  0  0  0  0  0  0  0  0  0  0
  138.9480   76.0000  222.6170 C   0  0  0  0  0  0  0  0  0  0  0  0
  138.1430   77.2400  222.3260 C   0  0  0  0  0  0  0  0  0  0  0  0
  136.8150   77.3080  222.7810 C   0  0  0  0  0  0  0  0  0  0  0  0
  136.0500   78.4570  222.5660 C   0  0  0  0  0  0  0  0  0  0  0  0
  136.6070   79.5530  221.9060 C   0  0  0  0  0  0  0  0  0  0  0  0
  137.9300   79.5040  221.4620 C   0  0  0  0  0  0  0  0  0  0  0  0
  138.7090   78.3520  221.6650 C   0  0  0  0  0  0  0  0  0  0  0  0
  140.1490   78.3470  221.2000 C   0  0  1  0  0  0  0  0  0  0  0  0
  141.0080   79.1980  222.1130 C   0  0  0  0  0  0  0  0  0  0  0  0
  141.4080   78.7030  223.3680 C   0  0  0  0  0  0  0  0  0  0  0  0
  142.1990   79.4830  224.2160 C   0  0  0  0  0  0  0  0  0  0  0  0
  142.5980   80.7630  223.8240 C   0  0  0  0  0  0  0  0  0  0  0  0
  142.2070   81.2660  222.5820 C   0  0  0  0  0  0  0  0  0  0  0  0
  141.4160   80.4900  221.7280 C   0  0  0  0  0  0  0  0  0  0  0  0
  144.5367   75.1089  220.0600 H   0  0  0  0  0  0  0  0  0  0  0  0
  143.5387   74.3783  218.7573 H   0  0  0  0  0  0  0  0  0  0  0  0
  143.8617   76.1453  218.7573 H   0  0  0  0  0  0  0  0  0  0  0  0
  142.3450   77.6165  219.7724 H   0  0  0  0  0  0  0  0  0  0  0  0
  138.3007   75.1224  222.4723 H   0  0  0  0  0  0  0  0  0  0  0  0
  139.3101   76.0842  223.6523 H   0  0  0  0  0  0  0  0  0  0  0  0
  136.3747   76.4501  223.3104 H   0  0  0  0  0  0  0  0  0  0  0  0
  135.0083   78.4977  222.9171 H   0  0  0  0  0  0  0  0  0  0  0  0
  136.0033   80.4565  221.7353 H   0  0  0  0  0  0  0  0  0  0  0  0
  138.3660   80.3741  220.9492 H   0  0  0  0  0  0  0  0  0  0  0  0
  140.1501   78.7814  220.1894 H   0  0  0  0  0  0  0  0  0  0  0  0
  141.0963   77.6963  223.6834 H   0  0  0  0  0  0  0  0  0  0  0  0
  142.5083   79.0879  225.1949 H   0  0  0  0  0  0  0  0  0  0  0  0
  143.2203   81.3745  224.4940 H   0  0  0  0  0  0  0  0  0  0  0  0
  142.5213   82.2742  222.2742 H   0  0  0  0  0  0  0  0  0  0  0  0
  141.1109   80.8911  220.7502 H   0  0  0  0  0  0  0  0  0  0  0  0
  1  2  1  0
  2  3  2  0
  3  4  1  0
  4  5  2  0
  5  6  1  0
  6  7  2  0
  6  8  1  0
  5  9  1  0
  9 10  1  0
 10 11  2  0
 11 12  1  0
 12 13  2  0
 13 14  1  0
 14 15  2  0
 15 16  1  0
 16 17  1  0
 17 18  2  0
 18 19  1  0
 19 20  2  0
 20 21  1  0
 21 22  2  0
  8  2  1  0
 15 10  1  0
 22 17  1  0
 16  4  1  0
  1 23  1  0
  1 24  1  0
  1 25  1  0
  3 26  1  0
  9 27  1  0
  9 28  1  0
 11 29  1  0
 12 30  1  0
 13 31  1  0
 14 32  1  0
 16 33  1  6
 18 34  1  0
 19 35  1  0
 20 36  1  0
 21 37  1  0
 22 38  1  0
M  END
>  <UniqueID>  (26) 
17

>  <SMILES>  (26) 
Cc1cc2c(c(=O)o1)Cc1ccccc1[C@H]2c1ccccc1

>  <Energy>  (26) 
47.71909750177956

>  <Genealogy>  (26) 
Cc1cc2c(c(=O)o1)Cc1ccccc1[C@H]2c1ccccc1 (chirality)
Cc1cc2c(c(=O)o1)Cc1ccccc1[C@H]2c1ccccc1 (3D coordinates assigned)
Cc1cc2c(c(=O)o1)Cc1ccccc1[C@H]2c1ccccc1 (nonaromatic ring conformer: 47.71909750177956 kcal/mol)

>  <smiles>  (26) 
Cc1cc2c(c(=O)o1)Cc1ccccc1C2c1ccccc1

>  <score_type>  (26) 
oracle

>  <origin>  (26) 
autodockgpu

>  <m_score__min__energy>  (26) 
-6.7800000000000002

>  <m_primary>  (26) 
energy

>  <meeko>  (26) 
{"free_energy": -6.77, "intermolecular_energy": -7.07, "internal_energy": -0.77, "cluster_size": 20, "cluster_id": 1, "rank_in_cluster": 5}

>  <energy>  (26) 
-6.77

>  <cluster_rmsd>  (26) 
0.02

>  <rmsd>  (26) 
270.27

>  <cluster>  (26) 
1

$$$$
ZZFUSXOZLWDLQL-LJQANCHMNA-N
     RDKit          3D

 38 41  0  0  0  0  0  0  0  0999 V2000
  143.6740   75.2750  219.3930 C   0  0  0  0  0  0  0  0  0  0  0  0
  142.4430   75.5010  220.2090 C   0  0  0  0  0  0  0  0  0  0  0  0
  141.8830   76.7790  220.3010 C   0  0  0  0  0  0  0  0  0  0  0  0
  140.7270   76.9670  221.0700 C   0  0  0  0  0  0  0  0  0  0  0  0
  140.1570   75.8610  221.7270 C   0  0  0  0  0  0  0  0  0  0  0  0
  140.7930   74.6100  221.6000 C   0  0  0  0  0  0  0  0  0  0  0  0
  140.3360   73.5960  222.1930 O   0  0  0  0  0  0  0  0  0  0  0  0
  141.8870   74.4810  220.8550 O   0  0  0  0  0  0  0  0  0  0  0  0
  138.9410   76.0120  222.6100 C   0  0  0  0  0  0  0  0  0  0  0  0
  138.1380   77.2540  222.3200 C   0  0  0  0  0  0  0  0  0  0  0  0
  136.8100   77.3240  222.7730 C   0  0  0  0  0  0  0  0  0  0  0  0
  136.0470   78.4740  222.5580 C   0  0  0  0  0  0  0  0  0  0  0  0
  136.6070   79.5700  221.9010 C   0  0  0  0  0  0  0  0  0  0  0  0
  137.9310   79.5200  221.4590 C   0  0  0  0  0  0  0  0  0  0  0  0
  138.7070   78.3660  221.6620 C   0  0  0  0  0  0  0  0  0  0  0  0
  140.1480   78.3590  221.2000 C   0  0  1  0  0  0  0  0  0  0  0  0
  141.0070   79.2080  222.1160 C   0  0  0  0  0  0  0  0  0  0  0  0
  141.4120   78.7060  223.3660 C   0  0  0  0  0  0  0  0  0  0  0  0
  142.2030   79.4830  224.2170 C   0  0  0  0  0  0  0  0  0  0  0  0
  142.5970   80.7670  223.8320 C   0  0  0  0  0  0  0  0  0  0  0  0
  142.2000   81.2760  222.5940 C   0  0  0  0  0  0  0  0  0  0  0  0
  141.4090   80.5040  221.7380 C   0  0  0  0  0  0  0  0  0  0  0  0
  144.5332   75.1173  220.0615 H   0  0  0  0  0  0  0  0  0  0  0  0
  143.5354   74.3873  218.7584 H   0  0  0  0  0  0  0  0  0  0  0  0
  143.8597   76.1541  218.7584 H   0  0  0  0  0  0  0  0  0  0  0  0
  142.3451   77.6276  219.7753 H   0  0  0  0  0  0  0  0  0  0  0  0
  138.2926   75.1358  222.4624 H   0  0  0  0  0  0  0  0  0  0  0  0
  139.3016   76.0944  223.6460 H   0  0  0  0  0  0  0  0  0  0  0  0
  136.3676   76.4664  223.3011 H   0  0  0  0  0  0  0  0  0  0  0  0
  135.0046   78.5155  222.9067 H   0  0  0  0  0  0  0  0  0  0  0  0
  136.0050   80.4748  221.7309 H   0  0  0  0  0  0  0  0  0  0  0  0
  138.3695   80.3901  220.9484 H   0  0  0  0  0  0  0  0  0  0  0  0
  140.1516   78.7946  220.1899 H   0  0  0  0  0  0  0  0  0  0  0  0
  141.1045   77.6962  223.6755 H   0  0  0  0  0  0  0  0  0  0  0  0
  142.5162   79.0825  225.1925 H   0  0  0  0  0  0  0  0  0  0  0  0
  143.2195   81.3764  224.5037 H   0  0  0  0  0  0  0  0  0  0  0  0
  142.5104   82.2870  222.2914 H   0  0  0  0  0  0  0  0  0  0  0  0
  141.0989   80.9108  220.7642 H   0  0  0  0  0  0  0  0  0  0  0  0
  1  2  1  0
  2  3  2  0
  3  4  1  0
  4  5  2  0
  5  6  1  0
  6  7  2  0
  6  8  1  0
  5  9  1  0
  9 10  1  0
 10 11  2  0
 11 12  1  0
 12 13  2  0
 13 14  1  0
 14 15  2  0
 15 16  1  0
 16 17  1  0
 17 18  2  0
 18 19  1  0
 19 20  2  0
 20 21  1  0
 21 22  2  0
  8  2  1  0
 15 10  1  0
 22 17  1  0
 16  4  1  0
  1 23  1  0
  1 24  1  0
  1 25  1  0
  3 26  1  0
  9 27  1  0
  9 28  1  0
 11 29  1  0
 12 30  1  0
 13 31  1  0
 14 32  1  0
 16 33  1  6
 18 34  1  0
 19 35  1  0
 20 36  1  0
 21 37  1  0
 22 38  1  0
M  END
>  <UniqueID>  (27) 
17

>  <SMILES>  (27) 
Cc1cc2c(c(=O)o1)Cc1ccccc1[C@H]2c1ccccc1

>  <Energy>  (27) 
47.71909750177956

>  <Genealogy>  (27) 
Cc1cc2c(c(=O)o1)Cc1ccccc1[C@H]2c1ccccc1 (chirality)
Cc1cc2c(c(=O)o1)Cc1ccccc1[C@H]2c1ccccc1 (3D coordinates assigned)
Cc1cc2c(c(=O)o1)Cc1ccccc1[C@H]2c1ccccc1 (nonaromatic ring conformer: 47.71909750177956 kcal/mol)

>  <smiles>  (27) 
Cc1cc2c(c(=O)o1)Cc1ccccc1C2c1ccccc1

>  <score_type>  (27) 
oracle

>  <origin>  (27) 
autodockgpu

>  <m_score__min__energy>  (27) 
-6.7800000000000002

>  <m_primary>  (27) 
energy

>  <meeko>  (27) 
{"free_energy": -6.78, "intermolecular_energy": -7.08, "internal_energy": -0.77, "cluster_size": 20, "cluster_id": 1, "rank_in_cluster": 2}

>  <energy>  (27) 
-6.77

>  <cluster_rmsd>  (27) 
0.02

>  <rmsd>  (27) 
270.27

>  <cluster>  (27) 
1

$$$$
ZZFUSXOZLWDLQL-LJQANCHMNA-N
     RDKit          3D

 38 41  0  0  0  0  0  0  0  0999 V2000
  143.6860   75.3020  219.3880 C   0  0  0  0  0  0  0  0  0  0  0  0
  142.4550   75.5220  220.2070 C   0  0  0  0  0  0  0  0  0  0  0  0
  141.8890   76.7960  220.2990 C   0  0  0  0  0  0  0  0  0  0  0  0
  140.7340   76.9790  221.0700 C   0  0  0  0  0  0  0  0  0  0  0  0
  140.1710   75.8710  221.7300 C   0  0  0  0  0  0  0  0  0  0  0  0
  140.8140   74.6230  221.6020 C   0  0  0  0  0  0  0  0  0  0  0  0
  140.3640   73.6070  222.1970 O   0  0  0  0  0  0  0  0  0  0  0  0
  141.9070   74.5000  220.8550 O   0  0  0  0  0  0  0  0  0  0  0  0
  138.9560   76.0160  222.6160 C   0  0  0  0  0  0  0  0  0  0  0  0
  138.1460   77.2520  222.3260 C   0  0  0  0  0  0  0  0  0  0  0  0
  136.8180   77.3150  222.7820 C   0  0  0  0  0  0  0  0  0  0  0  0
  136.0490   78.4610  222.5680 C   0  0  0  0  0  0  0  0  0  0  0  0
  136.6010   79.5590  221.9090 C   0  0  0  0  0  0  0  0  0  0  0  0
  137.9240   79.5170  221.4640 C   0  0  0  0  0  0  0  0  0  0  0  0
  138.7070   78.3670  221.6660 C   0  0  0  0  0  0  0  0  0  0  0  0
  140.1470   78.3680  221.2010 C   0  0  1  0  0  0  0  0  0  0  0  0
  141.0030   79.2220  222.1140 C   0  0  0  0  0  0  0  0  0  0  0  0
  141.4110   78.7250  223.3650 C   0  0  0  0  0  0  0  0  0  0  0  0
  142.2000   79.5080  224.2140 C   0  0  0  0  0  0  0  0  0  0  0  0
  142.5880   80.7920  223.8250 C   0  0  0  0  0  0  0  0  0  0  0  0
  142.1890   81.2970  222.5860 C   0  0  0  0  0  0  0  0  0  0  0  0
  141.4010   80.5190  221.7320 C   0  0  0  0  0  0  0  0  0  0  0  0
  144.5473   75.1481  220.0547 H   0  0  0  0  0  0  0  0  0  0  0  0
  143.5503   74.4139  218.7533 H   0  0  0  0  0  0  0  0  0  0  0  0
  143.8663   76.1822  218.7533 H   0  0  0  0  0  0  0  0  0  0  0  0
  142.3456   77.6464  219.7715 H   0  0  0  0  0  0  0  0  0  0  0  0
  138.3123   75.1358  222.4712 H   0  0  0  0  0  0  0  0  0  0  0  0
  139.3183   76.1017  223.6511 H   0  0  0  0  0  0  0  0  0  0  0  0
  136.3811   76.4554  223.3113 H   0  0  0  0  0  0  0  0  0  0  0  0
  135.0073   78.4975  222.9195 H   0  0  0  0  0  0  0  0  0  0  0  0
  135.9931   80.4599  221.7394 H   0  0  0  0  0  0  0  0  0  0  0  0
  138.3563   80.3894  220.9521 H   0  0  0  0  0  0  0  0  0  0  0  0
  140.1456   78.8032  220.1908 H   0  0  0  0  0  0  0  0  0  0  0  0
  141.1078   77.7148  223.6774 H   0  0  0  0  0  0  0  0  0  0  0  0
  142.5156   79.1116  225.1903 H   0  0  0  0  0  0  0  0  0  0  0  0
  143.2081   81.4056  224.4950 H   0  0  0  0  0  0  0  0  0  0  0  0
  142.4950   82.3086  222.2811 H   0  0  0  0  0  0  0  0  0  0  0  0
  141.0900   80.9215  220.7567 H   0  0  0  0  0  0  0  0  0  0  0  0
  1  2  1  0
  2  3  2  0
  3  4  1  0
  4  5  2  0
  5  6  1  0
  6  7  2  0
  6  8  1  0
  5  9  1  0
  9 10  1  0
 10 11  2  0
 11 12  1  0
 12 13  2  0
 13 14  1  0
 14 15  2  0
 15 16  1  0
 16 17  1  0
 17 18  2  0
 18 19  1  0
 19 20  2  0
 20 21  1  0
 21 22  2  0
  8  2  1  0
 15 10  1  0
 22 17  1  0
 16  4  1  0
  1 23  1  0
  1 24  1  0
  1 25  1  0
  3 26  1  0
  9 27  1  0
  9 28  1  0
 11 29  1  0
 12 30  1  0
 13 31  1  0
 14 32  1  0
 16 33  1  6
 18 34  1  0
 19 35  1  0
 20 36  1  0
 21 37  1  0
 22 38  1  0
M  END
>  <UniqueID>  (28) 
17

>  <SMILES>  (28) 
Cc1cc2c(c(=O)o1)Cc1ccccc1[C@H]2c1ccccc1

>  <Energy>  (28) 
47.71909750177956

>  <Genealogy>  (28) 
Cc1cc2c(c(=O)o1)Cc1ccccc1[C@H]2c1ccccc1 (chirality)
Cc1cc2c(c(=O)o1)Cc1ccccc1[C@H]2c1ccccc1 (3D coordinates assigned)
Cc1cc2c(c(=O)o1)Cc1ccccc1[C@H]2c1ccccc1 (nonaromatic ring conformer: 47.71909750177956 kcal/mol)

>  <smiles>  (28) 
Cc1cc2c(c(=O)o1)Cc1ccccc1C2c1ccccc1

>  <score_type>  (28) 
oracle

>  <origin>  (28) 
autodockgpu

>  <m_score__min__energy>  (28) 
-6.7800000000000002

>  <m_primary>  (28) 
energy

>  <meeko>  (28) 
{"free_energy": -6.77, "intermolecular_energy": -7.07, "internal_energy": -0.77, "cluster_size": 20, "cluster_id": 1, "rank_in_cluster": 11}

>  <energy>  (28) 
-6.77

>  <cluster_rmsd>  (28) 
0.02

>  <rmsd>  (28) 
270.27

>  <cluster>  (28) 
1

$$$$
ZZFUSXOZLWDLQL-LJQANCHMNA-N
     RDKit          3D

 38 41  0  0  0  0  0  0  0  0999 V2000
  143.6930   75.3020  219.3930 C   0  0  0  0  0  0  0  0  0  0  0  0
  142.4610   75.5190  220.2100 C   0  0  0  0  0  0  0  0  0  0  0  0
  141.8930   76.7930  220.3030 C   0  0  0  0  0  0  0  0  0  0  0  0
  140.7370   76.9740  221.0730 C   0  0  0  0  0  0  0  0  0  0  0  0
  140.1750   75.8640  221.7320 C   0  0  0  0  0  0  0  0  0  0  0  0
  140.8200   74.6180  221.6040 C   0  0  0  0  0  0  0  0  0  0  0  0
  140.3710   73.6010  222.1980 O   0  0  0  0  0  0  0  0  0  0  0  0
  141.9130   74.4960  220.8570 O   0  0  0  0  0  0  0  0  0  0  0  0
  138.9600   76.0070  222.6180 C   0  0  0  0  0  0  0  0  0  0  0  0
  138.1480   77.2430  222.3280 C   0  0  0  0  0  0  0  0  0  0  0  0
  136.8200   77.3050  222.7830 C   0  0  0  0  0  0  0  0  0  0  0  0
  136.0490   78.4500  222.5690 C   0  0  0  0  0  0  0  0  0  0  0  0
  136.6010   79.5490  221.9110 C   0  0  0  0  0  0  0  0  0  0  0  0
  137.9240   79.5080  221.4670 C   0  0  0  0  0  0  0  0  0  0  0  0
  138.7090   78.3590  221.6690 C   0  0  0  0  0  0  0  0  0  0  0  0
  140.1490   78.3620  221.2050 C   0  0  1  0  0  0  0  0  0  0  0  0
  141.0030   79.2170  222.1190 C   0  0  0  0  0  0  0  0  0  0  0  0
  141.4140   78.7180  223.3680 C   0  0  0  0  0  0  0  0  0  0  0  0
  142.2020   79.5000  224.2180 C   0  0  0  0  0  0  0  0  0  0  0  0
  142.5850   80.7870  223.8320 C   0  0  0  0  0  0  0  0  0  0  0  0
  142.1830   81.2940  222.5950 C   0  0  0  0  0  0  0  0  0  0  0  0
  141.3960   80.5150  221.7400 C   0  0  0  0  0  0  0  0  0  0  0  0
  144.5538   75.1504  220.0608 H   0  0  0  0  0  0  0  0  0  0  0  0
  143.5603   74.4134  218.7584 H   0  0  0  0  0  0  0  0  0  0  0  0
  143.8719   76.1825  218.7584 H   0  0  0  0  0  0  0  0  0  0  0  0
  142.3492   77.6445  219.7769 H   0  0  0  0  0  0  0  0  0  0  0  0
  138.3174   75.1261  222.4730 H   0  0  0  0  0  0  0  0  0  0  0  0
  139.3221   76.0927  223.6532 H   0  0  0  0  0  0  0  0  0  0  0  0
  136.3840   76.4448  223.3121 H   0  0  0  0  0  0  0  0  0  0  0  0
  135.0068   78.4849  222.9193 H   0  0  0  0  0  0  0  0  0  0  0  0
  135.9928   80.4498  221.7416 H   0  0  0  0  0  0  0  0  0  0  0  0
  138.3555   80.3810  220.9554 H   0  0  0  0  0  0  0  0  0  0  0  0
  140.1485   78.7978  220.1950 H   0  0  0  0  0  0  0  0  0  0  0  0
  141.1137   77.7062  223.6781 H   0  0  0  0  0  0  0  0  0  0  0  0
  142.5209   79.1013  225.1923 H   0  0  0  0  0  0  0  0  0  0  0  0
  143.2036   81.4010  224.5031 H   0  0  0  0  0  0  0  0  0  0  0  0
  142.4854   82.3073  222.2922 H   0  0  0  0  0  0  0  0  0  0  0  0
  141.0824   80.9188  220.7660 H   0  0  0  0  0  0  0  0  0  0  0  0
  1  2  1  0
  2  3  2  0
  3  4  1  0
  4  5  2  0
  5  6  1  0
  6  7  2  0
  6  8  1  0
  5  9  1  0
  9 10  1  0
 10 11  2  0
 11 12  1  0
 12 13  2  0
 13 14  1  0
 14 15  2  0
 15 16  1  0
 16 17  1  0
 17 18  2  0
 18 19  1  0
 19 20  2  0
 20 21  1  0
 21 22  2  0
  8  2  1  0
 15 10  1  0
 22 17  1  0
 16  4  1  0
  1 23  1  0
  1 24  1  0
  1 25  1  0
  3 26  1  0
  9 27  1  0
  9 28  1  0
 11 29  1  0
 12 30  1  0
 13 31  1  0
 14 32  1  0
 16 33  1  6
 18 34  1  0
 19 35  1  0
 20 36  1  0
 21 37  1  0
 22 38  1  0
M  END
>  <UniqueID>  (29) 
17

>  <SMILES>  (29) 
Cc1cc2c(c(=O)o1)Cc1ccccc1[C@H]2c1ccccc1

>  <Energy>  (29) 
47.71909750177956

>  <Genealogy>  (29) 
Cc1cc2c(c(=O)o1)Cc1ccccc1[C@H]2c1ccccc1 (chirality)
Cc1cc2c(c(=O)o1)Cc1ccccc1[C@H]2c1ccccc1 (3D coordinates assigned)
Cc1cc2c(c(=O)o1)Cc1ccccc1[C@H]2c1ccccc1 (nonaromatic ring conformer: 47.71909750177956 kcal/mol)

>  <smiles>  (29) 
Cc1cc2c(c(=O)o1)Cc1ccccc1C2c1ccccc1

>  <score_type>  (29) 
oracle

>  <origin>  (29) 
autodockgpu

>  <m_score__min__energy>  (29) 
-6.7800000000000002

>  <m_primary>  (29) 
energy

>  <meeko>  (29) 
{"free_energy": -6.77, "intermolecular_energy": -7.07, "internal_energy": -0.77, "cluster_size": 20, "cluster_id": 1, "rank_in_cluster": 18}

>  <energy>  (29) 
-6.77

>  <cluster_rmsd>  (29) 
0.02

>  <rmsd>  (29) 
270.27

>  <cluster>  (29) 
1

$$$$
ZZFUSXOZLWDLQL-LJQANCHMNA-N
     RDKit          3D

 38 41  0  0  0  0  0  0  0  0999 V2000
  143.6600   75.2870  219.3680 C   0  0  0  0  0  0  0  0  0  0  0  0
  142.4340   75.5040  220.1930 C   0  0  0  0  0  0  0  0  0  0  0  0
  141.8690   76.7790  220.2930 C   0  0  0  0  0  0  0  0  0  0  0  0
  140.7170   76.9600  221.0700 C   0  0  0  0  0  0  0  0  0  0  0  0
  140.1570   75.8490  221.7290 C   0  0  0  0  0  0  0  0  0  0  0  0
  140.7990   74.6020  221.5930 C   0  0  0  0  0  0  0  0  0  0  0  0
  140.3510   73.5840  222.1870 O   0  0  0  0  0  0  0  0  0  0  0  0
  141.8880   74.4800  220.8410 O   0  0  0  0  0  0  0  0  0  0  0  0
  138.9470   75.9920  222.6210 C   0  0  0  0  0  0  0  0  0  0  0  0
  138.1360   77.2300  222.3400 C   0  0  0  0  0  0  0  0  0  0  0  0
  136.8110   77.2930  222.8030 C   0  0  0  0  0  0  0  0  0  0  0  0
  136.0410   78.4400  222.5960 C   0  0  0  0  0  0  0  0  0  0  0  0
  136.5900   79.5400  221.9390 C   0  0  0  0  0  0  0  0  0  0  0  0
  137.9110   79.4980  221.4870 C   0  0  0  0  0  0  0  0  0  0  0  0
  138.6950   78.3470  221.6810 C   0  0  0  0  0  0  0  0  0  0  0  0
  140.1330   78.3480  221.2090 C   0  0  1  0  0  0  0  0  0  0  0  0
  140.9940   79.1990  222.1210 C   0  0  0  0  0  0  0  0  0  0  0  0
  141.3950   78.7030  223.3740 C   0  0  0  0  0  0  0  0  0  0  0  0
  142.1880   79.4820  224.2220 C   0  0  0  0  0  0  0  0  0  0  0  0
  142.5880   80.7620  223.8300 C   0  0  0  0  0  0  0  0  0  0  0  0
  142.1960   81.2650  222.5880 C   0  0  0  0  0  0  0  0  0  0  0  0
  141.4030   80.4910  221.7350 C   0  0  0  0  0  0  0  0  0  0  0  0
  144.5251   75.1339  220.0300 H   0  0  0  0  0  0  0  0  0  0  0  0
  143.5224   74.3993  218.7332 H   0  0  0  0  0  0  0  0  0  0  0  0
  143.8355   76.1680  218.7332 H   0  0  0  0  0  0  0  0  0  0  0  0
  142.3241   77.6313  219.7671 H   0  0  0  0  0  0  0  0  0  0  0  0
  138.3019   75.1129  222.4762 H   0  0  0  0  0  0  0  0  0  0  0  0
  139.3149   76.0739  223.6544 H   0  0  0  0  0  0  0  0  0  0  0  0
  136.3765   76.4324  223.3327 H   0  0  0  0  0  0  0  0  0  0  0  0
  135.0007   78.4752  222.9517 H   0  0  0  0  0  0  0  0  0  0  0  0
  135.9822   80.4423  221.7763 H   0  0  0  0  0  0  0  0  0  0  0  0
  138.3411   80.3717  220.9755 H   0  0  0  0  0  0  0  0  0  0  0  0
  140.1279   78.7864  220.2001 H   0  0  0  0  0  0  0  0  0  0  0  0
  141.0830   77.6963  223.6889 H   0  0  0  0  0  0  0  0  0  0  0  0
  142.4978   79.0861  225.2004 H   0  0  0  0  0  0  0  0  0  0  0  0
  143.2113   81.3730  224.4994 H   0  0  0  0  0  0  0  0  0  0  0  0
  142.5117   82.2726  222.2797 H   0  0  0  0  0  0  0  0  0  0  0  0
  141.0970   80.8928  220.7578 H   0  0  0  0  0  0  0  0  0  0  0  0
  1  2  1  0
  2  3  2  0
  3  4  1  0
  4  5  2  0
  5  6  1  0
  6  7  2  0
  6  8  1  0
  5  9  1  0
  9 10  1  0
 10 11  2  0
 11 12  1  0
 12 13  2  0
 13 14  1  0
 14 15  2  0
 15 16  1  0
 16 17  1  0
 17 18  2  0
 18 19  1  0
 19 20  2  0
 20 21  1  0
 21 22  2  0
  8  2  1  0
 15 10  1  0
 22 17  1  0
 16  4  1  0
  1 23  1  0
  1 24  1  0
  1 25  1  0
  3 26  1  0
  9 27  1  0
  9 28  1  0
 11 29  1  0
 12 30  1  0
 13 31  1  0
 14 32  1  0
 16 33  1  6
 18 34  1  0
 19 35  1  0
 20 36  1  0
 21 37  1  0
 22 38  1  0
M  END
>  <UniqueID>  (30) 
17

>  <SMILES>  (30) 
Cc1cc2c(c(=O)o1)Cc1ccccc1[C@H]2c1ccccc1

>  <Energy>  (30) 
47.71909750177956

>  <Genealogy>  (30) 
Cc1cc2c(c(=O)o1)Cc1ccccc1[C@H]2c1ccccc1 (chirality)
Cc1cc2c(c(=O)o1)Cc1ccccc1[C@H]2c1ccccc1 (3D coordinates assigned)
Cc1cc2c(c(=O)o1)Cc1ccccc1[C@H]2c1ccccc1 (nonaromatic ring conformer: 47.71909750177956 kcal/mol)

>  <smiles>  (30) 
Cc1cc2c(c(=O)o1)Cc1ccccc1C2c1ccccc1

>  <score_type>  (30) 
oracle

>  <origin>  (30) 
autodockgpu

>  <m_score__min__energy>  (30) 
-6.7800000000000002

>  <m_primary>  (30) 
energy

>  <meeko>  (30) 
{"free_energy": -6.77, "intermolecular_energy": -7.07, "internal_energy": -0.77, "cluster_size": 20, "cluster_id": 1, "rank_in_cluster": 12}

>  <energy>  (30) 
-6.77

>  <cluster_rmsd>  (30) 
0.02

>  <rmsd>  (30) 
270.27

>  <cluster>  (30) 
1

$$$$
ZZFUSXOZLWDLQL-LJQANCHMNA-N
     RDKit          3D

 38 41  0  0  0  0  0  0  0  0999 V2000
  143.6730   75.2790  219.4020 C   0  0  0  0  0  0  0  0  0  0  0  0
  142.4400   75.5000  220.2170 C   0  0  0  0  0  0  0  0  0  0  0  0
  141.8770   76.7770  220.3090 C   0  0  0  0  0  0  0  0  0  0  0  0
  140.7200   76.9610  221.0770 C   0  0  0  0  0  0  0  0  0  0  0  0
  140.1520   75.8530  221.7330 C   0  0  0  0  0  0  0  0  0  0  0  0
  140.7920   74.6040  221.6060 C   0  0  0  0  0  0  0  0  0  0  0  0
  140.3380   73.5890  222.1980 O   0  0  0  0  0  0  0  0  0  0  0  0
  141.8870   74.4790  220.8620 O   0  0  0  0  0  0  0  0  0  0  0  0
  138.9350   76.0010  222.6160 C   0  0  0  0  0  0  0  0  0  0  0  0
  138.1290   77.2400  222.3250 C   0  0  0  0  0  0  0  0  0  0  0  0
  136.8000   77.3060  222.7780 C   0  0  0  0  0  0  0  0  0  0  0  0
  136.0340   78.4540  222.5620 C   0  0  0  0  0  0  0  0  0  0  0  0
  136.5910   79.5520  221.9070 C   0  0  0  0  0  0  0  0  0  0  0  0
  137.9160   79.5060  221.4660 C   0  0  0  0  0  0  0  0  0  0  0  0
  138.6950   78.3540  221.6690 C   0  0  0  0  0  0  0  0  0  0  0  0
  140.1370   78.3510  221.2070 C   0  0  1  0  0  0  0  0  0  0  0  0
  140.9920   79.2020  222.1250 C   0  0  0  0  0  0  0  0  0  0  0  0
  141.4110   78.6950  223.3680 C   0  0  0  0  0  0  0  0  0  0  0  0
  142.1990   79.4740  224.2200 C   0  0  0  0  0  0  0  0  0  0  0  0
  142.5770   80.7650  223.8430 C   0  0  0  0  0  0  0  0  0  0  0  0
  142.1670   81.2800  222.6110 C   0  0  0  0  0  0  0  0  0  0  0  0
  141.3780   80.5050  221.7540 C   0  0  0  0  0  0  0  0  0  0  0  0
  144.5322   75.1250  220.0713 H   0  0  0  0  0  0  0  0  0  0  0  0
  143.5387   74.3906  218.7674 H   0  0  0  0  0  0  0  0  0  0  0  0
  143.8556   76.1587  218.7674 H   0  0  0  0  0  0  0  0  0  0  0  0
  142.3375   77.6271  219.7843 H   0  0  0  0  0  0  0  0  0  0  0  0
  138.2891   75.1228  222.4688 H   0  0  0  0  0  0  0  0  0  0  0  0
  139.2950   76.0849  223.6520 H   0  0  0  0  0  0  0  0  0  0  0  0
  136.3600   76.4474  223.3064 H   0  0  0  0  0  0  0  0  0  0  0  0
  134.9908   78.4920  222.9088 H   0  0  0  0  0  0  0  0  0  0  0  0
  135.9866   80.4553  221.7374 H   0  0  0  0  0  0  0  0  0  0  0  0
  138.3525   80.3776  220.9563 H   0  0  0  0  0  0  0  0  0  0  0  0
  140.1406   78.7863  220.1968 H   0  0  0  0  0  0  0  0  0  0  0  0
  141.1169   77.6794  223.6715 H   0  0  0  0  0  0  0  0  0  0  0  0
  142.5225   79.0693  225.1903 H   0  0  0  0  0  0  0  0  0  0  0  0
  143.1971   81.3755  224.5159 H   0  0  0  0  0  0  0  0  0  0  0  0
  142.4649   82.2964  222.3141 H   0  0  0  0  0  0  0  0  0  0  0  0
  141.0573   80.9154  220.7851 H   0  0  0  0  0  0  0  0  0  0  0  0
  1  2  1  0
  2  3  2  0
  3  4  1  0
  4  5  2  0
  5  6  1  0
  6  7  2  0
  6  8  1  0
  5  9  1  0
  9 10  1  0
 10 11  2  0
 11 12  1  0
 12 13  2  0
 13 14  1  0
 14 15  2  0
 15 16  1  0
 16 17  1  0
 17 18  2  0
 18 19  1  0
 19 20  2  0
 20 21  1  0
 21 22  2  0
  8  2  1  0
 15 10  1  0
 22 17  1  0
 16  4  1  0
  1 23  1  0
  1 24  1  0
  1 25  1  0
  3 26  1  0
  9 27  1  0
  9 28  1  0
 11 29  1  0
 12 30  1  0
 13 31  1  0
 14 32  1  0
 16 33  1  6
 18 34  1  0
 19 35  1  0
 20 36  1  0
 21 37  1  0
 22 38  1  0
M  END
>  <UniqueID>  (31) 
17

>  <SMILES>  (31) 
Cc1cc2c(c(=O)o1)Cc1ccccc1[C@H]2c1ccccc1

>  <Energy>  (31) 
47.71909750177956

>  <Genealogy>  (31) 
Cc1cc2c(c(=O)o1)Cc1ccccc1[C@H]2c1ccccc1 (chirality)
Cc1cc2c(c(=O)o1)Cc1ccccc1[C@H]2c1ccccc1 (3D coordinates assigned)
Cc1cc2c(c(=O)o1)Cc1ccccc1[C@H]2c1ccccc1 (nonaromatic ring conformer: 47.71909750177956 kcal/mol)

>  <smiles>  (31) 
Cc1cc2c(c(=O)o1)Cc1ccccc1C2c1ccccc1

>  <score_type>  (31) 
oracle

>  <origin>  (31) 
autodockgpu

>  <m_score__min__energy>  (31) 
-6.7800000000000002

>  <m_primary>  (31) 
energy

>  <meeko>  (31) 
{"free_energy": -6.77, "intermolecular_energy": -7.07, "internal_energy": -0.77, "cluster_size": 20, "cluster_id": 1, "rank_in_cluster": 9}

>  <energy>  (31) 
-6.77

>  <cluster_rmsd>  (31) 
0.02

>  <rmsd>  (31) 
270.28

>  <cluster>  (31) 
1

$$$$
ZZFUSXOZLWDLQL-LJQANCHMNA-N
     RDKit          3D

 38 41  0  0  0  0  0  0  0  0999 V2000
  143.6970   75.2750  219.4020 C   0  0  0  0  0  0  0  0  0  0  0  0
  142.4640   75.4960  220.2160 C   0  0  0  0  0  0  0  0  0  0  0  0
  141.9000   76.7720  220.3070 C   0  0  0  0  0  0  0  0  0  0  0  0
  140.7420   76.9570  221.0740 C   0  0  0  0  0  0  0  0  0  0  0  0
  140.1750   75.8500  221.7320 C   0  0  0  0  0  0  0  0  0  0  0  0
  140.8160   74.6010  221.6060 C   0  0  0  0  0  0  0  0  0  0  0  0
  140.3620   73.5860  222.1990 O   0  0  0  0  0  0  0  0  0  0  0  0
  141.9110   74.4760  220.8620 O   0  0  0  0  0  0  0  0  0  0  0  0
  138.9570   75.9970  222.6140 C   0  0  0  0  0  0  0  0  0  0  0  0
  138.1500   77.2350  222.3210 C   0  0  0  0  0  0  0  0  0  0  0  0
  136.8210   77.3010  222.7730 C   0  0  0  0  0  0  0  0  0  0  0  0
  136.0550   78.4490  222.5560 C   0  0  0  0  0  0  0  0  0  0  0  0
  136.6110   79.5460  221.8990 C   0  0  0  0  0  0  0  0  0  0  0  0
  137.9360   79.5000  221.4590 C   0  0  0  0  0  0  0  0  0  0  0  0
  138.7160   78.3490  221.6640 C   0  0  0  0  0  0  0  0  0  0  0  0
  140.1580   78.3470  221.2030 C   0  0  1  0  0  0  0  0  0  0  0  0
  141.0120   79.2000  222.1190 C   0  0  0  0  0  0  0  0  0  0  0  0
  141.4170   78.7010  223.3710 C   0  0  0  0  0  0  0  0  0  0  0  0
  142.2040   79.4810  224.2220 C   0  0  0  0  0  0  0  0  0  0  0  0
  142.5950   80.7660  223.8360 C   0  0  0  0  0  0  0  0  0  0  0  0
  142.1990   81.2720  222.5960 C   0  0  0  0  0  0  0  0  0  0  0  0
  141.4120   80.4960  221.7400 C   0  0  0  0  0  0  0  0  0  0  0  0
  144.5559   75.1211  220.0718 H   0  0  0  0  0  0  0  0  0  0  0  0
  143.5631   74.3866  218.7674 H   0  0  0  0  0  0  0  0  0  0  0  0
  143.8800   76.1547  218.7674 H   0  0  0  0  0  0  0  0  0  0  0  0
  142.3605   77.6219  219.7820 H   0  0  0  0  0  0  0  0  0  0  0  0
  138.3123   75.1180  222.4670 H   0  0  0  0  0  0  0  0  0  0  0  0
  139.3158   76.0819  223.6504 H   0  0  0  0  0  0  0  0  0  0  0  0
  136.3807   76.4426  223.3015 H   0  0  0  0  0  0  0  0  0  0  0  0
  135.0121   78.4875  222.9038 H   0  0  0  0  0  0  0  0  0  0  0  0
  136.0058   80.4483  221.7270 H   0  0  0  0  0  0  0  0  0  0  0  0
  138.3722   80.3712  220.9483 H   0  0  0  0  0  0  0  0  0  0  0  0
  140.1617   78.7816  220.1925 H   0  0  0  0  0  0  0  0  0  0  0  0
  141.1121   77.6907  223.6815 H   0  0  0  0  0  0  0  0  0  0  0  0
  142.5167   79.0826  225.1985 H   0  0  0  0  0  0  0  0  0  0  0  0
  143.2141   81.3783  224.5082 H   0  0  0  0  0  0  0  0  0  0  0  0
  142.5070   82.2834  222.2922 H   0  0  0  0  0  0  0  0  0  0  0  0
  141.1033   80.9001  220.7646 H   0  0  0  0  0  0  0  0  0  0  0  0
  1  2  1  0
  2  3  2  0
  3  4  1  0
  4  5  2  0
  5  6  1  0
  6  7  2  0
  6  8  1  0
  5  9  1  0
  9 10  1  0
 10 11  2  0
 11 12  1  0
 12 13  2  0
 13 14  1  0
 14 15  2  0
 15 16  1  0
 16 17  1  0
 17 18  2  0
 18 19  1  0
 19 20  2  0
 20 21  1  0
 21 22  2  0
  8  2  1  0
 15 10  1  0
 22 17  1  0
 16  4  1  0
  1 23  1  0
  1 24  1  0
  1 25  1  0
  3 26  1  0
  9 27  1  0
  9 28  1  0
 11 29  1  0
 12 30  1  0
 13 31  1  0
 14 32  1  0
 16 33  1  6
 18 34  1  0
 19 35  1  0
 20 36  1  0
 21 37  1  0
 22 38  1  0
M  END
>  <UniqueID>  (32) 
17

>  <SMILES>  (32) 
Cc1cc2c(c(=O)o1)Cc1ccccc1[C@H]2c1ccccc1

>  <Energy>  (32) 
47.71909750177956

>  <Genealogy>  (32) 
Cc1cc2c(c(=O)o1)Cc1ccccc1[C@H]2c1ccccc1 (chirality)
Cc1cc2c(c(=O)o1)Cc1ccccc1[C@H]2c1ccccc1 (3D coordinates assigned)
Cc1cc2c(c(=O)o1)Cc1ccccc1[C@H]2c1ccccc1 (nonaromatic ring conformer: 47.71909750177956 kcal/mol)

>  <smiles>  (32) 
Cc1cc2c(c(=O)o1)Cc1ccccc1C2c1ccccc1

>  <score_type>  (32) 
oracle

>  <origin>  (32) 
autodockgpu

>  <m_score__min__energy>  (32) 
-6.7800000000000002

>  <m_primary>  (32) 
energy

>  <meeko>  (32) 
{"free_energy": -6.77, "intermolecular_energy": -7.07, "internal_energy": -0.77, "cluster_size": 20, "cluster_id": 1, "rank_in_cluster": 20}

>  <energy>  (32) 
-6.77

>  <cluster_rmsd>  (32) 
0.03

>  <rmsd>  (32) 
270.27

>  <cluster>  (32) 
1

$$$$
ZZFUSXOZLWDLQL-LJQANCHMNA-N
     RDKit          3D

 38 41  0  0  0  0  0  0  0  0999 V2000
  143.6560   75.2510  219.4170 C   0  0  0  0  0  0  0  0  0  0  0  0
  142.4240   75.4840  220.2300 C   0  0  0  0  0  0  0  0  0  0  0  0
  141.8700   76.7650  220.3150 C   0  0  0  0  0  0  0  0  0  0  0  0
  140.7130   76.9610  221.0810 C   0  0  0  0  0  0  0  0  0  0  0  0
  140.1380   75.8600  221.7430 C   0  0  0  0  0  0  0  0  0  0  0  0
  140.7690   74.6060  221.6220 C   0  0  0  0  0  0  0  0  0  0  0  0
  140.3080   73.5970  222.2190 O   0  0  0  0  0  0  0  0  0  0  0  0
  141.8640   74.4700  220.8790 O   0  0  0  0  0  0  0  0  0  0  0  0
  138.9210   76.0200  222.6240 C   0  0  0  0  0  0  0  0  0  0  0  0
  138.1230   77.2630  222.3270 C   0  0  0  0  0  0  0  0  0  0  0  0
  136.7950   77.3400  222.7780 C   0  0  0  0  0  0  0  0  0  0  0  0
  136.0370   78.4920  222.5570 C   0  0  0  0  0  0  0  0  0  0  0  0
  136.6020   79.5830  221.8960 C   0  0  0  0  0  0  0  0  0  0  0  0
  137.9260   79.5260  221.4560 C   0  0  0  0  0  0  0  0  0  0  0  0
  138.6980   78.3700  221.6650 C   0  0  0  0  0  0  0  0  0  0  0  0
  140.1390   78.3550  221.2050 C   0  0  1  0  0  0  0  0  0  0  0  0
  141.0000   79.2050  222.1190 C   0  0  0  0  0  0  0  0  0  0  0  0
  141.4050   78.7050  223.3700 C   0  0  0  0  0  0  0  0  0  0  0  0
  142.1980   79.4830  224.2190 C   0  0  0  0  0  0  0  0  0  0  0  0
  142.5930   80.7660  223.8300 C   0  0  0  0  0  0  0  0  0  0  0  0
  142.1970   81.2730  222.5910 C   0  0  0  0  0  0  0  0  0  0  0  0
  141.4050   80.4990  221.7370 C   0  0  0  0  0  0  0  0  0  0  0  0
  144.5127   75.0890  220.0877 H   0  0  0  0  0  0  0  0  0  0  0  0
  143.5142   74.3638  218.7824 H   0  0  0  0  0  0  0  0  0  0  0  0
  143.8480   76.1288  218.7824 H   0  0  0  0  0  0  0  0  0  0  0  0
  142.3370   77.6092  219.7867 H   0  0  0  0  0  0  0  0  0  0  0  0
  138.2696   75.1454  222.4800 H   0  0  0  0  0  0  0  0  0  0  0  0
  139.2807   76.1064  223.6599 H   0  0  0  0  0  0  0  0  0  0  0  0
  136.3486   76.4865  223.3093 H   0  0  0  0  0  0  0  0  0  0  0  0
  134.9943   78.5392  222.9042 H   0  0  0  0  0  0  0  0  0  0  0  0
  136.0037   80.4893  221.7212 H   0  0  0  0  0  0  0  0  0  0  0  0
  138.3682   80.3922  220.9420 H   0  0  0  0  0  0  0  0  0  0  0  0
  140.1455   78.7858  220.1929 H   0  0  0  0  0  0  0  0  0  0  0  0
  141.0961   77.6964  223.6820 H   0  0  0  0  0  0  0  0  0  0  0  0
  142.5116   79.0845  225.1951 H   0  0  0  0  0  0  0  0  0  0  0  0
  143.2160   81.3764  224.5002 H   0  0  0  0  0  0  0  0  0  0  0  0
  142.5085   82.2829  222.2860 H   0  0  0  0  0  0  0  0  0  0  0  0
  141.0965   80.9029  220.7614 H   0  0  0  0  0  0  0  0  0  0  0  0
  1  2  1  0
  2  3  2  0
  3  4  1  0
  4  5  2  0
  5  6  1  0
  6  7  2  0
  6  8  1  0
  5  9  1  0
  9 10  1  0
 10 11  2  0
 11 12  1  0
 12 13  2  0
 13 14  1  0
 14 15  2  0
 15 16  1  0
 16 17  1  0
 17 18  2  0
 18 19  1  0
 19 20  2  0
 20 21  1  0
 21 22  2  0
  8  2  1  0
 15 10  1  0
 22 17  1  0
 16  4  1  0
  1 23  1  0
  1 24  1  0
  1 25  1  0
  3 26  1  0
  9 27  1  0
  9 28  1  0
 11 29  1  0
 12 30  1  0
 13 31  1  0
 14 32  1  0
 16 33  1  6
 18 34  1  0
 19 35  1  0
 20 36  1  0
 21 37  1  0
 22 38  1  0
M  END
>  <UniqueID>  (33) 
17

>  <SMILES>  (33) 
Cc1cc2c(c(=O)o1)Cc1ccccc1[C@H]2c1ccccc1

>  <Energy>  (33) 
47.71909750177956

>  <Genealogy>  (33) 
Cc1cc2c(c(=O)o1)Cc1ccccc1[C@H]2c1ccccc1 (chirality)
Cc1cc2c(c(=O)o1)Cc1ccccc1[C@H]2c1ccccc1 (3D coordinates assigned)
Cc1cc2c(c(=O)o1)Cc1ccccc1[C@H]2c1ccccc1 (nonaromatic ring conformer: 47.71909750177956 kcal/mol)

>  <smiles>  (33) 
Cc1cc2c(c(=O)o1)Cc1ccccc1C2c1ccccc1

>  <score_type>  (33) 
oracle

>  <origin>  (33) 
autodockgpu

>  <m_score__min__energy>  (33) 
-6.7800000000000002

>  <m_primary>  (33) 
energy

>  <meeko>  (33) 
{"free_energy": -6.77, "intermolecular_energy": -7.07, "internal_energy": -0.77, "cluster_size": 20, "cluster_id": 1, "rank_in_cluster": 16}

>  <energy>  (33) 
-6.77

>  <cluster_rmsd>  (33) 
0.02

>  <rmsd>  (33) 
270.28

>  <cluster>  (33) 
1

$$$$
ZZFUSXOZLWDLQL-LJQANCHMNA-N
     RDKit          3D

 38 41  0  0  0  0  0  0  0  0999 V2000
  143.6810   75.2740  219.3960 C   0  0  0  0  0  0  0  0  0  0  0  0
  142.4480   75.5000  220.2090 C   0  0  0  0  0  0  0  0  0  0  0  0
  141.8890   76.7780  220.3000 C   0  0  0  0  0  0  0  0  0  0  0  0
  140.7310   76.9670  221.0660 C   0  0  0  0  0  0  0  0  0  0  0  0
  140.1600   75.8610  221.7230 C   0  0  0  0  0  0  0  0  0  0  0  0
  140.7960   74.6100  221.5970 C   0  0  0  0  0  0  0  0  0  0  0  0
  140.3380   73.5960  222.1900 O   0  0  0  0  0  0  0  0  0  0  0  0
  141.8910   74.4810  220.8550 O   0  0  0  0  0  0  0  0  0  0  0  0
  138.9420   76.0130  222.6040 C   0  0  0  0  0  0  0  0  0  0  0  0
  138.1400   77.2540  222.3120 C   0  0  0  0  0  0  0  0  0  0  0  0
  136.8110   77.3240  222.7630 C   0  0  0  0  0  0  0  0  0  0  0  0
  136.0490   78.4750  222.5460 C   0  0  0  0  0  0  0  0  0  0  0  0
  136.6090   79.5700  221.8900 C   0  0  0  0  0  0  0  0  0  0  0  0
  137.9340   79.5200  221.4500 C   0  0  0  0  0  0  0  0  0  0  0  0
  138.7100   78.3660  221.6550 C   0  0  0  0  0  0  0  0  0  0  0  0
  140.1520   78.3590  221.1950 C   0  0  1  0  0  0  0  0  0  0  0  0
  141.0090   79.2080  222.1130 C   0  0  0  0  0  0  0  0  0  0  0  0
  141.4110   78.7060  223.3640 C   0  0  0  0  0  0  0  0  0  0  0  0
  142.2010   79.4840  224.2160 C   0  0  0  0  0  0  0  0  0  0  0  0
  142.5960   80.7680  223.8310 C   0  0  0  0  0  0  0  0  0  0  0  0
  142.2020   81.2760  222.5910 C   0  0  0  0  0  0  0  0  0  0  0  0
  141.4130   80.5030  221.7340 C   0  0  0  0  0  0  0  0  0  0  0  0
  144.5387   75.1168  220.0666 H   0  0  0  0  0  0  0  0  0  0  0  0
  143.5441   74.3860  218.7614 H   0  0  0  0  0  0  0  0  0  0  0  0
  143.8680   76.1528  218.7614 H   0  0  0  0  0  0  0  0  0  0  0  0
  142.3533   77.6263  219.7758 H   0  0  0  0  0  0  0  0  0  0  0  0
  138.2937   75.1367  222.4560 H   0  0  0  0  0  0  0  0  0  0  0  0
  139.3009   76.0963  223.6405 H   0  0  0  0  0  0  0  0  0  0  0  0
  136.3674   76.4667  223.2906 H   0  0  0  0  0  0  0  0  0  0  0  0
  135.0061   78.5170  222.8932 H   0  0  0  0  0  0  0  0  0  0  0  0
  136.0070   80.4745  221.7186 H   0  0  0  0  0  0  0  0  0  0  0  0
  138.3731   80.3898  220.9395 H   0  0  0  0  0  0  0  0  0  0  0  0
  140.1577   78.7944  220.1849 H   0  0  0  0  0  0  0  0  0  0  0  0
  141.1024   77.6966  223.6735 H   0  0  0  0  0  0  0  0  0  0  0  0
  142.5125   79.0841  225.1923 H   0  0  0  0  0  0  0  0  0  0  0  0
  143.2166   81.3780  224.5038 H   0  0  0  0  0  0  0  0  0  0  0  0
  142.5132   82.2866  222.2881 H   0  0  0  0  0  0  0  0  0  0  0  0
  141.1061   80.9083  220.7585 H   0  0  0  0  0  0  0  0  0  0  0  0
  1  2  1  0
  2  3  2  0
  3  4  1  0
  4  5  2  0
  5  6  1  0
  6  7  2  0
  6  8  1  0
  5  9  1  0
  9 10  1  0
 10 11  2  0
 11 12  1  0
 12 13  2  0
 13 14  1  0
 14 15  2  0
 15 16  1  0
 16 17  1  0
 17 18  2  0
 18 19  1  0
 19 20  2  0
 20 21  1  0
 21 22  2  0
  8  2  1  0
 15 10  1  0
 22 17  1  0
 16  4  1  0
  1 23  1  0
  1 24  1  0
  1 25  1  0
  3 26  1  0
  9 27  1  0
  9 28  1  0
 11 29  1  0
 12 30  1  0
 13 31  1  0
 14 32  1  0
 16 33  1  6
 18 34  1  0
 19 35  1  0
 20 36  1  0
 21 37  1  0
 22 38  1  0
M  END
>  <UniqueID>  (34) 
17

>  <SMILES>  (34) 
Cc1cc2c(c(=O)o1)Cc1ccccc1[C@H]2c1ccccc1

>  <Energy>  (34) 
47.71909750177956

>  <Genealogy>  (34) 
Cc1cc2c(c(=O)o1)Cc1ccccc1[C@H]2c1ccccc1 (chirality)
Cc1cc2c(c(=O)o1)Cc1ccccc1[C@H]2c1ccccc1 (3D coordinates assigned)
Cc1cc2c(c(=O)o1)Cc1ccccc1[C@H]2c1ccccc1 (nonaromatic ring conformer: 47.71909750177956 kcal/mol)

>  <smiles>  (34) 
Cc1cc2c(c(=O)o1)Cc1ccccc1C2c1ccccc1

>  <score_type>  (34) 
oracle

>  <origin>  (34) 
autodockgpu

>  <m_score__min__energy>  (34) 
-6.7800000000000002

>  <m_primary>  (34) 
energy

>  <meeko>  (34) 
{"free_energy": -6.78, "intermolecular_energy": -7.08, "internal_energy": -0.77, "cluster_size": 20, "cluster_id": 1, "rank_in_cluster": 1}

>  <energy>  (34) 
-6.77

>  <cluster_rmsd>  (34) 
0.02

>  <rmsd>  (34) 
270.27

>  <cluster>  (34) 
1

$$$$
ZZFUSXOZLWDLQL-LJQANCHMNA-N
     RDKit          3D

 38 41  0  0  0  0  0  0  0  0999 V2000
  143.6740   75.2890  219.3860 C   0  0  0  0  0  0  0  0  0  0  0  0
  142.4430   75.5130  220.2030 C   0  0  0  0  0  0  0  0  0  0  0  0
  141.8810   76.7900  220.2940 C   0  0  0  0  0  0  0  0  0  0  0  0
  140.7250   76.9770  221.0640 C   0  0  0  0  0  0  0  0  0  0  0  0
  140.1590   75.8710  221.7240 C   0  0  0  0  0  0  0  0  0  0  0  0
  140.7980   74.6210  221.5980 C   0  0  0  0  0  0  0  0  0  0  0  0
  140.3440   73.6080  222.1940 O   0  0  0  0  0  0  0  0  0  0  0  0
  141.8910   74.4940  220.8520 O   0  0  0  0  0  0  0  0  0  0  0  0
  138.9440   76.0210  222.6090 C   0  0  0  0  0  0  0  0  0  0  0  0
  138.1380   77.2600  222.3180 C   0  0  0  0  0  0  0  0  0  0  0  0
  136.8100   77.3280  222.7730 C   0  0  0  0  0  0  0  0  0  0  0  0
  136.0450   78.4770  222.5570 C   0  0  0  0  0  0  0  0  0  0  0  0
  136.6010   79.5720  221.8980 C   0  0  0  0  0  0  0  0  0  0  0  0
  137.9240   79.5250  221.4530 C   0  0  0  0  0  0  0  0  0  0  0  0
  138.7030   78.3730  221.6570 C   0  0  0  0  0  0  0  0  0  0  0  0
  140.1440   78.3680  221.1930 C   0  0  1  0  0  0  0  0  0  0  0  0
  141.0020   79.2210  222.1060 C   0  0  0  0  0  0  0  0  0  0  0  0
  141.4100   78.7220  223.3570 C   0  0  0  0  0  0  0  0  0  0  0  0
  142.2000   79.5020  224.2050 C   0  0  0  0  0  0  0  0  0  0  0  0
  142.5910   80.7870  223.8170 C   0  0  0  0  0  0  0  0  0  0  0  0
  142.1920   81.2920  222.5780 C   0  0  0  0  0  0  0  0  0  0  0  0
  141.4020   80.5160  221.7250 C   0  0  0  0  0  0  0  0  0  0  0  0
  144.5339   75.1325  220.0539 H   0  0  0  0  0  0  0  0  0  0  0  0
  143.5363   74.4012  218.7513 H   0  0  0  0  0  0  0  0  0  0  0  0
  143.8579   76.1684  218.7513 H   0  0  0  0  0  0  0  0  0  0  0  0
  142.3412   77.6388  219.7669 H   0  0  0  0  0  0  0  0  0  0  0  0
  138.2973   75.1430  222.4643 H   0  0  0  0  0  0  0  0  0  0  0  0
  139.3062   76.1063  223.6441 H   0  0  0  0  0  0  0  0  0  0  0  0
  136.3697   76.4705  223.3029 H   0  0  0  0  0  0  0  0  0  0  0  0
  135.0031   78.5174  222.9074 H   0  0  0  0  0  0  0  0  0  0  0  0
  135.9965   80.4752  221.7280 H   0  0  0  0  0  0  0  0  0  0  0  0
  138.3591   80.3951  220.9396 H   0  0  0  0  0  0  0  0  0  0  0  0
  140.1462   78.8016  220.1821 H   0  0  0  0  0  0  0  0  0  0  0  0
  141.1052   77.7121  223.6688 H   0  0  0  0  0  0  0  0  0  0  0  0
  142.5153   79.1040  225.1808 H   0  0  0  0  0  0  0  0  0  0  0  0
  143.2122   81.3994  224.4871 H   0  0  0  0  0  0  0  0  0  0  0  0
  142.5000   82.3028  222.2724 H   0  0  0  0  0  0  0  0  0  0  0  0
  141.0909   80.9196  220.7501 H   0  0  0  0  0  0  0  0  0  0  0  0
  1  2  1  0
  2  3  2  0
  3  4  1  0
  4  5  2  0
  5  6  1  0
  6  7  2  0
  6  8  1  0
  5  9  1  0
  9 10  1  0
 10 11  2  0
 11 12  1  0
 12 13  2  0
 13 14  1  0
 14 15  2  0
 15 16  1  0
 16 17  1  0
 17 18  2  0
 18 19  1  0
 19 20  2  0
 20 21  1  0
 21 22  2  0
  8  2  1  0
 15 10  1  0
 22 17  1  0
 16  4  1  0
  1 23  1  0
  1 24  1  0
  1 25  1  0
  3 26  1  0
  9 27  1  0
  9 28  1  0
 11 29  1  0
 12 30  1  0
 13 31  1  0
 14 32  1  0
 16 33  1  6
 18 34  1  0
 19 35  1  0
 20 36  1  0
 21 37  1  0
 22 38  1  0
M  END
>  <UniqueID>  (35) 
17

>  <SMILES>  (35) 
Cc1cc2c(c(=O)o1)Cc1ccccc1[C@H]2c1ccccc1

>  <Energy>  (35) 
47.71909750177956

>  <Genealogy>  (35) 
Cc1cc2c(c(=O)o1)Cc1ccccc1[C@H]2c1ccccc1 (chirality)
Cc1cc2c(c(=O)o1)Cc1ccccc1[C@H]2c1ccccc1 (3D coordinates assigned)
Cc1cc2c(c(=O)o1)Cc1ccccc1[C@H]2c1ccccc1 (nonaromatic ring conformer: 47.71909750177956 kcal/mol)

>  <smiles>  (35) 
Cc1cc2c(c(=O)o1)Cc1ccccc1C2c1ccccc1

>  <score_type>  (35) 
oracle

>  <origin>  (35) 
autodockgpu

>  <m_score__min__energy>  (35) 
-6.7800000000000002

>  <m_primary>  (35) 
energy

>  <meeko>  (35) 
{"free_energy": -6.77, "intermolecular_energy": -7.07, "internal_energy": -0.77, "cluster_size": 20, "cluster_id": 1, "rank_in_cluster": 14}

>  <energy>  (35) 
-6.77

>  <cluster_rmsd>  (35) 
0.02

>  <rmsd>  (35) 
270.27

>  <cluster>  (35) 
1

$$$$
ZZFUSXOZLWDLQL-LJQANCHMNA-N
     RDKit          3D

 38 41  0  0  0  0  0  0  0  0999 V2000
  143.6760   75.2790  219.3940 C   0  0  0  0  0  0  0  0  0  0  0  0
  142.4440   75.5010  220.2120 C   0  0  0  0  0  0  0  0  0  0  0  0
  141.8810   76.7780  220.3020 C   0  0  0  0  0  0  0  0  0  0  0  0
  140.7250   76.9630  221.0720 C   0  0  0  0  0  0  0  0  0  0  0  0
  140.1600   75.8570  221.7320 C   0  0  0  0  0  0  0  0  0  0  0  0
  140.8000   74.6080  221.6060 C   0  0  0  0  0  0  0  0  0  0  0  0
  140.3470   73.5930  222.2010 O   0  0  0  0  0  0  0  0  0  0  0  0
  141.8930   74.4810  220.8600 O   0  0  0  0  0  0  0  0  0  0  0  0
  138.9440   76.0050  222.6170 C   0  0  0  0  0  0  0  0  0  0  0  0
  138.1370   77.2430  222.3260 C   0  0  0  0  0  0  0  0  0  0  0  0
  136.8090   77.3100  222.7810 C   0  0  0  0  0  0  0  0  0  0  0  0
  136.0420   78.4570  222.5650 C   0  0  0  0  0  0  0  0  0  0  0  0
  136.5970   79.5540  221.9050 C   0  0  0  0  0  0  0  0  0  0  0  0
  137.9210   79.5070  221.4620 C   0  0  0  0  0  0  0  0  0  0  0  0
  138.7010   78.3560  221.6660 C   0  0  0  0  0  0  0  0  0  0  0  0
  140.1420   78.3530  221.2010 C   0  0  1  0  0  0  0  0  0  0  0  0
  140.9990   79.2070  222.1150 C   0  0  0  0  0  0  0  0  0  0  0  0
  141.4010   78.7110  223.3680 C   0  0  0  0  0  0  0  0  0  0  0  0
  142.1910   79.4920  224.2170 C   0  0  0  0  0  0  0  0  0  0  0  0
  142.5860   80.7740  223.8260 C   0  0  0  0  0  0  0  0  0  0  0  0
  142.1920   81.2770  222.5840 C   0  0  0  0  0  0  0  0  0  0  0  0
  141.4030   80.5000  221.7310 C   0  0  0  0  0  0  0  0  0  0  0  0
  144.5364   75.1240  220.0616 H   0  0  0  0  0  0  0  0  0  0  0  0
  143.5396   74.3910  218.7593 H   0  0  0  0  0  0  0  0  0  0  0  0
  143.8582   76.1588  218.7593 H   0  0  0  0  0  0  0  0  0  0  0  0
  142.3402   77.6271  219.7746 H   0  0  0  0  0  0  0  0  0  0  0  0
  138.2984   75.1263  222.4717 H   0  0  0  0  0  0  0  0  0  0  0  0
  139.3055   76.0900  223.6524 H   0  0  0  0  0  0  0  0  0  0  0  0
  136.3701   76.4521  223.3115 H   0  0  0  0  0  0  0  0  0  0  0  0
  135.0000   78.4956  222.9153 H   0  0  0  0  0  0  0  0  0  0  0  0
  135.9916   80.4563  221.7334 H   0  0  0  0  0  0  0  0  0  0  0  0
  138.3563   80.3776  220.9496 H   0  0  0  0  0  0  0  0  0  0  0  0
  140.1434   78.7865  220.1900 H   0  0  0  0  0  0  0  0  0  0  0  0
  141.0922   77.7030  223.6819 H   0  0  0  0  0  0  0  0  0  0  0  0
  142.5023   79.0963  225.1950 H   0  0  0  0  0  0  0  0  0  0  0  0
  143.2069   81.3868  224.4960 H   0  0  0  0  0  0  0  0  0  0  0  0
  142.5031   82.2863  222.2766 H   0  0  0  0  0  0  0  0  0  0  0  0
  141.0959   80.9011  220.7539 H   0  0  0  0  0  0  0  0  0  0  0  0
  1  2  1  0
  2  3  2  0
  3  4  1  0
  4  5  2  0
  5  6  1  0
  6  7  2  0
  6  8  1  0
  5  9  1  0
  9 10  1  0
 10 11  2  0
 11 12  1  0
 12 13  2  0
 13 14  1  0
 14 15  2  0
 15 16  1  0
 16 17  1  0
 17 18  2  0
 18 19  1  0
 19 20  2  0
 20 21  1  0
 21 22  2  0
  8  2  1  0
 15 10  1  0
 22 17  1  0
 16  4  1  0
  1 23  1  0
  1 24  1  0
  1 25  1  0
  3 26  1  0
  9 27  1  0
  9 28  1  0
 11 29  1  0
 12 30  1  0
 13 31  1  0
 14 32  1  0
 16 33  1  6
 18 34  1  0
 19 35  1  0
 20 36  1  0
 21 37  1  0
 22 38  1  0
M  END
>  <UniqueID>  (36) 
17

>  <SMILES>  (36) 
Cc1cc2c(c(=O)o1)Cc1ccccc1[C@H]2c1ccccc1

>  <Energy>  (36) 
47.71909750177956

>  <Genealogy>  (36) 
Cc1cc2c(c(=O)o1)Cc1ccccc1[C@H]2c1ccccc1 (chirality)
Cc1cc2c(c(=O)o1)Cc1ccccc1[C@H]2c1ccccc1 (3D coordinates assigned)
Cc1cc2c(c(=O)o1)Cc1ccccc1[C@H]2c1ccccc1 (nonaromatic ring conformer: 47.71909750177956 kcal/mol)

>  <smiles>  (36) 
Cc1cc2c(c(=O)o1)Cc1ccccc1C2c1ccccc1

>  <score_type>  (36) 
oracle

>  <origin>  (36) 
autodockgpu

>  <m_score__min__energy>  (36) 
-6.7800000000000002

>  <m_primary>  (36) 
energy

>  <meeko>  (36) 
{"free_energy": -6.77, "intermolecular_energy": -7.07, "internal_energy": -0.77, "cluster_size": 20, "cluster_id": 1, "rank_in_cluster": 15}

>  <energy>  (36) 
-6.77

>  <cluster_rmsd>  (36) 
0.02

>  <rmsd>  (36) 
270.27

>  <cluster>  (36) 
1

$$$$
ZZFUSXOZLWDLQL-LJQANCHMNA-N
     RDKit          3D

 38 41  0  0  0  0  0  0  0  0999 V2000
  143.6850   75.2800  219.4090 C   0  0  0  0  0  0  0  0  0  0  0  0
  142.4510   75.5060  220.2210 C   0  0  0  0  0  0  0  0  0  0  0  0
  141.8900   76.7830  220.3090 C   0  0  0  0  0  0  0  0  0  0  0  0
  140.7310   76.9720  221.0740 C   0  0  0  0  0  0  0  0  0  0  0  0
  140.1610   75.8670  221.7320 C   0  0  0  0  0  0  0  0  0  0  0  0
  140.7990   74.6160  221.6090 C   0  0  0  0  0  0  0  0  0  0  0  0
  140.3410   73.6030  222.2030 O   0  0  0  0  0  0  0  0  0  0  0  0
  141.8950   74.4870  220.8670 O   0  0  0  0  0  0  0  0  0  0  0  0
  138.9420   76.0180  222.6130 C   0  0  0  0  0  0  0  0  0  0  0  0
  138.1390   77.2580  222.3180 C   0  0  0  0  0  0  0  0  0  0  0  0
  136.8090   77.3280  222.7670 C   0  0  0  0  0  0  0  0  0  0  0  0
  136.0460   78.4770  222.5480 C   0  0  0  0  0  0  0  0  0  0  0  0
  136.6060   79.5720  221.8900 C   0  0  0  0  0  0  0  0  0  0  0  0
  137.9310   79.5220  221.4520 C   0  0  0  0  0  0  0  0  0  0  0  0
  138.7080   78.3700  221.6590 C   0  0  0  0  0  0  0  0  0  0  0  0
  140.1510   78.3630  221.2010 C   0  0  1  0  0  0  0  0  0  0  0  0
  141.0060   79.2150  222.1180 C   0  0  0  0  0  0  0  0  0  0  0  0
  141.4100   78.7150  223.3690 C   0  0  0  0  0  0  0  0  0  0  0  0
  142.1980   79.4950  224.2200 C   0  0  0  0  0  0  0  0  0  0  0  0
  142.5900   80.7790  223.8350 C   0  0  0  0  0  0  0  0  0  0  0  0
  142.1940   81.2860  222.5950 C   0  0  0  0  0  0  0  0  0  0  0  0
  141.4060   80.5110  221.7390 C   0  0  0  0  0  0  0  0  0  0  0  0
  144.5421   75.1230  220.0804 H   0  0  0  0  0  0  0  0  0  0  0  0
  143.5488   74.3919  218.7744 H   0  0  0  0  0  0  0  0  0  0  0  0
  143.8724   76.1588  218.7744 H   0  0  0  0  0  0  0  0  0  0  0  0
  142.3533   77.6309  219.7833 H   0  0  0  0  0  0  0  0  0  0  0  0
  138.2950   75.1407  222.4659 H   0  0  0  0  0  0  0  0  0  0  0  0
  139.2998   76.1025  223.6498 H   0  0  0  0  0  0  0  0  0  0  0  0
  136.3656   76.4710  223.2951 H   0  0  0  0  0  0  0  0  0  0  0  0
  135.0029   78.5185  222.8946 H   0  0  0  0  0  0  0  0  0  0  0  0
  136.0034   80.4756  221.7160 H   0  0  0  0  0  0  0  0  0  0  0  0
  138.3699   80.3915  220.9408 H   0  0  0  0  0  0  0  0  0  0  0  0
  140.1579   78.7964  220.1900 H   0  0  0  0  0  0  0  0  0  0  0  0
  141.1042   77.7049  223.6792 H   0  0  0  0  0  0  0  0  0  0  0  0
  142.5105   79.0962  225.1964 H   0  0  0  0  0  0  0  0  0  0  0  0
  143.2098   81.3903  224.5074 H   0  0  0  0  0  0  0  0  0  0  0  0
  142.5029   82.2972  222.2915 H   0  0  0  0  0  0  0  0  0  0  0  0
  141.0967   80.9157  220.7640 H   0  0  0  0  0  0  0  0  0  0  0  0
  1  2  1  0
  2  3  2  0
  3  4  1  0
  4  5  2  0
  5  6  1  0
  6  7  2  0
  6  8  1  0
  5  9  1  0
  9 10  1  0
 10 11  2  0
 11 12  1  0
 12 13  2  0
 13 14  1  0
 14 15  2  0
 15 16  1  0
 16 17  1  0
 17 18  2  0
 18 19  1  0
 19 20  2  0
 20 21  1  0
 21 22  2  0
  8  2  1  0
 15 10  1  0
 22 17  1  0
 16  4  1  0
  1 23  1  0
  1 24  1  0
  1 25  1  0
  3 26  1  0
  9 27  1  0
  9 28  1  0
 11 29  1  0
 12 30  1  0
 13 31  1  0
 14 32  1  0
 16 33  1  6
 18 34  1  0
 19 35  1  0
 20 36  1  0
 21 37  1  0
 22 38  1  0
M  END
>  <UniqueID>  (37) 
17

>  <SMILES>  (37) 
Cc1cc2c(c(=O)o1)Cc1ccccc1[C@H]2c1ccccc1

>  <Energy>  (37) 
47.71909750177956

>  <Genealogy>  (37) 
Cc1cc2c(c(=O)o1)Cc1ccccc1[C@H]2c1ccccc1 (chirality)
Cc1cc2c(c(=O)o1)Cc1ccccc1[C@H]2c1ccccc1 (3D coordinates assigned)
Cc1cc2c(c(=O)o1)Cc1ccccc1[C@H]2c1ccccc1 (nonaromatic ring conformer: 47.71909750177956 kcal/mol)

>  <smiles>  (37) 
Cc1cc2c(c(=O)o1)Cc1ccccc1C2c1ccccc1

>  <score_type>  (37) 
oracle

>  <origin>  (37) 
autodockgpu

>  <m_score__min__energy>  (37) 
-6.7800000000000002

>  <m_primary>  (37) 
energy

>  <meeko>  (37) 
{"free_energy": -6.78, "intermolecular_energy": -7.07, "internal_energy": -0.77, "cluster_size": 20, "cluster_id": 1, "rank_in_cluster": 4}

>  <energy>  (37) 
-6.77

>  <cluster_rmsd>  (37) 
0.03

>  <rmsd>  (37) 
270.27

>  <cluster>  (37) 
1

$$$$
ZZFUSXOZLWDLQL-LJQANCHMNA-N
     RDKit          3D

 38 41  0  0  0  0  0  0  0  0999 V2000
  143.6410   75.2900  219.3620 C   0  0  0  0  0  0  0  0  0  0  0  0
  142.4150   75.5140  220.1860 C   0  0  0  0  0  0  0  0  0  0  0  0
  141.8570   76.7910  220.2840 C   0  0  0  0  0  0  0  0  0  0  0  0
  140.7050   76.9780  221.0610 C   0  0  0  0  0  0  0  0  0  0  0  0
  140.1390   75.8710  221.7190 C   0  0  0  0  0  0  0  0  0  0  0  0
  140.7740   74.6200  221.5840 C   0  0  0  0  0  0  0  0  0  0  0  0
  140.3200   73.6050  222.1770 O   0  0  0  0  0  0  0  0  0  0  0  0
  141.8630   74.4930  220.8320 O   0  0  0  0  0  0  0  0  0  0  0  0
  138.9280   76.0200  222.6100 C   0  0  0  0  0  0  0  0  0  0  0  0
  138.1240   77.2620  222.3280 C   0  0  0  0  0  0  0  0  0  0  0  0
  136.7990   77.3320  222.7890 C   0  0  0  0  0  0  0  0  0  0  0  0
  136.0350   78.4830  222.5820 C   0  0  0  0  0  0  0  0  0  0  0  0
  136.5920   79.5810  221.9250 C   0  0  0  0  0  0  0  0  0  0  0  0
  137.9130   79.5310  221.4750 C   0  0  0  0  0  0  0  0  0  0  0  0
  138.6900   78.3760  221.6700 C   0  0  0  0  0  0  0  0  0  0  0  0
  140.1280   78.3700  221.1990 C   0  0  1  0  0  0  0  0  0  0  0  0
  140.9930   79.2160  222.1120 C   0  0  0  0  0  0  0  0  0  0  0  0
  141.3960   78.7150  223.3630 C   0  0  0  0  0  0  0  0  0  0  0  0
  142.1920   79.4890  224.2120 C   0  0  0  0  0  0  0  0  0  0  0  0
  142.5940   80.7700  223.8230 C   0  0  0  0  0  0  0  0  0  0  0  0
  142.1990   81.2780  222.5840 C   0  0  0  0  0  0  0  0  0  0  0  0
  141.4030   80.5080  221.7300 C   0  0  0  0  0  0  0  0  0  0  0  0
  144.5045   75.1322  220.0249 H   0  0  0  0  0  0  0  0  0  0  0  0
  143.4991   74.4029  218.7272 H   0  0  0  0  0  0  0  0  0  0  0  0
  143.8220   76.1699  218.7272 H   0  0  0  0  0  0  0  0  0  0  0  0
  142.3164   77.6405  219.7573 H   0  0  0  0  0  0  0  0  0  0  0  0
  138.2786   75.1442  222.4642 H   0  0  0  0  0  0  0  0  0  0  0  0
  139.2948   76.0998  223.6440 H   0  0  0  0  0  0  0  0  0  0  0  0
  136.3593   76.4733  223.3174 H   0  0  0  0  0  0  0  0  0  0  0  0
  134.9946   78.5239  222.9368 H   0  0  0  0  0  0  0  0  0  0  0  0
  135.9898   80.4869  221.7614 H   0  0  0  0  0  0  0  0  0  0  0  0
  138.3489   80.4022  220.9640 H   0  0  0  0  0  0  0  0  0  0  0  0
  140.1260   78.8089  220.1903 H   0  0  0  0  0  0  0  0  0  0  0  0
  141.0827   77.7078  223.6751 H   0  0  0  0  0  0  0  0  0  0  0  0
  142.5028   79.0892  225.1885 H   0  0  0  0  0  0  0  0  0  0  0  0
  143.2210   81.3773  224.4924 H   0  0  0  0  0  0  0  0  0  0  0  0
  142.5147   82.2865  222.2787 H   0  0  0  0  0  0  0  0  0  0  0  0
  141.0956   80.9136  220.7548 H   0  0  0  0  0  0  0  0  0  0  0  0
  1  2  1  0
  2  3  2  0
  3  4  1  0
  4  5  2  0
  5  6  1  0
  6  7  2  0
  6  8  1  0
  5  9  1  0
  9 10  1  0
 10 11  2  0
 11 12  1  0
 12 13  2  0
 13 14  1  0
 14 15  2  0
 15 16  1  0
 16 17  1  0
 17 18  2  0
 18 19  1  0
 19 20  2  0
 20 21  1  0
 21 22  2  0
  8  2  1  0
 15 10  1  0
 22 17  1  0
 16  4  1  0
  1 23  1  0
  1 24  1  0
  1 25  1  0
  3 26  1  0
  9 27  1  0
  9 28  1  0
 11 29  1  0
 12 30  1  0
 13 31  1  0
 14 32  1  0
 16 33  1  6
 18 34  1  0
 19 35  1  0
 20 36  1  0
 21 37  1  0
 22 38  1  0
M  END
>  <UniqueID>  (38) 
17

>  <SMILES>  (38) 
Cc1cc2c(c(=O)o1)Cc1ccccc1[C@H]2c1ccccc1

>  <Energy>  (38) 
47.71909750177956

>  <Genealogy>  (38) 
Cc1cc2c(c(=O)o1)Cc1ccccc1[C@H]2c1ccccc1 (chirality)
Cc1cc2c(c(=O)o1)Cc1ccccc1[C@H]2c1ccccc1 (3D coordinates assigned)
Cc1cc2c(c(=O)o1)Cc1ccccc1[C@H]2c1ccccc1 (nonaromatic ring conformer: 47.71909750177956 kcal/mol)

>  <smiles>  (38) 
Cc1cc2c(c(=O)o1)Cc1ccccc1C2c1ccccc1

>  <score_type>  (38) 
oracle

>  <origin>  (38) 
autodockgpu

>  <m_score__min__energy>  (38) 
-6.7800000000000002

>  <m_primary>  (38) 
energy

>  <meeko>  (38) 
{"free_energy": -6.77, "intermolecular_energy": -7.07, "internal_energy": -0.77, "cluster_size": 20, "cluster_id": 1, "rank_in_cluster": 17}

>  <energy>  (38) 
-6.77

>  <cluster_rmsd>  (38) 
0.02

>  <rmsd>  (38) 
270.28

>  <cluster>  (38) 
1

$$$$
ZZFUSXOZLWDLQL-LJQANCHMNA-N
     RDKit          3D

 38 41  0  0  0  0  0  0  0  0999 V2000
  143.6800   75.2880  219.3830 C   0  0  0  0  0  0  0  0  0  0  0  0
  142.4490   75.5070  220.2010 C   0  0  0  0  0  0  0  0  0  0  0  0
  141.8830   76.7820  220.2960 C   0  0  0  0  0  0  0  0  0  0  0  0
  140.7280   76.9640  221.0670 C   0  0  0  0  0  0  0  0  0  0  0  0
  140.1640   75.8540  221.7240 C   0  0  0  0  0  0  0  0  0  0  0  0
  140.8060   74.6070  221.5940 C   0  0  0  0  0  0  0  0  0  0  0  0
  140.3560   73.5900  222.1870 O   0  0  0  0  0  0  0  0  0  0  0  0
  141.8990   74.4840  220.8470 O   0  0  0  0  0  0  0  0  0  0  0  0
  138.9490   75.9980  222.6100 C   0  0  0  0  0  0  0  0  0  0  0  0
  138.1400   77.2360  222.3230 C   0  0  0  0  0  0  0  0  0  0  0  0
  136.8120   77.2990  222.7780 C   0  0  0  0  0  0  0  0  0  0  0  0
  136.0430   78.4460  222.5660 C   0  0  0  0  0  0  0  0  0  0  0  0
  136.5960   79.5450  221.9090 C   0  0  0  0  0  0  0  0  0  0  0  0
  137.9190   79.5020  221.4650 C   0  0  0  0  0  0  0  0  0  0  0  0
  138.7020   78.3520  221.6650 C   0  0  0  0  0  0  0  0  0  0  0  0
  140.1420   78.3520  221.2000 C   0  0  1  0  0  0  0  0  0  0  0  0
  140.9980   79.2050  222.1150 C   0  0  0  0  0  0  0  0  0  0  0  0
  141.4040   78.7050  223.3660 C   0  0  0  0  0  0  0  0  0  0  0  0
  142.1930   79.4850  224.2170 C   0  0  0  0  0  0  0  0  0  0  0  0
  142.5840   80.7700  223.8300 C   0  0  0  0  0  0  0  0  0  0  0  0
  142.1870   81.2770  222.5910 C   0  0  0  0  0  0  0  0  0  0  0  0
  141.3980   80.5010  221.7360 C   0  0  0  0  0  0  0  0  0  0  0  0
  144.5411   75.1348  220.0501 H   0  0  0  0  0  0  0  0  0  0  0  0
  143.5453   74.3997  218.7483 H   0  0  0  0  0  0  0  0  0  0  0  0
  143.8599   76.1682  218.7483 H   0  0  0  0  0  0  0  0  0  0  0  0
  142.3402   77.6334  219.7706 H   0  0  0  0  0  0  0  0  0  0  0  0
  138.3045   75.1189  222.4628 H   0  0  0  0  0  0  0  0  0  0  0  0
  139.3112   76.0807  223.6454 H   0  0  0  0  0  0  0  0  0  0  0  0
  136.3744   76.4385  223.3053 H   0  0  0  0  0  0  0  0  0  0  0  0
  135.0012   78.4823  222.9173 H   0  0  0  0  0  0  0  0  0  0  0  0
  135.9890   80.4468  221.7404 H   0  0  0  0  0  0  0  0  0  0  0  0
  138.3520   80.3750  220.9547 H   0  0  0  0  0  0  0  0  0  0  0  0
  140.1413   78.7876  220.1899 H   0  0  0  0  0  0  0  0  0  0  0  0
  141.0990   77.6947  223.6763 H   0  0  0  0  0  0  0  0  0  0  0  0
  142.5067   79.0865  225.1931 H   0  0  0  0  0  0  0  0  0  0  0  0
  143.2044   81.3818  224.5015 H   0  0  0  0  0  0  0  0  0  0  0  0
  142.4953   82.2882  222.2870 H   0  0  0  0  0  0  0  0  0  0  0  0
  141.0878   80.9055  220.7612 H   0  0  0  0  0  0  0  0  0  0  0  0
  1  2  1  0
  2  3  2  0
  3  4  1  0
  4  5  2  0
  5  6  1  0
  6  7  2  0
  6  8  1  0
  5  9  1  0
  9 10  1  0
 10 11  2  0
 11 12  1  0
 12 13  2  0
 13 14  1  0
 14 15  2  0
 15 16  1  0
 16 17  1  0
 17 18  2  0
 18 19  1  0
 19 20  2  0
 20 21  1  0
 21 22  2  0
  8  2  1  0
 15 10  1  0
 22 17  1  0
 16  4  1  0
  1 23  1  0
  1 24  1  0
  1 25  1  0
  3 26  1  0
  9 27  1  0
  9 28  1  0
 11 29  1  0
 12 30  1  0
 13 31  1  0
 14 32  1  0
 16 33  1  6
 18 34  1  0
 19 35  1  0
 20 36  1  0
 21 37  1  0
 22 38  1  0
M  END
>  <UniqueID>  (39) 
17

>  <SMILES>  (39) 
Cc1cc2c(c(=O)o1)Cc1ccccc1[C@H]2c1ccccc1

>  <Energy>  (39) 
47.71909750177956

>  <Genealogy>  (39) 
Cc1cc2c(c(=O)o1)Cc1ccccc1[C@H]2c1ccccc1 (chirality)
Cc1cc2c(c(=O)o1)Cc1ccccc1[C@H]2c1ccccc1 (3D coordinates assigned)
Cc1cc2c(c(=O)o1)Cc1ccccc1[C@H]2c1ccccc1 (nonaromatic ring conformer: 47.71909750177956 kcal/mol)

>  <smiles>  (39) 
Cc1cc2c(c(=O)o1)Cc1ccccc1C2c1ccccc1

>  <score_type>  (39) 
oracle

>  <origin>  (39) 
autodockgpu

>  <m_score__min__energy>  (39) 
-6.7800000000000002

>  <m_primary>  (39) 
energy

>  <meeko>  (39) 
{"free_energy": -6.77, "intermolecular_energy": -7.07, "internal_energy": -0.77, "cluster_size": 20, "cluster_id": 1, "rank_in_cluster": 7}

>  <energy>  (39) 
-6.77

>  <cluster_rmsd>  (39) 
0.01

>  <rmsd>  (39) 
270.28

>  <cluster>  (39) 
1

$$$$
ZZFUSXOZLWDLQL-LJQANCHMNA-N
     RDKit          3D

 38 41  0  0  0  0  0  0  0  0999 V2000
  143.6860   75.2860  219.3830 C   0  0  0  0  0  0  0  0  0  0  0  0
  142.4540   75.5050  220.2000 C   0  0  0  0  0  0  0  0  0  0  0  0
  141.8890   76.7800  220.2940 C   0  0  0  0  0  0  0  0  0  0  0  0
  140.7330   76.9620  221.0640 C   0  0  0  0  0  0  0  0  0  0  0  0
  140.1690   75.8530  221.7220 C   0  0  0  0  0  0  0  0  0  0  0  0
  140.8120   74.6050  221.5930 C   0  0  0  0  0  0  0  0  0  0  0  0
  140.3610   73.5890  222.1860 O   0  0  0  0  0  0  0  0  0  0  0  0
  141.9050   74.4820  220.8470 O   0  0  0  0  0  0  0  0  0  0  0  0
  138.9540   75.9970  222.6080 C   0  0  0  0  0  0  0  0  0  0  0  0
  138.1440   77.2350  222.3190 C   0  0  0  0  0  0  0  0  0  0  0  0
  136.8160   77.2980  222.7740 C   0  0  0  0  0  0  0  0  0  0  0  0
  136.0480   78.4440  222.5610 C   0  0  0  0  0  0  0  0  0  0  0  0
  136.6010   79.5430  221.9040 C   0  0  0  0  0  0  0  0  0  0  0  0
  137.9240   79.5000  221.4600 C   0  0  0  0  0  0  0  0  0  0  0  0
  138.7070   78.3500  221.6610 C   0  0  0  0  0  0  0  0  0  0  0  0
  140.1470   78.3510  221.1960 C   0  0  1  0  0  0  0  0  0  0  0  0
  141.0030   79.2040  222.1120 C   0  0  0  0  0  0  0  0  0  0  0  0
  141.4030   78.7070  223.3650 C   0  0  0  0  0  0  0  0  0  0  0  0
  142.1920   79.4880  224.2160 C   0  0  0  0  0  0  0  0  0  0  0  0
  142.5870   80.7700  223.8260 C   0  0  0  0  0  0  0  0  0  0  0  0
  142.1950   81.2740  222.5840 C   0  0  0  0  0  0  0  0  0  0  0  0
  141.4070   80.4970  221.7290 C   0  0  0  0  0  0  0  0  0  0  0  0
  144.5465   75.1330  220.0509 H   0  0  0  0  0  0  0  0  0  0  0  0
  143.5520   74.3976  218.7483 H   0  0  0  0  0  0  0  0  0  0  0  0
  143.8664   76.1662  218.7483 H   0  0  0  0  0  0  0  0  0  0  0  0
  142.3471   77.6312  219.7691 H   0  0  0  0  0  0  0  0  0  0  0  0
  138.3100   75.1173  222.4619 H   0  0  0  0  0  0  0  0  0  0  0  0
  139.3159   76.0809  223.6434 H   0  0  0  0  0  0  0  0  0  0  0  0
  136.3784   76.4379  223.3019 H   0  0  0  0  0  0  0  0  0  0  0  0
  135.0060   78.4803  222.9116 H   0  0  0  0  0  0  0  0  0  0  0  0
  135.9940   80.4448  221.7354 H   0  0  0  0  0  0  0  0  0  0  0  0
  138.3569   80.3726  220.9490 H   0  0  0  0  0  0  0  0  0  0  0  0
  140.1469   78.7872  220.1862 H   0  0  0  0  0  0  0  0  0  0  0  0
  141.0938   77.6987  223.6777 H   0  0  0  0  0  0  0  0  0  0  0  0
  142.5021   79.0919  225.1943 H   0  0  0  0  0  0  0  0  0  0  0  0
  143.2069   81.3825  224.4973 H   0  0  0  0  0  0  0  0  0  0  0  0
  142.5065   82.2836  222.2778 H   0  0  0  0  0  0  0  0  0  0  0  0
  141.1011   80.8985  220.7516 H   0  0  0  0  0  0  0  0  0  0  0  0
  1  2  1  0
  2  3  2  0
  3  4  1  0
  4  5  2  0
  5  6  1  0
  6  7  2  0
  6  8  1  0
  5  9  1  0
  9 10  1  0
 10 11  2  0
 11 12  1  0
 12 13  2  0
 13 14  1  0
 14 15  2  0
 15 16  1  0
 16 17  1  0
 17 18  2  0
 18 19  1  0
 19 20  2  0
 20 21  1  0
 21 22  2  0
  8  2  1  0
 15 10  1  0
 22 17  1  0
 16  4  1  0
  1 23  1  0
  1 24  1  0
  1 25  1  0
  3 26  1  0
  9 27  1  0
  9 28  1  0
 11 29  1  0
 12 30  1  0
 13 31  1  0
 14 32  1  0
 16 33  1  6
 18 34  1  0
 19 35  1  0
 20 36  1  0
 21 37  1  0
 22 38  1  0
M  END
>  <UniqueID>  (40) 
17

>  <SMILES>  (40) 
Cc1cc2c(c(=O)o1)Cc1ccccc1[C@H]2c1ccccc1

>  <Energy>  (40) 
47.71909750177956

>  <Genealogy>  (40) 
Cc1cc2c(c(=O)o1)Cc1ccccc1[C@H]2c1ccccc1 (chirality)
Cc1cc2c(c(=O)o1)Cc1ccccc1[C@H]2c1ccccc1 (3D coordinates assigned)
Cc1cc2c(c(=O)o1)Cc1ccccc1[C@H]2c1ccccc1 (nonaromatic ring conformer: 47.71909750177956 kcal/mol)

>  <smiles>  (40) 
Cc1cc2c(c(=O)o1)Cc1ccccc1C2c1ccccc1

>  <score_type>  (40) 
oracle

>  <origin>  (40) 
autodockgpu

>  <m_score__min__energy>  (40) 
-6.7800000000000002

>  <m_primary>  (40) 
energy

>  <meeko>  (40) 
{"free_energy": -6.77, "intermolecular_energy": -7.07, "internal_energy": -0.77, "cluster_size": 20, "cluster_id": 1, "rank_in_cluster": 8}

>  <energy>  (40) 
-6.77

>  <cluster_rmsd>  (40) 
0.02

>  <rmsd>  (40) 
270.28

>  <cluster>  (40) 
1

$$$$
ZZFUSXOZLWDLQL-LJQANCHMNA-N
     RDKit          3D

 38 41  0  0  0  0  0  0  0  0999 V2000
  143.6750   75.2670  219.4090 C   0  0  0  0  0  0  0  0  0  0  0  0
  142.4430   75.4950  220.2230 C   0  0  0  0  0  0  0  0  0  0  0  0
  141.8840   76.7730  220.3120 C   0  0  0  0  0  0  0  0  0  0  0  0
  140.7270   76.9640  221.0790 C   0  0  0  0  0  0  0  0  0  0  0  0
  140.1560   75.8600  221.7380 C   0  0  0  0  0  0  0  0  0  0  0  0
  140.7920   74.6080  221.6140 C   0  0  0  0  0  0  0  0  0  0  0  0
  140.3330   73.5960  222.2080 O   0  0  0  0  0  0  0  0  0  0  0  0
  141.8860   74.4770  220.8700 O   0  0  0  0  0  0  0  0  0  0  0  0
  138.9390   76.0130  222.6190 C   0  0  0  0  0  0  0  0  0  0  0  0
  138.1370   77.2540  222.3250 C   0  0  0  0  0  0  0  0  0  0  0  0
  136.8080   77.3260  222.7770 C   0  0  0  0  0  0  0  0  0  0  0  0
  136.0470   78.4770  222.5580 C   0  0  0  0  0  0  0  0  0  0  0  0
  136.6080   79.5710  221.9000 C   0  0  0  0  0  0  0  0  0  0  0  0
  137.9320   79.5190  221.4600 C   0  0  0  0  0  0  0  0  0  0  0  0
  138.7070   78.3650  221.6660 C   0  0  0  0  0  0  0  0  0  0  0  0
  140.1490   78.3560  221.2060 C   0  0  1  0  0  0  0  0  0  0  0  0
  141.0070   79.2070  222.1210 C   0  0  0  0  0  0  0  0  0  0  0  0
  141.4070   78.7080  223.3740 C   0  0  0  0  0  0  0  0  0  0  0  0
  142.1980   79.4870  224.2250 C   0  0  0  0  0  0  0  0  0  0  0  0
  142.5960   80.7690  223.8360 C   0  0  0  0  0  0  0  0  0  0  0  0
  142.2050   81.2740  222.5940 C   0  0  0  0  0  0  0  0  0  0  0  0
  141.4140   80.5000  221.7390 C   0  0  0  0  0  0  0  0  0  0  0  0
  144.5329   75.1082  220.0789 H   0  0  0  0  0  0  0  0  0  0  0  0
  143.5361   74.3793  218.7744 H   0  0  0  0  0  0  0  0  0  0  0  0
  143.8630   76.1456  218.7744 H   0  0  0  0  0  0  0  0  0  0  0  0
  142.3476   77.6202  219.7853 H   0  0  0  0  0  0  0  0  0  0  0  0
  138.2906   75.1365  222.4726 H   0  0  0  0  0  0  0  0  0  0  0  0
  139.2981   76.0975  223.6553 H   0  0  0  0  0  0  0  0  0  0  0  0
  136.3641   76.4703  223.3068 H   0  0  0  0  0  0  0  0  0  0  0  0
  135.0041   78.5203  222.9050 H   0  0  0  0  0  0  0  0  0  0  0  0
  136.0068   80.4759  221.7274 H   0  0  0  0  0  0  0  0  0  0  0  0
  138.3718   80.3878  220.9483 H   0  0  0  0  0  0  0  0  0  0  0  0
  140.1545   78.7893  220.1949 H   0  0  0  0  0  0  0  0  0  0  0  0
  141.0962   77.7001  223.6861 H   0  0  0  0  0  0  0  0  0  0  0  0
  142.5075   79.0895  225.2029 H   0  0  0  0  0  0  0  0  0  0  0  0
  143.2169   81.3800  224.5077 H   0  0  0  0  0  0  0  0  0  0  0  0
  142.5198   82.2825  222.2877 H   0  0  0  0  0  0  0  0  0  0  0  0
  141.1080   80.9034  220.7625 H   0  0  0  0  0  0  0  0  0  0  0  0
  1  2  1  0
  2  3  2  0
  3  4  1  0
  4  5  2  0
  5  6  1  0
  6  7  2  0
  6  8  1  0
  5  9  1  0
  9 10  1  0
 10 11  2  0
 11 12  1  0
 12 13  2  0
 13 14  1  0
 14 15  2  0
 15 16  1  0
 16 17  1  0
 17 18  2  0
 18 19  1  0
 19 20  2  0
 20 21  1  0
 21 22  2  0
  8  2  1  0
 15 10  1  0
 22 17  1  0
 16  4  1  0
  1 23  1  0
  1 24  1  0
  1 25  1  0
  3 26  1  0
  9 27  1  0
  9 28  1  0
 11 29  1  0
 12 30  1  0
 13 31  1  0
 14 32  1  0
 16 33  1  6
 18 34  1  0
 19 35  1  0
 20 36  1  0
 21 37  1  0
 22 38  1  0
M  END
>  <UniqueID>  (41) 
18

>  <SMILES>  (41) 
Cc1cc2c(c(=O)o1)Cc1ccccc1[C@H]2c1ccccc1

>  <Energy>  (41) 
47.71909750563092

>  <Genealogy>  (41) 
Cc1cc2c(c(=O)o1)Cc1ccccc1[C@H]2c1ccccc1 (chirality)
Cc1cc2c(c(=O)o1)Cc1ccccc1[C@H]2c1ccccc1 (3D coordinates assigned)
Cc1cc2c(c(=O)o1)Cc1ccccc1[C@H]2c1ccccc1 (nonaromatic ring conformer: 47.71909750563092 kcal/mol)

>  <smiles>  (41) 
Cc1cc2c(c(=O)o1)Cc1ccccc1C2c1ccccc1

>  <score_type>  (41) 
oracle

>  <origin>  (41) 
autodockgpu

>  <m_score__min__energy>  (41) 
-6.7800000000000002

>  <m_primary>  (41) 
energy

>  <meeko>  (41) 
{"free_energy": -6.77, "intermolecular_energy": -7.07, "internal_energy": -0.77, "cluster_size": 20, "cluster_id": 1, "rank_in_cluster": 19}

>  <energy>  (41) 
-6.78

>  <cluster_rmsd>  (41) 
0.0

>  <rmsd>  (41) 
270.27

>  <cluster>  (41) 
1

$$$$
ZZFUSXOZLWDLQL-LJQANCHMNA-N
     RDKit          3D

 38 41  0  0  0  0  0  0  0  0999 V2000
  143.6870   75.2830  219.3910 C   0  0  0  0  0  0  0  0  0  0  0  0
  142.4540   75.5030  220.2070 C   0  0  0  0  0  0  0  0  0  0  0  0
  141.8890   76.7780  220.2980 C   0  0  0  0  0  0  0  0  0  0  0  0
  140.7320   76.9620  221.0670 C   0  0  0  0  0  0  0  0  0  0  0  0
  140.1670   75.8530  221.7240 C   0  0  0  0  0  0  0  0  0  0  0  0
  140.8090   74.6050  221.5970 C   0  0  0  0  0  0  0  0  0  0  0  0
  140.3560   73.5900  222.1900 O   0  0  0  0  0  0  0  0  0  0  0  0
  141.9030   74.4810  220.8530 O   0  0  0  0  0  0  0  0  0  0  0  0
  138.9500   75.9990  222.6070 C   0  0  0  0  0  0  0  0  0  0  0  0
  138.1420   77.2370  222.3160 C   0  0  0  0  0  0  0  0  0  0  0  0
  136.8130   77.3010  222.7690 C   0  0  0  0  0  0  0  0  0  0  0  0
  136.0450   78.4480  222.5540 C   0  0  0  0  0  0  0  0  0  0  0  0
  136.6000   79.5460  221.8970 C   0  0  0  0  0  0  0  0  0  0  0  0
  137.9250   79.5020  221.4550 C   0  0  0  0  0  0  0  0  0  0  0  0
  138.7060   78.3520  221.6590 C   0  0  0  0  0  0  0  0  0  0  0  0
  140.1470   78.3510  221.1970 C   0  0  1  0  0  0  0  0  0  0  0  0
  141.0020   79.2040  222.1130 C   0  0  0  0  0  0  0  0  0  0  0  0
  141.4100   78.7030  223.3630 C   0  0  0  0  0  0  0  0  0  0  0  0
  142.1980   79.4840  224.2140 C   0  0  0  0  0  0  0  0  0  0  0  0
  142.5840   80.7700  223.8300 C   0  0  0  0  0  0  0  0  0  0  0  0
  142.1850   81.2780  222.5920 C   0  0  0  0  0  0  0  0  0  0  0  0
  141.3970   80.5020  221.7360 C   0  0  0  0  0  0  0  0  0  0  0  0
  144.5468   75.1296  220.0598 H   0  0  0  0  0  0  0  0  0  0  0  0
  143.5530   74.3946  218.7564 H   0  0  0  0  0  0  0  0  0  0  0  0
  143.8685   76.1629  218.7564 H   0  0  0  0  0  0  0  0  0  0  0  0
  142.3476   77.6281  219.7716 H   0  0  0  0  0  0  0  0  0  0  0  0
  138.3054   75.1199  222.4598 H   0  0  0  0  0  0  0  0  0  0  0  0
  139.3099   76.0834  223.6430 H   0  0  0  0  0  0  0  0  0  0  0  0
  136.3743   76.4414  223.2968 H   0  0  0  0  0  0  0  0  0  0  0  0
  135.0025   78.4852  222.9029 H   0  0  0  0  0  0  0  0  0  0  0  0
  135.9939   80.4480  221.7265 H   0  0  0  0  0  0  0  0  0  0  0  0
  138.3595   80.3737  220.9438 H   0  0  0  0  0  0  0  0  0  0  0  0
  140.1488   78.7862  220.1867 H   0  0  0  0  0  0  0  0  0  0  0  0
  141.1075   77.6917  223.6723 H   0  0  0  0  0  0  0  0  0  0  0  0
  142.5147   79.0844  225.1887 H   0  0  0  0  0  0  0  0  0  0  0  0
  143.2022   81.3827  224.5026 H   0  0  0  0  0  0  0  0  0  0  0  0
  142.4910   82.2903  222.2895 H   0  0  0  0  0  0  0  0  0  0  0  0
  141.0840   80.9079  220.7627 H   0  0  0  0  0  0  0  0  0  0  0  0
  1  2  1  0
  2  3  2  0
  3  4  1  0
  4  5  2  0
  5  6  1  0
  6  7  2  0
  6  8  1  0
  5  9  1  0
  9 10  1  0
 10 11  2  0
 11 12  1  0
 12 13  2  0
 13 14  1  0
 14 15  2  0
 15 16  1  0
 16 17  1  0
 17 18  2  0
 18 19  1  0
 19 20  2  0
 20 21  1  0
 21 22  2  0
  8  2  1  0
 15 10  1  0
 22 17  1  0
 16  4  1  0
  1 23  1  0
  1 24  1  0
  1 25  1  0
  3 26  1  0
  9 27  1  0
  9 28  1  0
 11 29  1  0
 12 30  1  0
 13 31  1  0
 14 32  1  0
 16 33  1  6
 18 34  1  0
 19 35  1  0
 20 36  1  0
 21 37  1  0
 22 38  1  0
M  END
>  <UniqueID>  (42) 
18

>  <SMILES>  (42) 
Cc1cc2c(c(=O)o1)Cc1ccccc1[C@H]2c1ccccc1

>  <Energy>  (42) 
47.71909750563092

>  <Genealogy>  (42) 
Cc1cc2c(c(=O)o1)Cc1ccccc1[C@H]2c1ccccc1 (chirality)
Cc1cc2c(c(=O)o1)Cc1ccccc1[C@H]2c1ccccc1 (3D coordinates assigned)
Cc1cc2c(c(=O)o1)Cc1ccccc1[C@H]2c1ccccc1 (nonaromatic ring conformer: 47.71909750563092 kcal/mol)

>  <smiles>  (42) 
Cc1cc2c(c(=O)o1)Cc1ccccc1C2c1ccccc1

>  <score_type>  (42) 
oracle

>  <origin>  (42) 
autodockgpu

>  <m_score__min__energy>  (42) 
-6.7800000000000002

>  <m_primary>  (42) 
energy

>  <meeko>  (42) 
{"free_energy": -6.77, "intermolecular_energy": -7.07, "internal_energy": -0.77, "cluster_size": 20, "cluster_id": 1, "rank_in_cluster": 6}

>  <energy>  (42) 
-6.78

>  <cluster_rmsd>  (42) 
0.01

>  <rmsd>  (42) 
270.27

>  <cluster>  (42) 
1

$$$$
ZZFUSXOZLWDLQL-LJQANCHMNA-N
     RDKit          3D

 38 41  0  0  0  0  0  0  0  0999 V2000
  143.6820   75.2840  219.3940 C   0  0  0  0  0  0  0  0  0  0  0  0
  142.4510   75.5070  220.2110 C   0  0  0  0  0  0  0  0  0  0  0  0
  141.8880   76.7840  220.3020 C   0  0  0  0  0  0  0  0  0  0  0  0
  140.7330   76.9700  221.0720 C   0  0  0  0  0  0  0  0  0  0  0  0
  140.1660   75.8630  221.7310 C   0  0  0  0  0  0  0  0  0  0  0  0
  140.8050   74.6140  221.6040 C   0  0  0  0  0  0  0  0  0  0  0  0
  140.3520   73.6000  222.1990 O   0  0  0  0  0  0  0  0  0  0  0  0
  141.8990   74.4870  220.8590 O   0  0  0  0  0  0  0  0  0  0  0  0
  138.9510   76.0120  222.6160 C   0  0  0  0  0  0  0  0  0  0  0  0
  138.1440   77.2510  222.3250 C   0  0  0  0  0  0  0  0  0  0  0  0
  136.8160   77.3180  222.7800 C   0  0  0  0  0  0  0  0  0  0  0  0
  136.0500   78.4670  222.5640 C   0  0  0  0  0  0  0  0  0  0  0  0
  136.6060   79.5630  221.9060 C   0  0  0  0  0  0  0  0  0  0  0  0
  137.9300   79.5160  221.4620 C   0  0  0  0  0  0  0  0  0  0  0  0
  138.7100   78.3640  221.6660 C   0  0  0  0  0  0  0  0  0  0  0  0
  140.1500   78.3610  221.2020 C   0  0  1  0  0  0  0  0  0  0  0  0
  141.0080   79.2130  222.1160 C   0  0  0  0  0  0  0  0  0  0  0  0
  141.4090   78.7160  223.3690 C   0  0  0  0  0  0  0  0  0  0  0  0
  142.1990   79.4960  224.2190 C   0  0  0  0  0  0  0  0  0  0  0  0
  142.5950   80.7780  223.8290 C   0  0  0  0  0  0  0  0  0  0  0  0
  142.2020   81.2820  222.5870 C   0  0  0  0  0  0  0  0  0  0  0  0
  141.4130   80.5060  221.7330 C   0  0  0  0  0  0  0  0  0  0  0  0
  144.5421   75.1282  220.0618 H   0  0  0  0  0  0  0  0  0  0  0  0
  143.5450   74.3961  218.7593 H   0  0  0  0  0  0  0  0  0  0  0  0
  143.8652   76.1636  218.7593 H   0  0  0  0  0  0  0  0  0  0  0  0
  142.3473   77.6330  219.7746 H   0  0  0  0  0  0  0  0  0  0  0  0
  138.3049   75.1336  222.4712 H   0  0  0  0  0  0  0  0  0  0  0  0
  139.3131   76.0973  223.6512 H   0  0  0  0  0  0  0  0  0  0  0  0
  136.3763   76.4601  223.3099 H   0  0  0  0  0  0  0  0  0  0  0  0
  135.0077   78.5065  222.9134 H   0  0  0  0  0  0  0  0  0  0  0  0
  136.0015   80.4662  221.7361 H   0  0  0  0  0  0  0  0  0  0  0  0
  138.3652   80.3864  220.9492 H   0  0  0  0  0  0  0  0  0  0  0  0
  140.1508   78.7961  220.1917 H   0  0  0  0  0  0  0  0  0  0  0  0
  141.0994   77.7080  223.6821 H   0  0  0  0  0  0  0  0  0  0  0  0
  142.5095   79.0995  225.1969 H   0  0  0  0  0  0  0  0  0  0  0  0
  143.2159   81.3900  224.4997 H   0  0  0  0  0  0  0  0  0  0  0  0
  142.5139   82.2913  222.2804 H   0  0  0  0  0  0  0  0  0  0  0  0
  141.1067   80.9079  220.7559 H   0  0  0  0  0  0  0  0  0  0  0  0
  1  2  1  0
  2  3  2  0
  3  4  1  0
  4  5  2  0
  5  6  1  0
  6  7  2  0
  6  8  1  0
  5  9  1  0
  9 10  1  0
 10 11  2  0
 11 12  1  0
 12 13  2  0
 13 14  1  0
 14 15  2  0
 15 16  1  0
 16 17  1  0
 17 18  2  0
 18 19  1  0
 19 20  2  0
 20 21  1  0
 21 22  2  0
  8  2  1  0
 15 10  1  0
 22 17  1  0
 16  4  1  0
  1 23  1  0
  1 24  1  0
  1 25  1  0
  3 26  1  0
  9 27  1  0
  9 28  1  0
 11 29  1  0
 12 30  1  0
 13 31  1  0
 14 32  1  0
 16 33  1  6
 18 34  1  0
 19 35  1  0
 20 36  1  0
 21 37  1  0
 22 38  1  0
M  END
>  <UniqueID>  (43) 
18

>  <SMILES>  (43) 
Cc1cc2c(c(=O)o1)Cc1ccccc1[C@H]2c1ccccc1

>  <Energy>  (43) 
47.71909750563092

>  <Genealogy>  (43) 
Cc1cc2c(c(=O)o1)Cc1ccccc1[C@H]2c1ccccc1 (chirality)
Cc1cc2c(c(=O)o1)Cc1ccccc1[C@H]2c1ccccc1 (3D coordinates assigned)
Cc1cc2c(c(=O)o1)Cc1ccccc1[C@H]2c1ccccc1 (nonaromatic ring conformer: 47.71909750563092 kcal/mol)

>  <smiles>  (43) 
Cc1cc2c(c(=O)o1)Cc1ccccc1C2c1ccccc1

>  <score_type>  (43) 
oracle

>  <origin>  (43) 
autodockgpu

>  <m_score__min__energy>  (43) 
-6.7800000000000002

>  <m_primary>  (43) 
energy

>  <meeko>  (43) 
{"free_energy": -6.78, "intermolecular_energy": -7.07, "internal_energy": -0.77, "cluster_size": 20, "cluster_id": 1, "rank_in_cluster": 3}

>  <energy>  (43) 
-6.78

>  <cluster_rmsd>  (43) 
0.01

>  <rmsd>  (43) 
270.28

>  <cluster>  (43) 
1

$$$$
ZZFUSXOZLWDLQL-LJQANCHMNA-N
     RDKit          3D

 38 41  0  0  0  0  0  0  0  0999 V2000
  143.6970   75.2790  219.4000 C   0  0  0  0  0  0  0  0  0  0  0  0
  142.4630   75.5000  220.2150 C   0  0  0  0  0  0  0  0  0  0  0  0
  141.8980   76.7750  220.3040 C   0  0  0  0  0  0  0  0  0  0  0  0
  140.7400   76.9590  221.0720 C   0  0  0  0  0  0  0  0  0  0  0  0
  140.1750   75.8510  221.7300 C   0  0  0  0  0  0  0  0  0  0  0  0
  140.8170   74.6030  221.6050 C   0  0  0  0  0  0  0  0  0  0  0  0
  140.3640   73.5880  222.1990 O   0  0  0  0  0  0  0  0  0  0  0  0
  141.9120   74.4790  220.8610 O   0  0  0  0  0  0  0  0  0  0  0  0
  138.9570   75.9980  222.6120 C   0  0  0  0  0  0  0  0  0  0  0  0
  138.1490   77.2350  222.3200 C   0  0  0  0  0  0  0  0  0  0  0  0
  136.8200   77.3000  222.7710 C   0  0  0  0  0  0  0  0  0  0  0  0
  136.0520   78.4460  222.5540 C   0  0  0  0  0  0  0  0  0  0  0  0
  136.6070   79.5440  221.8970 C   0  0  0  0  0  0  0  0  0  0  0  0
  137.9320   79.5000  221.4560 C   0  0  0  0  0  0  0  0  0  0  0  0
  138.7130   78.3490  221.6610 C   0  0  0  0  0  0  0  0  0  0  0  0
  140.1550   78.3490  221.2000 C   0  0  1  0  0  0  0  0  0  0  0  0
  141.0090   79.2030  222.1160 C   0  0  0  0  0  0  0  0  0  0  0  0
  141.4070   78.7080  223.3710 C   0  0  0  0  0  0  0  0  0  0  0  0
  142.1940   79.4890  224.2220 C   0  0  0  0  0  0  0  0  0  0  0  0
  142.5900   80.7720  223.8320 C   0  0  0  0  0  0  0  0  0  0  0  0
  142.2000   81.2740  222.5890 C   0  0  0  0  0  0  0  0  0  0  0  0
  141.4130   80.4960  221.7330 C   0  0  0  0  0  0  0  0  0  0  0  0
  144.5560   75.1252  220.0696 H   0  0  0  0  0  0  0  0  0  0  0  0
  143.5631   74.3906  218.7654 H   0  0  0  0  0  0  0  0  0  0  0  0
  143.8797   76.1587  218.7654 H   0  0  0  0  0  0  0  0  0  0  0  0
  142.3569   77.6247  219.7773 H   0  0  0  0  0  0  0  0  0  0  0  0
  138.3127   75.1187  222.4651 H   0  0  0  0  0  0  0  0  0  0  0  0
  139.3165   76.0837  223.6481 H   0  0  0  0  0  0  0  0  0  0  0  0
  136.3807   76.4410  223.2994 H   0  0  0  0  0  0  0  0  0  0  0  0
  135.0089   78.4827  222.9014 H   0  0  0  0  0  0  0  0  0  0  0  0
  136.0008   80.4458  221.7258 H   0  0  0  0  0  0  0  0  0  0  0  0
  138.3670   80.3716  220.9450 H   0  0  0  0  0  0  0  0  0  0  0  0
  140.1582   78.7841  220.1897 H   0  0  0  0  0  0  0  0  0  0  0  0
  141.0970   77.7002  223.6846 H   0  0  0  0  0  0  0  0  0  0  0  0
  142.5026   79.0934  225.2009 H   0  0  0  0  0  0  0  0  0  0  0  0
  143.2083   81.3853  224.5040 H   0  0  0  0  0  0  0  0  0  0  0  0
  142.5121   82.2832  222.2821 H   0  0  0  0  0  0  0  0  0  0  0  0
  141.1081   80.8970  220.7551 H   0  0  0  0  0  0  0  0  0  0  0  0
  1  2  1  0
  2  3  2  0
  3  4  1  0
  4  5  2  0
  5  6  1  0
  6  7  2  0
  6  8  1  0
  5  9  1  0
  9 10  1  0
 10 11  2  0
 11 12  1  0
 12 13  2  0
 13 14  1  0
 14 15  2  0
 15 16  1  0
 16 17  1  0
 17 18  2  0
 18 19  1  0
 19 20  2  0
 20 21  1  0
 21 22  2  0
  8  2  1  0
 15 10  1  0
 22 17  1  0
 16  4  1  0
  1 23  1  0
  1 24  1  0
  1 25  1  0
  3 26  1  0
  9 27  1  0
  9 28  1  0
 11 29  1  0
 12 30  1  0
 13 31  1  0
 14 32  1  0
 16 33  1  6
 18 34  1  0
 19 35  1  0
 20 36  1  0
 21 37  1  0
 22 38  1  0
M  END
>  <UniqueID>  (44) 
18

>  <SMILES>  (44) 
Cc1cc2c(c(=O)o1)Cc1ccccc1[C@H]2c1ccccc1

>  <Energy>  (44) 
47.71909750563092

>  <Genealogy>  (44) 
Cc1cc2c(c(=O)o1)Cc1ccccc1[C@H]2c1ccccc1 (chirality)
Cc1cc2c(c(=O)o1)Cc1ccccc1[C@H]2c1ccccc1 (3D coordinates assigned)
Cc1cc2c(c(=O)o1)Cc1ccccc1[C@H]2c1ccccc1 (nonaromatic ring conformer: 47.71909750563092 kcal/mol)

>  <smiles>  (44) 
Cc1cc2c(c(=O)o1)Cc1ccccc1C2c1ccccc1

>  <score_type>  (44) 
oracle

>  <origin>  (44) 
autodockgpu

>  <m_score__min__energy>  (44) 
-6.7800000000000002

>  <m_primary>  (44) 
energy

>  <meeko>  (44) 
{"free_energy": -6.77, "intermolecular_energy": -7.07, "internal_energy": -0.77, "cluster_size": 20, "cluster_id": 1, "rank_in_cluster": 13}

>  <energy>  (44) 
-6.78

>  <cluster_rmsd>  (44) 
0.01

>  <rmsd>  (44) 
270.28

>  <cluster>  (44) 
1

$$$$
ZZFUSXOZLWDLQL-LJQANCHMNA-N
     RDKit          3D

 38 41  0  0  0  0  0  0  0  0999 V2000
  143.6630   75.2590  219.4070 C   0  0  0  0  0  0  0  0  0  0  0  0
  142.4310   75.4860  220.2210 C   0  0  0  0  0  0  0  0  0  0  0  0
  141.8720   76.7650  220.3100 C   0  0  0  0  0  0  0  0  0  0  0  0
  140.7150   76.9550  221.0780 C   0  0  0  0  0  0  0  0  0  0  0  0
  140.1450   75.8510  221.7380 C   0  0  0  0  0  0  0  0  0  0  0  0
  140.7810   74.6000  221.6130 C   0  0  0  0  0  0  0  0  0  0  0  0
  140.3240   73.5870  222.2090 O   0  0  0  0  0  0  0  0  0  0  0  0
  141.8750   74.4690  220.8690 O   0  0  0  0  0  0  0  0  0  0  0  0
  138.9280   76.0040  222.6200 C   0  0  0  0  0  0  0  0  0  0  0  0
  138.1260   77.2450  222.3260 C   0  0  0  0  0  0  0  0  0  0  0  0
  136.7970   77.3170  222.7790 C   0  0  0  0  0  0  0  0  0  0  0  0
  136.0350   78.4670  222.5610 C   0  0  0  0  0  0  0  0  0  0  0  0
  136.5950   79.5610  221.9020 C   0  0  0  0  0  0  0  0  0  0  0  0
  137.9190   79.5090  221.4600 C   0  0  0  0  0  0  0  0  0  0  0  0
  138.6950   78.3560  221.6670 C   0  0  0  0  0  0  0  0  0  0  0  0
  140.1370   78.3470  221.2050 C   0  0  1  0  0  0  0  0  0  0  0  0
  140.9950   79.1980  222.1190 C   0  0  0  0  0  0  0  0  0  0  0  0
  141.4050   78.6970  223.3680 C   0  0  0  0  0  0  0  0  0  0  0  0
  142.1960   79.4760  224.2170 C   0  0  0  0  0  0  0  0  0  0  0  0
  142.5850   80.7610  223.8320 C   0  0  0  0  0  0  0  0  0  0  0  0
  142.1830   81.2700  222.5950 C   0  0  0  0  0  0  0  0  0  0  0  0
  141.3930   80.4960  221.7410 C   0  0  0  0  0  0  0  0  0  0  0  0
  144.5211   75.1009  220.0769 H   0  0  0  0  0  0  0  0  0  0  0  0
  143.5248   74.3712  218.7724 H   0  0  0  0  0  0  0  0  0  0  0  0
  143.8503   76.1378  218.7724 H   0  0  0  0  0  0  0  0  0  0  0  0
  142.3352   77.6123  219.7832 H   0  0  0  0  0  0  0  0  0  0  0  0
  138.2796   75.1275  222.4740 H   0  0  0  0  0  0  0  0  0  0  0  0
  139.2874   76.0885  223.6562 H   0  0  0  0  0  0  0  0  0  0  0  0
  136.3539   76.4611  223.3092 H   0  0  0  0  0  0  0  0  0  0  0  0
  134.9925   78.5098  222.9093 H   0  0  0  0  0  0  0  0  0  0  0  0
  135.9935   80.4658  221.7301 H   0  0  0  0  0  0  0  0  0  0  0  0
  138.3575   80.3771  220.9461 H   0  0  0  0  0  0  0  0  0  0  0  0
  140.1418   78.7797  220.1937 H   0  0  0  0  0  0  0  0  0  0  0  0
  141.1013   77.6863  223.6782 H   0  0  0  0  0  0  0  0  0  0  0  0
  142.5131   79.0759  225.1913 H   0  0  0  0  0  0  0  0  0  0  0  0
  143.2075   81.3717  224.5025 H   0  0  0  0  0  0  0  0  0  0  0  0
  142.4890   82.2823  222.2924 H   0  0  0  0  0  0  0  0  0  0  0  0
  141.0799   80.9022  220.7679 H   0  0  0  0  0  0  0  0  0  0  0  0
  1  2  1  0
  2  3  2  0
  3  4  1  0
  4  5  2  0
  5  6  1  0
  6  7  2  0
  6  8  1  0
  5  9  1  0
  9 10  1  0
 10 11  2  0
 11 12  1  0
 12 13  2  0
 13 14  1  0
 14 15  2  0
 15 16  1  0
 16 17  1  0
 17 18  2  0
 18 19  1  0
 19 20  2  0
 20 21  1  0
 21 22  2  0
  8  2  1  0
 15 10  1  0
 22 17  1  0
 16  4  1  0
  1 23  1  0
  1 24  1  0
  1 25  1  0
  3 26  1  0
  9 27  1  0
  9 28  1  0
 11 29  1  0
 12 30  1  0
 13 31  1  0
 14 32  1  0
 16 33  1  6
 18 34  1  0
 19 35  1  0
 20 36  1  0
 21 37  1  0
 22 38  1  0
M  END
>  <UniqueID>  (45) 
18

>  <SMILES>  (45) 
Cc1cc2c(c(=O)o1)Cc1ccccc1[C@H]2c1ccccc1

>  <Energy>  (45) 
47.71909750563092

>  <Genealogy>  (45) 
Cc1cc2c(c(=O)o1)Cc1ccccc1[C@H]2c1ccccc1 (chirality)
Cc1cc2c(c(=O)o1)Cc1ccccc1[C@H]2c1ccccc1 (3D coordinates assigned)
Cc1cc2c(c(=O)o1)Cc1ccccc1[C@H]2c1ccccc1 (nonaromatic ring conformer: 47.71909750563092 kcal/mol)

>  <smiles>  (45) 
Cc1cc2c(c(=O)o1)Cc1ccccc1C2c1ccccc1

>  <score_type>  (45) 
oracle

>  <origin>  (45) 
autodockgpu

>  <m_score__min__energy>  (45) 
-6.7800000000000002

>  <m_primary>  (45) 
energy

>  <meeko>  (45) 
{"free_energy": -6.77, "intermolecular_energy": -7.07, "internal_energy": -0.77, "cluster_size": 20, "cluster_id": 1, "rank_in_cluster": 10}

>  <energy>  (45) 
-6.77

>  <cluster_rmsd>  (45) 
0.02

>  <rmsd>  (45) 
270.27

>  <cluster>  (45) 
1

$$$$
ZZFUSXOZLWDLQL-LJQANCHMNA-N
     RDKit          3D

 38 41  0  0  0  0  0  0  0  0999 V2000
  143.6770   75.2660  219.3920 C   0  0  0  0  0  0  0  0  0  0  0  0
  142.4460   75.4910  220.2090 C   0  0  0  0  0  0  0  0  0  0  0  0
  141.8850   76.7680  220.3000 C   0  0  0  0  0  0  0  0  0  0  0  0
  140.7300   76.9550  221.0710 C   0  0  0  0  0  0  0  0  0  0  0  0
  140.1630   75.8500  221.7310 C   0  0  0  0  0  0  0  0  0  0  0  0
  140.8010   74.6000  221.6050 C   0  0  0  0  0  0  0  0  0  0  0  0
  140.3470   73.5860  222.2000 O   0  0  0  0  0  0  0  0  0  0  0  0
  141.8940   74.4710  220.8580 O   0  0  0  0  0  0  0  0  0  0  0  0
  138.9480   76.0000  222.6170 C   0  0  0  0  0  0  0  0  0  0  0  0
  138.1430   77.2400  222.3260 C   0  0  0  0  0  0  0  0  0  0  0  0
  136.8150   77.3080  222.7810 C   0  0  0  0  0  0  0  0  0  0  0  0
  136.0500   78.4570  222.5660 C   0  0  0  0  0  0  0  0  0  0  0  0
  136.6070   79.5530  221.9060 C   0  0  0  0  0  0  0  0  0  0  0  0
  137.9300   79.5040  221.4620 C   0  0  0  0  0  0  0  0  0  0  0  0
  138.7090   78.3520  221.6650 C   0  0  0  0  0  0  0  0  0  0  0  0
  140.1490   78.3470  221.2000 C   0  0  1  0  0  0  0  0  0  0  0  0
  141.0080   79.1980  222.1130 C   0  0  0  0  0  0  0  0  0  0  0  0
  141.4080   78.7030  223.3680 C   0  0  0  0  0  0  0  0  0  0  0  0
  142.1990   79.4830  224.2160 C   0  0  0  0  0  0  0  0  0  0  0  0
  142.5980   80.7630  223.8240 C   0  0  0  0  0  0  0  0  0  0  0  0
  142.2070   81.2660  222.5820 C   0  0  0  0  0  0  0  0  0  0  0  0
  141.4160   80.4900  221.7280 C   0  0  0  0  0  0  0  0  0  0  0  0
  144.5367   75.1089  220.0600 H   0  0  0  0  0  0  0  0  0  0  0  0
  143.5387   74.3783  218.7573 H   0  0  0  0  0  0  0  0  0  0  0  0
  143.8617   76.1453  218.7573 H   0  0  0  0  0  0  0  0  0  0  0  0
  142.3450   77.6165  219.7724 H   0  0  0  0  0  0  0  0  0  0  0  0
  138.3007   75.1224  222.4723 H   0  0  0  0  0  0  0  0  0  0  0  0
  139.3101   76.0842  223.6523 H   0  0  0  0  0  0  0  0  0  0  0  0
  136.3747   76.4501  223.3104 H   0  0  0  0  0  0  0  0  0  0  0  0
  135.0083   78.4977  222.9171 H   0  0  0  0  0  0  0  0  0  0  0  0
  136.0033   80.4565  221.7353 H   0  0  0  0  0  0  0  0  0  0  0  0
  138.3660   80.3741  220.9492 H   0  0  0  0  0  0  0  0  0  0  0  0
  140.1501   78.7814  220.1894 H   0  0  0  0  0  0  0  0  0  0  0  0
  141.0963   77.6963  223.6834 H   0  0  0  0  0  0  0  0  0  0  0  0
  142.5083   79.0879  225.1949 H   0  0  0  0  0  0  0  0  0  0  0  0
  143.2203   81.3745  224.4940 H   0  0  0  0  0  0  0  0  0  0  0  0
  142.5213   82.2742  222.2742 H   0  0  0  0  0  0  0  0  0  0  0  0
  141.1109   80.8911  220.7502 H   0  0  0  0  0  0  0  0  0  0  0  0
  1  2  1  0
  2  3  2  0
  3  4  1  0
  4  5  2  0
  5  6  1  0
  6  7  2  0
  6  8  1  0
  5  9  1  0
  9 10  1  0
 10 11  2  0
 11 12  1  0
 12 13  2  0
 13 14  1  0
 14 15  2  0
 15 16  1  0
 16 17  1  0
 17 18  2  0
 18 19  1  0
 19 20  2  0
 20 21  1  0
 21 22  2  0
  8  2  1  0
 15 10  1  0
 22 17  1  0
 16  4  1  0
  1 23  1  0
  1 24  1  0
  1 25  1  0
  3 26  1  0
  9 27  1  0
  9 28  1  0
 11 29  1  0
 12 30  1  0
 13 31  1  0
 14 32  1  0
 16 33  1  6
 18 34  1  0
 19 35  1  0
 20 36  1  0
 21 37  1  0
 22 38  1  0
M  END
>  <UniqueID>  (46) 
18

>  <SMILES>  (46) 
Cc1cc2c(c(=O)o1)Cc1ccccc1[C@H]2c1ccccc1

>  <Energy>  (46) 
47.71909750563092

>  <Genealogy>  (46) 
Cc1cc2c(c(=O)o1)Cc1ccccc1[C@H]2c1ccccc1 (chirality)
Cc1cc2c(c(=O)o1)Cc1ccccc1[C@H]2c1ccccc1 (3D coordinates assigned)
Cc1cc2c(c(=O)o1)Cc1ccccc1[C@H]2c1ccccc1 (nonaromatic ring conformer: 47.71909750563092 kcal/mol)

>  <smiles>  (46) 
Cc1cc2c(c(=O)o1)Cc1ccccc1C2c1ccccc1

>  <score_type>  (46) 
oracle

>  <origin>  (46) 
autodockgpu

>  <m_score__min__energy>  (46) 
-6.7800000000000002

>  <m_primary>  (46) 
energy

>  <meeko>  (46) 
{"free_energy": -6.77, "intermolecular_energy": -7.07, "internal_energy": -0.77, "cluster_size": 20, "cluster_id": 1, "rank_in_cluster": 5}

>  <energy>  (46) 
-6.77

>  <cluster_rmsd>  (46) 
0.02

>  <rmsd>  (46) 
270.27

>  <cluster>  (46) 
1

$$$$
ZZFUSXOZLWDLQL-LJQANCHMNA-N
     RDKit          3D

 38 41  0  0  0  0  0  0  0  0999 V2000
  143.6740   75.2750  219.3930 C   0  0  0  0  0  0  0  0  0  0  0  0
  142.4430   75.5010  220.2090 C   0  0  0  0  0  0  0  0  0  0  0  0
  141.8830   76.7790  220.3010 C   0  0  0  0  0  0  0  0  0  0  0  0
  140.7270   76.9670  221.0700 C   0  0  0  0  0  0  0  0  0  0  0  0
  140.1570   75.8610  221.7270 C   0  0  0  0  0  0  0  0  0  0  0  0
  140.7930   74.6100  221.6000 C   0  0  0  0  0  0  0  0  0  0  0  0
  140.3360   73.5960  222.1930 O   0  0  0  0  0  0  0  0  0  0  0  0
  141.8870   74.4810  220.8550 O   0  0  0  0  0  0  0  0  0  0  0  0
  138.9410   76.0120  222.6100 C   0  0  0  0  0  0  0  0  0  0  0  0
  138.1380   77.2540  222.3200 C   0  0  0  0  0  0  0  0  0  0  0  0
  136.8100   77.3240  222.7730 C   0  0  0  0  0  0  0  0  0  0  0  0
  136.0470   78.4740  222.5580 C   0  0  0  0  0  0  0  0  0  0  0  0
  136.6070   79.5700  221.9010 C   0  0  0  0  0  0  0  0  0  0  0  0
  137.9310   79.5200  221.4590 C   0  0  0  0  0  0  0  0  0  0  0  0
  138.7070   78.3660  221.6620 C   0  0  0  0  0  0  0  0  0  0  0  0
  140.1480   78.3590  221.2000 C   0  0  1  0  0  0  0  0  0  0  0  0
  141.0070   79.2080  222.1160 C   0  0  0  0  0  0  0  0  0  0  0  0
  141.4120   78.7060  223.3660 C   0  0  0  0  0  0  0  0  0  0  0  0
  142.2030   79.4830  224.2170 C   0  0  0  0  0  0  0  0  0  0  0  0
  142.5970   80.7670  223.8320 C   0  0  0  0  0  0  0  0  0  0  0  0
  142.2000   81.2760  222.5940 C   0  0  0  0  0  0  0  0  0  0  0  0
  141.4090   80.5040  221.7380 C   0  0  0  0  0  0  0  0  0  0  0  0
  144.5332   75.1173  220.0615 H   0  0  0  0  0  0  0  0  0  0  0  0
  143.5354   74.3873  218.7584 H   0  0  0  0  0  0  0  0  0  0  0  0
  143.8597   76.1541  218.7584 H   0  0  0  0  0  0  0  0  0  0  0  0
  142.3451   77.6276  219.7753 H   0  0  0  0  0  0  0  0  0  0  0  0
  138.2926   75.1358  222.4624 H   0  0  0  0  0  0  0  0  0  0  0  0
  139.3016   76.0944  223.6460 H   0  0  0  0  0  0  0  0  0  0  0  0
  136.3676   76.4664  223.3011 H   0  0  0  0  0  0  0  0  0  0  0  0
  135.0046   78.5155  222.9067 H   0  0  0  0  0  0  0  0  0  0  0  0
  136.0050   80.4748  221.7309 H   0  0  0  0  0  0  0  0  0  0  0  0
  138.3695   80.3901  220.9484 H   0  0  0  0  0  0  0  0  0  0  0  0
  140.1516   78.7946  220.1899 H   0  0  0  0  0  0  0  0  0  0  0  0
  141.1045   77.6962  223.6755 H   0  0  0  0  0  0  0  0  0  0  0  0
  142.5162   79.0825  225.1925 H   0  0  0  0  0  0  0  0  0  0  0  0
  143.2195   81.3764  224.5037 H   0  0  0  0  0  0  0  0  0  0  0  0
  142.5104   82.2870  222.2914 H   0  0  0  0  0  0  0  0  0  0  0  0
  141.0989   80.9108  220.7642 H   0  0  0  0  0  0  0  0  0  0  0  0
  1  2  1  0
  2  3  2  0
  3  4  1  0
  4  5  2  0
  5  6  1  0
  6  7  2  0
  6  8  1  0
  5  9  1  0
  9 10  1  0
 10 11  2  0
 11 12  1  0
 12 13  2  0
 13 14  1  0
 14 15  2  0
 15 16  1  0
 16 17  1  0
 17 18  2  0
 18 19  1  0
 19 20  2  0
 20 21  1  0
 21 22  2  0
  8  2  1  0
 15 10  1  0
 22 17  1  0
 16  4  1  0
  1 23  1  0
  1 24  1  0
  1 25  1  0
  3 26  1  0
  9 27  1  0
  9 28  1  0
 11 29  1  0
 12 30  1  0
 13 31  1  0
 14 32  1  0
 16 33  1  6
 18 34  1  0
 19 35  1  0
 20 36  1  0
 21 37  1  0
 22 38  1  0
M  END
>  <UniqueID>  (47) 
18

>  <SMILES>  (47) 
Cc1cc2c(c(=O)o1)Cc1ccccc1[C@H]2c1ccccc1

>  <Energy>  (47) 
47.71909750563092

>  <Genealogy>  (47) 
Cc1cc2c(c(=O)o1)Cc1ccccc1[C@H]2c1ccccc1 (chirality)
Cc1cc2c(c(=O)o1)Cc1ccccc1[C@H]2c1ccccc1 (3D coordinates assigned)
Cc1cc2c(c(=O)o1)Cc1ccccc1[C@H]2c1ccccc1 (nonaromatic ring conformer: 47.71909750563092 kcal/mol)

>  <smiles>  (47) 
Cc1cc2c(c(=O)o1)Cc1ccccc1C2c1ccccc1

>  <score_type>  (47) 
oracle

>  <origin>  (47) 
autodockgpu

>  <m_score__min__energy>  (47) 
-6.7800000000000002

>  <m_primary>  (47) 
energy

>  <meeko>  (47) 
{"free_energy": -6.78, "intermolecular_energy": -7.08, "internal_energy": -0.77, "cluster_size": 20, "cluster_id": 1, "rank_in_cluster": 2}

>  <energy>  (47) 
-6.77

>  <cluster_rmsd>  (47) 
0.02

>  <rmsd>  (47) 
270.27

>  <cluster>  (47) 
1

$$$$
ZZFUSXOZLWDLQL-LJQANCHMNA-N
     RDKit          3D

 38 41  0  0  0  0  0  0  0  0999 V2000
  143.6860   75.3020  219.3880 C   0  0  0  0  0  0  0  0  0  0  0  0
  142.4550   75.5220  220.2070 C   0  0  0  0  0  0  0  0  0  0  0  0
  141.8890   76.7960  220.2990 C   0  0  0  0  0  0  0  0  0  0  0  0
  140.7340   76.9790  221.0700 C   0  0  0  0  0  0  0  0  0  0  0  0
  140.1710   75.8710  221.7300 C   0  0  0  0  0  0  0  0  0  0  0  0
  140.8140   74.6230  221.6020 C   0  0  0  0  0  0  0  0  0  0  0  0
  140.3640   73.6070  222.1970 O   0  0  0  0  0  0  0  0  0  0  0  0
  141.9070   74.5000  220.8550 O   0  0  0  0  0  0  0  0  0  0  0  0
  138.9560   76.0160  222.6160 C   0  0  0  0  0  0  0  0  0  0  0  0
  138.1460   77.2520  222.3260 C   0  0  0  0  0  0  0  0  0  0  0  0
  136.8180   77.3150  222.7820 C   0  0  0  0  0  0  0  0  0  0  0  0
  136.0490   78.4610  222.5680 C   0  0  0  0  0  0  0  0  0  0  0  0
  136.6010   79.5590  221.9090 C   0  0  0  0  0  0  0  0  0  0  0  0
  137.9240   79.5170  221.4640 C   0  0  0  0  0  0  0  0  0  0  0  0
  138.7070   78.3670  221.6660 C   0  0  0  0  0  0  0  0  0  0  0  0
  140.1470   78.3680  221.2010 C   0  0  1  0  0  0  0  0  0  0  0  0
  141.0030   79.2220  222.1140 C   0  0  0  0  0  0  0  0  0  0  0  0
  141.4110   78.7250  223.3650 C   0  0  0  0  0  0  0  0  0  0  0  0
  142.2000   79.5080  224.2140 C   0  0  0  0  0  0  0  0  0  0  0  0
  142.5880   80.7920  223.8250 C   0  0  0  0  0  0  0  0  0  0  0  0
  142.1890   81.2970  222.5860 C   0  0  0  0  0  0  0  0  0  0  0  0
  141.4010   80.5190  221.7320 C   0  0  0  0  0  0  0  0  0  0  0  0
  144.5473   75.1481  220.0547 H   0  0  0  0  0  0  0  0  0  0  0  0
  143.5503   74.4139  218.7533 H   0  0  0  0  0  0  0  0  0  0  0  0
  143.8663   76.1822  218.7533 H   0  0  0  0  0  0  0  0  0  0  0  0
  142.3456   77.6464  219.7715 H   0  0  0  0  0  0  0  0  0  0  0  0
  138.3123   75.1358  222.4712 H   0  0  0  0  0  0  0  0  0  0  0  0
  139.3183   76.1017  223.6511 H   0  0  0  0  0  0  0  0  0  0  0  0
  136.3811   76.4554  223.3113 H   0  0  0  0  0  0  0  0  0  0  0  0
  135.0073   78.4975  222.9195 H   0  0  0  0  0  0  0  0  0  0  0  0
  135.9931   80.4599  221.7394 H   0  0  0  0  0  0  0  0  0  0  0  0
  138.3563   80.3894  220.9521 H   0  0  0  0  0  0  0  0  0  0  0  0
  140.1456   78.8032  220.1908 H   0  0  0  0  0  0  0  0  0  0  0  0
  141.1078   77.7148  223.6774 H   0  0  0  0  0  0  0  0  0  0  0  0
  142.5156   79.1116  225.1903 H   0  0  0  0  0  0  0  0  0  0  0  0
  143.2081   81.4056  224.4950 H   0  0  0  0  0  0  0  0  0  0  0  0
  142.4950   82.3086  222.2811 H   0  0  0  0  0  0  0  0  0  0  0  0
  141.0900   80.9215  220.7567 H   0  0  0  0  0  0  0  0  0  0  0  0
  1  2  1  0
  2  3  2  0
  3  4  1  0
  4  5  2  0
  5  6  1  0
  6  7  2  0
  6  8  1  0
  5  9  1  0
  9 10  1  0
 10 11  2  0
 11 12  1  0
 12 13  2  0
 13 14  1  0
 14 15  2  0
 15 16  1  0
 16 17  1  0
 17 18  2  0
 18 19  1  0
 19 20  2  0
 20 21  1  0
 21 22  2  0
  8  2  1  0
 15 10  1  0
 22 17  1  0
 16  4  1  0
  1 23  1  0
  1 24  1  0
  1 25  1  0
  3 26  1  0
  9 27  1  0
  9 28  1  0
 11 29  1  0
 12 30  1  0
 13 31  1  0
 14 32  1  0
 16 33  1  6
 18 34  1  0
 19 35  1  0
 20 36  1  0
 21 37  1  0
 22 38  1  0
M  END
>  <UniqueID>  (48) 
18

>  <SMILES>  (48) 
Cc1cc2c(c(=O)o1)Cc1ccccc1[C@H]2c1ccccc1

>  <Energy>  (48) 
47.71909750563092

>  <Genealogy>  (48) 
Cc1cc2c(c(=O)o1)Cc1ccccc1[C@H]2c1ccccc1 (chirality)
Cc1cc2c(c(=O)o1)Cc1ccccc1[C@H]2c1ccccc1 (3D coordinates assigned)
Cc1cc2c(c(=O)o1)Cc1ccccc1[C@H]2c1ccccc1 (nonaromatic ring conformer: 47.71909750563092 kcal/mol)

>  <smiles>  (48) 
Cc1cc2c(c(=O)o1)Cc1ccccc1C2c1ccccc1

>  <score_type>  (48) 
oracle

>  <origin>  (48) 
autodockgpu

>  <m_score__min__energy>  (48) 
-6.7800000000000002

>  <m_primary>  (48) 
energy

>  <meeko>  (48) 
{"free_energy": -6.77, "intermolecular_energy": -7.07, "internal_energy": -0.77, "cluster_size": 20, "cluster_id": 1, "rank_in_cluster": 11}

>  <energy>  (48) 
-6.77

>  <cluster_rmsd>  (48) 
0.02

>  <rmsd>  (48) 
270.27

>  <cluster>  (48) 
1

$$$$
ZZFUSXOZLWDLQL-LJQANCHMNA-N
     RDKit          3D

 38 41  0  0  0  0  0  0  0  0999 V2000
  143.6930   75.3020  219.3930 C   0  0  0  0  0  0  0  0  0  0  0  0
  142.4610   75.5190  220.2100 C   0  0  0  0  0  0  0  0  0  0  0  0
  141.8930   76.7930  220.3030 C   0  0  0  0  0  0  0  0  0  0  0  0
  140.7370   76.9740  221.0730 C   0  0  0  0  0  0  0  0  0  0  0  0
  140.1750   75.8640  221.7320 C   0  0  0  0  0  0  0  0  0  0  0  0
  140.8200   74.6180  221.6040 C   0  0  0  0  0  0  0  0  0  0  0  0
  140.3710   73.6010  222.1980 O   0  0  0  0  0  0  0  0  0  0  0  0
  141.9130   74.4960  220.8570 O   0  0  0  0  0  0  0  0  0  0  0  0
  138.9600   76.0070  222.6180 C   0  0  0  0  0  0  0  0  0  0  0  0
  138.1480   77.2430  222.3280 C   0  0  0  0  0  0  0  0  0  0  0  0
  136.8200   77.3050  222.7830 C   0  0  0  0  0  0  0  0  0  0  0  0
  136.0490   78.4500  222.5690 C   0  0  0  0  0  0  0  0  0  0  0  0
  136.6010   79.5490  221.9110 C   0  0  0  0  0  0  0  0  0  0  0  0
  137.9240   79.5080  221.4670 C   0  0  0  0  0  0  0  0  0  0  0  0
  138.7090   78.3590  221.6690 C   0  0  0  0  0  0  0  0  0  0  0  0
  140.1490   78.3620  221.2050 C   0  0  1  0  0  0  0  0  0  0  0  0
  141.0030   79.2170  222.1190 C   0  0  0  0  0  0  0  0  0  0  0  0
  141.4140   78.7180  223.3680 C   0  0  0  0  0  0  0  0  0  0  0  0
  142.2020   79.5000  224.2180 C   0  0  0  0  0  0  0  0  0  0  0  0
  142.5850   80.7870  223.8320 C   0  0  0  0  0  0  0  0  0  0  0  0
  142.1830   81.2940  222.5950 C   0  0  0  0  0  0  0  0  0  0  0  0
  141.3960   80.5150  221.7400 C   0  0  0  0  0  0  0  0  0  0  0  0
  144.5538   75.1504  220.0608 H   0  0  0  0  0  0  0  0  0  0  0  0
  143.5603   74.4134  218.7584 H   0  0  0  0  0  0  0  0  0  0  0  0
  143.8719   76.1825  218.7584 H   0  0  0  0  0  0  0  0  0  0  0  0
  142.3492   77.6445  219.7769 H   0  0  0  0  0  0  0  0  0  0  0  0
  138.3174   75.1261  222.4730 H   0  0  0  0  0  0  0  0  0  0  0  0
  139.3221   76.0927  223.6532 H   0  0  0  0  0  0  0  0  0  0  0  0
  136.3840   76.4448  223.3121 H   0  0  0  0  0  0  0  0  0  0  0  0
  135.0068   78.4849  222.9193 H   0  0  0  0  0  0  0  0  0  0  0  0
  135.9928   80.4498  221.7416 H   0  0  0  0  0  0  0  0  0  0  0  0
  138.3555   80.3810  220.9554 H   0  0  0  0  0  0  0  0  0  0  0  0
  140.1485   78.7978  220.1950 H   0  0  0  0  0  0  0  0  0  0  0  0
  141.1137   77.7062  223.6781 H   0  0  0  0  0  0  0  0  0  0  0  0
  142.5209   79.1013  225.1923 H   0  0  0  0  0  0  0  0  0  0  0  0
  143.2036   81.4010  224.5031 H   0  0  0  0  0  0  0  0  0  0  0  0
  142.4854   82.3073  222.2922 H   0  0  0  0  0  0  0  0  0  0  0  0
  141.0824   80.9188  220.7660 H   0  0  0  0  0  0  0  0  0  0  0  0
  1  2  1  0
  2  3  2  0
  3  4  1  0
  4  5  2  0
  5  6  1  0
  6  7  2  0
  6  8  1  0
  5  9  1  0
  9 10  1  0
 10 11  2  0
 11 12  1  0
 12 13  2  0
 13 14  1  0
 14 15  2  0
 15 16  1  0
 16 17  1  0
 17 18  2  0
 18 19  1  0
 19 20  2  0
 20 21  1  0
 21 22  2  0
  8  2  1  0
 15 10  1  0
 22 17  1  0
 16  4  1  0
  1 23  1  0
  1 24  1  0
  1 25  1  0
  3 26  1  0
  9 27  1  0
  9 28  1  0
 11 29  1  0
 12 30  1  0
 13 31  1  0
 14 32  1  0
 16 33  1  6
 18 34  1  0
 19 35  1  0
 20 36  1  0
 21 37  1  0
 22 38  1  0
M  END
>  <UniqueID>  (49) 
18

>  <SMILES>  (49) 
Cc1cc2c(c(=O)o1)Cc1ccccc1[C@H]2c1ccccc1

>  <Energy>  (49) 
47.71909750563092

>  <Genealogy>  (49) 
Cc1cc2c(c(=O)o1)Cc1ccccc1[C@H]2c1ccccc1 (chirality)
Cc1cc2c(c(=O)o1)Cc1ccccc1[C@H]2c1ccccc1 (3D coordinates assigned)
Cc1cc2c(c(=O)o1)Cc1ccccc1[C@H]2c1ccccc1 (nonaromatic ring conformer: 47.71909750563092 kcal/mol)

>  <smiles>  (49) 
Cc1cc2c(c(=O)o1)Cc1ccccc1C2c1ccccc1

>  <score_type>  (49) 
oracle

>  <origin>  (49) 
autodockgpu

>  <m_score__min__energy>  (49) 
-6.7800000000000002

>  <m_primary>  (49) 
energy

>  <meeko>  (49) 
{"free_energy": -6.77, "intermolecular_energy": -7.07, "internal_energy": -0.77, "cluster_size": 20, "cluster_id": 1, "rank_in_cluster": 18}

>  <energy>  (49) 
-6.77

>  <cluster_rmsd>  (49) 
0.02

>  <rmsd>  (49) 
270.27

>  <cluster>  (49) 
1

$$$$
ZZFUSXOZLWDLQL-LJQANCHMNA-N
     RDKit          3D

 38 41  0  0  0  0  0  0  0  0999 V2000
  143.6600   75.2870  219.3680 C   0  0  0  0  0  0  0  0  0  0  0  0
  142.4340   75.5040  220.1930 C   0  0  0  0  0  0  0  0  0  0  0  0
  141.8690   76.7790  220.2930 C   0  0  0  0  0  0  0  0  0  0  0  0
  140.7170   76.9600  221.0700 C   0  0  0  0  0  0  0  0  0  0  0  0
  140.1570   75.8490  221.7290 C   0  0  0  0  0  0  0  0  0  0  0  0
  140.7990   74.6020  221.5930 C   0  0  0  0  0  0  0  0  0  0  0  0
  140.3510   73.5840  222.1870 O   0  0  0  0  0  0  0  0  0  0  0  0
  141.8880   74.4800  220.8410 O   0  0  0  0  0  0  0  0  0  0  0  0
  138.9470   75.9920  222.6210 C   0  0  0  0  0  0  0  0  0  0  0  0
  138.1360   77.2300  222.3400 C   0  0  0  0  0  0  0  0  0  0  0  0
  136.8110   77.2930  222.8030 C   0  0  0  0  0  0  0  0  0  0  0  0
  136.0410   78.4400  222.5960 C   0  0  0  0  0  0  0  0  0  0  0  0
  136.5900   79.5400  221.9390 C   0  0  0  0  0  0  0  0  0  0  0  0
  137.9110   79.4980  221.4870 C   0  0  0  0  0  0  0  0  0  0  0  0
  138.6950   78.3470  221.6810 C   0  0  0  0  0  0  0  0  0  0  0  0
  140.1330   78.3480  221.2090 C   0  0  1  0  0  0  0  0  0  0  0  0
  140.9940   79.1990  222.1210 C   0  0  0  0  0  0  0  0  0  0  0  0
  141.3950   78.7030  223.3740 C   0  0  0  0  0  0  0  0  0  0  0  0
  142.1880   79.4820  224.2220 C   0  0  0  0  0  0  0  0  0  0  0  0
  142.5880   80.7620  223.8300 C   0  0  0  0  0  0  0  0  0  0  0  0
  142.1960   81.2650  222.5880 C   0  0  0  0  0  0  0  0  0  0  0  0
  141.4030   80.4910  221.7350 C   0  0  0  0  0  0  0  0  0  0  0  0
  144.5251   75.1339  220.0300 H   0  0  0  0  0  0  0  0  0  0  0  0
  143.5224   74.3993  218.7332 H   0  0  0  0  0  0  0  0  0  0  0  0
  143.8355   76.1680  218.7332 H   0  0  0  0  0  0  0  0  0  0  0  0
  142.3241   77.6313  219.7671 H   0  0  0  0  0  0  0  0  0  0  0  0
  138.3019   75.1129  222.4762 H   0  0  0  0  0  0  0  0  0  0  0  0
  139.3149   76.0739  223.6544 H   0  0  0  0  0  0  0  0  0  0  0  0
  136.3765   76.4324  223.3327 H   0  0  0  0  0  0  0  0  0  0  0  0
  135.0007   78.4752  222.9517 H   0  0  0  0  0  0  0  0  0  0  0  0
  135.9822   80.4423  221.7763 H   0  0  0  0  0  0  0  0  0  0  0  0
  138.3411   80.3717  220.9755 H   0  0  0  0  0  0  0  0  0  0  0  0
  140.1279   78.7864  220.2001 H   0  0  0  0  0  0  0  0  0  0  0  0
  141.0830   77.6963  223.6889 H   0  0  0  0  0  0  0  0  0  0  0  0
  142.4978   79.0861  225.2004 H   0  0  0  0  0  0  0  0  0  0  0  0
  143.2113   81.3730  224.4994 H   0  0  0  0  0  0  0  0  0  0  0  0
  142.5117   82.2726  222.2797 H   0  0  0  0  0  0  0  0  0  0  0  0
  141.0970   80.8928  220.7578 H   0  0  0  0  0  0  0  0  0  0  0  0
  1  2  1  0
  2  3  2  0
  3  4  1  0
  4  5  2  0
  5  6  1  0
  6  7  2  0
  6  8  1  0
  5  9  1  0
  9 10  1  0
 10 11  2  0
 11 12  1  0
 12 13  2  0
 13 14  1  0
 14 15  2  0
 15 16  1  0
 16 17  1  0
 17 18  2  0
 18 19  1  0
 19 20  2  0
 20 21  1  0
 21 22  2  0
  8  2  1  0
 15 10  1  0
 22 17  1  0
 16  4  1  0
  1 23  1  0
  1 24  1  0
  1 25  1  0
  3 26  1  0
  9 27  1  0
  9 28  1  0
 11 29  1  0
 12 30  1  0
 13 31  1  0
 14 32  1  0
 16 33  1  6
 18 34  1  0
 19 35  1  0
 20 36  1  0
 21 37  1  0
 22 38  1  0
M  END
>  <UniqueID>  (50) 
18

>  <SMILES>  (50) 
Cc1cc2c(c(=O)o1)Cc1ccccc1[C@H]2c1ccccc1

>  <Energy>  (50) 
47.71909750563092

>  <Genealogy>  (50) 
Cc1cc2c(c(=O)o1)Cc1ccccc1[C@H]2c1ccccc1 (chirality)
Cc1cc2c(c(=O)o1)Cc1ccccc1[C@H]2c1ccccc1 (3D coordinates assigned)
Cc1cc2c(c(=O)o1)Cc1ccccc1[C@H]2c1ccccc1 (nonaromatic ring conformer: 47.71909750563092 kcal/mol)

>  <smiles>  (50) 
Cc1cc2c(c(=O)o1)Cc1ccccc1C2c1ccccc1

>  <score_type>  (50) 
oracle

>  <origin>  (50) 
autodockgpu

>  <m_score__min__energy>  (50) 
-6.7800000000000002

>  <m_primary>  (50) 
energy

>  <meeko>  (50) 
{"free_energy": -6.77, "intermolecular_energy": -7.07, "internal_energy": -0.77, "cluster_size": 20, "cluster_id": 1, "rank_in_cluster": 12}

>  <energy>  (50) 
-6.77

>  <cluster_rmsd>  (50) 
0.02

>  <rmsd>  (50) 
270.27

>  <cluster>  (50) 
1

$$$$
ZZFUSXOZLWDLQL-LJQANCHMNA-N
     RDKit          3D

 38 41  0  0  0  0  0  0  0  0999 V2000
  143.6730   75.2790  219.4020 C   0  0  0  0  0  0  0  0  0  0  0  0
  142.4400   75.5000  220.2170 C   0  0  0  0  0  0  0  0  0  0  0  0
  141.8770   76.7770  220.3090 C   0  0  0  0  0  0  0  0  0  0  0  0
  140.7200   76.9610  221.0770 C   0  0  0  0  0  0  0  0  0  0  0  0
  140.1520   75.8530  221.7330 C   0  0  0  0  0  0  0  0  0  0  0  0
  140.7920   74.6040  221.6060 C   0  0  0  0  0  0  0  0  0  0  0  0
  140.3380   73.5890  222.1980 O   0  0  0  0  0  0  0  0  0  0  0  0
  141.8870   74.4790  220.8620 O   0  0  0  0  0  0  0  0  0  0  0  0
  138.9350   76.0010  222.6160 C   0  0  0  0  0  0  0  0  0  0  0  0
  138.1290   77.2400  222.3250 C   0  0  0  0  0  0  0  0  0  0  0  0
  136.8000   77.3060  222.7780 C   0  0  0  0  0  0  0  0  0  0  0  0
  136.0340   78.4540  222.5620 C   0  0  0  0  0  0  0  0  0  0  0  0
  136.5910   79.5520  221.9070 C   0  0  0  0  0  0  0  0  0  0  0  0
  137.9160   79.5060  221.4660 C   0  0  0  0  0  0  0  0  0  0  0  0
  138.6950   78.3540  221.6690 C   0  0  0  0  0  0  0  0  0  0  0  0
  140.1370   78.3510  221.2070 C   0  0  1  0  0  0  0  0  0  0  0  0
  140.9920   79.2020  222.1250 C   0  0  0  0  0  0  0  0  0  0  0  0
  141.4110   78.6950  223.3680 C   0  0  0  0  0  0  0  0  0  0  0  0
  142.1990   79.4740  224.2200 C   0  0  0  0  0  0  0  0  0  0  0  0
  142.5770   80.7650  223.8430 C   0  0  0  0  0  0  0  0  0  0  0  0
  142.1670   81.2800  222.6110 C   0  0  0  0  0  0  0  0  0  0  0  0
  141.3780   80.5050  221.7540 C   0  0  0  0  0  0  0  0  0  0  0  0
  144.5322   75.1250  220.0713 H   0  0  0  0  0  0  0  0  0  0  0  0
  143.5387   74.3906  218.7674 H   0  0  0  0  0  0  0  0  0  0  0  0
  143.8556   76.1587  218.7674 H   0  0  0  0  0  0  0  0  0  0  0  0
  142.3375   77.6271  219.7843 H   0  0  0  0  0  0  0  0  0  0  0  0
  138.2891   75.1228  222.4688 H   0  0  0  0  0  0  0  0  0  0  0  0
  139.2950   76.0849  223.6520 H   0  0  0  0  0  0  0  0  0  0  0  0
  136.3600   76.4474  223.3064 H   0  0  0  0  0  0  0  0  0  0  0  0
  134.9908   78.4920  222.9088 H   0  0  0  0  0  0  0  0  0  0  0  0
  135.9866   80.4553  221.7374 H   0  0  0  0  0  0  0  0  0  0  0  0
  138.3525   80.3776  220.9563 H   0  0  0  0  0  0  0  0  0  0  0  0
  140.1406   78.7863  220.1968 H   0  0  0  0  0  0  0  0  0  0  0  0
  141.1169   77.6794  223.6715 H   0  0  0  0  0  0  0  0  0  0  0  0
  142.5225   79.0693  225.1903 H   0  0  0  0  0  0  0  0  0  0  0  0
  143.1971   81.3755  224.5159 H   0  0  0  0  0  0  0  0  0  0  0  0
  142.4649   82.2964  222.3141 H   0  0  0  0  0  0  0  0  0  0  0  0
  141.0573   80.9154  220.7851 H   0  0  0  0  0  0  0  0  0  0  0  0
  1  2  1  0
  2  3  2  0
  3  4  1  0
  4  5  2  0
  5  6  1  0
  6  7  2  0
  6  8  1  0
  5  9  1  0
  9 10  1  0
 10 11  2  0
 11 12  1  0
 12 13  2  0
 13 14  1  0
 14 15  2  0
 15 16  1  0
 16 17  1  0
 17 18  2  0
 18 19  1  0
 19 20  2  0
 20 21  1  0
 21 22  2  0
  8  2  1  0
 15 10  1  0
 22 17  1  0
 16  4  1  0
  1 23  1  0
  1 24  1  0
  1 25  1  0
  3 26  1  0
  9 27  1  0
  9 28  1  0
 11 29  1  0
 12 30  1  0
 13 31  1  0
 14 32  1  0
 16 33  1  6
 18 34  1  0
 19 35  1  0
 20 36  1  0
 21 37  1  0
 22 38  1  0
M  END
>  <UniqueID>  (51) 
18

>  <SMILES>  (51) 
Cc1cc2c(c(=O)o1)Cc1ccccc1[C@H]2c1ccccc1

>  <Energy>  (51) 
47.71909750563092

>  <Genealogy>  (51) 
Cc1cc2c(c(=O)o1)Cc1ccccc1[C@H]2c1ccccc1 (chirality)
Cc1cc2c(c(=O)o1)Cc1ccccc1[C@H]2c1ccccc1 (3D coordinates assigned)
Cc1cc2c(c(=O)o1)Cc1ccccc1[C@H]2c1ccccc1 (nonaromatic ring conformer: 47.71909750563092 kcal/mol)

>  <smiles>  (51) 
Cc1cc2c(c(=O)o1)Cc1ccccc1C2c1ccccc1

>  <score_type>  (51) 
oracle

>  <origin>  (51) 
autodockgpu

>  <m_score__min__energy>  (51) 
-6.7800000000000002

>  <m_primary>  (51) 
energy

>  <meeko>  (51) 
{"free_energy": -6.77, "intermolecular_energy": -7.07, "internal_energy": -0.77, "cluster_size": 20, "cluster_id": 1, "rank_in_cluster": 9}

>  <energy>  (51) 
-6.77

>  <cluster_rmsd>  (51) 
0.02

>  <rmsd>  (51) 
270.28

>  <cluster>  (51) 
1

$$$$
ZZFUSXOZLWDLQL-LJQANCHMNA-N
     RDKit          3D

 38 41  0  0  0  0  0  0  0  0999 V2000
  143.6970   75.2750  219.4020 C   0  0  0  0  0  0  0  0  0  0  0  0
  142.4640   75.4960  220.2160 C   0  0  0  0  0  0  0  0  0  0  0  0
  141.9000   76.7720  220.3070 C   0  0  0  0  0  0  0  0  0  0  0  0
  140.7420   76.9570  221.0740 C   0  0  0  0  0  0  0  0  0  0  0  0
  140.1750   75.8500  221.7320 C   0  0  0  0  0  0  0  0  0  0  0  0
  140.8160   74.6010  221.6060 C   0  0  0  0  0  0  0  0  0  0  0  0
  140.3620   73.5860  222.1990 O   0  0  0  0  0  0  0  0  0  0  0  0
  141.9110   74.4760  220.8620 O   0  0  0  0  0  0  0  0  0  0  0  0
  138.9570   75.9970  222.6140 C   0  0  0  0  0  0  0  0  0  0  0  0
  138.1500   77.2350  222.3210 C   0  0  0  0  0  0  0  0  0  0  0  0
  136.8210   77.3010  222.7730 C   0  0  0  0  0  0  0  0  0  0  0  0
  136.0550   78.4490  222.5560 C   0  0  0  0  0  0  0  0  0  0  0  0
  136.6110   79.5460  221.8990 C   0  0  0  0  0  0  0  0  0  0  0  0
  137.9360   79.5000  221.4590 C   0  0  0  0  0  0  0  0  0  0  0  0
  138.7160   78.3490  221.6640 C   0  0  0  0  0  0  0  0  0  0  0  0
  140.1580   78.3470  221.2030 C   0  0  1  0  0  0  0  0  0  0  0  0
  141.0120   79.2000  222.1190 C   0  0  0  0  0  0  0  0  0  0  0  0
  141.4170   78.7010  223.3710 C   0  0  0  0  0  0  0  0  0  0  0  0
  142.2040   79.4810  224.2220 C   0  0  0  0  0  0  0  0  0  0  0  0
  142.5950   80.7660  223.8360 C   0  0  0  0  0  0  0  0  0  0  0  0
  142.1990   81.2720  222.5960 C   0  0  0  0  0  0  0  0  0  0  0  0
  141.4120   80.4960  221.7400 C   0  0  0  0  0  0  0  0  0  0  0  0
  144.5559   75.1211  220.0718 H   0  0  0  0  0  0  0  0  0  0  0  0
  143.5631   74.3866  218.7674 H   0  0  0  0  0  0  0  0  0  0  0  0
  143.8800   76.1547  218.7674 H   0  0  0  0  0  0  0  0  0  0  0  0
  142.3605   77.6219  219.7820 H   0  0  0  0  0  0  0  0  0  0  0  0
  138.3123   75.1180  222.4670 H   0  0  0  0  0  0  0  0  0  0  0  0
  139.3158   76.0819  223.6504 H   0  0  0  0  0  0  0  0  0  0  0  0
  136.3807   76.4426  223.3015 H   0  0  0  0  0  0  0  0  0  0  0  0
  135.0121   78.4875  222.9038 H   0  0  0  0  0  0  0  0  0  0  0  0
  136.0058   80.4483  221.7270 H   0  0  0  0  0  0  0  0  0  0  0  0
  138.3722   80.3712  220.9483 H   0  0  0  0  0  0  0  0  0  0  0  0
  140.1617   78.7816  220.1925 H   0  0  0  0  0  0  0  0  0  0  0  0
  141.1121   77.6907  223.6815 H   0  0  0  0  0  0  0  0  0  0  0  0
  142.5167   79.0826  225.1985 H   0  0  0  0  0  0  0  0  0  0  0  0
  143.2141   81.3783  224.5082 H   0  0  0  0  0  0  0  0  0  0  0  0
  142.5070   82.2834  222.2922 H   0  0  0  0  0  0  0  0  0  0  0  0
  141.1033   80.9001  220.7646 H   0  0  0  0  0  0  0  0  0  0  0  0
  1  2  1  0
  2  3  2  0
  3  4  1  0
  4  5  2  0
  5  6  1  0
  6  7  2  0
  6  8  1  0
  5  9  1  0
  9 10  1  0
 10 11  2  0
 11 12  1  0
 12 13  2  0
 13 14  1  0
 14 15  2  0
 15 16  1  0
 16 17  1  0
 17 18  2  0
 18 19  1  0
 19 20  2  0
 20 21  1  0
 21 22  2  0
  8  2  1  0
 15 10  1  0
 22 17  1  0
 16  4  1  0
  1 23  1  0
  1 24  1  0
  1 25  1  0
  3 26  1  0
  9 27  1  0
  9 28  1  0
 11 29  1  0
 12 30  1  0
 13 31  1  0
 14 32  1  0
 16 33  1  6
 18 34  1  0
 19 35  1  0
 20 36  1  0
 21 37  1  0
 22 38  1  0
M  END
>  <UniqueID>  (52) 
18

>  <SMILES>  (52) 
Cc1cc2c(c(=O)o1)Cc1ccccc1[C@H]2c1ccccc1

>  <Energy>  (52) 
47.71909750563092

>  <Genealogy>  (52) 
Cc1cc2c(c(=O)o1)Cc1ccccc1[C@H]2c1ccccc1 (chirality)
Cc1cc2c(c(=O)o1)Cc1ccccc1[C@H]2c1ccccc1 (3D coordinates assigned)
Cc1cc2c(c(=O)o1)Cc1ccccc1[C@H]2c1ccccc1 (nonaromatic ring conformer: 47.71909750563092 kcal/mol)

>  <smiles>  (52) 
Cc1cc2c(c(=O)o1)Cc1ccccc1C2c1ccccc1

>  <score_type>  (52) 
oracle

>  <origin>  (52) 
autodockgpu

>  <m_score__min__energy>  (52) 
-6.7800000000000002

>  <m_primary>  (52) 
energy

>  <meeko>  (52) 
{"free_energy": -6.77, "intermolecular_energy": -7.07, "internal_energy": -0.77, "cluster_size": 20, "cluster_id": 1, "rank_in_cluster": 20}

>  <energy>  (52) 
-6.77

>  <cluster_rmsd>  (52) 
0.03

>  <rmsd>  (52) 
270.27

>  <cluster>  (52) 
1

$$$$
ZZFUSXOZLWDLQL-LJQANCHMNA-N
     RDKit          3D

 38 41  0  0  0  0  0  0  0  0999 V2000
  143.6560   75.2510  219.4170 C   0  0  0  0  0  0  0  0  0  0  0  0
  142.4240   75.4840  220.2300 C   0  0  0  0  0  0  0  0  0  0  0  0
  141.8700   76.7650  220.3150 C   0  0  0  0  0  0  0  0  0  0  0  0
  140.7130   76.9610  221.0810 C   0  0  0  0  0  0  0  0  0  0  0  0
  140.1380   75.8600  221.7430 C   0  0  0  0  0  0  0  0  0  0  0  0
  140.7690   74.6060  221.6220 C   0  0  0  0  0  0  0  0  0  0  0  0
  140.3080   73.5970  222.2190 O   0  0  0  0  0  0  0  0  0  0  0  0
  141.8640   74.4700  220.8790 O   0  0  0  0  0  0  0  0  0  0  0  0
  138.9210   76.0200  222.6240 C   0  0  0  0  0  0  0  0  0  0  0  0
  138.1230   77.2630  222.3270 C   0  0  0  0  0  0  0  0  0  0  0  0
  136.7950   77.3400  222.7780 C   0  0  0  0  0  0  0  0  0  0  0  0
  136.0370   78.4920  222.5570 C   0  0  0  0  0  0  0  0  0  0  0  0
  136.6020   79.5830  221.8960 C   0  0  0  0  0  0  0  0  0  0  0  0
  137.9260   79.5260  221.4560 C   0  0  0  0  0  0  0  0  0  0  0  0
  138.6980   78.3700  221.6650 C   0  0  0  0  0  0  0  0  0  0  0  0
  140.1390   78.3550  221.2050 C   0  0  1  0  0  0  0  0  0  0  0  0
  141.0000   79.2050  222.1190 C   0  0  0  0  0  0  0  0  0  0  0  0
  141.4050   78.7050  223.3700 C   0  0  0  0  0  0  0  0  0  0  0  0
  142.1980   79.4830  224.2190 C   0  0  0  0  0  0  0  0  0  0  0  0
  142.5930   80.7660  223.8300 C   0  0  0  0  0  0  0  0  0  0  0  0
  142.1970   81.2730  222.5910 C   0  0  0  0  0  0  0  0  0  0  0  0
  141.4050   80.4990  221.7370 C   0  0  0  0  0  0  0  0  0  0  0  0
  144.5127   75.0890  220.0877 H   0  0  0  0  0  0  0  0  0  0  0  0
  143.5142   74.3638  218.7824 H   0  0  0  0  0  0  0  0  0  0  0  0
  143.8480   76.1288  218.7824 H   0  0  0  0  0  0  0  0  0  0  0  0
  142.3370   77.6092  219.7867 H   0  0  0  0  0  0  0  0  0  0  0  0
  138.2696   75.1454  222.4800 H   0  0  0  0  0  0  0  0  0  0  0  0
  139.2807   76.1064  223.6599 H   0  0  0  0  0  0  0  0  0  0  0  0
  136.3486   76.4865  223.3093 H   0  0  0  0  0  0  0  0  0  0  0  0
  134.9943   78.5392  222.9042 H   0  0  0  0  0  0  0  0  0  0  0  0
  136.0037   80.4893  221.7212 H   0  0  0  0  0  0  0  0  0  0  0  0
  138.3682   80.3922  220.9420 H   0  0  0  0  0  0  0  0  0  0  0  0
  140.1455   78.7858  220.1929 H   0  0  0  0  0  0  0  0  0  0  0  0
  141.0961   77.6964  223.6820 H   0  0  0  0  0  0  0  0  0  0  0  0
  142.5116   79.0845  225.1951 H   0  0  0  0  0  0  0  0  0  0  0  0
  143.2160   81.3764  224.5002 H   0  0  0  0  0  0  0  0  0  0  0  0
  142.5085   82.2829  222.2860 H   0  0  0  0  0  0  0  0  0  0  0  0
  141.0965   80.9029  220.7614 H   0  0  0  0  0  0  0  0  0  0  0  0
  1  2  1  0
  2  3  2  0
  3  4  1  0
  4  5  2  0
  5  6  1  0
  6  7  2  0
  6  8  1  0
  5  9  1  0
  9 10  1  0
 10 11  2  0
 11 12  1  0
 12 13  2  0
 13 14  1  0
 14 15  2  0
 15 16  1  0
 16 17  1  0
 17 18  2  0
 18 19  1  0
 19 20  2  0
 20 21  1  0
 21 22  2  0
  8  2  1  0
 15 10  1  0
 22 17  1  0
 16  4  1  0
  1 23  1  0
  1 24  1  0
  1 25  1  0
  3 26  1  0
  9 27  1  0
  9 28  1  0
 11 29  1  0
 12 30  1  0
 13 31  1  0
 14 32  1  0
 16 33  1  6
 18 34  1  0
 19 35  1  0
 20 36  1  0
 21 37  1  0
 22 38  1  0
M  END
>  <UniqueID>  (53) 
18

>  <SMILES>  (53) 
Cc1cc2c(c(=O)o1)Cc1ccccc1[C@H]2c1ccccc1

>  <Energy>  (53) 
47.71909750563092

>  <Genealogy>  (53) 
Cc1cc2c(c(=O)o1)Cc1ccccc1[C@H]2c1ccccc1 (chirality)
Cc1cc2c(c(=O)o1)Cc1ccccc1[C@H]2c1ccccc1 (3D coordinates assigned)
Cc1cc2c(c(=O)o1)Cc1ccccc1[C@H]2c1ccccc1 (nonaromatic ring conformer: 47.71909750563092 kcal/mol)

>  <smiles>  (53) 
Cc1cc2c(c(=O)o1)Cc1ccccc1C2c1ccccc1

>  <score_type>  (53) 
oracle

>  <origin>  (53) 
autodockgpu

>  <m_score__min__energy>  (53) 
-6.7800000000000002

>  <m_primary>  (53) 
energy

>  <meeko>  (53) 
{"free_energy": -6.77, "intermolecular_energy": -7.07, "internal_energy": -0.77, "cluster_size": 20, "cluster_id": 1, "rank_in_cluster": 16}

>  <energy>  (53) 
-6.77

>  <cluster_rmsd>  (53) 
0.02

>  <rmsd>  (53) 
270.28

>  <cluster>  (53) 
1

$$$$
ZZFUSXOZLWDLQL-LJQANCHMNA-N
     RDKit          3D

 38 41  0  0  0  0  0  0  0  0999 V2000
  143.6810   75.2740  219.3960 C   0  0  0  0  0  0  0  0  0  0  0  0
  142.4480   75.5000  220.2090 C   0  0  0  0  0  0  0  0  0  0  0  0
  141.8890   76.7780  220.3000 C   0  0  0  0  0  0  0  0  0  0  0  0
  140.7310   76.9670  221.0660 C   0  0  0  0  0  0  0  0  0  0  0  0
  140.1600   75.8610  221.7230 C   0  0  0  0  0  0  0  0  0  0  0  0
  140.7960   74.6100  221.5970 C   0  0  0  0  0  0  0  0  0  0  0  0
  140.3380   73.5960  222.1900 O   0  0  0  0  0  0  0  0  0  0  0  0
  141.8910   74.4810  220.8550 O   0  0  0  0  0  0  0  0  0  0  0  0
  138.9420   76.0130  222.6040 C   0  0  0  0  0  0  0  0  0  0  0  0
  138.1400   77.2540  222.3120 C   0  0  0  0  0  0  0  0  0  0  0  0
  136.8110   77.3240  222.7630 C   0  0  0  0  0  0  0  0  0  0  0  0
  136.0490   78.4750  222.5460 C   0  0  0  0  0  0  0  0  0  0  0  0
  136.6090   79.5700  221.8900 C   0  0  0  0  0  0  0  0  0  0  0  0
  137.9340   79.5200  221.4500 C   0  0  0  0  0  0  0  0  0  0  0  0
  138.7100   78.3660  221.6550 C   0  0  0  0  0  0  0  0  0  0  0  0
  140.1520   78.3590  221.1950 C   0  0  1  0  0  0  0  0  0  0  0  0
  141.0090   79.2080  222.1130 C   0  0  0  0  0  0  0  0  0  0  0  0
  141.4110   78.7060  223.3640 C   0  0  0  0  0  0  0  0  0  0  0  0
  142.2010   79.4840  224.2160 C   0  0  0  0  0  0  0  0  0  0  0  0
  142.5960   80.7680  223.8310 C   0  0  0  0  0  0  0  0  0  0  0  0
  142.2020   81.2760  222.5910 C   0  0  0  0  0  0  0  0  0  0  0  0
  141.4130   80.5030  221.7340 C   0  0  0  0  0  0  0  0  0  0  0  0
  144.5387   75.1168  220.0666 H   0  0  0  0  0  0  0  0  0  0  0  0
  143.5441   74.3860  218.7614 H   0  0  0  0  0  0  0  0  0  0  0  0
  143.8680   76.1528  218.7614 H   0  0  0  0  0  0  0  0  0  0  0  0
  142.3533   77.6263  219.7758 H   0  0  0  0  0  0  0  0  0  0  0  0
  138.2937   75.1367  222.4560 H   0  0  0  0  0  0  0  0  0  0  0  0
  139.3009   76.0963  223.6405 H   0  0  0  0  0  0  0  0  0  0  0  0
  136.3674   76.4667  223.2906 H   0  0  0  0  0  0  0  0  0  0  0  0
  135.0061   78.5170  222.8932 H   0  0  0  0  0  0  0  0  0  0  0  0
  136.0070   80.4745  221.7186 H   0  0  0  0  0  0  0  0  0  0  0  0
  138.3731   80.3898  220.9395 H   0  0  0  0  0  0  0  0  0  0  0  0
  140.1577   78.7944  220.1849 H   0  0  0  0  0  0  0  0  0  0  0  0
  141.1024   77.6966  223.6735 H   0  0  0  0  0  0  0  0  0  0  0  0
  142.5125   79.0841  225.1923 H   0  0  0  0  0  0  0  0  0  0  0  0
  143.2166   81.3780  224.5038 H   0  0  0  0  0  0  0  0  0  0  0  0
  142.5132   82.2866  222.2881 H   0  0  0  0  0  0  0  0  0  0  0  0
  141.1061   80.9083  220.7585 H   0  0  0  0  0  0  0  0  0  0  0  0
  1  2  1  0
  2  3  2  0
  3  4  1  0
  4  5  2  0
  5  6  1  0
  6  7  2  0
  6  8  1  0
  5  9  1  0
  9 10  1  0
 10 11  2  0
 11 12  1  0
 12 13  2  0
 13 14  1  0
 14 15  2  0
 15 16  1  0
 16 17  1  0
 17 18  2  0
 18 19  1  0
 19 20  2  0
 20 21  1  0
 21 22  2  0
  8  2  1  0
 15 10  1  0
 22 17  1  0
 16  4  1  0
  1 23  1  0
  1 24  1  0
  1 25  1  0
  3 26  1  0
  9 27  1  0
  9 28  1  0
 11 29  1  0
 12 30  1  0
 13 31  1  0
 14 32  1  0
 16 33  1  6
 18 34  1  0
 19 35  1  0
 20 36  1  0
 21 37  1  0
 22 38  1  0
M  END
>  <UniqueID>  (54) 
18

>  <SMILES>  (54) 
Cc1cc2c(c(=O)o1)Cc1ccccc1[C@H]2c1ccccc1

>  <Energy>  (54) 
47.71909750563092

>  <Genealogy>  (54) 
Cc1cc2c(c(=O)o1)Cc1ccccc1[C@H]2c1ccccc1 (chirality)
Cc1cc2c(c(=O)o1)Cc1ccccc1[C@H]2c1ccccc1 (3D coordinates assigned)
Cc1cc2c(c(=O)o1)Cc1ccccc1[C@H]2c1ccccc1 (nonaromatic ring conformer: 47.71909750563092 kcal/mol)

>  <smiles>  (54) 
Cc1cc2c(c(=O)o1)Cc1ccccc1C2c1ccccc1

>  <score_type>  (54) 
oracle

>  <origin>  (54) 
autodockgpu

>  <m_score__min__energy>  (54) 
-6.7800000000000002

>  <m_primary>  (54) 
energy

>  <meeko>  (54) 
{"free_energy": -6.78, "intermolecular_energy": -7.08, "internal_energy": -0.77, "cluster_size": 20, "cluster_id": 1, "rank_in_cluster": 1}

>  <energy>  (54) 
-6.77

>  <cluster_rmsd>  (54) 
0.02

>  <rmsd>  (54) 
270.27

>  <cluster>  (54) 
1

$$$$
ZZFUSXOZLWDLQL-LJQANCHMNA-N
     RDKit          3D

 38 41  0  0  0  0  0  0  0  0999 V2000
  143.6740   75.2890  219.3860 C   0  0  0  0  0  0  0  0  0  0  0  0
  142.4430   75.5130  220.2030 C   0  0  0  0  0  0  0  0  0  0  0  0
  141.8810   76.7900  220.2940 C   0  0  0  0  0  0  0  0  0  0  0  0
  140.7250   76.9770  221.0640 C   0  0  0  0  0  0  0  0  0  0  0  0
  140.1590   75.8710  221.7240 C   0  0  0  0  0  0  0  0  0  0  0  0
  140.7980   74.6210  221.5980 C   0  0  0  0  0  0  0  0  0  0  0  0
  140.3440   73.6080  222.1940 O   0  0  0  0  0  0  0  0  0  0  0  0
  141.8910   74.4940  220.8520 O   0  0  0  0  0  0  0  0  0  0  0  0
  138.9440   76.0210  222.6090 C   0  0  0  0  0  0  0  0  0  0  0  0
  138.1380   77.2600  222.3180 C   0  0  0  0  0  0  0  0  0  0  0  0
  136.8100   77.3280  222.7730 C   0  0  0  0  0  0  0  0  0  0  0  0
  136.0450   78.4770  222.5570 C   0  0  0  0  0  0  0  0  0  0  0  0
  136.6010   79.5720  221.8980 C   0  0  0  0  0  0  0  0  0  0  0  0
  137.9240   79.5250  221.4530 C   0  0  0  0  0  0  0  0  0  0  0  0
  138.7030   78.3730  221.6570 C   0  0  0  0  0  0  0  0  0  0  0  0
  140.1440   78.3680  221.1930 C   0  0  1  0  0  0  0  0  0  0  0  0
  141.0020   79.2210  222.1060 C   0  0  0  0  0  0  0  0  0  0  0  0
  141.4100   78.7220  223.3570 C   0  0  0  0  0  0  0  0  0  0  0  0
  142.2000   79.5020  224.2050 C   0  0  0  0  0  0  0  0  0  0  0  0
  142.5910   80.7870  223.8170 C   0  0  0  0  0  0  0  0  0  0  0  0
  142.1920   81.2920  222.5780 C   0  0  0  0  0  0  0  0  0  0  0  0
  141.4020   80.5160  221.7250 C   0  0  0  0  0  0  0  0  0  0  0  0
  144.5339   75.1325  220.0539 H   0  0  0  0  0  0  0  0  0  0  0  0
  143.5363   74.4012  218.7513 H   0  0  0  0  0  0  0  0  0  0  0  0
  143.8579   76.1684  218.7513 H   0  0  0  0  0  0  0  0  0  0  0  0
  142.3412   77.6388  219.7669 H   0  0  0  0  0  0  0  0  0  0  0  0
  138.2973   75.1430  222.4643 H   0  0  0  0  0  0  0  0  0  0  0  0
  139.3062   76.1063  223.6441 H   0  0  0  0  0  0  0  0  0  0  0  0
  136.3697   76.4705  223.3029 H   0  0  0  0  0  0  0  0  0  0  0  0
  135.0031   78.5174  222.9074 H   0  0  0  0  0  0  0  0  0  0  0  0
  135.9965   80.4752  221.7280 H   0  0  0  0  0  0  0  0  0  0  0  0
  138.3591   80.3951  220.9396 H   0  0  0  0  0  0  0  0  0  0  0  0
  140.1462   78.8016  220.1821 H   0  0  0  0  0  0  0  0  0  0  0  0
  141.1052   77.7121  223.6688 H   0  0  0  0  0  0  0  0  0  0  0  0
  142.5153   79.1040  225.1808 H   0  0  0  0  0  0  0  0  0  0  0  0
  143.2122   81.3994  224.4871 H   0  0  0  0  0  0  0  0  0  0  0  0
  142.5000   82.3028  222.2724 H   0  0  0  0  0  0  0  0  0  0  0  0
  141.0909   80.9196  220.7501 H   0  0  0  0  0  0  0  0  0  0  0  0
  1  2  1  0
  2  3  2  0
  3  4  1  0
  4  5  2  0
  5  6  1  0
  6  7  2  0
  6  8  1  0
  5  9  1  0
  9 10  1  0
 10 11  2  0
 11 12  1  0
 12 13  2  0
 13 14  1  0
 14 15  2  0
 15 16  1  0
 16 17  1  0
 17 18  2  0
 18 19  1  0
 19 20  2  0
 20 21  1  0
 21 22  2  0
  8  2  1  0
 15 10  1  0
 22 17  1  0
 16  4  1  0
  1 23  1  0
  1 24  1  0
  1 25  1  0
  3 26  1  0
  9 27  1  0
  9 28  1  0
 11 29  1  0
 12 30  1  0
 13 31  1  0
 14 32  1  0
 16 33  1  6
 18 34  1  0
 19 35  1  0
 20 36  1  0
 21 37  1  0
 22 38  1  0
M  END
>  <UniqueID>  (55) 
18

>  <SMILES>  (55) 
Cc1cc2c(c(=O)o1)Cc1ccccc1[C@H]2c1ccccc1

>  <Energy>  (55) 
47.71909750563092

>  <Genealogy>  (55) 
Cc1cc2c(c(=O)o1)Cc1ccccc1[C@H]2c1ccccc1 (chirality)
Cc1cc2c(c(=O)o1)Cc1ccccc1[C@H]2c1ccccc1 (3D coordinates assigned)
Cc1cc2c(c(=O)o1)Cc1ccccc1[C@H]2c1ccccc1 (nonaromatic ring conformer: 47.71909750563092 kcal/mol)

>  <smiles>  (55) 
Cc1cc2c(c(=O)o1)Cc1ccccc1C2c1ccccc1

>  <score_type>  (55) 
oracle

>  <origin>  (55) 
autodockgpu

>  <m_score__min__energy>  (55) 
-6.7800000000000002

>  <m_primary>  (55) 
energy

>  <meeko>  (55) 
{"free_energy": -6.77, "intermolecular_energy": -7.07, "internal_energy": -0.77, "cluster_size": 20, "cluster_id": 1, "rank_in_cluster": 14}

>  <energy>  (55) 
-6.77

>  <cluster_rmsd>  (55) 
0.02

>  <rmsd>  (55) 
270.27

>  <cluster>  (55) 
1

$$$$
ZZFUSXOZLWDLQL-LJQANCHMNA-N
     RDKit          3D

 38 41  0  0  0  0  0  0  0  0999 V2000
  143.6760   75.2790  219.3940 C   0  0  0  0  0  0  0  0  0  0  0  0
  142.4440   75.5010  220.2120 C   0  0  0  0  0  0  0  0  0  0  0  0
  141.8810   76.7780  220.3020 C   0  0  0  0  0  0  0  0  0  0  0  0
  140.7250   76.9630  221.0720 C   0  0  0  0  0  0  0  0  0  0  0  0
  140.1600   75.8570  221.7320 C   0  0  0  0  0  0  0  0  0  0  0  0
  140.8000   74.6080  221.6060 C   0  0  0  0  0  0  0  0  0  0  0  0
  140.3470   73.5930  222.2010 O   0  0  0  0  0  0  0  0  0  0  0  0
  141.8930   74.4810  220.8600 O   0  0  0  0  0  0  0  0  0  0  0  0
  138.9440   76.0050  222.6170 C   0  0  0  0  0  0  0  0  0  0  0  0
  138.1370   77.2430  222.3260 C   0  0  0  0  0  0  0  0  0  0  0  0
  136.8090   77.3100  222.7810 C   0  0  0  0  0  0  0  0  0  0  0  0
  136.0420   78.4570  222.5650 C   0  0  0  0  0  0  0  0  0  0  0  0
  136.5970   79.5540  221.9050 C   0  0  0  0  0  0  0  0  0  0  0  0
  137.9210   79.5070  221.4620 C   0  0  0  0  0  0  0  0  0  0  0  0
  138.7010   78.3560  221.6660 C   0  0  0  0  0  0  0  0  0  0  0  0
  140.1420   78.3530  221.2010 C   0  0  1  0  0  0  0  0  0  0  0  0
  140.9990   79.2070  222.1150 C   0  0  0  0  0  0  0  0  0  0  0  0
  141.4010   78.7110  223.3680 C   0  0  0  0  0  0  0  0  0  0  0  0
  142.1910   79.4920  224.2170 C   0  0  0  0  0  0  0  0  0  0  0  0
  142.5860   80.7740  223.8260 C   0  0  0  0  0  0  0  0  0  0  0  0
  142.1920   81.2770  222.5840 C   0  0  0  0  0  0  0  0  0  0  0  0
  141.4030   80.5000  221.7310 C   0  0  0  0  0  0  0  0  0  0  0  0
  144.5364   75.1240  220.0616 H   0  0  0  0  0  0  0  0  0  0  0  0
  143.5396   74.3910  218.7593 H   0  0  0  0  0  0  0  0  0  0  0  0
  143.8582   76.1588  218.7593 H   0  0  0  0  0  0  0  0  0  0  0  0
  142.3402   77.6271  219.7746 H   0  0  0  0  0  0  0  0  0  0  0  0
  138.2984   75.1263  222.4717 H   0  0  0  0  0  0  0  0  0  0  0  0
  139.3055   76.0900  223.6524 H   0  0  0  0  0  0  0  0  0  0  0  0
  136.3701   76.4521  223.3115 H   0  0  0  0  0  0  0  0  0  0  0  0
  135.0000   78.4956  222.9153 H   0  0  0  0  0  0  0  0  0  0  0  0
  135.9916   80.4563  221.7334 H   0  0  0  0  0  0  0  0  0  0  0  0
  138.3563   80.3776  220.9496 H   0  0  0  0  0  0  0  0  0  0  0  0
  140.1434   78.7865  220.1900 H   0  0  0  0  0  0  0  0  0  0  0  0
  141.0922   77.7030  223.6819 H   0  0  0  0  0  0  0  0  0  0  0  0
  142.5023   79.0963  225.1950 H   0  0  0  0  0  0  0  0  0  0  0  0
  143.2069   81.3868  224.4960 H   0  0  0  0  0  0  0  0  0  0  0  0
  142.5031   82.2863  222.2766 H   0  0  0  0  0  0  0  0  0  0  0  0
  141.0959   80.9011  220.7539 H   0  0  0  0  0  0  0  0  0  0  0  0
  1  2  1  0
  2  3  2  0
  3  4  1  0
  4  5  2  0
  5  6  1  0
  6  7  2  0
  6  8  1  0
  5  9  1  0
  9 10  1  0
 10 11  2  0
 11 12  1  0
 12 13  2  0
 13 14  1  0
 14 15  2  0
 15 16  1  0
 16 17  1  0
 17 18  2  0
 18 19  1  0
 19 20  2  0
 20 21  1  0
 21 22  2  0
  8  2  1  0
 15 10  1  0
 22 17  1  0
 16  4  1  0
  1 23  1  0
  1 24  1  0
  1 25  1  0
  3 26  1  0
  9 27  1  0
  9 28  1  0
 11 29  1  0
 12 30  1  0
 13 31  1  0
 14 32  1  0
 16 33  1  6
 18 34  1  0
 19 35  1  0
 20 36  1  0
 21 37  1  0
 22 38  1  0
M  END
>  <UniqueID>  (56) 
18

>  <SMILES>  (56) 
Cc1cc2c(c(=O)o1)Cc1ccccc1[C@H]2c1ccccc1

>  <Energy>  (56) 
47.71909750563092

>  <Genealogy>  (56) 
Cc1cc2c(c(=O)o1)Cc1ccccc1[C@H]2c1ccccc1 (chirality)
Cc1cc2c(c(=O)o1)Cc1ccccc1[C@H]2c1ccccc1 (3D coordinates assigned)
Cc1cc2c(c(=O)o1)Cc1ccccc1[C@H]2c1ccccc1 (nonaromatic ring conformer: 47.71909750563092 kcal/mol)

>  <smiles>  (56) 
Cc1cc2c(c(=O)o1)Cc1ccccc1C2c1ccccc1

>  <score_type>  (56) 
oracle

>  <origin>  (56) 
autodockgpu

>  <m_score__min__energy>  (56) 
-6.7800000000000002

>  <m_primary>  (56) 
energy

>  <meeko>  (56) 
{"free_energy": -6.77, "intermolecular_energy": -7.07, "internal_energy": -0.77, "cluster_size": 20, "cluster_id": 1, "rank_in_cluster": 15}

>  <energy>  (56) 
-6.77

>  <cluster_rmsd>  (56) 
0.02

>  <rmsd>  (56) 
270.27

>  <cluster>  (56) 
1

$$$$
ZZFUSXOZLWDLQL-LJQANCHMNA-N
     RDKit          3D

 38 41  0  0  0  0  0  0  0  0999 V2000
  143.6850   75.2800  219.4090 C   0  0  0  0  0  0  0  0  0  0  0  0
  142.4510   75.5060  220.2210 C   0  0  0  0  0  0  0  0  0  0  0  0
  141.8900   76.7830  220.3090 C   0  0  0  0  0  0  0  0  0  0  0  0
  140.7310   76.9720  221.0740 C   0  0  0  0  0  0  0  0  0  0  0  0
  140.1610   75.8670  221.7320 C   0  0  0  0  0  0  0  0  0  0  0  0
  140.7990   74.6160  221.6090 C   0  0  0  0  0  0  0  0  0  0  0  0
  140.3410   73.6030  222.2030 O   0  0  0  0  0  0  0  0  0  0  0  0
  141.8950   74.4870  220.8670 O   0  0  0  0  0  0  0  0  0  0  0  0
  138.9420   76.0180  222.6130 C   0  0  0  0  0  0  0  0  0  0  0  0
  138.1390   77.2580  222.3180 C   0  0  0  0  0  0  0  0  0  0  0  0
  136.8090   77.3280  222.7670 C   0  0  0  0  0  0  0  0  0  0  0  0
  136.0460   78.4770  222.5480 C   0  0  0  0  0  0  0  0  0  0  0  0
  136.6060   79.5720  221.8900 C   0  0  0  0  0  0  0  0  0  0  0  0
  137.9310   79.5220  221.4520 C   0  0  0  0  0  0  0  0  0  0  0  0
  138.7080   78.3700  221.6590 C   0  0  0  0  0  0  0  0  0  0  0  0
  140.1510   78.3630  221.2010 C   0  0  1  0  0  0  0  0  0  0  0  0
  141.0060   79.2150  222.1180 C   0  0  0  0  0  0  0  0  0  0  0  0
  141.4100   78.7150  223.3690 C   0  0  0  0  0  0  0  0  0  0  0  0
  142.1980   79.4950  224.2200 C   0  0  0  0  0  0  0  0  0  0  0  0
  142.5900   80.7790  223.8350 C   0  0  0  0  0  0  0  0  0  0  0  0
  142.1940   81.2860  222.5950 C   0  0  0  0  0  0  0  0  0  0  0  0
  141.4060   80.5110  221.7390 C   0  0  0  0  0  0  0  0  0  0  0  0
  144.5421   75.1230  220.0804 H   0  0  0  0  0  0  0  0  0  0  0  0
  143.5488   74.3919  218.7744 H   0  0  0  0  0  0  0  0  0  0  0  0
  143.8724   76.1588  218.7744 H   0  0  0  0  0  0  0  0  0  0  0  0
  142.3533   77.6309  219.7833 H   0  0  0  0  0  0  0  0  0  0  0  0
  138.2950   75.1407  222.4659 H   0  0  0  0  0  0  0  0  0  0  0  0
  139.2998   76.1025  223.6498 H   0  0  0  0  0  0  0  0  0  0  0  0
  136.3656   76.4710  223.2951 H   0  0  0  0  0  0  0  0  0  0  0  0
  135.0029   78.5185  222.8946 H   0  0  0  0  0  0  0  0  0  0  0  0
  136.0034   80.4756  221.7160 H   0  0  0  0  0  0  0  0  0  0  0  0
  138.3699   80.3915  220.9408 H   0  0  0  0  0  0  0  0  0  0  0  0
  140.1579   78.7964  220.1900 H   0  0  0  0  0  0  0  0  0  0  0  0
  141.1042   77.7049  223.6792 H   0  0  0  0  0  0  0  0  0  0  0  0
  142.5105   79.0962  225.1964 H   0  0  0  0  0  0  0  0  0  0  0  0
  143.2098   81.3903  224.5074 H   0  0  0  0  0  0  0  0  0  0  0  0
  142.5029   82.2972  222.2915 H   0  0  0  0  0  0  0  0  0  0  0  0
  141.0967   80.9157  220.7640 H   0  0  0  0  0  0  0  0  0  0  0  0
  1  2  1  0
  2  3  2  0
  3  4  1  0
  4  5  2  0
  5  6  1  0
  6  7  2  0
  6  8  1  0
  5  9  1  0
  9 10  1  0
 10 11  2  0
 11 12  1  0
 12 13  2  0
 13 14  1  0
 14 15  2  0
 15 16  1  0
 16 17  1  0
 17 18  2  0
 18 19  1  0
 19 20  2  0
 20 21  1  0
 21 22  2  0
  8  2  1  0
 15 10  1  0
 22 17  1  0
 16  4  1  0
  1 23  1  0
  1 24  1  0
  1 25  1  0
  3 26  1  0
  9 27  1  0
  9 28  1  0
 11 29  1  0
 12 30  1  0
 13 31  1  0
 14 32  1  0
 16 33  1  6
 18 34  1  0
 19 35  1  0
 20 36  1  0
 21 37  1  0
 22 38  1  0
M  END
>  <UniqueID>  (57) 
18

>  <SMILES>  (57) 
Cc1cc2c(c(=O)o1)Cc1ccccc1[C@H]2c1ccccc1

>  <Energy>  (57) 
47.71909750563092

>  <Genealogy>  (57) 
Cc1cc2c(c(=O)o1)Cc1ccccc1[C@H]2c1ccccc1 (chirality)
Cc1cc2c(c(=O)o1)Cc1ccccc1[C@H]2c1ccccc1 (3D coordinates assigned)
Cc1cc2c(c(=O)o1)Cc1ccccc1[C@H]2c1ccccc1 (nonaromatic ring conformer: 47.71909750563092 kcal/mol)

>  <smiles>  (57) 
Cc1cc2c(c(=O)o1)Cc1ccccc1C2c1ccccc1

>  <score_type>  (57) 
oracle

>  <origin>  (57) 
autodockgpu

>  <m_score__min__energy>  (57) 
-6.7800000000000002

>  <m_primary>  (57) 
energy

>  <meeko>  (57) 
{"free_energy": -6.78, "intermolecular_energy": -7.07, "internal_energy": -0.77, "cluster_size": 20, "cluster_id": 1, "rank_in_cluster": 4}

>  <energy>  (57) 
-6.77

>  <cluster_rmsd>  (57) 
0.03

>  <rmsd>  (57) 
270.27

>  <cluster>  (57) 
1

$$$$
ZZFUSXOZLWDLQL-LJQANCHMNA-N
     RDKit          3D

 38 41  0  0  0  0  0  0  0  0999 V2000
  143.6410   75.2900  219.3620 C   0  0  0  0  0  0  0  0  0  0  0  0
  142.4150   75.5140  220.1860 C   0  0  0  0  0  0  0  0  0  0  0  0
  141.8570   76.7910  220.2840 C   0  0  0  0  0  0  0  0  0  0  0  0
  140.7050   76.9780  221.0610 C   0  0  0  0  0  0  0  0  0  0  0  0
  140.1390   75.8710  221.7190 C   0  0  0  0  0  0  0  0  0  0  0  0
  140.7740   74.6200  221.5840 C   0  0  0  0  0  0  0  0  0  0  0  0
  140.3200   73.6050  222.1770 O   0  0  0  0  0  0  0  0  0  0  0  0
  141.8630   74.4930  220.8320 O   0  0  0  0  0  0  0  0  0  0  0  0
  138.9280   76.0200  222.6100 C   0  0  0  0  0  0  0  0  0  0  0  0
  138.1240   77.2620  222.3280 C   0  0  0  0  0  0  0  0  0  0  0  0
  136.7990   77.3320  222.7890 C   0  0  0  0  0  0  0  0  0  0  0  0
  136.0350   78.4830  222.5820 C   0  0  0  0  0  0  0  0  0  0  0  0
  136.5920   79.5810  221.9250 C   0  0  0  0  0  0  0  0  0  0  0  0
  137.9130   79.5310  221.4750 C   0  0  0  0  0  0  0  0  0  0  0  0
  138.6900   78.3760  221.6700 C   0  0  0  0  0  0  0  0  0  0  0  0
  140.1280   78.3700  221.1990 C   0  0  1  0  0  0  0  0  0  0  0  0
  140.9930   79.2160  222.1120 C   0  0  0  0  0  0  0  0  0  0  0  0
  141.3960   78.7150  223.3630 C   0  0  0  0  0  0  0  0  0  0  0  0
  142.1920   79.4890  224.2120 C   0  0  0  0  0  0  0  0  0  0  0  0
  142.5940   80.7700  223.8230 C   0  0  0  0  0  0  0  0  0  0  0  0
  142.1990   81.2780  222.5840 C   0  0  0  0  0  0  0  0  0  0  0  0
  141.4030   80.5080  221.7300 C   0  0  0  0  0  0  0  0  0  0  0  0
  144.5045   75.1322  220.0249 H   0  0  0  0  0  0  0  0  0  0  0  0
  143.4991   74.4029  218.7272 H   0  0  0  0  0  0  0  0  0  0  0  0
  143.8220   76.1699  218.7272 H   0  0  0  0  0  0  0  0  0  0  0  0
  142.3164   77.6405  219.7573 H   0  0  0  0  0  0  0  0  0  0  0  0
  138.2786   75.1442  222.4642 H   0  0  0  0  0  0  0  0  0  0  0  0
  139.2948   76.0998  223.6440 H   0  0  0  0  0  0  0  0  0  0  0  0
  136.3593   76.4733  223.3174 H   0  0  0  0  0  0  0  0  0  0  0  0
  134.9946   78.5239  222.9368 H   0  0  0  0  0  0  0  0  0  0  0  0
  135.9898   80.4869  221.7614 H   0  0  0  0  0  0  0  0  0  0  0  0
  138.3489   80.4022  220.9640 H   0  0  0  0  0  0  0  0  0  0  0  0
  140.1260   78.8089  220.1903 H   0  0  0  0  0  0  0  0  0  0  0  0
  141.0827   77.7078  223.6751 H   0  0  0  0  0  0  0  0  0  0  0  0
  142.5028   79.0892  225.1885 H   0  0  0  0  0  0  0  0  0  0  0  0
  143.2210   81.3773  224.4924 H   0  0  0  0  0  0  0  0  0  0  0  0
  142.5147   82.2865  222.2787 H   0  0  0  0  0  0  0  0  0  0  0  0
  141.0956   80.9136  220.7548 H   0  0  0  0  0  0  0  0  0  0  0  0
  1  2  1  0
  2  3  2  0
  3  4  1  0
  4  5  2  0
  5  6  1  0
  6  7  2  0
  6  8  1  0
  5  9  1  0
  9 10  1  0
 10 11  2  0
 11 12  1  0
 12 13  2  0
 13 14  1  0
 14 15  2  0
 15 16  1  0
 16 17  1  0
 17 18  2  0
 18 19  1  0
 19 20  2  0
 20 21  1  0
 21 22  2  0
  8  2  1  0
 15 10  1  0
 22 17  1  0
 16  4  1  0
  1 23  1  0
  1 24  1  0
  1 25  1  0
  3 26  1  0
  9 27  1  0
  9 28  1  0
 11 29  1  0
 12 30  1  0
 13 31  1  0
 14 32  1  0
 16 33  1  6
 18 34  1  0
 19 35  1  0
 20 36  1  0
 21 37  1  0
 22 38  1  0
M  END
>  <UniqueID>  (58) 
18

>  <SMILES>  (58) 
Cc1cc2c(c(=O)o1)Cc1ccccc1[C@H]2c1ccccc1

>  <Energy>  (58) 
47.71909750563092

>  <Genealogy>  (58) 
Cc1cc2c(c(=O)o1)Cc1ccccc1[C@H]2c1ccccc1 (chirality)
Cc1cc2c(c(=O)o1)Cc1ccccc1[C@H]2c1ccccc1 (3D coordinates assigned)
Cc1cc2c(c(=O)o1)Cc1ccccc1[C@H]2c1ccccc1 (nonaromatic ring conformer: 47.71909750563092 kcal/mol)

>  <smiles>  (58) 
Cc1cc2c(c(=O)o1)Cc1ccccc1C2c1ccccc1

>  <score_type>  (58) 
oracle

>  <origin>  (58) 
autodockgpu

>  <m_score__min__energy>  (58) 
-6.7800000000000002

>  <m_primary>  (58) 
energy

>  <meeko>  (58) 
{"free_energy": -6.77, "intermolecular_energy": -7.07, "internal_energy": -0.77, "cluster_size": 20, "cluster_id": 1, "rank_in_cluster": 17}

>  <energy>  (58) 
-6.77

>  <cluster_rmsd>  (58) 
0.02

>  <rmsd>  (58) 
270.28

>  <cluster>  (58) 
1

$$$$
ZZFUSXOZLWDLQL-LJQANCHMNA-N
     RDKit          3D

 38 41  0  0  0  0  0  0  0  0999 V2000
  143.6800   75.2880  219.3830 C   0  0  0  0  0  0  0  0  0  0  0  0
  142.4490   75.5070  220.2010 C   0  0  0  0  0  0  0  0  0  0  0  0
  141.8830   76.7820  220.2960 C   0  0  0  0  0  0  0  0  0  0  0  0
  140.7280   76.9640  221.0670 C   0  0  0  0  0  0  0  0  0  0  0  0
  140.1640   75.8540  221.7240 C   0  0  0  0  0  0  0  0  0  0  0  0
  140.8060   74.6070  221.5940 C   0  0  0  0  0  0  0  0  0  0  0  0
  140.3560   73.5900  222.1870 O   0  0  0  0  0  0  0  0  0  0  0  0
  141.8990   74.4840  220.8470 O   0  0  0  0  0  0  0  0  0  0  0  0
  138.9490   75.9980  222.6100 C   0  0  0  0  0  0  0  0  0  0  0  0
  138.1400   77.2360  222.3230 C   0  0  0  0  0  0  0  0  0  0  0  0
  136.8120   77.2990  222.7780 C   0  0  0  0  0  0  0  0  0  0  0  0
  136.0430   78.4460  222.5660 C   0  0  0  0  0  0  0  0  0  0  0  0
  136.5960   79.5450  221.9090 C   0  0  0  0  0  0  0  0  0  0  0  0
  137.9190   79.5020  221.4650 C   0  0  0  0  0  0  0  0  0  0  0  0
  138.7020   78.3520  221.6650 C   0  0  0  0  0  0  0  0  0  0  0  0
  140.1420   78.3520  221.2000 C   0  0  1  0  0  0  0  0  0  0  0  0
  140.9980   79.2050  222.1150 C   0  0  0  0  0  0  0  0  0  0  0  0
  141.4040   78.7050  223.3660 C   0  0  0  0  0  0  0  0  0  0  0  0
  142.1930   79.4850  224.2170 C   0  0  0  0  0  0  0  0  0  0  0  0
  142.5840   80.7700  223.8300 C   0  0  0  0  0  0  0  0  0  0  0  0
  142.1870   81.2770  222.5910 C   0  0  0  0  0  0  0  0  0  0  0  0
  141.3980   80.5010  221.7360 C   0  0  0  0  0  0  0  0  0  0  0  0
  144.5411   75.1348  220.0501 H   0  0  0  0  0  0  0  0  0  0  0  0
  143.5453   74.3997  218.7483 H   0  0  0  0  0  0  0  0  0  0  0  0
  143.8599   76.1682  218.7483 H   0  0  0  0  0  0  0  0  0  0  0  0
  142.3402   77.6334  219.7706 H   0  0  0  0  0  0  0  0  0  0  0  0
  138.3045   75.1189  222.4628 H   0  0  0  0  0  0  0  0  0  0  0  0
  139.3112   76.0807  223.6454 H   0  0  0  0  0  0  0  0  0  0  0  0
  136.3744   76.4385  223.3053 H   0  0  0  0  0  0  0  0  0  0  0  0
  135.0012   78.4823  222.9173 H   0  0  0  0  0  0  0  0  0  0  0  0
  135.9890   80.4468  221.7404 H   0  0  0  0  0  0  0  0  0  0  0  0
  138.3520   80.3750  220.9547 H   0  0  0  0  0  0  0  0  0  0  0  0
  140.1413   78.7876  220.1899 H   0  0  0  0  0  0  0  0  0  0  0  0
  141.0990   77.6947  223.6763 H   0  0  0  0  0  0  0  0  0  0  0  0
  142.5067   79.0865  225.1931 H   0  0  0  0  0  0  0  0  0  0  0  0
  143.2044   81.3818  224.5015 H   0  0  0  0  0  0  0  0  0  0  0  0
  142.4953   82.2882  222.2870 H   0  0  0  0  0  0  0  0  0  0  0  0
  141.0878   80.9055  220.7612 H   0  0  0  0  0  0  0  0  0  0  0  0
  1  2  1  0
  2  3  2  0
  3  4  1  0
  4  5  2  0
  5  6  1  0
  6  7  2  0
  6  8  1  0
  5  9  1  0
  9 10  1  0
 10 11  2  0
 11 12  1  0
 12 13  2  0
 13 14  1  0
 14 15  2  0
 15 16  1  0
 16 17  1  0
 17 18  2  0
 18 19  1  0
 19 20  2  0
 20 21  1  0
 21 22  2  0
  8  2  1  0
 15 10  1  0
 22 17  1  0
 16  4  1  0
  1 23  1  0
  1 24  1  0
  1 25  1  0
  3 26  1  0
  9 27  1  0
  9 28  1  0
 11 29  1  0
 12 30  1  0
 13 31  1  0
 14 32  1  0
 16 33  1  6
 18 34  1  0
 19 35  1  0
 20 36  1  0
 21 37  1  0
 22 38  1  0
M  END
>  <UniqueID>  (59) 
18

>  <SMILES>  (59) 
Cc1cc2c(c(=O)o1)Cc1ccccc1[C@H]2c1ccccc1

>  <Energy>  (59) 
47.71909750563092

>  <Genealogy>  (59) 
Cc1cc2c(c(=O)o1)Cc1ccccc1[C@H]2c1ccccc1 (chirality)
Cc1cc2c(c(=O)o1)Cc1ccccc1[C@H]2c1ccccc1 (3D coordinates assigned)
Cc1cc2c(c(=O)o1)Cc1ccccc1[C@H]2c1ccccc1 (nonaromatic ring conformer: 47.71909750563092 kcal/mol)

>  <smiles>  (59) 
Cc1cc2c(c(=O)o1)Cc1ccccc1C2c1ccccc1

>  <score_type>  (59) 
oracle

>  <origin>  (59) 
autodockgpu

>  <m_score__min__energy>  (59) 
-6.7800000000000002

>  <m_primary>  (59) 
energy

>  <meeko>  (59) 
{"free_energy": -6.77, "intermolecular_energy": -7.07, "internal_energy": -0.77, "cluster_size": 20, "cluster_id": 1, "rank_in_cluster": 7}

>  <energy>  (59) 
-6.77

>  <cluster_rmsd>  (59) 
0.01

>  <rmsd>  (59) 
270.28

>  <cluster>  (59) 
1

$$$$
ZZFUSXOZLWDLQL-LJQANCHMNA-N
     RDKit          3D

 38 41  0  0  0  0  0  0  0  0999 V2000
  143.6860   75.2860  219.3830 C   0  0  0  0  0  0  0  0  0  0  0  0
  142.4540   75.5050  220.2000 C   0  0  0  0  0  0  0  0  0  0  0  0
  141.8890   76.7800  220.2940 C   0  0  0  0  0  0  0  0  0  0  0  0
  140.7330   76.9620  221.0640 C   0  0  0  0  0  0  0  0  0  0  0  0
  140.1690   75.8530  221.7220 C   0  0  0  0  0  0  0  0  0  0  0  0
  140.8120   74.6050  221.5930 C   0  0  0  0  0  0  0  0  0  0  0  0
  140.3610   73.5890  222.1860 O   0  0  0  0  0  0  0  0  0  0  0  0
  141.9050   74.4820  220.8470 O   0  0  0  0  0  0  0  0  0  0  0  0
  138.9540   75.9970  222.6080 C   0  0  0  0  0  0  0  0  0  0  0  0
  138.1440   77.2350  222.3190 C   0  0  0  0  0  0  0  0  0  0  0  0
  136.8160   77.2980  222.7740 C   0  0  0  0  0  0  0  0  0  0  0  0
  136.0480   78.4440  222.5610 C   0  0  0  0  0  0  0  0  0  0  0  0
  136.6010   79.5430  221.9040 C   0  0  0  0  0  0  0  0  0  0  0  0
  137.9240   79.5000  221.4600 C   0  0  0  0  0  0  0  0  0  0  0  0
  138.7070   78.3500  221.6610 C   0  0  0  0  0  0  0  0  0  0  0  0
  140.1470   78.3510  221.1960 C   0  0  1  0  0  0  0  0  0  0  0  0
  141.0030   79.2040  222.1120 C   0  0  0  0  0  0  0  0  0  0  0  0
  141.4030   78.7070  223.3650 C   0  0  0  0  0  0  0  0  0  0  0  0
  142.1920   79.4880  224.2160 C   0  0  0  0  0  0  0  0  0  0  0  0
  142.5870   80.7700  223.8260 C   0  0  0  0  0  0  0  0  0  0  0  0
  142.1950   81.2740  222.5840 C   0  0  0  0  0  0  0  0  0  0  0  0
  141.4070   80.4970  221.7290 C   0  0  0  0  0  0  0  0  0  0  0  0
  144.5465   75.1330  220.0509 H   0  0  0  0  0  0  0  0  0  0  0  0
  143.5520   74.3976  218.7483 H   0  0  0  0  0  0  0  0  0  0  0  0
  143.8664   76.1662  218.7483 H   0  0  0  0  0  0  0  0  0  0  0  0
  142.3471   77.6312  219.7691 H   0  0  0  0  0  0  0  0  0  0  0  0
  138.3100   75.1173  222.4619 H   0  0  0  0  0  0  0  0  0  0  0  0
  139.3159   76.0809  223.6434 H   0  0  0  0  0  0  0  0  0  0  0  0
  136.3784   76.4379  223.3019 H   0  0  0  0  0  0  0  0  0  0  0  0
  135.0060   78.4803  222.9116 H   0  0  0  0  0  0  0  0  0  0  0  0
  135.9940   80.4448  221.7354 H   0  0  0  0  0  0  0  0  0  0  0  0
  138.3569   80.3726  220.9490 H   0  0  0  0  0  0  0  0  0  0  0  0
  140.1469   78.7872  220.1862 H   0  0  0  0  0  0  0  0  0  0  0  0
  141.0938   77.6987  223.6777 H   0  0  0  0  0  0  0  0  0  0  0  0
  142.5021   79.0919  225.1943 H   0  0  0  0  0  0  0  0  0  0  0  0
  143.2069   81.3825  224.4973 H   0  0  0  0  0  0  0  0  0  0  0  0
  142.5065   82.2836  222.2778 H   0  0  0  0  0  0  0  0  0  0  0  0
  141.1011   80.8985  220.7516 H   0  0  0  0  0  0  0  0  0  0  0  0
  1  2  1  0
  2  3  2  0
  3  4  1  0
  4  5  2  0
  5  6  1  0
  6  7  2  0
  6  8  1  0
  5  9  1  0
  9 10  1  0
 10 11  2  0
 11 12  1  0
 12 13  2  0
 13 14  1  0
 14 15  2  0
 15 16  1  0
 16 17  1  0
 17 18  2  0
 18 19  1  0
 19 20  2  0
 20 21  1  0
 21 22  2  0
  8  2  1  0
 15 10  1  0
 22 17  1  0
 16  4  1  0
  1 23  1  0
  1 24  1  0
  1 25  1  0
  3 26  1  0
  9 27  1  0
  9 28  1  0
 11 29  1  0
 12 30  1  0
 13 31  1  0
 14 32  1  0
 16 33  1  6
 18 34  1  0
 19 35  1  0
 20 36  1  0
 21 37  1  0
 22 38  1  0
M  END
>  <UniqueID>  (60) 
18

>  <SMILES>  (60) 
Cc1cc2c(c(=O)o1)Cc1ccccc1[C@H]2c1ccccc1

>  <Energy>  (60) 
47.71909750563092

>  <Genealogy>  (60) 
Cc1cc2c(c(=O)o1)Cc1ccccc1[C@H]2c1ccccc1 (chirality)
Cc1cc2c(c(=O)o1)Cc1ccccc1[C@H]2c1ccccc1 (3D coordinates assigned)
Cc1cc2c(c(=O)o1)Cc1ccccc1[C@H]2c1ccccc1 (nonaromatic ring conformer: 47.71909750563092 kcal/mol)

>  <smiles>  (60) 
Cc1cc2c(c(=O)o1)Cc1ccccc1C2c1ccccc1

>  <score_type>  (60) 
oracle

>  <origin>  (60) 
autodockgpu

>  <m_score__min__energy>  (60) 
-6.7800000000000002

>  <m_primary>  (60) 
energy

>  <meeko>  (60) 
{"free_energy": -6.77, "intermolecular_energy": -7.07, "internal_energy": -0.77, "cluster_size": 20, "cluster_id": 1, "rank_in_cluster": 8}

>  <energy>  (60) 
-6.77

>  <cluster_rmsd>  (60) 
0.02

>  <rmsd>  (60) 
270.28

>  <cluster>  (60) 
1

$$$$
ZZFUSXOZLWDLQL-IBGZPJMENA-N
     RDKit          3D

 38 41  0  0  0  0  0  0  0  0999 V2000
  138.1540   74.1250  221.7580 C   0  0  0  0  0  0  0  0  0  0  0  0
  138.4590   75.5590  222.0500 C   0  0  0  0  0  0  0  0  0  0  0  0
  139.7700   76.0320  221.9560 C   0  0  0  0  0  0  0  0  0  0  0  0
  140.0350   77.3790  222.2370 C   0  0  0  0  0  0  0  0  0  0  0  0
  138.9700   78.2210  222.6090 C   0  0  0  0  0  0  0  0  0  0  0  0
  137.6740   77.6690  222.6630 C   0  0  0  0  0  0  0  0  0  0  0  0
  136.6850   78.3910  222.9630 O   0  0  0  0  0  0  0  0  0  0  0  0
  137.4750   76.3840  222.3920 O   0  0  0  0  0  0  0  0  0  0  0  0
  139.1860   79.6920  222.8740 C   0  0  0  0  0  0  0  0  0  0  0  0
  140.6140   80.0410  223.2020 C   0  0  0  0  0  0  0  0  0  0  0  0
  140.8860   81.2630  223.8390 C   0  0  0  0  0  0  0  0  0  0  0  0
  142.2010   81.6390  224.1220 C   0  0  0  0  0  0  0  0  0  0  0  0
  143.2580   80.8050  223.7590 C   0  0  0  0  0  0  0  0  0  0  0  0
  143.0040   79.5950  223.1120 C   0  0  0  0  0  0  0  0  0  0  0  0
  141.6850   79.2000  222.8270 C   0  0  0  0  0  0  0  0  0  0  0  0
  141.4490   77.8980  222.0950 C   0  0  2  0  0  0  0  0  0  0  0  0
  141.8210   78.0340  220.6310 C   0  0  0  0  0  0  0  0  0  0  0  0
  141.5930   79.2470  219.9560 C   0  0  0  0  0  0  0  0  0  0  0  0
  141.9350   79.3800  218.6060 C   0  0  0  0  0  0  0  0  0  0  0  0
  142.5040   78.3060  217.9170 C   0  0  0  0  0  0  0  0  0  0  0  0
  142.7330   77.0970  218.5760 C   0  0  0  0  0  0  0  0  0  0  0  0
  142.3950   76.9580  219.9250 C   0  0  0  0  0  0  0  0  0  0  0  0
  138.0371   73.5751  222.7035 H   0  0  0  0  0  0  0  0  0  0  0  0
  137.2218   74.0592  221.1778 H   0  0  0  0  0  0  0  0  0  0  0  0
  138.9788   73.6855  221.1778 H   0  0  0  0  0  0  0  0  0  0  0  0
  140.5858   75.3542  221.6644 H   0  0  0  0  0  0  0  0  0  0  0  0
  138.8874   80.2547  221.9772 H   0  0  0  0  0  0  0  0  0  0  0  0
  138.5791   79.9545  223.7531 H   0  0  0  0  0  0  0  0  0  0  0  0
  140.0563   81.9295  224.1173 H   0  0  0  0  0  0  0  0  0  0  0  0
  142.4029   82.5929  224.6312 H   0  0  0  0  0  0  0  0  0  0  0  0
  144.2934   81.1013  223.9830 H   0  0  0  0  0  0  0  0  0  0  0  0
  143.8427   78.9448  222.8225 H   0  0  0  0  0  0  0  0  0  0  0  0
  142.1034   77.1524  222.5703 H   0  0  0  0  0  0  0  0  0  0  0  0
  141.1434   80.0955  220.4926 H   0  0  0  0  0  0  0  0  0  0  0  0
  141.7555   80.3324  218.0858 H   0  0  0  0  0  0  0  0  0  0  0  0
  142.7715   78.4131  216.8554 H   0  0  0  0  0  0  0  0  0  0  0  0
  143.1805   76.2518  218.0324 H   0  0  0  0  0  0  0  0  0  0  0  0
  142.5782   76.0028  220.4388 H   0  0  0  0  0  0  0  0  0  0  0  0
  1  2  1  0
  2  3  2  0
  3  4  1  0
  4  5  2  0
  5  6  1  0
  6  7  2  0
  6  8  1  0
  5  9  1  0
  9 10  1  0
 10 11  2  0
 11 12  1  0
 12 13  2  0
 13 14  1  0
 14 15  2  0
 15 16  1  0
 16 17  1  0
 17 18  2  0
 18 19  1  0
 19 20  2  0
 20 21  1  0
 21 22  2  0
  8  2  1  0
 15 10  1  0
 22 17  1  0
 16  4  1  0
  1 23  1  0
  1 24  1  0
  1 25  1  0
  3 26  1  0
  9 27  1  0
  9 28  1  0
 11 29  1  0
 12 30  1  0
 13 31  1  0
 14 32  1  0
 16 33  1  1
 18 34  1  0
 19 35  1  0
 20 36  1  0
 21 37  1  0
 22 38  1  0
M  END
>  <UniqueID>  (61) 
19

>  <SMILES>  (61) 
Cc1cc2c(c(=O)o1)Cc1ccccc1[C@@H]2c1ccccc1

>  <Energy>  (61) 
47.71909751364485

>  <Genealogy>  (61) 
Cc1cc2c(c(=O)o1)Cc1ccccc1[C@@H]2c1ccccc1 (chirality)
Cc1cc2c(c(=O)o1)Cc1ccccc1[C@@H]2c1ccccc1 (3D coordinates assigned)
Cc1cc2c(c(=O)o1)Cc1ccccc1[C@@H]2c1ccccc1 (nonaromatic ring conformer: 47.71909751364485 kcal/mol)

>  <smiles>  (61) 
Cc1cc2c(c(=O)o1)Cc1ccccc1C2c1ccccc1

>  <score_type>  (61) 
oracle

>  <origin>  (61) 
autodockgpu

>  <m_score__min__energy>  (61) 
-6.9299999999999997

>  <m_primary>  (61) 
energy

>  <meeko>  (61) 
{"free_energy": -6.93, "intermolecular_energy": -7.23, "internal_energy": -0.76, "cluster_size": 20, "cluster_id": 1, "rank_in_cluster": 10}

>  <energy>  (61) 
-6.93

>  <cluster_rmsd>  (61) 
0.0

>  <rmsd>  (61) 
272.21

>  <cluster>  (61) 
1

$$$$
ZZFUSXOZLWDLQL-IBGZPJMENA-N
     RDKit          3D

 38 41  0  0  0  0  0  0  0  0999 V2000
  138.1710   74.1020  221.7640 C   0  0  0  0  0  0  0  0  0  0  0  0
  138.4700   75.5380  222.0570 C   0  0  0  0  0  0  0  0  0  0  0  0
  139.7780   76.0180  221.9600 C   0  0  0  0  0  0  0  0  0  0  0  0
  140.0360   77.3660  222.2400 C   0  0  0  0  0  0  0  0  0  0  0  0
  138.9670   78.2020  222.6150 C   0  0  0  0  0  0  0  0  0  0  0  0
  137.6740   77.6440  222.6710 C   0  0  0  0  0  0  0  0  0  0  0  0
  136.6820   78.3600  222.9740 O   0  0  0  0  0  0  0  0  0  0  0  0
  137.4820   76.3570  222.4000 O   0  0  0  0  0  0  0  0  0  0  0  0
  139.1760   79.6750  222.8790 C   0  0  0  0  0  0  0  0  0  0  0  0
  140.6030   80.0310  223.2040 C   0  0  0  0  0  0  0  0  0  0  0  0
  140.8690   81.2550  223.8410 C   0  0  0  0  0  0  0  0  0  0  0  0
  142.1830   81.6380  224.1210 C   0  0  0  0  0  0  0  0  0  0  0  0
  143.2440   80.8100  223.7550 C   0  0  0  0  0  0  0  0  0  0  0  0
  142.9950   79.5980  223.1090 C   0  0  0  0  0  0  0  0  0  0  0  0
  141.6770   79.1960  222.8270 C   0  0  0  0  0  0  0  0  0  0  0  0
  141.4470   77.8930  222.0950 C   0  0  2  0  0  0  0  0  0  0  0  0
  141.8140   78.0310  220.6300 C   0  0  0  0  0  0  0  0  0  0  0  0
  141.5660   79.2380  219.9520 C   0  0  0  0  0  0  0  0  0  0  0  0
  141.9040   79.3730  218.6020 C   0  0  0  0  0  0  0  0  0  0  0  0
  142.4900   78.3080  217.9150 C   0  0  0  0  0  0  0  0  0  0  0  0
  142.7410   77.1040  218.5770 C   0  0  0  0  0  0  0  0  0  0  0  0
  142.4060   76.9640  219.9270 C   0  0  0  0  0  0  0  0  0  0  0  0
  138.0563   73.5511  222.7092 H   0  0  0  0  0  0  0  0  0  0  0  0
  137.2391   74.0325  221.1837 H   0  0  0  0  0  0  0  0  0  0  0  0
  138.9977   73.6663  221.1837 H   0  0  0  0  0  0  0  0  0  0  0  0
  140.5969   75.3446  221.6668 H   0  0  0  0  0  0  0  0  0  0  0  0
  138.8729   80.2358  221.9825 H   0  0  0  0  0  0  0  0  0  0  0  0
  138.5694   79.9351  223.7590 H   0  0  0  0  0  0  0  0  0  0  0  0
  140.0362   81.9167  224.1213 H   0  0  0  0  0  0  0  0  0  0  0  0
  142.3809   82.5928  224.6302 H   0  0  0  0  0  0  0  0  0  0  0  0
  144.2783   81.1125  223.9757 H   0  0  0  0  0  0  0  0  0  0  0  0
  143.8364   78.9520  222.8181 H   0  0  0  0  0  0  0  0  0  0  0  0
  142.1074   77.1516  222.5686 H   0  0  0  0  0  0  0  0  0  0  0  0
  141.1035   80.0806  220.4868 H   0  0  0  0  0  0  0  0  0  0  0  0
  141.7077   80.3210  218.0797 H   0  0  0  0  0  0  0  0  0  0  0  0
  142.7539   78.4172  216.8527 H   0  0  0  0  0  0  0  0  0  0  0  0
  143.2027   76.2651  218.0356 H   0  0  0  0  0  0  0  0  0  0  0  0
  142.6062   76.0138  220.4437 H   0  0  0  0  0  0  0  0  0  0  0  0
  1  2  1  0
  2  3  2  0
  3  4  1  0
  4  5  2  0
  5  6  1  0
  6  7  2  0
  6  8  1  0
  5  9  1  0
  9 10  1  0
 10 11  2  0
 11 12  1  0
 12 13  2  0
 13 14  1  0
 14 15  2  0
 15 16  1  0
 16 17  1  0
 17 18  2  0
 18 19  1  0
 19 20  2  0
 20 21  1  0
 21 22  2  0
  8  2  1  0
 15 10  1  0
 22 17  1  0
 16  4  1  0
  1 23  1  0
  1 24  1  0
  1 25  1  0
  3 26  1  0
  9 27  1  0
  9 28  1  0
 11 29  1  0
 12 30  1  0
 13 31  1  0
 14 32  1  0
 16 33  1  1
 18 34  1  0
 19 35  1  0
 20 36  1  0
 21 37  1  0
 22 38  1  0
M  END
>  <UniqueID>  (62) 
19

>  <SMILES>  (62) 
Cc1cc2c(c(=O)o1)Cc1ccccc1[C@@H]2c1ccccc1

>  <Energy>  (62) 
47.71909751364485

>  <Genealogy>  (62) 
Cc1cc2c(c(=O)o1)Cc1ccccc1[C@@H]2c1ccccc1 (chirality)
Cc1cc2c(c(=O)o1)Cc1ccccc1[C@@H]2c1ccccc1 (3D coordinates assigned)
Cc1cc2c(c(=O)o1)Cc1ccccc1[C@@H]2c1ccccc1 (nonaromatic ring conformer: 47.71909751364485 kcal/mol)

>  <smiles>  (62) 
Cc1cc2c(c(=O)o1)Cc1ccccc1C2c1ccccc1

>  <score_type>  (62) 
oracle

>  <origin>  (62) 
autodockgpu

>  <m_score__min__energy>  (62) 
-6.9299999999999997

>  <m_primary>  (62) 
energy

>  <meeko>  (62) 
{"free_energy": -6.93, "intermolecular_energy": -7.22, "internal_energy": -0.76, "cluster_size": 20, "cluster_id": 1, "rank_in_cluster": 20}

>  <energy>  (62) 
-6.93

>  <cluster_rmsd>  (62) 
0.02

>  <rmsd>  (62) 
272.21

>  <cluster>  (62) 
1

$$$$
ZZFUSXOZLWDLQL-IBGZPJMENA-N
     RDKit          3D

 38 41  0  0  0  0  0  0  0  0999 V2000
  138.1620   74.1210  221.7480 C   0  0  0  0  0  0  0  0  0  0  0  0
  138.4640   75.5550  222.0440 C   0  0  0  0  0  0  0  0  0  0  0  0
  139.7740   76.0320  221.9510 C   0  0  0  0  0  0  0  0  0  0  0  0
  140.0350   77.3790  222.2360 C   0  0  0  0  0  0  0  0  0  0  0  0
  138.9680   78.2170  222.6100 C   0  0  0  0  0  0  0  0  0  0  0  0
  137.6730   77.6620  222.6620 C   0  0  0  0  0  0  0  0  0  0  0  0
  136.6820   78.3800  222.9640 O   0  0  0  0  0  0  0  0  0  0  0  0
  137.4780   76.3760  222.3870 O   0  0  0  0  0  0  0  0  0  0  0  0
  139.1800   79.6880  222.8780 C   0  0  0  0  0  0  0  0  0  0  0  0
  140.6070   80.0400  223.2070 C   0  0  0  0  0  0  0  0  0  0  0  0
  140.8760   81.2610  223.8480 C   0  0  0  0  0  0  0  0  0  0  0  0
  142.1900   81.6400  224.1310 C   0  0  0  0  0  0  0  0  0  0  0  0
  143.2490   80.8100  223.7660 C   0  0  0  0  0  0  0  0  0  0  0  0
  142.9990   79.6000  223.1160 C   0  0  0  0  0  0  0  0  0  0  0  0
  141.6800   79.2020  222.8300 C   0  0  0  0  0  0  0  0  0  0  0  0
  141.4480   77.9020  222.0950 C   0  0  2  0  0  0  0  0  0  0  0  0
  141.8190   78.0420  220.6310 C   0  0  0  0  0  0  0  0  0  0  0  0
  141.6050   79.2620  219.9640 C   0  0  0  0  0  0  0  0  0  0  0  0
  141.9470   79.3990  218.6150 C   0  0  0  0  0  0  0  0  0  0  0  0
  142.5020   78.3230  217.9180 C   0  0  0  0  0  0  0  0  0  0  0  0
  142.7170   77.1070  218.5690 C   0  0  0  0  0  0  0  0  0  0  0  0
  142.3790   76.9650  219.9180 C   0  0  0  0  0  0  0  0  0  0  0  0
  138.0456   73.5684  222.6920 H   0  0  0  0  0  0  0  0  0  0  0  0
  137.2302   74.0549  221.1671 H   0  0  0  0  0  0  0  0  0  0  0  0
  138.9880   73.6847  221.1671 H   0  0  0  0  0  0  0  0  0  0  0  0
  140.5917   75.3574  221.6572 H   0  0  0  0  0  0  0  0  0  0  0  0
  138.8801   80.2517  221.9823 H   0  0  0  0  0  0  0  0  0  0  0  0
  138.5722   79.9472  223.7574 H   0  0  0  0  0  0  0  0  0  0  0  0
  140.0446   81.9240  224.1293 H   0  0  0  0  0  0  0  0  0  0  0  0
  142.3894   82.5935  224.6419 H   0  0  0  0  0  0  0  0  0  0  0  0
  144.2835   81.1090  223.9906 H   0  0  0  0  0  0  0  0  0  0  0  0
  143.8396   78.9528  222.8252 H   0  0  0  0  0  0  0  0  0  0  0  0
  142.1051   77.1575  222.5682 H   0  0  0  0  0  0  0  0  0  0  0  0
  141.1664   80.1125  220.5064 H   0  0  0  0  0  0  0  0  0  0  0  0
  141.7785   80.3569  218.1011 H   0  0  0  0  0  0  0  0  0  0  0  0
  142.7694   78.4339  216.8568 H   0  0  0  0  0  0  0  0  0  0  0  0
  143.1529   76.2595  218.0198 H   0  0  0  0  0  0  0  0  0  0  0  0
  142.5518   76.0048  220.4261 H   0  0  0  0  0  0  0  0  0  0  0  0
  1  2  1  0
  2  3  2  0
  3  4  1  0
  4  5  2  0
  5  6  1  0
  6  7  2  0
  6  8  1  0
  5  9  1  0
  9 10  1  0
 10 11  2  0
 11 12  1  0
 12 13  2  0
 13 14  1  0
 14 15  2  0
 15 16  1  0
 16 17  1  0
 17 18  2  0
 18 19  1  0
 19 20  2  0
 20 21  1  0
 21 22  2  0
  8  2  1  0
 15 10  1  0
 22 17  1  0
 16  4  1  0
  1 23  1  0
  1 24  1  0
  1 25  1  0
  3 26  1  0
  9 27  1  0
  9 28  1  0
 11 29  1  0
 12 30  1  0
 13 31  1  0
 14 32  1  0
 16 33  1  1
 18 34  1  0
 19 35  1  0
 20 36  1  0
 21 37  1  0
 22 38  1  0
M  END
>  <UniqueID>  (63) 
19

>  <SMILES>  (63) 
Cc1cc2c(c(=O)o1)Cc1ccccc1[C@@H]2c1ccccc1

>  <Energy>  (63) 
47.71909751364485

>  <Genealogy>  (63) 
Cc1cc2c(c(=O)o1)Cc1ccccc1[C@@H]2c1ccccc1 (chirality)
Cc1cc2c(c(=O)o1)Cc1ccccc1[C@@H]2c1ccccc1 (3D coordinates assigned)
Cc1cc2c(c(=O)o1)Cc1ccccc1[C@@H]2c1ccccc1 (nonaromatic ring conformer: 47.71909751364485 kcal/mol)

>  <smiles>  (63) 
Cc1cc2c(c(=O)o1)Cc1ccccc1C2c1ccccc1

>  <score_type>  (63) 
oracle

>  <origin>  (63) 
autodockgpu

>  <m_score__min__energy>  (63) 
-6.9299999999999997

>  <m_primary>  (63) 
energy

>  <meeko>  (63) 
{"free_energy": -6.93, "intermolecular_energy": -7.23, "internal_energy": -0.76, "cluster_size": 20, "cluster_id": 1, "rank_in_cluster": 15}

>  <energy>  (63) 
-6.93

>  <cluster_rmsd>  (63) 
0.01

>  <rmsd>  (63) 
272.21

>  <cluster>  (63) 
1

$$$$
ZZFUSXOZLWDLQL-IBGZPJMENA-N
     RDKit          3D

 38 41  0  0  0  0  0  0  0  0999 V2000
  138.1480   74.1250  221.7700 C   0  0  0  0  0  0  0  0  0  0  0  0
  138.4550   75.5580  222.0620 C   0  0  0  0  0  0  0  0  0  0  0  0
  139.7670   76.0310  221.9640 C   0  0  0  0  0  0  0  0  0  0  0  0
  140.0330   77.3770  222.2440 C   0  0  0  0  0  0  0  0  0  0  0  0
  138.9690   78.2200  222.6190 C   0  0  0  0  0  0  0  0  0  0  0  0
  137.6730   77.6690  222.6760 C   0  0  0  0  0  0  0  0  0  0  0  0
  136.6850   78.3910  222.9790 O   0  0  0  0  0  0  0  0  0  0  0  0
  137.4730   76.3830  222.4050 O   0  0  0  0  0  0  0  0  0  0  0  0
  139.1860   79.6910  222.8830 C   0  0  0  0  0  0  0  0  0  0  0  0
  140.6160   80.0390  223.2070 C   0  0  0  0  0  0  0  0  0  0  0  0
  140.8900   81.2610  223.8440 C   0  0  0  0  0  0  0  0  0  0  0  0
  142.2060   81.6360  224.1230 C   0  0  0  0  0  0  0  0  0  0  0  0
  143.2620   80.8020  223.7580 C   0  0  0  0  0  0  0  0  0  0  0  0
  143.0060   79.5910  223.1120 C   0  0  0  0  0  0  0  0  0  0  0  0
  141.6850   79.1980  222.8300 C   0  0  0  0  0  0  0  0  0  0  0  0
  141.4470   77.8950  222.0980 C   0  0  2  0  0  0  0  0  0  0  0  0
  141.8150   78.0310  220.6330 C   0  0  0  0  0  0  0  0  0  0  0  0
  141.5690   79.2380  219.9540 C   0  0  0  0  0  0  0  0  0  0  0  0
  141.9080   79.3710  218.6040 C   0  0  0  0  0  0  0  0  0  0  0  0
  142.4910   78.3030  217.9180 C   0  0  0  0  0  0  0  0  0  0  0  0
  142.7380   77.1000  218.5820 C   0  0  0  0  0  0  0  0  0  0  0  0
  142.4030   76.9610  219.9320 C   0  0  0  0  0  0  0  0  0  0  0  0
  138.0302   73.5752  222.7155 H   0  0  0  0  0  0  0  0  0  0  0  0
  137.2157   74.0606  221.1898 H   0  0  0  0  0  0  0  0  0  0  0  0
  138.9721   73.6843  221.1898 H   0  0  0  0  0  0  0  0  0  0  0  0
  140.5817   75.3529  221.6700 H   0  0  0  0  0  0  0  0  0  0  0  0
  138.8852   80.2536  221.9869 H   0  0  0  0  0  0  0  0  0  0  0  0
  138.5815   79.9544  223.7634 H   0  0  0  0  0  0  0  0  0  0  0  0
  140.0614   81.9276  224.1252 H   0  0  0  0  0  0  0  0  0  0  0  0
  142.4096   82.5901  224.6311 H   0  0  0  0  0  0  0  0  0  0  0  0
  144.2979   81.0984  223.9792 H   0  0  0  0  0  0  0  0  0  0  0  0
  143.8433   78.9395  222.8214 H   0  0  0  0  0  0  0  0  0  0  0  0
  142.1027   77.1491  222.5711 H   0  0  0  0  0  0  0  0  0  0  0  0
  141.1075   80.0818  220.4879 H   0  0  0  0  0  0  0  0  0  0  0  0
  141.7151   80.3192  218.0808 H   0  0  0  0  0  0  0  0  0  0  0  0
  142.7552   78.4097  216.8556 H   0  0  0  0  0  0  0  0  0  0  0  0
  143.1974   76.2593  218.0414 H   0  0  0  0  0  0  0  0  0  0  0  0
  142.5999   76.0105  220.4494 H   0  0  0  0  0  0  0  0  0  0  0  0
  1  2  1  0
  2  3  2  0
  3  4  1  0
  4  5  2  0
  5  6  1  0
  6  7  2  0
  6  8  1  0
  5  9  1  0
  9 10  1  0
 10 11  2  0
 11 12  1  0
 12 13  2  0
 13 14  1  0
 14 15  2  0
 15 16  1  0
 16 17  1  0
 17 18  2  0
 18 19  1  0
 19 20  2  0
 20 21  1  0
 21 22  2  0
  8  2  1  0
 15 10  1  0
 22 17  1  0
 16  4  1  0
  1 23  1  0
  1 24  1  0
  1 25  1  0
  3 26  1  0
  9 27  1  0
  9 28  1  0
 11 29  1  0
 12 30  1  0
 13 31  1  0
 14 32  1  0
 16 33  1  1
 18 34  1  0
 19 35  1  0
 20 36  1  0
 21 37  1  0
 22 38  1  0
M  END
>  <UniqueID>  (64) 
19

>  <SMILES>  (64) 
Cc1cc2c(c(=O)o1)Cc1ccccc1[C@@H]2c1ccccc1

>  <Energy>  (64) 
47.71909751364485

>  <Genealogy>  (64) 
Cc1cc2c(c(=O)o1)Cc1ccccc1[C@@H]2c1ccccc1 (chirality)
Cc1cc2c(c(=O)o1)Cc1ccccc1[C@@H]2c1ccccc1 (3D coordinates assigned)
Cc1cc2c(c(=O)o1)Cc1ccccc1[C@@H]2c1ccccc1 (nonaromatic ring conformer: 47.71909751364485 kcal/mol)

>  <smiles>  (64) 
Cc1cc2c(c(=O)o1)Cc1ccccc1C2c1ccccc1

>  <score_type>  (64) 
oracle

>  <origin>  (64) 
autodockgpu

>  <m_score__min__energy>  (64) 
-6.9299999999999997

>  <m_primary>  (64) 
energy

>  <meeko>  (64) 
{"free_energy": -6.93, "intermolecular_energy": -7.22, "internal_energy": -0.76, "cluster_size": 20, "cluster_id": 1, "rank_in_cluster": 19}

>  <energy>  (64) 
-6.93

>  <cluster_rmsd>  (64) 
0.01

>  <rmsd>  (64) 
272.21

>  <cluster>  (64) 
1

$$$$
ZZFUSXOZLWDLQL-IBGZPJMENA-N
     RDKit          3D

 38 41  0  0  0  0  0  0  0  0999 V2000
  138.1520   74.1270  221.7670 C   0  0  0  0  0  0  0  0  0  0  0  0
  138.4570   75.5610  222.0600 C   0  0  0  0  0  0  0  0  0  0  0  0
  139.7680   76.0350  221.9630 C   0  0  0  0  0  0  0  0  0  0  0  0
  140.0330   77.3820  222.2440 C   0  0  0  0  0  0  0  0  0  0  0  0
  138.9680   78.2230  222.6190 C   0  0  0  0  0  0  0  0  0  0  0  0
  137.6720   77.6710  222.6750 C   0  0  0  0  0  0  0  0  0  0  0  0
  136.6840   78.3920  222.9780 O   0  0  0  0  0  0  0  0  0  0  0  0
  137.4740   76.3850  222.4040 O   0  0  0  0  0  0  0  0  0  0  0  0
  139.1840   79.6940  222.8840 C   0  0  0  0  0  0  0  0  0  0  0  0
  140.6130   80.0440  223.2080 C   0  0  0  0  0  0  0  0  0  0  0  0
  140.8850   81.2650  223.8460 C   0  0  0  0  0  0  0  0  0  0  0  0
  142.2010   81.6420  224.1250 C   0  0  0  0  0  0  0  0  0  0  0  0
  143.2580   80.8090  223.7590 C   0  0  0  0  0  0  0  0  0  0  0  0
  143.0030   79.5990  223.1130 C   0  0  0  0  0  0  0  0  0  0  0  0
  141.6830   79.2030  222.8310 C   0  0  0  0  0  0  0  0  0  0  0  0
  141.4460   77.9010  222.0980 C   0  0  2  0  0  0  0  0  0  0  0  0
  141.8140   78.0380  220.6330 C   0  0  0  0  0  0  0  0  0  0  0  0
  141.5920   79.2540  219.9610 C   0  0  0  0  0  0  0  0  0  0  0  0
  141.9300   79.3880  218.6110 C   0  0  0  0  0  0  0  0  0  0  0  0
  142.4910   78.3120  217.9180 C   0  0  0  0  0  0  0  0  0  0  0  0
  142.7160   77.1010  218.5740 C   0  0  0  0  0  0  0  0  0  0  0  0
  142.3800   76.9610  219.9240 C   0  0  0  0  0  0  0  0  0  0  0  0
  138.0349   73.5765  222.7121 H   0  0  0  0  0  0  0  0  0  0  0  0
  137.2198   74.0616  221.1866 H   0  0  0  0  0  0  0  0  0  0  0  0
  138.9768   73.6879  221.1866 H   0  0  0  0  0  0  0  0  0  0  0  0
  140.5835   75.3578  221.6691 H   0  0  0  0  0  0  0  0  0  0  0  0
  138.8824   80.2569  221.9883 H   0  0  0  0  0  0  0  0  0  0  0  0
  138.5796   79.9556  223.7651 H   0  0  0  0  0  0  0  0  0  0  0  0
  140.0554   81.9299  224.1283 H   0  0  0  0  0  0  0  0  0  0  0  0
  142.4036   82.5961  224.6335 H   0  0  0  0  0  0  0  0  0  0  0  0
  144.2938   81.1063  223.9799 H   0  0  0  0  0  0  0  0  0  0  0  0
  143.8413   78.9491  222.8217 H   0  0  0  0  0  0  0  0  0  0  0  0
  142.1024   77.1553  222.5702 H   0  0  0  0  0  0  0  0  0  0  0  0
  141.1499   80.1043  220.5009 H   0  0  0  0  0  0  0  0  0  0  0  0
  141.7539   80.3424  218.0933 H   0  0  0  0  0  0  0  0  0  0  0  0
  142.7552   78.4195  216.8556 H   0  0  0  0  0  0  0  0  0  0  0  0
  143.1586   76.2549  218.0279 H   0  0  0  0  0  0  0  0  0  0  0  0
  142.5589   76.0037  220.4354 H   0  0  0  0  0  0  0  0  0  0  0  0
  1  2  1  0
  2  3  2  0
  3  4  1  0
  4  5  2  0
  5  6  1  0
  6  7  2  0
  6  8  1  0
  5  9  1  0
  9 10  1  0
 10 11  2  0
 11 12  1  0
 12 13  2  0
 13 14  1  0
 14 15  2  0
 15 16  1  0
 16 17  1  0
 17 18  2  0
 18 19  1  0
 19 20  2  0
 20 21  1  0
 21 22  2  0
  8  2  1  0
 15 10  1  0
 22 17  1  0
 16  4  1  0
  1 23  1  0
  1 24  1  0
  1 25  1  0
  3 26  1  0
  9 27  1  0
  9 28  1  0
 11 29  1  0
 12 30  1  0
 13 31  1  0
 14 32  1  0
 16 33  1  1
 18 34  1  0
 19 35  1  0
 20 36  1  0
 21 37  1  0
 22 38  1  0
M  END
>  <UniqueID>  (65) 
19

>  <SMILES>  (65) 
Cc1cc2c(c(=O)o1)Cc1ccccc1[C@@H]2c1ccccc1

>  <Energy>  (65) 
47.71909751364485

>  <Genealogy>  (65) 
Cc1cc2c(c(=O)o1)Cc1ccccc1[C@@H]2c1ccccc1 (chirality)
Cc1cc2c(c(=O)o1)Cc1ccccc1[C@@H]2c1ccccc1 (3D coordinates assigned)
Cc1cc2c(c(=O)o1)Cc1ccccc1[C@@H]2c1ccccc1 (nonaromatic ring conformer: 47.71909751364485 kcal/mol)

>  <smiles>  (65) 
Cc1cc2c(c(=O)o1)Cc1ccccc1C2c1ccccc1

>  <score_type>  (65) 
oracle

>  <origin>  (65) 
autodockgpu

>  <m_score__min__energy>  (65) 
-6.9299999999999997

>  <m_primary>  (65) 
energy

>  <meeko>  (65) 
{"free_energy": -6.93, "intermolecular_energy": -7.23, "internal_energy": -0.76, "cluster_size": 20, "cluster_id": 1, "rank_in_cluster": 13}

>  <energy>  (65) 
-6.93

>  <cluster_rmsd>  (65) 
0.02

>  <rmsd>  (65) 
272.21

>  <cluster>  (65) 
1

$$$$
ZZFUSXOZLWDLQL-IBGZPJMENA-N
     RDKit          3D

 38 41  0  0  0  0  0  0  0  0999 V2000
  138.1600   74.1190  221.7510 C   0  0  0  0  0  0  0  0  0  0  0  0
  138.4640   75.5530  222.0460 C   0  0  0  0  0  0  0  0  0  0  0  0
  139.7740   76.0280  221.9520 C   0  0  0  0  0  0  0  0  0  0  0  0
  140.0380   77.3750  222.2350 C   0  0  0  0  0  0  0  0  0  0  0  0
  138.9710   78.2140  222.6100 C   0  0  0  0  0  0  0  0  0  0  0  0
  137.6760   77.6610  222.6630 C   0  0  0  0  0  0  0  0  0  0  0  0
  136.6860   78.3810  222.9660 O   0  0  0  0  0  0  0  0  0  0  0  0
  137.4790   76.3760  222.3900 O   0  0  0  0  0  0  0  0  0  0  0  0
  139.1850   79.6860  222.8770 C   0  0  0  0  0  0  0  0  0  0  0  0
  140.6130   80.0360  223.2040 C   0  0  0  0  0  0  0  0  0  0  0  0
  140.8840   81.2570  223.8440 C   0  0  0  0  0  0  0  0  0  0  0  0
  142.1980   81.6350  224.1260 C   0  0  0  0  0  0  0  0  0  0  0  0
  143.2570   80.8030  223.7610 C   0  0  0  0  0  0  0  0  0  0  0  0
  143.0040   79.5930  223.1120 C   0  0  0  0  0  0  0  0  0  0  0  0
  141.6850   79.1970  222.8270 C   0  0  0  0  0  0  0  0  0  0  0  0
  141.4510   77.8960  222.0930 C   0  0  2  0  0  0  0  0  0  0  0  0
  141.8210   78.0350  220.6280 C   0  0  0  0  0  0  0  0  0  0  0  0
  141.6040   79.2540  219.9600 C   0  0  0  0  0  0  0  0  0  0  0  0
  141.9450   79.3900  218.6100 C   0  0  0  0  0  0  0  0  0  0  0  0
  142.5020   78.3140  217.9150 C   0  0  0  0  0  0  0  0  0  0  0  0
  142.7210   77.1000  218.5680 C   0  0  0  0  0  0  0  0  0  0  0  0
  142.3830   76.9580  219.9170 C   0  0  0  0  0  0  0  0  0  0  0  0
  138.0430   73.5672  222.6954 H   0  0  0  0  0  0  0  0  0  0  0  0
  137.2281   74.0537  221.1703 H   0  0  0  0  0  0  0  0  0  0  0  0
  138.9853   73.6812  221.1703 H   0  0  0  0  0  0  0  0  0  0  0  0
  140.5904   75.3516  221.6588 H   0  0  0  0  0  0  0  0  0  0  0  0
  138.8848   80.2495  221.9813 H   0  0  0  0  0  0  0  0  0  0  0  0
  138.5784   79.9467  223.7568 H   0  0  0  0  0  0  0  0  0  0  0  0
  140.0534   81.9211  224.1254 H   0  0  0  0  0  0  0  0  0  0  0  0
  142.3985   82.5888  224.6360 H   0  0  0  0  0  0  0  0  0  0  0  0
  144.2921   81.1007  223.9848 H   0  0  0  0  0  0  0  0  0  0  0  0
  143.8433   78.9441  222.8212 H   0  0  0  0  0  0  0  0  0  0  0  0
  142.1075   77.1511  222.5664 H   0  0  0  0  0  0  0  0  0  0  0  0
  141.1641   80.1043  220.5018 H   0  0  0  0  0  0  0  0  0  0  0  0
  141.7741   80.3466  218.0946 H   0  0  0  0  0  0  0  0  0  0  0  0
  142.7680   78.4234  216.8533 H   0  0  0  0  0  0  0  0  0  0  0  0
  143.1604   76.2534  218.0201 H   0  0  0  0  0  0  0  0  0  0  0  0
  142.5573   75.9986  220.4261 H   0  0  0  0  0  0  0  0  0  0  0  0
  1  2  1  0
  2  3  2  0
  3  4  1  0
  4  5  2  0
  5  6  1  0
  6  7  2  0
  6  8  1  0
  5  9  1  0
  9 10  1  0
 10 11  2  0
 11 12  1  0
 12 13  2  0
 13 14  1  0
 14 15  2  0
 15 16  1  0
 16 17  1  0
 17 18  2  0
 18 19  1  0
 19 20  2  0
 20 21  1  0
 21 22  2  0
  8  2  1  0
 15 10  1  0
 22 17  1  0
 16  4  1  0
  1 23  1  0
  1 24  1  0
  1 25  1  0
  3 26  1  0
  9 27  1  0
  9 28  1  0
 11 29  1  0
 12 30  1  0
 13 31  1  0
 14 32  1  0
 16 33  1  1
 18 34  1  0
 19 35  1  0
 20 36  1  0
 21 37  1  0
 22 38  1  0
M  END
>  <UniqueID>  (66) 
19

>  <SMILES>  (66) 
Cc1cc2c(c(=O)o1)Cc1ccccc1[C@@H]2c1ccccc1

>  <Energy>  (66) 
47.71909751364485

>  <Genealogy>  (66) 
Cc1cc2c(c(=O)o1)Cc1ccccc1[C@@H]2c1ccccc1 (chirality)
Cc1cc2c(c(=O)o1)Cc1ccccc1[C@@H]2c1ccccc1 (3D coordinates assigned)
Cc1cc2c(c(=O)o1)Cc1ccccc1[C@@H]2c1ccccc1 (nonaromatic ring conformer: 47.71909751364485 kcal/mol)

>  <smiles>  (66) 
Cc1cc2c(c(=O)o1)Cc1ccccc1C2c1ccccc1

>  <score_type>  (66) 
oracle

>  <origin>  (66) 
autodockgpu

>  <m_score__min__energy>  (66) 
-6.9299999999999997

>  <m_primary>  (66) 
energy

>  <meeko>  (66) 
{"free_energy": -6.93, "intermolecular_energy": -7.23, "internal_energy": -0.76, "cluster_size": 20, "cluster_id": 1, "rank_in_cluster": 6}

>  <energy>  (66) 
-6.93

>  <cluster_rmsd>  (66) 
0.02

>  <rmsd>  (66) 
272.2

>  <cluster>  (66) 
1

$$$$
ZZFUSXOZLWDLQL-IBGZPJMENA-N
     RDKit          3D

 38 41  0  0  0  0  0  0  0  0999 V2000
  138.1500   74.1300  221.7470 C   0  0  0  0  0  0  0  0  0  0  0  0
  138.4550   75.5630  222.0420 C   0  0  0  0  0  0  0  0  0  0  0  0
  139.7660   76.0370  221.9500 C   0  0  0  0  0  0  0  0  0  0  0  0
  140.0310   77.3840  222.2330 C   0  0  0  0  0  0  0  0  0  0  0  0
  138.9650   78.2240  222.6060 C   0  0  0  0  0  0  0  0  0  0  0  0
  137.6690   77.6720  222.6580 C   0  0  0  0  0  0  0  0  0  0  0  0
  136.6790   78.3930  222.9590 O   0  0  0  0  0  0  0  0  0  0  0  0
  137.4710   76.3870  222.3850 O   0  0  0  0  0  0  0  0  0  0  0  0
  139.1800   79.6950  222.8730 C   0  0  0  0  0  0  0  0  0  0  0  0
  140.6080   80.0440  223.2020 C   0  0  0  0  0  0  0  0  0  0  0  0
  140.8790   81.2650  223.8420 C   0  0  0  0  0  0  0  0  0  0  0  0
  142.1940   81.6410  224.1250 C   0  0  0  0  0  0  0  0  0  0  0  0
  143.2520   80.8090  223.7620 C   0  0  0  0  0  0  0  0  0  0  0  0
  142.9990   79.5990  223.1130 C   0  0  0  0  0  0  0  0  0  0  0  0
  141.6790   79.2040  222.8270 C   0  0  0  0  0  0  0  0  0  0  0  0
  141.4450   77.9030  222.0920 C   0  0  2  0  0  0  0  0  0  0  0  0
  141.8160   78.0410  220.6280 C   0  0  0  0  0  0  0  0  0  0  0  0
  141.6020   79.2600  219.9590 C   0  0  0  0  0  0  0  0  0  0  0  0
  141.9440   79.3950  218.6100 C   0  0  0  0  0  0  0  0  0  0  0  0
  142.5010   78.3190  217.9160 C   0  0  0  0  0  0  0  0  0  0  0  0
  142.7180   77.1050  218.5690 C   0  0  0  0  0  0  0  0  0  0  0  0
  142.3790   76.9640  219.9180 C   0  0  0  0  0  0  0  0  0  0  0  0
  138.0325   73.5782  222.6913 H   0  0  0  0  0  0  0  0  0  0  0  0
  137.2180   74.0655  221.1663 H   0  0  0  0  0  0  0  0  0  0  0  0
  138.9749   73.6916  221.1663 H   0  0  0  0  0  0  0  0  0  0  0  0
  140.5823   75.3598  221.6583 H   0  0  0  0  0  0  0  0  0  0  0  0
  138.8815   80.2587  221.9768 H   0  0  0  0  0  0  0  0  0  0  0  0
  138.5725   79.9563  223.7520 H   0  0  0  0  0  0  0  0  0  0  0  0
  140.0489   81.9301  224.1224 H   0  0  0  0  0  0  0  0  0  0  0  0
  142.3951   82.5947  224.6349 H   0  0  0  0  0  0  0  0  0  0  0  0
  144.2869   81.1060  223.9870 H   0  0  0  0  0  0  0  0  0  0  0  0
  143.8380   78.9494  222.8230 H   0  0  0  0  0  0  0  0  0  0  0  0
  142.1011   77.1577  222.5653 H   0  0  0  0  0  0  0  0  0  0  0  0
  141.1633   80.1114  220.5001 H   0  0  0  0  0  0  0  0  0  0  0  0
  141.7738   80.3515  218.0940 H   0  0  0  0  0  0  0  0  0  0  0  0
  142.7687   78.4283  216.8547 H   0  0  0  0  0  0  0  0  0  0  0  0
  143.1565   76.2577  218.0215 H   0  0  0  0  0  0  0  0  0  0  0  0
  142.5534   76.0050  220.4278 H   0  0  0  0  0  0  0  0  0  0  0  0
  1  2  1  0
  2  3  2  0
  3  4  1  0
  4  5  2  0
  5  6  1  0
  6  7  2  0
  6  8  1  0
  5  9  1  0
  9 10  1  0
 10 11  2  0
 11 12  1  0
 12 13  2  0
 13 14  1  0
 14 15  2  0
 15 16  1  0
 16 17  1  0
 17 18  2  0
 18 19  1  0
 19 20  2  0
 20 21  1  0
 21 22  2  0
  8  2  1  0
 15 10  1  0
 22 17  1  0
 16  4  1  0
  1 23  1  0
  1 24  1  0
  1 25  1  0
  3 26  1  0
  9 27  1  0
  9 28  1  0
 11 29  1  0
 12 30  1  0
 13 31  1  0
 14 32  1  0
 16 33  1  1
 18 34  1  0
 19 35  1  0
 20 36  1  0
 21 37  1  0
 22 38  1  0
M  END
>  <UniqueID>  (67) 
19

>  <SMILES>  (67) 
Cc1cc2c(c(=O)o1)Cc1ccccc1[C@@H]2c1ccccc1

>  <Energy>  (67) 
47.71909751364485

>  <Genealogy>  (67) 
Cc1cc2c(c(=O)o1)Cc1ccccc1[C@@H]2c1ccccc1 (chirality)
Cc1cc2c(c(=O)o1)Cc1ccccc1[C@@H]2c1ccccc1 (3D coordinates assigned)
Cc1cc2c(c(=O)o1)Cc1ccccc1[C@@H]2c1ccccc1 (nonaromatic ring conformer: 47.71909751364485 kcal/mol)

>  <smiles>  (67) 
Cc1cc2c(c(=O)o1)Cc1ccccc1C2c1ccccc1

>  <score_type>  (67) 
oracle

>  <origin>  (67) 
autodockgpu

>  <m_score__min__energy>  (67) 
-6.9299999999999997

>  <m_primary>  (67) 
energy

>  <meeko>  (67) 
{"free_energy": -6.93, "intermolecular_energy": -7.23, "internal_energy": -0.76, "cluster_size": 20, "cluster_id": 1, "rank_in_cluster": 17}

>  <energy>  (67) 
-6.93

>  <cluster_rmsd>  (67) 
0.02

>  <rmsd>  (67) 
272.2

>  <cluster>  (67) 
1

$$$$
ZZFUSXOZLWDLQL-IBGZPJMENA-N
     RDKit          3D

 38 41  0  0  0  0  0  0  0  0999 V2000
  138.1610   74.1130  221.7520 C   0  0  0  0  0  0  0  0  0  0  0  0
  138.4650   75.5470  222.0460 C   0  0  0  0  0  0  0  0  0  0  0  0
  139.7750   76.0230  221.9500 C   0  0  0  0  0  0  0  0  0  0  0  0
  140.0380   77.3700  222.2330 C   0  0  0  0  0  0  0  0  0  0  0  0
  138.9720   78.2090  222.6080 C   0  0  0  0  0  0  0  0  0  0  0  0
  137.6760   77.6550  222.6630 C   0  0  0  0  0  0  0  0  0  0  0  0
  136.6870   78.3750  222.9660 O   0  0  0  0  0  0  0  0  0  0  0  0
  137.4800   76.3690  222.3900 O   0  0  0  0  0  0  0  0  0  0  0  0
  139.1850   79.6810  222.8740 C   0  0  0  0  0  0  0  0  0  0  0  0
  140.6140   80.0320  223.2000 C   0  0  0  0  0  0  0  0  0  0  0  0
  140.8840   81.2530  223.8390 C   0  0  0  0  0  0  0  0  0  0  0  0
  142.1990   81.6310  224.1190 C   0  0  0  0  0  0  0  0  0  0  0  0
  143.2570   80.8000  223.7530 C   0  0  0  0  0  0  0  0  0  0  0  0
  143.0040   79.5900  223.1050 C   0  0  0  0  0  0  0  0  0  0  0  0
  141.6850   79.1930  222.8220 C   0  0  0  0  0  0  0  0  0  0  0  0
  141.4500   77.8920  222.0880 C   0  0  2  0  0  0  0  0  0  0  0  0
  141.8190   78.0300  220.6230 C   0  0  0  0  0  0  0  0  0  0  0  0
  141.6080   79.2510  219.9560 C   0  0  0  0  0  0  0  0  0  0  0  0
  141.9470   79.3860  218.6060 C   0  0  0  0  0  0  0  0  0  0  0  0
  142.4970   78.3080  217.9090 C   0  0  0  0  0  0  0  0  0  0  0  0
  142.7100   77.0920  218.5610 C   0  0  0  0  0  0  0  0  0  0  0  0
  142.3740   76.9510  219.9100 C   0  0  0  0  0  0  0  0  0  0  0  0
  138.0441   73.5618  222.6967 H   0  0  0  0  0  0  0  0  0  0  0  0
  137.2290   74.0473  221.1715 H   0  0  0  0  0  0  0  0  0  0  0  0
  138.9862   73.6748  221.1715 H   0  0  0  0  0  0  0  0  0  0  0  0
  140.5915   75.3474  221.6553 H   0  0  0  0  0  0  0  0  0  0  0  0
  138.8838   80.2439  221.9782 H   0  0  0  0  0  0  0  0  0  0  0  0
  138.5787   79.9420  223.7539 H   0  0  0  0  0  0  0  0  0  0  0  0
  140.0534   81.9167  224.1212 H   0  0  0  0  0  0  0  0  0  0  0  0
  142.4001   82.5849  224.6286 H   0  0  0  0  0  0  0  0  0  0  0  0
  144.2922   81.0983  223.9752 H   0  0  0  0  0  0  0  0  0  0  0  0
  143.8433   78.9416  222.8132 H   0  0  0  0  0  0  0  0  0  0  0  0
  142.1074   77.1472  222.5603 H   0  0  0  0  0  0  0  0  0  0  0  0
  141.1742   80.1035  220.4992 H   0  0  0  0  0  0  0  0  0  0  0  0
  141.7800   80.3439  218.0917 H   0  0  0  0  0  0  0  0  0  0  0  0
  142.7622   78.4169  216.8470 H   0  0  0  0  0  0  0  0  0  0  0  0
  143.1432   76.2432  218.0117 H   0  0  0  0  0  0  0  0  0  0  0  0
  142.5444   75.9903  220.4180 H   0  0  0  0  0  0  0  0  0  0  0  0
  1  2  1  0
  2  3  2  0
  3  4  1  0
  4  5  2  0
  5  6  1  0
  6  7  2  0
  6  8  1  0
  5  9  1  0
  9 10  1  0
 10 11  2  0
 11 12  1  0
 12 13  2  0
 13 14  1  0
 14 15  2  0
 15 16  1  0
 16 17  1  0
 17 18  2  0
 18 19  1  0
 19 20  2  0
 20 21  1  0
 21 22  2  0
  8  2  1  0
 15 10  1  0
 22 17  1  0
 16  4  1  0
  1 23  1  0
  1 24  1  0
  1 25  1  0
  3 26  1  0
  9 27  1  0
  9 28  1  0
 11 29  1  0
 12 30  1  0
 13 31  1  0
 14 32  1  0
 16 33  1  1
 18 34  1  0
 19 35  1  0
 20 36  1  0
 21 37  1  0
 22 38  1  0
M  END
>  <UniqueID>  (68) 
19

>  <SMILES>  (68) 
Cc1cc2c(c(=O)o1)Cc1ccccc1[C@@H]2c1ccccc1

>  <Energy>  (68) 
47.71909751364485

>  <Genealogy>  (68) 
Cc1cc2c(c(=O)o1)Cc1ccccc1[C@@H]2c1ccccc1 (chirality)
Cc1cc2c(c(=O)o1)Cc1ccccc1[C@@H]2c1ccccc1 (3D coordinates assigned)
Cc1cc2c(c(=O)o1)Cc1ccccc1[C@@H]2c1ccccc1 (nonaromatic ring conformer: 47.71909751364485 kcal/mol)

>  <smiles>  (68) 
Cc1cc2c(c(=O)o1)Cc1ccccc1C2c1ccccc1

>  <score_type>  (68) 
oracle

>  <origin>  (68) 
autodockgpu

>  <m_score__min__energy>  (68) 
-6.9299999999999997

>  <m_primary>  (68) 
energy

>  <meeko>  (68) 
{"free_energy": -6.93, "intermolecular_energy": -7.23, "internal_energy": -0.76, "cluster_size": 20, "cluster_id": 1, "rank_in_cluster": 8}

>  <energy>  (68) 
-6.93

>  <cluster_rmsd>  (68) 
0.02

>  <rmsd>  (68) 
272.2

>  <cluster>  (68) 
1

$$$$
ZZFUSXOZLWDLQL-IBGZPJMENA-N
     RDKit          3D

 38 41  0  0  0  0  0  0  0  0999 V2000
  138.1600   74.1180  221.7520 C   0  0  0  0  0  0  0  0  0  0  0  0
  138.4630   75.5510  222.0450 C   0  0  0  0  0  0  0  0  0  0  0  0
  139.7740   76.0260  221.9510 C   0  0  0  0  0  0  0  0  0  0  0  0
  140.0380   77.3730  222.2330 C   0  0  0  0  0  0  0  0  0  0  0  0
  138.9720   78.2140  222.6060 C   0  0  0  0  0  0  0  0  0  0  0  0
  137.6760   77.6610  222.6600 C   0  0  0  0  0  0  0  0  0  0  0  0
  136.6860   78.3810  222.9610 O   0  0  0  0  0  0  0  0  0  0  0  0
  137.4790   76.3750  222.3880 O   0  0  0  0  0  0  0  0  0  0  0  0
  139.1860   79.6850  222.8710 C   0  0  0  0  0  0  0  0  0  0  0  0
  140.6140   80.0360  223.1990 C   0  0  0  0  0  0  0  0  0  0  0  0
  140.8840   81.2570  223.8370 C   0  0  0  0  0  0  0  0  0  0  0  0
  142.1990   81.6350  224.1190 C   0  0  0  0  0  0  0  0  0  0  0  0
  143.2570   80.8030  223.7550 C   0  0  0  0  0  0  0  0  0  0  0  0
  143.0040   79.5920  223.1080 C   0  0  0  0  0  0  0  0  0  0  0  0
  141.6850   79.1960  222.8230 C   0  0  0  0  0  0  0  0  0  0  0  0
  141.4510   77.8940  222.0900 C   0  0  2  0  0  0  0  0  0  0  0  0
  141.8210   78.0310  220.6260 C   0  0  0  0  0  0  0  0  0  0  0  0
  141.6090   79.2510  219.9570 C   0  0  0  0  0  0  0  0  0  0  0  0
  141.9500   79.3850  218.6070 C   0  0  0  0  0  0  0  0  0  0  0  0
  142.5040   78.3070  217.9120 C   0  0  0  0  0  0  0  0  0  0  0  0
  142.7180   77.0920  218.5660 C   0  0  0  0  0  0  0  0  0  0  0  0
  142.3800   76.9520  219.9150 C   0  0  0  0  0  0  0  0  0  0  0  0
  138.0435   73.5672  222.6970 H   0  0  0  0  0  0  0  0  0  0  0  0
  137.2280   74.0515  221.1716 H   0  0  0  0  0  0  0  0  0  0  0  0
  138.9854   73.6799  221.1716 H   0  0  0  0  0  0  0  0  0  0  0  0
  140.5904   75.3493  221.6586 H   0  0  0  0  0  0  0  0  0  0  0  0
  138.8866   80.2473  221.9742 H   0  0  0  0  0  0  0  0  0  0  0  0
  138.5788   79.9466  223.7501 H   0  0  0  0  0  0  0  0  0  0  0  0
  140.0534   81.9215  224.1172 H   0  0  0  0  0  0  0  0  0  0  0  0
  142.3998   82.5891  224.6283 H   0  0  0  0  0  0  0  0  0  0  0  0
  144.2921   81.1011  223.9778 H   0  0  0  0  0  0  0  0  0  0  0  0
  143.8432   78.9423  222.8188 H   0  0  0  0  0  0  0  0  0  0  0  0
  142.1077   77.1496  222.5639 H   0  0  0  0  0  0  0  0  0  0  0  0
  141.1729   80.1034  220.4985 H   0  0  0  0  0  0  0  0  0  0  0  0
  141.7815   80.3418  218.0911 H   0  0  0  0  0  0  0  0  0  0  0  0
  142.7714   78.4153  216.8505 H   0  0  0  0  0  0  0  0  0  0  0  0
  143.1535   76.2432  218.0184 H   0  0  0  0  0  0  0  0  0  0  0  0
  142.5519   75.9924  220.4245 H   0  0  0  0  0  0  0  0  0  0  0  0
  1  2  1  0
  2  3  2  0
  3  4  1  0
  4  5  2  0
  5  6  1  0
  6  7  2  0
  6  8  1  0
  5  9  1  0
  9 10  1  0
 10 11  2  0
 11 12  1  0
 12 13  2  0
 13 14  1  0
 14 15  2  0
 15 16  1  0
 16 17  1  0
 17 18  2  0
 18 19  1  0
 19 20  2  0
 20 21  1  0
 21 22  2  0
  8  2  1  0
 15 10  1  0
 22 17  1  0
 16  4  1  0
  1 23  1  0
  1 24  1  0
  1 25  1  0
  3 26  1  0
  9 27  1  0
  9 28  1  0
 11 29  1  0
 12 30  1  0
 13 31  1  0
 14 32  1  0
 16 33  1  1
 18 34  1  0
 19 35  1  0
 20 36  1  0
 21 37  1  0
 22 38  1  0
M  END
>  <UniqueID>  (69) 
19

>  <SMILES>  (69) 
Cc1cc2c(c(=O)o1)Cc1ccccc1[C@@H]2c1ccccc1

>  <Energy>  (69) 
47.71909751364485

>  <Genealogy>  (69) 
Cc1cc2c(c(=O)o1)Cc1ccccc1[C@@H]2c1ccccc1 (chirality)
Cc1cc2c(c(=O)o1)Cc1ccccc1[C@@H]2c1ccccc1 (3D coordinates assigned)
Cc1cc2c(c(=O)o1)Cc1ccccc1[C@@H]2c1ccccc1 (nonaromatic ring conformer: 47.71909751364485 kcal/mol)

>  <smiles>  (69) 
Cc1cc2c(c(=O)o1)Cc1ccccc1C2c1ccccc1

>  <score_type>  (69) 
oracle

>  <origin>  (69) 
autodockgpu

>  <m_score__min__energy>  (69) 
-6.9299999999999997

>  <m_primary>  (69) 
energy

>  <meeko>  (69) 
{"free_energy": -6.93, "intermolecular_energy": -7.23, "internal_energy": -0.76, "cluster_size": 20, "cluster_id": 1, "rank_in_cluster": 11}

>  <energy>  (69) 
-6.93

>  <cluster_rmsd>  (69) 
0.03

>  <rmsd>  (69) 
272.2

>  <cluster>  (69) 
1

$$$$
ZZFUSXOZLWDLQL-IBGZPJMENA-N
     RDKit          3D

 38 41  0  0  0  0  0  0  0  0999 V2000
  138.1520   74.1180  221.7770 C   0  0  0  0  0  0  0  0  0  0  0  0
  138.4580   75.5520  222.0670 C   0  0  0  0  0  0  0  0  0  0  0  0
  139.7690   76.0250  221.9730 C   0  0  0  0  0  0  0  0  0  0  0  0
  140.0350   77.3720  222.2510 C   0  0  0  0  0  0  0  0  0  0  0  0
  138.9700   78.2150  222.6210 C   0  0  0  0  0  0  0  0  0  0  0  0
  137.6730   77.6640  222.6750 C   0  0  0  0  0  0  0  0  0  0  0  0
  136.6840   78.3870  222.9740 O   0  0  0  0  0  0  0  0  0  0  0  0
  137.4740   76.3780  222.4070 O   0  0  0  0  0  0  0  0  0  0  0  0
  139.1860   79.6870  222.8830 C   0  0  0  0  0  0  0  0  0  0  0  0
  140.6150   80.0360  223.2110 C   0  0  0  0  0  0  0  0  0  0  0  0
  140.8870   81.2580  223.8460 C   0  0  0  0  0  0  0  0  0  0  0  0
  142.2020   81.6350  224.1280 C   0  0  0  0  0  0  0  0  0  0  0  0
  143.2590   80.8000  223.7670 C   0  0  0  0  0  0  0  0  0  0  0  0
  143.0050   79.5880  223.1220 C   0  0  0  0  0  0  0  0  0  0  0  0
  141.6850   79.1930  222.8380 C   0  0  0  0  0  0  0  0  0  0  0  0
  141.4490   77.8900  222.1080 C   0  0  2  0  0  0  0  0  0  0  0  0
  141.8210   78.0220  220.6440 C   0  0  0  0  0  0  0  0  0  0  0  0
  141.6430   79.2500  219.9800 C   0  0  0  0  0  0  0  0  0  0  0  0
  141.9850   79.3800  218.6310 C   0  0  0  0  0  0  0  0  0  0  0  0
  142.5060   78.2900  217.9300 C   0  0  0  0  0  0  0  0  0  0  0  0
  142.6860   77.0660  218.5780 C   0  0  0  0  0  0  0  0  0  0  0  0
  142.3460   76.9300  219.9270 C   0  0  0  0  0  0  0  0  0  0  0  0
  138.0349   73.5694  222.7232 H   0  0  0  0  0  0  0  0  0  0  0  0
  137.2196   74.0520  221.1972 H   0  0  0  0  0  0  0  0  0  0  0  0
  138.9763   73.6772  221.1972 H   0  0  0  0  0  0  0  0  0  0  0  0
  140.5847   75.3462  221.6835 H   0  0  0  0  0  0  0  0  0  0  0  0
  138.8880   80.2479  221.9849 H   0  0  0  0  0  0  0  0  0  0  0  0
  138.5786   79.9519  223.7610 H   0  0  0  0  0  0  0  0  0  0  0  0
  140.0572   81.9245  224.1239 H   0  0  0  0  0  0  0  0  0  0  0  0
  142.4038   82.5903  224.6347 H   0  0  0  0  0  0  0  0  0  0  0  0
  144.2944   81.0967  223.9907 H   0  0  0  0  0  0  0  0  0  0  0  0
  143.8435   78.9370  222.8337 H   0  0  0  0  0  0  0  0  0  0  0  0
  142.1038   77.1456  222.5846 H   0  0  0  0  0  0  0  0  0  0  0  0
  141.2324   80.1124  220.5257 H   0  0  0  0  0  0  0  0  0  0  0  0
  141.8434   80.3437  218.1198 H   0  0  0  0  0  0  0  0  0  0  0  0
  142.7743   78.3956  216.8684 H   0  0  0  0  0  0  0  0  0  0  0  0
  143.0961   76.2075  218.0259 H   0  0  0  0  0  0  0  0  0  0  0  0
  142.4896   75.9633  220.4318 H   0  0  0  0  0  0  0  0  0  0  0  0
  1  2  1  0
  2  3  2  0
  3  4  1  0
  4  5  2  0
  5  6  1  0
  6  7  2  0
  6  8  1  0
  5  9  1  0
  9 10  1  0
 10 11  2  0
 11 12  1  0
 12 13  2  0
 13 14  1  0
 14 15  2  0
 15 16  1  0
 16 17  1  0
 17 18  2  0
 18 19  1  0
 19 20  2  0
 20 21  1  0
 21 22  2  0
  8  2  1  0
 15 10  1  0
 22 17  1  0
 16  4  1  0
  1 23  1  0
  1 24  1  0
  1 25  1  0
  3 26  1  0
  9 27  1  0
  9 28  1  0
 11 29  1  0
 12 30  1  0
 13 31  1  0
 14 32  1  0
 16 33  1  1
 18 34  1  0
 19 35  1  0
 20 36  1  0
 21 37  1  0
 22 38  1  0
M  END
>  <UniqueID>  (70) 
19

>  <SMILES>  (70) 
Cc1cc2c(c(=O)o1)Cc1ccccc1[C@@H]2c1ccccc1

>  <Energy>  (70) 
47.71909751364485

>  <Genealogy>  (70) 
Cc1cc2c(c(=O)o1)Cc1ccccc1[C@@H]2c1ccccc1 (chirality)
Cc1cc2c(c(=O)o1)Cc1ccccc1[C@@H]2c1ccccc1 (3D coordinates assigned)
Cc1cc2c(c(=O)o1)Cc1ccccc1[C@@H]2c1ccccc1 (nonaromatic ring conformer: 47.71909751364485 kcal/mol)

>  <smiles>  (70) 
Cc1cc2c(c(=O)o1)Cc1ccccc1C2c1ccccc1

>  <score_type>  (70) 
oracle

>  <origin>  (70) 
autodockgpu

>  <m_score__min__energy>  (70) 
-6.9299999999999997

>  <m_primary>  (70) 
energy

>  <meeko>  (70) 
{"free_energy": -6.93, "intermolecular_energy": -7.23, "internal_energy": -0.76, "cluster_size": 20, "cluster_id": 1, "rank_in_cluster": 1}

>  <energy>  (70) 
-6.93

>  <cluster_rmsd>  (70) 
0.03

>  <rmsd>  (70) 
272.2

>  <cluster>  (70) 
1

$$$$
ZZFUSXOZLWDLQL-IBGZPJMENA-N
     RDKit          3D

 38 41  0  0  0  0  0  0  0  0999 V2000
  138.1610   74.1120  221.7570 C   0  0  0  0  0  0  0  0  0  0  0  0
  138.4630   75.5460  222.0510 C   0  0  0  0  0  0  0  0  0  0  0  0
  139.7730   76.0230  221.9570 C   0  0  0  0  0  0  0  0  0  0  0  0
  140.0350   77.3700  222.2380 C   0  0  0  0  0  0  0  0  0  0  0  0
  138.9680   78.2090  222.6110 C   0  0  0  0  0  0  0  0  0  0  0  0
  137.6730   77.6550  222.6650 C   0  0  0  0  0  0  0  0  0  0  0  0
  136.6820   78.3740  222.9660 O   0  0  0  0  0  0  0  0  0  0  0  0
  137.4770   76.3690  222.3930 O   0  0  0  0  0  0  0  0  0  0  0  0
  139.1800   79.6810  222.8770 C   0  0  0  0  0  0  0  0  0  0  0  0
  140.6080   80.0330  223.2040 C   0  0  0  0  0  0  0  0  0  0  0  0
  140.8760   81.2550  223.8430 C   0  0  0  0  0  0  0  0  0  0  0  0
  142.1910   81.6340  224.1250 C   0  0  0  0  0  0  0  0  0  0  0  0
  143.2500   80.8030  223.7620 C   0  0  0  0  0  0  0  0  0  0  0  0
  142.9990   79.5920  223.1140 C   0  0  0  0  0  0  0  0  0  0  0  0
  141.6800   79.1950  222.8290 C   0  0  0  0  0  0  0  0  0  0  0  0
  141.4470   77.8930  222.0960 C   0  0  2  0  0  0  0  0  0  0  0  0
  141.8180   78.0300  220.6320 C   0  0  0  0  0  0  0  0  0  0  0  0
  141.5980   79.2470  219.9610 C   0  0  0  0  0  0  0  0  0  0  0  0
  141.9400   79.3810  218.6110 C   0  0  0  0  0  0  0  0  0  0  0  0
  142.5010   78.3060  217.9190 C   0  0  0  0  0  0  0  0  0  0  0  0
  142.7230   77.0940  218.5740 C   0  0  0  0  0  0  0  0  0  0  0  0
  142.3840   76.9530  219.9230 C   0  0  0  0  0  0  0  0  0  0  0  0
  138.0449   73.5606  222.7017 H   0  0  0  0  0  0  0  0  0  0  0  0
  137.2291   74.0451  221.1765 H   0  0  0  0  0  0  0  0  0  0  0  0
  138.9868   73.6749  221.1765 H   0  0  0  0  0  0  0  0  0  0  0  0
  140.5905   75.3473  221.6652 H   0  0  0  0  0  0  0  0  0  0  0  0
  138.8791   80.2436  221.9809 H   0  0  0  0  0  0  0  0  0  0  0  0
  138.5729   79.9416  223.7565 H   0  0  0  0  0  0  0  0  0  0  0  0
  140.0445   81.9184  224.1234 H   0  0  0  0  0  0  0  0  0  0  0  0
  142.3908   82.5886  224.6337 H   0  0  0  0  0  0  0  0  0  0  0  0
  144.2846   81.1018  223.9864 H   0  0  0  0  0  0  0  0  0  0  0  0
  143.8390   78.9436  222.8242 H   0  0  0  0  0  0  0  0  0  0  0  0
  142.1039   77.1494  222.5710 H   0  0  0  0  0  0  0  0  0  0  0  0
  141.1550   80.0972  220.5004 H   0  0  0  0  0  0  0  0  0  0  0  0
  141.7664   80.3359  218.0934 H   0  0  0  0  0  0  0  0  0  0  0  0
  142.7680   78.4144  216.8574 H   0  0  0  0  0  0  0  0  0  0  0  0
  143.1656   76.2479  218.0279 H   0  0  0  0  0  0  0  0  0  0  0  0
  142.5605   75.9949  220.4337 H   0  0  0  0  0  0  0  0  0  0  0  0
  1  2  1  0
  2  3  2  0
  3  4  1  0
  4  5  2  0
  5  6  1  0
  6  7  2  0
  6  8  1  0
  5  9  1  0
  9 10  1  0
 10 11  2  0
 11 12  1  0
 12 13  2  0
 13 14  1  0
 14 15  2  0
 15 16  1  0
 16 17  1  0
 17 18  2  0
 18 19  1  0
 19 20  2  0
 20 21  1  0
 21 22  2  0
  8  2  1  0
 15 10  1  0
 22 17  1  0
 16  4  1  0
  1 23  1  0
  1 24  1  0
  1 25  1  0
  3 26  1  0
  9 27  1  0
  9 28  1  0
 11 29  1  0
 12 30  1  0
 13 31  1  0
 14 32  1  0
 16 33  1  1
 18 34  1  0
 19 35  1  0
 20 36  1  0
 21 37  1  0
 22 38  1  0
M  END
>  <UniqueID>  (71) 
19

>  <SMILES>  (71) 
Cc1cc2c(c(=O)o1)Cc1ccccc1[C@@H]2c1ccccc1

>  <Energy>  (71) 
47.71909751364485

>  <Genealogy>  (71) 
Cc1cc2c(c(=O)o1)Cc1ccccc1[C@@H]2c1ccccc1 (chirality)
Cc1cc2c(c(=O)o1)Cc1ccccc1[C@@H]2c1ccccc1 (3D coordinates assigned)
Cc1cc2c(c(=O)o1)Cc1ccccc1[C@@H]2c1ccccc1 (nonaromatic ring conformer: 47.71909751364485 kcal/mol)

>  <smiles>  (71) 
Cc1cc2c(c(=O)o1)Cc1ccccc1C2c1ccccc1

>  <score_type>  (71) 
oracle

>  <origin>  (71) 
autodockgpu

>  <m_score__min__energy>  (71) 
-6.9299999999999997

>  <m_primary>  (71) 
energy

>  <meeko>  (71) 
{"free_energy": -6.93, "intermolecular_energy": -7.23, "internal_energy": -0.76, "cluster_size": 20, "cluster_id": 1, "rank_in_cluster": 16}

>  <energy>  (71) 
-6.93

>  <cluster_rmsd>  (71) 
0.02

>  <rmsd>  (71) 
272.2

>  <cluster>  (71) 
1

$$$$
ZZFUSXOZLWDLQL-IBGZPJMENA-N
     RDKit          3D

 38 41  0  0  0  0  0  0  0  0999 V2000
  138.1540   74.1150  221.7840 C   0  0  0  0  0  0  0  0  0  0  0  0
  138.4590   75.5490  222.0720 C   0  0  0  0  0  0  0  0  0  0  0  0
  139.7700   76.0230  221.9770 C   0  0  0  0  0  0  0  0  0  0  0  0
  140.0340   77.3710  222.2540 C   0  0  0  0  0  0  0  0  0  0  0  0
  138.9680   78.2130  222.6230 C   0  0  0  0  0  0  0  0  0  0  0  0
  137.6720   77.6610  222.6780 C   0  0  0  0  0  0  0  0  0  0  0  0
  136.6830   78.3830  222.9770 O   0  0  0  0  0  0  0  0  0  0  0  0
  137.4740   76.3740  222.4110 O   0  0  0  0  0  0  0  0  0  0  0  0
  139.1830   79.6850  222.8840 C   0  0  0  0  0  0  0  0  0  0  0  0
  140.6120   80.0360  223.2110 C   0  0  0  0  0  0  0  0  0  0  0  0
  140.8830   81.2590  223.8450 C   0  0  0  0  0  0  0  0  0  0  0  0
  142.1970   81.6370  224.1260 C   0  0  0  0  0  0  0  0  0  0  0  0
  143.2550   80.8030  223.7660 C   0  0  0  0  0  0  0  0  0  0  0  0
  143.0020   79.5900  223.1230 C   0  0  0  0  0  0  0  0  0  0  0  0
  141.6830   79.1940  222.8390 C   0  0  0  0  0  0  0  0  0  0  0  0
  141.4480   77.8900  222.1100 C   0  0  2  0  0  0  0  0  0  0  0  0
  141.8190   78.0210  220.6460 C   0  0  0  0  0  0  0  0  0  0  0  0
  141.6270   79.2440  219.9770 C   0  0  0  0  0  0  0  0  0  0  0  0
  141.9700   79.3730  218.6280 C   0  0  0  0  0  0  0  0  0  0  0  0
  142.5040   78.2860  217.9320 C   0  0  0  0  0  0  0  0  0  0  0  0
  142.6980   77.0670  218.5850 C   0  0  0  0  0  0  0  0  0  0  0  0
  142.3590   76.9330  219.9340 C   0  0  0  0  0  0  0  0  0  0  0  0
  138.0376   73.5675  222.7310 H   0  0  0  0  0  0  0  0  0  0  0  0
  137.2215   74.0477  221.2045 H   0  0  0  0  0  0  0  0  0  0  0  0
  138.9784   73.6740  221.2045 H   0  0  0  0  0  0  0  0  0  0  0  0
  140.5864   75.3449  221.6878 H   0  0  0  0  0  0  0  0  0  0  0  0
  138.8839   80.2451  221.9858 H   0  0  0  0  0  0  0  0  0  0  0  0
  138.5761   79.9495  223.7624 H   0  0  0  0  0  0  0  0  0  0  0  0
  140.0527   81.9250  224.1227 H   0  0  0  0  0  0  0  0  0  0  0  0
  142.3980   82.5930  224.6316 H   0  0  0  0  0  0  0  0  0  0  0  0
  144.2901   81.1012  223.9889 H   0  0  0  0  0  0  0  0  0  0  0  0
  143.8410   78.9389  222.8363 H   0  0  0  0  0  0  0  0  0  0  0  0
  142.1038   77.1467  222.5868 H   0  0  0  0  0  0  0  0  0  0  0  0
  141.2047   80.1033  220.5186 H   0  0  0  0  0  0  0  0  0  0  0  0
  141.8190   80.3332  218.1131 H   0  0  0  0  0  0  0  0  0  0  0  0
  142.7715   78.3902  216.8701 H   0  0  0  0  0  0  0  0  0  0  0  0
  143.1183   76.2110  218.0367 H   0  0  0  0  0  0  0  0  0  0  0  0
  142.5151   75.9706  220.4433 H   0  0  0  0  0  0  0  0  0  0  0  0
  1  2  1  0
  2  3  2  0
  3  4  1  0
  4  5  2  0
  5  6  1  0
  6  7  2  0
  6  8  1  0
  5  9  1  0
  9 10  1  0
 10 11  2  0
 11 12  1  0
 12 13  2  0
 13 14  1  0
 14 15  2  0
 15 16  1  0
 16 17  1  0
 17 18  2  0
 18 19  1  0
 19 20  2  0
 20 21  1  0
 21 22  2  0
  8  2  1  0
 15 10  1  0
 22 17  1  0
 16  4  1  0
  1 23  1  0
  1 24  1  0
  1 25  1  0
  3 26  1  0
  9 27  1  0
  9 28  1  0
 11 29  1  0
 12 30  1  0
 13 31  1  0
 14 32  1  0
 16 33  1  1
 18 34  1  0
 19 35  1  0
 20 36  1  0
 21 37  1  0
 22 38  1  0
M  END
>  <UniqueID>  (72) 
19

>  <SMILES>  (72) 
Cc1cc2c(c(=O)o1)Cc1ccccc1[C@@H]2c1ccccc1

>  <Energy>  (72) 
47.71909751364485

>  <Genealogy>  (72) 
Cc1cc2c(c(=O)o1)Cc1ccccc1[C@@H]2c1ccccc1 (chirality)
Cc1cc2c(c(=O)o1)Cc1ccccc1[C@@H]2c1ccccc1 (3D coordinates assigned)
Cc1cc2c(c(=O)o1)Cc1ccccc1[C@@H]2c1ccccc1 (nonaromatic ring conformer: 47.71909751364485 kcal/mol)

>  <smiles>  (72) 
Cc1cc2c(c(=O)o1)Cc1ccccc1C2c1ccccc1

>  <score_type>  (72) 
oracle

>  <origin>  (72) 
autodockgpu

>  <m_score__min__energy>  (72) 
-6.9299999999999997

>  <m_primary>  (72) 
energy

>  <meeko>  (72) 
{"free_energy": -6.93, "intermolecular_energy": -7.23, "internal_energy": -0.76, "cluster_size": 20, "cluster_id": 1, "rank_in_cluster": 4}

>  <energy>  (72) 
-6.93

>  <cluster_rmsd>  (72) 
0.02

>  <rmsd>  (72) 
272.2

>  <cluster>  (72) 
1

$$$$
ZZFUSXOZLWDLQL-IBGZPJMENA-N
     RDKit          3D

 38 41  0  0  0  0  0  0  0  0999 V2000
  138.1590   74.1150  221.7530 C   0  0  0  0  0  0  0  0  0  0  0  0
  138.4630   75.5480  222.0470 C   0  0  0  0  0  0  0  0  0  0  0  0
  139.7740   76.0240  221.9530 C   0  0  0  0  0  0  0  0  0  0  0  0
  140.0370   77.3700  222.2350 C   0  0  0  0  0  0  0  0  0  0  0  0
  138.9710   78.2100  222.6090 C   0  0  0  0  0  0  0  0  0  0  0  0
  137.6760   77.6570  222.6640 C   0  0  0  0  0  0  0  0  0  0  0  0
  136.6860   78.3770  222.9660 O   0  0  0  0  0  0  0  0  0  0  0  0
  137.4780   76.3720  222.3910 O   0  0  0  0  0  0  0  0  0  0  0  0
  139.1860   79.6820  222.8760 C   0  0  0  0  0  0  0  0  0  0  0  0
  140.6140   80.0320  223.2030 C   0  0  0  0  0  0  0  0  0  0  0  0
  140.8850   81.2530  223.8420 C   0  0  0  0  0  0  0  0  0  0  0  0
  142.1990   81.6310  224.1230 C   0  0  0  0  0  0  0  0  0  0  0  0
  143.2580   80.7990  223.7580 C   0  0  0  0  0  0  0  0  0  0  0  0
  143.0040   79.5890  223.1100 C   0  0  0  0  0  0  0  0  0  0  0  0
  141.6850   79.1930  222.8260 C   0  0  0  0  0  0  0  0  0  0  0  0
  141.4500   77.8910  222.0920 C   0  0  2  0  0  0  0  0  0  0  0  0
  141.8200   78.0300  220.6270 C   0  0  0  0  0  0  0  0  0  0  0  0
  141.6110   79.2510  219.9600 C   0  0  0  0  0  0  0  0  0  0  0  0
  141.9510   79.3860  218.6110 C   0  0  0  0  0  0  0  0  0  0  0  0
  142.5000   78.3070  217.9140 C   0  0  0  0  0  0  0  0  0  0  0  0
  142.7110   77.0910  218.5650 C   0  0  0  0  0  0  0  0  0  0  0  0
  142.3740   76.9500  219.9140 C   0  0  0  0  0  0  0  0  0  0  0  0
  138.0420   73.5637  222.6977 H   0  0  0  0  0  0  0  0  0  0  0  0
  137.2270   74.0495  221.1724 H   0  0  0  0  0  0  0  0  0  0  0  0
  138.9842   73.6767  221.1724 H   0  0  0  0  0  0  0  0  0  0  0  0
  140.5908   75.3479  221.6604 H   0  0  0  0  0  0  0  0  0  0  0  0
  138.8859   80.2456  221.9803 H   0  0  0  0  0  0  0  0  0  0  0  0
  138.5798   79.9427  223.7561 H   0  0  0  0  0  0  0  0  0  0  0  0
  140.0545   81.9172  224.1235 H   0  0  0  0  0  0  0  0  0  0  0  0
  142.3997   82.5851  224.6324 H   0  0  0  0  0  0  0  0  0  0  0  0
  144.2932   81.0967  223.9809 H   0  0  0  0  0  0  0  0  0  0  0  0
  143.8429   78.9397  222.8190 H   0  0  0  0  0  0  0  0  0  0  0  0
  142.1061   77.1456  222.5652 H   0  0  0  0  0  0  0  0  0  0  0  0
  141.1777   80.1039  220.5030 H   0  0  0  0  0  0  0  0  0  0  0  0
  141.7859   80.3443  218.0969 H   0  0  0  0  0  0  0  0  0  0  0  0
  142.7659   78.4159  216.8522 H   0  0  0  0  0  0  0  0  0  0  0  0
  143.1434   76.2418  218.0155 H   0  0  0  0  0  0  0  0  0  0  0  0
  142.5427   75.9890  220.4219 H   0  0  0  0  0  0  0  0  0  0  0  0
  1  2  1  0
  2  3  2  0
  3  4  1  0
  4  5  2  0
  5  6  1  0
  6  7  2  0
  6  8  1  0
  5  9  1  0
  9 10  1  0
 10 11  2  0
 11 12  1  0
 12 13  2  0
 13 14  1  0
 14 15  2  0
 15 16  1  0
 16 17  1  0
 17 18  2  0
 18 19  1  0
 19 20  2  0
 20 21  1  0
 21 22  2  0
  8  2  1  0
 15 10  1  0
 22 17  1  0
 16  4  1  0
  1 23  1  0
  1 24  1  0
  1 25  1  0
  3 26  1  0
  9 27  1  0
  9 28  1  0
 11 29  1  0
 12 30  1  0
 13 31  1  0
 14 32  1  0
 16 33  1  1
 18 34  1  0
 19 35  1  0
 20 36  1  0
 21 37  1  0
 22 38  1  0
M  END
>  <UniqueID>  (73) 
19

>  <SMILES>  (73) 
Cc1cc2c(c(=O)o1)Cc1ccccc1[C@@H]2c1ccccc1

>  <Energy>  (73) 
47.71909751364485

>  <Genealogy>  (73) 
Cc1cc2c(c(=O)o1)Cc1ccccc1[C@@H]2c1ccccc1 (chirality)
Cc1cc2c(c(=O)o1)Cc1ccccc1[C@@H]2c1ccccc1 (3D coordinates assigned)
Cc1cc2c(c(=O)o1)Cc1ccccc1[C@@H]2c1ccccc1 (nonaromatic ring conformer: 47.71909751364485 kcal/mol)

>  <smiles>  (73) 
Cc1cc2c(c(=O)o1)Cc1ccccc1C2c1ccccc1

>  <score_type>  (73) 
oracle

>  <origin>  (73) 
autodockgpu

>  <m_score__min__energy>  (73) 
-6.9299999999999997

>  <m_primary>  (73) 
energy

>  <meeko>  (73) 
{"free_energy": -6.93, "intermolecular_energy": -7.23, "internal_energy": -0.76, "cluster_size": 20, "cluster_id": 1, "rank_in_cluster": 7}

>  <energy>  (73) 
-6.93

>  <cluster_rmsd>  (73) 
0.03

>  <rmsd>  (73) 
272.21

>  <cluster>  (73) 
1

$$$$
ZZFUSXOZLWDLQL-IBGZPJMENA-N
     RDKit          3D

 38 41  0  0  0  0  0  0  0  0999 V2000
  138.1630   74.1160  221.7710 C   0  0  0  0  0  0  0  0  0  0  0  0
  138.4650   75.5500  222.0650 C   0  0  0  0  0  0  0  0  0  0  0  0
  139.7740   76.0280  221.9660 C   0  0  0  0  0  0  0  0  0  0  0  0
  140.0360   77.3750  222.2470 C   0  0  0  0  0  0  0  0  0  0  0  0
  138.9690   78.2130  222.6250 C   0  0  0  0  0  0  0  0  0  0  0  0
  137.6750   77.6570  222.6830 C   0  0  0  0  0  0  0  0  0  0  0  0
  136.6850   78.3740  222.9890 O   0  0  0  0  0  0  0  0  0  0  0  0
  137.4800   76.3710  222.4110 O   0  0  0  0  0  0  0  0  0  0  0  0
  139.1810   79.6840  222.8910 C   0  0  0  0  0  0  0  0  0  0  0  0
  140.6100   80.0380  223.2120 C   0  0  0  0  0  0  0  0  0  0  0  0
  140.8800   81.2600  223.8510 C   0  0  0  0  0  0  0  0  0  0  0  0
  142.1940   81.6400  224.1280 C   0  0  0  0  0  0  0  0  0  0  0  0
  143.2530   80.8110  223.7590 C   0  0  0  0  0  0  0  0  0  0  0  0
  143.0010   79.6000  223.1120 C   0  0  0  0  0  0  0  0  0  0  0  0
  141.6810   79.2010  222.8320 C   0  0  0  0  0  0  0  0  0  0  0  0
  141.4470   77.8990  222.0990 C   0  0  2  0  0  0  0  0  0  0  0  0
  141.8120   78.0380  220.6330 C   0  0  0  0  0  0  0  0  0  0  0  0
  141.5870   79.2550  219.9640 C   0  0  0  0  0  0  0  0  0  0  0  0
  141.9230   79.3910  218.6130 C   0  0  0  0  0  0  0  0  0  0  0  0
  142.4830   78.3170  217.9170 C   0  0  0  0  0  0  0  0  0  0  0  0
  142.7090   77.1040  218.5710 C   0  0  0  0  0  0  0  0  0  0  0  0
  142.3770   76.9630  219.9210 C   0  0  0  0  0  0  0  0  0  0  0  0
  138.0469   73.5646  222.7157 H   0  0  0  0  0  0  0  0  0  0  0  0
  137.2311   74.0491  221.1905 H   0  0  0  0  0  0  0  0  0  0  0  0
  138.9888   73.6789  221.1905 H   0  0  0  0  0  0  0  0  0  0  0  0
  140.5908   75.3532  221.6703 H   0  0  0  0  0  0  0  0  0  0  0  0
  138.8755   80.2469  221.9967 H   0  0  0  0  0  0  0  0  0  0  0  0
  138.5779   79.9429  223.7738 H   0  0  0  0  0  0  0  0  0  0  0  0
  140.0491   81.9224  224.1352 H   0  0  0  0  0  0  0  0  0  0  0  0
  142.3945   82.5939  224.6377 H   0  0  0  0  0  0  0  0  0  0  0  0
  144.2882   81.1118  223.9781 H   0  0  0  0  0  0  0  0  0  0  0  0
  143.8407   78.9527  222.8188 H   0  0  0  0  0  0  0  0  0  0  0  0
  142.1067   77.1553  222.5699 H   0  0  0  0  0  0  0  0  0  0  0  0
  141.1447   80.1038  220.5061 H   0  0  0  0  0  0  0  0  0  0  0  0
  141.7458   80.3463  218.0972 H   0  0  0  0  0  0  0  0  0  0  0  0
  142.7458   78.4267  216.8545 H   0  0  0  0  0  0  0  0  0  0  0  0
  143.1491   76.2581  218.0225 H   0  0  0  0  0  0  0  0  0  0  0  0
  142.5584   76.0054  220.4309 H   0  0  0  0  0  0  0  0  0  0  0  0
  1  2  1  0
  2  3  2  0
  3  4  1  0
  4  5  2  0
  5  6  1  0
  6  7  2  0
  6  8  1  0
  5  9  1  0
  9 10  1  0
 10 11  2  0
 11 12  1  0
 12 13  2  0
 13 14  1  0
 14 15  2  0
 15 16  1  0
 16 17  1  0
 17 18  2  0
 18 19  1  0
 19 20  2  0
 20 21  1  0
 21 22  2  0
  8  2  1  0
 15 10  1  0
 22 17  1  0
 16  4  1  0
  1 23  1  0
  1 24  1  0
  1 25  1  0
  3 26  1  0
  9 27  1  0
  9 28  1  0
 11 29  1  0
 12 30  1  0
 13 31  1  0
 14 32  1  0
 16 33  1  1
 18 34  1  0
 19 35  1  0
 20 36  1  0
 21 37  1  0
 22 38  1  0
M  END
>  <UniqueID>  (74) 
19

>  <SMILES>  (74) 
Cc1cc2c(c(=O)o1)Cc1ccccc1[C@@H]2c1ccccc1

>  <Energy>  (74) 
47.71909751364485

>  <Genealogy>  (74) 
Cc1cc2c(c(=O)o1)Cc1ccccc1[C@@H]2c1ccccc1 (chirality)
Cc1cc2c(c(=O)o1)Cc1ccccc1[C@@H]2c1ccccc1 (3D coordinates assigned)
Cc1cc2c(c(=O)o1)Cc1ccccc1[C@@H]2c1ccccc1 (nonaromatic ring conformer: 47.71909751364485 kcal/mol)

>  <smiles>  (74) 
Cc1cc2c(c(=O)o1)Cc1ccccc1C2c1ccccc1

>  <score_type>  (74) 
oracle

>  <origin>  (74) 
autodockgpu

>  <m_score__min__energy>  (74) 
-6.9299999999999997

>  <m_primary>  (74) 
energy

>  <meeko>  (74) 
{"free_energy": -6.93, "intermolecular_energy": -7.23, "internal_energy": -0.76, "cluster_size": 20, "cluster_id": 1, "rank_in_cluster": 18}

>  <energy>  (74) 
-6.93

>  <cluster_rmsd>  (74) 
0.03

>  <rmsd>  (74) 
272.2

>  <cluster>  (74) 
1

$$$$
ZZFUSXOZLWDLQL-IBGZPJMENA-N
     RDKit          3D

 38 41  0  0  0  0  0  0  0  0999 V2000
  138.1620   74.1230  221.7480 C   0  0  0  0  0  0  0  0  0  0  0  0
  138.4650   75.5560  222.0430 C   0  0  0  0  0  0  0  0  0  0  0  0
  139.7750   76.0320  221.9500 C   0  0  0  0  0  0  0  0  0  0  0  0
  140.0380   77.3790  222.2320 C   0  0  0  0  0  0  0  0  0  0  0  0
  138.9710   78.2180  222.6050 C   0  0  0  0  0  0  0  0  0  0  0  0
  137.6760   77.6650  222.6580 C   0  0  0  0  0  0  0  0  0  0  0  0
  136.6850   78.3840  222.9590 O   0  0  0  0  0  0  0  0  0  0  0  0
  137.4790   76.3790  222.3850 O   0  0  0  0  0  0  0  0  0  0  0  0
  139.1840   79.6900  222.8720 C   0  0  0  0  0  0  0  0  0  0  0  0
  140.6120   80.0410  223.2010 C   0  0  0  0  0  0  0  0  0  0  0  0
  140.8810   81.2620  223.8400 C   0  0  0  0  0  0  0  0  0  0  0  0
  142.1950   81.6400  224.1230 C   0  0  0  0  0  0  0  0  0  0  0  0
  143.2540   80.8090  223.7600 C   0  0  0  0  0  0  0  0  0  0  0  0
  143.0030   79.5990  223.1110 C   0  0  0  0  0  0  0  0  0  0  0  0
  141.6840   79.2020  222.8250 C   0  0  0  0  0  0  0  0  0  0  0  0
  141.4510   77.9010  222.0910 C   0  0  2  0  0  0  0  0  0  0  0  0
  141.8220   78.0390  220.6270 C   0  0  0  0  0  0  0  0  0  0  0  0
  141.6060   79.2570  219.9570 C   0  0  0  0  0  0  0  0  0  0  0  0
  141.9480   79.3920  218.6080 C   0  0  0  0  0  0  0  0  0  0  0  0
  142.5070   78.3160  217.9140 C   0  0  0  0  0  0  0  0  0  0  0  0
  142.7250   77.1030  218.5690 C   0  0  0  0  0  0  0  0  0  0  0  0
  142.3860   76.9620  219.9170 C   0  0  0  0  0  0  0  0  0  0  0  0
  138.0453   73.5710  222.6923 H   0  0  0  0  0  0  0  0  0  0  0  0
  137.2301   74.0573  221.1673 H   0  0  0  0  0  0  0  0  0  0  0  0
  138.9875   73.6857  221.1673 H   0  0  0  0  0  0  0  0  0  0  0  0
  140.5921   75.3559  221.6582 H   0  0  0  0  0  0  0  0  0  0  0  0
  138.8847   80.2532  221.9758 H   0  0  0  0  0  0  0  0  0  0  0  0
  138.5762   79.9505  223.7510 H   0  0  0  0  0  0  0  0  0  0  0  0
  140.0499   81.9261  224.1199 H   0  0  0  0  0  0  0  0  0  0  0  0
  142.3948   82.5941  224.6327 H   0  0  0  0  0  0  0  0  0  0  0  0
  144.2885   81.1073  223.9853 H   0  0  0  0  0  0  0  0  0  0  0  0
  143.8431   78.9508  222.8209 H   0  0  0  0  0  0  0  0  0  0  0  0
  142.1077   77.1569  222.5654 H   0  0  0  0  0  0  0  0  0  0  0  0
  141.1656   80.1079  220.4974 H   0  0  0  0  0  0  0  0  0  0  0  0
  141.7764   80.3480  218.0917 H   0  0  0  0  0  0  0  0  0  0  0  0
  142.7750   78.4247  216.8527 H   0  0  0  0  0  0  0  0  0  0  0  0
  143.1649   76.2558  218.0225 H   0  0  0  0  0  0  0  0  0  0  0  0
  142.5609   76.0032  220.4270 H   0  0  0  0  0  0  0  0  0  0  0  0
  1  2  1  0
  2  3  2  0
  3  4  1  0
  4  5  2  0
  5  6  1  0
  6  7  2  0
  6  8  1  0
  5  9  1  0
  9 10  1  0
 10 11  2  0
 11 12  1  0
 12 13  2  0
 13 14  1  0
 14 15  2  0
 15 16  1  0
 16 17  1  0
 17 18  2  0
 18 19  1  0
 19 20  2  0
 20 21  1  0
 21 22  2  0
  8  2  1  0
 15 10  1  0
 22 17  1  0
 16  4  1  0
  1 23  1  0
  1 24  1  0
  1 25  1  0
  3 26  1  0
  9 27  1  0
  9 28  1  0
 11 29  1  0
 12 30  1  0
 13 31  1  0
 14 32  1  0
 16 33  1  1
 18 34  1  0
 19 35  1  0
 20 36  1  0
 21 37  1  0
 22 38  1  0
M  END
>  <UniqueID>  (75) 
19

>  <SMILES>  (75) 
Cc1cc2c(c(=O)o1)Cc1ccccc1[C@@H]2c1ccccc1

>  <Energy>  (75) 
47.71909751364485

>  <Genealogy>  (75) 
Cc1cc2c(c(=O)o1)Cc1ccccc1[C@@H]2c1ccccc1 (chirality)
Cc1cc2c(c(=O)o1)Cc1ccccc1[C@@H]2c1ccccc1 (3D coordinates assigned)
Cc1cc2c(c(=O)o1)Cc1ccccc1[C@@H]2c1ccccc1 (nonaromatic ring conformer: 47.71909751364485 kcal/mol)

>  <smiles>  (75) 
Cc1cc2c(c(=O)o1)Cc1ccccc1C2c1ccccc1

>  <score_type>  (75) 
oracle

>  <origin>  (75) 
autodockgpu

>  <m_score__min__energy>  (75) 
-6.9299999999999997

>  <m_primary>  (75) 
energy

>  <meeko>  (75) 
{"free_energy": -6.93, "intermolecular_energy": -7.23, "internal_energy": -0.76, "cluster_size": 20, "cluster_id": 1, "rank_in_cluster": 9}

>  <energy>  (75) 
-6.93

>  <cluster_rmsd>  (75) 
0.03

>  <rmsd>  (75) 
272.2

>  <cluster>  (75) 
1

$$$$
ZZFUSXOZLWDLQL-IBGZPJMENA-N
     RDKit          3D

 38 41  0  0  0  0  0  0  0  0999 V2000
  138.1600   74.1150  221.7640 C   0  0  0  0  0  0  0  0  0  0  0  0
  138.4620   75.5500  222.0550 C   0  0  0  0  0  0  0  0  0  0  0  0
  139.7730   76.0260  221.9610 C   0  0  0  0  0  0  0  0  0  0  0  0
  140.0350   77.3730  222.2400 C   0  0  0  0  0  0  0  0  0  0  0  0
  138.9680   78.2130  222.6110 C   0  0  0  0  0  0  0  0  0  0  0  0
  137.6720   77.6600  222.6650 C   0  0  0  0  0  0  0  0  0  0  0  0
  136.6820   78.3790  222.9640 O   0  0  0  0  0  0  0  0  0  0  0  0
  137.4760   76.3730  222.3950 O   0  0  0  0  0  0  0  0  0  0  0  0
  139.1810   79.6850  222.8740 C   0  0  0  0  0  0  0  0  0  0  0  0
  140.6080   80.0380  223.2010 C   0  0  0  0  0  0  0  0  0  0  0  0
  140.8770   81.2610  223.8370 C   0  0  0  0  0  0  0  0  0  0  0  0
  142.1920   81.6400  224.1190 C   0  0  0  0  0  0  0  0  0  0  0  0
  143.2510   80.8080  223.7580 C   0  0  0  0  0  0  0  0  0  0  0  0
  142.9990   79.5960  223.1120 C   0  0  0  0  0  0  0  0  0  0  0  0
  141.6800   79.1980  222.8280 C   0  0  0  0  0  0  0  0  0  0  0  0
  141.4480   77.8950  222.0970 C   0  0  2  0  0  0  0  0  0  0  0  0
  141.8190   78.0300  220.6320 C   0  0  0  0  0  0  0  0  0  0  0  0
  141.6020   79.2460  219.9600 C   0  0  0  0  0  0  0  0  0  0  0  0
  141.9430   79.3780  218.6100 C   0  0  0  0  0  0  0  0  0  0  0  0
  142.5020   78.3010  217.9190 C   0  0  0  0  0  0  0  0  0  0  0  0
  142.7220   77.0880  218.5760 C   0  0  0  0  0  0  0  0  0  0  0  0
  142.3830   76.9510  219.9250 C   0  0  0  0  0  0  0  0  0  0  0  0
  138.0444   73.5655  222.7099 H   0  0  0  0  0  0  0  0  0  0  0  0
  137.2278   74.0468  221.1840 H   0  0  0  0  0  0  0  0  0  0  0  0
  138.9856   73.6768  221.1840 H   0  0  0  0  0  0  0  0  0  0  0  0
  140.5904   75.3494  221.6709 H   0  0  0  0  0  0  0  0  0  0  0  0
  138.8808   80.2457  221.9765 H   0  0  0  0  0  0  0  0  0  0  0  0
  138.5740   79.9471  223.7531 H   0  0  0  0  0  0  0  0  0  0  0  0
  140.0459   81.9257  224.1153 H   0  0  0  0  0  0  0  0  0  0  0  0
  142.3919   82.5954  224.6262 H   0  0  0  0  0  0  0  0  0  0  0  0
  144.2857   81.1066  223.9822 H   0  0  0  0  0  0  0  0  0  0  0  0
  143.8388   78.9471  222.8228 H   0  0  0  0  0  0  0  0  0  0  0  0
  142.1053   77.1520  222.5723 H   0  0  0  0  0  0  0  0  0  0  0  0
  141.1618   80.0979  220.4989 H   0  0  0  0  0  0  0  0  0  0  0  0
  141.7704   80.3326  218.0913 H   0  0  0  0  0  0  0  0  0  0  0  0
  142.7691   78.4078  216.8573 H   0  0  0  0  0  0  0  0  0  0  0  0
  143.1624   76.2399  218.0312 H   0  0  0  0  0  0  0  0  0  0  0  0
  142.5580   75.9937  220.4378 H   0  0  0  0  0  0  0  0  0  0  0  0
  1  2  1  0
  2  3  2  0
  3  4  1  0
  4  5  2  0
  5  6  1  0
  6  7  2  0
  6  8  1  0
  5  9  1  0
  9 10  1  0
 10 11  2  0
 11 12  1  0
 12 13  2  0
 13 14  1  0
 14 15  2  0
 15 16  1  0
 16 17  1  0
 17 18  2  0
 18 19  1  0
 19 20  2  0
 20 21  1  0
 21 22  2  0
  8  2  1  0
 15 10  1  0
 22 17  1  0
 16  4  1  0
  1 23  1  0
  1 24  1  0
  1 25  1  0
  3 26  1  0
  9 27  1  0
  9 28  1  0
 11 29  1  0
 12 30  1  0
 13 31  1  0
 14 32  1  0
 16 33  1  1
 18 34  1  0
 19 35  1  0
 20 36  1  0
 21 37  1  0
 22 38  1  0
M  END
>  <UniqueID>  (76) 
19

>  <SMILES>  (76) 
Cc1cc2c(c(=O)o1)Cc1ccccc1[C@@H]2c1ccccc1

>  <Energy>  (76) 
47.71909751364485

>  <Genealogy>  (76) 
Cc1cc2c(c(=O)o1)Cc1ccccc1[C@@H]2c1ccccc1 (chirality)
Cc1cc2c(c(=O)o1)Cc1ccccc1[C@@H]2c1ccccc1 (3D coordinates assigned)
Cc1cc2c(c(=O)o1)Cc1ccccc1[C@@H]2c1ccccc1 (nonaromatic ring conformer: 47.71909751364485 kcal/mol)

>  <smiles>  (76) 
Cc1cc2c(c(=O)o1)Cc1ccccc1C2c1ccccc1

>  <score_type>  (76) 
oracle

>  <origin>  (76) 
autodockgpu

>  <m_score__min__energy>  (76) 
-6.9299999999999997

>  <m_primary>  (76) 
energy

>  <meeko>  (76) 
{"free_energy": -6.93, "intermolecular_energy": -7.23, "internal_energy": -0.76, "cluster_size": 20, "cluster_id": 1, "rank_in_cluster": 12}

>  <energy>  (76) 
-6.93

>  <cluster_rmsd>  (76) 
0.02

>  <rmsd>  (76) 
272.2

>  <cluster>  (76) 
1

$$$$
ZZFUSXOZLWDLQL-IBGZPJMENA-N
     RDKit          3D

 38 41  0  0  0  0  0  0  0  0999 V2000
  138.1790   74.0990  221.7600 C   0  0  0  0  0  0  0  0  0  0  0  0
  138.4750   75.5340  222.0540 C   0  0  0  0  0  0  0  0  0  0  0  0
  139.7830   76.0160  221.9610 C   0  0  0  0  0  0  0  0  0  0  0  0
  140.0390   77.3640  222.2420 C   0  0  0  0  0  0  0  0  0  0  0  0
  138.9680   78.1990  222.6130 C   0  0  0  0  0  0  0  0  0  0  0  0
  137.6760   77.6400  222.6650 C   0  0  0  0  0  0  0  0  0  0  0  0
  136.6820   78.3550  222.9650 O   0  0  0  0  0  0  0  0  0  0  0  0
  137.4850   76.3530  222.3940 O   0  0  0  0  0  0  0  0  0  0  0  0
  139.1750   79.6720  222.8780 C   0  0  0  0  0  0  0  0  0  0  0  0
  140.6010   80.0300  223.2070 C   0  0  0  0  0  0  0  0  0  0  0  0
  140.8640   81.2530  223.8450 C   0  0  0  0  0  0  0  0  0  0  0  0
  142.1760   81.6380  224.1290 C   0  0  0  0  0  0  0  0  0  0  0  0
  143.2390   80.8110  223.7670 C   0  0  0  0  0  0  0  0  0  0  0  0
  142.9940   79.5990  223.1200 C   0  0  0  0  0  0  0  0  0  0  0  0
  141.6770   79.1960  222.8330 C   0  0  0  0  0  0  0  0  0  0  0  0
  141.4500   77.8920  222.1010 C   0  0  2  0  0  0  0  0  0  0  0  0
  141.8220   78.0300  220.6370 C   0  0  0  0  0  0  0  0  0  0  0  0
  141.6030   79.2470  219.9660 C   0  0  0  0  0  0  0  0  0  0  0  0
  141.9450   79.3820  218.6170 C   0  0  0  0  0  0  0  0  0  0  0  0
  142.5070   78.3070  217.9240 C   0  0  0  0  0  0  0  0  0  0  0  0
  142.7280   77.0940  218.5790 C   0  0  0  0  0  0  0  0  0  0  0  0
  142.3890   76.9540  219.9280 C   0  0  0  0  0  0  0  0  0  0  0  0
  138.0652   73.5471  222.7047 H   0  0  0  0  0  0  0  0  0  0  0  0
  137.2474   74.0283  221.1794 H   0  0  0  0  0  0  0  0  0  0  0  0
  139.0066   73.6654  221.1794 H   0  0  0  0  0  0  0  0  0  0  0  0
  140.6035   75.3436  221.6700 H   0  0  0  0  0  0  0  0  0  0  0  0
  138.8736   80.2327  221.9809 H   0  0  0  0  0  0  0  0  0  0  0  0
  138.5660   79.9309  223.7567 H   0  0  0  0  0  0  0  0  0  0  0  0
  140.0295   81.9134  224.1234 H   0  0  0  0  0  0  0  0  0  0  0  0
  142.3710   82.5934  224.6381 H   0  0  0  0  0  0  0  0  0  0  0  0
  144.2721   81.1145  223.9918 H   0  0  0  0  0  0  0  0  0  0  0  0
  143.8371   78.9538  222.8322 H   0  0  0  0  0  0  0  0  0  0  0  0
  142.1089   77.1509  222.5770 H   0  0  0  0  0  0  0  0  0  0  0  0
  141.1602   80.0971  220.5057 H   0  0  0  0  0  0  0  0  0  0  0  0
  141.7711   80.3372  218.1000 H   0  0  0  0  0  0  0  0  0  0  0  0
  142.7753   78.4162  216.8628 H   0  0  0  0  0  0  0  0  0  0  0  0
  143.1694   76.2473  218.0329 H   0  0  0  0  0  0  0  0  0  0  0  0
  142.5666   75.9963  220.4391 H   0  0  0  0  0  0  0  0  0  0  0  0
  1  2  1  0
  2  3  2  0
  3  4  1  0
  4  5  2  0
  5  6  1  0
  6  7  2  0
  6  8  1  0
  5  9  1  0
  9 10  1  0
 10 11  2  0
 11 12  1  0
 12 13  2  0
 13 14  1  0
 14 15  2  0
 15 16  1  0
 16 17  1  0
 17 18  2  0
 18 19  1  0
 19 20  2  0
 20 21  1  0
 21 22  2  0
  8  2  1  0
 15 10  1  0
 22 17  1  0
 16  4  1  0
  1 23  1  0
  1 24  1  0
  1 25  1  0
  3 26  1  0
  9 27  1  0
  9 28  1  0
 11 29  1  0
 12 30  1  0
 13 31  1  0
 14 32  1  0
 16 33  1  1
 18 34  1  0
 19 35  1  0
 20 36  1  0
 21 37  1  0
 22 38  1  0
M  END
>  <UniqueID>  (77) 
19

>  <SMILES>  (77) 
Cc1cc2c(c(=O)o1)Cc1ccccc1[C@@H]2c1ccccc1

>  <Energy>  (77) 
47.71909751364485

>  <Genealogy>  (77) 
Cc1cc2c(c(=O)o1)Cc1ccccc1[C@@H]2c1ccccc1 (chirality)
Cc1cc2c(c(=O)o1)Cc1ccccc1[C@@H]2c1ccccc1 (3D coordinates assigned)
Cc1cc2c(c(=O)o1)Cc1ccccc1[C@@H]2c1ccccc1 (nonaromatic ring conformer: 47.71909751364485 kcal/mol)

>  <smiles>  (77) 
Cc1cc2c(c(=O)o1)Cc1ccccc1C2c1ccccc1

>  <score_type>  (77) 
oracle

>  <origin>  (77) 
autodockgpu

>  <m_score__min__energy>  (77) 
-6.9299999999999997

>  <m_primary>  (77) 
energy

>  <meeko>  (77) 
{"free_energy": -6.93, "intermolecular_energy": -7.23, "internal_energy": -0.76, "cluster_size": 20, "cluster_id": 1, "rank_in_cluster": 14}

>  <energy>  (77) 
-6.93

>  <cluster_rmsd>  (77) 
0.03

>  <rmsd>  (77) 
272.2

>  <cluster>  (77) 
1

$$$$
ZZFUSXOZLWDLQL-IBGZPJMENA-N
     RDKit          3D

 38 41  0  0  0  0  0  0  0  0999 V2000
  138.1620   74.1140  221.7730 C   0  0  0  0  0  0  0  0  0  0  0  0
  138.4640   75.5490  222.0640 C   0  0  0  0  0  0  0  0  0  0  0  0
  139.7750   76.0250  221.9710 C   0  0  0  0  0  0  0  0  0  0  0  0
  140.0370   77.3730  222.2500 C   0  0  0  0  0  0  0  0  0  0  0  0
  138.9700   78.2130  222.6180 C   0  0  0  0  0  0  0  0  0  0  0  0
  137.6740   77.6590  222.6710 C   0  0  0  0  0  0  0  0  0  0  0  0
  136.6830   78.3800  222.9680 O   0  0  0  0  0  0  0  0  0  0  0  0
  137.4780   76.3730  222.4020 O   0  0  0  0  0  0  0  0  0  0  0  0
  139.1820   79.6850  222.8800 C   0  0  0  0  0  0  0  0  0  0  0  0
  140.6090   80.0380  223.2100 C   0  0  0  0  0  0  0  0  0  0  0  0
  140.8770   81.2610  223.8450 C   0  0  0  0  0  0  0  0  0  0  0  0
  142.1910   81.6410  224.1290 C   0  0  0  0  0  0  0  0  0  0  0  0
  143.2510   80.8080  223.7700 C   0  0  0  0  0  0  0  0  0  0  0  0
  143.0000   79.5960  223.1250 C   0  0  0  0  0  0  0  0  0  0  0  0
  141.6820   79.1980  222.8380 C   0  0  0  0  0  0  0  0  0  0  0  0
  141.4500   77.8940  222.1080 C   0  0  2  0  0  0  0  0  0  0  0  0
  141.8230   78.0280  220.6440 C   0  0  0  0  0  0  0  0  0  0  0  0
  141.6250   79.2490  219.9750 C   0  0  0  0  0  0  0  0  0  0  0  0
  141.9690   79.3800  218.6260 C   0  0  0  0  0  0  0  0  0  0  0  0
  142.5120   78.2960  217.9320 C   0  0  0  0  0  0  0  0  0  0  0  0
  142.7120   77.0790  218.5850 C   0  0  0  0  0  0  0  0  0  0  0  0
  142.3710   76.9420  219.9340 C   0  0  0  0  0  0  0  0  0  0  0  0
  138.0464   73.5645  222.7189 H   0  0  0  0  0  0  0  0  0  0  0  0
  137.2298   74.0458  221.1930 H   0  0  0  0  0  0  0  0  0  0  0  0
  138.9876   73.6759  221.1930 H   0  0  0  0  0  0  0  0  0  0  0  0
  140.5926   75.3483  221.6818 H   0  0  0  0  0  0  0  0  0  0  0  0
  138.8839   80.2449  221.9813 H   0  0  0  0  0  0  0  0  0  0  0  0
  138.5728   79.9482  223.7573 H   0  0  0  0  0  0  0  0  0  0  0  0
  140.0453   81.9258  224.1213 H   0  0  0  0  0  0  0  0  0  0  0  0
  142.3898   82.5969  224.6356 H   0  0  0  0  0  0  0  0  0  0  0  0
  144.2854   81.1067  223.9955 H   0  0  0  0  0  0  0  0  0  0  0  0
  143.8403   78.9465  222.8387 H   0  0  0  0  0  0  0  0  0  0  0  0
  142.1058   77.1506  222.5847 H   0  0  0  0  0  0  0  0  0  0  0  0
  141.1971   80.1059  220.5160 H   0  0  0  0  0  0  0  0  0  0  0  0
  141.8117   80.3387  218.1101 H   0  0  0  0  0  0  0  0  0  0  0  0
  142.7819   78.4017  216.8709 H   0  0  0  0  0  0  0  0  0  0  0  0
  143.1388   76.2258  218.0373 H   0  0  0  0  0  0  0  0  0  0  0  0
  142.5316   75.9806  220.4437 H   0  0  0  0  0  0  0  0  0  0  0  0
  1  2  1  0
  2  3  2  0
  3  4  1  0
  4  5  2  0
  5  6  1  0
  6  7  2  0
  6  8  1  0
  5  9  1  0
  9 10  1  0
 10 11  2  0
 11 12  1  0
 12 13  2  0
 13 14  1  0
 14 15  2  0
 15 16  1  0
 16 17  1  0
 17 18  2  0
 18 19  1  0
 19 20  2  0
 20 21  1  0
 21 22  2  0
  8  2  1  0
 15 10  1  0
 22 17  1  0
 16  4  1  0
  1 23  1  0
  1 24  1  0
  1 25  1  0
  3 26  1  0
  9 27  1  0
  9 28  1  0
 11 29  1  0
 12 30  1  0
 13 31  1  0
 14 32  1  0
 16 33  1  1
 18 34  1  0
 19 35  1  0
 20 36  1  0
 21 37  1  0
 22 38  1  0
M  END
>  <UniqueID>  (78) 
19

>  <SMILES>  (78) 
Cc1cc2c(c(=O)o1)Cc1ccccc1[C@@H]2c1ccccc1

>  <Energy>  (78) 
47.71909751364485

>  <Genealogy>  (78) 
Cc1cc2c(c(=O)o1)Cc1ccccc1[C@@H]2c1ccccc1 (chirality)
Cc1cc2c(c(=O)o1)Cc1ccccc1[C@@H]2c1ccccc1 (3D coordinates assigned)
Cc1cc2c(c(=O)o1)Cc1ccccc1[C@@H]2c1ccccc1 (nonaromatic ring conformer: 47.71909751364485 kcal/mol)

>  <smiles>  (78) 
Cc1cc2c(c(=O)o1)Cc1ccccc1C2c1ccccc1

>  <score_type>  (78) 
oracle

>  <origin>  (78) 
autodockgpu

>  <m_score__min__energy>  (78) 
-6.9299999999999997

>  <m_primary>  (78) 
energy

>  <meeko>  (78) 
{"free_energy": -6.93, "intermolecular_energy": -7.23, "internal_energy": -0.76, "cluster_size": 20, "cluster_id": 1, "rank_in_cluster": 3}

>  <energy>  (78) 
-6.93

>  <cluster_rmsd>  (78) 
0.03

>  <rmsd>  (78) 
272.21

>  <cluster>  (78) 
1

$$$$
ZZFUSXOZLWDLQL-IBGZPJMENA-N
     RDKit          3D

 38 41  0  0  0  0  0  0  0  0999 V2000
  138.1480   74.1230  221.7770 C   0  0  0  0  0  0  0  0  0  0  0  0
  138.4540   75.5570  222.0670 C   0  0  0  0  0  0  0  0  0  0  0  0
  139.7660   76.0290  221.9720 C   0  0  0  0  0  0  0  0  0  0  0  0
  140.0320   77.3770  222.2490 C   0  0  0  0  0  0  0  0  0  0  0  0
  138.9670   78.2200  222.6190 C   0  0  0  0  0  0  0  0  0  0  0  0
  137.6700   77.6700  222.6740 C   0  0  0  0  0  0  0  0  0  0  0  0
  136.6820   78.3930  222.9730 O   0  0  0  0  0  0  0  0  0  0  0  0
  137.4710   76.3830  222.4060 O   0  0  0  0  0  0  0  0  0  0  0  0
  139.1840   79.6920  222.8800 C   0  0  0  0  0  0  0  0  0  0  0  0
  140.6130   80.0410  223.2070 C   0  0  0  0  0  0  0  0  0  0  0  0
  140.8850   81.2640  223.8420 C   0  0  0  0  0  0  0  0  0  0  0  0
  142.2000   81.6400  224.1230 C   0  0  0  0  0  0  0  0  0  0  0  0
  143.2570   80.8050  223.7630 C   0  0  0  0  0  0  0  0  0  0  0  0
  143.0020   79.5930  223.1190 C   0  0  0  0  0  0  0  0  0  0  0  0
  141.6820   79.1980  222.8350 C   0  0  0  0  0  0  0  0  0  0  0  0
  141.4460   77.8940  222.1050 C   0  0  2  0  0  0  0  0  0  0  0  0
  141.8170   78.0270  220.6410 C   0  0  0  0  0  0  0  0  0  0  0  0
  142.3530   76.9260  219.9480 C   0  0  0  0  0  0  0  0  0  0  0  0
  142.6960   77.0400  218.5970 C   0  0  0  0  0  0  0  0  0  0  0  0
  142.5090   78.2500  217.9250 C   0  0  0  0  0  0  0  0  0  0  0  0
  141.9780   79.3490  218.6030 C   0  0  0  0  0  0  0  0  0  0  0  0
  141.6330   79.2410  219.9530 C   0  0  0  0  0  0  0  0  0  0  0  0
  138.0309   73.5744  222.7232 H   0  0  0  0  0  0  0  0  0  0  0  0
  137.2156   74.0571  221.1972 H   0  0  0  0  0  0  0  0  0  0  0  0
  138.9723   73.6822  221.1972 H   0  0  0  0  0  0  0  0  0  0  0  0
  140.5814   75.3497  221.6829 H   0  0  0  0  0  0  0  0  0  0  0  0
  138.8857   80.2524  221.9817 H   0  0  0  0  0  0  0  0  0  0  0  0
  138.5774   79.9574  223.7584 H   0  0  0  0  0  0  0  0  0  0  0  0
  140.0555   81.9308  224.1201 H   0  0  0  0  0  0  0  0  0  0  0  0
  142.4022   82.5957  224.6288 H   0  0  0  0  0  0  0  0  0  0  0  0
  144.2924   81.1015  223.9866 H   0  0  0  0  0  0  0  0  0  0  0  0
  143.8402   78.9414  222.8312 H   0  0  0  0  0  0  0  0  0  0  0  0
  142.1009   77.1490  222.5805 H   0  0  0  0  0  0  0  0  0  0  0  0
  142.5031   75.9704  220.4717 H   0  0  0  0  0  0  0  0  0  0  0  0
  143.1141   76.1744  218.0623 H   0  0  0  0  0  0  0  0  0  0  0  0
  142.7799   78.3371  216.8624 H   0  0  0  0  0  0  0  0  0  0  0  0
  141.8309   80.3019  218.0735 H   0  0  0  0  0  0  0  0  0  0  0  0
  141.2149   80.1105  220.4813 H   0  0  0  0  0  0  0  0  0  0  0  0
  1  2  1  0
  2  3  2  0
  3  4  1  0
  4  5  2  0
  5  6  1  0
  6  7  2  0
  6  8  1  0
  5  9  1  0
  9 10  1  0
 10 11  2  0
 11 12  1  0
 12 13  2  0
 13 14  1  0
 14 15  2  0
 15 16  1  0
 16 17  1  0
 17 18  2  0
 18 19  1  0
 19 20  2  0
 20 21  1  0
 21 22  2  0
  8  2  1  0
 15 10  1  0
 22 17  1  0
 16  4  1  0
  1 23  1  0
  1 24  1  0
  1 25  1  0
  3 26  1  0
  9 27  1  0
  9 28  1  0
 11 29  1  0
 12 30  1  0
 13 31  1  0
 14 32  1  0
 16 33  1  1
 18 34  1  0
 19 35  1  0
 20 36  1  0
 21 37  1  0
 22 38  1  0
M  END
>  <UniqueID>  (79) 
19

>  <SMILES>  (79) 
Cc1cc2c(c(=O)o1)Cc1ccccc1[C@@H]2c1ccccc1

>  <Energy>  (79) 
47.71909751364485

>  <Genealogy>  (79) 
Cc1cc2c(c(=O)o1)Cc1ccccc1[C@@H]2c1ccccc1 (chirality)
Cc1cc2c(c(=O)o1)Cc1ccccc1[C@@H]2c1ccccc1 (3D coordinates assigned)
Cc1cc2c(c(=O)o1)Cc1ccccc1[C@@H]2c1ccccc1 (nonaromatic ring conformer: 47.71909751364485 kcal/mol)

>  <smiles>  (79) 
Cc1cc2c(c(=O)o1)Cc1ccccc1C2c1ccccc1

>  <score_type>  (79) 
oracle

>  <origin>  (79) 
autodockgpu

>  <m_score__min__energy>  (79) 
-6.9299999999999997

>  <m_primary>  (79) 
energy

>  <meeko>  (79) 
{"free_energy": -6.93, "intermolecular_energy": -7.23, "internal_energy": -0.76, "cluster_size": 20, "cluster_id": 1, "rank_in_cluster": 5}

>  <energy>  (79) 
-6.93

>  <cluster_rmsd>  (79) 
0.03

>  <rmsd>  (79) 
272.21

>  <cluster>  (79) 
1

$$$$
ZZFUSXOZLWDLQL-IBGZPJMENA-N
     RDKit          3D

 38 41  0  0  0  0  0  0  0  0999 V2000
  138.1640   74.1120  221.7720 C   0  0  0  0  0  0  0  0  0  0  0  0
  138.4660   75.5470  222.0640 C   0  0  0  0  0  0  0  0  0  0  0  0
  139.7760   76.0230  221.9680 C   0  0  0  0  0  0  0  0  0  0  0  0
  140.0380   77.3710  222.2480 C   0  0  0  0  0  0  0  0  0  0  0  0
  138.9710   78.2100  222.6200 C   0  0  0  0  0  0  0  0  0  0  0  0
  137.6760   77.6560  222.6740 C   0  0  0  0  0  0  0  0  0  0  0  0
  136.6850   78.3750  222.9750 O   0  0  0  0  0  0  0  0  0  0  0  0
  137.4800   76.3690  222.4050 O   0  0  0  0  0  0  0  0  0  0  0  0
  139.1830   79.6830  222.8830 C   0  0  0  0  0  0  0  0  0  0  0  0
  140.6110   80.0360  223.2090 C   0  0  0  0  0  0  0  0  0  0  0  0
  140.8800   81.2590  223.8460 C   0  0  0  0  0  0  0  0  0  0  0  0
  142.1940   81.6380  224.1270 C   0  0  0  0  0  0  0  0  0  0  0  0
  143.2530   80.8070  223.7640 C   0  0  0  0  0  0  0  0  0  0  0  0
  143.0020   79.5950  223.1190 C   0  0  0  0  0  0  0  0  0  0  0  0
  141.6830   79.1970  222.8350 C   0  0  0  0  0  0  0  0  0  0  0  0
  141.4510   77.8930  222.1040 C   0  0  2  0  0  0  0  0  0  0  0  0
  141.8210   78.0290  220.6390 C   0  0  0  0  0  0  0  0  0  0  0  0
  142.3530   76.9280  219.9430 C   0  0  0  0  0  0  0  0  0  0  0  0
  142.6940   77.0460  218.5920 C   0  0  0  0  0  0  0  0  0  0  0  0
  142.5100   78.2580  217.9230 C   0  0  0  0  0  0  0  0  0  0  0  0
  141.9830   79.3570  218.6050 C   0  0  0  0  0  0  0  0  0  0  0  0
  141.6390   79.2460  219.9550 C   0  0  0  0  0  0  0  0  0  0  0  0
  138.0482   73.5619  222.7175 H   0  0  0  0  0  0  0  0  0  0  0  0
  137.2319   74.0442  221.1918 H   0  0  0  0  0  0  0  0  0  0  0  0
  138.9897   73.6742  221.1918 H   0  0  0  0  0  0  0  0  0  0  0  0
  140.5931   75.3470  221.6758 H   0  0  0  0  0  0  0  0  0  0  0  0
  138.8819   80.2437  221.9858 H   0  0  0  0  0  0  0  0  0  0  0  0
  138.5761   79.9453  223.7622 H   0  0  0  0  0  0  0  0  0  0  0  0
  140.0489   81.9231  224.1255 H   0  0  0  0  0  0  0  0  0  0  0  0
  142.3939   82.5929  224.6351 H   0  0  0  0  0  0  0  0  0  0  0  0
  144.2877   81.1070  223.9863 H   0  0  0  0  0  0  0  0  0  0  0  0
  143.8420   78.9460  222.8305 H   0  0  0  0  0  0  0  0  0  0  0  0
  142.1084   77.1496  222.5786 H   0  0  0  0  0  0  0  0  0  0  0  0
  142.5013   75.9705  220.4637 H   0  0  0  0  0  0  0  0  0  0  0  0
  143.1088   76.1808  218.0541 H   0  0  0  0  0  0  0  0  0  0  0  0
  142.7798   78.3470  216.8603 H   0  0  0  0  0  0  0  0  0  0  0  0
  141.8384   80.3119  218.0785 H   0  0  0  0  0  0  0  0  0  0  0  0
  141.2235   80.1149  220.4864 H   0  0  0  0  0  0  0  0  0  0  0  0
  1  2  1  0
  2  3  2  0
  3  4  1  0
  4  5  2  0
  5  6  1  0
  6  7  2  0
  6  8  1  0
  5  9  1  0
  9 10  1  0
 10 11  2  0
 11 12  1  0
 12 13  2  0
 13 14  1  0
 14 15  2  0
 15 16  1  0
 16 17  1  0
 17 18  2  0
 18 19  1  0
 19 20  2  0
 20 21  1  0
 21 22  2  0
  8  2  1  0
 15 10  1  0
 22 17  1  0
 16  4  1  0
  1 23  1  0
  1 24  1  0
  1 25  1  0
  3 26  1  0
  9 27  1  0
  9 28  1  0
 11 29  1  0
 12 30  1  0
 13 31  1  0
 14 32  1  0
 16 33  1  1
 18 34  1  0
 19 35  1  0
 20 36  1  0
 21 37  1  0
 22 38  1  0
M  END
>  <UniqueID>  (80) 
19

>  <SMILES>  (80) 
Cc1cc2c(c(=O)o1)Cc1ccccc1[C@@H]2c1ccccc1

>  <Energy>  (80) 
47.71909751364485

>  <Genealogy>  (80) 
Cc1cc2c(c(=O)o1)Cc1ccccc1[C@@H]2c1ccccc1 (chirality)
Cc1cc2c(c(=O)o1)Cc1ccccc1[C@@H]2c1ccccc1 (3D coordinates assigned)
Cc1cc2c(c(=O)o1)Cc1ccccc1[C@@H]2c1ccccc1 (nonaromatic ring conformer: 47.71909751364485 kcal/mol)

>  <smiles>  (80) 
Cc1cc2c(c(=O)o1)Cc1ccccc1C2c1ccccc1

>  <score_type>  (80) 
oracle

>  <origin>  (80) 
autodockgpu

>  <m_score__min__energy>  (80) 
-6.9299999999999997

>  <m_primary>  (80) 
energy

>  <meeko>  (80) 
{"free_energy": -6.93, "intermolecular_energy": -7.23, "internal_energy": -0.76, "cluster_size": 20, "cluster_id": 1, "rank_in_cluster": 2}

>  <energy>  (80) 
-6.93

>  <cluster_rmsd>  (80) 
0.04

>  <rmsd>  (80) 
272.2

>  <cluster>  (80) 
1

$$$$
