
     RDKit          3D

 55 58  0  0  0  0  0  0  0  0999 V2000
  139.6540   73.7110  222.3800 O   0  0  0  0  0  0  0  0  0  0  0  0
  140.3060   72.6480  222.3950 C   0  0  0  0  0  0  0  0  0  0  0  0
  141.1710   72.4050  221.2740 N   0  0  0  0  0  0  0  0  0  0  0  0
  141.2760   73.3460  220.1880 C   0  0  0  0  0  0  0  0  0  0  0  0
  142.1590   74.5070  220.5450 C   0  0  0  0  0  0  0  0  0  0  0  0
  143.3540   74.3950  220.8470 O   0  0  0  0  0  0  0  0  0  0  0  0
  141.5400   75.8110  220.5230 N   0  0  0  0  0  0  0  0  0  0  0  0
  141.4730   76.7160  219.3810 C   0  0  0  0  0  0  0  0  0  0  0  0
  141.5570   78.0860  220.0210 C   0  0  0  0  0  0  0  0  0  0  0  0
  141.4710   77.8800  221.5210 C   0  0  0  0  0  0  0  0  0  0  0  0
  140.8600   76.4870  221.6120 C   0  0  1  0  0  0  0  0  0  0  0  0
  139.3980   76.5640  221.3900 C   0  0  0  0  0  0  0  0  0  0  0  0
  138.8130   77.5990  221.7960 O   0  0  0  0  0  0  0  0  0  0  0  0
  138.7410   75.4830  220.7440 N   0  0  0  0  0  0  0  0  0  0  0  0
  137.3210   75.4400  220.4790 C   0  0  0  0  0  0  0  0  0  0  0  0
  136.6050   75.3460  221.7610 C   0  0  0  0  0  0  0  0  0  0  0  0
  136.0820   76.4130  222.4550 C   0  0  0  0  0  0  0  0  0  0  0  0
  135.4330   76.1820  223.6590 C   0  0  0  0  0  0  0  0  0  0  0  0
  135.2930   74.9050  224.1900 C   0  0  0  0  0  0  0  0  0  0  0  0
  134.4620   74.6400  225.7260 Cl  0  0  0  0  0  0  0  0  0  0  0  0
  135.8150   73.8460  223.4960 C   0  0  0  0  0  0  0  0  0  0  0  0
  135.6790   72.1890  224.0980 Cl  0  0  0  0  0  0  0  0  0  0  0  0
  136.4610   74.0610  222.2990 C   0  0  0  0  0  0  0  0  0  0  0  0
  140.2060   71.6860  223.4890 C   0  0  0  0  0  0  0  0  0  0  0  0
  139.5630   70.4880  223.2400 C   0  0  0  0  0  0  0  0  0  0  0  0
  139.4100   69.5120  224.2020 C   0  0  0  0  0  0  0  0  0  0  0  0
  139.9290   69.7550  225.4630 C   0  0  0  0  0  0  0  0  0  0  0  0
  139.8070   68.8120  226.4690 C   0  0  0  0  0  0  0  0  0  0  0  0
  140.3330   69.0930  227.6990 C   0  0  0  0  0  0  0  0  0  0  0  0
  140.2140   68.1670  228.6890 F   0  0  0  0  0  0  0  0  0  0  0  0
  140.9800   70.2830  227.9690 C   0  0  0  0  0  0  0  0  0  0  0  0
  141.1050   71.2290  226.9700 C   0  0  0  0  0  0  0  0  0  0  0  0
  140.5750   70.9630  225.7060 C   0  0  0  0  0  0  0  0  0  0  0  0
  140.6940   71.8920  224.7130 N   0  0  0  0  0  0  0  0  0  0  0  0
  141.7110   71.5040  221.3130 H   0  0  0  0  0  0  0  0  0  0  0  0
  141.6979   72.8332  219.3111 H   0  0  0  0  0  0  0  0  0  0  0  0
  140.2698   73.7336  219.9705 H   0  0  0  0  0  0  0  0  0  0  0  0
  142.3163   76.5486  218.6949 H   0  0  0  0  0  0  0  0  0  0  0  0
  140.5664   76.5781  218.7734 H   0  0  0  0  0  0  0  0  0  0  0  0
  142.5110   78.5673  219.7598 H   0  0  0  0  0  0  0  0  0  0  0  0
  140.7433   78.7357  219.6664 H   0  0  0  0  0  0  0  0  0  0  0  0
  142.4669   77.9113  221.9870 H   0  0  0  0  0  0  0  0  0  0  0  0
  140.8911   78.6549  222.0437 H   0  0  0  0  0  0  0  0  0  0  0  0
  140.9789   75.9817  222.5818 H   0  0  0  0  0  0  0  0  0  0  0  0
  139.3510   74.6650  220.4440 H   0  0  0  0  0  0  0  0  0  0  0  0
  137.0152   76.3549  219.9503 H   0  0  0  0  0  0  0  0  0  0  0  0
  137.0828   74.5684  219.8517 H   0  0  0  0  0  0  0  0  0  0  0  0
  136.1773   77.4353  222.0603 H   0  0  0  0  0  0  0  0  0  0  0  0
  135.0157   77.0369  224.2113 H   0  0  0  0  0  0  0  0  0  0  0  0
  136.8746   73.2013  221.7513 H   0  0  0  0  0  0  0  0  0  0  0  0
  139.1570   70.3059  222.2340 H   0  0  0  0  0  0  0  0  0  0  0  0
  138.8914   68.5689  223.9748 H   0  0  0  0  0  0  0  0  0  0  0  0
  139.2969   67.8555  226.2823 H   0  0  0  0  0  0  0  0  0  0  0  0
  141.3921   70.4758  228.9705 H   0  0  0  0  0  0  0  0  0  0  0  0
  141.6169   72.1822  227.1684 H   0  0  0  0  0  0  0  0  0  0  0  0
  1  2  2  0
  2  3  1  0
  3  4  1  0
  4  5  1  0
  5  6  2  0
  5  7  1  0
  7  8  1  0
  8  9  1  0
  9 10  1  0
 10 11  1  0
 11 12  1  0
 12 13  2  0
 12 14  1  0
 14 15  1  0
 15 16  1  0
 16 17  2  0
 17 18  1  0
 18 19  2  0
 19 20  1  0
 19 21  1  0
 21 22  1  0
 21 23  2  0
  2 24  1  0
 24 25  2  0
 25 26  1  0
 26 27  2  0
 27 28  1  0
 28 29  2  0
 29 30  1  0
 29 31  1  0
 31 32  2  0
 32 33  1  0
 33 34  2  0
 11  7  1  0
 23 16  1  0
 34 24  1  0
 33 27  1  0
  3 35  1  0
  4 36  1  0
  4 37  1  0
  8 38  1  0
  8 39  1  0
  9 40  1  0
  9 41  1  0
 10 42  1  0
 10 43  1  0
 11 44  1  1
 14 45  1  0
 15 46  1  0
 15 47  1  0
 17 48  1  0
 18 49  1  0
 23 50  1  0
 25 51  1  0
 26 52  1  0
 28 53  1  0
 31 54  1  0
 32 55  1  0
M  END
>  <smiles>  (1) 
O=C(NCC(=O)N1CCC[C@H]1C(=O)NCc1ccc(Cl)c(Cl)c1)c1ccc2cc(F)ccc2n1

>  <score_type>  (1) 
oracle

>  <origin>  (1) 
autodockgpu

>  <m_score__min__energy>  (1) 
-9.1099999999999994

>  <m_primary>  (1) 
energy

>  <meeko>  (1) 
{"free_energy": -7.46, "intermolecular_energy": -9.55, "internal_energy": -3.04, "cluster_size": 1, "cluster_id": 7, "rank_in_cluster": 1}

>  <energy>  (1) 
-9.11

>  <cluster_rmsd>  (1) 
0.0

>  <rmsd>  (1) 
271.38

>  <cluster>  (1) 
1

$$$$

     RDKit          3D

 55 58  0  0  0  0  0  0  0  0999 V2000
  140.0350   73.5750  222.3140 O   0  0  0  0  0  0  0  0  0  0  0  0
  140.3910   74.4780  221.5310 C   0  0  0  0  0  0  0  0  0  0  0  0
  140.8960   74.0610  220.2530 N   0  0  0  0  0  0  0  0  0  0  0  0
  140.9890   72.6670  219.8990 C   0  0  0  0  0  0  0  0  0  0  0  0
  142.3250   72.0910  220.2700 C   0  0  0  0  0  0  0  0  0  0  0  0
  142.4730   70.9810  220.7960 O   0  0  0  0  0  0  0  0  0  0  0  0
  143.4770   72.9120  219.9810 N   0  0  0  0  0  0  0  0  0  0  0  0
  144.5290   72.6140  219.0150 C   0  0  0  0  0  0  0  0  0  0  0  0
  145.7660   73.2020  219.6610 C   0  0  0  0  0  0  0  0  0  0  0  0
  145.3040   73.9780  220.8800 C   0  0  0  0  0  0  0  0  0  0  0  0
  143.8260   74.1890  220.5750 C   0  0  1  0  0  0  0  0  0  0  0  0
  143.6650   75.3080  219.6190 C   0  0  0  0  0  0  0  0  0  0  0  0
  144.0570   76.4410  219.9950 O   0  0  0  0  0  0  0  0  0  0  0  0
  143.0850   75.0510  218.3480 N   0  0  0  0  0  0  0  0  0  0  0  0
  142.8710   76.0600  217.3360 C   0  0  0  0  0  0  0  0  0  0  0  0
  142.0190   77.1190  217.9000 C   0  0  0  0  0  0  0  0  0  0  0  0
  140.7870   76.9200  218.4790 C   0  0  0  0  0  0  0  0  0  0  0  0
  140.0860   78.0140  218.9660 C   0  0  0  0  0  0  0  0  0  0  0  0
  140.5890   79.3070  218.8910 C   0  0  0  0  0  0  0  0  0  0  0  0
  139.6740   80.6820  219.5210 Cl  0  0  0  0  0  0  0  0  0  0  0  0
  141.8160   79.5010  218.3150 C   0  0  0  0  0  0  0  0  0  0  0  0
  142.5300   81.1130  218.1810 Cl  0  0  0  0  0  0  0  0  0  0  0  0
  142.5230   78.4250  217.8270 C   0  0  0  0  0  0  0  0  0  0  0  0
  140.3040   75.8930  221.8800 C   0  0  0  0  0  0  0  0  0  0  0  0
  139.0950   76.3710  222.3500 C   0  0  0  0  0  0  0  0  0  0  0  0
  138.9030   77.6880  222.7060 C   0  0  0  0  0  0  0  0  0  0  0  0
  139.9740   78.5580  222.5830 C   0  0  0  0  0  0  0  0  0  0  0  0
  139.8420   79.8930  222.9250 C   0  0  0  0  0  0  0  0  0  0  0  0
  140.9240   80.7160  222.7870 C   0  0  0  0  0  0  0  0  0  0  0  0
  140.7960   82.0280  223.1240 F   0  0  0  0  0  0  0  0  0  0  0  0
  142.1410   80.2600  222.3200 C   0  0  0  0  0  0  0  0  0  0  0  0
  142.2810   78.9300  221.9760 C   0  0  0  0  0  0  0  0  0  0  0  0
  141.1880   78.0710  222.1080 C   0  0  0  0  0  0  0  0  0  0  0  0
  141.3170   76.7550  221.7700 N   0  0  0  0  0  0  0  0  0  0  0  0
  141.1860   74.8420  219.6110 H   0  0  0  0  0  0  0  0  0  0  0  0
  140.2010   72.1109  220.4281 H   0  0  0  0  0  0  0  0  0  0  0  0
  140.8670   72.5797  218.8093 H   0  0  0  0  0  0  0  0  0  0  0  0
  144.6368   71.5288  218.8709 H   0  0  0  0  0  0  0  0  0  0  0  0
  144.3267   73.0253  218.0151 H   0  0  0  0  0  0  0  0  0  0  0  0
  146.4529   72.3977  219.9632 H   0  0  0  0  0  0  0  0  0  0  0  0
  146.3017   73.8574  218.9585 H   0  0  0  0  0  0  0  0  0  0  0  0
  145.4431   73.3948  221.8022 H   0  0  0  0  0  0  0  0  0  0  0  0
  145.8608   74.9112  221.0508 H   0  0  0  0  0  0  0  0  0  0  0  0
  143.1989   74.4545  221.4388 H   0  0  0  0  0  0  0  0  0  0  0  0
  142.7990   74.0460  218.1490 H   0  0  0  0  0  0  0  0  0  0  0  0
  143.8371   76.4865  217.0282 H   0  0  0  0  0  0  0  0  0  0  0  0
  142.3822   75.6130  216.4578 H   0  0  0  0  0  0  0  0  0  0  0  0
  140.3635   75.9076  218.5548 H   0  0  0  0  0  0  0  0  0  0  0  0
  139.1001   77.8524  219.4264 H   0  0  0  0  0  0  0  0  0  0  0  0
  143.5083   78.5945  217.3682 H   0  0  0  0  0  0  0  0  0  0  0  0
  138.2516   75.6710  222.4436 H   0  0  0  0  0  0  0  0  0  0  0  0
  137.9284   78.0382  223.0768 H   0  0  0  0  0  0  0  0  0  0  0  0
  138.8847   80.2836  223.3005 H   0  0  0  0  0  0  0  0  0  0  0  0
  142.9918   80.9505  222.2229 H   0  0  0  0  0  0  0  0  0  0  0  0
  143.2435   78.5511  221.6019 H   0  0  0  0  0  0  0  0  0  0  0  0
  1  2  2  0
  2  3  1  0
  3  4  1  0
  4  5  1  0
  5  6  2  0
  5  7  1  0
  7  8  1  0
  8  9  1  0
  9 10  1  0
 10 11  1  0
 11 12  1  0
 12 13  2  0
 12 14  1  0
 14 15  1  0
 15 16  1  0
 16 17  2  0
 17 18  1  0
 18 19  2  0
 19 20  1  0
 19 21  1  0
 21 22  1  0
 21 23  2  0
  2 24  1  0
 24 25  2  0
 25 26  1  0
 26 27  2  0
 27 28  1  0
 28 29  2  0
 29 30  1  0
 29 31  1  0
 31 32  2  0
 32 33  1  0
 33 34  2  0
 11  7  1  0
 23 16  1  0
 34 24  1  0
 33 27  1  0
  3 35  1  0
  4 36  1  0
  4 37  1  0
  8 38  1  0
  8 39  1  0
  9 40  1  0
  9 41  1  0
 10 42  1  0
 10 43  1  0
 11 44  1  1
 14 45  1  0
 15 46  1  0
 15 47  1  0
 17 48  1  0
 18 49  1  0
 23 50  1  0
 25 51  1  0
 26 52  1  0
 28 53  1  0
 31 54  1  0
 32 55  1  0
M  END
>  <smiles>  (2) 
O=C(NCC(=O)N1CCC[C@H]1C(=O)NCc1ccc(Cl)c(Cl)c1)c1ccc2cc(F)ccc2n1

>  <score_type>  (2) 
oracle

>  <origin>  (2) 
autodockgpu

>  <m_score__min__energy>  (2) 
-9.1099999999999994

>  <m_primary>  (2) 
energy

>  <meeko>  (2) 
{"free_energy": -6.26, "intermolecular_energy": -8.35, "internal_energy": -4.04, "cluster_size": 2, "cluster_id": 9, "rank_in_cluster": 2}

>  <energy>  (2) 
-8.51

>  <cluster_rmsd>  (2) 
1.66

>  <rmsd>  (2) 
270.79

>  <cluster>  (2) 
1

$$$$

     RDKit          3D

 55 58  0  0  0  0  0  0  0  0999 V2000
  138.9560   75.4950  221.3570 O   0  0  0  0  0  0  0  0  0  0  0  0
  140.0930   75.9700  221.5470 C   0  0  0  0  0  0  0  0  0  0  0  0
  140.1610   77.2120  222.2660 N   0  0  0  0  0  0  0  0  0  0  0  0
  138.9720   77.8730  222.7390 C   0  0  0  0  0  0  0  0  0  0  0  0
  139.2920   79.1900  223.3860 C   0  0  0  0  0  0  0  0  0  0  0  0
  138.5290   79.7800  224.1610 O   0  0  0  0  0  0  0  0  0  0  0  0
  140.5730   79.7680  223.0560 N   0  0  0  0  0  0  0  0  0  0  0  0
  141.8350   79.5210  223.7440 C   0  0  0  0  0  0  0  0  0  0  0  0
  142.5510   80.8520  223.6400 C   0  0  0  0  0  0  0  0  0  0  0  0
  141.7240   81.7290  222.7190 C   0  0  0  0  0  0  0  0  0  0  0  0
  140.8740   80.7000  221.9840 C   0  0  1  0  0  0  0  0  0  0  0  0
  141.6720   80.0680  220.9080 C   0  0  0  0  0  0  0  0  0  0  0  0
  142.1840   78.9490  221.1590 O   0  0  0  0  0  0  0  0  0  0  0  0
  141.8160   80.7460  219.6680 N   0  0  0  0  0  0  0  0  0  0  0  0
  142.5740   80.2360  218.5490 C   0  0  0  0  0  0  0  0  0  0  0  0
  142.0180   78.9300  218.1600 C   0  0  0  0  0  0  0  0  0  0  0  0
  140.7130   78.5360  218.3510 C   0  0  0  0  0  0  0  0  0  0  0  0
  140.3240   77.2700  217.9400 C   0  0  0  0  0  0  0  0  0  0  0  0
  141.2080   76.3830  217.3390 C   0  0  0  0  0  0  0  0  0  0  0  0
  140.6840   74.7760  216.8250 Cl  0  0  0  0  0  0  0  0  0  0  0  0
  142.5050   76.7790  217.1490 C   0  0  0  0  0  0  0  0  0  0  0  0
  143.6950   75.7140  216.3900 Cl  0  0  0  0  0  0  0  0  0  0  0  0
  142.9060   78.0330  217.5530 C   0  0  0  0  0  0  0  0  0  0  0  0
  141.3040   75.3100  221.0700 C   0  0  0  0  0  0  0  0  0  0  0  0
  142.2690   76.0910  220.4610 C   0  0  0  0  0  0  0  0  0  0  0  0
  143.4480   75.5700  219.9730 C   0  0  0  0  0  0  0  0  0  0  0  0
  143.6620   74.2090  220.1040 C   0  0  0  0  0  0  0  0  0  0  0  0
  144.8270   73.6280  219.6330 C   0  0  0  0  0  0  0  0  0  0  0  0
  144.9960   72.2800  219.7840 C   0  0  0  0  0  0  0  0  0  0  0  0
  146.1410   71.7090  219.3210 F   0  0  0  0  0  0  0  0  0  0  0  0
  144.0460   71.4810  220.3880 C   0  0  0  0  0  0  0  0  0  0  0  0
  142.8800   72.0530  220.8600 C   0  0  0  0  0  0  0  0  0  0  0  0
  142.6860   73.4290  220.7170 C   0  0  0  0  0  0  0  0  0  0  0  0
  141.5370   74.0010  221.1810 N   0  0  0  0  0  0  0  0  0  0  0  0
  141.1310   77.5890  222.4150 H   0  0  0  0  0  0  0  0  0  0  0  0
  138.2981   78.0480  221.8874 H   0  0  0  0  0  0  0  0  0  0  0  0
  138.4952   77.2271  223.4909 H   0  0  0  0  0  0  0  0  0  0  0  0
  141.6641   79.2459  224.7953 H   0  0  0  0  0  0  0  0  0  0  0  0
  142.4074   78.6878  223.3103 H   0  0  0  0  0  0  0  0  0  0  0  0
  142.6305   81.3170  224.6337 H   0  0  0  0  0  0  0  0  0  0  0  0
  143.5698   80.7203  223.2468 H   0  0  0  0  0  0  0  0  0  0  0  0
  141.0980   82.4304  223.2901 H   0  0  0  0  0  0  0  0  0  0  0  0
  142.3254   82.3656  222.0533 H   0  0  0  0  0  0  0  0  0  0  0  0
  139.9771   81.0965  221.4856 H   0  0  0  0  0  0  0  0  0  0  0  0
  141.3280   81.6870  219.5800 H   0  0  0  0  0  0  0  0  0  0  0  0
  142.5023   80.9358  217.7033 H   0  0  0  0  0  0  0  0  0  0  0  0
  143.6313   80.1247  218.8314 H   0  0  0  0  0  0  0  0  0  0  0  0
  139.9887   79.2160  218.8231 H   0  0  0  0  0  0  0  0  0  0  0  0
  139.2807   76.9578  218.0951 H   0  0  0  0  0  0  0  0  0  0  0  0
  143.9509   78.3381  217.3948 H   0  0  0  0  0  0  0  0  0  0  0  0
  142.0884   77.1716  220.3620 H   0  0  0  0  0  0  0  0  0  0  0  0
  144.1971   76.2171  219.4934 H   0  0  0  0  0  0  0  0  0  0  0  0
  145.6015   74.2392  219.1467 H   0  0  0  0  0  0  0  0  0  0  0  0
  144.2156   70.3992  220.4926 H   0  0  0  0  0  0  0  0  0  0  0  0
  142.1123   71.4310  221.3435 H   0  0  0  0  0  0  0  0  0  0  0  0
  1  2  2  0
  2  3  1  0
  3  4  1  0
  4  5  1  0
  5  6  2  0
  5  7  1  0
  7  8  1  0
  8  9  1  0
  9 10  1  0
 10 11  1  0
 11 12  1  0
 12 13  2  0
 12 14  1  0
 14 15  1  0
 15 16  1  0
 16 17  2  0
 17 18  1  0
 18 19  2  0
 19 20  1  0
 19 21  1  0
 21 22  1  0
 21 23  2  0
  2 24  1  0
 24 25  2  0
 25 26  1  0
 26 27  2  0
 27 28  1  0
 28 29  2  0
 29 30  1  0
 29 31  1  0
 31 32  2  0
 32 33  1  0
 33 34  2  0
 11  7  1  0
 23 16  1  0
 34 24  1  0
 33 27  1  0
  3 35  1  0
  4 36  1  0
  4 37  1  0
  8 38  1  0
  8 39  1  0
  9 40  1  0
  9 41  1  0
 10 42  1  0
 10 43  1  0
 11 44  1  6
 14 45  1  0
 15 46  1  0
 15 47  1  0
 17 48  1  0
 18 49  1  0
 23 50  1  0
 25 51  1  0
 26 52  1  0
 28 53  1  0
 31 54  1  0
 32 55  1  0
M  END
>  <smiles>  (3) 
O=C(NCC(=O)N1CCC[C@H]1C(=O)NCc1ccc(Cl)c(Cl)c1)c1ccc2cc(F)ccc2n1

>  <score_type>  (3) 
oracle

>  <origin>  (3) 
autodockgpu

>  <m_score__min__energy>  (3) 
-9.1099999999999994

>  <m_primary>  (3) 
energy

>  <meeko>  (3) 
{"free_energy": -6.39, "intermolecular_energy": -8.48, "internal_energy": -3.78, "cluster_size": 1, "cluster_id": 10, "rank_in_cluster": 1}

>  <energy>  (3) 
-8.41

>  <cluster_rmsd>  (3) 
1.37

>  <rmsd>  (3) 
271.3

>  <cluster>  (3) 
1

$$$$

     RDKit          3D

 55 58  0  0  0  0  0  0  0  0999 V2000
  143.1970   75.6510  218.2350 O   0  0  0  0  0  0  0  0  0  0  0  0
  142.9740   76.0750  219.3860 C   0  0  0  0  0  0  0  0  0  0  0  0
  143.1380   75.1380  220.4620 N   0  0  0  0  0  0  0  0  0  0  0  0
  143.5370   73.7760  220.2180 C   0  0  0  0  0  0  0  0  0  0  0  0
  142.5330   72.8000  220.7610 C   0  0  0  0  0  0  0  0  0  0  0  0
  142.8370   71.7460  221.3330 O   0  0  0  0  0  0  0  0  0  0  0  0
  141.1430   73.1490  220.5840 N   0  0  0  0  0  0  0  0  0  0  0  0
  140.3380   72.9090  219.3920 C   0  0  0  0  0  0  0  0  0  0  0  0
  139.4030   74.1000  219.3620 C   0  0  0  0  0  0  0  0  0  0  0  0
  139.6060   74.8550  220.6620 C   0  0  0  0  0  0  0  0  0  0  0  0
  140.2650   73.7980  221.5390 C   0  0  1  0  0  0  0  0  0  0  0  0
  139.2370   72.8710  222.0670 C   0  0  0  0  0  0  0  0  0  0  0  0
  138.0590   73.3020  222.1310 O   0  0  0  0  0  0  0  0  0  0  0  0
  139.6270   71.5660  222.4680 N   0  0  0  0  0  0  0  0  0  0  0  0
  138.7200   70.5780  223.0030 C   0  0  0  0  0  0  0  0  0  0  0  0
  139.2580   70.0870  224.2820 C   0  0  0  0  0  0  0  0  0  0  0  0
  139.2320   68.7760  224.7000 C   0  0  0  0  0  0  0  0  0  0  0  0
  139.7720   68.4520  225.9360 C   0  0  0  0  0  0  0  0  0  0  0  0
  140.3420   69.4080  226.7680 C   0  0  0  0  0  0  0  0  0  0  0  0
  141.0230   68.9670  228.3370 Cl  0  0  0  0  0  0  0  0  0  0  0  0
  140.3670   70.7110  226.3470 C   0  0  0  0  0  0  0  0  0  0  0  0
  141.0750   71.9900  227.3420 Cl  0  0  0  0  0  0  0  0  0  0  0  0
  139.8340   71.0480  225.1230 C   0  0  0  0  0  0  0  0  0  0  0  0
  142.5660   77.4530  219.6440 C   0  0  0  0  0  0  0  0  0  0  0  0
  142.5610   78.3360  218.5810 C   0  0  0  0  0  0  0  0  0  0  0  0
  142.1960   79.6590  218.7140 C   0  0  0  0  0  0  0  0  0  0  0  0
  141.8200   80.1070  219.9690 C   0  0  0  0  0  0  0  0  0  0  0  0
  141.4430   81.4250  220.1650 C   0  0  0  0  0  0  0  0  0  0  0  0
  141.0800   81.8240  221.4210 C   0  0  0  0  0  0  0  0  0  0  0  0
  140.7090   83.1190  221.6140 F   0  0  0  0  0  0  0  0  0  0  0  0
  141.0780   80.9590  222.4970 C   0  0  0  0  0  0  0  0  0  0  0  0
  141.4540   79.6430  222.3100 C   0  0  0  0  0  0  0  0  0  0  0  0
  141.8280   79.2130  221.0350 C   0  0  0  0  0  0  0  0  0  0  0  0
  142.2010   77.9140  220.8420 N   0  0  0  0  0  0  0  0  0  0  0  0
  142.9460   75.5230  221.4210 H   0  0  0  0  0  0  0  0  0  0  0  0
  143.6345   73.6215  219.1333 H   0  0  0  0  0  0  0  0  0  0  0  0
  144.4963   73.6020  220.7274 H   0  0  0  0  0  0  0  0  0  0  0  0
  140.9673   72.8785  218.4903 H   0  0  0  0  0  0  0  0  0  0  0  0
  139.8088   71.9449  219.4151 H   0  0  0  0  0  0  0  0  0  0  0  0
  139.6442   74.7484  218.5068 H   0  0  0  0  0  0  0  0  0  0  0  0
  138.3573   73.7760  219.2550 H   0  0  0  0  0  0  0  0  0  0  0  0
  140.2642   75.7250  220.5209 H   0  0  0  0  0  0  0  0  0  0  0  0
  138.6789   75.2690  221.0852 H   0  0  0  0  0  0  0  0  0  0  0  0
  140.7915   74.1811  222.4256 H   0  0  0  0  0  0  0  0  0  0  0  0
  140.6560   71.3210  222.3590 H   0  0  0  0  0  0  0  0  0  0  0  0
  137.7320   71.0329  223.1673 H   0  0  0  0  0  0  0  0  0  0  0  0
  138.6156   69.7427  222.2949 H   0  0  0  0  0  0  0  0  0  0  0  0
  138.7893   67.9961  224.0630 H   0  0  0  0  0  0  0  0  0  0  0  0
  139.7482   67.4037  226.2685 H   0  0  0  0  0  0  0  0  0  0  0  0
  139.8611   72.0983  224.7973 H   0  0  0  0  0  0  0  0  0  0  0  0
  142.8604   77.9685  217.5884 H   0  0  0  0  0  0  0  0  0  0  0  0
  142.2033   80.3383  217.8488 H   0  0  0  0  0  0  0  0  0  0  0  0
  141.4358   82.1369  219.3264 H   0  0  0  0  0  0  0  0  0  0  0  0
  140.7797   81.3146  223.4943 H   0  0  0  0  0  0  0  0  0  0  0  0
  141.4588   78.9409  223.1567 H   0  0  0  0  0  0  0  0  0  0  0  0
  1  2  2  0
  2  3  1  0
  3  4  1  0
  4  5  1  0
  5  6  2  0
  5  7  1  0
  7  8  1  0
  8  9  1  0
  9 10  1  0
 10 11  1  0
 11 12  1  0
 12 13  2  0
 12 14  1  0
 14 15  1  0
 15 16  1  0
 16 17  2  0
 17 18  1  0
 18 19  2  0
 19 20  1  0
 19 21  1  0
 21 22  1  0
 21 23  2  0
  2 24  1  0
 24 25  2  0
 25 26  1  0
 26 27  2  0
 27 28  1  0
 28 29  2  0
 29 30  1  0
 29 31  1  0
 31 32  2  0
 32 33  1  0
 33 34  2  0
 11  7  1  0
 23 16  1  0
 34 24  1  0
 33 27  1  0
  3 35  1  0
  4 36  1  0
  4 37  1  0
  8 38  1  0
  8 39  1  0
  9 40  1  0
  9 41  1  0
 10 42  1  0
 10 43  1  0
 11 44  1  1
 14 45  1  0
 15 46  1  0
 15 47  1  0
 17 48  1  0
 18 49  1  0
 23 50  1  0
 25 51  1  0
 26 52  1  0
 28 53  1  0
 31 54  1  0
 32 55  1  0
M  END
>  <smiles>  (4) 
O=C(NCC(=O)N1CCC[C@H]1C(=O)NCc1ccc(Cl)c(Cl)c1)c1ccc2cc(F)ccc2n1

>  <score_type>  (4) 
oracle

>  <origin>  (4) 
autodockgpu

>  <m_score__min__energy>  (4) 
-9.1099999999999994

>  <m_primary>  (4) 
energy

>  <meeko>  (4) 
{"free_energy": -8.12, "intermolecular_energy": -10.21, "internal_energy": -2.58, "cluster_size": 1, "cluster_id": 4, "rank_in_cluster": 1}

>  <energy>  (4) 
-8.5

>  <cluster_rmsd>  (4) 
0.0

>  <rmsd>  (4) 
270.62

>  <cluster>  (4) 
2

$$$$

     RDKit          3D

 55 58  0  0  0  0  0  0  0  0999 V2000
  140.5950   77.1370  217.6320 O   0  0  0  0  0  0  0  0  0  0  0  0
  141.2640   77.9940  218.2430 C   0  0  0  0  0  0  0  0  0  0  0  0
  142.6910   77.8390  218.2160 N   0  0  0  0  0  0  0  0  0  0  0  0
  143.3150   76.7440  217.5180 C   0  0  0  0  0  0  0  0  0  0  0  0
  142.5990   75.4480  217.7700 C   0  0  0  0  0  0  0  0  0  0  0  0
  141.9440   74.8450  216.9110 O   0  0  0  0  0  0  0  0  0  0  0  0
  142.7050   74.9100  219.1050 N   0  0  0  0  0  0  0  0  0  0  0  0
  143.7250   75.2450  220.0930 C   0  0  0  0  0  0  0  0  0  0  0  0
  143.9220   73.9430  220.8410 C   0  0  0  0  0  0  0  0  0  0  0  0
  142.8510   72.9850  220.3540 C   0  0  0  0  0  0  0  0  0  0  0  0
  141.8330   73.9390  219.7410 C   0  0  1  0  0  0  0  0  0  0  0  0
  141.0100   74.5500  220.8100 C   0  0  0  0  0  0  0  0  0  0  0  0
  141.0670   74.0200  221.9470 O   0  0  0  0  0  0  0  0  0  0  0  0
  140.2110   75.6830  220.5020 N   0  0  0  0  0  0  0  0  0  0  0  0
  139.3630   76.3600  221.4560 C   0  0  0  0  0  0  0  0  0  0  0  0
  140.0960   77.5130  222.0040 C   0  0  0  0  0  0  0  0  0  0  0  0
  141.4460   77.7320  221.8610 C   0  0  0  0  0  0  0  0  0  0  0  0
  142.0110   78.8620  222.4360 C   0  0  0  0  0  0  0  0  0  0  0  0
  141.2560   79.7820  223.1520 C   0  0  0  0  0  0  0  0  0  0  0  0
  142.0010   81.2120  223.8750 Cl  0  0  0  0  0  0  0  0  0  0  0  0
  139.9120   79.5610  223.2920 C   0  0  0  0  0  0  0  0  0  0  0  0
  138.8780   80.6820  224.1860 Cl  0  0  0  0  0  0  0  0  0  0  0  0
  139.3380   78.4440  222.7270 C   0  0  0  0  0  0  0  0  0  0  0  0
  140.6420   79.1060  218.9560 C   0  0  0  0  0  0  0  0  0  0  0  0
  139.2720   79.0720  219.1390 C   0  0  0  0  0  0  0  0  0  0  0  0
  138.5840   80.0710  219.7950 C   0  0  0  0  0  0  0  0  0  0  0  0
  139.3070   81.1440  220.2870 C   0  0  0  0  0  0  0  0  0  0  0  0
  138.6720   82.1760  220.9550 C   0  0  0  0  0  0  0  0  0  0  0  0
  139.4250   83.2160  221.4240 C   0  0  0  0  0  0  0  0  0  0  0  0
  138.8010   84.2320  222.0820 F   0  0  0  0  0  0  0  0  0  0  0  0
  140.7940   83.2700  221.2530 C   0  0  0  0  0  0  0  0  0  0  0  0
  141.4360   82.2450  220.5870 C   0  0  0  0  0  0  0  0  0  0  0  0
  140.6860   81.1720  220.0990 C   0  0  0  0  0  0  0  0  0  0  0  0
  141.3120   80.1540  219.4400 N   0  0  0  0  0  0  0  0  0  0  0  0
  143.2300   78.5760  218.7360 H   0  0  0  0  0  0  0  0  0  0  0  0
  143.3020   76.9550  216.4385 H   0  0  0  0  0  0  0  0  0  0  0  0
  144.3467   76.6444  217.8864 H   0  0  0  0  0  0  0  0  0  0  0  0
  144.6575   75.5645  219.6047 H   0  0  0  0  0  0  0  0  0  0  0  0
  143.4339   76.0794  220.7480 H   0  0  0  0  0  0  0  0  0  0  0  0
  144.9204   73.5329  220.6289 H   0  0  0  0  0  0  0  0  0  0  0  0
  143.8447   74.0988  221.9272 H   0  0  0  0  0  0  0  0  0  0  0  0
  143.2494   72.2877  219.6023 H   0  0  0  0  0  0  0  0  0  0  0  0
  142.4377   72.3408  221.1440 H   0  0  0  0  0  0  0  0  0  0  0  0
  141.1129   73.4791  219.0482 H   0  0  0  0  0  0  0  0  0  0  0  0
  140.2550   76.0400  219.5010 H   0  0  0  0  0  0  0  0  0  0  0  0
  138.4470   76.7075  220.9558 H   0  0  0  0  0  0  0  0  0  0  0  0
  139.0874   75.6708  222.2678 H   0  0  0  0  0  0  0  0  0  0  0  0
  142.0696   77.0215  221.2986 H   0  0  0  0  0  0  0  0  0  0  0  0
  143.0913   79.0344  222.3209 H   0  0  0  0  0  0  0  0  0  0  0  0
  138.2571   78.2783  222.8462 H   0  0  0  0  0  0  0  0  0  0  0  0
  138.7081   78.2134  218.7455 H   0  0  0  0  0  0  0  0  0  0  0  0
  137.4929   80.0168  219.9235 H   0  0  0  0  0  0  0  0  0  0  0  0
  137.5825   82.1599  221.1057 H   0  0  0  0  0  0  0  0  0  0  0  0
  141.3685   84.1226  221.6442 H   0  0  0  0  0  0  0  0  0  0  0  0
  142.5261   82.2729  220.4422 H   0  0  0  0  0  0  0  0  0  0  0  0
  1  2  2  0
  2  3  1  0
  3  4  1  0
  4  5  1  0
  5  6  2  0
  5  7  1  0
  7  8  1  0
  8  9  1  0
  9 10  1  0
 10 11  1  0
 11 12  1  0
 12 13  2  0
 12 14  1  0
 14 15  1  0
 15 16  1  0
 16 17  2  0
 17 18  1  0
 18 19  2  0
 19 20  1  0
 19 21  1  0
 21 22  1  0
 21 23  2  0
  2 24  1  0
 24 25  2  0
 25 26  1  0
 26 27  2  0
 27 28  1  0
 28 29  2  0
 29 30  1  0
 29 31  1  0
 31 32  2  0
 32 33  1  0
 33 34  2  0
 11  7  1  0
 23 16  1  0
 34 24  1  0
 33 27  1  0
  3 35  1  0
  4 36  1  0
  4 37  1  0
  8 38  1  0
  8 39  1  0
  9 40  1  0
  9 41  1  0
 10 42  1  0
 10 43  1  0
 11 44  1  6
 14 45  1  0
 15 46  1  0
 15 47  1  0
 17 48  1  0
 18 49  1  0
 23 50  1  0
 25 51  1  0
 26 52  1  0
 28 53  1  0
 31 54  1  0
 32 55  1  0
M  END
>  <smiles>  (5) 
O=C(NCC(=O)N1CCC[C@H]1C(=O)NCc1ccc(Cl)c(Cl)c1)c1ccc2cc(F)ccc2n1

>  <score_type>  (5) 
oracle

>  <origin>  (5) 
autodockgpu

>  <m_score__min__energy>  (5) 
-9.1099999999999994

>  <m_primary>  (5) 
energy

>  <meeko>  (5) 
{"free_energy": -5.82, "intermolecular_energy": -7.91, "internal_energy": -4.84, "cluster_size": 2, "cluster_id": 12, "rank_in_cluster": 1}

>  <energy>  (5) 
-7.82

>  <cluster_rmsd>  (5) 
1.57

>  <rmsd>  (5) 
270.22

>  <cluster>  (5) 
2

$$$$

     RDKit          3D

 55 58  0  0  0  0  0  0  0  0999 V2000
  138.9320   73.0720  222.1650 O   0  0  0  0  0  0  0  0  0  0  0  0
  139.9380   72.3940  222.4540 C   0  0  0  0  0  0  0  0  0  0  0  0
  141.0640   72.5020  221.5690 N   0  0  0  0  0  0  0  0  0  0  0  0
  141.0270   73.3510  220.4050 C   0  0  0  0  0  0  0  0  0  0  0  0
  141.8870   74.5690  220.5830 C   0  0  0  0  0  0  0  0  0  0  0  0
  143.0990   74.5260  220.8300 O   0  0  0  0  0  0  0  0  0  0  0  0
  141.2230   75.8440  220.4510 N   0  0  0  0  0  0  0  0  0  0  0  0
  139.7950   76.0560  220.2400 C   0  0  0  0  0  0  0  0  0  0  0  0
  139.7550   77.2950  219.3700 C   0  0  0  0  0  0  0  0  0  0  0  0
  141.1730   77.8310  219.2970 C   0  0  0  0  0  0  0  0  0  0  0  0
  141.8230   77.1650  220.5030 C   0  0  1  0  0  0  0  0  0  0  0  0
  141.4530   77.8930  221.7390 C   0  0  0  0  0  0  0  0  0  0  0  0
  140.4250   77.5040  222.3450 O   0  0  0  0  0  0  0  0  0  0  0  0
  142.2640   78.9780  222.1680 N   0  0  0  0  0  0  0  0  0  0  0  0
  142.0020   79.7670  223.3490 C   0  0  0  0  0  0  0  0  0  0  0  0
  140.7410   80.5010  223.1560 C   0  0  0  0  0  0  0  0  0  0  0  0
  139.5610   80.2320  223.8090 C   0  0  0  0  0  0  0  0  0  0  0  0
  138.4420   81.0020  223.5260 C   0  0  0  0  0  0  0  0  0  0  0  0
  138.4740   82.0390  222.6020 C   0  0  0  0  0  0  0  0  0  0  0  0
  137.0330   83.0030  222.2600 Cl  0  0  0  0  0  0  0  0  0  0  0  0
  139.6500   82.3040  221.9540 C   0  0  0  0  0  0  0  0  0  0  0  0
  139.7780   83.6070  220.7650 Cl  0  0  0  0  0  0  0  0  0  0  0  0
  140.7690   81.5480  222.2250 C   0  0  0  0  0  0  0  0  0  0  0  0
  139.9850   71.5280  223.6280 C   0  0  0  0  0  0  0  0  0  0  0  0
  139.4680   70.2510  223.5120 C   0  0  0  0  0  0  0  0  0  0  0  0
  139.4600   69.3540  224.5590 C   0  0  0  0  0  0  0  0  0  0  0  0
  139.9960   69.7610  225.7690 C   0  0  0  0  0  0  0  0  0  0  0  0
  140.0160   68.9040  226.8560 C   0  0  0  0  0  0  0  0  0  0  0  0
  140.5540   69.3470  228.0310 C   0  0  0  0  0  0  0  0  0  0  0  0
  140.5750   68.5050  229.1000 F   0  0  0  0  0  0  0  0  0  0  0  0
  141.0760   70.6180  228.1700 C   0  0  0  0  0  0  0  0  0  0  0  0
  141.0590   71.4800  227.0900 C   0  0  0  0  0  0  0  0  0  0  0  0
  140.5140   71.0480  225.8790 C   0  0  0  0  0  0  0  0  0  0  0  0
  140.4930   71.8930  224.8070 N   0  0  0  0  0  0  0  0  0  0  0  0
  141.9000   71.9220  221.8370 H   0  0  0  0  0  0  0  0  0  0  0  0
  141.3892   72.7819  219.5361 H   0  0  0  0  0  0  0  0  0  0  0  0
  139.9890   73.6815  220.2525 H   0  0  0  0  0  0  0  0  0  0  0  0
  139.3404   75.1971  219.7246 H   0  0  0  0  0  0  0  0  0  0  0  0
  139.2320   76.1688  221.1782 H   0  0  0  0  0  0  0  0  0  0  0  0
  139.3959   77.0379  218.3626 H   0  0  0  0  0  0  0  0  0  0  0  0
  139.0716   78.0478  219.7897 H   0  0  0  0  0  0  0  0  0  0  0  0
  141.6662   77.5316  218.3605 H   0  0  0  0  0  0  0  0  0  0  0  0
  141.2343   78.9292  219.3090 H   0  0  0  0  0  0  0  0  0  0  0  0
  142.9228   77.1461  220.4961 H   0  0  0  0  0  0  0  0  0  0  0  0
  143.1120   79.2050  221.5680 H   0  0  0  0  0  0  0  0  0  0  0  0
  141.9154   79.1060  224.2240 H   0  0  0  0  0  0  0  0  0  0  0  0
  142.8263   80.4758  223.5167 H   0  0  0  0  0  0  0  0  0  0  0  0
  139.5050   79.4172  224.5459 H   0  0  0  0  0  0  0  0  0  0  0  0
  137.4995   80.7845  224.0499 H   0  0  0  0  0  0  0  0  0  0  0  0
  141.7080   81.7717  221.6975 H   0  0  0  0  0  0  0  0  0  0  0  0
  139.0461   69.9381  222.5455 H   0  0  0  0  0  0  0  0  0  0  0  0
  139.0401   68.3447  224.4366 H   0  0  0  0  0  0  0  0  0  0  0  0
  139.6067   67.8862  226.7752 H   0  0  0  0  0  0  0  0  0  0  0  0
  141.5014   70.9412  229.1315 H   0  0  0  0  0  0  0  0  0  0  0  0
  141.4705   72.4959  227.1833 H   0  0  0  0  0  0  0  0  0  0  0  0
  1  2  2  0
  2  3  1  0
  3  4  1  0
  4  5  1  0
  5  6  2  0
  5  7  1  0
  7  8  1  0
  8  9  1  0
  9 10  1  0
 10 11  1  0
 11 12  1  0
 12 13  2  0
 12 14  1  0
 14 15  1  0
 15 16  1  0
 16 17  2  0
 17 18  1  0
 18 19  2  0
 19 20  1  0
 19 21  1  0
 21 22  1  0
 21 23  2  0
  2 24  1  0
 24 25  2  0
 25 26  1  0
 26 27  2  0
 27 28  1  0
 28 29  2  0
 29 30  1  0
 29 31  1  0
 31 32  2  0
 32 33  1  0
 33 34  2  0
 11  7  1  0
 23 16  1  0
 34 24  1  0
 33 27  1  0
  3 35  1  0
  4 36  1  0
  4 37  1  0
  8 38  1  0
  8 39  1  0
  9 40  1  0
  9 41  1  0
 10 42  1  0
 10 43  1  0
 11 44  1  6
 14 45  1  0
 15 46  1  0
 15 47  1  0
 17 48  1  0
 18 49  1  0
 23 50  1  0
 25 51  1  0
 26 52  1  0
 28 53  1  0
 31 54  1  0
 32 55  1  0
M  END
>  <smiles>  (6) 
O=C(NCC(=O)N1CCC[C@H]1C(=O)NCc1ccc(Cl)c(Cl)c1)c1ccc2cc(F)ccc2n1

>  <score_type>  (6) 
oracle

>  <origin>  (6) 
autodockgpu

>  <m_score__min__energy>  (6) 
-9.1099999999999994

>  <m_primary>  (6) 
energy

>  <meeko>  (6) 
{"free_energy": -8.41, "intermolecular_energy": -10.49, "internal_energy": -1.55, "cluster_size": 3, "cluster_id": 1, "rank_in_cluster": 3}

>  <energy>  (6) 
-8.13

>  <cluster_rmsd>  (6) 
0.0

>  <rmsd>  (6) 
270.96

>  <cluster>  (6) 
3

$$$$

     RDKit          3D

 55 58  0  0  0  0  0  0  0  0999 V2000
  141.1210   72.0340  221.7010 O   0  0  0  0  0  0  0  0  0  0  0  0
  140.2260   72.1320  222.5640 C   0  0  0  0  0  0  0  0  0  0  0  0
  139.2320   73.1460  222.3520 N   0  0  0  0  0  0  0  0  0  0  0  0
  139.2740   74.0090  221.1980 C   0  0  0  0  0  0  0  0  0  0  0  0
  138.8500   75.4090  221.5400 C   0  0  0  0  0  0  0  0  0  0  0  0
  137.7890   75.6860  222.1120 O   0  0  0  0  0  0  0  0  0  0  0  0
  139.7620   76.4620  221.1600 N   0  0  0  0  0  0  0  0  0  0  0  0
  139.5410   77.4630  220.1220 C   0  0  0  0  0  0  0  0  0  0  0  0
  140.9300   77.6930  219.5640 C   0  0  0  0  0  0  0  0  0  0  0  0
  141.8970   76.9430  220.4600 C   0  0  0  0  0  0  0  0  0  0  0  0
  141.0680   76.7480  221.7230 C   0  0  1  0  0  0  0  0  0  0  0  0
  141.0670   77.9970  222.5200 C   0  0  0  0  0  0  0  0  0  0  0  0
  140.0270   78.2560  223.1740 O   0  0  0  0  0  0  0  0  0  0  0  0
  142.2210   78.8250  222.5050 N   0  0  0  0  0  0  0  0  0  0  0  0
  142.3370   80.0670  223.2340 C   0  0  0  0  0  0  0  0  0  0  0  0
  141.4410   81.0600  222.6180 C   0  0  0  0  0  0  0  0  0  0  0  0
  141.8190   81.9900  221.6790 C   0  0  0  0  0  0  0  0  0  0  0  0
  140.8700   82.8740  221.1850 C   0  0  0  0  0  0  0  0  0  0  0  0
  139.5460   82.8490  221.6070 C   0  0  0  0  0  0  0  0  0  0  0  0
  138.3580   83.9860  220.9610 Cl  0  0  0  0  0  0  0  0  0  0  0  0
  139.1740   81.9200  222.5420 C   0  0  0  0  0  0  0  0  0  0  0  0
  137.5110   81.8190  223.1330 Cl  0  0  0  0  0  0  0  0  0  0  0  0
  140.1060   81.0370  223.0420 C   0  0  0  0  0  0  0  0  0  0  0  0
  140.1760   71.2650  223.7380 C   0  0  0  0  0  0  0  0  0  0  0  0
  139.6100   70.0120  223.5930 C   0  0  0  0  0  0  0  0  0  0  0  0
  139.5090   69.1160  224.6360 C   0  0  0  0  0  0  0  0  0  0  0  0
  140.0010   69.4990  225.8720 C   0  0  0  0  0  0  0  0  0  0  0  0
  139.9290   68.6420  226.9570 C   0  0  0  0  0  0  0  0  0  0  0  0
  140.4270   69.0610  228.1590 C   0  0  0  0  0  0  0  0  0  0  0  0
  140.3570   68.2190  229.2260 F   0  0  0  0  0  0  0  0  0  0  0  0
  140.9970   70.3070  228.3260 C   0  0  0  0  0  0  0  0  0  0  0  0
  141.0720   71.1690  227.2490 C   0  0  0  0  0  0  0  0  0  0  0  0
  140.5700   70.7610  226.0110 C   0  0  0  0  0  0  0  0  0  0  0  0
  140.6400   71.6060  224.9410 N   0  0  0  0  0  0  0  0  0  0  0  0
  138.4890   73.2050  223.0920 H   0  0  0  0  0  0  0  0  0  0  0  0
  140.3018   74.0326  220.8069 H   0  0  0  0  0  0  0  0  0  0  0  0
  138.5769   73.6120  220.4454 H   0  0  0  0  0  0  0  0  0  0  0  0
  138.8615   77.0826  219.3451 H   0  0  0  0  0  0  0  0  0  0  0  0
  139.0702   78.3819  220.5013 H   0  0  0  0  0  0  0  0  0  0  0  0
  140.9924   77.3086  218.5352 H   0  0  0  0  0  0  0  0  0  0  0  0
  141.1702   78.7661  219.5382 H   0  0  0  0  0  0  0  0  0  0  0  0
  142.1857   75.9780  220.0180 H   0  0  0  0  0  0  0  0  0  0  0  0
  142.8471   77.4709  220.6290 H   0  0  0  0  0  0  0  0  0  0  0  0
  141.4281   75.9669  222.4087 H   0  0  0  0  0  0  0  0  0  0  0  0
  143.0400   78.4910  221.9150 H   0  0  0  0  0  0  0  0  0  0  0  0
  142.0486   79.9087  224.2837 H   0  0  0  0  0  0  0  0  0  0  0  0
  143.3760   80.4267  223.1997 H   0  0  0  0  0  0  0  0  0  0  0  0
  142.8593   82.0330  221.3240 H   0  0  0  0  0  0  0  0  0  0  0  0
  141.1756   83.6186  220.4352 H   0  0  0  0  0  0  0  0  0  0  0  0
  139.7942   80.2958  223.7926 H   0  0  0  0  0  0  0  0  0  0  0  0
  139.2247   69.7180  222.6055 H   0  0  0  0  0  0  0  0  0  0  0  0
  139.0512   68.1264  224.4904 H   0  0  0  0  0  0  0  0  0  0  0  0
  139.4797   67.6433  226.8537 H   0  0  0  0  0  0  0  0  0  0  0  0
  141.3881   70.6110  229.3081 H   0  0  0  0  0  0  0  0  0  0  0  0
  141.5222   72.1659  227.3651 H   0  0  0  0  0  0  0  0  0  0  0  0
  1  2  2  0
  2  3  1  0
  3  4  1  0
  4  5  1  0
  5  6  2  0
  5  7  1  0
  7  8  1  0
  8  9  1  0
  9 10  1  0
 10 11  1  0
 11 12  1  0
 12 13  2  0
 12 14  1  0
 14 15  1  0
 15 16  1  0
 16 17  2  0
 17 18  1  0
 18 19  2  0
 19 20  1  0
 19 21  1  0
 21 22  1  0
 21 23  2  0
  2 24  1  0
 24 25  2  0
 25 26  1  0
 26 27  2  0
 27 28  1  0
 28 29  2  0
 29 30  1  0
 29 31  1  0
 31 32  2  0
 32 33  1  0
 33 34  2  0
 11  7  1  0
 23 16  1  0
 34 24  1  0
 33 27  1  0
  3 35  1  0
  4 36  1  0
  4 37  1  0
  8 38  1  0
  8 39  1  0
  9 40  1  0
  9 41  1  0
 10 42  1  0
 10 43  1  0
 11 44  1  1
 14 45  1  0
 15 46  1  0
 15 47  1  0
 17 48  1  0
 18 49  1  0
 23 50  1  0
 25 51  1  0
 26 52  1  0
 28 53  1  0
 31 54  1  0
 32 55  1  0
M  END
>  <smiles>  (7) 
O=C(NCC(=O)N1CCC[C@H]1C(=O)NCc1ccc(Cl)c(Cl)c1)c1ccc2cc(F)ccc2n1

>  <score_type>  (7) 
oracle

>  <origin>  (7) 
autodockgpu

>  <m_score__min__energy>  (7) 
-9.1099999999999994

>  <m_primary>  (7) 
energy

>  <meeko>  (7) 
{"free_energy": -9.11, "intermolecular_energy": -11.2, "internal_energy": -1.76, "cluster_size": 3, "cluster_id": 1, "rank_in_cluster": 1}

>  <energy>  (7) 
-8.07

>  <cluster_rmsd>  (7) 
1.54

>  <rmsd>  (7) 
270.5

>  <cluster>  (7) 
3

$$$$

     RDKit          3D

 55 58  0  0  0  0  0  0  0  0999 V2000
  138.3860   70.7130  221.7950 O   0  0  0  0  0  0  0  0  0  0  0  0
  138.9600   71.2040  222.7870 C   0  0  0  0  0  0  0  0  0  0  0  0
  139.3190   72.5920  222.7040 N   0  0  0  0  0  0  0  0  0  0  0  0
  139.0290   73.3750  221.5290 C   0  0  0  0  0  0  0  0  0  0  0  0
  139.4770   74.7990  221.6900 C   0  0  0  0  0  0  0  0  0  0  0  0
  140.6230   75.1270  222.0210 O   0  0  0  0  0  0  0  0  0  0  0  0
  138.4820   75.8140  221.4340 N   0  0  0  0  0  0  0  0  0  0  0  0
  137.5600   75.8540  220.3050 C   0  0  0  0  0  0  0  0  0  0  0  0
  137.4120   77.3360  220.0330 C   0  0  0  0  0  0  0  0  0  0  0  0
  138.1170   78.0670  221.1600 C   0  0  0  0  0  0  0  0  0  0  0  0
  138.1900   76.9890  222.2350 C   0  0  1  0  0  0  0  0  0  0  0  0
  136.8840   76.8790  222.9250 C   0  0  0  0  0  0  0  0  0  0  0  0
  136.1550   77.9010  222.9320 O   0  0  0  0  0  0  0  0  0  0  0  0
  136.5280   75.6460  223.5350 N   0  0  0  0  0  0  0  0  0  0  0  0
  135.2890   75.4190  224.2410 C   0  0  0  0  0  0  0  0  0  0  0  0
  135.1600   73.9800  224.5160 C   0  0  0  0  0  0  0  0  0  0  0  0
  135.8230   72.9820  223.8400 C   0  0  0  0  0  0  0  0  0  0  0  0
  135.6030   71.6610  224.2010 C   0  0  0  0  0  0  0  0  0  0  0  0
  134.7330   71.3100  225.2260 C   0  0  0  0  0  0  0  0  0  0  0  0
  134.4720   69.6180  225.6650 Cl  0  0  0  0  0  0  0  0  0  0  0  0
  134.0750   72.3050  225.8970 C   0  0  0  0  0  0  0  0  0  0  0  0
  132.9530   71.9470  227.2160 Cl  0  0  0  0  0  0  0  0  0  0  0  0
  134.2840   73.6220  225.5500 C   0  0  0  0  0  0  0  0  0  0  0  0
  139.2610   70.4200  223.9810 C   0  0  0  0  0  0  0  0  0  0  0  0
  138.8620   69.0970  224.0040 C   0  0  0  0  0  0  0  0  0  0  0  0
  139.0930   68.2680  225.0810 C   0  0  0  0  0  0  0  0  0  0  0  0
  139.7540   68.7950  226.1770 C   0  0  0  0  0  0  0  0  0  0  0  0
  140.0150   68.0120  227.2880 C   0  0  0  0  0  0  0  0  0  0  0  0
  140.6710   68.5730  228.3480 C   0  0  0  0  0  0  0  0  0  0  0  0
  140.9280   67.8040  229.4400 F   0  0  0  0  0  0  0  0  0  0  0  0
  141.0790   69.8920  228.3460 C   0  0  0  0  0  0  0  0  0  0  0  0
  140.8220   70.6810  227.2420 C   0  0  0  0  0  0  0  0  0  0  0  0
  140.1530   70.1280  226.1470 C   0  0  0  0  0  0  0  0  0  0  0  0
  139.8950   70.9000  225.0520 N   0  0  0  0  0  0  0  0  0  0  0  0
  139.7990   72.9810  223.5550 H   0  0  0  0  0  0  0  0  0  0  0  0
  139.5498   72.9321  220.6673 H   0  0  0  0  0  0  0  0  0  0  0  0
  137.9401   73.3721  221.3735 H   0  0  0  0  0  0  0  0  0  0  0  0
  137.9814   75.3328  219.4327 H   0  0  0  0  0  0  0  0  0  0  0  0
  136.6017   75.3552  220.5121 H   0  0  0  0  0  0  0  0  0  0  0  0
  137.8760   77.5912  219.0689 H   0  0  0  0  0  0  0  0  0  0  0  0
  136.3509   77.6217  219.9834 H   0  0  0  0  0  0  0  0  0  0  0  0
  139.1211   78.3979  220.8561 H   0  0  0  0  0  0  0  0  0  0  0  0
  137.6046   78.9848  221.4842 H   0  0  0  0  0  0  0  0  0  0  0  0
  138.9253   77.1670  223.0336 H   0  0  0  0  0  0  0  0  0  0  0  0
  137.2330   74.8530  223.4540 H   0  0  0  0  0  0  0  0  0  0  0  0
  135.2950   75.9779  225.1884 H   0  0  0  0  0  0  0  0  0  0  0  0
  134.4410   75.7613  223.6296 H   0  0  0  0  0  0  0  0  0  0  0  0
  136.5183   73.2284  223.0240 H   0  0  0  0  0  0  0  0  0  0  0  0
  136.1345   70.8654  223.6583 H   0  0  0  0  0  0  0  0  0  0  0  0
  133.7500   74.4122  226.0981 H   0  0  0  0  0  0  0  0  0  0  0  0
  138.3386   68.6887  223.1269 H   0  0  0  0  0  0  0  0  0  0  0  0
  138.7619   67.2191  225.0697 H   0  0  0  0  0  0  0  0  0  0  0  0
  139.7005   66.9583  227.3175 H   0  0  0  0  0  0  0  0  0  0  0  0
  141.6045   70.3111  229.2167 H   0  0  0  0  0  0  0  0  0  0  0  0
  141.1406   71.7337  227.2249 H   0  0  0  0  0  0  0  0  0  0  0  0
  1  2  2  0
  2  3  1  0
  3  4  1  0
  4  5  1  0
  5  6  2  0
  5  7  1  0
  7  8  1  0
  8  9  1  0
  9 10  1  0
 10 11  1  0
 11 12  1  0
 12 13  2  0
 12 14  1  0
 14 15  1  0
 15 16  1  0
 16 17  2  0
 17 18  1  0
 18 19  2  0
 19 20  1  0
 19 21  1  0
 21 22  1  0
 21 23  2  0
  2 24  1  0
 24 25  2  0
 25 26  1  0
 26 27  2  0
 27 28  1  0
 28 29  2  0
 29 30  1  0
 29 31  1  0
 31 32  2  0
 32 33  1  0
 33 34  2  0
 11  7  1  0
 23 16  1  0
 34 24  1  0
 33 27  1  0
  3 35  1  0
  4 36  1  0
  4 37  1  0
  8 38  1  0
  8 39  1  0
  9 40  1  0
  9 41  1  0
 10 42  1  0
 10 43  1  0
 11 44  1  1
 14 45  1  0
 15 46  1  0
 15 47  1  0
 17 48  1  0
 18 49  1  0
 23 50  1  0
 25 51  1  0
 26 52  1  0
 28 53  1  0
 31 54  1  0
 32 55  1  0
M  END
>  <smiles>  (8) 
O=C(NCC(=O)N1CCC[C@H]1C(=O)NCc1ccc(Cl)c(Cl)c1)c1ccc2cc(F)ccc2n1

>  <score_type>  (8) 
oracle

>  <origin>  (8) 
autodockgpu

>  <m_score__min__energy>  (8) 
-9.1099999999999994

>  <m_primary>  (8) 
energy

>  <meeko>  (8) 
{"free_energy": -8.11, "intermolecular_energy": -10.2, "internal_energy": -2.56, "cluster_size": 1, "cluster_id": 5, "rank_in_cluster": 1}

>  <energy>  (8) 
-7.61

>  <cluster_rmsd>  (8) 
1.47

>  <rmsd>  (8) 
270.38

>  <cluster>  (8) 
3

$$$$

     RDKit          3D

 55 58  0  0  0  0  0  0  0  0999 V2000
  136.3360   76.3820  221.4040 O   0  0  0  0  0  0  0  0  0  0  0  0
  137.4150   76.2590  222.0160 C   0  0  0  0  0  0  0  0  0  0  0  0
  137.8250   74.9200  222.3370 N   0  0  0  0  0  0  0  0  0  0  0  0
  137.0250   73.7800  221.9700 C   0  0  0  0  0  0  0  0  0  0  0  0
  137.8360   72.5160  221.9580 C   0  0  0  0  0  0  0  0  0  0  0  0
  137.5040   71.4800  222.5480 O   0  0  0  0  0  0  0  0  0  0  0  0
  139.0670   72.5550  221.2050 N   0  0  0  0  0  0  0  0  0  0  0  0
  139.1910   72.5610  219.7520 C   0  0  0  0  0  0  0  0  0  0  0  0
  140.4660   71.7800  219.5110 C   0  0  0  0  0  0  0  0  0  0  0  0
  141.1010   71.5380  220.8680 C   0  0  0  0  0  0  0  0  0  0  0  0
  140.4210   72.5990  221.7250 C   0  0  1  0  0  0  0  0  0  0  0  0
  141.0610   73.9150  221.4950 C   0  0  0  0  0  0  0  0  0  0  0  0
  140.6830   74.8680  222.2210 O   0  0  0  0  0  0  0  0  0  0  0  0
  142.0500   74.0340  220.4820 N   0  0  0  0  0  0  0  0  0  0  0  0
  142.7370   75.2630  220.1610 C   0  0  0  0  0  0  0  0  0  0  0  0
  141.7350   76.2990  219.8620 C   0  0  0  0  0  0  0  0  0  0  0  0
  140.4750   76.0610  219.3630 C   0  0  0  0  0  0  0  0  0  0  0  0
  139.6310   77.1350  219.1210 C   0  0  0  0  0  0  0  0  0  0  0  0
  140.0160   78.4470  219.3670 C   0  0  0  0  0  0  0  0  0  0  0  0
  138.9210   79.7960  219.0480 Cl  0  0  0  0  0  0  0  0  0  0  0  0
  141.2710   78.6800  219.8630 C   0  0  0  0  0  0  0  0  0  0  0  0
  141.8400   80.3180  220.2060 Cl  0  0  0  0  0  0  0  0  0  0  0  0
  142.1190   77.6230  220.1080 C   0  0  0  0  0  0  0  0  0  0  0  0
  138.2330   77.4070  222.3960 C   0  0  0  0  0  0  0  0  0  0  0  0
  137.6270   78.6490  222.4300 C   0  0  0  0  0  0  0  0  0  0  0  0
  138.3070   79.7990  222.7720 C   0  0  0  0  0  0  0  0  0  0  0  0
  139.6490   79.6900  223.0940 C   0  0  0  0  0  0  0  0  0  0  0  0
  140.3830   80.8100  223.4460 C   0  0  0  0  0  0  0  0  0  0  0  0
  141.7050   80.6560  223.7560 C   0  0  0  0  0  0  0  0  0  0  0  0
  142.4280   81.7560  224.1030 F   0  0  0  0  0  0  0  0  0  0  0  0
  142.3300   79.4250  223.7290 C   0  0  0  0  0  0  0  0  0  0  0  0
  141.6050   78.3030  223.3780 C   0  0  0  0  0  0  0  0  0  0  0  0
  140.2520   78.4370  223.0580 C   0  0  0  0  0  0  0  0  0  0  0  0
  139.5270   77.3330  222.7100 N   0  0  0  0  0  0  0  0  0  0  0  0
  138.7390   74.8450  222.8510 H   0  0  0  0  0  0  0  0  0  0  0  0
  136.2050   73.6711  222.6951 H   0  0  0  0  0  0  0  0  0  0  0  0
  136.6332   73.9469  220.9558 H   0  0  0  0  0  0  0  0  0  0  0  0
  138.3296   72.0654  219.2804 H   0  0  0  0  0  0  0  0  0  0  0  0
  139.2184   73.5745  219.3253 H   0  0  0  0  0  0  0  0  0  0  0  0
  140.2352   70.8204  219.0253 H   0  0  0  0  0  0  0  0  0  0  0  0
  141.1485   72.3363  218.8517 H   0  0  0  0  0  0  0  0  0  0  0  0
  140.8830   70.5250  221.2371 H   0  0  0  0  0  0  0  0  0  0  0  0
  142.1989   71.6054  220.8641 H   0  0  0  0  0  0  0  0  0  0  0  0
  140.4764   72.4356  222.8114 H   0  0  0  0  0  0  0  0  0  0  0  0
  142.2840   73.1500  219.9390 H   0  0  0  0  0  0  0  0  0  0  0  0
  143.3513   75.5783  221.0173 H   0  0  0  0  0  0  0  0  0  0  0  0
  143.3905   75.1107  219.2893 H   0  0  0  0  0  0  0  0  0  0  0  0
  140.1414   75.0329  219.1587 H   0  0  0  0  0  0  0  0  0  0  0  0
  138.6245   76.9416  218.7215 H   0  0  0  0  0  0  0  0  0  0  0  0
  143.1241   77.8239  220.5073 H   0  0  0  0  0  0  0  0  0  0  0  0
  136.5598   78.7230  222.1740 H   0  0  0  0  0  0  0  0  0  0  0  0
  137.7981   80.7741  222.7885 H   0  0  0  0  0  0  0  0  0  0  0  0
  139.9116   81.8035  223.4755 H   0  0  0  0  0  0  0  0  0  0  0  0
  143.3963   79.3387  223.9849 H   0  0  0  0  0  0  0  0  0  0  0  0
  142.0877   77.3150  223.3508 H   0  0  0  0  0  0  0  0  0  0  0  0
  1  2  2  0
  2  3  1  0
  3  4  1  0
  4  5  1  0
  5  6  2  0
  5  7  1  0
  7  8  1  0
  8  9  1  0
  9 10  1  0
 10 11  1  0
 11 12  1  0
 12 13  2  0
 12 14  1  0
 14 15  1  0
 15 16  1  0
 16 17  2  0
 17 18  1  0
 18 19  2  0
 19 20  1  0
 19 21  1  0
 21 22  1  0
 21 23  2  0
  2 24  1  0
 24 25  2  0
 25 26  1  0
 26 27  2  0
 27 28  1  0
 28 29  2  0
 29 30  1  0
 29 31  1  0
 31 32  2  0
 32 33  1  0
 33 34  2  0
 11  7  1  0
 23 16  1  0
 34 24  1  0
 33 27  1  0
  3 35  1  0
  4 36  1  0
  4 37  1  0
  8 38  1  0
  8 39  1  0
  9 40  1  0
  9 41  1  0
 10 42  1  0
 10 43  1  0
 11 44  1  1
 14 45  1  0
 15 46  1  0
 15 47  1  0
 17 48  1  0
 18 49  1  0
 23 50  1  0
 25 51  1  0
 26 52  1  0
 28 53  1  0
 31 54  1  0
 32 55  1  0
M  END
>  <smiles>  (9) 
O=C(NCC(=O)N1CCC[C@H]1C(=O)NCc1ccc(Cl)c(Cl)c1)c1ccc2cc(F)ccc2n1

>  <score_type>  (9) 
oracle

>  <origin>  (9) 
autodockgpu

>  <m_score__min__energy>  (9) 
-9.1099999999999994

>  <m_primary>  (9) 
energy

>  <meeko>  (9) 
{"free_energy": -5.86, "intermolecular_energy": -7.95, "internal_energy": -4.76, "cluster_size": 1, "cluster_id": 11, "rank_in_cluster": 1}

>  <energy>  (9) 
-8.12

>  <cluster_rmsd>  (9) 
0.0

>  <rmsd>  (9) 
270.5

>  <cluster>  (9) 
4

$$$$

     RDKit          3D

 55 58  0  0  0  0  0  0  0  0999 V2000
  139.9580   73.3840  222.7220 O   0  0  0  0  0  0  0  0  0  0  0  0
  139.5920   72.1920  222.6750 C   0  0  0  0  0  0  0  0  0  0  0  0
  138.9870   71.7500  221.4500 N   0  0  0  0  0  0  0  0  0  0  0  0
  138.8110   72.6430  220.3330 C   0  0  0  0  0  0  0  0  0  0  0  0
  139.9160   72.4950  219.3270 C   0  0  0  0  0  0  0  0  0  0  0  0
  140.2010   71.4280  218.7700 O   0  0  0  0  0  0  0  0  0  0  0  0
  140.6660   73.6900  219.0220 N   0  0  0  0  0  0  0  0  0  0  0  0
  140.1690   74.8630  218.3110 C   0  0  0  0  0  0  0  0  0  0  0  0
  141.3850   75.3450  217.5480 C   0  0  0  0  0  0  0  0  0  0  0  0
  142.5640   74.5200  218.0270 C   0  0  0  0  0  0  0  0  0  0  0  0
  142.0490   73.9770  219.3540 C   0  0  1  0  0  0  0  0  0  0  0  0
  142.1630   75.0190  220.4010 C   0  0  0  0  0  0  0  0  0  0  0  0
  143.2450   75.6530  220.4590 O   0  0  0  0  0  0  0  0  0  0  0  0
  141.0640   75.2440  221.2720 N   0  0  0  0  0  0  0  0  0  0  0  0
  141.0590   76.2240  222.3330 C   0  0  0  0  0  0  0  0  0  0  0  0
  141.1220   77.5670  221.7340 C   0  0  0  0  0  0  0  0  0  0  0  0
  140.8450   77.8610  220.4190 C   0  0  0  0  0  0  0  0  0  0  0  0
  140.9500   79.1750  219.9850 C   0  0  0  0  0  0  0  0  0  0  0  0
  141.3250   80.2060  220.8360 C   0  0  0  0  0  0  0  0  0  0  0  0
  141.4510   81.8710  220.2550 Cl  0  0  0  0  0  0  0  0  0  0  0  0
  141.6000   79.9100  222.1440 C   0  0  0  0  0  0  0  0  0  0  0  0
  142.0820   81.1630  223.2940 Cl  0  0  0  0  0  0  0  0  0  0  0  0
  141.5000   78.6110  222.5890 C   0  0  0  0  0  0  0  0  0  0  0  0
  139.7640   71.2790  223.8020 C   0  0  0  0  0  0  0  0  0  0  0  0
  139.3750   69.9630  223.6330 C   0  0  0  0  0  0  0  0  0  0  0  0
  139.4910   69.0200  224.6310 C   0  0  0  0  0  0  0  0  0  0  0  0
  140.0200   69.4190  225.8460 C   0  0  0  0  0  0  0  0  0  0  0  0
  140.1610   68.5160  226.8860 C   0  0  0  0  0  0  0  0  0  0  0  0
  140.6880   68.9540  228.0680 C   0  0  0  0  0  0  0  0  0  0  0  0
  140.8270   68.0670  229.0910 F   0  0  0  0  0  0  0  0  0  0  0  0
  141.0820   70.2640  228.2590 C   0  0  0  0  0  0  0  0  0  0  0  0
  140.9440   71.1710  227.2270 C   0  0  0  0  0  0  0  0  0  0  0  0
  140.4080   70.7450  226.0090 C   0  0  0  0  0  0  0  0  0  0  0  0
  140.2680   71.6360  224.9840 N   0  0  0  0  0  0  0  0  0  0  0  0
  138.6920   70.7410  221.4370 H   0  0  0  0  0  0  0  0  0  0  0  0
  137.8513   72.4187  219.8445 H   0  0  0  0  0  0  0  0  0  0  0  0
  138.8272   73.6754  220.7122 H   0  0  0  0  0  0  0  0  0  0  0  0
  139.3539   74.5919  217.6239 H   0  0  0  0  0  0  0  0  0  0  0  0
  139.7485   75.6277  218.9807 H   0  0  0  0  0  0  0  0  0  0  0  0
  141.2357   75.1992  216.4680 H   0  0  0  0  0  0  0  0  0  0  0  0
  141.5589   76.4170  217.7227 H   0  0  0  0  0  0  0  0  0  0  0  0
  142.7946   73.7059  217.3240 H   0  0  0  0  0  0  0  0  0  0  0  0
  143.5002   75.0910  218.1136 H   0  0  0  0  0  0  0  0  0  0  0  0
  142.5923   73.1068  219.7509 H   0  0  0  0  0  0  0  0  0  0  0  0
  140.2010   74.6430  221.1160 H   0  0  0  0  0  0  0  0  0  0  0  0
  140.1366   76.1251  222.9241 H   0  0  0  0  0  0  0  0  0  0  0  0
  141.9247   76.0667  222.9931 H   0  0  0  0  0  0  0  0  0  0  0  0
  140.5444   77.0656  219.7212 H   0  0  0  0  0  0  0  0  0  0  0  0
  140.7290   79.4072  218.9328 H   0  0  0  0  0  0  0  0  0  0  0  0
  141.7225   78.3869  223.6427 H   0  0  0  0  0  0  0  0  0  0  0  0
  138.9562   69.6566  222.6631 H   0  0  0  0  0  0  0  0  0  0  0  0
  139.1723   67.9801  224.4667 H   0  0  0  0  0  0  0  0  0  0  0  0
  139.8548   67.4667  226.7631 H   0  0  0  0  0  0  0  0  0  0  0  0
  141.5020   70.5819  229.2247 H   0  0  0  0  0  0  0  0  0  0  0  0
  141.2528   72.2180  227.3624 H   0  0  0  0  0  0  0  0  0  0  0  0
  1  2  2  0
  2  3  1  0
  3  4  1  0
  4  5  1  0
  5  6  2  0
  5  7  1  0
  7  8  1  0
  8  9  1  0
  9 10  1  0
 10 11  1  0
 11 12  1  0
 12 13  2  0
 12 14  1  0
 14 15  1  0
 15 16  1  0
 16 17  2  0
 17 18  1  0
 18 19  2  0
 19 20  1  0
 19 21  1  0
 21 22  1  0
 21 23  2  0
  2 24  1  0
 24 25  2  0
 25 26  1  0
 26 27  2  0
 27 28  1  0
 28 29  2  0
 29 30  1  0
 29 31  1  0
 31 32  2  0
 32 33  1  0
 33 34  2  0
 11  7  1  0
 23 16  1  0
 34 24  1  0
 33 27  1  0
  3 35  1  0
  4 36  1  0
  4 37  1  0
  8 38  1  0
  8 39  1  0
  9 40  1  0
  9 41  1  0
 10 42  1  0
 10 43  1  0
 11 44  1  1
 14 45  1  0
 15 46  1  0
 15 47  1  0
 17 48  1  0
 18 49  1  0
 23 50  1  0
 25 51  1  0
 26 52  1  0
 28 53  1  0
 31 54  1  0
 32 55  1  0
M  END
>  <smiles>  (10) 
O=C(NCC(=O)N1CCC[C@H]1C(=O)NCc1ccc(Cl)c(Cl)c1)c1ccc2cc(F)ccc2n1

>  <score_type>  (10) 
oracle

>  <origin>  (10) 
autodockgpu

>  <m_score__min__energy>  (10) 
-9.1099999999999994

>  <m_primary>  (10) 
energy

>  <meeko>  (10) 
{"free_energy": -7.61, "intermolecular_energy": -9.7, "internal_energy": -2.61, "cluster_size": 3, "cluster_id": 3, "rank_in_cluster": 3}

>  <energy>  (10) 
-8.11

>  <cluster_rmsd>  (10) 
0.0

>  <rmsd>  (10) 
270.19

>  <cluster>  (10) 
5

$$$$

     RDKit          3D

 55 58  0  0  0  0  0  0  0  0999 V2000
  139.9880   73.0140  222.5580 O   0  0  0  0  0  0  0  0  0  0  0  0
  139.3620   72.0370  223.0160 C   0  0  0  0  0  0  0  0  0  0  0  0
  138.1820   71.6360  222.3020 N   0  0  0  0  0  0  0  0  0  0  0  0
  137.7470   72.3320  221.1180 C   0  0  0  0  0  0  0  0  0  0  0  0
  136.5750   73.2270  221.4020 C   0  0  0  0  0  0  0  0  0  0  0  0
  135.4180   72.8170  221.5610 O   0  0  0  0  0  0  0  0  0  0  0  0
  136.8570   74.6400  221.4850 N   0  0  0  0  0  0  0  0  0  0  0  0
  137.1190   75.3990  222.7030 C   0  0  0  0  0  0  0  0  0  0  0  0
  136.5140   76.7540  222.4010 C   0  0  0  0  0  0  0  0  0  0  0  0
  136.1100   76.7450  220.9390 C   0  0  0  0  0  0  0  0  0  0  0  0
  136.9420   75.5910  220.3920 C   0  0  1  0  0  0  0  0  0  0  0  0
  138.3330   76.0430  220.1570 C   0  0  0  0  0  0  0  0  0  0  0  0
  138.4960   77.0000  219.3610 O   0  0  0  0  0  0  0  0  0  0  0  0
  139.3950   75.3820  220.8300 N   0  0  0  0  0  0  0  0  0  0  0  0
  140.7900   75.7260  220.6780 C   0  0  0  0  0  0  0  0  0  0  0  0
  141.0540   76.9640  221.4270 C   0  0  0  0  0  0  0  0  0  0  0  0
  141.0880   77.0670  222.7990 C   0  0  0  0  0  0  0  0  0  0  0  0
  141.3450   78.3020  223.3770 C   0  0  0  0  0  0  0  0  0  0  0  0
  141.5700   79.4420  222.6150 C   0  0  0  0  0  0  0  0  0  0  0  0
  141.8940   81.0020  223.3790 Cl  0  0  0  0  0  0  0  0  0  0  0  0
  141.5360   79.3360  221.2510 C   0  0  0  0  0  0  0  0  0  0  0  0
  141.8140   80.7350  220.2070 Cl  0  0  0  0  0  0  0  0  0  0  0  0
  141.2830   78.1160  220.6630 C   0  0  0  0  0  0  0  0  0  0  0  0
  139.7920   71.3270  224.2160 C   0  0  0  0  0  0  0  0  0  0  0  0
  140.7460   71.9280  225.0160 C   0  0  0  0  0  0  0  0  0  0  0  0
  141.2250   71.3440  226.1700 C   0  0  0  0  0  0  0  0  0  0  0  0
  140.7190   70.1060  226.5300 C   0  0  0  0  0  0  0  0  0  0  0  0
  141.1610   69.4710  227.6780 C   0  0  0  0  0  0  0  0  0  0  0  0
  140.6350   68.2500  227.9960 C   0  0  0  0  0  0  0  0  0  0  0  0
  141.0680   67.6240  229.1250 F   0  0  0  0  0  0  0  0  0  0  0  0
  139.6810   67.6320  227.2120 C   0  0  0  0  0  0  0  0  0  0  0  0
  139.2360   68.2590  226.0650 C   0  0  0  0  0  0  0  0  0  0  0  0
  139.7590   69.5070  225.7210 C   0  0  0  0  0  0  0  0  0  0  0  0
  139.3250   70.1340  224.5880 N   0  0  0  0  0  0  0  0  0  0  0  0
  137.6750   70.8090  222.7070 H   0  0  0  0  0  0  0  0  0  0  0  0
  138.5787   72.9430  220.7372 H   0  0  0  0  0  0  0  0  0  0  0  0
  137.4362   71.5839  220.3738 H   0  0  0  0  0  0  0  0  0  0  0  0
  136.6302   74.9331  223.5713 H   0  0  0  0  0  0  0  0  0  0  0  0
  138.1876   75.4502  222.9588 H   0  0  0  0  0  0  0  0  0  0  0  0
  135.6315   76.9233  223.0355 H   0  0  0  0  0  0  0  0  0  0  0  0
  137.2355   77.5593  222.6033 H   0  0  0  0  0  0  0  0  0  0  0  0
  135.0332   76.5528  220.8223 H   0  0  0  0  0  0  0  0  0  0  0  0
  136.2822   77.7014  220.4236 H   0  0  0  0  0  0  0  0  0  0  0  0
  136.6041   75.1800  219.4292 H   0  0  0  0  0  0  0  0  0  0  0  0
  139.1240   74.5870  221.4830 H   0  0  0  0  0  0  0  0  0  0  0  0
  141.4170   74.9132  221.0733 H   0  0  0  0  0  0  0  0  0  0  0  0
  141.0261   75.8738  219.6138 H   0  0  0  0  0  0  0  0  0  0  0  0
  140.9138   76.1822  223.4289 H   0  0  0  0  0  0  0  0  0  0  0  0
  141.3715   78.3812  224.4738 H   0  0  0  0  0  0  0  0  0  0  0  0
  141.2602   78.0445  219.5656 H   0  0  0  0  0  0  0  0  0  0  0  0
  141.1390   72.9119  224.7201 H   0  0  0  0  0  0  0  0  0  0  0  0
  141.9858   71.8462  226.7857 H   0  0  0  0  0  0  0  0  0  0  0  0
  141.9203   69.9396  228.3214 H   0  0  0  0  0  0  0  0  0  0  0  0
  139.2791   66.6490  227.4986 H   0  0  0  0  0  0  0  0  0  0  0  0
  138.4771   67.7801  225.4288 H   0  0  0  0  0  0  0  0  0  0  0  0
  1  2  2  0
  2  3  1  0
  3  4  1  0
  4  5  1  0
  5  6  2  0
  5  7  1  0
  7  8  1  0
  8  9  1  0
  9 10  1  0
 10 11  1  0
 11 12  1  0
 12 13  2  0
 12 14  1  0
 14 15  1  0
 15 16  1  0
 16 17  2  0
 17 18  1  0
 18 19  2  0
 19 20  1  0
 19 21  1  0
 21 22  1  0
 21 23  2  0
  2 24  1  0
 24 25  2  0
 25 26  1  0
 26 27  2  0
 27 28  1  0
 28 29  2  0
 29 30  1  0
 29 31  1  0
 31 32  2  0
 32 33  1  0
 33 34  2  0
 11  7  1  0
 23 16  1  0
 34 24  1  0
 33 27  1  0
  3 35  1  0
  4 36  1  0
  4 37  1  0
  8 38  1  0
  8 39  1  0
  9 40  1  0
  9 41  1  0
 10 42  1  0
 10 43  1  0
 11 44  1  6
 14 45  1  0
 15 46  1  0
 15 47  1  0
 17 48  1  0
 18 49  1  0
 23 50  1  0
 25 51  1  0
 26 52  1  0
 28 53  1  0
 31 54  1  0
 32 55  1  0
M  END
>  <smiles>  (11) 
O=C(NCC(=O)N1CCC[C@H]1C(=O)NCc1ccc(Cl)c(Cl)c1)c1ccc2cc(F)ccc2n1

>  <score_type>  (11) 
oracle

>  <origin>  (11) 
autodockgpu

>  <m_score__min__energy>  (11) 
-9.1099999999999994

>  <m_primary>  (11) 
energy

>  <meeko>  (11) 
{"free_energy": -7.55, "intermolecular_energy": -9.64, "internal_energy": -3.01, "cluster_size": 2, "cluster_id": 6, "rank_in_cluster": 2}

>  <energy>  (11) 
-8.04

>  <cluster_rmsd>  (11) 
0.0

>  <rmsd>  (11) 
270.4

>  <cluster>  (11) 
6

$$$$

     RDKit          3D

 55 58  0  0  0  0  0  0  0  0999 V2000
  140.4910   73.4430  222.1930 O   0  0  0  0  0  0  0  0  0  0  0  0
  139.8260   72.3910  222.2720 C   0  0  0  0  0  0  0  0  0  0  0  0
  139.0060   72.0590  221.1400 N   0  0  0  0  0  0  0  0  0  0  0  0
  138.9550   72.9050  219.9750 C   0  0  0  0  0  0  0  0  0  0  0  0
  137.6680   73.6760  219.9070 C   0  0  0  0  0  0  0  0  0  0  0  0
  136.8740   73.6070  218.9610 O   0  0  0  0  0  0  0  0  0  0  0  0
  137.3800   74.5360  221.0300 N   0  0  0  0  0  0  0  0  0  0  0  0
  137.0020   74.1070  222.3720 C   0  0  0  0  0  0  0  0  0  0  0  0
  136.0510   75.1940  222.8260 C   0  0  0  0  0  0  0  0  0  0  0  0
  136.0950   76.2890  221.7780 C   0  0  0  0  0  0  0  0  0  0  0  0
  137.4070   75.9870  221.0640 C   0  0  1  0  0  0  0  0  0  0  0  0
  138.5430   76.5010  221.8620 C   0  0  0  0  0  0  0  0  0  0  0  0
  138.2960   77.4220  222.6790 O   0  0  0  0  0  0  0  0  0  0  0  0
  139.8330   75.9400  221.6670 N   0  0  0  0  0  0  0  0  0  0  0  0
  141.0170   76.3620  222.3790 C   0  0  0  0  0  0  0  0  0  0  0  0
  141.1050   77.8300  222.3180 C   0  0  0  0  0  0  0  0  0  0  0  0
  140.9520   78.6770  223.3900 C   0  0  0  0  0  0  0  0  0  0  0  0
  141.0550   80.0460  223.1890 C   0  0  0  0  0  0  0  0  0  0  0  0
  141.3090   80.5920  221.9370 C   0  0  0  0  0  0  0  0  0  0  0  0
  141.4350   82.3400  221.7100 Cl  0  0  0  0  0  0  0  0  0  0  0  0
  141.4620   79.7450  220.8720 C   0  0  0  0  0  0  0  0  0  0  0  0
  141.7900   80.3560  219.2460 Cl  0  0  0  0  0  0  0  0  0  0  0  0
  141.3620   78.3840  221.0570 C   0  0  0  0  0  0  0  0  0  0  0  0
  139.8670   71.5280  223.4490 C   0  0  0  0  0  0  0  0  0  0  0  0
  139.3160   70.2650  223.3440 C   0  0  0  0  0  0  0  0  0  0  0  0
  139.3000   69.3710  224.3940 C   0  0  0  0  0  0  0  0  0  0  0  0
  139.8620   69.7680  225.5950 C   0  0  0  0  0  0  0  0  0  0  0  0
  139.8760   68.9150  226.6850 C   0  0  0  0  0  0  0  0  0  0  0  0
  140.4410   69.3480  227.8510 C   0  0  0  0  0  0  0  0  0  0  0  0
  140.4550   68.5090  228.9230 F   0  0  0  0  0  0  0  0  0  0  0  0
  140.9970   70.6050  227.9780 C   0  0  0  0  0  0  0  0  0  0  0  0
  140.9870   71.4640  226.8960 C   0  0  0  0  0  0  0  0  0  0  0  0
  140.4150   71.0420  225.6930 C   0  0  0  0  0  0  0  0  0  0  0  0
  140.4000   71.8840  224.6190 N   0  0  0  0  0  0  0  0  0  0  0  0
  138.4580   71.1670  221.2320 H   0  0  0  0  0  0  0  0  0  0  0  0
  139.7946   73.6147  220.0123 H   0  0  0  0  0  0  0  0  0  0  0  0
  139.0202   72.2654  219.0825 H   0  0  0  0  0  0  0  0  0  0  0  0
  136.5000   73.1286  222.3468 H   0  0  0  0  0  0  0  0  0  0  0  0
  137.8639   73.9790  223.0434 H   0  0  0  0  0  0  0  0  0  0  0  0
  135.0304   74.7921  222.9096 H   0  0  0  0  0  0  0  0  0  0  0  0
  136.3427   75.5834  223.8125 H   0  0  0  0  0  0  0  0  0  0  0  0
  135.2396   76.2191  221.0900 H   0  0  0  0  0  0  0  0  0  0  0  0
  136.0389   77.3056  222.1943 H   0  0  0  0  0  0  0  0  0  0  0  0
  137.5202   76.4455  220.0705 H   0  0  0  0  0  0  0  0  0  0  0  0
  139.9100   75.1610  220.9470 H   0  0  0  0  0  0  0  0  0  0  0  0
  140.9533   76.0381  223.4283 H   0  0  0  0  0  0  0  0  0  0  0  0
  141.9105   75.9132  221.9205 H   0  0  0  0  0  0  0  0  0  0  0  0
  140.7506   78.2747  224.3938 H   0  0  0  0  0  0  0  0  0  0  0  0
  140.9315   80.7209  224.0488 H   0  0  0  0  0  0  0  0  0  0  0  0
  141.4871   77.7149  220.1929 H   0  0  0  0  0  0  0  0  0  0  0  0
  138.8724   69.9606  222.3845 H   0  0  0  0  0  0  0  0  0  0  0  0
  138.8538   68.3720  224.2804 H   0  0  0  0  0  0  0  0  0  0  0  0
  139.4404   67.9074  226.6137 H   0  0  0  0  0  0  0  0  0  0  0  0
  141.4441   70.9200  228.9324 H   0  0  0  0  0  0  0  0  0  0  0  0
  141.4247   72.4696  226.9806 H   0  0  0  0  0  0  0  0  0  0  0  0
  1  2  2  0
  2  3  1  0
  3  4  1  0
  4  5  1  0
  5  6  2  0
  5  7  1  0
  7  8  1  0
  8  9  1  0
  9 10  1  0
 10 11  1  0
 11 12  1  0
 12 13  2  0
 12 14  1  0
 14 15  1  0
 15 16  1  0
 16 17  2  0
 17 18  1  0
 18 19  2  0
 19 20  1  0
 19 21  1  0
 21 22  1  0
 21 23  2  0
  2 24  1  0
 24 25  2  0
 25 26  1  0
 26 27  2  0
 27 28  1  0
 28 29  2  0
 29 30  1  0
 29 31  1  0
 31 32  2  0
 32 33  1  0
 33 34  2  0
 11  7  1  0
 23 16  1  0
 34 24  1  0
 33 27  1  0
  3 35  1  0
  4 36  1  0
  4 37  1  0
  8 38  1  0
  8 39  1  0
  9 40  1  0
  9 41  1  0
 10 42  1  0
 10 43  1  0
 11 44  1  6
 14 45  1  0
 15 46  1  0
 15 47  1  0
 17 48  1  0
 18 49  1  0
 23 50  1  0
 25 51  1  0
 26 52  1  0
 28 53  1  0
 31 54  1  0
 32 55  1  0
M  END
>  <smiles>  (12) 
O=C(NCC(=O)N1CCC[C@H]1C(=O)NCc1ccc(Cl)c(Cl)c1)c1ccc2cc(F)ccc2n1

>  <score_type>  (12) 
oracle

>  <origin>  (12) 
autodockgpu

>  <m_score__min__energy>  (12) 
-9.1099999999999994

>  <m_primary>  (12) 
energy

>  <meeko>  (12) 
{"free_energy": -8.04, "intermolecular_energy": -10.13, "internal_energy": -2.61, "cluster_size": 2, "cluster_id": 6, "rank_in_cluster": 1}

>  <energy>  (12) 
-7.55

>  <cluster_rmsd>  (12) 
1.38

>  <rmsd>  (12) 
270.37

>  <cluster>  (12) 
6

$$$$

     RDKit          3D

 55 58  0  0  0  0  0  0  0  0999 V2000
  138.0740   74.2420  221.7090 O   0  0  0  0  0  0  0  0  0  0  0  0
  137.7680   75.4330  221.9140 C   0  0  0  0  0  0  0  0  0  0  0  0
  136.3860   75.7830  221.7410 N   0  0  0  0  0  0  0  0  0  0  0  0
  135.4060   74.8030  221.3470 C   0  0  0  0  0  0  0  0  0  0  0  0
  135.4760   73.5750  222.2080 C   0  0  0  0  0  0  0  0  0  0  0  0
  135.0760   73.5310  223.3780 O   0  0  0  0  0  0  0  0  0  0  0  0
  136.0510   72.3990  221.5980 N   0  0  0  0  0  0  0  0  0  0  0  0
  136.5630   72.2960  220.2360 C   0  0  0  0  0  0  0  0  0  0  0  0
  136.2300   70.8700  219.8500 C   0  0  0  0  0  0  0  0  0  0  0  0
  135.7150   70.1810  221.0990 C   0  0  0  0  0  0  0  0  0  0  0  0
  136.2420   71.0930  222.2000 C   0  0  1  0  0  0  0  0  0  0  0  0
  137.6730   70.8020  222.4510 C   0  0  0  0  0  0  0  0  0  0  0  0
  138.0880   69.6610  222.1310 O   0  0  0  0  0  0  0  0  0  0  0  0
  138.4890   71.8090  223.0320 N   0  0  0  0  0  0  0  0  0  0  0  0
  139.8930   71.6420  223.3300 C   0  0  0  0  0  0  0  0  0  0  0  0
  140.0230   70.7940  224.5260 C   0  0  0  0  0  0  0  0  0  0  0  0
  139.7770   69.4420  224.5680 C   0  0  0  0  0  0  0  0  0  0  0  0
  139.9340   68.7640  225.7680 C   0  0  0  0  0  0  0  0  0  0  0  0
  140.3340   69.4070  226.9330 C   0  0  0  0  0  0  0  0  0  0  0  0
  140.5260   68.5190  228.4480 Cl  0  0  0  0  0  0  0  0  0  0  0  0
  140.5780   70.7530  226.8880 C   0  0  0  0  0  0  0  0  0  0  0  0
  141.0920   71.6490  228.3230 Cl  0  0  0  0  0  0  0  0  0  0  0  0
  140.4260   71.4390  225.7030 C   0  0  0  0  0  0  0  0  0  0  0  0
  138.7530   76.4350  222.3110 C   0  0  0  0  0  0  0  0  0  0  0  0
  140.0870   76.0710  222.3000 C   0  0  0  0  0  0  0  0  0  0  0  0
  141.0980   76.9360  222.6580 C   0  0  0  0  0  0  0  0  0  0  0  0
  140.7490   78.2200  223.0420 C   0  0  0  0  0  0  0  0  0  0  0  0
  141.7200   79.1350  223.4120 C   0  0  0  0  0  0  0  0  0  0  0  0
  141.3310   80.3910  223.7840 C   0  0  0  0  0  0  0  0  0  0  0  0
  142.2850   81.2910  224.1470 F   0  0  0  0  0  0  0  0  0  0  0  0
  140.0050   80.7760  223.8020 C   0  0  0  0  0  0  0  0  0  0  0  0
  139.0300   79.8700  223.4350 C   0  0  0  0  0  0  0  0  0  0  0  0
  139.4050   78.5800  223.0510 C   0  0  0  0  0  0  0  0  0  0  0  0
  138.4480   77.6780  222.6870 N   0  0  0  0  0  0  0  0  0  0  0  0
  136.1550   76.7920  221.9230 H   0  0  0  0  0  0  0  0  0  0  0  0
  134.4028   75.2452  221.4366 H   0  0  0  0  0  0  0  0  0  0  0  0
  135.6133   74.5072  220.3080 H   0  0  0  0  0  0  0  0  0  0  0  0
  136.0604   73.0129  219.5700 H   0  0  0  0  0  0  0  0  0  0  0  0
  137.6362   72.5250  220.1593 H   0  0  0  0  0  0  0  0  0  0  0  0
  135.4567   70.8612  219.0677 H   0  0  0  0  0  0  0  0  0  0  0  0
  137.1167   70.3533  219.4541 H   0  0  0  0  0  0  0  0  0  0  0  0
  134.6159   70.1371  221.1076 H   0  0  0  0  0  0  0  0  0  0  0  0
  136.0392   69.1343  221.1953 H   0  0  0  0  0  0  0  0  0  0  0  0
  135.7490   70.9867  223.1776 H   0  0  0  0  0  0  0  0  0  0  0  0
  138.0180   72.7360  223.2530 H   0  0  0  0  0  0  0  0  0  0  0  0
  140.3977   71.1616  222.4788 H   0  0  0  0  0  0  0  0  0  0  0  0
  140.3569   72.6225  223.5130 H   0  0  0  0  0  0  0  0  0  0  0  0
  139.4598   68.9049  223.6619 H   0  0  0  0  0  0  0  0  0  0  0  0
  139.7355   67.6825  225.7983 H   0  0  0  0  0  0  0  0  0  0  0  0
  140.6260   72.5204  225.6802 H   0  0  0  0  0  0  0  0  0  0  0  0
  140.3520   75.0486  221.9927 H   0  0  0  0  0  0  0  0  0  0  0  0
  142.1504   76.6164  222.6394 H   0  0  0  0  0  0  0  0  0  0  0  0
  142.7841   78.8563  223.4066 H   0  0  0  0  0  0  0  0  0  0  0  0
  139.7278   81.7961  224.1062 H   0  0  0  0  0  0  0  0  0  0  0  0
  137.9691   80.1607  223.4448 H   0  0  0  0  0  0  0  0  0  0  0  0
  1  2  2  0
  2  3  1  0
  3  4  1  0
  4  5  1  0
  5  6  2  0
  5  7  1  0
  7  8  1  0
  8  9  1  0
  9 10  1  0
 10 11  1  0
 11 12  1  0
 12 13  2  0
 12 14  1  0
 14 15  1  0
 15 16  1  0
 16 17  2  0
 17 18  1  0
 18 19  2  0
 19 20  1  0
 19 21  1  0
 21 22  1  0
 21 23  2  0
  2 24  1  0
 24 25  2  0
 25 26  1  0
 26 27  2  0
 27 28  1  0
 28 29  2  0
 29 30  1  0
 29 31  1  0
 31 32  2  0
 32 33  1  0
 33 34  2  0
 11  7  1  0
 23 16  1  0
 34 24  1  0
 33 27  1  0
  3 35  1  0
  4 36  1  0
  4 37  1  0
  8 38  1  0
  8 39  1  0
  9 40  1  0
  9 41  1  0
 10 42  1  0
 10 43  1  0
 11 44  1  1
 14 45  1  0
 15 46  1  0
 15 47  1  0
 17 48  1  0
 18 49  1  0
 23 50  1  0
 25 51  1  0
 26 52  1  0
 28 53  1  0
 31 54  1  0
 32 55  1  0
M  END
>  <smiles>  (13) 
O=C(NCC(=O)N1CCC[C@H]1C(=O)NCc1ccc(Cl)c(Cl)c1)c1ccc2cc(F)ccc2n1

>  <score_type>  (13) 
oracle

>  <origin>  (13) 
autodockgpu

>  <m_score__min__energy>  (13) 
-9.1099999999999994

>  <m_primary>  (13) 
energy

>  <meeko>  (13) 
{"free_energy": -7.82, "intermolecular_energy": -9.9, "internal_energy": -2.71, "cluster_size": 2, "cluster_id": 2, "rank_in_cluster": 2}

>  <energy>  (13) 
-7.46

>  <cluster_rmsd>  (13) 
0.0

>  <rmsd>  (13) 
270.2

>  <cluster>  (13) 
7

$$$$

     RDKit          3D

 55 58  0  0  0  0  0  0  0  0999 V2000
  139.5710   74.2170  222.5290 O   0  0  0  0  0  0  0  0  0  0  0  0
  140.0660   75.0920  221.7920 C   0  0  0  0  0  0  0  0  0  0  0  0
  140.4650   74.6770  220.4760 N   0  0  0  0  0  0  0  0  0  0  0  0
  140.3000   73.3150  220.0350 C   0  0  0  0  0  0  0  0  0  0  0  0
  141.4890   72.4700  220.3950 C   0  0  0  0  0  0  0  0  0  0  0  0
  141.4090   71.3840  220.9820 O   0  0  0  0  0  0  0  0  0  0  0  0
  142.7810   72.9930  220.0180 N   0  0  0  0  0  0  0  0  0  0  0  0
  143.6880   72.4240  219.0290 C   0  0  0  0  0  0  0  0  0  0  0  0
  145.0570   72.7390  219.5940 C   0  0  0  0  0  0  0  0  0  0  0  0
  144.8450   73.6490  220.7890 C   0  0  0  0  0  0  0  0  0  0  0  0
  143.4400   74.1800  220.5330 C   0  0  1  0  0  0  0  0  0  0  0  0
  143.4900   75.2660  219.5270 C   0  0  0  0  0  0  0  0  0  0  0  0
  144.0180   74.9960  218.4200 O   0  0  0  0  0  0  0  0  0  0  0  0
  142.9500   76.5380  219.8580 N   0  0  0  0  0  0  0  0  0  0  0  0
  142.9460   77.6740  218.9670 C   0  0  0  0  0  0  0  0  0  0  0  0
  141.7560   78.4910  219.2490 C   0  0  0  0  0  0  0  0  0  0  0  0
  140.4570   78.0400  219.2030 C   0  0  0  0  0  0  0  0  0  0  0  0
  139.4250   78.9230  219.4880 C   0  0  0  0  0  0  0  0  0  0  0  0
  139.6600   80.2510  219.8200 C   0  0  0  0  0  0  0  0  0  0  0  0
  138.3270   81.3540  220.1770 Cl  0  0  0  0  0  0  0  0  0  0  0  0
  140.9540   80.6970  219.8650 C   0  0  0  0  0  0  0  0  0  0  0  0
  141.3420   82.3710  220.2800 Cl  0  0  0  0  0  0  0  0  0  0  0  0
  141.9880   79.8320  219.5850 C   0  0  0  0  0  0  0  0  0  0  0  0
  140.2400   76.4740  222.2290 C   0  0  0  0  0  0  0  0  0  0  0  0
  139.1160   77.1730  222.6270 C   0  0  0  0  0  0  0  0  0  0  0  0
  139.1660   78.4820  223.0550 C   0  0  0  0  0  0  0  0  0  0  0  0
  140.3990   79.1100  223.0830 C   0  0  0  0  0  0  0  0  0  0  0  0
  140.5130   80.4240  223.5040 C   0  0  0  0  0  0  0  0  0  0  0  0
  141.7500   81.0050  223.5160 C   0  0  0  0  0  0  0  0  0  0  0  0
  141.8630   82.2960  223.9300 F   0  0  0  0  0  0  0  0  0  0  0  0
  142.8870   80.3260  223.1230 C   0  0  0  0  0  0  0  0  0  0  0  0
  142.7820   79.0150  222.7010 C   0  0  0  0  0  0  0  0  0  0  0  0
  141.5270   78.4010  222.6810 C   0  0  0  0  0  0  0  0  0  0  0  0
  141.4140   77.1060  222.2650 N   0  0  0  0  0  0  0  0  0  0  0  0
  140.8760   75.4340  219.8740 H   0  0  0  0  0  0  0  0  0  0  0  0
  139.4035   72.8915  220.5114 H   0  0  0  0  0  0  0  0  0  0  0  0
  140.1983   73.3176  218.9397 H   0  0  0  0  0  0  0  0  0  0  0  0
  143.5398   71.3380  218.9364 H   0  0  0  0  0  0  0  0  0  0  0  0
  143.5343   72.8302  218.0184 H   0  0  0  0  0  0  0  0  0  0  0  0
  145.5580   71.8119  219.9094 H   0  0  0  0  0  0  0  0  0  0  0  0
  145.6913   73.2251  218.8381 H   0  0  0  0  0  0  0  0  0  0  0  0
  144.8947   73.0874  221.7335 H   0  0  0  0  0  0  0  0  0  0  0  0
  145.6067   74.4363  220.8893 H   0  0  0  0  0  0  0  0  0  0  0  0
  142.9335   74.6166  221.4064 H   0  0  0  0  0  0  0  0  0  0  0  0
  142.5250   76.6370  220.8280 H   0  0  0  0  0  0  0  0  0  0  0  0
  143.8536   78.2741  219.1285 H   0  0  0  0  0  0  0  0  0  0  0  0
  142.9255   77.3305  217.9222 H   0  0  0  0  0  0  0  0  0  0  0  0
  140.2393   76.9934  218.9438 H   0  0  0  0  0  0  0  0  0  0  0  0
  138.3875   78.5594  219.4497 H   0  0  0  0  0  0  0  0  0  0  0  0
  143.0228   80.2028  219.6260 H   0  0  0  0  0  0  0  0  0  0  0  0
  138.1415   76.6635  222.6011 H   0  0  0  0  0  0  0  0  0  0  0  0
  138.2533   79.0119  223.3651 H   0  0  0  0  0  0  0  0  0  0  0  0
  139.6250   80.9895  223.8227 H   0  0  0  0  0  0  0  0  0  0  0  0
  143.8671   80.8248  223.1459 H   0  0  0  0  0  0  0  0  0  0  0  0
  143.6772   78.4600  222.3839 H   0  0  0  0  0  0  0  0  0  0  0  0
  1  2  2  0
  2  3  1  0
  3  4  1  0
  4  5  1  0
  5  6  2  0
  5  7  1  0
  7  8  1  0
  8  9  1  0
  9 10  1  0
 10 11  1  0
 11 12  1  0
 12 13  2  0
 12 14  1  0
 14 15  1  0
 15 16  1  0
 16 17  2  0
 17 18  1  0
 18 19  2  0
 19 20  1  0
 19 21  1  0
 21 22  1  0
 21 23  2  0
  2 24  1  0
 24 25  2  0
 25 26  1  0
 26 27  2  0
 27 28  1  0
 28 29  2  0
 29 30  1  0
 29 31  1  0
 31 32  2  0
 32 33  1  0
 33 34  2  0
 11  7  1  0
 23 16  1  0
 34 24  1  0
 33 27  1  0
  3 35  1  0
  4 36  1  0
  4 37  1  0
  8 38  1  0
  8 39  1  0
  9 40  1  0
  9 41  1  0
 10 42  1  0
 10 43  1  0
 11 44  1  1
 14 45  1  0
 15 46  1  0
 15 47  1  0
 17 48  1  0
 18 49  1  0
 23 50  1  0
 25 51  1  0
 26 52  1  0
 28 53  1  0
 31 54  1  0
 32 55  1  0
M  END
>  <smiles>  (14) 
O=C(NCC(=O)N1CCC[C@H]1C(=O)NCc1ccc(Cl)c(Cl)c1)c1ccc2cc(F)ccc2n1

>  <score_type>  (14) 
oracle

>  <origin>  (14) 
autodockgpu

>  <m_score__min__energy>  (14) 
-9.1099999999999994

>  <m_primary>  (14) 
energy

>  <meeko>  (14) 
{"free_energy": -6.46, "intermolecular_energy": -8.55, "internal_energy": -4.39, "cluster_size": 2, "cluster_id": 9, "rank_in_cluster": 1}

>  <energy>  (14) 
-6.66

>  <cluster_rmsd>  (14) 
0.0

>  <rmsd>  (14) 
270.34

>  <cluster>  (14) 
8

$$$$

     RDKit          3D

 55 58  0  0  0  0  0  0  0  0999 V2000
  140.3060   76.9900  219.0680 O   0  0  0  0  0  0  0  0  0  0  0  0
  141.5490   77.0900  219.0890 C   0  0  0  0  0  0  0  0  0  0  0  0
  142.0890   78.4200  219.0550 N   0  0  0  0  0  0  0  0  0  0  0  0
  141.2340   79.5780  218.9970 C   0  0  0  0  0  0  0  0  0  0  0  0
  141.7450   80.6880  219.8700 C   0  0  0  0  0  0  0  0  0  0  0  0
  142.1870   81.7580  219.4350 O   0  0  0  0  0  0  0  0  0  0  0  0
  141.7030   80.4510  221.2940 N   0  0  0  0  0  0  0  0  0  0  0  0
  140.9950   81.2560  222.2830 C   0  0  0  0  0  0  0  0  0  0  0  0
  141.8870   81.1670  223.5030 C   0  0  0  0  0  0  0  0  0  0  0  0
  142.9650   80.1460  223.1900 C   0  0  0  0  0  0  0  0  0  0  0  0
  142.3420   79.3770  222.0320 C   0  0  1  0  0  0  0  0  0  0  0  0
  141.3580   78.3980  222.5500 C   0  0  0  0  0  0  0  0  0  0  0  0
  141.5420   77.9670  223.7150 O   0  0  0  0  0  0  0  0  0  0  0  0
  140.2770   78.0020  221.7180 N   0  0  0  0  0  0  0  0  0  0  0  0
  139.2610   77.0520  222.1080 C   0  0  0  0  0  0  0  0  0  0  0  0
  139.7490   75.6940  221.8160 C   0  0  0  0  0  0  0  0  0  0  0  0
  141.0610   75.2900  221.8960 C   0  0  0  0  0  0  0  0  0  0  0  0
  141.3830   73.9770  221.5860 C   0  0  0  0  0  0  0  0  0  0  0  0
  140.4220   73.0520  221.1980 C   0  0  0  0  0  0  0  0  0  0  0  0
  140.8600   71.3850  220.8080 Cl  0  0  0  0  0  0  0  0  0  0  0  0
  139.1160   73.4580  221.1200 C   0  0  0  0  0  0  0  0  0  0  0  0
  137.8300   72.3460  220.6360 Cl  0  0  0  0  0  0  0  0  0  0  0  0
  138.7820   74.7580  221.4250 C   0  0  0  0  0  0  0  0  0  0  0  0
  142.4250   75.9240  219.1460 C   0  0  0  0  0  0  0  0  0  0  0  0
  142.1420   74.8610  218.3090 C   0  0  0  0  0  0  0  0  0  0  0  0
  142.9020   73.7110  218.2830 C   0  0  0  0  0  0  0  0  0  0  0  0
  143.9910   73.6320  219.1340 C   0  0  0  0  0  0  0  0  0  0  0  0
  144.7920   72.5030  219.1530 C   0  0  0  0  0  0  0  0  0  0  0  0
  145.8570   72.4680  220.0090 C   0  0  0  0  0  0  0  0  0  0  0  0
  146.6450   71.3590  220.0280 F   0  0  0  0  0  0  0  0  0  0  0  0
  146.1580   73.5180  220.8530 C   0  0  0  0  0  0  0  0  0  0  0  0
  145.3640   74.6480  220.8410 C   0  0  0  0  0  0  0  0  0  0  0  0
  144.2700   74.7060  219.9740 C   0  0  0  0  0  0  0  0  0  0  0  0
  143.4800   75.8180  219.9560 N   0  0  0  0  0  0  0  0  0  0  0  0
  143.1390   78.4770  219.0770 H   0  0  0  0  0  0  0  0  0  0  0  0
  141.1865   79.9347  217.9575 H   0  0  0  0  0  0  0  0  0  0  0  0
  140.2368   79.2874  219.3591 H   0  0  0  0  0  0  0  0  0  0  0  0
  140.8928   82.2975  221.9441 H   0  0  0  0  0  0  0  0  0  0  0  0
  139.9697   80.9050  222.4714 H   0  0  0  0  0  0  0  0  0  0  0  0
  142.3429   82.1464  223.7101 H   0  0  0  0  0  0  0  0  0  0  0  0
  141.3098   80.8692  224.3908 H   0  0  0  0  0  0  0  0  0  0  0  0
  143.9030   80.6344  222.8874 H   0  0  0  0  0  0  0  0  0  0  0  0
  143.2406   79.5135  224.0467 H   0  0  0  0  0  0  0  0  0  0  0  0
  143.0443   78.7872  221.4247 H   0  0  0  0  0  0  0  0  0  0  0  0
  140.2310   78.4440  220.7520 H   0  0  0  0  0  0  0  0  0  0  0  0
  139.0572   77.1488  223.1846 H   0  0  0  0  0  0  0  0  0  0  0  0
  138.3328   77.2452  221.5503 H   0  0  0  0  0  0  0  0  0  0  0  0
  141.8447   75.9987  222.2018 H   0  0  0  0  0  0  0  0  0  0  0  0
  142.4337   73.6577  221.6495 H   0  0  0  0  0  0  0  0  0  0  0  0
  137.7292   75.0702  221.3602 H   0  0  0  0  0  0  0  0  0  0  0  0
  141.2750   74.9357  217.6362 H   0  0  0  0  0  0  0  0  0  0  0  0
  142.6505   72.8810  217.6063 H   0  0  0  0  0  0  0  0  0  0  0  0
  144.5756   71.6507  218.4921 H   0  0  0  0  0  0  0  0  0  0  0  0
  147.0231   73.4552  221.5295 H   0  0  0  0  0  0  0  0  0  0  0  0
  145.5906   75.4935  221.5071 H   0  0  0  0  0  0  0  0  0  0  0  0
  1  2  2  0
  2  3  1  0
  3  4  1  0
  4  5  1  0
  5  6  2  0
  5  7  1  0
  7  8  1  0
  8  9  1  0
  9 10  1  0
 10 11  1  0
 11 12  1  0
 12 13  2  0
 12 14  1  0
 14 15  1  0
 15 16  1  0
 16 17  2  0
 17 18  1  0
 18 19  2  0
 19 20  1  0
 19 21  1  0
 21 22  1  0
 21 23  2  0
  2 24  1  0
 24 25  2  0
 25 26  1  0
 26 27  2  0
 27 28  1  0
 28 29  2  0
 29 30  1  0
 29 31  1  0
 31 32  2  0
 32 33  1  0
 33 34  2  0
 11  7  1  0
 23 16  1  0
 34 24  1  0
 33 27  1  0
  3 35  1  0
  4 36  1  0
  4 37  1  0
  8 38  1  0
  8 39  1  0
  9 40  1  0
  9 41  1  0
 10 42  1  0
 10 43  1  0
 11 44  1  6
 14 45  1  0
 15 46  1  0
 15 47  1  0
 17 48  1  0
 18 49  1  0
 23 50  1  0
 25 51  1  0
 26 52  1  0
 28 53  1  0
 31 54  1  0
 32 55  1  0
M  END
>  <smiles>  (15) 
O=C(NCC(=O)N1CCC[C@H]1C(=O)NCc1ccc(Cl)c(Cl)c1)c1ccc2cc(F)ccc2n1

>  <score_type>  (15) 
oracle

>  <origin>  (15) 
autodockgpu

>  <m_score__min__energy>  (15) 
-9.1099999999999994

>  <m_primary>  (15) 
energy

>  <meeko>  (15) 
{"free_energy": -6.66, "intermolecular_energy": -8.75, "internal_energy": -3.99, "cluster_size": 1, "cluster_id": 8, "rank_in_cluster": 1}

>  <energy>  (15) 
-6.46

>  <cluster_rmsd>  (15) 
0.0

>  <rmsd>  (15) 
270.56

>  <cluster>  (15) 
9

$$$$

     RDKit          3D

 55 58  0  0  0  0  0  0  0  0999 V2000
  137.9500   70.6070  221.4420 O   0  0  0  0  0  0  0  0  0  0  0  0
  138.3620   71.2880  222.4020 C   0  0  0  0  0  0  0  0  0  0  0  0
  138.2920   72.7160  222.2580 N   0  0  0  0  0  0  0  0  0  0  0  0
  137.7740   73.3250  221.0590 C   0  0  0  0  0  0  0  0  0  0  0  0
  137.4770   74.7830  221.2650 C   0  0  0  0  0  0  0  0  0  0  0  0
  136.3900   75.2130  221.6680 O   0  0  0  0  0  0  0  0  0  0  0  0
  138.5490   75.7010  220.9610 N   0  0  0  0  0  0  0  0  0  0  0  0
  138.5070   76.7870  219.9880 C   0  0  0  0  0  0  0  0  0  0  0  0
  139.9240   76.8310  219.4580 C   0  0  0  0  0  0  0  0  0  0  0  0
  140.7460   75.8830  220.3120 C   0  0  0  0  0  0  0  0  0  0  0  0
  139.8740   75.7430  221.5530 C   0  0  1  0  0  0  0  0  0  0  0  0
  140.0530   76.9230  222.4290 C   0  0  0  0  0  0  0  0  0  0  0  0
  139.0200   77.4080  222.9530 O   0  0  0  0  0  0  0  0  0  0  0  0
  141.3610   77.4410  222.6280 N   0  0  0  0  0  0  0  0  0  0  0  0
  141.6610   78.5890  223.4520 C   0  0  0  0  0  0  0  0  0  0  0  0
  141.4060   79.8100  222.6700 C   0  0  0  0  0  0  0  0  0  0  0  0
  140.8970   80.9820  223.1770 C   0  0  0  0  0  0  0  0  0  0  0  0
  140.7010   82.0580  222.3230 C   0  0  0  0  0  0  0  0  0  0  0  0
  141.0040   81.9910  220.9690 C   0  0  0  0  0  0  0  0  0  0  0  0
  140.7440   83.3770  219.9040 Cl  0  0  0  0  0  0  0  0  0  0  0  0
  141.5120   80.8220  220.4680 C   0  0  0  0  0  0  0  0  0  0  0  0
  141.9260   80.6520  218.7580 Cl  0  0  0  0  0  0  0  0  0  0  0  0
  141.7110   79.7460  221.3040 C   0  0  0  0  0  0  0  0  0  0  0  0
  138.8910   70.6810  223.6200 C   0  0  0  0  0  0  0  0  0  0  0  0
  138.7550   69.3140  223.7730 C   0  0  0  0  0  0  0  0  0  0  0  0
  139.2150   68.6400  224.8840 C   0  0  0  0  0  0  0  0  0  0  0  0
  139.8390   69.3750  225.8780 C   0  0  0  0  0  0  0  0  0  0  0  0
  140.3230   68.7540  227.0170 C   0  0  0  0  0  0  0  0  0  0  0  0
  140.9310   69.5180  227.9730 C   0  0  0  0  0  0  0  0  0  0  0  0
  141.4080   68.9080  229.0920 F   0  0  0  0  0  0  0  0  0  0  0  0
  141.0780   70.8840  227.8410 C   0  0  0  0  0  0  0  0  0  0  0  0
  140.5970   71.5120  226.7080 C   0  0  0  0  0  0  0  0  0  0  0  0
  139.9720   70.7510  225.7180 C   0  0  0  0  0  0  0  0  0  0  0  0
  139.4940   71.3630  224.5950 N   0  0  0  0  0  0  0  0  0  0  0  0
  138.6430   73.2650  223.0820 H   0  0  0  0  0  0  0  0  0  0  0  0
  138.5184   73.2221  220.2557 H   0  0  0  0  0  0  0  0  0  0  0  0
  136.8359   72.8165  220.7917 H   0  0  0  0  0  0  0  0  0  0  0  0
  137.7911   76.5673  219.1823 H   0  0  0  0  0  0  0  0  0  0  0  0
  138.1788   77.7429  220.4222 H   0  0  0  0  0  0  0  0  0  0  0  0
  139.9446   76.5071  218.4070 H   0  0  0  0  0  0  0  0  0  0  0  0
  140.3291   77.8527  219.5039 H   0  0  0  0  0  0  0  0  0  0  0  0
  140.8878   74.9140  219.8111 H   0  0  0  0  0  0  0  0  0  0  0  0
  141.7640   76.2429  220.5220 H   0  0  0  0  0  0  0  0  0  0  0  0
  140.0955   74.8742  222.1902 H   0  0  0  0  0  0  0  0  0  0  0  0
  142.1540   76.9370  222.1310 H   0  0  0  0  0  0  0  0  0  0  0  0
  141.0198   78.5810  224.3457 H   0  0  0  0  0  0  0  0  0  0  0  0
  142.7142   78.5590  223.7679 H   0  0  0  0  0  0  0  0  0  0  0  0
  140.6484   81.0657  224.2453 H   0  0  0  0  0  0  0  0  0  0  0  0
  140.2925   82.9942  222.7314 H   0  0  0  0  0  0  0  0  0  0  0  0
  142.1197   78.8129  220.8890 H   0  0  0  0  0  0  0  0  0  0  0  0
  138.2595   68.7406  222.9757 H   0  0  0  0  0  0  0  0  0  0  0  0
  139.0902   67.5512  224.9781 H   0  0  0  0  0  0  0  0  0  0  0  0
  140.2201   67.6669  227.1497 H   0  0  0  0  0  0  0  0  0  0  0  0
  141.5737   71.4676  228.6308 H   0  0  0  0  0  0  0  0  0  0  0  0
  140.7053   72.6000  226.5872 H   0  0  0  0  0  0  0  0  0  0  0  0
  1  2  2  0
  2  3  1  0
  3  4  1  0
  4  5  1  0
  5  6  2  0
  5  7  1  0
  7  8  1  0
  8  9  1  0
  9 10  1  0
 10 11  1  0
 11 12  1  0
 12 13  2  0
 12 14  1  0
 14 15  1  0
 15 16  1  0
 16 17  2  0
 17 18  1  0
 18 19  2  0
 19 20  1  0
 19 21  1  0
 21 22  1  0
 21 23  2  0
  2 24  1  0
 24 25  2  0
 25 26  1  0
 26 27  2  0
 27 28  1  0
 28 29  2  0
 29 30  1  0
 29 31  1  0
 31 32  2  0
 32 33  1  0
 33 34  2  0
 11  7  1  0
 23 16  1  0
 34 24  1  0
 33 27  1  0
  3 35  1  0
  4 36  1  0
  4 37  1  0
  8 38  1  0
  8 39  1  0
  9 40  1  0
  9 41  1  0
 10 42  1  0
 10 43  1  0
 11 44  1  1
 14 45  1  0
 15 46  1  0
 15 47  1  0
 17 48  1  0
 18 49  1  0
 23 50  1  0
 25 51  1  0
 26 52  1  0
 28 53  1  0
 31 54  1  0
 32 55  1  0
M  END
>  <smiles>  (16) 
O=C(NCC(=O)N1CCC[C@H]1C(=O)NCc1ccc(Cl)c(Cl)c1)c1ccc2cc(F)ccc2n1

>  <score_type>  (16) 
oracle

>  <origin>  (16) 
autodockgpu

>  <m_score__min__energy>  (16) 
-9.1099999999999994

>  <m_primary>  (16) 
energy

>  <meeko>  (16) 
{"free_energy": -8.51, "intermolecular_energy": -10.6, "internal_energy": -2.03, "cluster_size": 3, "cluster_id": 1, "rank_in_cluster": 2}

>  <energy>  (16) 
-6.26

>  <cluster_rmsd>  (16) 
1.3

>  <rmsd>  (16) 
270.05

>  <cluster>  (16) 
9

$$$$

     RDKit          3D

 55 58  0  0  0  0  0  0  0  0999 V2000
  138.9930   75.6670  219.5200 O   0  0  0  0  0  0  0  0  0  0  0  0
  138.7480   76.0080  220.6950 C   0  0  0  0  0  0  0  0  0  0  0  0
  138.7690   74.9690  221.6860 N   0  0  0  0  0  0  0  0  0  0  0  0
  139.0550   73.6010  221.3360 C   0  0  0  0  0  0  0  0  0  0  0  0
  140.4250   73.1890  221.7930 C   0  0  0  0  0  0  0  0  0  0  0  0
  140.7010   72.8940  222.9620 O   0  0  0  0  0  0  0  0  0  0  0  0
  141.4510   73.1490  220.7780 N   0  0  0  0  0  0  0  0  0  0  0  0
  141.3490   72.5090  219.4710 C   0  0  0  0  0  0  0  0  0  0  0  0
  142.7570   72.0120  219.2190 C   0  0  0  0  0  0  0  0  0  0  0  0
  143.6300   72.5750  220.3240 C   0  0  0  0  0  0  0  0  0  0  0  0
  142.7800   73.7300  220.8390 C   0  0  1  0  0  0  0  0  0  0  0  0
  142.9170   74.8960  219.9350 C   0  0  0  0  0  0  0  0  0  0  0  0
  144.0020   75.0120  219.3140 O   0  0  0  0  0  0  0  0  0  0  0  0
  141.8350   75.8090  219.8190 N   0  0  0  0  0  0  0  0  0  0  0  0
  141.8530   76.9830  218.9780 C   0  0  0  0  0  0  0  0  0  0  0  0
  141.7810   78.1780  219.8350 C   0  0  0  0  0  0  0  0  0  0  0  0
  141.7040   79.4740  219.3810 C   0  0  0  0  0  0  0  0  0  0  0  0
  141.6470   80.5100  220.3030 C   0  0  0  0  0  0  0  0  0  0  0  0
  141.6660   80.2810  221.6730 C   0  0  0  0  0  0  0  0  0  0  0  0
  141.5940   81.6190  222.8240 Cl  0  0  0  0  0  0  0  0  0  0  0  0
  141.7430   78.9890  222.1210 C   0  0  0  0  0  0  0  0  0  0  0  0
  141.7700   78.6100  223.8480 Cl  0  0  0  0  0  0  0  0  0  0  0  0
  141.7990   77.9510  221.2180 C   0  0  0  0  0  0  0  0  0  0  0  0
  138.4540   77.3900  221.0600 C   0  0  0  0  0  0  0  0  0  0  0  0
  137.9810   78.2340  220.0730 C   0  0  0  0  0  0  0  0  0  0  0  0
  137.6750   79.5570  220.3090 C   0  0  0  0  0  0  0  0  0  0  0  0
  137.8510   80.0470  221.5920 C   0  0  0  0  0  0  0  0  0  0  0  0
  137.5600   81.3670  221.8890 C   0  0  0  0  0  0  0  0  0  0  0  0
  137.7490   81.8080  223.1690 C   0  0  0  0  0  0  0  0  0  0  0  0
  137.4630   83.1060  223.4630 F   0  0  0  0  0  0  0  0  0  0  0  0
  138.2200   80.9830  224.1710 C   0  0  0  0  0  0  0  0  0  0  0  0
  138.5140   79.6650  223.8820 C   0  0  0  0  0  0  0  0  0  0  0  0
  138.3280   79.1920  222.5810 C   0  0  0  0  0  0  0  0  0  0  0  0
  138.6160   77.8910  222.2860 N   0  0  0  0  0  0  0  0  0  0  0  0
  138.5620   75.2840  222.6670 H   0  0  0  0  0  0  0  0  0  0  0  0
  138.3085   72.9473  221.8109 H   0  0  0  0  0  0  0  0  0  0  0  0
  139.0157   73.5104  220.2404 H   0  0  0  0  0  0  0  0  0  0  0  0
  140.6341   71.6734  219.4956 H   0  0  0  0  0  0  0  0  0  0  0  0
  140.9836   73.1871  218.6857 H   0  0  0  0  0  0  0  0  0  0  0  0
  142.7795   70.9125  219.2428 H   0  0  0  0  0  0  0  0  0  0  0  0
  143.1167   72.3354  218.2311 H   0  0  0  0  0  0  0  0  0  0  0  0
  143.8096   71.8283  221.1115 H   0  0  0  0  0  0  0  0  0  0  0  0
  144.6329   72.8769  219.9877 H   0  0  0  0  0  0  0  0  0  0  0  0
  143.0475   74.1047  221.8380 H   0  0  0  0  0  0  0  0  0  0  0  0
  140.9670   75.5960  220.3950 H   0  0  0  0  0  0  0  0  0  0  0  0
  142.7831   77.0038  218.3911 H   0  0  0  0  0  0  0  0  0  0  0  0
  140.9960   76.9637  218.2886 H   0  0  0  0  0  0  0  0  0  0  0  0
  141.6878   79.6866  218.3019 H   0  0  0  0  0  0  0  0  0  0  0  0
  141.5848   81.5455  219.9371 H   0  0  0  0  0  0  0  0  0  0  0  0
  141.8593   76.9180  221.5913 H   0  0  0  0  0  0  0  0  0  0  0  0
  137.8432   77.8336  219.0578 H   0  0  0  0  0  0  0  0  0  0  0  0
  137.3019   80.2045  219.5018 H   0  0  0  0  0  0  0  0  0  0  0  0
  137.1842   82.0476  221.1108 H   0  0  0  0  0  0  0  0  0  0  0  0
  138.3598   81.3721  225.1903 H   0  0  0  0  0  0  0  0  0  0  0  0
  138.8908   78.9945  224.6684 H   0  0  0  0  0  0  0  0  0  0  0  0
  1  2  2  0
  2  3  1  0
  3  4  1  0
  4  5  1  0
  5  6  2  0
  5  7  1  0
  7  8  1  0
  8  9  1  0
  9 10  1  0
 10 11  1  0
 11 12  1  0
 12 13  2  0
 12 14  1  0
 14 15  1  0
 15 16  1  0
 16 17  2  0
 17 18  1  0
 18 19  2  0
 19 20  1  0
 19 21  1  0
 21 22  1  0
 21 23  2  0
  2 24  1  0
 24 25  2  0
 25 26  1  0
 26 27  2  0
 27 28  1  0
 28 29  2  0
 29 30  1  0
 29 31  1  0
 31 32  2  0
 32 33  1  0
 33 34  2  0
 11  7  1  0
 23 16  1  0
 34 24  1  0
 33 27  1  0
  3 35  1  0
  4 36  1  0
  4 37  1  0
  8 38  1  0
  8 39  1  0
  9 40  1  0
  9 41  1  0
 10 42  1  0
 10 43  1  0
 11 44  1  1
 14 45  1  0
 15 46  1  0
 15 47  1  0
 17 48  1  0
 18 49  1  0
 23 50  1  0
 25 51  1  0
 26 52  1  0
 28 53  1  0
 31 54  1  0
 32 55  1  0
M  END
>  <smiles>  (17) 
O=C(NCC(=O)N1CCC[C@H]1C(=O)NCc1ccc(Cl)c(Cl)c1)c1ccc2cc(F)ccc2n1

>  <score_type>  (17) 
oracle

>  <origin>  (17) 
autodockgpu

>  <m_score__min__energy>  (17) 
-9.1099999999999994

>  <m_primary>  (17) 
energy

>  <meeko>  (17) 
{"free_energy": -5.47, "intermolecular_energy": -7.56, "internal_energy": -4.74, "cluster_size": 2, "cluster_id": 12, "rank_in_cluster": 2}

>  <energy>  (17) 
-6.39

>  <cluster_rmsd>  (17) 
0.0

>  <rmsd>  (17) 
270.29

>  <cluster>  (17) 
10

$$$$

     RDKit          3D

 55 58  0  0  0  0  0  0  0  0999 V2000
  136.3940   77.6890  222.1680 O   0  0  0  0  0  0  0  0  0  0  0  0
  137.3610   77.0380  222.6120 C   0  0  0  0  0  0  0  0  0  0  0  0
  137.1030   75.6760  222.9880 N   0  0  0  0  0  0  0  0  0  0  0  0
  135.7900   75.0960  222.8590 C   0  0  0  0  0  0  0  0  0  0  0  0
  135.6130   74.4190  221.5300 C   0  0  0  0  0  0  0  0  0  0  0  0
  134.6130   74.5590  220.8150 O   0  0  0  0  0  0  0  0  0  0  0  0
  136.6940   73.5650  221.1000 N   0  0  0  0  0  0  0  0  0  0  0  0
  137.4700   73.7040  219.8730 C   0  0  0  0  0  0  0  0  0  0  0  0
  137.7770   72.2700  219.4950 C   0  0  0  0  0  0  0  0  0  0  0  0
  137.3170   71.3990  220.6480 C   0  0  0  0  0  0  0  0  0  0  0  0
  137.2340   72.4060  221.7880 C   0  0  1  0  0  0  0  0  0  0  0  0
  138.5880   72.6630  222.3300 C   0  0  0  0  0  0  0  0  0  0  0  0
  139.0040   73.8470  222.2880 O   0  0  0  0  0  0  0  0  0  0  0  0
  139.3360   71.5780  222.8590 N   0  0  0  0  0  0  0  0  0  0  0  0
  140.6670   71.7030  223.4070 C   0  0  0  0  0  0  0  0  0  0  0  0
  140.6880   71.0790  224.7400 C   0  0  0  0  0  0  0  0  0  0  0  0
  141.0970   71.6990  225.8970 C   0  0  0  0  0  0  0  0  0  0  0  0
  141.0710   70.9880  227.0890 C   0  0  0  0  0  0  0  0  0  0  0  0
  140.6430   69.6680  227.1530 C   0  0  0  0  0  0  0  0  0  0  0  0
  140.6210   68.7870  228.6840 Cl  0  0  0  0  0  0  0  0  0  0  0  0
  140.2360   69.0540  225.9990 C   0  0  0  0  0  0  0  0  0  0  0  0
  139.6750   67.3780  225.9910 Cl  0  0  0  0  0  0  0  0  0  0  0  0
  140.2570   69.7470  224.8080 C   0  0  0  0  0  0  0  0  0  0  0  0
  138.6940   77.6160  222.7500 C   0  0  0  0  0  0  0  0  0  0  0  0
  139.7790   76.8270  222.4150 C   0  0  0  0  0  0  0  0  0  0  0  0
  141.0800   77.2720  222.5100 C   0  0  0  0  0  0  0  0  0  0  0  0
  141.2940   78.5640  222.9590 C   0  0  0  0  0  0  0  0  0  0  0  0
  142.5790   79.0670  223.0750 C   0  0  0  0  0  0  0  0  0  0  0  0
  142.7440   80.3480  223.5220 C   0  0  0  0  0  0  0  0  0  0  0  0
  144.0070   80.8440  223.6350 F   0  0  0  0  0  0  0  0  0  0  0  0
  141.6750   81.1540  223.8610 C   0  0  0  0  0  0  0  0  0  0  0  0
  140.3900   80.6590  223.7490 C   0  0  0  0  0  0  0  0  0  0  0  0
  140.1980   79.3530  223.2940 C   0  0  0  0  0  0  0  0  0  0  0  0
  138.9320   78.8560  223.1810 N   0  0  0  0  0  0  0  0  0  0  0  0
  137.9340   75.1490  223.3570 H   0  0  0  0  0  0  0  0  0  0  0  0
  135.6469   74.3548  223.6591 H   0  0  0  0  0  0  0  0  0  0  0  0
  135.0477   75.9043  222.9351 H   0  0  0  0  0  0  0  0  0  0  0  0
  136.8816   74.2017  219.0881 H   0  0  0  0  0  0  0  0  0  0  0  0
  138.3725   74.3198  220.0002 H   0  0  0  0  0  0  0  0  0  0  0  0
  137.2363   71.9974  218.5766 H   0  0  0  0  0  0  0  0  0  0  0  0
  138.8523   72.1355  219.3063 H   0  0  0  0  0  0  0  0  0  0  0  0
  136.3358   70.9468  220.4413 H   0  0  0  0  0  0  0  0  0  0  0  0
  137.9816   70.5472  220.8546 H   0  0  0  0  0  0  0  0  0  0  0  0
  136.6311   72.0921  222.6529 H   0  0  0  0  0  0  0  0  0  0  0  0
  138.8690   70.6230  222.8410 H   0  0  0  0  0  0  0  0  0  0  0  0
  141.3876   71.1952  222.7490 H   0  0  0  0  0  0  0  0  0  0  0  0
  140.9422   72.7651  223.4855 H   0  0  0  0  0  0  0  0  0  0  0  0
  141.4401   72.7440  225.8784 H   0  0  0  0  0  0  0  0  0  0  0  0
  141.4000   71.4861  228.0129 H   0  0  0  0  0  0  0  0  0  0  0  0
  139.9274   69.2423  223.8879 H   0  0  0  0  0  0  0  0  0  0  0  0
  139.5964   75.8026  222.0582 H   0  0  0  0  0  0  0  0  0  0  0  0
  141.9230   76.6201  222.2372 H   0  0  0  0  0  0  0  0  0  0  0  0
  143.4496   78.4479  222.8126 H   0  0  0  0  0  0  0  0  0  0  0  0
  141.8451   82.1808  224.2170 H   0  0  0  0  0  0  0  0  0  0  0  0
  139.5272   81.2872  224.0155 H   0  0  0  0  0  0  0  0  0  0  0  0
  1  2  2  0
  2  3  1  0
  3  4  1  0
  4  5  1  0
  5  6  2  0
  5  7  1  0
  7  8  1  0
  8  9  1  0
  9 10  1  0
 10 11  1  0
 11 12  1  0
 12 13  2  0
 12 14  1  0
 14 15  1  0
 15 16  1  0
 16 17  2  0
 17 18  1  0
 18 19  2  0
 19 20  1  0
 19 21  1  0
 21 22  1  0
 21 23  2  0
  2 24  1  0
 24 25  2  0
 25 26  1  0
 26 27  2  0
 27 28  1  0
 28 29  2  0
 29 30  1  0
 29 31  1  0
 31 32  2  0
 32 33  1  0
 33 34  2  0
 11  7  1  0
 23 16  1  0
 34 24  1  0
 33 27  1  0
  3 35  1  0
  4 36  1  0
  4 37  1  0
  8 38  1  0
  8 39  1  0
  9 40  1  0
  9 41  1  0
 10 42  1  0
 10 43  1  0
 11 44  1  1
 14 45  1  0
 15 46  1  0
 15 47  1  0
 17 48  1  0
 18 49  1  0
 23 50  1  0
 25 51  1  0
 26 52  1  0
 28 53  1  0
 31 54  1  0
 32 55  1  0
M  END
>  <smiles>  (18) 
O=C(NCC(=O)N1CCC[C@H]1C(=O)NCc1ccc(Cl)c(Cl)c1)c1ccc2cc(F)ccc2n1

>  <score_type>  (18) 
oracle

>  <origin>  (18) 
autodockgpu

>  <m_score__min__energy>  (18) 
-9.1099999999999994

>  <m_primary>  (18) 
energy

>  <meeko>  (18) 
{"free_energy": -8.5, "intermolecular_energy": -10.59, "internal_energy": -2.42, "cluster_size": 2, "cluster_id": 2, "rank_in_cluster": 1}

>  <energy>  (18) 
-5.86

>  <cluster_rmsd>  (18) 
0.0

>  <rmsd>  (18) 
270.04

>  <cluster>  (18) 
11

$$$$

     RDKit          3D

 55 58  0  0  0  0  0  0  0  0999 V2000
  139.9970   73.2040  222.7350 O   0  0  0  0  0  0  0  0  0  0  0  0
  140.3200   72.0070  222.8680 C   0  0  0  0  0  0  0  0  0  0  0  0
  140.6410   71.2880  221.6660 N   0  0  0  0  0  0  0  0  0  0  0  0
  140.5880   71.9230  220.3740 C   0  0  0  0  0  0  0  0  0  0  0  0
  141.9350   72.4400  219.9570 C   0  0  0  0  0  0  0  0  0  0  0  0
  142.9790   71.7820  220.0360 O   0  0  0  0  0  0  0  0  0  0  0  0
  141.9690   73.7880  219.4400 N   0  0  0  0  0  0  0  0  0  0  0  0
  141.3360   74.2590  218.2130 C   0  0  0  0  0  0  0  0  0  0  0  0
  142.2940   75.3210  217.7160 C   0  0  0  0  0  0  0  0  0  0  0  0
  143.3300   75.5270  218.8050 C   0  0  0  0  0  0  0  0  0  0  0  0
  142.6260   74.9430  220.0230 C   0  0  1  0  0  0  0  0  0  0  0  0
  141.6520   75.9230  220.5580 C   0  0  0  0  0  0  0  0  0  0  0  0
  141.7440   77.1040  220.1420 O   0  0  0  0  0  0  0  0  0  0  0  0
  140.6830   75.4870  221.5010 N   0  0  0  0  0  0  0  0  0  0  0  0
  139.6890   76.3490  222.0980 C   0  0  0  0  0  0  0  0  0  0  0  0
  140.3530   77.5680  222.5840 C   0  0  0  0  0  0  0  0  0  0  0  0
  141.4410   77.5950  223.4260 C   0  0  0  0  0  0  0  0  0  0  0  0
  141.9650   78.8200  223.8120 C   0  0  0  0  0  0  0  0  0  0  0  0
  141.4280   80.0250  223.3750 C   0  0  0  0  0  0  0  0  0  0  0  0
  142.1170   81.5710  223.8830 Cl  0  0  0  0  0  0  0  0  0  0  0  0
  140.3460   79.9940  222.5370 C   0  0  0  0  0  0  0  0  0  0  0  0
  139.6020   81.4800  221.9330 Cl  0  0  0  0  0  0  0  0  0  0  0  0
  139.8150   78.7850  222.1450 C   0  0  0  0  0  0  0  0  0  0  0  0
  140.3740   71.3530  224.1720 C   0  0  0  0  0  0  0  0  0  0  0  0
  140.7560   72.1140  225.2610 C   0  0  0  0  0  0  0  0  0  0  0  0
  140.8430   71.5970  226.5360 C   0  0  0  0  0  0  0  0  0  0  0  0
  140.5310   70.2600  226.7180 C   0  0  0  0  0  0  0  0  0  0  0  0
  140.6000   69.6850  227.9760 C   0  0  0  0  0  0  0  0  0  0  0  0
  140.2830   68.3620  228.1100 C   0  0  0  0  0  0  0  0  0  0  0  0
  140.3500   67.7950  229.3460 F   0  0  0  0  0  0  0  0  0  0  0  0
  139.8990   67.5840  227.0360 C   0  0  0  0  0  0  0  0  0  0  0  0
  139.8290   68.1500  225.7780 C   0  0  0  0  0  0  0  0  0  0  0  0
  140.1480   69.5000  225.6180 C   0  0  0  0  0  0  0  0  0  0  0  0
  140.0810   70.0680  224.3780 N   0  0  0  0  0  0  0  0  0  0  0  0
  140.9120   70.2820  221.8070 H   0  0  0  0  0  0  0  0  0  0  0  0
  140.2407   71.1908  219.6302 H   0  0  0  0  0  0  0  0  0  0  0  0
  139.8964   72.7760  220.4377 H   0  0  0  0  0  0  0  0  0  0  0  0
  141.2373   73.4433  217.4817 H   0  0  0  0  0  0  0  0  0  0  0  0
  140.3157   74.6382  218.3717 H   0  0  0  0  0  0  0  0  0  0  0  0
  142.7818   74.9859  216.7888 H   0  0  0  0  0  0  0  0  0  0  0  0
  141.7621   76.2587  217.4972 H   0  0  0  0  0  0  0  0  0  0  0  0
  144.2595   74.9830  218.5810 H   0  0  0  0  0  0  0  0  0  0  0  0
  143.6402   76.5748  218.9309 H   0  0  0  0  0  0  0  0  0  0  0  0
  143.2800   74.6919  220.8711 H   0  0  0  0  0  0  0  0  0  0  0  0
  140.7080   74.4590  221.7690 H   0  0  0  0  0  0  0  0  0  0  0  0
  138.9305   76.6149  221.3470 H   0  0  0  0  0  0  0  0  0  0  0  0
  139.1973   75.8310  222.9346 H   0  0  0  0  0  0  0  0  0  0  0  0
  141.8891   76.6579  223.7881 H   0  0  0  0  0  0  0  0  0  0  0  0
  142.8341   78.8382  224.4861 H   0  0  0  0  0  0  0  0  0  0  0  0
  138.9464   78.7747  221.4701 H   0  0  0  0  0  0  0  0  0  0  0  0
  141.0004   73.1749  225.1039 H   0  0  0  0  0  0  0  0  0  0  0  0
  141.1509   72.2274  227.3832 H   0  0  0  0  0  0  0  0  0  0  0  0
  140.9037   70.2807  228.8495 H   0  0  0  0  0  0  0  0  0  0  0  0
  139.6509   66.5222  227.1810 H   0  0  0  0  0  0  0  0  0  0  0  0
  139.5253   67.5439  224.9117 H   0  0  0  0  0  0  0  0  0  0  0  0
  1  2  2  0
  2  3  1  0
  3  4  1  0
  4  5  1  0
  5  6  2  0
  5  7  1  0
  7  8  1  0
  8  9  1  0
  9 10  1  0
 10 11  1  0
 11 12  1  0
 12 13  2  0
 12 14  1  0
 14 15  1  0
 15 16  1  0
 16 17  2  0
 17 18  1  0
 18 19  2  0
 19 20  1  0
 19 21  1  0
 21 22  1  0
 21 23  2  0
  2 24  1  0
 24 25  2  0
 25 26  1  0
 26 27  2  0
 27 28  1  0
 28 29  2  0
 29 30  1  0
 29 31  1  0
 31 32  2  0
 32 33  1  0
 33 34  2  0
 11  7  1  0
 23 16  1  0
 34 24  1  0
 33 27  1  0
  3 35  1  0
  4 36  1  0
  4 37  1  0
  8 38  1  0
  8 39  1  0
  9 40  1  0
  9 41  1  0
 10 42  1  0
 10 43  1  0
 11 44  1  1
 14 45  1  0
 15 46  1  0
 15 47  1  0
 17 48  1  0
 18 49  1  0
 23 50  1  0
 25 51  1  0
 26 52  1  0
 28 53  1  0
 31 54  1  0
 32 55  1  0
M  END
>  <smiles>  (19) 
O=C(NCC(=O)N1CCC[C@H]1C(=O)NCc1ccc(Cl)c(Cl)c1)c1ccc2cc(F)ccc2n1

>  <score_type>  (19) 
oracle

>  <origin>  (19) 
autodockgpu

>  <m_score__min__energy>  (19) 
-9.1099999999999994

>  <m_primary>  (19) 
energy

>  <meeko>  (19) 
{"free_energy": -8.13, "intermolecular_energy": -10.21, "internal_energy": -2.72, "cluster_size": 3, "cluster_id": 3, "rank_in_cluster": 1}

>  <energy>  (19) 
-5.82

>  <cluster_rmsd>  (19) 
0.0

>  <rmsd>  (19) 
270.25

>  <cluster>  (19) 
12

$$$$

     RDKit          3D

 55 58  0  0  0  0  0  0  0  0999 V2000
  138.9070   69.9570  220.9600 O   0  0  0  0  0  0  0  0  0  0  0  0
  139.6830   70.6540  221.6450 C   0  0  0  0  0  0  0  0  0  0  0  0
  140.4300   71.6630  220.9480 N   0  0  0  0  0  0  0  0  0  0  0  0
  140.2890   71.8560  219.5270 C   0  0  0  0  0  0  0  0  0  0  0  0
  141.4730   72.5750  218.9470 C   0  0  0  0  0  0  0  0  0  0  0  0
  142.3060   72.0410  218.2040 O   0  0  0  0  0  0  0  0  0  0  0  0
  141.6110   73.9670  219.3020 N   0  0  0  0  0  0  0  0  0  0  0  0
  141.0650   75.1040  218.5690 C   0  0  0  0  0  0  0  0  0  0  0  0
  142.1070   76.1820  218.7790 C   0  0  0  0  0  0  0  0  0  0  0  0
  143.1010   75.6470  219.7920 C   0  0  0  0  0  0  0  0  0  0  0  0
  142.3070   74.5240  220.4480 C   0  0  1  0  0  0  0  0  0  0  0  0
  141.3690   75.0880  221.4460 C   0  0  0  0  0  0  0  0  0  0  0  0
  140.5430   74.2970  221.9640 O   0  0  0  0  0  0  0  0  0  0  0  0
  141.4480   76.4710  221.7600 N   0  0  0  0  0  0  0  0  0  0  0  0
  140.5850   77.1370  222.7080 C   0  0  0  0  0  0  0  0  0  0  0  0
  140.6800   78.5900  222.4920 C   0  0  0  0  0  0  0  0  0  0  0  0
  140.3890   79.5500  223.4330 C   0  0  0  0  0  0  0  0  0  0  0  0
  140.5150   80.8890  223.0920 C   0  0  0  0  0  0  0  0  0  0  0  0
  140.9280   81.2940  221.8290 C   0  0  0  0  0  0  0  0  0  0  0  0
  141.0810   83.0070  221.4230 Cl  0  0  0  0  0  0  0  0  0  0  0  0
  141.2180   80.3350  220.8950 C   0  0  0  0  0  0  0  0  0  0  0  0
  141.7520   80.7630  219.2660 Cl  0  0  0  0  0  0  0  0  0  0  0  0
  141.0960   79.0020  221.2200 C   0  0  0  0  0  0  0  0  0  0  0  0
  139.8360   70.4650  223.0850 C   0  0  0  0  0  0  0  0  0  0  0  0
  140.2720   71.5410  223.8350 C   0  0  0  0  0  0  0  0  0  0  0  0
  140.4520   71.4710  225.2000 C   0  0  0  0  0  0  0  0  0  0  0  0
  140.1810   70.2700  225.8320 C   0  0  0  0  0  0  0  0  0  0  0  0
  140.3430   70.1390  227.2010 C   0  0  0  0  0  0  0  0  0  0  0  0
  140.0640   68.9340  227.7830 C   0  0  0  0  0  0  0  0  0  0  0  0
  140.2230   68.8050  229.1280 F   0  0  0  0  0  0  0  0  0  0  0  0
  139.6270   67.8470  227.0530 C   0  0  0  0  0  0  0  0  0  0  0  0
  139.4640   67.9690  225.6860 C   0  0  0  0  0  0  0  0  0  0  0  0
  139.7430   69.1910  225.0700 C   0  0  0  0  0  0  0  0  0  0  0  0
  139.5840   69.3200  223.7210 N   0  0  0  0  0  0  0  0  0  0  0  0
  141.0740   72.2370  221.5490 H   0  0  0  0  0  0  0  0  0  0  0  0
  140.1945   70.8738  219.0409 H   0  0  0  0  0  0  0  0  0  0  0  0
  139.3932   72.4694  219.3501 H   0  0  0  0  0  0  0  0  0  0  0  0
  140.9518   74.8673  217.5008 H   0  0  0  0  0  0  0  0  0  0  0  0
  140.0629   75.3990  218.9136 H   0  0  0  0  0  0  0  0  0  0  0  0
  142.6172   76.4041  217.8301 H   0  0  0  0  0  0  0  0  0  0  0  0
  141.6425   77.1121  219.1384 H   0  0  0  0  0  0  0  0  0  0  0  0
  144.0063   75.2623  219.2996 H   0  0  0  0  0  0  0  0  0  0  0  0
  143.4663   76.4056  220.4999 H   0  0  0  0  0  0  0  0  0  0  0  0
  142.9043   73.7828  220.9993 H   0  0  0  0  0  0  0  0  0  0  0  0
  142.1960   77.0330  221.2540 H   0  0  0  0  0  0  0  0  0  0  0  0
  139.5463   76.8075  222.5581 H   0  0  0  0  0  0  0  0  0  0  0  0
  140.8936   76.8894  223.7344 H   0  0  0  0  0  0  0  0  0  0  0  0
  140.0609   79.2602  224.4421 H   0  0  0  0  0  0  0  0  0  0  0  0
  140.2803   81.6546  223.8461 H   0  0  0  0  0  0  0  0  0  0  0  0
  141.3314   78.2416  220.4608 H   0  0  0  0  0  0  0  0  0  0  0  0
  140.4838   72.4909  223.3224 H   0  0  0  0  0  0  0  0  0  0  0  0
  140.8009   72.3445  225.7703 H   0  0  0  0  0  0  0  0  0  0  0  0
  140.6895   70.9881  227.8084 H   0  0  0  0  0  0  0  0  0  0  0  0
  139.4105   66.8923  227.5547 H   0  0  0  0  0  0  0  0  0  0  0  0
  139.1180   67.1122  225.0892 H   0  0  0  0  0  0  0  0  0  0  0  0
  1  2  2  0
  2  3  1  0
  3  4  1  0
  4  5  1  0
  5  6  2  0
  5  7  1  0
  7  8  1  0
  8  9  1  0
  9 10  1  0
 10 11  1  0
 11 12  1  0
 12 13  2  0
 12 14  1  0
 14 15  1  0
 15 16  1  0
 16 17  2  0
 17 18  1  0
 18 19  2  0
 19 20  1  0
 19 21  1  0
 21 22  1  0
 21 23  2  0
  2 24  1  0
 24 25  2  0
 25 26  1  0
 26 27  2  0
 27 28  1  0
 28 29  2  0
 29 30  1  0
 29 31  1  0
 31 32  2  0
 32 33  1  0
 33 34  2  0
 11  7  1  0
 23 16  1  0
 34 24  1  0
 33 27  1  0
  3 35  1  0
  4 36  1  0
  4 37  1  0
  8 38  1  0
  8 39  1  0
  9 40  1  0
  9 41  1  0
 10 42  1  0
 10 43  1  0
 11 44  1  1
 14 45  1  0
 15 46  1  0
 15 47  1  0
 17 48  1  0
 18 49  1  0
 23 50  1  0
 25 51  1  0
 26 52  1  0
 28 53  1  0
 31 54  1  0
 32 55  1  0
M  END
>  <smiles>  (20) 
O=C(NCC(=O)N1CCC[C@H]1C(=O)NCc1ccc(Cl)c(Cl)c1)c1ccc2cc(F)ccc2n1

>  <score_type>  (20) 
oracle

>  <origin>  (20) 
autodockgpu

>  <m_score__min__energy>  (20) 
-9.1099999999999994

>  <m_primary>  (20) 
energy

>  <meeko>  (20) 
{"free_energy": -8.07, "intermolecular_energy": -10.16, "internal_energy": -2.35, "cluster_size": 3, "cluster_id": 3, "rank_in_cluster": 2}

>  <energy>  (20) 
-5.47

>  <cluster_rmsd>  (20) 
1.98

>  <rmsd>  (20) 
270.25

>  <cluster>  (20) 
12

$$$$
