WQFRIXFTBLEVTI-ZHACJKMWNA-N
     RDKit          3D

 47 50  0  0  0  0  0  0  0  0999 V2000
  142.2090   79.0609  217.7788 H   0  0  0  0  0  0  0  0  0  0  0  0
  142.0920   79.8000  218.5850 C   0  0  0  0  0  0  0  0  0  0  0  0
  141.7930   79.3530  219.8120 C   0  0  0  0  0  0  0  0  0  0  0  0
  141.5657   80.0785  220.6070 H   0  0  0  0  0  0  0  0  0  0  0  0
  141.7610   77.9000  220.1250 C   0  0  0  0  0  0  0  0  0  0  0  0
  142.6650   77.1080  219.4870 N   0  0  0  0  0  0  0  0  0  0  0  0
  142.7730   75.7870  219.7400 C   0  0  0  0  0  0  0  0  0  0  0  0
  143.7110   75.0150  219.0460 C   0  0  0  0  0  0  0  0  0  0  0  0
  144.3445   75.4798  218.2762 H   0  0  0  0  0  0  0  0  0  0  0  0
  143.8430   73.6530  219.3310 C   0  0  0  0  0  0  0  0  0  0  0  0
  144.5778   73.0457  218.7821 H   0  0  0  0  0  0  0  0  0  0  0  0
  143.0430   73.0620  220.3120 C   0  0  0  0  0  0  0  0  0  0  0  0
  143.1502   71.9902  220.5352 H   0  0  0  0  0  0  0  0  0  0  0  0
  142.1060   73.8300  221.0110 C   0  0  0  0  0  0  0  0  0  0  0  0
  141.4801   73.3624  221.7853 H   0  0  0  0  0  0  0  0  0  0  0  0
  141.9630   75.2030  220.7240 C   0  0  0  0  0  0  0  0  0  0  0  0
  141.0320   76.0180  221.3890 C   0  0  0  0  0  0  0  0  0  0  0  0
  140.3470   75.5210  222.3260 O   0  0  0  0  0  0  0  0  0  0  0  0
  140.8800   77.3440  221.0370 N   0  0  0  0  0  0  0  0  0  0  0  0
  139.7900   78.1380  221.6650 C   0  0  0  0  0  0  0  0  0  0  0  0
  139.5025   78.9361  220.9647 H   0  0  0  0  0  0  0  0  0  0  0  0
  138.9768   77.4284  221.8774 H   0  0  0  0  0  0  0  0  0  0  0  0
  140.1570   78.8010  223.0300 C   0  0  0  0  0  0  0  0  0  0  0  0
  139.5037   78.2718  223.7393 H   0  0  0  0  0  0  0  0  0  0  0  0
  141.5890   78.5110  223.5420 C   0  0  0  0  0  0  0  0  0  0  0  0
  141.5788   78.5814  224.6397 H   0  0  0  0  0  0  0  0  0  0  0  0
  141.8501   77.5098  223.1686 H   0  0  0  0  0  0  0  0  0  0  0  0
  142.6820   79.4650  223.0120 C   0  0  0  0  0  0  0  0  0  0  0  0
  143.4499   79.5775  223.7915 H   0  0  0  0  0  0  0  0  0  0  0  0
  143.0759   79.0142  222.0892 H   0  0  0  0  0  0  0  0  0  0  0  0
  142.1670   80.8630  222.6370 C   0  0  0  0  0  0  0  0  0  0  0  0
  142.9616   81.5994  222.8275 H   0  0  0  0  0  0  0  0  0  0  0  0
  141.8880   80.8536  221.5730 H   0  0  0  0  0  0  0  0  0  0  0  0
  140.9330   81.2430  223.4520 C   0  0  0  0  0  0  0  0  0  0  0  0
  141.1742   81.1757  224.5231 H   0  0  0  0  0  0  0  0  0  0  0  0
  140.6400   82.2698  223.1877 H   0  0  0  0  0  0  0  0  0  0  0  0
  139.7600   80.3030  223.1410 C   0  0  0  0  0  0  0  0  0  0  0  0
  139.0147   80.4043  223.9437 H   0  0  0  0  0  0  0  0  0  0  0  0
  139.3695   80.6001  222.1565 H   0  0  0  0  0  0  0  0  0  0  0  0
  142.2740   81.2300  218.2510 C   0  0  0  0  0  0  0  0  0  0  0  0
  143.3360   81.6590  217.4610 C   0  0  0  0  0  0  0  0  0  0  0  0
  144.1182   81.0164  217.0306 H   0  0  0  0  0  0  0  0  0  0  0  0
  143.2210   83.3240  217.2760 S   0  0  0  0  0  0  0  0  0  0  0  0
  141.8250   83.5270  218.1860 C   0  0  0  0  0  0  0  0  0  0  0  0
  141.3146   84.4820  218.3794 H   0  0  0  0  0  0  0  0  0  0  0  0
  141.4260   82.2830  218.6520 C   0  0  0  0  0  0  0  0  0  0  0  0
  140.5324   82.1320  219.2755 H   0  0  0  0  0  0  0  0  0  0  0  0
  1  2  1  0
  2  3  2  0
  3  4  1  0
  3  5  1  0
  5  6  2  0
  6  7  1  0
  7  8  2  0
  8  9  1  0
  8 10  1  0
 10 11  1  0
 10 12  2  0
 12 13  1  0
 12 14  1  0
 14 15  1  0
 14 16  2  0
 16 17  1  0
 17 18  2  0
 17 19  1  0
 19 20  1  0
 20 21  1  0
 20 22  1  0
 20 23  1  0
 23 24  1  0
 23 25  1  0
 25 26  1  0
 25 27  1  0
 25 28  1  0
 28 29  1  0
 28 30  1  0
 28 31  1  0
 31 32  1  0
 31 33  1  0
 31 34  1  0
 34 35  1  0
 34 36  1  0
 34 37  1  0
 37 38  1  0
 37 39  1  0
  2 40  1  0
 40 41  2  0
 41 42  1  0
 41 43  1  0
 43 44  1  0
 44 45  1  0
 44 46  2  0
 46 47  1  0
 19  5  1  0
 37 23  1  0
 46 40  1  0
 16  7  1  0
M  END
>  <UniqueID>  (1) 
613

>  <SMILES>  (1) 
O=c1c2ccccc2nc(/C=C/c2ccsc2)n1CC1CCCCC1

>  <Energy>  (1) 
89.49114686974447

>  <Genealogy>  (1) 
O=c1c2ccccc2nc(/C=C/c2ccsc2)n1CC1CCCCC1 (cis-trans isomerization)
O=c1c2ccccc2nc(/C=C/c2ccsc2)n1CC1CCCCC1 (3D coordinates assigned)
O=c1c2ccccc2nc(/C=C/c2ccsc2)n1CC1CCCCC1 (nonaromatic ring conformer: 89.49114686974447 kcal/mol)

>  <smiles>  (1) 
O=c1c2ccccc2nc(/C=C/c2ccsc2)n1CC1CCCCC1

>  <score_type>  (1) 
oracle

>  <origin>  (1) 
autodockgpu

>  <m_score__min__energy>  (1) 
-6.8200000000000003

>  <m_primary>  (1) 
energy

>  <meeko>  (1) 
{"free_energy": -6.64, "intermolecular_energy": -8.13, "internal_energy": -1.47, "cluster_size": 2, "cluster_id": 2, "rank_in_cluster": 1}

>  <energy>  (1) 
-6.82

>  <cluster_rmsd>  (1) 
0.0

>  <rmsd>  (1) 
271.0

>  <cluster>  (1) 
1

$$$$
WQFRIXFTBLEVTI-ZHACJKMWNA-N
     RDKit          3D

 47 50  0  0  0  0  0  0  0  0999 V2000
  137.9198   72.6783  221.8538 H   0  0  0  0  0  0  0  0  0  0  0  0
  139.0020   72.8260  221.9840 C   0  0  0  0  0  0  0  0  0  0  0  0
  139.7720   71.7410  222.1470 C   0  0  0  0  0  0  0  0  0  0  0  0
  140.3530   71.3614  221.2936 H   0  0  0  0  0  0  0  0  0  0  0  0
  139.8590   71.0390  223.4540 C   0  0  0  0  0  0  0  0  0  0  0  0
  140.4120   71.7250  224.4910 N   0  0  0  0  0  0  0  0  0  0  0  0
  140.4830   71.2140  225.7390 C   0  0  0  0  0  0  0  0  0  0  0  0
  141.0750   71.9550  226.7670 C   0  0  0  0  0  0  0  0  0  0  0  0
  141.5047   72.9449  226.5538 H   0  0  0  0  0  0  0  0  0  0  0  0
  141.1210   71.4390  228.0640 C   0  0  0  0  0  0  0  0  0  0  0  0
  141.5906   72.0211  228.8706 H   0  0  0  0  0  0  0  0  0  0  0  0
  140.5710   70.1840  228.3380 C   0  0  0  0  0  0  0  0  0  0  0  0
  140.6061   69.7805  229.3607 H   0  0  0  0  0  0  0  0  0  0  0  0
  139.9760   69.4400  227.3140 C   0  0  0  0  0  0  0  0  0  0  0  0
  139.5416   68.4535  227.5332 H   0  0  0  0  0  0  0  0  0  0  0  0
  139.9320   69.9520  226.0020 C   0  0  0  0  0  0  0  0  0  0  0  0
  139.3550   69.2440  224.9350 C   0  0  0  0  0  0  0  0  0  0  0  0
  138.7910   68.1380  225.1730 O   0  0  0  0  0  0  0  0  0  0  0  0
  139.3850   69.7530  223.6530 N   0  0  0  0  0  0  0  0  0  0  0  0
  138.8890   68.9130  222.5300 C   0  0  0  0  0  0  0  0  0  0  0  0
  139.4410   69.1972  221.6220 H   0  0  0  0  0  0  0  0  0  0  0  0
  139.0529   67.8682  222.8326 H   0  0  0  0  0  0  0  0  0  0  0  0
  137.3640   69.0450  222.2300 C   0  0  0  0  0  0  0  0  0  0  0  0
  137.1549   68.1384  221.6432 H   0  0  0  0  0  0  0  0  0  0  0  0
  136.4340   68.9240  223.4620 C   0  0  0  0  0  0  0  0  0  0  0  0
  135.4594   68.5480  223.1173 H   0  0  0  0  0  0  0  0  0  0  0  0
  136.9426   68.2464  224.1636 H   0  0  0  0  0  0  0  0  0  0  0  0
  136.1930   70.2390  224.2340 C   0  0  0  0  0  0  0  0  0  0  0  0
  135.1774   70.2107  224.6556 H   0  0  0  0  0  0  0  0  0  0  0  0
  136.9729   70.3000  225.0073 H   0  0  0  0  0  0  0  0  0  0  0  0
  136.3230   71.5060  223.3730 C   0  0  0  0  0  0  0  0  0  0  0  0
  135.6319   72.2710  223.7566 H   0  0  0  0  0  0  0  0  0  0  0  0
  137.3646   71.8552  223.4287 H   0  0  0  0  0  0  0  0  0  0  0  0
  135.9900   71.2260  221.9100 C   0  0  0  0  0  0  0  0  0  0  0  0
  134.9787   70.7979  221.8466 H   0  0  0  0  0  0  0  0  0  0  0  0
  136.0433   72.1717  221.3508 H   0  0  0  0  0  0  0  0  0  0  0  0
  136.9930   70.2380  221.2980 C   0  0  0  0  0  0  0  0  0  0  0  0
  136.5564   69.8311  220.3739 H   0  0  0  0  0  0  0  0  0  0  0  0
  137.9215   70.8001  221.1191 H   0  0  0  0  0  0  0  0  0  0  0  0
  139.5230   74.2110  221.9690 C   0  0  0  0  0  0  0  0  0  0  0  0
  140.8280   74.4880  221.5730 C   0  0  0  0  0  0  0  0  0  0  0  0
  141.5751   73.7461  221.2545 H   0  0  0  0  0  0  0  0  0  0  0  0
  141.0680   76.1470  221.6640 S   0  0  0  0  0  0  0  0  0  0  0  0
  139.5270   76.5410  222.1980 C   0  0  0  0  0  0  0  0  0  0  0  0
  139.1600   77.5545  222.4175 H   0  0  0  0  0  0  0  0  0  0  0  0
  138.7950   75.3670  222.3150 C   0  0  0  0  0  0  0  0  0  0  0  0
  137.7464   75.3416  222.6463 H   0  0  0  0  0  0  0  0  0  0  0  0
  1  2  1  0
  2  3  2  0
  3  4  1  0
  3  5  1  0
  5  6  2  0
  6  7  1  0
  7  8  2  0
  8  9  1  0
  8 10  1  0
 10 11  1  0
 10 12  2  0
 12 13  1  0
 12 14  1  0
 14 15  1  0
 14 16  2  0
 16 17  1  0
 17 18  2  0
 17 19  1  0
 19 20  1  0
 20 21  1  0
 20 22  1  0
 20 23  1  0
 23 24  1  0
 23 25  1  0
 25 26  1  0
 25 27  1  0
 25 28  1  0
 28 29  1  0
 28 30  1  0
 28 31  1  0
 31 32  1  0
 31 33  1  0
 31 34  1  0
 34 35  1  0
 34 36  1  0
 34 37  1  0
 37 38  1  0
 37 39  1  0
  2 40  1  0
 40 41  2  0
 41 42  1  0
 41 43  1  0
 43 44  1  0
 44 45  1  0
 44 46  2  0
 46 47  1  0
 19  5  1  0
 37 23  1  0
 46 40  1  0
 16  7  1  0
M  END
>  <UniqueID>  (2) 
613

>  <SMILES>  (2) 
O=c1c2ccccc2nc(/C=C/c2ccsc2)n1CC1CCCCC1

>  <Energy>  (2) 
89.49114686974447

>  <Genealogy>  (2) 
O=c1c2ccccc2nc(/C=C/c2ccsc2)n1CC1CCCCC1 (cis-trans isomerization)
O=c1c2ccccc2nc(/C=C/c2ccsc2)n1CC1CCCCC1 (3D coordinates assigned)
O=c1c2ccccc2nc(/C=C/c2ccsc2)n1CC1CCCCC1 (nonaromatic ring conformer: 89.49114686974447 kcal/mol)

>  <smiles>  (2) 
O=c1c2ccccc2nc(/C=C/c2ccsc2)n1CC1CCCCC1

>  <score_type>  (2) 
oracle

>  <origin>  (2) 
autodockgpu

>  <m_score__min__energy>  (2) 
-6.8200000000000003

>  <m_primary>  (2) 
energy

>  <meeko>  (2) 
{"free_energy": -6.73, "intermolecular_energy": -8.22, "internal_energy": -1.73, "cluster_size": 16, "cluster_id": 1, "rank_in_cluster": 10}

>  <energy>  (2) 
-6.82

>  <cluster_rmsd>  (2) 
0.18

>  <rmsd>  (2) 
271.0

>  <cluster>  (2) 
1

$$$$
WQFRIXFTBLEVTI-ZHACJKMWNA-N
     RDKit          3D

 47 50  0  0  0  0  0  0  0  0999 V2000
  141.6509   72.5811  221.5306 H   0  0  0  0  0  0  0  0  0  0  0  0
  140.5910   72.6710  221.8110 C   0  0  0  0  0  0  0  0  0  0  0  0
  139.9100   71.5470  222.0760 C   0  0  0  0  0  0  0  0  0  0  0  0
  139.2949   71.0931  221.2850 H   0  0  0  0  0  0  0  0  0  0  0  0
  139.9660   70.8990  223.4130 C   0  0  0  0  0  0  0  0  0  0  0  0
  140.5150   71.6200  224.4280 N   0  0  0  0  0  0  0  0  0  0  0  0
  140.5600   71.1620  225.6970 C   0  0  0  0  0  0  0  0  0  0  0  0
  141.1490   71.9370  226.7020 C   0  0  0  0  0  0  0  0  0  0  0  0
  141.5982   72.9099  226.4536 H   0  0  0  0  0  0  0  0  0  0  0  0
  141.1670   71.4760  228.0210 C   0  0  0  0  0  0  0  0  0  0  0  0
  141.6331   72.0846  228.8099 H   0  0  0  0  0  0  0  0  0  0  0  0
  140.5930   70.2420  228.3380 C   0  0  0  0  0  0  0  0  0  0  0  0
  140.6077   69.8809  229.3769 H   0  0  0  0  0  0  0  0  0  0  0  0
  140.0000   69.4650  227.3380 C   0  0  0  0  0  0  0  0  0  0  0  0
  139.5453   68.4962  227.5925 H   0  0  0  0  0  0  0  0  0  0  0  0
  139.9840   69.9210  226.0050 C   0  0  0  0  0  0  0  0  0  0  0  0
  139.4110   69.1770  224.9610 C   0  0  0  0  0  0  0  0  0  0  0  0
  138.8260   68.0910  225.2360 O   0  0  0  0  0  0  0  0  0  0  0  0
  139.4690   69.6310  223.6590 N   0  0  0  0  0  0  0  0  0  0  0  0
  138.9760   68.7520  222.5640 C   0  0  0  0  0  0  0  0  0  0  0  0
  139.5776   68.9560  221.6660 H   0  0  0  0  0  0  0  0  0  0  0  0
  139.0744   67.7198  222.9313 H   0  0  0  0  0  0  0  0  0  0  0  0
  137.4730   68.9400  222.1920 C   0  0  0  0  0  0  0  0  0  0  0  0
  137.2508   68.0282  221.6182 H   0  0  0  0  0  0  0  0  0  0  0  0
  136.4850   68.8900  223.3830 C   0  0  0  0  0  0  0  0  0  0  0  0
  135.5114   68.5461  223.0038 H   0  0  0  0  0  0  0  0  0  0  0  0
  136.9320   68.2101  224.1233 H   0  0  0  0  0  0  0  0  0  0  0  0
  136.2670   70.2350  224.1110 C   0  0  0  0  0  0  0  0  0  0  0  0
  135.2333   70.2608  224.4863 H   0  0  0  0  0  0  0  0  0  0  0  0
  137.0139   70.2833  224.9171 H   0  0  0  0  0  0  0  0  0  0  0  0
  136.4900   71.4720  223.2270 C   0  0  0  0  0  0  0  0  0  0  0  0
  135.8166   72.2754  223.5603 H   0  0  0  0  0  0  0  0  0  0  0  0
  137.5423   71.7782  223.3215 H   0  0  0  0  0  0  0  0  0  0  0  0
  136.2100   71.1680  221.7570 C   0  0  0  0  0  0  0  0  0  0  0  0
  135.1850   70.7811  221.6582 H   0  0  0  0  0  0  0  0  0  0  0  0
  136.3282   72.0956  221.1777 H   0  0  0  0  0  0  0  0  0  0  0  0
  137.1960   70.1230  221.2160 C   0  0  0  0  0  0  0  0  0  0  0  0
  136.7844   69.7111  220.2828 H   0  0  0  0  0  0  0  0  0  0  0  0
  138.1550   70.6408  221.0670 H   0  0  0  0  0  0  0  0  0  0  0  0
  139.9990   74.0250  221.8740 C   0  0  0  0  0  0  0  0  0  0  0  0
  140.7960   75.1650  221.8350 C   0  0  0  0  0  0  0  0  0  0  0  0
  141.8938   75.1804  221.7666 H   0  0  0  0  0  0  0  0  0  0  0  0
  139.7980   76.5130  221.9100 S   0  0  0  0  0  0  0  0  0  0  0  0
  138.3440   75.6770  221.9860 C   0  0  0  0  0  0  0  0  0  0  0  0
  137.3430   76.1285  222.0501 H   0  0  0  0  0  0  0  0  0  0  0  0
  138.6230   74.3190  221.9540 C   0  0  0  0  0  0  0  0  0  0  0  0
  137.8433   73.5438  221.9879 H   0  0  0  0  0  0  0  0  0  0  0  0
  1  2  1  0
  2  3  2  0
  3  4  1  0
  3  5  1  0
  5  6  2  0
  6  7  1  0
  7  8  2  0
  8  9  1  0
  8 10  1  0
 10 11  1  0
 10 12  2  0
 12 13  1  0
 12 14  1  0
 14 15  1  0
 14 16  2  0
 16 17  1  0
 17 18  2  0
 17 19  1  0
 19 20  1  0
 20 21  1  0
 20 22  1  0
 20 23  1  0
 23 24  1  0
 23 25  1  0
 25 26  1  0
 25 27  1  0
 25 28  1  0
 28 29  1  0
 28 30  1  0
 28 31  1  0
 31 32  1  0
 31 33  1  0
 31 34  1  0
 34 35  1  0
 34 36  1  0
 34 37  1  0
 37 38  1  0
 37 39  1  0
  2 40  1  0
 40 41  2  0
 41 42  1  0
 41 43  1  0
 43 44  1  0
 44 45  1  0
 44 46  2  0
 46 47  1  0
 19  5  1  0
 37 23  1  0
 46 40  1  0
 16  7  1  0
M  END
>  <UniqueID>  (3) 
613

>  <SMILES>  (3) 
O=c1c2ccccc2nc(/C=C/c2ccsc2)n1CC1CCCCC1

>  <Energy>  (3) 
89.49114686974447

>  <Genealogy>  (3) 
O=c1c2ccccc2nc(/C=C/c2ccsc2)n1CC1CCCCC1 (cis-trans isomerization)
O=c1c2ccccc2nc(/C=C/c2ccsc2)n1CC1CCCCC1 (3D coordinates assigned)
O=c1c2ccccc2nc(/C=C/c2ccsc2)n1CC1CCCCC1 (nonaromatic ring conformer: 89.49114686974447 kcal/mol)

>  <smiles>  (3) 
O=c1c2ccccc2nc(/C=C/c2ccsc2)n1CC1CCCCC1

>  <score_type>  (3) 
oracle

>  <origin>  (3) 
autodockgpu

>  <m_score__min__energy>  (3) 
-6.8200000000000003

>  <m_primary>  (3) 
energy

>  <meeko>  (3) 
{"free_energy": -6.65, "intermolecular_energy": -8.14, "internal_energy": -1.83, "cluster_size": 16, "cluster_id": 1, "rank_in_cluster": 16}

>  <energy>  (3) 
-6.81

>  <cluster_rmsd>  (3) 
0.43

>  <rmsd>  (3) 
271.02

>  <cluster>  (3) 
1

$$$$
WQFRIXFTBLEVTI-ZHACJKMWNA-N
     RDKit          3D

 47 50  0  0  0  0  0  0  0  0999 V2000
  141.5743   72.2664  221.4746 H   0  0  0  0  0  0  0  0  0  0  0  0
  140.5780   72.6070  221.7930 C   0  0  0  0  0  0  0  0  0  0  0  0
  139.6890   71.6820  222.1800 C   0  0  0  0  0  0  0  0  0  0  0  0
  138.8441   71.4398  221.5186 H   0  0  0  0  0  0  0  0  0  0  0  0
  139.8170   70.9750  223.4820 C   0  0  0  0  0  0  0  0  0  0  0  0
  140.3790   71.6660  224.5100 N   0  0  0  0  0  0  0  0  0  0  0  0
  140.4870   71.1510  225.7530 C   0  0  0  0  0  0  0  0  0  0  0  0
  141.0870   71.8990  226.7720 C   0  0  0  0  0  0  0  0  0  0  0  0
  141.4933   72.8979  226.5549 H   0  0  0  0  0  0  0  0  0  0  0  0
  141.1700   71.3770  228.0650 C   0  0  0  0  0  0  0  0  0  0  0  0
  141.6453   71.9639  228.8648 H   0  0  0  0  0  0  0  0  0  0  0  0
  140.6500   70.1100  228.3440 C   0  0  0  0  0  0  0  0  0  0  0  0
  140.7160   69.7019  229.3634 H   0  0  0  0  0  0  0  0  0  0  0  0
  140.0460   69.3600  227.3300 C   0  0  0  0  0  0  0  0  0  0  0  0
  139.6337   68.3650  227.5537 H   0  0  0  0  0  0  0  0  0  0  0  0
  139.9650   69.8780  226.0210 C   0  0  0  0  0  0  0  0  0  0  0  0
  139.3780   69.1630  224.9640 C   0  0  0  0  0  0  0  0  0  0  0  0
  138.8410   68.0460  225.2080 O   0  0  0  0  0  0  0  0  0  0  0  0
  139.3720   69.6790  223.6840 N   0  0  0  0  0  0  0  0  0  0  0  0
  138.8680   68.8360  222.5670 C   0  0  0  0  0  0  0  0  0  0  0  0
  139.4371   69.0939  221.6617 H   0  0  0  0  0  0  0  0  0  0  0  0
  139.0025   67.7919  222.8860 H   0  0  0  0  0  0  0  0  0  0  0  0
  137.3490   69.0010  222.2470 C   0  0  0  0  0  0  0  0  0  0  0  0
  137.1249   68.0958  221.6636 H   0  0  0  0  0  0  0  0  0  0  0  0
  136.4020   68.9100  223.4690 C   0  0  0  0  0  0  0  0  0  0  0  0
  135.4230   68.5539  223.1157 H   0  0  0  0  0  0  0  0  0  0  0  0
  136.8859   68.2257  224.1814 H   0  0  0  0  0  0  0  0  0  0  0  0
  136.1830   70.2370  224.2280 C   0  0  0  0  0  0  0  0  0  0  0  0
  135.1621   70.2359  224.6375 H   0  0  0  0  0  0  0  0  0  0  0  0
  136.9553   70.2855  225.0097 H   0  0  0  0  0  0  0  0  0  0  0  0
  136.3530   71.4940  223.3600 C   0  0  0  0  0  0  0  0  0  0  0  0
  135.6755   72.2778  223.7297 H   0  0  0  0  0  0  0  0  0  0  0  0
  137.4018   71.8192  223.4259 H   0  0  0  0  0  0  0  0  0  0  0  0
  136.0310   71.2110  221.8950 C   0  0  0  0  0  0  0  0  0  0  0  0
  135.0107   70.8063  221.8223 H   0  0  0  0  0  0  0  0  0  0  0  0
  136.1130   72.1509  221.3295 H   0  0  0  0  0  0  0  0  0  0  0  0
  137.0180   70.1950  221.3030 C   0  0  0  0  0  0  0  0  0  0  0  0
  136.5836   69.7918  220.3763 H   0  0  0  0  0  0  0  0  0  0  0  0
  137.9617   70.7338  221.1324 H   0  0  0  0  0  0  0  0  0  0  0  0
  140.2980   74.0590  221.7690 C   0  0  0  0  0  0  0  0  0  0  0  0
  139.0100   74.5510  221.9640 C   0  0  0  0  0  0  0  0  0  0  0  0
  138.1089   73.9444  222.1377 H   0  0  0  0  0  0  0  0  0  0  0  0
  139.0660   76.2270  221.8890 S   0  0  0  0  0  0  0  0  0  0  0  0
  140.7170   76.3570  221.6140 C   0  0  0  0  0  0  0  0  0  0  0  0
  141.2773   77.2948  221.4853 H   0  0  0  0  0  0  0  0  0  0  0  0
  141.2530   75.0780  221.5770 C   0  0  0  0  0  0  0  0  0  0  0  0
  142.3222   74.8779  221.4133 H   0  0  0  0  0  0  0  0  0  0  0  0
  1  2  1  0
  2  3  2  0
  3  4  1  0
  3  5  1  0
  5  6  2  0
  6  7  1  0
  7  8  2  0
  8  9  1  0
  8 10  1  0
 10 11  1  0
 10 12  2  0
 12 13  1  0
 12 14  1  0
 14 15  1  0
 14 16  2  0
 16 17  1  0
 17 18  2  0
 17 19  1  0
 19 20  1  0
 20 21  1  0
 20 22  1  0
 20 23  1  0
 23 24  1  0
 23 25  1  0
 25 26  1  0
 25 27  1  0
 25 28  1  0
 28 29  1  0
 28 30  1  0
 28 31  1  0
 31 32  1  0
 31 33  1  0
 31 34  1  0
 34 35  1  0
 34 36  1  0
 34 37  1  0
 37 38  1  0
 37 39  1  0
  2 40  1  0
 40 41  2  0
 41 42  1  0
 41 43  1  0
 43 44  1  0
 44 45  1  0
 44 46  2  0
 46 47  1  0
 19  5  1  0
 37 23  1  0
 46 40  1  0
 16  7  1  0
M  END
>  <UniqueID>  (4) 
613

>  <SMILES>  (4) 
O=c1c2ccccc2nc(/C=C/c2ccsc2)n1CC1CCCCC1

>  <Energy>  (4) 
89.49114686974447

>  <Genealogy>  (4) 
O=c1c2ccccc2nc(/C=C/c2ccsc2)n1CC1CCCCC1 (cis-trans isomerization)
O=c1c2ccccc2nc(/C=C/c2ccsc2)n1CC1CCCCC1 (3D coordinates assigned)
O=c1c2ccccc2nc(/C=C/c2ccsc2)n1CC1CCCCC1 (nonaromatic ring conformer: 89.49114686974447 kcal/mol)

>  <smiles>  (4) 
O=c1c2ccccc2nc(/C=C/c2ccsc2)n1CC1CCCCC1

>  <score_type>  (4) 
oracle

>  <origin>  (4) 
autodockgpu

>  <m_score__min__energy>  (4) 
-6.8200000000000003

>  <m_primary>  (4) 
energy

>  <meeko>  (4) 
{"free_energy": -6.82, "intermolecular_energy": -8.31, "internal_energy": -1.7, "cluster_size": 16, "cluster_id": 1, "rank_in_cluster": 1}

>  <energy>  (4) 
-6.81

>  <cluster_rmsd>  (4) 
0.43

>  <rmsd>  (4) 
271.01

>  <cluster>  (4) 
1

$$$$
WQFRIXFTBLEVTI-ZHACJKMWNA-N
     RDKit          3D

 47 50  0  0  0  0  0  0  0  0999 V2000
  141.6576   72.7660  221.7495 H   0  0  0  0  0  0  0  0  0  0  0  0
  140.5780   72.8560  221.9400 C   0  0  0  0  0  0  0  0  0  0  0  0
  139.8790   71.7330  222.1560 C   0  0  0  0  0  0  0  0  0  0  0  0
  139.2483   71.3295  221.3501 H   0  0  0  0  0  0  0  0  0  0  0  0
  139.9360   71.0200  223.4590 C   0  0  0  0  0  0  0  0  0  0  0  0
  140.4740   71.6940  224.5120 N   0  0  0  0  0  0  0  0  0  0  0  0
  140.5170   71.1730  225.7560 C   0  0  0  0  0  0  0  0  0  0  0  0
  141.0950   71.9020  226.8010 C   0  0  0  0  0  0  0  0  0  0  0  0
  141.5361   72.8902  226.6039 H   0  0  0  0  0  0  0  0  0  0  0  0
  141.1120   71.3750  228.0950 C   0  0  0  0  0  0  0  0  0  0  0  0
  141.5710   71.9469  228.9149 H   0  0  0  0  0  0  0  0  0  0  0  0
  140.5470   70.1230  228.3490 C   0  0  0  0  0  0  0  0  0  0  0  0
  140.5598   69.7114  229.3690 H   0  0  0  0  0  0  0  0  0  0  0  0
  139.9650   69.3920  227.3080 C   0  0  0  0  0  0  0  0  0  0  0  0
  139.5175   68.4080  227.5115 H   0  0  0  0  0  0  0  0  0  0  0  0
  139.9510   69.9140  225.9990 C   0  0  0  0  0  0  0  0  0  0  0  0
  139.3890   69.2180  224.9160 C   0  0  0  0  0  0  0  0  0  0  0  0
  138.8120   68.1150  225.1350 O   0  0  0  0  0  0  0  0  0  0  0  0
  139.4480   69.7370  223.6390 N   0  0  0  0  0  0  0  0  0  0  0  0
  138.9680   68.9100  222.5000 C   0  0  0  0  0  0  0  0  0  0  0  0
  139.5657   69.1703  221.6140 H   0  0  0  0  0  0  0  0  0  0  0  0
  139.0825   67.8616  222.8126 H   0  0  0  0  0  0  0  0  0  0  0  0
  137.4610   69.0940  222.1380 C   0  0  0  0  0  0  0  0  0  0  0  0
  137.2655   68.2384  221.4748 H   0  0  0  0  0  0  0  0  0  0  0  0
  136.4700   68.9000  223.3130 C   0  0  0  0  0  0  0  0  0  0  0  0
  135.5072   68.5701  222.8958 H   0  0  0  0  0  0  0  0  0  0  0  0
  136.9322   68.1619  223.9849 H   0  0  0  0  0  0  0  0  0  0  0  0
  136.2140   70.1600  224.1690 C   0  0  0  0  0  0  0  0  0  0  0  0
  135.1788   70.1215  224.5389 H   0  0  0  0  0  0  0  0  0  0  0  0
  136.9567   70.1477  224.9803 H   0  0  0  0  0  0  0  0  0  0  0  0
  136.4070   71.4840  223.4130 C   0  0  0  0  0  0  0  0  0  0  0  0
  135.7115   72.2326  223.8202 H   0  0  0  0  0  0  0  0  0  0  0  0
  137.4505   71.8066  223.5434 H   0  0  0  0  0  0  0  0  0  0  0  0
  136.1400   71.3200  221.9190 C   0  0  0  0  0  0  0  0  0  0  0  0
  135.1262   70.9177  221.7763 H   0  0  0  0  0  0  0  0  0  0  0  0
  136.2348   72.3032  221.4350 H   0  0  0  0  0  0  0  0  0  0  0  0
  137.1560   70.3600  221.2830 C   0  0  0  0  0  0  0  0  0  0  0  0
  136.7590   70.0322  220.3109 H   0  0  0  0  0  0  0  0  0  0  0  0
  138.1013   70.9152  221.1924 H   0  0  0  0  0  0  0  0  0  0  0  0
  139.9810   74.2100  221.9430 C   0  0  0  0  0  0  0  0  0  0  0  0
  138.6020   74.3930  221.9690 C   0  0  0  0  0  0  0  0  0  0  0  0
  137.8469   73.5931  221.9793 H   0  0  0  0  0  0  0  0  0  0  0  0
  138.2860   76.0420  221.9820 S   0  0  0  0  0  0  0  0  0  0  0  0
  139.8860   76.5500  221.9610 C   0  0  0  0  0  0  0  0  0  0  0  0
  140.2311   77.5945  221.9614 H   0  0  0  0  0  0  0  0  0  0  0  0
  140.6980   75.4250  221.9430 C   0  0  0  0  0  0  0  0  0  0  0  0
  141.7968   75.4757  221.9300 H   0  0  0  0  0  0  0  0  0  0  0  0
  1  2  1  0
  2  3  2  0
  3  4  1  0
  3  5  1  0
  5  6  2  0
  6  7  1  0
  7  8  2  0
  8  9  1  0
  8 10  1  0
 10 11  1  0
 10 12  2  0
 12 13  1  0
 12 14  1  0
 14 15  1  0
 14 16  2  0
 16 17  1  0
 17 18  2  0
 17 19  1  0
 19 20  1  0
 20 21  1  0
 20 22  1  0
 20 23  1  0
 23 24  1  0
 23 25  1  0
 25 26  1  0
 25 27  1  0
 25 28  1  0
 28 29  1  0
 28 30  1  0
 28 31  1  0
 31 32  1  0
 31 33  1  0
 31 34  1  0
 34 35  1  0
 34 36  1  0
 34 37  1  0
 37 38  1  0
 37 39  1  0
  2 40  1  0
 40 41  2  0
 41 42  1  0
 41 43  1  0
 43 44  1  0
 44 45  1  0
 44 46  2  0
 46 47  1  0
 19  5  1  0
 37 23  1  0
 46 40  1  0
 16  7  1  0
M  END
>  <UniqueID>  (5) 
613

>  <SMILES>  (5) 
O=c1c2ccccc2nc(/C=C/c2ccsc2)n1CC1CCCCC1

>  <Energy>  (5) 
89.49114686974447

>  <Genealogy>  (5) 
O=c1c2ccccc2nc(/C=C/c2ccsc2)n1CC1CCCCC1 (cis-trans isomerization)
O=c1c2ccccc2nc(/C=C/c2ccsc2)n1CC1CCCCC1 (3D coordinates assigned)
O=c1c2ccccc2nc(/C=C/c2ccsc2)n1CC1CCCCC1 (nonaromatic ring conformer: 89.49114686974447 kcal/mol)

>  <smiles>  (5) 
O=c1c2ccccc2nc(/C=C/c2ccsc2)n1CC1CCCCC1

>  <score_type>  (5) 
oracle

>  <origin>  (5) 
autodockgpu

>  <m_score__min__energy>  (5) 
-6.8200000000000003

>  <m_primary>  (5) 
energy

>  <meeko>  (5) 
{"free_energy": -6.74, "intermolecular_energy": -8.23, "internal_energy": -1.79, "cluster_size": 16, "cluster_id": 1, "rank_in_cluster": 9}

>  <energy>  (5) 
-6.8

>  <cluster_rmsd>  (5) 
0.43

>  <rmsd>  (5) 
271.01

>  <cluster>  (5) 
1

$$$$
WQFRIXFTBLEVTI-ZHACJKMWNA-N
     RDKit          3D

 47 50  0  0  0  0  0  0  0  0999 V2000
  138.7201   78.2170  223.8826 H   0  0  0  0  0  0  0  0  0  0  0  0
  139.4500   78.3110  223.0650 C   0  0  0  0  0  0  0  0  0  0  0  0
  139.2910   77.5340  221.9850 C   0  0  0  0  0  0  0  0  0  0  0  0
  138.3864   77.6481  221.3696 H   0  0  0  0  0  0  0  0  0  0  0  0
  140.3090   76.5210  221.5990 C   0  0  0  0  0  0  0  0  0  0  0  0
  140.0690   75.2320  221.9620 N   0  0  0  0  0  0  0  0  0  0  0  0
  140.8880   74.2180  221.6090 C   0  0  0  0  0  0  0  0  0  0  0  0
  140.6030   72.9120  222.0210 C   0  0  0  0  0  0  0  0  0  0  0  0
  139.7244   72.7137  222.6525 H   0  0  0  0  0  0  0  0  0  0  0  0
  141.4350   71.8590  221.6300 C   0  0  0  0  0  0  0  0  0  0  0  0
  141.2134   70.8327  221.9579 H   0  0  0  0  0  0  0  0  0  0  0  0
  142.5480   72.1090  220.8230 C   0  0  0  0  0  0  0  0  0  0  0  0
  143.1998   71.2784  220.5143 H   0  0  0  0  0  0  0  0  0  0  0  0
  142.8350   73.4130  220.4070 C   0  0  0  0  0  0  0  0  0  0  0  0
  143.7104   73.6058  219.7694 H   0  0  0  0  0  0  0  0  0  0  0  0
  142.0050   74.4800  220.8030 C   0  0  0  0  0  0  0  0  0  0  0  0
  142.2520   75.8090  220.4220 C   0  0  0  0  0  0  0  0  0  0  0  0
  143.2130   76.0480  219.6370 O   0  0  0  0  0  0  0  0  0  0  0  0
  141.4500   76.8340  220.8800 N   0  0  0  0  0  0  0  0  0  0  0  0
  141.8250   78.2390  220.5690 C   0  0  0  0  0  0  0  0  0  0  0  0
  141.3767   78.8890  221.3348 H   0  0  0  0  0  0  0  0  0  0  0  0
  142.9246   78.2680  220.5594 H   0  0  0  0  0  0  0  0  0  0  0  0
  141.3640   78.7520  219.1690 C   0  0  0  0  0  0  0  0  0  0  0  0
  141.0173   77.8314  218.6768 H   0  0  0  0  0  0  0  0  0  0  0  0
  140.1180   79.6720  219.1790 C   0  0  0  0  0  0  0  0  0  0  0  0
  139.6118   79.5701  218.2077 H   0  0  0  0  0  0  0  0  0  0  0  0
  139.5035   79.3450  220.0308 H   0  0  0  0  0  0  0  0  0  0  0  0
  140.4100   81.1710  219.4110 C   0  0  0  0  0  0  0  0  0  0  0  0
  139.6619   81.7581  218.8582 H   0  0  0  0  0  0  0  0  0  0  0  0
  140.3640   81.3384  220.4972 H   0  0  0  0  0  0  0  0  0  0  0  0
  141.8080   81.6170  218.9530 C   0  0  0  0  0  0  0  0  0  0  0  0
  141.7556   82.6609  218.6103 H   0  0  0  0  0  0  0  0  0  0  0  0
  142.4976   81.5181  219.8042 H   0  0  0  0  0  0  0  0  0  0  0  0
  142.3280   80.7460  217.8120 C   0  0  0  0  0  0  0  0  0  0  0  0
  141.6054   80.7697  216.9830 H   0  0  0  0  0  0  0  0  0  0  0  0
  143.3016   81.1401  217.4853 H   0  0  0  0  0  0  0  0  0  0  0  0
  142.5170   79.2940  218.2720 C   0  0  0  0  0  0  0  0  0  0  0  0
  142.5881   78.6558  217.3789 H   0  0  0  0  0  0  0  0  0  0  0  0
  143.4302   79.2734  218.8849 H   0  0  0  0  0  0  0  0  0  0  0  0
  140.5500   79.2880  223.2220 C   0  0  0  0  0  0  0  0  0  0  0  0
  140.3960   80.6180  222.8430 C   0  0  0  0  0  0  0  0  0  0  0  0
  139.4911   81.0602  222.4008 H   0  0  0  0  0  0  0  0  0  0  0  0
  141.8250   81.4330  223.1750 S   0  0  0  0  0  0  0  0  0  0  0  0
  142.6580   80.1210  223.8090 C   0  0  0  0  0  0  0  0  0  0  0  0
  143.6894   80.1354  224.1911 H   0  0  0  0  0  0  0  0  0  0  0  0
  141.8210   79.0150  223.7680 C   0  0  0  0  0  0  0  0  0  0  0  0
  142.1207   78.0195  224.1274 H   0  0  0  0  0  0  0  0  0  0  0  0
  1  2  1  0
  2  3  2  0
  3  4  1  0
  3  5  1  0
  5  6  2  0
  6  7  1  0
  7  8  2  0
  8  9  1  0
  8 10  1  0
 10 11  1  0
 10 12  2  0
 12 13  1  0
 12 14  1  0
 14 15  1  0
 14 16  2  0
 16 17  1  0
 17 18  2  0
 17 19  1  0
 19 20  1  0
 20 21  1  0
 20 22  1  0
 20 23  1  0
 23 24  1  0
 23 25  1  0
 25 26  1  0
 25 27  1  0
 25 28  1  0
 28 29  1  0
 28 30  1  0
 28 31  1  0
 31 32  1  0
 31 33  1  0
 31 34  1  0
 34 35  1  0
 34 36  1  0
 34 37  1  0
 37 38  1  0
 37 39  1  0
  2 40  1  0
 40 41  2  0
 41 42  1  0
 41 43  1  0
 43 44  1  0
 44 45  1  0
 44 46  2  0
 46 47  1  0
 19  5  1  0
 37 23  1  0
 46 40  1  0
 16  7  1  0
M  END
>  <UniqueID>  (6) 
613

>  <SMILES>  (6) 
O=c1c2ccccc2nc(/C=C/c2ccsc2)n1CC1CCCCC1

>  <Energy>  (6) 
89.49114686974447

>  <Genealogy>  (6) 
O=c1c2ccccc2nc(/C=C/c2ccsc2)n1CC1CCCCC1 (cis-trans isomerization)
O=c1c2ccccc2nc(/C=C/c2ccsc2)n1CC1CCCCC1 (3D coordinates assigned)
O=c1c2ccccc2nc(/C=C/c2ccsc2)n1CC1CCCCC1 (nonaromatic ring conformer: 89.49114686974447 kcal/mol)

>  <smiles>  (6) 
O=c1c2ccccc2nc(/C=C/c2ccsc2)n1CC1CCCCC1

>  <score_type>  (6) 
oracle

>  <origin>  (6) 
autodockgpu

>  <m_score__min__energy>  (6) 
-6.8200000000000003

>  <m_primary>  (6) 
energy

>  <meeko>  (6) 
{"free_energy": -6.31, "intermolecular_energy": -7.8, "internal_energy": -1.7, "cluster_size": 2, "cluster_id": 3, "rank_in_cluster": 1}

>  <energy>  (6) 
-6.8

>  <cluster_rmsd>  (6) 
0.1

>  <rmsd>  (6) 
270.97

>  <cluster>  (6) 
1

$$$$
WQFRIXFTBLEVTI-ZHACJKMWNA-N
     RDKit          3D

 47 50  0  0  0  0  0  0  0  0999 V2000
  141.7124   72.2459  221.4459 H   0  0  0  0  0  0  0  0  0  0  0  0
  140.6900   72.5100  221.7540 C   0  0  0  0  0  0  0  0  0  0  0  0
  139.8570   71.5170  222.0950 C   0  0  0  0  0  0  0  0  0  0  0  0
  139.1031   71.1756  221.3703 H   0  0  0  0  0  0  0  0  0  0  0  0
  139.9280   70.8660  223.4300 C   0  0  0  0  0  0  0  0  0  0  0  0
  140.4920   71.5820  224.4400 N   0  0  0  0  0  0  0  0  0  0  0  0
  140.5520   71.1200  225.7070 C   0  0  0  0  0  0  0  0  0  0  0  0
  141.1560   71.8910  226.7060 C   0  0  0  0  0  0  0  0  0  0  0  0
  141.6042   72.8635  226.4545 H   0  0  0  0  0  0  0  0  0  0  0  0
  141.1900   71.4260  228.0230 C   0  0  0  0  0  0  0  0  0  0  0  0
  141.6692   72.0307  228.8070 H   0  0  0  0  0  0  0  0  0  0  0  0
  140.6160   70.1940  228.3450 C   0  0  0  0  0  0  0  0  0  0  0  0
  140.6423   69.8310  229.3830 H   0  0  0  0  0  0  0  0  0  0  0  0
  140.0080   69.4210  227.3510 C   0  0  0  0  0  0  0  0  0  0  0  0
  139.5541   68.4527  227.6088 H   0  0  0  0  0  0  0  0  0  0  0  0
  139.9760   69.8810  226.0190 C   0  0  0  0  0  0  0  0  0  0  0  0
  139.3870   69.1410  224.9800 C   0  0  0  0  0  0  0  0  0  0  0  0
  138.8020   68.0570  225.2600 O   0  0  0  0  0  0  0  0  0  0  0  0
  139.4300   69.5980  223.6790 N   0  0  0  0  0  0  0  0  0  0  0  0
  138.9200   68.7240  222.5880 C   0  0  0  0  0  0  0  0  0  0  0  0
  139.5184   68.9202  221.6861 H   0  0  0  0  0  0  0  0  0  0  0  0
  139.0085   67.6911  222.9558 H   0  0  0  0  0  0  0  0  0  0  0  0
  137.4170   68.9290  222.2250 C   0  0  0  0  0  0  0  0  0  0  0  0
  137.1747   68.0085  221.6736 H   0  0  0  0  0  0  0  0  0  0  0  0
  136.4390   68.9220  223.4250 C   0  0  0  0  0  0  0  0  0  0  0  0
  135.4564   68.5865  223.0617 H   0  0  0  0  0  0  0  0  0  0  0  0
  136.8811   68.2511  224.1763 H   0  0  0  0  0  0  0  0  0  0  0  0
  136.2500   70.2860  224.1250 C   0  0  0  0  0  0  0  0  0  0  0  0
  135.2202   70.3376  224.5083 H   0  0  0  0  0  0  0  0  0  0  0  0
  137.0045   70.3393  224.9237 H   0  0  0  0  0  0  0  0  0  0  0  0
  136.4860   71.4990  223.2120 C   0  0  0  0  0  0  0  0  0  0  0  0
  135.8293   72.3210  223.5332 H   0  0  0  0  0  0  0  0  0  0  0  0
  137.5442   71.7889  223.2906 H   0  0  0  0  0  0  0  0  0  0  0  0
  136.1880   71.1680  221.7520 C   0  0  0  0  0  0  0  0  0  0  0  0
  135.1558   70.7967  221.6704 H   0  0  0  0  0  0  0  0  0  0  0  0
  136.3168   72.0806  221.1515 H   0  0  0  0  0  0  0  0  0  0  0  0
  137.1510   70.0950  221.2260 C   0  0  0  0  0  0  0  0  0  0  0  0
  136.7241   69.6699  220.3057 H   0  0  0  0  0  0  0  0  0  0  0  0
  138.1172   70.5931  221.0577 H   0  0  0  0  0  0  0  0  0  0  0  0
  140.3140   73.9410  221.7680 C   0  0  0  0  0  0  0  0  0  0  0  0
  138.9980   74.3410  221.9760 C   0  0  0  0  0  0  0  0  0  0  0  0
  138.1396   73.6716  222.1340 H   0  0  0  0  0  0  0  0  0  0  0  0
  138.9420   76.0190  221.9450 S   0  0  0  0  0  0  0  0  0  0  0  0
  140.5810   76.2650  221.6740 C   0  0  0  0  0  0  0  0  0  0  0  0
  141.0782   77.2408  221.5706 H   0  0  0  0  0  0  0  0  0  0  0  0
  141.2000   75.0250  221.6030 C   0  0  0  0  0  0  0  0  0  0  0  0
  142.2797   74.8998  221.4340 H   0  0  0  0  0  0  0  0  0  0  0  0
  1  2  1  0
  2  3  2  0
  3  4  1  0
  3  5  1  0
  5  6  2  0
  6  7  1  0
  7  8  2  0
  8  9  1  0
  8 10  1  0
 10 11  1  0
 10 12  2  0
 12 13  1  0
 12 14  1  0
 14 15  1  0
 14 16  2  0
 16 17  1  0
 17 18  2  0
 17 19  1  0
 19 20  1  0
 20 21  1  0
 20 22  1  0
 20 23  1  0
 23 24  1  0
 23 25  1  0
 25 26  1  0
 25 27  1  0
 25 28  1  0
 28 29  1  0
 28 30  1  0
 28 31  1  0
 31 32  1  0
 31 33  1  0
 31 34  1  0
 34 35  1  0
 34 36  1  0
 34 37  1  0
 37 38  1  0
 37 39  1  0
  2 40  1  0
 40 41  2  0
 41 42  1  0
 41 43  1  0
 43 44  1  0
 44 45  1  0
 44 46  2  0
 46 47  1  0
 19  5  1  0
 37 23  1  0
 46 40  1  0
 16  7  1  0
M  END
>  <UniqueID>  (7) 
613

>  <SMILES>  (7) 
O=c1c2ccccc2nc(/C=C/c2ccsc2)n1CC1CCCCC1

>  <Energy>  (7) 
89.49114686974447

>  <Genealogy>  (7) 
O=c1c2ccccc2nc(/C=C/c2ccsc2)n1CC1CCCCC1 (cis-trans isomerization)
O=c1c2ccccc2nc(/C=C/c2ccsc2)n1CC1CCCCC1 (3D coordinates assigned)
O=c1c2ccccc2nc(/C=C/c2ccsc2)n1CC1CCCCC1 (nonaromatic ring conformer: 89.49114686974447 kcal/mol)

>  <smiles>  (7) 
O=c1c2ccccc2nc(/C=C/c2ccsc2)n1CC1CCCCC1

>  <score_type>  (7) 
oracle

>  <origin>  (7) 
autodockgpu

>  <m_score__min__energy>  (7) 
-6.8200000000000003

>  <m_primary>  (7) 
energy

>  <meeko>  (7) 
{"free_energy": -6.76, "intermolecular_energy": -8.26, "internal_energy": -1.76, "cluster_size": 16, "cluster_id": 1, "rank_in_cluster": 7}

>  <energy>  (7) 
-6.76

>  <cluster_rmsd>  (7) 
0.14

>  <rmsd>  (7) 
270.99

>  <cluster>  (7) 
1

$$$$
WQFRIXFTBLEVTI-ZHACJKMWNA-N
     RDKit          3D

 47 50  0  0  0  0  0  0  0  0999 V2000
  138.0488   72.6745  221.8748 H   0  0  0  0  0  0  0  0  0  0  0  0
  139.1240   72.8750  221.9920 C   0  0  0  0  0  0  0  0  0  0  0  0
  139.9440   71.8310  222.1800 C   0  0  0  0  0  0  0  0  0  0  0  0
  140.6084   71.5156  221.3620 H   0  0  0  0  0  0  0  0  0  0  0  0
  139.9760   71.0900  223.4680 C   0  0  0  0  0  0  0  0  0  0  0  0
  140.4960   71.7390  224.5450 N   0  0  0  0  0  0  0  0  0  0  0  0
  140.5170   71.1910  225.7780 C   0  0  0  0  0  0  0  0  0  0  0  0
  141.0770   71.8960  226.8490 C   0  0  0  0  0  0  0  0  0  0  0  0
  141.5226   72.8877  226.6819 H   0  0  0  0  0  0  0  0  0  0  0  0
  141.0700   71.3400  228.1310 C   0  0  0  0  0  0  0  0  0  0  0  0
  141.5146   71.8925  228.9719 H   0  0  0  0  0  0  0  0  0  0  0  0
  140.4990   70.0830  228.3460 C   0  0  0  0  0  0  0  0  0  0  0  0
  140.4926   69.6489  229.3567 H   0  0  0  0  0  0  0  0  0  0  0  0
  139.9360   69.3760  227.2800 C   0  0  0  0  0  0  0  0  0  0  0  0
  139.4851   68.3878  227.4537 H   0  0  0  0  0  0  0  0  0  0  0  0
  139.9450   69.9270  225.9830 C   0  0  0  0  0  0  0  0  0  0  0  0
  139.4020   69.2560  224.8750 C   0  0  0  0  0  0  0  0  0  0  0  0
  138.8200   68.1500  225.0580 O   0  0  0  0  0  0  0  0  0  0  0  0
  139.4850   69.8030  223.6100 N   0  0  0  0  0  0  0  0  0  0  0  0
  139.0240   69.0020  222.4450 C   0  0  0  0  0  0  0  0  0  0  0  0
  139.5808   69.3386  221.5581 H   0  0  0  0  0  0  0  0  0  0  0  0
  139.2089   67.9491  222.7044 H   0  0  0  0  0  0  0  0  0  0  0  0
  137.4990   69.1110  222.1290 C   0  0  0  0  0  0  0  0  0  0  0  0
  137.3222   68.2372  221.4847 H   0  0  0  0  0  0  0  0  0  0  0  0
  136.5560   68.8900  223.3380 C   0  0  0  0  0  0  0  0  0  0  0  0
  135.5969   68.5093  222.9571 H   0  0  0  0  0  0  0  0  0  0  0  0
  137.0731   68.1847  224.0052 H   0  0  0  0  0  0  0  0  0  0  0  0
  136.2690   70.1500  224.1830 C   0  0  0  0  0  0  0  0  0  0  0  0
  135.2492   70.0694  224.5874 H   0  0  0  0  0  0  0  0  0  0  0  0
  137.0374   70.1853  224.9694 H   0  0  0  0  0  0  0  0  0  0  0  0
  136.3750   71.4690  223.4020 C   0  0  0  0  0  0  0  0  0  0  0  0
  135.6575   72.1904  223.8202 H   0  0  0  0  0  0  0  0  0  0  0  0
  137.4056   71.8423  223.4944 H   0  0  0  0  0  0  0  0  0  0  0  0
  136.0700   71.2690  221.9200 C   0  0  0  0  0  0  0  0  0  0  0  0
  135.0721   70.8183  221.8154 H   0  0  0  0  0  0  0  0  0  0  0  0
  136.1041   72.2477  221.4191 H   0  0  0  0  0  0  0  0  0  0  0  0
  137.1090   70.3470  221.2660 C   0  0  0  0  0  0  0  0  0  0  0  0
  136.6975   69.9856  220.3120 H   0  0  0  0  0  0  0  0  0  0  0  0
  138.0241   70.9436  221.1369 H   0  0  0  0  0  0  0  0  0  0  0  0
  139.5810   74.2810  221.9330 C   0  0  0  0  0  0  0  0  0  0  0  0
  138.7380   75.3310  222.2850 C   0  0  0  0  0  0  0  0  0  0  0  0
  137.6937   75.2344  222.6169 H   0  0  0  0  0  0  0  0  0  0  0  0
  139.5860   76.7700  222.1170 S   0  0  0  0  0  0  0  0  0  0  0  0
  141.0310   76.0890  221.6020 C   0  0  0  0  0  0  0  0  0  0  0  0
  141.9482   76.6395  221.3459 H   0  0  0  0  0  0  0  0  0  0  0  0
  140.8690   74.7120  221.5550 C   0  0  0  0  0  0  0  0  0  0  0  0
  141.6698   74.0217  221.2515 H   0  0  0  0  0  0  0  0  0  0  0  0
  1  2  1  0
  2  3  2  0
  3  4  1  0
  3  5  1  0
  5  6  2  0
  6  7  1  0
  7  8  2  0
  8  9  1  0
  8 10  1  0
 10 11  1  0
 10 12  2  0
 12 13  1  0
 12 14  1  0
 14 15  1  0
 14 16  2  0
 16 17  1  0
 17 18  2  0
 17 19  1  0
 19 20  1  0
 20 21  1  0
 20 22  1  0
 20 23  1  0
 23 24  1  0
 23 25  1  0
 25 26  1  0
 25 27  1  0
 25 28  1  0
 28 29  1  0
 28 30  1  0
 28 31  1  0
 31 32  1  0
 31 33  1  0
 31 34  1  0
 34 35  1  0
 34 36  1  0
 34 37  1  0
 37 38  1  0
 37 39  1  0
  2 40  1  0
 40 41  2  0
 41 42  1  0
 41 43  1  0
 43 44  1  0
 44 45  1  0
 44 46  2  0
 46 47  1  0
 19  5  1  0
 37 23  1  0
 46 40  1  0
 16  7  1  0
M  END
>  <UniqueID>  (8) 
613

>  <SMILES>  (8) 
O=c1c2ccccc2nc(/C=C/c2ccsc2)n1CC1CCCCC1

>  <Energy>  (8) 
89.49114686974447

>  <Genealogy>  (8) 
O=c1c2ccccc2nc(/C=C/c2ccsc2)n1CC1CCCCC1 (cis-trans isomerization)
O=c1c2ccccc2nc(/C=C/c2ccsc2)n1CC1CCCCC1 (3D coordinates assigned)
O=c1c2ccccc2nc(/C=C/c2ccsc2)n1CC1CCCCC1 (nonaromatic ring conformer: 89.49114686974447 kcal/mol)

>  <smiles>  (8) 
O=c1c2ccccc2nc(/C=C/c2ccsc2)n1CC1CCCCC1

>  <score_type>  (8) 
oracle

>  <origin>  (8) 
autodockgpu

>  <m_score__min__energy>  (8) 
-6.8200000000000003

>  <m_primary>  (8) 
energy

>  <meeko>  (8) 
{"free_energy": -6.81, "intermolecular_energy": -8.3, "internal_energy": -1.71, "cluster_size": 16, "cluster_id": 1, "rank_in_cluster": 4}

>  <energy>  (8) 
-6.76

>  <cluster_rmsd>  (8) 
0.62

>  <rmsd>  (8) 
271.01

>  <cluster>  (8) 
1

$$$$
WQFRIXFTBLEVTI-ZHACJKMWNA-N
     RDKit          3D

 47 50  0  0  0  0  0  0  0  0999 V2000
  143.3141   79.5917  218.8188 H   0  0  0  0  0  0  0  0  0  0  0  0
  142.3330   80.0760  218.9320 C   0  0  0  0  0  0  0  0  0  0  0  0
  141.3440   79.3720  219.4990 C   0  0  0  0  0  0  0  0  0  0  0  0
  140.3810   79.8645  219.6993 H   0  0  0  0  0  0  0  0  0  0  0  0
  141.5170   77.9410  219.8640 C   0  0  0  0  0  0  0  0  0  0  0  0
  142.4490   77.2330  219.1710 N   0  0  0  0  0  0  0  0  0  0  0  0
  142.7390   75.9460  219.4590 C   0  0  0  0  0  0  0  0  0  0  0  0
  143.6960   75.2580  218.7050 C   0  0  0  0  0  0  0  0  0  0  0  0
  144.1941   75.7575  217.8609 H   0  0  0  0  0  0  0  0  0  0  0  0
  144.0190   73.9370  219.0240 C   0  0  0  0  0  0  0  0  0  0  0  0
  144.7687   73.3957  218.4282 H   0  0  0  0  0  0  0  0  0  0  0  0
  143.3910   73.3020  220.0990 C   0  0  0  0  0  0  0  0  0  0  0  0
  143.6482   72.2622  220.3492 H   0  0  0  0  0  0  0  0  0  0  0  0
  142.4360   73.9870  220.8570 C   0  0  0  0  0  0  0  0  0  0  0  0
  141.9454   73.4860  221.7045 H   0  0  0  0  0  0  0  0  0  0  0  0
  142.1010   75.3180  220.5370 C   0  0  0  0  0  0  0  0  0  0  0  0
  141.1430   76.0480  221.2600 C   0  0  0  0  0  0  0  0  0  0  0  0
  140.6120   75.5180  222.2770 O   0  0  0  0  0  0  0  0  0  0  0  0
  140.7990   77.3290  220.8780 N   0  0  0  0  0  0  0  0  0  0  0  0
  139.6830   78.0180  221.5800 C   0  0  0  0  0  0  0  0  0  0  0  0
  139.2548   78.7618  220.8919 H   0  0  0  0  0  0  0  0  0  0  0  0
  138.9716   77.2313  221.8716 H   0  0  0  0  0  0  0  0  0  0  0  0
  140.0840   78.7520  222.8970 C   0  0  0  0  0  0  0  0  0  0  0  0
  139.4489   78.2622  223.6498 H   0  0  0  0  0  0  0  0  0  0  0  0
  141.5290   78.4880  223.3880 C   0  0  0  0  0  0  0  0  0  0  0  0
  141.5466   78.6172  224.4802 H   0  0  0  0  0  0  0  0  0  0  0  0
  141.7810   77.4678  223.0630 H   0  0  0  0  0  0  0  0  0  0  0  0
  142.6070   79.4110  222.7800 C   0  0  0  0  0  0  0  0  0  0  0  0
  143.3947   79.5639  223.5324 H   0  0  0  0  0  0  0  0  0  0  0  0
  142.9763   78.9111  221.8724 H   0  0  0  0  0  0  0  0  0  0  0  0
  142.0830   80.7880  222.3440 C   0  0  0  0  0  0  0  0  0  0  0  0
  142.8824   81.5322  222.4750 H   0  0  0  0  0  0  0  0  0  0  0  0
  141.7772   80.7220  221.2894 H   0  0  0  0  0  0  0  0  0  0  0  0
  140.8710   81.2130  223.1670 C   0  0  0  0  0  0  0  0  0  0  0  0
  141.1390   81.2036  224.2338 H   0  0  0  0  0  0  0  0  0  0  0  0
  140.5715   82.2243  222.8547 H   0  0  0  0  0  0  0  0  0  0  0  0
  139.6900   80.2590  222.9370 C   0  0  0  0  0  0  0  0  0  0  0  0
  138.9654   80.4045  223.7517 H   0  0  0  0  0  0  0  0  0  0  0  0
  139.2746   80.5032  221.9481 H   0  0  0  0  0  0  0  0  0  0  0  0
  142.1830   81.4670  218.4490 C   0  0  0  0  0  0  0  0  0  0  0  0
  141.2400   82.3260  219.0050 C   0  0  0  0  0  0  0  0  0  0  0  0
  140.5366   82.0742  219.8124 H   0  0  0  0  0  0  0  0  0  0  0  0
  141.3590   83.8130  218.2330 S   0  0  0  0  0  0  0  0  0  0  0  0
  142.6070   83.3950  217.1910 C   0  0  0  0  0  0  0  0  0  0  0  0
  143.0718   84.0551  216.4438 H   0  0  0  0  0  0  0  0  0  0  0  0
  142.9510   82.0730  217.4350 C   0  0  0  0  0  0  0  0  0  0  0  0
  143.7481   81.5477  216.8884 H   0  0  0  0  0  0  0  0  0  0  0  0
  1  2  1  0
  2  3  2  0
  3  4  1  0
  3  5  1  0
  5  6  2  0
  6  7  1  0
  7  8  2  0
  8  9  1  0
  8 10  1  0
 10 11  1  0
 10 12  2  0
 12 13  1  0
 12 14  1  0
 14 15  1  0
 14 16  2  0
 16 17  1  0
 17 18  2  0
 17 19  1  0
 19 20  1  0
 20 21  1  0
 20 22  1  0
 20 23  1  0
 23 24  1  0
 23 25  1  0
 25 26  1  0
 25 27  1  0
 25 28  1  0
 28 29  1  0
 28 30  1  0
 28 31  1  0
 31 32  1  0
 31 33  1  0
 31 34  1  0
 34 35  1  0
 34 36  1  0
 34 37  1  0
 37 38  1  0
 37 39  1  0
  2 40  1  0
 40 41  2  0
 41 42  1  0
 41 43  1  0
 43 44  1  0
 44 45  1  0
 44 46  2  0
 46 47  1  0
 19  5  1  0
 37 23  1  0
 46 40  1  0
 16  7  1  0
M  END
>  <UniqueID>  (9) 
613

>  <SMILES>  (9) 
O=c1c2ccccc2nc(/C=C/c2ccsc2)n1CC1CCCCC1

>  <Energy>  (9) 
89.49114686974447

>  <Genealogy>  (9) 
O=c1c2ccccc2nc(/C=C/c2ccsc2)n1CC1CCCCC1 (cis-trans isomerization)
O=c1c2ccccc2nc(/C=C/c2ccsc2)n1CC1CCCCC1 (3D coordinates assigned)
O=c1c2ccccc2nc(/C=C/c2ccsc2)n1CC1CCCCC1 (nonaromatic ring conformer: 89.49114686974447 kcal/mol)

>  <smiles>  (9) 
O=c1c2ccccc2nc(/C=C/c2ccsc2)n1CC1CCCCC1

>  <score_type>  (9) 
oracle

>  <origin>  (9) 
autodockgpu

>  <m_score__min__energy>  (9) 
-6.8200000000000003

>  <m_primary>  (9) 
energy

>  <meeko>  (9) 
{"free_energy": -6.28, "intermolecular_energy": -7.77, "internal_energy": -1.61, "cluster_size": 2, "cluster_id": 2, "rank_in_cluster": 2}

>  <energy>  (9) 
-6.74

>  <cluster_rmsd>  (9) 
0.33

>  <rmsd>  (9) 
270.99

>  <cluster>  (9) 
1

$$$$
WQFRIXFTBLEVTI-ZHACJKMWNA-N
     RDKit          3D

 47 50  0  0  0  0  0  0  0  0999 V2000
  138.0234   72.6962  221.9422 H   0  0  0  0  0  0  0  0  0  0  0  0
  139.1030   72.8890  222.0280 C   0  0  0  0  0  0  0  0  0  0  0  0
  139.9200   71.8400  222.1990 C   0  0  0  0  0  0  0  0  0  0  0  0
  140.5729   71.5269  221.3710 H   0  0  0  0  0  0  0  0  0  0  0  0
  139.9640   71.0900  223.4820 C   0  0  0  0  0  0  0  0  0  0  0  0
  140.4890   71.7340  224.5600 N   0  0  0  0  0  0  0  0  0  0  0  0
  140.5200   71.1780  225.7890 C   0  0  0  0  0  0  0  0  0  0  0  0
  141.0840   71.8780  226.8610 C   0  0  0  0  0  0  0  0  0  0  0  0
  141.5245   72.8726  226.6973 H   0  0  0  0  0  0  0  0  0  0  0  0
  141.0880   71.3140  228.1400 C   0  0  0  0  0  0  0  0  0  0  0  0
  141.5354   71.8632  228.9816 H   0  0  0  0  0  0  0  0  0  0  0  0
  140.5240   70.0530  228.3500 C   0  0  0  0  0  0  0  0  0  0  0  0
  140.5263   69.6118  229.3576 H   0  0  0  0  0  0  0  0  0  0  0  0
  139.9570   69.3510  227.2830 C   0  0  0  0  0  0  0  0  0  0  0  0
  139.5115   68.3597  227.4528 H   0  0  0  0  0  0  0  0  0  0  0  0
  139.9550   69.9110  225.9900 C   0  0  0  0  0  0  0  0  0  0  0  0
  139.4070   69.2450  224.8810 C   0  0  0  0  0  0  0  0  0  0  0  0
  138.8310   68.1350  225.0610 O   0  0  0  0  0  0  0  0  0  0  0  0
  139.4790   69.8000  223.6190 N   0  0  0  0  0  0  0  0  0  0  0  0
  139.0140   69.0050  222.4520 C   0  0  0  0  0  0  0  0  0  0  0  0
  139.5781   69.3359  221.5675 H   0  0  0  0  0  0  0  0  0  0  0  0
  139.1862   67.9500  222.7115 H   0  0  0  0  0  0  0  0  0  0  0  0
  137.4920   69.1310  222.1300 C   0  0  0  0  0  0  0  0  0  0  0  0
  137.3134   68.2706  221.4683 H   0  0  0  0  0  0  0  0  0  0  0  0
  136.5410   68.8950  223.3290 C   0  0  0  0  0  0  0  0  0  0  0  0
  135.5815   68.5283  222.9354 H   0  0  0  0  0  0  0  0  0  0  0  0
  137.0503   68.1744  223.9857 H   0  0  0  0  0  0  0  0  0  0  0  0
  136.2570   70.1400  224.1970 C   0  0  0  0  0  0  0  0  0  0  0  0
  135.2338   70.0589  224.5926 H   0  0  0  0  0  0  0  0  0  0  0  0
  137.0198   70.1542  224.9894 H   0  0  0  0  0  0  0  0  0  0  0  0
  136.3780   71.4730  223.4430 C   0  0  0  0  0  0  0  0  0  0  0  0
  135.6639   72.1918  223.8711 H   0  0  0  0  0  0  0  0  0  0  0  0
  137.4108   71.8365  223.5486 H   0  0  0  0  0  0  0  0  0  0  0  0
  136.0800   71.3040  221.9560 C   0  0  0  0  0  0  0  0  0  0  0  0
  135.0792   70.8632  221.8374 H   0  0  0  0  0  0  0  0  0  0  0  0
  136.1250   72.2921  221.4747 H   0  0  0  0  0  0  0  0  0  0  0  0
  137.1150   70.3870  221.2890 C   0  0  0  0  0  0  0  0  0  0  0  0
  136.7052   70.0472  220.3264 H   0  0  0  0  0  0  0  0  0  0  0  0
  138.0351   70.9791  221.1756 H   0  0  0  0  0  0  0  0  0  0  0  0
  139.5690   74.2910  221.9480 C   0  0  0  0  0  0  0  0  0  0  0  0
  138.7330   75.3510  222.2830 C   0  0  0  0  0  0  0  0  0  0  0  0
  137.6880   75.2661  222.6158 H   0  0  0  0  0  0  0  0  0  0  0  0
  139.5900   76.7820  222.0930 S   0  0  0  0  0  0  0  0  0  0  0  0
  141.0310   76.0840  221.5890 C   0  0  0  0  0  0  0  0  0  0  0  0
  141.9518   76.6247  221.3249 H   0  0  0  0  0  0  0  0  0  0  0  0
  140.8600   74.7070  221.5630 C   0  0  0  0  0  0  0  0  0  0  0  0
  141.6560   74.0067  221.2699 H   0  0  0  0  0  0  0  0  0  0  0  0
  1  2  1  0
  2  3  2  0
  3  4  1  0
  3  5  1  0
  5  6  2  0
  6  7  1  0
  7  8  2  0
  8  9  1  0
  8 10  1  0
 10 11  1  0
 10 12  2  0
 12 13  1  0
 12 14  1  0
 14 15  1  0
 14 16  2  0
 16 17  1  0
 17 18  2  0
 17 19  1  0
 19 20  1  0
 20 21  1  0
 20 22  1  0
 20 23  1  0
 23 24  1  0
 23 25  1  0
 25 26  1  0
 25 27  1  0
 25 28  1  0
 28 29  1  0
 28 30  1  0
 28 31  1  0
 31 32  1  0
 31 33  1  0
 31 34  1  0
 34 35  1  0
 34 36  1  0
 34 37  1  0
 37 38  1  0
 37 39  1  0
  2 40  1  0
 40 41  2  0
 41 42  1  0
 41 43  1  0
 43 44  1  0
 44 45  1  0
 44 46  2  0
 46 47  1  0
 19  5  1  0
 37 23  1  0
 46 40  1  0
 16  7  1  0
M  END
>  <UniqueID>  (10) 
613

>  <SMILES>  (10) 
O=c1c2ccccc2nc(/C=C/c2ccsc2)n1CC1CCCCC1

>  <Energy>  (10) 
89.49114686974447

>  <Genealogy>  (10) 
O=c1c2ccccc2nc(/C=C/c2ccsc2)n1CC1CCCCC1 (cis-trans isomerization)
O=c1c2ccccc2nc(/C=C/c2ccsc2)n1CC1CCCCC1 (3D coordinates assigned)
O=c1c2ccccc2nc(/C=C/c2ccsc2)n1CC1CCCCC1 (nonaromatic ring conformer: 89.49114686974447 kcal/mol)

>  <smiles>  (10) 
O=c1c2ccccc2nc(/C=C/c2ccsc2)n1CC1CCCCC1

>  <score_type>  (10) 
oracle

>  <origin>  (10) 
autodockgpu

>  <m_score__min__energy>  (10) 
-6.8200000000000003

>  <m_primary>  (10) 
energy

>  <meeko>  (10) 
{"free_energy": -6.81, "intermolecular_energy": -8.3, "internal_energy": -1.7, "cluster_size": 16, "cluster_id": 1, "rank_in_cluster": 3}

>  <energy>  (10) 
-6.73

>  <cluster_rmsd>  (10) 
0.62

>  <rmsd>  (10) 
271.0

>  <cluster>  (10) 
1

$$$$
WQFRIXFTBLEVTI-ZHACJKMWNA-N
     RDKit          3D

 47 50  0  0  0  0  0  0  0  0999 V2000
  138.0071   72.6873  221.8946 H   0  0  0  0  0  0  0  0  0  0  0  0
  139.0870   72.8690  221.9980 C   0  0  0  0  0  0  0  0  0  0  0  0
  139.8920   71.8110  222.1730 C   0  0  0  0  0  0  0  0  0  0  0  0
  140.5271   71.4754  221.3399 H   0  0  0  0  0  0  0  0  0  0  0  0
  139.9460   71.0810  223.4670 C   0  0  0  0  0  0  0  0  0  0  0  0
  140.4790   71.7410  224.5300 N   0  0  0  0  0  0  0  0  0  0  0  0
  140.5200   71.2040  225.7680 C   0  0  0  0  0  0  0  0  0  0  0  0
  141.0930   71.9200  226.8250 C   0  0  0  0  0  0  0  0  0  0  0  0
  141.5326   72.9117  226.6428 H   0  0  0  0  0  0  0  0  0  0  0  0
  141.1070   71.3760  228.1110 C   0  0  0  0  0  0  0  0  0  0  0  0
  141.5613   71.9382  228.9402 H   0  0  0  0  0  0  0  0  0  0  0  0
  140.5450   70.1190  228.3460 C   0  0  0  0  0  0  0  0  0  0  0  0
  140.5562   69.6937  229.3604 H   0  0  0  0  0  0  0  0  0  0  0  0
  139.9680   69.4000  227.2940 C   0  0  0  0  0  0  0  0  0  0  0  0
  139.5231   68.4119  227.4830 H   0  0  0  0  0  0  0  0  0  0  0  0
  139.9560   69.9400  225.9920 C   0  0  0  0  0  0  0  0  0  0  0  0
  139.3990   69.2570  224.8980 C   0  0  0  0  0  0  0  0  0  0  0  0
  138.8250   68.1500  225.1000 O   0  0  0  0  0  0  0  0  0  0  0  0
  139.4610   69.7940  223.6280 N   0  0  0  0  0  0  0  0  0  0  0  0
  138.9860   68.9810  222.4760 C   0  0  0  0  0  0  0  0  0  0  0  0
  139.5426   69.2987  221.5820 H   0  0  0  0  0  0  0  0  0  0  0  0
  139.1605   67.9300  222.7498 H   0  0  0  0  0  0  0  0  0  0  0  0
  137.4620   69.1020  222.1650 C   0  0  0  0  0  0  0  0  0  0  0  0
  137.2744   68.2225  221.5315 H   0  0  0  0  0  0  0  0  0  0  0  0
  136.5210   68.9050  223.3800 C   0  0  0  0  0  0  0  0  0  0  0  0
  135.5565   68.5305  223.0066 H   0  0  0  0  0  0  0  0  0  0  0  0
  137.0336   68.2020  224.0531 H   0  0  0  0  0  0  0  0  0  0  0  0
  136.2500   70.1770  224.2130 C   0  0  0  0  0  0  0  0  0  0  0  0
  135.2306   70.1118  224.6212 H   0  0  0  0  0  0  0  0  0  0  0  0
  137.0206   70.2124  224.9972 H   0  0  0  0  0  0  0  0  0  0  0  0
  136.3680   71.4860  223.4170 C   0  0  0  0  0  0  0  0  0  0  0  0
  135.6604   72.2201  223.8298 H   0  0  0  0  0  0  0  0  0  0  0  0
  137.4031   71.8486  223.5015 H   0  0  0  0  0  0  0  0  0  0  0  0
  136.0550   71.2730  221.9380 C   0  0  0  0  0  0  0  0  0  0  0  0
  135.0518   70.8320  221.8422 H   0  0  0  0  0  0  0  0  0  0  0  0
  136.0979   72.2458  221.4264 H   0  0  0  0  0  0  0  0  0  0  0  0
  137.0810   70.3330  221.2900 C   0  0  0  0  0  0  0  0  0  0  0  0
  136.6614   69.9655  220.3419 H   0  0  0  0  0  0  0  0  0  0  0  0
  138.0018   70.9184  221.1505 H   0  0  0  0  0  0  0  0  0  0  0  0
  139.5680   74.2670  221.9360 C   0  0  0  0  0  0  0  0  0  0  0  0
  140.8610   74.5690  221.5190 C   0  0  0  0  0  0  0  0  0  0  0  0
  141.6267   73.8395  221.2167 H   0  0  0  0  0  0  0  0  0  0  0  0
  141.0530   76.2370  221.5560 S   0  0  0  0  0  0  0  0  0  0  0  0
  139.5050   76.6020  222.0920 C   0  0  0  0  0  0  0  0  0  0  0  0
  139.1102   77.6106  222.2841 H   0  0  0  0  0  0  0  0  0  0  0  0
  138.8090   75.4120  222.2510 C   0  0  0  0  0  0  0  0  0  0  0  0
  137.7638   75.3667  222.5908 H   0  0  0  0  0  0  0  0  0  0  0  0
  1  2  1  0
  2  3  2  0
  3  4  1  0
  3  5  1  0
  5  6  2  0
  6  7  1  0
  7  8  2  0
  8  9  1  0
  8 10  1  0
 10 11  1  0
 10 12  2  0
 12 13  1  0
 12 14  1  0
 14 15  1  0
 14 16  2  0
 16 17  1  0
 17 18  2  0
 17 19  1  0
 19 20  1  0
 20 21  1  0
 20 22  1  0
 20 23  1  0
 23 24  1  0
 23 25  1  0
 25 26  1  0
 25 27  1  0
 25 28  1  0
 28 29  1  0
 28 30  1  0
 28 31  1  0
 31 32  1  0
 31 33  1  0
 31 34  1  0
 34 35  1  0
 34 36  1  0
 34 37  1  0
 37 38  1  0
 37 39  1  0
  2 40  1  0
 40 41  2  0
 41 42  1  0
 41 43  1  0
 43 44  1  0
 44 45  1  0
 44 46  2  0
 46 47  1  0
 19  5  1  0
 37 23  1  0
 46 40  1  0
 16  7  1  0
M  END
>  <UniqueID>  (11) 
613

>  <SMILES>  (11) 
O=c1c2ccccc2nc(/C=C/c2ccsc2)n1CC1CCCCC1

>  <Energy>  (11) 
89.49114686974447

>  <Genealogy>  (11) 
O=c1c2ccccc2nc(/C=C/c2ccsc2)n1CC1CCCCC1 (cis-trans isomerization)
O=c1c2ccccc2nc(/C=C/c2ccsc2)n1CC1CCCCC1 (3D coordinates assigned)
O=c1c2ccccc2nc(/C=C/c2ccsc2)n1CC1CCCCC1 (nonaromatic ring conformer: 89.49114686974447 kcal/mol)

>  <smiles>  (11) 
O=c1c2ccccc2nc(/C=C/c2ccsc2)n1CC1CCCCC1

>  <score_type>  (11) 
oracle

>  <origin>  (11) 
autodockgpu

>  <m_score__min__energy>  (11) 
-6.8200000000000003

>  <m_primary>  (11) 
energy

>  <meeko>  (11) 
{"free_energy": -6.76, "intermolecular_energy": -8.25, "internal_energy": -1.71, "cluster_size": 16, "cluster_id": 1, "rank_in_cluster": 8}

>  <energy>  (11) 
-6.7

>  <cluster_rmsd>  (11) 
0.33

>  <rmsd>  (11) 
270.99

>  <cluster>  (11) 
1

$$$$
WQFRIXFTBLEVTI-ZHACJKMWNA-N
     RDKit          3D

 47 50  0  0  0  0  0  0  0  0999 V2000
  141.5579   72.1329  221.4405 H   0  0  0  0  0  0  0  0  0  0  0  0
  140.6050   72.5800  221.7600 C   0  0  0  0  0  0  0  0  0  0  0  0
  139.6430   71.7620  222.2080 C   0  0  0  0  0  0  0  0  0  0  0  0
  138.7318   71.6250  221.6072 H   0  0  0  0  0  0  0  0  0  0  0  0
  139.7780   71.0350  223.4980 C   0  0  0  0  0  0  0  0  0  0  0  0
  140.3340   71.7140  224.5380 N   0  0  0  0  0  0  0  0  0  0  0  0
  140.4470   71.1800  225.7720 C   0  0  0  0  0  0  0  0  0  0  0  0
  141.0400   71.9160  226.8030 C   0  0  0  0  0  0  0  0  0  0  0  0
  141.4366   72.9222  226.6022 H   0  0  0  0  0  0  0  0  0  0  0  0
  141.1290   71.3740  228.0880 C   0  0  0  0  0  0  0  0  0  0  0  0
  141.5999   71.9519  228.8969 H   0  0  0  0  0  0  0  0  0  0  0  0
  140.6200   70.0980  228.3460 C   0  0  0  0  0  0  0  0  0  0  0  0
  140.6885   69.6739  229.3586 H   0  0  0  0  0  0  0  0  0  0  0  0
  140.0240   69.3600  227.3190 C   0  0  0  0  0  0  0  0  0  0  0  0
  139.6222   68.3571  227.5257 H   0  0  0  0  0  0  0  0  0  0  0  0
  139.9370   69.8980  226.0200 C   0  0  0  0  0  0  0  0  0  0  0  0
  139.3570   69.1950  224.9500 C   0  0  0  0  0  0  0  0  0  0  0  0
  138.8290   68.0700  225.1760 O   0  0  0  0  0  0  0  0  0  0  0  0
  139.3450   69.7320  223.6790 N   0  0  0  0  0  0  0  0  0  0  0  0
  138.8490   68.9030  222.5490 C   0  0  0  0  0  0  0  0  0  0  0  0
  139.4144   69.1821  221.6476 H   0  0  0  0  0  0  0  0  0  0  0  0
  138.9949   67.8552  222.8504 H   0  0  0  0  0  0  0  0  0  0  0  0
  137.3280   69.0570  222.2330 C   0  0  0  0  0  0  0  0  0  0  0  0
  137.1046   68.1421  221.6646 H   0  0  0  0  0  0  0  0  0  0  0  0
  136.3870   68.9820  223.4600 C   0  0  0  0  0  0  0  0  0  0  0  0
  135.4078   68.6174  223.1163 H   0  0  0  0  0  0  0  0  0  0  0  0
  136.8772   68.3107  224.1805 H   0  0  0  0  0  0  0  0  0  0  0  0
  136.1660   70.3190  224.2010 C   0  0  0  0  0  0  0  0  0  0  0  0
  135.1468   70.3203  224.6147 H   0  0  0  0  0  0  0  0  0  0  0  0
  136.9406   70.3820  224.9794 H   0  0  0  0  0  0  0  0  0  0  0  0
  136.3280   71.5630  223.3130 C   0  0  0  0  0  0  0  0  0  0  0  0
  135.6501   72.3503  223.6743 H   0  0  0  0  0  0  0  0  0  0  0  0
  137.3763   71.8915  223.3687 H   0  0  0  0  0  0  0  0  0  0  0  0
  136.0000   71.2580  221.8540 C   0  0  0  0  0  0  0  0  0  0  0  0
  134.9810   70.8483  221.7918 H   0  0  0  0  0  0  0  0  0  0  0  0
  136.0750   72.1898  221.2742 H   0  0  0  0  0  0  0  0  0  0  0  0
  136.9890   70.2370  221.2730 C   0  0  0  0  0  0  0  0  0  0  0  0
  136.5529   69.8192  220.3536 H   0  0  0  0  0  0  0  0  0  0  0  0
  137.9301   70.7769  221.0917 H   0  0  0  0  0  0  0  0  0  0  0  0
  140.4600   74.0500  221.6700 C   0  0  0  0  0  0  0  0  0  0  0  0
  139.2680   74.6810  222.0140 C   0  0  0  0  0  0  0  0  0  0  0  0
  138.3521   74.1808  222.3617 H   0  0  0  0  0  0  0  0  0  0  0  0
  139.4660   76.3360  221.8080 S   0  0  0  0  0  0  0  0  0  0  0  0
  141.0610   76.2800  221.2870 C   0  0  0  0  0  0  0  0  0  0  0  0
  141.6793   77.1464  221.0093 H   0  0  0  0  0  0  0  0  0  0  0  0
  141.4650   74.9530  221.2670 C   0  0  0  0  0  0  0  0  0  0  0  0
  142.4740   74.6354  220.9653 H   0  0  0  0  0  0  0  0  0  0  0  0
  1  2  1  0
  2  3  2  0
  3  4  1  0
  3  5  1  0
  5  6  2  0
  6  7  1  0
  7  8  2  0
  8  9  1  0
  8 10  1  0
 10 11  1  0
 10 12  2  0
 12 13  1  0
 12 14  1  0
 14 15  1  0
 14 16  2  0
 16 17  1  0
 17 18  2  0
 17 19  1  0
 19 20  1  0
 20 21  1  0
 20 22  1  0
 20 23  1  0
 23 24  1  0
 23 25  1  0
 25 26  1  0
 25 27  1  0
 25 28  1  0
 28 29  1  0
 28 30  1  0
 28 31  1  0
 31 32  1  0
 31 33  1  0
 31 34  1  0
 34 35  1  0
 34 36  1  0
 34 37  1  0
 37 38  1  0
 37 39  1  0
  2 40  1  0
 40 41  2  0
 41 42  1  0
 41 43  1  0
 43 44  1  0
 44 45  1  0
 44 46  2  0
 46 47  1  0
 19  5  1  0
 37 23  1  0
 46 40  1  0
 16  7  1  0
M  END
>  <UniqueID>  (12) 
613

>  <SMILES>  (12) 
O=c1c2ccccc2nc(/C=C/c2ccsc2)n1CC1CCCCC1

>  <Energy>  (12) 
89.49114686974447

>  <Genealogy>  (12) 
O=c1c2ccccc2nc(/C=C/c2ccsc2)n1CC1CCCCC1 (cis-trans isomerization)
O=c1c2ccccc2nc(/C=C/c2ccsc2)n1CC1CCCCC1 (3D coordinates assigned)
O=c1c2ccccc2nc(/C=C/c2ccsc2)n1CC1CCCCC1 (nonaromatic ring conformer: 89.49114686974447 kcal/mol)

>  <smiles>  (12) 
O=c1c2ccccc2nc(/C=C/c2ccsc2)n1CC1CCCCC1

>  <score_type>  (12) 
oracle

>  <origin>  (12) 
autodockgpu

>  <m_score__min__energy>  (12) 
-6.8200000000000003

>  <m_primary>  (12) 
energy

>  <meeko>  (12) 
{"free_energy": -6.82, "intermolecular_energy": -8.31, "internal_energy": -1.66, "cluster_size": 16, "cluster_id": 1, "rank_in_cluster": 2}

>  <energy>  (12) 
-6.7

>  <cluster_rmsd>  (12) 
0.38

>  <rmsd>  (12) 
270.95

>  <cluster>  (12) 
1

$$$$
WQFRIXFTBLEVTI-ZHACJKMWNA-N
     RDKit          3D

 47 50  0  0  0  0  0  0  0  0999 V2000
  141.5206   72.1841  221.3820 H   0  0  0  0  0  0  0  0  0  0  0  0
  140.5360   72.5150  221.7440 C   0  0  0  0  0  0  0  0  0  0  0  0
  139.6640   71.5800  222.1450 C   0  0  0  0  0  0  0  0  0  0  0  0
  138.8319   71.3023  221.4814 H   0  0  0  0  0  0  0  0  0  0  0  0
  139.7940   70.9090  223.4650 C   0  0  0  0  0  0  0  0  0  0  0  0
  140.3610   71.6270  224.4720 N   0  0  0  0  0  0  0  0  0  0  0  0
  140.4710   71.1460  225.7290 C   0  0  0  0  0  0  0  0  0  0  0  0
  141.0750   71.9200  226.7250 C   0  0  0  0  0  0  0  0  0  0  0  0
  141.4825   72.9117  226.4792 H   0  0  0  0  0  0  0  0  0  0  0  0
  141.1610   71.4340  228.0320 C   0  0  0  0  0  0  0  0  0  0  0  0
  141.6402   72.0416  228.8138 H   0  0  0  0  0  0  0  0  0  0  0  0
  140.6390   70.1770  228.3470 C   0  0  0  0  0  0  0  0  0  0  0  0
  140.7055   69.7976  229.3773 H   0  0  0  0  0  0  0  0  0  0  0  0
  140.0320   69.4000  227.3550 C   0  0  0  0  0  0  0  0  0  0  0  0
  139.6197   68.4117  227.6067 H   0  0  0  0  0  0  0  0  0  0  0  0
  139.9480   69.8820  226.0330 C   0  0  0  0  0  0  0  0  0  0  0  0
  139.3560   69.1400  224.9980 C   0  0  0  0  0  0  0  0  0  0  0  0
  138.8170   68.0310  225.2740 O   0  0  0  0  0  0  0  0  0  0  0  0
  139.3470   69.6200  223.7040 N   0  0  0  0  0  0  0  0  0  0  0  0
  138.8390   68.7470  222.6120 C   0  0  0  0  0  0  0  0  0  0  0  0
  139.4063   68.9783  221.6984 H   0  0  0  0  0  0  0  0  0  0  0  0
  138.9726   67.7117  222.9589 H   0  0  0  0  0  0  0  0  0  0  0  0
  137.3200   68.9070  222.2920 C   0  0  0  0  0  0  0  0  0  0  0  0
  137.0806   67.9628  221.7809 H   0  0  0  0  0  0  0  0  0  0  0  0
  136.3820   68.9210  223.5240 C   0  0  0  0  0  0  0  0  0  0  0  0
  135.3960   68.5516  223.2057 H   0  0  0  0  0  0  0  0  0  0  0  0
  136.8636   68.2867  224.2828 H   0  0  0  0  0  0  0  0  0  0  0  0
  136.1850   70.3040  224.1820 C   0  0  0  0  0  0  0  0  0  0  0  0
  135.1677   70.3464  224.5984 H   0  0  0  0  0  0  0  0  0  0  0  0
  136.9645   70.4022  224.9519 H   0  0  0  0  0  0  0  0  0  0  0  0
  136.3620   71.4890  223.2200 C   0  0  0  0  0  0  0  0  0  0  0  0
  135.6965   72.3066  223.5341 H   0  0  0  0  0  0  0  0  0  0  0  0
  137.4150   71.8055  223.2533 H   0  0  0  0  0  0  0  0  0  0  0  0
  136.0250   71.1000  221.7830 C   0  0  0  0  0  0  0  0  0  0  0  0
  134.9995   70.7036  221.7485 H   0  0  0  0  0  0  0  0  0  0  0  0
  136.1138   71.9935  221.1475 H   0  0  0  0  0  0  0  0  0  0  0  0
  136.9950   70.0300  221.2620 C   0  0  0  0  0  0  0  0  0  0  0  0
  136.5479   69.5630  220.3720 H   0  0  0  0  0  0  0  0  0  0  0  0
  137.9434   70.5426  221.0433 H   0  0  0  0  0  0  0  0  0  0  0  0
  140.2510   73.9670  221.7600 C   0  0  0  0  0  0  0  0  0  0  0  0
  138.9630   74.4490  221.9770 C   0  0  0  0  0  0  0  0  0  0  0  0
  138.0653   73.8349  222.1415 H   0  0  0  0  0  0  0  0  0  0  0  0
  139.0130   76.1270  221.9450 S   0  0  0  0  0  0  0  0  0  0  0  0
  140.6620   76.2700  221.6620 C   0  0  0  0  0  0  0  0  0  0  0  0
  141.2186   77.2126  221.5540 H   0  0  0  0  0  0  0  0  0  0  0  0
  141.2010   74.9940  221.5880 C   0  0  0  0  0  0  0  0  0  0  0  0
  142.2696   74.8016  221.4116 H   0  0  0  0  0  0  0  0  0  0  0  0
  1  2  1  0
  2  3  2  0
  3  4  1  0
  3  5  1  0
  5  6  2  0
  6  7  1  0
  7  8  2  0
  8  9  1  0
  8 10  1  0
 10 11  1  0
 10 12  2  0
 12 13  1  0
 12 14  1  0
 14 15  1  0
 14 16  2  0
 16 17  1  0
 17 18  2  0
 17 19  1  0
 19 20  1  0
 20 21  1  0
 20 22  1  0
 20 23  1  0
 23 24  1  0
 23 25  1  0
 25 26  1  0
 25 27  1  0
 25 28  1  0
 28 29  1  0
 28 30  1  0
 28 31  1  0
 31 32  1  0
 31 33  1  0
 31 34  1  0
 34 35  1  0
 34 36  1  0
 34 37  1  0
 37 38  1  0
 37 39  1  0
  2 40  1  0
 40 41  2  0
 41 42  1  0
 41 43  1  0
 43 44  1  0
 44 45  1  0
 44 46  2  0
 46 47  1  0
 19  5  1  0
 37 23  1  0
 46 40  1  0
 16  7  1  0
M  END
>  <UniqueID>  (13) 
613

>  <SMILES>  (13) 
O=c1c2ccccc2nc(/C=C/c2ccsc2)n1CC1CCCCC1

>  <Energy>  (13) 
89.49114686974447

>  <Genealogy>  (13) 
O=c1c2ccccc2nc(/C=C/c2ccsc2)n1CC1CCCCC1 (cis-trans isomerization)
O=c1c2ccccc2nc(/C=C/c2ccsc2)n1CC1CCCCC1 (3D coordinates assigned)
O=c1c2ccccc2nc(/C=C/c2ccsc2)n1CC1CCCCC1 (nonaromatic ring conformer: 89.49114686974447 kcal/mol)

>  <smiles>  (13) 
O=c1c2ccccc2nc(/C=C/c2ccsc2)n1CC1CCCCC1

>  <score_type>  (13) 
oracle

>  <origin>  (13) 
autodockgpu

>  <m_score__min__energy>  (13) 
-6.8200000000000003

>  <m_primary>  (13) 
energy

>  <meeko>  (13) 
{"free_energy": -6.8, "intermolecular_energy": -8.29, "internal_energy": -1.73, "cluster_size": 16, "cluster_id": 1, "rank_in_cluster": 6}

>  <energy>  (13) 
-6.69

>  <cluster_rmsd>  (13) 
0.24

>  <rmsd>  (13) 
270.99

>  <cluster>  (13) 
1

$$$$
WQFRIXFTBLEVTI-ZHACJKMWNA-N
     RDKit          3D

 47 50  0  0  0  0  0  0  0  0999 V2000
  142.3595   80.6043  219.4354 H   0  0  0  0  0  0  0  0  0  0  0  0
  141.8160   79.9980  220.1750 C   0  0  0  0  0  0  0  0  0  0  0  0
  141.0010   79.0330  219.7250 C   0  0  0  0  0  0  0  0  0  0  0  0
  140.1514   79.3048  219.0813 H   0  0  0  0  0  0  0  0  0  0  0  0
  141.2180   77.6050  220.0750 C   0  0  0  0  0  0  0  0  0  0  0  0
  142.4290   77.0680  219.7650 N   0  0  0  0  0  0  0  0  0  0  0  0
  142.7630   75.8020  220.0950 C   0  0  0  0  0  0  0  0  0  0  0  0
  144.0170   75.2930  219.7390 C   0  0  0  0  0  0  0  0  0  0  0  0
  144.7218   75.9160  219.1688 H   0  0  0  0  0  0  0  0  0  0  0  0
  144.3740   73.9930  220.1080 C   0  0  0  0  0  0  0  0  0  0  0  0
  145.3588   73.5924  219.8258 H   0  0  0  0  0  0  0  0  0  0  0  0
  143.4810   73.2020  220.8350 C   0  0  0  0  0  0  0  0  0  0  0  0
  143.7643   72.1792  221.1242 H   0  0  0  0  0  0  0  0  0  0  0  0
  142.2280   73.7070  221.1960 C   0  0  0  0  0  0  0  0  0  0  0  0
  141.5295   73.0828  221.7725 H   0  0  0  0  0  0  0  0  0  0  0  0
  141.8590   75.0150  220.8220 C   0  0  0  0  0  0  0  0  0  0  0  0
  140.6100   75.5680  221.1490 C   0  0  0  0  0  0  0  0  0  0  0  0
  139.8150   74.8960  221.8650 O   0  0  0  0  0  0  0  0  0  0  0  0
  140.2630   76.8310  220.7120 N   0  0  0  0  0  0  0  0  0  0  0  0
  138.8830   77.3270  220.9590 C   0  0  0  0  0  0  0  0  0  0  0  0
  138.7508   78.2620  220.3948 H   0  0  0  0  0  0  0  0  0  0  0  0
  138.2059   76.5219  220.6374 H   0  0  0  0  0  0  0  0  0  0  0  0
  138.5400   77.6120  222.4540 C   0  0  0  0  0  0  0  0  0  0  0  0
  138.8365   76.6768  222.9514 H   0  0  0  0  0  0  0  0  0  0  0  0
  139.4070   78.7000  223.1360 C   0  0  0  0  0  0  0  0  0  0  0  0
  139.4368   78.4851  224.2144 H   0  0  0  0  0  0  0  0  0  0  0  0
  140.3935   78.6528  222.6517 H   0  0  0  0  0  0  0  0  0  0  0  0
  138.9070   80.1490  222.9510 C   0  0  0  0  0  0  0  0  0  0  0  0
  139.1723   80.7234  223.8508 H   0  0  0  0  0  0  0  0  0  0  0  0
  139.3890   80.5369  222.0415 H   0  0  0  0  0  0  0  0  0  0  0  0
  137.3900   80.2670  222.7330 C   0  0  0  0  0  0  0  0  0  0  0  0
  137.0395   81.2152  223.1667 H   0  0  0  0  0  0  0  0  0  0  0  0
  137.1939   80.2342  221.6511 H   0  0  0  0  0  0  0  0  0  0  0  0
  136.6380   79.1140  223.3900 C   0  0  0  0  0  0  0  0  0  0  0  0
  136.8902   79.0830  224.4603 H   0  0  0  0  0  0  0  0  0  0  0  0
  135.5585   79.2758  223.2539 H   0  0  0  0  0  0  0  0  0  0  0  0
  137.0180   77.7730  222.7450 C   0  0  0  0  0  0  0  0  0  0  0  0
  136.7092   76.9642  223.4236 H   0  0  0  0  0  0  0  0  0  0  0  0
  136.5048   77.7335  221.7729 H   0  0  0  0  0  0  0  0  0  0  0  0
  142.0260   80.2940  221.6090 C   0  0  0  0  0  0  0  0  0  0  0  0
  141.7470   81.5520  222.1360 C   0  0  0  0  0  0  0  0  0  0  0  0
  141.3699   82.4172  221.5710 H   0  0  0  0  0  0  0  0  0  0  0  0
  142.0840   81.5240  223.7810 S   0  0  0  0  0  0  0  0  0  0  0  0
  142.5820   79.9220  223.8530 C   0  0  0  0  0  0  0  0  0  0  0  0
  142.9217   79.3921  224.7551 H   0  0  0  0  0  0  0  0  0  0  0  0
  142.4910   79.3820  222.5780 C   0  0  0  0  0  0  0  0  0  0  0  0
  142.7567   78.3402  222.3454 H   0  0  0  0  0  0  0  0  0  0  0  0
  1  2  1  0
  2  3  2  0
  3  4  1  0
  3  5  1  0
  5  6  2  0
  6  7  1  0
  7  8  2  0
  8  9  1  0
  8 10  1  0
 10 11  1  0
 10 12  2  0
 12 13  1  0
 12 14  1  0
 14 15  1  0
 14 16  2  0
 16 17  1  0
 17 18  2  0
 17 19  1  0
 19 20  1  0
 20 21  1  0
 20 22  1  0
 20 23  1  0
 23 24  1  0
 23 25  1  0
 25 26  1  0
 25 27  1  0
 25 28  1  0
 28 29  1  0
 28 30  1  0
 28 31  1  0
 31 32  1  0
 31 33  1  0
 31 34  1  0
 34 35  1  0
 34 36  1  0
 34 37  1  0
 37 38  1  0
 37 39  1  0
  2 40  1  0
 40 41  2  0
 41 42  1  0
 41 43  1  0
 43 44  1  0
 44 45  1  0
 44 46  2  0
 46 47  1  0
 19  5  1  0
 37 23  1  0
 46 40  1  0
 16  7  1  0
M  END
>  <UniqueID>  (14) 
613

>  <SMILES>  (14) 
O=c1c2ccccc2nc(/C=C/c2ccsc2)n1CC1CCCCC1

>  <Energy>  (14) 
89.49114686974447

>  <Genealogy>  (14) 
O=c1c2ccccc2nc(/C=C/c2ccsc2)n1CC1CCCCC1 (cis-trans isomerization)
O=c1c2ccccc2nc(/C=C/c2ccsc2)n1CC1CCCCC1 (3D coordinates assigned)
O=c1c2ccccc2nc(/C=C/c2ccsc2)n1CC1CCCCC1 (nonaromatic ring conformer: 89.49114686974447 kcal/mol)

>  <smiles>  (14) 
O=c1c2ccccc2nc(/C=C/c2ccsc2)n1CC1CCCCC1

>  <score_type>  (14) 
oracle

>  <origin>  (14) 
autodockgpu

>  <m_score__min__energy>  (14) 
-6.8200000000000003

>  <m_primary>  (14) 
energy

>  <meeko>  (14) 
{"free_energy": -6.23, "intermolecular_energy": -7.72, "internal_energy": -1.81, "cluster_size": 2, "cluster_id": 3, "rank_in_cluster": 2}

>  <energy>  (14) 
-6.67

>  <cluster_rmsd>  (14) 
0.38

>  <rmsd>  (14) 
270.98

>  <cluster>  (14) 
1

$$$$
WQFRIXFTBLEVTI-ZHACJKMWNA-N
     RDKit          3D

 47 50  0  0  0  0  0  0  0  0999 V2000
  137.9813   72.7190  221.9675 H   0  0  0  0  0  0  0  0  0  0  0  0
  139.0660   72.8920  222.0270 C   0  0  0  0  0  0  0  0  0  0  0  0
  139.8670   71.8290  222.1840 C   0  0  0  0  0  0  0  0  0  0  0  0
  140.4941   71.5001  221.3422 H   0  0  0  0  0  0  0  0  0  0  0  0
  139.9280   71.0840  223.4690 C   0  0  0  0  0  0  0  0  0  0  0  0
  140.4590   71.7360  224.5390 N   0  0  0  0  0  0  0  0  0  0  0  0
  140.5050   71.1840  225.7710 C   0  0  0  0  0  0  0  0  0  0  0  0
  141.0750   71.8920  226.8350 C   0  0  0  0  0  0  0  0  0  0  0  0
  141.5080   72.8885  226.6634 H   0  0  0  0  0  0  0  0  0  0  0  0
  141.0940   71.3330  228.1150 C   0  0  0  0  0  0  0  0  0  0  0  0
  141.5459   71.8883  228.9501 H   0  0  0  0  0  0  0  0  0  0  0  0
  140.5400   70.0700  228.3360 C   0  0  0  0  0  0  0  0  0  0  0  0
  140.5550   69.6328  229.3453 H   0  0  0  0  0  0  0  0  0  0  0  0
  139.9660   69.3600  227.2760 C   0  0  0  0  0  0  0  0  0  0  0  0
  139.5267   68.3673  227.4537 H   0  0  0  0  0  0  0  0  0  0  0  0
  139.9500   69.9150  225.9810 C   0  0  0  0  0  0  0  0  0  0  0  0
  139.3950   69.2410  224.8800 C   0  0  0  0  0  0  0  0  0  0  0  0
  138.8270   68.1290  225.0700 O   0  0  0  0  0  0  0  0  0  0  0  0
  139.4520   69.7920  223.6160 N   0  0  0  0  0  0  0  0  0  0  0  0
  138.9800   68.9900  222.4560 C   0  0  0  0  0  0  0  0  0  0  0  0
  139.5348   69.3198  221.5652 H   0  0  0  0  0  0  0  0  0  0  0  0
  139.1591   67.9368  222.7182 H   0  0  0  0  0  0  0  0  0  0  0  0
  137.4550   69.1080  222.1470 C   0  0  0  0  0  0  0  0  0  0  0  0
  137.2730   68.2398  221.4965 H   0  0  0  0  0  0  0  0  0  0  0  0
  136.5150   68.8810  223.3560 C   0  0  0  0  0  0  0  0  0  0  0  0
  135.5529   68.5088  222.9741 H   0  0  0  0  0  0  0  0  0  0  0  0
  137.0312   68.1673  224.0149 H   0  0  0  0  0  0  0  0  0  0  0  0
  136.2360   70.1340  224.2150 C   0  0  0  0  0  0  0  0  0  0  0  0
  135.2173   70.0538  224.6222 H   0  0  0  0  0  0  0  0  0  0  0  0
  137.0066   70.1586  224.9996 H   0  0  0  0  0  0  0  0  0  0  0  0
  136.3450   71.4600  223.4450 C   0  0  0  0  0  0  0  0  0  0  0  0
  135.6322   72.1807  223.8722 H   0  0  0  0  0  0  0  0  0  0  0  0
  137.3776   71.8278  223.5370 H   0  0  0  0  0  0  0  0  0  0  0  0
  136.0340   71.2750  221.9630 C   0  0  0  0  0  0  0  0  0  0  0  0
  135.0337   70.8296  221.8579 H   0  0  0  0  0  0  0  0  0  0  0  0
  136.0709   72.2582  221.4711 H   0  0  0  0  0  0  0  0  0  0  0  0
  137.0670   70.3540  221.2960 C   0  0  0  0  0  0  0  0  0  0  0  0
  136.6502   70.0030  220.3405 H   0  0  0  0  0  0  0  0  0  0  0  0
  137.9842   70.9477  221.1683 H   0  0  0  0  0  0  0  0  0  0  0  0
  139.5560   74.2850  221.9290 C   0  0  0  0  0  0  0  0  0  0  0  0
  138.7410   75.3630  222.2590 C   0  0  0  0  0  0  0  0  0  0  0  0
  137.6971   75.2999  222.6001 H   0  0  0  0  0  0  0  0  0  0  0  0
  139.6220   76.7770  222.0480 S   0  0  0  0  0  0  0  0  0  0  0  0
  141.0470   76.0490  221.5430 C   0  0  0  0  0  0  0  0  0  0  0  0
  141.9755   76.5708  221.2681 H   0  0  0  0  0  0  0  0  0  0  0  0
  140.8520   74.6750  221.5320 C   0  0  0  0  0  0  0  0  0  0  0  0
  141.6340   73.9581  221.2412 H   0  0  0  0  0  0  0  0  0  0  0  0
  1  2  1  0
  2  3  2  0
  3  4  1  0
  3  5  1  0
  5  6  2  0
  6  7  1  0
  7  8  2  0
  8  9  1  0
  8 10  1  0
 10 11  1  0
 10 12  2  0
 12 13  1  0
 12 14  1  0
 14 15  1  0
 14 16  2  0
 16 17  1  0
 17 18  2  0
 17 19  1  0
 19 20  1  0
 20 21  1  0
 20 22  1  0
 20 23  1  0
 23 24  1  0
 23 25  1  0
 25 26  1  0
 25 27  1  0
 25 28  1  0
 28 29  1  0
 28 30  1  0
 28 31  1  0
 31 32  1  0
 31 33  1  0
 31 34  1  0
 34 35  1  0
 34 36  1  0
 34 37  1  0
 37 38  1  0
 37 39  1  0
  2 40  1  0
 40 41  2  0
 41 42  1  0
 41 43  1  0
 43 44  1  0
 44 45  1  0
 44 46  2  0
 46 47  1  0
 19  5  1  0
 37 23  1  0
 46 40  1  0
 16  7  1  0
M  END
>  <UniqueID>  (15) 
613

>  <SMILES>  (15) 
O=c1c2ccccc2nc(/C=C/c2ccsc2)n1CC1CCCCC1

>  <Energy>  (15) 
89.49114686974447

>  <Genealogy>  (15) 
O=c1c2ccccc2nc(/C=C/c2ccsc2)n1CC1CCCCC1 (cis-trans isomerization)
O=c1c2ccccc2nc(/C=C/c2ccsc2)n1CC1CCCCC1 (3D coordinates assigned)
O=c1c2ccccc2nc(/C=C/c2ccsc2)n1CC1CCCCC1 (nonaromatic ring conformer: 89.49114686974447 kcal/mol)

>  <smiles>  (15) 
O=c1c2ccccc2nc(/C=C/c2ccsc2)n1CC1CCCCC1

>  <score_type>  (15) 
oracle

>  <origin>  (15) 
autodockgpu

>  <m_score__min__energy>  (15) 
-6.8200000000000003

>  <m_primary>  (15) 
energy

>  <meeko>  (15) 
{"free_energy": -6.8, "intermolecular_energy": -8.29, "internal_energy": -1.71, "cluster_size": 16, "cluster_id": 1, "rank_in_cluster": 5}

>  <energy>  (15) 
-6.66

>  <cluster_rmsd>  (15) 
0.36

>  <rmsd>  (15) 
270.97

>  <cluster>  (15) 
1

$$$$
WQFRIXFTBLEVTI-ZHACJKMWNA-N
     RDKit          3D

 47 50  0  0  0  0  0  0  0  0999 V2000
  141.6954   72.2149  221.3426 H   0  0  0  0  0  0  0  0  0  0  0  0
  140.6770   72.4340  221.6960 C   0  0  0  0  0  0  0  0  0  0  0  0
  139.8960   71.4040  222.0480 C   0  0  0  0  0  0  0  0  0  0  0  0
  139.1889   70.9910  221.3136 H   0  0  0  0  0  0  0  0  0  0  0  0
  139.9620   70.8060  223.4070 C   0  0  0  0  0  0  0  0  0  0  0  0
  140.5480   71.5490  224.3840 N   0  0  0  0  0  0  0  0  0  0  0  0
  140.6050   71.1380  225.6690 C   0  0  0  0  0  0  0  0  0  0  0  0
  141.2330   71.9350  226.6320 C   0  0  0  0  0  0  0  0  0  0  0  0
  141.7016   72.8859  226.3384 H   0  0  0  0  0  0  0  0  0  0  0  0
  141.2650   71.5230  227.9670 C   0  0  0  0  0  0  0  0  0  0  0  0
  141.7623   72.1481  228.7232 H   0  0  0  0  0  0  0  0  0  0  0  0
  140.6660   70.3180  228.3420 C   0  0  0  0  0  0  0  0  0  0  0  0
  140.6906   69.9968  229.3938 H   0  0  0  0  0  0  0  0  0  0  0  0
  140.0350   69.5190  227.3830 C   0  0  0  0  0  0  0  0  0  0  0  0
  139.5615   68.5723  227.6823 H   0  0  0  0  0  0  0  0  0  0  0  0
  140.0050   69.9250  226.0340 C   0  0  0  0  0  0  0  0  0  0  0  0
  139.3930   69.1580  225.0290 C   0  0  0  0  0  0  0  0  0  0  0  0
  138.7860   68.0990  225.3570 O   0  0  0  0  0  0  0  0  0  0  0  0
  139.4370   69.5600  223.7100 N   0  0  0  0  0  0  0  0  0  0  0  0
  138.9010   68.6540  222.6590 C   0  0  0  0  0  0  0  0  0  0  0  0
  139.5000   68.7971  221.7476 H   0  0  0  0  0  0  0  0  0  0  0  0
  138.9658   67.6356  223.0696 H   0  0  0  0  0  0  0  0  0  0  0  0
  137.4020   68.8810  222.2930 C   0  0  0  0  0  0  0  0  0  0  0  0
  137.1330   67.9414  221.7882 H   0  0  0  0  0  0  0  0  0  0  0  0
  136.4310   68.9590  223.4970 C   0  0  0  0  0  0  0  0  0  0  0  0
  135.4378   68.6323  223.1553 H   0  0  0  0  0  0  0  0  0  0  0  0
  136.8600   68.3143  224.2783 H   0  0  0  0  0  0  0  0  0  0  0  0
  136.2820   70.3600  224.1300 C   0  0  0  0  0  0  0  0  0  0  0  0
  135.2563   70.4575  224.5153 H   0  0  0  0  0  0  0  0  0  0  0  0
  137.0424   70.4325  224.9216 H   0  0  0  0  0  0  0  0  0  0  0  0
  136.5440   71.5200  223.1570 C   0  0  0  0  0  0  0  0  0  0  0  0
  135.9114   72.3740  223.4407 H   0  0  0  0  0  0  0  0  0  0  0  0
  137.6100   71.7849  223.2157 H   0  0  0  0  0  0  0  0  0  0  0  0
  136.2280   71.1260  221.7170 C   0  0  0  0  0  0  0  0  0  0  0  0
  135.1860   70.7783  221.6591 H   0  0  0  0  0  0  0  0  0  0  0  0
  136.3763   72.0044  221.0717 H   0  0  0  0  0  0  0  0  0  0  0  0
  137.1600   70.0030  221.2390 C   0  0  0  0  0  0  0  0  0  0  0  0
  136.7163   69.5445  220.3429 H   0  0  0  0  0  0  0  0  0  0  0  0
  138.1377   70.4667  221.0411 H   0  0  0  0  0  0  0  0  0  0  0  0
  140.2490   73.8500  221.7550 C   0  0  0  0  0  0  0  0  0  0  0  0
  138.9150   74.1940  221.9540 C   0  0  0  0  0  0  0  0  0  0  0  0
  138.0791   73.4887  222.0721 H   0  0  0  0  0  0  0  0  0  0  0  0
  138.7990   75.8680  221.9830 S   0  0  0  0  0  0  0  0  0  0  0  0
  140.4310   76.1840  221.7510 C   0  0  0  0  0  0  0  0  0  0  0  0
  140.8930   77.1806  221.6923 H   0  0  0  0  0  0  0  0  0  0  0  0
  141.0970   74.9710  221.6460 C   0  0  0  0  0  0  0  0  0  0  0  0
  142.1833   74.8917  221.4923 H   0  0  0  0  0  0  0  0  0  0  0  0
  1  2  1  0
  2  3  2  0
  3  4  1  0
  3  5  1  0
  5  6  2  0
  6  7  1  0
  7  8  2  0
  8  9  1  0
  8 10  1  0
 10 11  1  0
 10 12  2  0
 12 13  1  0
 12 14  1  0
 14 15  1  0
 14 16  2  0
 16 17  1  0
 17 18  2  0
 17 19  1  0
 19 20  1  0
 20 21  1  0
 20 22  1  0
 20 23  1  0
 23 24  1  0
 23 25  1  0
 25 26  1  0
 25 27  1  0
 25 28  1  0
 28 29  1  0
 28 30  1  0
 28 31  1  0
 31 32  1  0
 31 33  1  0
 31 34  1  0
 34 35  1  0
 34 36  1  0
 34 37  1  0
 37 38  1  0
 37 39  1  0
  2 40  1  0
 40 41  2  0
 41 42  1  0
 41 43  1  0
 43 44  1  0
 44 45  1  0
 44 46  2  0
 46 47  1  0
 19  5  1  0
 37 23  1  0
 46 40  1  0
 16  7  1  0
M  END
>  <UniqueID>  (16) 
613

>  <SMILES>  (16) 
O=c1c2ccccc2nc(/C=C/c2ccsc2)n1CC1CCCCC1

>  <Energy>  (16) 
89.49114686974447

>  <Genealogy>  (16) 
O=c1c2ccccc2nc(/C=C/c2ccsc2)n1CC1CCCCC1 (cis-trans isomerization)
O=c1c2ccccc2nc(/C=C/c2ccsc2)n1CC1CCCCC1 (3D coordinates assigned)
O=c1c2ccccc2nc(/C=C/c2ccsc2)n1CC1CCCCC1 (nonaromatic ring conformer: 89.49114686974447 kcal/mol)

>  <smiles>  (16) 
O=c1c2ccccc2nc(/C=C/c2ccsc2)n1CC1CCCCC1

>  <score_type>  (16) 
oracle

>  <origin>  (16) 
autodockgpu

>  <m_score__min__energy>  (16) 
-6.8200000000000003

>  <m_primary>  (16) 
energy

>  <meeko>  (16) 
{"free_energy": -6.69, "intermolecular_energy": -8.19, "internal_energy": -1.81, "cluster_size": 16, "cluster_id": 1, "rank_in_cluster": 13}

>  <energy>  (16) 
-6.65

>  <cluster_rmsd>  (16) 
0.37

>  <rmsd>  (16) 
270.96

>  <cluster>  (16) 
1

$$$$
WQFRIXFTBLEVTI-ZHACJKMWNA-N
     RDKit          3D

 47 50  0  0  0  0  0  0  0  0999 V2000
  141.6471   72.7103  221.6501 H   0  0  0  0  0  0  0  0  0  0  0  0
  140.5750   72.7800  221.8860 C   0  0  0  0  0  0  0  0  0  0  0  0
  139.9040   71.6430  222.1180 C   0  0  0  0  0  0  0  0  0  0  0  0
  139.2979   71.2029  221.3124 H   0  0  0  0  0  0  0  0  0  0  0  0
  139.9600   70.9630  223.4390 C   0  0  0  0  0  0  0  0  0  0  0  0
  140.5040   71.6590  224.4720 N   0  0  0  0  0  0  0  0  0  0  0  0
  140.5470   71.1690  225.7300 C   0  0  0  0  0  0  0  0  0  0  0  0
  141.1320   71.9210  226.7550 C   0  0  0  0  0  0  0  0  0  0  0  0
  141.5783   72.9014  226.5322 H   0  0  0  0  0  0  0  0  0  0  0  0
  141.1490   71.4260  228.0620 C   0  0  0  0  0  0  0  0  0  0  0  0
  141.6132   72.0150  228.8668 H   0  0  0  0  0  0  0  0  0  0  0  0
  140.5770   70.1840  228.3470 C   0  0  0  0  0  0  0  0  0  0  0  0
  140.5898   69.7978  229.3769 H   0  0  0  0  0  0  0  0  0  0  0  0
  139.9880   69.4300  227.3270 C   0  0  0  0  0  0  0  0  0  0  0  0
  139.5354   68.4540  227.5562 H   0  0  0  0  0  0  0  0  0  0  0  0
  139.9740   69.9200  226.0050 C   0  0  0  0  0  0  0  0  0  0  0  0
  139.4050   69.2010  224.9410 C   0  0  0  0  0  0  0  0  0  0  0  0
  138.8220   68.1070  225.1890 O   0  0  0  0  0  0  0  0  0  0  0  0
  139.4650   69.6870  223.6510 N   0  0  0  0  0  0  0  0  0  0  0  0
  138.9770   68.8350  222.5340 C   0  0  0  0  0  0  0  0  0  0  0  0
  139.5800   69.0632  221.6427 H   0  0  0  0  0  0  0  0  0  0  0  0
  139.0774   67.7943  222.8758 H   0  0  0  0  0  0  0  0  0  0  0  0
  137.4730   69.0280  222.1630 C   0  0  0  0  0  0  0  0  0  0  0  0
  137.2558   68.1338  221.5603 H   0  0  0  0  0  0  0  0  0  0  0  0
  136.4820   68.9370  223.3500 C   0  0  0  0  0  0  0  0  0  0  0  0
  135.5106   68.6013  222.9579 H   0  0  0  0  0  0  0  0  0  0  0  0
  136.9299   68.2361  224.0698 H   0  0  0  0  0  0  0  0  0  0  0  0
  136.2570   70.2580  224.1190 C   0  0  0  0  0  0  0  0  0  0  0  0
  135.2224   70.2680  224.4926 H   0  0  0  0  0  0  0  0  0  0  0  0
  137.0019   70.2842  224.9280 H   0  0  0  0  0  0  0  0  0  0  0  0
  136.4770   71.5230  223.2740 C   0  0  0  0  0  0  0  0  0  0  0  0
  135.7994   72.3130  223.6300 H   0  0  0  0  0  0  0  0  0  0  0  0
  137.5277   71.8308  223.3807 H   0  0  0  0  0  0  0  0  0  0  0  0
  136.2020   71.2630  221.7950 C   0  0  0  0  0  0  0  0  0  0  0  0
  135.1790   70.8749  221.6819 H   0  0  0  0  0  0  0  0  0  0  0  0
  136.3178   72.2085  221.2449 H   0  0  0  0  0  0  0  0  0  0  0  0
  137.1940   70.2390  221.2240 C   0  0  0  0  0  0  0  0  0  0  0  0
  136.7865   69.8547  220.2773 H   0  0  0  0  0  0  0  0  0  0  0  0
  138.1513   70.7650  221.0937 H   0  0  0  0  0  0  0  0  0  0  0  0
  139.9560   74.1240  221.9290 C   0  0  0  0  0  0  0  0  0  0  0  0
  140.7330   75.2780  221.9180 C   0  0  0  0  0  0  0  0  0  0  0  0
  141.8320   75.3138  221.8882 H   0  0  0  0  0  0  0  0  0  0  0  0
  139.7070   76.6070  221.9580 S   0  0  0  0  0  0  0  0  0  0  0  0
  138.2670   75.7450  221.9830 C   0  0  0  0  0  0  0  0  0  0  0  0
  137.2563   76.1782  222.0118 H   0  0  0  0  0  0  0  0  0  0  0  0
  138.5720   74.3910  221.9610 C   0  0  0  0  0  0  0  0  0  0  0  0
  137.8064   73.6012  221.9679 H   0  0  0  0  0  0  0  0  0  0  0  0
  1  2  1  0
  2  3  2  0
  3  4  1  0
  3  5  1  0
  5  6  2  0
  6  7  1  0
  7  8  2  0
  8  9  1  0
  8 10  1  0
 10 11  1  0
 10 12  2  0
 12 13  1  0
 12 14  1  0
 14 15  1  0
 14 16  2  0
 16 17  1  0
 17 18  2  0
 17 19  1  0
 19 20  1  0
 20 21  1  0
 20 22  1  0
 20 23  1  0
 23 24  1  0
 23 25  1  0
 25 26  1  0
 25 27  1  0
 25 28  1  0
 28 29  1  0
 28 30  1  0
 28 31  1  0
 31 32  1  0
 31 33  1  0
 31 34  1  0
 34 35  1  0
 34 36  1  0
 34 37  1  0
 37 38  1  0
 37 39  1  0
  2 40  1  0
 40 41  2  0
 41 42  1  0
 41 43  1  0
 43 44  1  0
 44 45  1  0
 44 46  2  0
 46 47  1  0
 19  5  1  0
 37 23  1  0
 46 40  1  0
 16  7  1  0
M  END
>  <UniqueID>  (17) 
613

>  <SMILES>  (17) 
O=c1c2ccccc2nc(/C=C/c2ccsc2)n1CC1CCCCC1

>  <Energy>  (17) 
89.49114686974447

>  <Genealogy>  (17) 
O=c1c2ccccc2nc(/C=C/c2ccsc2)n1CC1CCCCC1 (cis-trans isomerization)
O=c1c2ccccc2nc(/C=C/c2ccsc2)n1CC1CCCCC1 (3D coordinates assigned)
O=c1c2ccccc2nc(/C=C/c2ccsc2)n1CC1CCCCC1 (nonaromatic ring conformer: 89.49114686974447 kcal/mol)

>  <smiles>  (17) 
O=c1c2ccccc2nc(/C=C/c2ccsc2)n1CC1CCCCC1

>  <score_type>  (17) 
oracle

>  <origin>  (17) 
autodockgpu

>  <m_score__min__energy>  (17) 
-6.8200000000000003

>  <m_primary>  (17) 
energy

>  <meeko>  (17) 
{"free_energy": -6.67, "intermolecular_energy": -8.17, "internal_energy": -1.82, "cluster_size": 16, "cluster_id": 1, "rank_in_cluster": 14}

>  <energy>  (17) 
-6.64

>  <cluster_rmsd>  (17) 
0.0

>  <rmsd>  (17) 
271.64

>  <cluster>  (17) 
2

$$$$
WQFRIXFTBLEVTI-ZHACJKMWNA-N
     RDKit          3D

 47 50  0  0  0  0  0  0  0  0999 V2000
  141.6823   72.7002  221.6898 H   0  0  0  0  0  0  0  0  0  0  0  0
  140.6060   72.7790  221.9030 C   0  0  0  0  0  0  0  0  0  0  0  0
  139.9220   71.6480  222.1290 C   0  0  0  0  0  0  0  0  0  0  0  0
  139.3092   71.2201  221.3219 H   0  0  0  0  0  0  0  0  0  0  0  0
  139.9730   70.9590  223.4460 C   0  0  0  0  0  0  0  0  0  0  0  0
  140.5150   71.6480  224.4860 N   0  0  0  0  0  0  0  0  0  0  0  0
  140.5530   71.1490  225.7400 C   0  0  0  0  0  0  0  0  0  0  0  0
  141.1350   71.8930  226.7720 C   0  0  0  0  0  0  0  0  0  0  0  0
  141.5833   72.8742  226.5571 H   0  0  0  0  0  0  0  0  0  0  0  0
  141.1470   71.3900  228.0760 C   0  0  0  0  0  0  0  0  0  0  0  0
  141.6085   71.9737  228.8862 H   0  0  0  0  0  0  0  0  0  0  0  0
  140.5730   70.1460  228.3510 C   0  0  0  0  0  0  0  0  0  0  0  0
  140.5813   69.7527  229.3783 H   0  0  0  0  0  0  0  0  0  0  0  0
  139.9880   69.4000  227.3230 C   0  0  0  0  0  0  0  0  0  0  0  0
  139.5341   68.4227  227.5437 H   0  0  0  0  0  0  0  0  0  0  0  0
  139.9790   69.8980  226.0050 C   0  0  0  0  0  0  0  0  0  0  0  0
  139.4130   69.1870  224.9340 C   0  0  0  0  0  0  0  0  0  0  0  0
  138.8280   68.0920  225.1720 O   0  0  0  0  0  0  0  0  0  0  0  0
  139.4770   69.6820  223.6480 N   0  0  0  0  0  0  0  0  0  0  0  0
  138.9920   68.8380  222.5230 C   0  0  0  0  0  0  0  0  0  0  0  0
  139.5948   69.0756  221.6341 H   0  0  0  0  0  0  0  0  0  0  0  0
  139.0952   67.7946  222.8557 H   0  0  0  0  0  0  0  0  0  0  0  0
  137.4880   69.0300  222.1530 C   0  0  0  0  0  0  0  0  0  0  0  0
  137.2755   68.1440  221.5366 H   0  0  0  0  0  0  0  0  0  0  0  0
  136.4960   68.9170  223.3370 C   0  0  0  0  0  0  0  0  0  0  0  0
  135.5269   68.5823  222.9385 H   0  0  0  0  0  0  0  0  0  0  0  0
  136.9470   68.2082  224.0471 H   0  0  0  0  0  0  0  0  0  0  0  0
  136.2630   70.2240  224.1250 C   0  0  0  0  0  0  0  0  0  0  0  0
  135.2275   70.2235  224.4962 H   0  0  0  0  0  0  0  0  0  0  0  0
  137.0056   70.2415  224.9363 H   0  0  0  0  0  0  0  0  0  0  0  0
  136.4790   71.5030  223.2990 C   0  0  0  0  0  0  0  0  0  0  0  0
  135.7973   72.2845  223.6658 H   0  0  0  0  0  0  0  0  0  0  0  0
  137.5283   71.8132  223.4121 H   0  0  0  0  0  0  0  0  0  0  0  0
  136.2080   71.2650  221.8160 C   0  0  0  0  0  0  0  0  0  0  0  0
  135.1867   70.8748  221.6946 H   0  0  0  0  0  0  0  0  0  0  0  0
  136.3210   72.2193  221.2806 H   0  0  0  0  0  0  0  0  0  0  0  0
  137.2050   70.2540  221.2320 C   0  0  0  0  0  0  0  0  0  0  0  0
  136.8007   69.8822  220.2789 H   0  0  0  0  0  0  0  0  0  0  0  0
  138.1602   70.7861  221.1117 H   0  0  0  0  0  0  0  0  0  0  0  0
  139.9960   74.1270  221.9240 C   0  0  0  0  0  0  0  0  0  0  0  0
  138.6160   74.2960  221.9700 C   0  0  0  0  0  0  0  0  0  0  0  0
  137.8691   73.4886  221.9854 H   0  0  0  0  0  0  0  0  0  0  0  0
  138.2840   75.9420  221.9980 S   0  0  0  0  0  0  0  0  0  0  0  0
  139.8790   76.4650  221.9600 C   0  0  0  0  0  0  0  0  0  0  0  0
  140.2144   77.5126  221.9638 H   0  0  0  0  0  0  0  0  0  0  0  0
  140.7010   75.3480  221.9230 C   0  0  0  0  0  0  0  0  0  0  0  0
  141.7990   75.4092  221.8955 H   0  0  0  0  0  0  0  0  0  0  0  0
  1  2  1  0
  2  3  2  0
  3  4  1  0
  3  5  1  0
  5  6  2  0
  6  7  1  0
  7  8  2  0
  8  9  1  0
  8 10  1  0
 10 11  1  0
 10 12  2  0
 12 13  1  0
 12 14  1  0
 14 15  1  0
 14 16  2  0
 16 17  1  0
 17 18  2  0
 17 19  1  0
 19 20  1  0
 20 21  1  0
 20 22  1  0
 20 23  1  0
 23 24  1  0
 23 25  1  0
 25 26  1  0
 25 27  1  0
 25 28  1  0
 28 29  1  0
 28 30  1  0
 28 31  1  0
 31 32  1  0
 31 33  1  0
 31 34  1  0
 34 35  1  0
 34 36  1  0
 34 37  1  0
 37 38  1  0
 37 39  1  0
  2 40  1  0
 40 41  2  0
 41 42  1  0
 41 43  1  0
 43 44  1  0
 44 45  1  0
 44 46  2  0
 46 47  1  0
 19  5  1  0
 37 23  1  0
 46 40  1  0
 16  7  1  0
M  END
>  <UniqueID>  (18) 
613

>  <SMILES>  (18) 
O=c1c2ccccc2nc(/C=C/c2ccsc2)n1CC1CCCCC1

>  <Energy>  (18) 
89.49114686974447

>  <Genealogy>  (18) 
O=c1c2ccccc2nc(/C=C/c2ccsc2)n1CC1CCCCC1 (cis-trans isomerization)
O=c1c2ccccc2nc(/C=C/c2ccsc2)n1CC1CCCCC1 (3D coordinates assigned)
O=c1c2ccccc2nc(/C=C/c2ccsc2)n1CC1CCCCC1 (nonaromatic ring conformer: 89.49114686974447 kcal/mol)

>  <smiles>  (18) 
O=c1c2ccccc2nc(/C=C/c2ccsc2)n1CC1CCCCC1

>  <score_type>  (18) 
oracle

>  <origin>  (18) 
autodockgpu

>  <m_score__min__energy>  (18) 
-6.8200000000000003

>  <m_primary>  (18) 
energy

>  <meeko>  (18) 
{"free_energy": -6.7, "intermolecular_energy": -8.2, "internal_energy": -1.81, "cluster_size": 16, "cluster_id": 1, "rank_in_cluster": 11}

>  <energy>  (18) 
-6.28

>  <cluster_rmsd>  (18) 
0.6

>  <rmsd>  (18) 
271.53

>  <cluster>  (18) 
2

$$$$
WQFRIXFTBLEVTI-ZHACJKMWNA-N
     RDKit          3D

 47 50  0  0  0  0  0  0  0  0999 V2000
  141.7220   72.6718  221.5905 H   0  0  0  0  0  0  0  0  0  0  0  0
  140.6520   72.7260  221.8400 C   0  0  0  0  0  0  0  0  0  0  0  0
  139.9990   71.5790  222.0700 C   0  0  0  0  0  0  0  0  0  0  0  0
  139.4355   71.1083  221.2509 H   0  0  0  0  0  0  0  0  0  0  0  0
  140.0180   70.9270  223.4070 C   0  0  0  0  0  0  0  0  0  0  0  0
  140.5500   71.6400  224.4360 N   0  0  0  0  0  0  0  0  0  0  0  0
  140.5610   71.1770  225.7050 C   0  0  0  0  0  0  0  0  0  0  0  0
  141.1350   71.9440  226.7250 C   0  0  0  0  0  0  0  0  0  0  0  0
  141.5995   72.9129  226.4897 H   0  0  0  0  0  0  0  0  0  0  0  0
  141.1180   71.4790  228.0420 C   0  0  0  0  0  0  0  0  0  0  0  0
  141.5728   72.0804  228.8430 H   0  0  0  0  0  0  0  0  0  0  0  0
  140.5240   70.2510  228.3430 C   0  0  0  0  0  0  0  0  0  0  0  0
  140.5102   69.8881  229.3813 H   0  0  0  0  0  0  0  0  0  0  0  0
  139.9470   69.4820  227.3280 C   0  0  0  0  0  0  0  0  0  0  0  0
  139.4770   68.5171  227.5692 H   0  0  0  0  0  0  0  0  0  0  0  0
  139.9670   69.9420  225.9960 C   0  0  0  0  0  0  0  0  0  0  0  0
  139.4100   69.2060  224.9360 C   0  0  0  0  0  0  0  0  0  0  0  0
  138.8080   68.1260  225.1950 O   0  0  0  0  0  0  0  0  0  0  0  0
  139.5020   69.6630  223.6370 N   0  0  0  0  0  0  0  0  0  0  0  0
  139.0260   68.7920  222.5290 C   0  0  0  0  0  0  0  0  0  0  0  0
  139.6463   68.9966  221.6440 H   0  0  0  0  0  0  0  0  0  0  0  0
  139.1113   67.7577  222.8937 H   0  0  0  0  0  0  0  0  0  0  0  0
  137.5310   68.9900  222.1280 C   0  0  0  0  0  0  0  0  0  0  0  0
  137.3164   68.0873  221.5372 H   0  0  0  0  0  0  0  0  0  0  0  0
  136.5190   68.9280  223.2990 C   0  0  0  0  0  0  0  0  0  0  0  0
  135.5522   68.5919  222.8961 H   0  0  0  0  0  0  0  0  0  0  0  0
  136.9496   68.2376  224.0392 H   0  0  0  0  0  0  0  0  0  0  0  0
  136.2900   70.2640  224.0400 C   0  0  0  0  0  0  0  0  0  0  0  0
  135.2486   70.2886  224.3935 H   0  0  0  0  0  0  0  0  0  0  0  0
  137.0196   70.2990  224.8625 H   0  0  0  0  0  0  0  0  0  0  0  0
  136.5360   71.5120  223.1770 C   0  0  0  0  0  0  0  0  0  0  0  0
  135.8592   72.3138  223.5072 H   0  0  0  0  0  0  0  0  0  0  0  0
  137.5874   71.8123  223.2969 H   0  0  0  0  0  0  0  0  0  0  0  0
  136.2850   71.2290  221.6990 C   0  0  0  0  0  0  0  0  0  0  0  0
  135.2610   70.8471  221.5744 H   0  0  0  0  0  0  0  0  0  0  0  0
  136.4181   72.1639  221.1349 H   0  0  0  0  0  0  0  0  0  0  0  0
  137.2790   70.1870  221.1630 C   0  0  0  0  0  0  0  0  0  0  0  0
  136.8852   69.7897  220.2159 H   0  0  0  0  0  0  0  0  0  0  0  0
  138.2428   70.7029  221.0405 H   0  0  0  0  0  0  0  0  0  0  0  0
  140.0180   74.0610  221.9020 C   0  0  0  0  0  0  0  0  0  0  0  0
  138.6350   74.2030  221.9720 C   0  0  0  0  0  0  0  0  0  0  0  0
  137.9035   73.3815  221.9778 H   0  0  0  0  0  0  0  0  0  0  0  0
  138.2730   75.8400  222.0460 S   0  0  0  0  0  0  0  0  0  0  0  0
  139.8570   76.3950  221.9970 C   0  0  0  0  0  0  0  0  0  0  0  0
  140.1725   77.4485  222.0210 H   0  0  0  0  0  0  0  0  0  0  0  0
  140.6990   75.2950  221.9210 C   0  0  0  0  0  0  0  0  0  0  0  0
  141.7951   75.3780  221.8795 H   0  0  0  0  0  0  0  0  0  0  0  0
  1  2  1  0
  2  3  2  0
  3  4  1  0
  3  5  1  0
  5  6  2  0
  6  7  1  0
  7  8  2  0
  8  9  1  0
  8 10  1  0
 10 11  1  0
 10 12  2  0
 12 13  1  0
 12 14  1  0
 14 15  1  0
 14 16  2  0
 16 17  1  0
 17 18  2  0
 17 19  1  0
 19 20  1  0
 20 21  1  0
 20 22  1  0
 20 23  1  0
 23 24  1  0
 23 25  1  0
 25 26  1  0
 25 27  1  0
 25 28  1  0
 28 29  1  0
 28 30  1  0
 28 31  1  0
 31 32  1  0
 31 33  1  0
 31 34  1  0
 34 35  1  0
 34 36  1  0
 34 37  1  0
 37 38  1  0
 37 39  1  0
  2 40  1  0
 40 41  2  0
 41 42  1  0
 41 43  1  0
 43 44  1  0
 44 45  1  0
 44 46  2  0
 46 47  1  0
 19  5  1  0
 37 23  1  0
 46 40  1  0
 16  7  1  0
M  END
>  <UniqueID>  (19) 
613

>  <SMILES>  (19) 
O=c1c2ccccc2nc(/C=C/c2ccsc2)n1CC1CCCCC1

>  <Energy>  (19) 
89.49114686974447

>  <Genealogy>  (19) 
O=c1c2ccccc2nc(/C=C/c2ccsc2)n1CC1CCCCC1 (cis-trans isomerization)
O=c1c2ccccc2nc(/C=C/c2ccsc2)n1CC1CCCCC1 (3D coordinates assigned)
O=c1c2ccccc2nc(/C=C/c2ccsc2)n1CC1CCCCC1 (nonaromatic ring conformer: 89.49114686974447 kcal/mol)

>  <smiles>  (19) 
O=c1c2ccccc2nc(/C=C/c2ccsc2)n1CC1CCCCC1

>  <score_type>  (19) 
oracle

>  <origin>  (19) 
autodockgpu

>  <m_score__min__energy>  (19) 
-6.8200000000000003

>  <m_primary>  (19) 
energy

>  <meeko>  (19) 
{"free_energy": -6.66, "intermolecular_energy": -8.15, "internal_energy": -1.86, "cluster_size": 16, "cluster_id": 1, "rank_in_cluster": 15}

>  <energy>  (19) 
-6.31

>  <cluster_rmsd>  (19) 
0.0

>  <rmsd>  (19) 
271.52

>  <cluster>  (19) 
3

$$$$
WQFRIXFTBLEVTI-ZHACJKMWNA-N
     RDKit          3D

 47 50  0  0  0  0  0  0  0  0999 V2000
  141.6493   72.2547  221.4066 H   0  0  0  0  0  0  0  0  0  0  0  0
  140.6210   72.4600  221.7390 C   0  0  0  0  0  0  0  0  0  0  0  0
  139.8470   71.4190  222.0760 C   0  0  0  0  0  0  0  0  0  0  0  0
  139.1368   71.0172  221.3383 H   0  0  0  0  0  0  0  0  0  0  0  0
  139.9250   70.7940  223.4230 C   0  0  0  0  0  0  0  0  0  0  0  0
  140.4920   71.5310  224.4160 N   0  0  0  0  0  0  0  0  0  0  0  0
  140.5580   71.0940  225.6910 C   0  0  0  0  0  0  0  0  0  0  0  0
  141.1660   71.8850  226.6730 C   0  0  0  0  0  0  0  0  0  0  0  0
  141.6131   72.8525  226.4008 H   0  0  0  0  0  0  0  0  0  0  0  0
  141.2050   71.4460  227.9980 C   0  0  0  0  0  0  0  0  0  0  0  0
  141.6859   72.0668  228.7683 H   0  0  0  0  0  0  0  0  0  0  0  0
  140.6340   70.2190  228.3470 C   0  0  0  0  0  0  0  0  0  0  0  0
  140.6662   69.8758  229.3916 H   0  0  0  0  0  0  0  0  0  0  0  0
  140.0220   69.4270  227.3710 C   0  0  0  0  0  0  0  0  0  0  0  0
  139.5686   68.4644  227.6499 H   0  0  0  0  0  0  0  0  0  0  0  0
  139.9850   69.8600  226.0300 C   0  0  0  0  0  0  0  0  0  0  0  0
  139.3920   69.1000  225.0090 C   0  0  0  0  0  0  0  0  0  0  0  0
  138.8090   68.0210  225.3130 O   0  0  0  0  0  0  0  0  0  0  0  0
  139.4280   69.5320  223.6980 N   0  0  0  0  0  0  0  0  0  0  0  0
  138.9150   68.6360  222.6280 C   0  0  0  0  0  0  0  0  0  0  0  0
  139.5101   68.8137  221.7201 H   0  0  0  0  0  0  0  0  0  0  0  0
  139.0053   67.6110  223.0168 H   0  0  0  0  0  0  0  0  0  0  0  0
  137.4100   68.8330  222.2660 C   0  0  0  0  0  0  0  0  0  0  0  0
  137.1579   67.8888  221.7611 H   0  0  0  0  0  0  0  0  0  0  0  0
  136.4410   68.8910  223.4740 C   0  0  0  0  0  0  0  0  0  0  0  0
  135.4532   68.5451  223.1353 H   0  0  0  0  0  0  0  0  0  0  0  0
  136.8848   68.2542  224.2534 H   0  0  0  0  0  0  0  0  0  0  0  0
  136.2670   70.2880  224.1080 C   0  0  0  0  0  0  0  0  0  0  0  0
  135.2412   70.3649  224.4975 H   0  0  0  0  0  0  0  0  0  0  0  0
  137.0293   70.3750  224.8963 H   0  0  0  0  0  0  0  0  0  0  0  0
  136.5020   71.4540  223.1350 C   0  0  0  0  0  0  0  0  0  0  0  0
  135.8526   72.2945  223.4210 H   0  0  0  0  0  0  0  0  0  0  0  0
  137.5623   71.7413  223.1908 H   0  0  0  0  0  0  0  0  0  0  0  0
  136.1900   71.0540  221.6960 C   0  0  0  0  0  0  0  0  0  0  0  0
  135.1551   70.6854  221.6412 H   0  0  0  0  0  0  0  0  0  0  0  0
  136.3191   71.9355  221.0508 H   0  0  0  0  0  0  0  0  0  0  0  0
  137.1430   69.9500  221.2140 C   0  0  0  0  0  0  0  0  0  0  0  0
  136.7059   69.4835  220.3189 H   0  0  0  0  0  0  0  0  0  0  0  0
  138.1107   70.4331  221.0134 H   0  0  0  0  0  0  0  0  0  0  0  0
  140.1730   73.8690  221.7880 C   0  0  0  0  0  0  0  0  0  0  0  0
  141.0730   74.9200  221.6380 C   0  0  0  0  0  0  0  0  0  0  0  0
  142.1578   74.8212  221.4851 H   0  0  0  0  0  0  0  0  0  0  0  0
  140.2220   76.3640  221.7300 S   0  0  0  0  0  0  0  0  0  0  0  0
  138.7040   75.6840  221.9550 C   0  0  0  0  0  0  0  0  0  0  0  0
  137.7612   76.2375  222.0767 H   0  0  0  0  0  0  0  0  0  0  0  0
  138.8430   74.3040  221.9610 C   0  0  0  0  0  0  0  0  0  0  0  0
  137.9958   73.6141  222.0887 H   0  0  0  0  0  0  0  0  0  0  0  0
  1  2  1  0
  2  3  2  0
  3  4  1  0
  3  5  1  0
  5  6  2  0
  6  7  1  0
  7  8  2  0
  8  9  1  0
  8 10  1  0
 10 11  1  0
 10 12  2  0
 12 13  1  0
 12 14  1  0
 14 15  1  0
 14 16  2  0
 16 17  1  0
 17 18  2  0
 17 19  1  0
 19 20  1  0
 20 21  1  0
 20 22  1  0
 20 23  1  0
 23 24  1  0
 23 25  1  0
 25 26  1  0
 25 27  1  0
 25 28  1  0
 28 29  1  0
 28 30  1  0
 28 31  1  0
 31 32  1  0
 31 33  1  0
 31 34  1  0
 34 35  1  0
 34 36  1  0
 34 37  1  0
 37 38  1  0
 37 39  1  0
  2 40  1  0
 40 41  2  0
 41 42  1  0
 41 43  1  0
 43 44  1  0
 44 45  1  0
 44 46  2  0
 46 47  1  0
 19  5  1  0
 37 23  1  0
 46 40  1  0
 16  7  1  0
M  END
>  <UniqueID>  (20) 
613

>  <SMILES>  (20) 
O=c1c2ccccc2nc(/C=C/c2ccsc2)n1CC1CCCCC1

>  <Energy>  (20) 
89.49114686974447

>  <Genealogy>  (20) 
O=c1c2ccccc2nc(/C=C/c2ccsc2)n1CC1CCCCC1 (cis-trans isomerization)
O=c1c2ccccc2nc(/C=C/c2ccsc2)n1CC1CCCCC1 (3D coordinates assigned)
O=c1c2ccccc2nc(/C=C/c2ccsc2)n1CC1CCCCC1 (nonaromatic ring conformer: 89.49114686974447 kcal/mol)

>  <smiles>  (20) 
O=c1c2ccccc2nc(/C=C/c2ccsc2)n1CC1CCCCC1

>  <score_type>  (20) 
oracle

>  <origin>  (20) 
autodockgpu

>  <m_score__min__energy>  (20) 
-6.8200000000000003

>  <m_primary>  (20) 
energy

>  <meeko>  (20) 
{"free_energy": -6.7, "intermolecular_energy": -8.19, "internal_energy": -1.79, "cluster_size": 16, "cluster_id": 1, "rank_in_cluster": 12}

>  <energy>  (20) 
-6.23

>  <cluster_rmsd>  (20) 
1.89

>  <rmsd>  (20) 
271.76

>  <cluster>  (20) 
3

$$$$
WQFRIXFTBLEVTI-ZHACJKMWNA-N
     RDKit          3D

 47 50  0  0  0  0  0  0  0  0999 V2000
  142.2090   79.0609  217.7788 H   0  0  0  0  0  0  0  0  0  0  0  0
  142.0920   79.8000  218.5850 C   0  0  0  0  0  0  0  0  0  0  0  0
  141.7930   79.3530  219.8120 C   0  0  0  0  0  0  0  0  0  0  0  0
  141.5657   80.0785  220.6070 H   0  0  0  0  0  0  0  0  0  0  0  0
  141.7610   77.9000  220.1250 C   0  0  0  0  0  0  0  0  0  0  0  0
  142.6650   77.1080  219.4870 N   0  0  0  0  0  0  0  0  0  0  0  0
  142.7730   75.7870  219.7400 C   0  0  0  0  0  0  0  0  0  0  0  0
  143.7110   75.0150  219.0460 C   0  0  0  0  0  0  0  0  0  0  0  0
  144.3445   75.4798  218.2762 H   0  0  0  0  0  0  0  0  0  0  0  0
  143.8430   73.6530  219.3310 C   0  0  0  0  0  0  0  0  0  0  0  0
  144.5778   73.0457  218.7821 H   0  0  0  0  0  0  0  0  0  0  0  0
  143.0430   73.0620  220.3120 C   0  0  0  0  0  0  0  0  0  0  0  0
  143.1502   71.9902  220.5352 H   0  0  0  0  0  0  0  0  0  0  0  0
  142.1060   73.8300  221.0110 C   0  0  0  0  0  0  0  0  0  0  0  0
  141.4801   73.3624  221.7853 H   0  0  0  0  0  0  0  0  0  0  0  0
  141.9630   75.2030  220.7240 C   0  0  0  0  0  0  0  0  0  0  0  0
  141.0320   76.0180  221.3890 C   0  0  0  0  0  0  0  0  0  0  0  0
  140.3470   75.5210  222.3260 O   0  0  0  0  0  0  0  0  0  0  0  0
  140.8800   77.3440  221.0370 N   0  0  0  0  0  0  0  0  0  0  0  0
  139.7900   78.1380  221.6650 C   0  0  0  0  0  0  0  0  0  0  0  0
  139.5025   78.9361  220.9647 H   0  0  0  0  0  0  0  0  0  0  0  0
  138.9768   77.4284  221.8774 H   0  0  0  0  0  0  0  0  0  0  0  0
  140.1570   78.8010  223.0300 C   0  0  0  0  0  0  0  0  0  0  0  0
  139.5037   78.2718  223.7393 H   0  0  0  0  0  0  0  0  0  0  0  0
  141.5890   78.5110  223.5420 C   0  0  0  0  0  0  0  0  0  0  0  0
  141.5788   78.5814  224.6397 H   0  0  0  0  0  0  0  0  0  0  0  0
  141.8501   77.5098  223.1686 H   0  0  0  0  0  0  0  0  0  0  0  0
  142.6820   79.4650  223.0120 C   0  0  0  0  0  0  0  0  0  0  0  0
  143.4499   79.5775  223.7915 H   0  0  0  0  0  0  0  0  0  0  0  0
  143.0759   79.0142  222.0892 H   0  0  0  0  0  0  0  0  0  0  0  0
  142.1670   80.8630  222.6370 C   0  0  0  0  0  0  0  0  0  0  0  0
  142.9616   81.5994  222.8275 H   0  0  0  0  0  0  0  0  0  0  0  0
  141.8880   80.8536  221.5730 H   0  0  0  0  0  0  0  0  0  0  0  0
  140.9330   81.2430  223.4520 C   0  0  0  0  0  0  0  0  0  0  0  0
  141.1742   81.1757  224.5231 H   0  0  0  0  0  0  0  0  0  0  0  0
  140.6400   82.2698  223.1877 H   0  0  0  0  0  0  0  0  0  0  0  0
  139.7600   80.3030  223.1410 C   0  0  0  0  0  0  0  0  0  0  0  0
  139.0147   80.4043  223.9437 H   0  0  0  0  0  0  0  0  0  0  0  0
  139.3695   80.6001  222.1565 H   0  0  0  0  0  0  0  0  0  0  0  0
  142.2740   81.2300  218.2510 C   0  0  0  0  0  0  0  0  0  0  0  0
  143.3360   81.6590  217.4610 C   0  0  0  0  0  0  0  0  0  0  0  0
  144.1182   81.0164  217.0306 H   0  0  0  0  0  0  0  0  0  0  0  0
  143.2210   83.3240  217.2760 S   0  0  0  0  0  0  0  0  0  0  0  0
  141.8250   83.5270  218.1860 C   0  0  0  0  0  0  0  0  0  0  0  0
  141.3146   84.4820  218.3794 H   0  0  0  0  0  0  0  0  0  0  0  0
  141.4260   82.2830  218.6520 C   0  0  0  0  0  0  0  0  0  0  0  0
  140.5324   82.1320  219.2755 H   0  0  0  0  0  0  0  0  0  0  0  0
  1  2  1  0
  2  3  2  0
  3  4  1  0
  3  5  1  0
  5  6  2  0
  6  7  1  0
  7  8  2  0
  8  9  1  0
  8 10  1  0
 10 11  1  0
 10 12  2  0
 12 13  1  0
 12 14  1  0
 14 15  1  0
 14 16  2  0
 16 17  1  0
 17 18  2  0
 17 19  1  0
 19 20  1  0
 20 21  1  0
 20 22  1  0
 20 23  1  0
 23 24  1  0
 23 25  1  0
 25 26  1  0
 25 27  1  0
 25 28  1  0
 28 29  1  0
 28 30  1  0
 28 31  1  0
 31 32  1  0
 31 33  1  0
 31 34  1  0
 34 35  1  0
 34 36  1  0
 34 37  1  0
 37 38  1  0
 37 39  1  0
  2 40  1  0
 40 41  2  0
 41 42  1  0
 41 43  1  0
 43 44  1  0
 44 45  1  0
 44 46  2  0
 46 47  1  0
 19  5  1  0
 37 23  1  0
 46 40  1  0
 16  7  1  0
M  END
>  <UniqueID>  (21) 
614

>  <SMILES>  (21) 
O=c1c2ccccc2nc(/C=C/c2ccsc2)n1CC1CCCCC1

>  <Energy>  (21) 
90.80405365651839

>  <Genealogy>  (21) 
O=c1c2ccccc2nc(/C=C/c2ccsc2)n1CC1CCCCC1 (cis-trans isomerization)
O=c1c2ccccc2nc(/C=C/c2ccsc2)n1CC1CCCCC1 (3D coordinates assigned)
O=c1c2ccccc2nc(/C=C/c2ccsc2)n1CC1CCCCC1 (nonaromatic ring conformer: 90.80405365651839 kcal/mol)

>  <smiles>  (21) 
O=c1c2ccccc2nc(/C=C/c2ccsc2)n1CC1CCCCC1

>  <score_type>  (21) 
oracle

>  <origin>  (21) 
autodockgpu

>  <m_score__min__energy>  (21) 
-6.8200000000000003

>  <m_primary>  (21) 
energy

>  <meeko>  (21) 
{"free_energy": -6.64, "intermolecular_energy": -8.13, "internal_energy": -1.47, "cluster_size": 2, "cluster_id": 2, "rank_in_cluster": 1}

>  <energy>  (21) 
-6.82

>  <cluster_rmsd>  (21) 
0.0

>  <rmsd>  (21) 
271.0

>  <cluster>  (21) 
1

$$$$
WQFRIXFTBLEVTI-ZHACJKMWNA-N
     RDKit          3D

 47 50  0  0  0  0  0  0  0  0999 V2000
  137.9198   72.6783  221.8538 H   0  0  0  0  0  0  0  0  0  0  0  0
  139.0020   72.8260  221.9840 C   0  0  0  0  0  0  0  0  0  0  0  0
  139.7720   71.7410  222.1470 C   0  0  0  0  0  0  0  0  0  0  0  0
  140.3530   71.3614  221.2936 H   0  0  0  0  0  0  0  0  0  0  0  0
  139.8590   71.0390  223.4540 C   0  0  0  0  0  0  0  0  0  0  0  0
  140.4120   71.7250  224.4910 N   0  0  0  0  0  0  0  0  0  0  0  0
  140.4830   71.2140  225.7390 C   0  0  0  0  0  0  0  0  0  0  0  0
  141.0750   71.9550  226.7670 C   0  0  0  0  0  0  0  0  0  0  0  0
  141.5047   72.9449  226.5538 H   0  0  0  0  0  0  0  0  0  0  0  0
  141.1210   71.4390  228.0640 C   0  0  0  0  0  0  0  0  0  0  0  0
  141.5906   72.0211  228.8706 H   0  0  0  0  0  0  0  0  0  0  0  0
  140.5710   70.1840  228.3380 C   0  0  0  0  0  0  0  0  0  0  0  0
  140.6061   69.7805  229.3607 H   0  0  0  0  0  0  0  0  0  0  0  0
  139.9760   69.4400  227.3140 C   0  0  0  0  0  0  0  0  0  0  0  0
  139.5416   68.4535  227.5332 H   0  0  0  0  0  0  0  0  0  0  0  0
  139.9320   69.9520  226.0020 C   0  0  0  0  0  0  0  0  0  0  0  0
  139.3550   69.2440  224.9350 C   0  0  0  0  0  0  0  0  0  0  0  0
  138.7910   68.1380  225.1730 O   0  0  0  0  0  0  0  0  0  0  0  0
  139.3850   69.7530  223.6530 N   0  0  0  0  0  0  0  0  0  0  0  0
  138.8890   68.9130  222.5300 C   0  0  0  0  0  0  0  0  0  0  0  0
  139.4410   69.1972  221.6220 H   0  0  0  0  0  0  0  0  0  0  0  0
  139.0529   67.8682  222.8326 H   0  0  0  0  0  0  0  0  0  0  0  0
  137.3640   69.0450  222.2300 C   0  0  0  0  0  0  0  0  0  0  0  0
  137.1549   68.1384  221.6432 H   0  0  0  0  0  0  0  0  0  0  0  0
  136.4340   68.9240  223.4620 C   0  0  0  0  0  0  0  0  0  0  0  0
  135.4594   68.5480  223.1173 H   0  0  0  0  0  0  0  0  0  0  0  0
  136.9426   68.2464  224.1636 H   0  0  0  0  0  0  0  0  0  0  0  0
  136.1930   70.2390  224.2340 C   0  0  0  0  0  0  0  0  0  0  0  0
  135.1774   70.2107  224.6556 H   0  0  0  0  0  0  0  0  0  0  0  0
  136.9729   70.3000  225.0073 H   0  0  0  0  0  0  0  0  0  0  0  0
  136.3230   71.5060  223.3730 C   0  0  0  0  0  0  0  0  0  0  0  0
  135.6319   72.2710  223.7566 H   0  0  0  0  0  0  0  0  0  0  0  0
  137.3646   71.8552  223.4287 H   0  0  0  0  0  0  0  0  0  0  0  0
  135.9900   71.2260  221.9100 C   0  0  0  0  0  0  0  0  0  0  0  0
  134.9787   70.7979  221.8466 H   0  0  0  0  0  0  0  0  0  0  0  0
  136.0433   72.1717  221.3508 H   0  0  0  0  0  0  0  0  0  0  0  0
  136.9930   70.2380  221.2980 C   0  0  0  0  0  0  0  0  0  0  0  0
  136.5564   69.8311  220.3739 H   0  0  0  0  0  0  0  0  0  0  0  0
  137.9215   70.8001  221.1191 H   0  0  0  0  0  0  0  0  0  0  0  0
  139.5230   74.2110  221.9690 C   0  0  0  0  0  0  0  0  0  0  0  0
  140.8280   74.4880  221.5730 C   0  0  0  0  0  0  0  0  0  0  0  0
  141.5751   73.7461  221.2545 H   0  0  0  0  0  0  0  0  0  0  0  0
  141.0680   76.1470  221.6640 S   0  0  0  0  0  0  0  0  0  0  0  0
  139.5270   76.5410  222.1980 C   0  0  0  0  0  0  0  0  0  0  0  0
  139.1600   77.5545  222.4175 H   0  0  0  0  0  0  0  0  0  0  0  0
  138.7950   75.3670  222.3150 C   0  0  0  0  0  0  0  0  0  0  0  0
  137.7464   75.3416  222.6463 H   0  0  0  0  0  0  0  0  0  0  0  0
  1  2  1  0
  2  3  2  0
  3  4  1  0
  3  5  1  0
  5  6  2  0
  6  7  1  0
  7  8  2  0
  8  9  1  0
  8 10  1  0
 10 11  1  0
 10 12  2  0
 12 13  1  0
 12 14  1  0
 14 15  1  0
 14 16  2  0
 16 17  1  0
 17 18  2  0
 17 19  1  0
 19 20  1  0
 20 21  1  0
 20 22  1  0
 20 23  1  0
 23 24  1  0
 23 25  1  0
 25 26  1  0
 25 27  1  0
 25 28  1  0
 28 29  1  0
 28 30  1  0
 28 31  1  0
 31 32  1  0
 31 33  1  0
 31 34  1  0
 34 35  1  0
 34 36  1  0
 34 37  1  0
 37 38  1  0
 37 39  1  0
  2 40  1  0
 40 41  2  0
 41 42  1  0
 41 43  1  0
 43 44  1  0
 44 45  1  0
 44 46  2  0
 46 47  1  0
 19  5  1  0
 37 23  1  0
 46 40  1  0
 16  7  1  0
M  END
>  <UniqueID>  (22) 
614

>  <SMILES>  (22) 
O=c1c2ccccc2nc(/C=C/c2ccsc2)n1CC1CCCCC1

>  <Energy>  (22) 
90.80405365651839

>  <Genealogy>  (22) 
O=c1c2ccccc2nc(/C=C/c2ccsc2)n1CC1CCCCC1 (cis-trans isomerization)
O=c1c2ccccc2nc(/C=C/c2ccsc2)n1CC1CCCCC1 (3D coordinates assigned)
O=c1c2ccccc2nc(/C=C/c2ccsc2)n1CC1CCCCC1 (nonaromatic ring conformer: 90.80405365651839 kcal/mol)

>  <smiles>  (22) 
O=c1c2ccccc2nc(/C=C/c2ccsc2)n1CC1CCCCC1

>  <score_type>  (22) 
oracle

>  <origin>  (22) 
autodockgpu

>  <m_score__min__energy>  (22) 
-6.8200000000000003

>  <m_primary>  (22) 
energy

>  <meeko>  (22) 
{"free_energy": -6.73, "intermolecular_energy": -8.22, "internal_energy": -1.73, "cluster_size": 16, "cluster_id": 1, "rank_in_cluster": 10}

>  <energy>  (22) 
-6.82

>  <cluster_rmsd>  (22) 
0.18

>  <rmsd>  (22) 
271.0

>  <cluster>  (22) 
1

$$$$
WQFRIXFTBLEVTI-ZHACJKMWNA-N
     RDKit          3D

 47 50  0  0  0  0  0  0  0  0999 V2000
  141.6509   72.5811  221.5306 H   0  0  0  0  0  0  0  0  0  0  0  0
  140.5910   72.6710  221.8110 C   0  0  0  0  0  0  0  0  0  0  0  0
  139.9100   71.5470  222.0760 C   0  0  0  0  0  0  0  0  0  0  0  0
  139.2949   71.0931  221.2850 H   0  0  0  0  0  0  0  0  0  0  0  0
  139.9660   70.8990  223.4130 C   0  0  0  0  0  0  0  0  0  0  0  0
  140.5150   71.6200  224.4280 N   0  0  0  0  0  0  0  0  0  0  0  0
  140.5600   71.1620  225.6970 C   0  0  0  0  0  0  0  0  0  0  0  0
  141.1490   71.9370  226.7020 C   0  0  0  0  0  0  0  0  0  0  0  0
  141.5982   72.9099  226.4536 H   0  0  0  0  0  0  0  0  0  0  0  0
  141.1670   71.4760  228.0210 C   0  0  0  0  0  0  0  0  0  0  0  0
  141.6331   72.0846  228.8099 H   0  0  0  0  0  0  0  0  0  0  0  0
  140.5930   70.2420  228.3380 C   0  0  0  0  0  0  0  0  0  0  0  0
  140.6077   69.8809  229.3769 H   0  0  0  0  0  0  0  0  0  0  0  0
  140.0000   69.4650  227.3380 C   0  0  0  0  0  0  0  0  0  0  0  0
  139.5453   68.4962  227.5925 H   0  0  0  0  0  0  0  0  0  0  0  0
  139.9840   69.9210  226.0050 C   0  0  0  0  0  0  0  0  0  0  0  0
  139.4110   69.1770  224.9610 C   0  0  0  0  0  0  0  0  0  0  0  0
  138.8260   68.0910  225.2360 O   0  0  0  0  0  0  0  0  0  0  0  0
  139.4690   69.6310  223.6590 N   0  0  0  0  0  0  0  0  0  0  0  0
  138.9760   68.7520  222.5640 C   0  0  0  0  0  0  0  0  0  0  0  0
  139.5776   68.9560  221.6660 H   0  0  0  0  0  0  0  0  0  0  0  0
  139.0744   67.7198  222.9313 H   0  0  0  0  0  0  0  0  0  0  0  0
  137.4730   68.9400  222.1920 C   0  0  0  0  0  0  0  0  0  0  0  0
  137.2508   68.0282  221.6182 H   0  0  0  0  0  0  0  0  0  0  0  0
  136.4850   68.8900  223.3830 C   0  0  0  0  0  0  0  0  0  0  0  0
  135.5114   68.5461  223.0038 H   0  0  0  0  0  0  0  0  0  0  0  0
  136.9320   68.2101  224.1233 H   0  0  0  0  0  0  0  0  0  0  0  0
  136.2670   70.2350  224.1110 C   0  0  0  0  0  0  0  0  0  0  0  0
  135.2333   70.2608  224.4863 H   0  0  0  0  0  0  0  0  0  0  0  0
  137.0139   70.2833  224.9171 H   0  0  0  0  0  0  0  0  0  0  0  0
  136.4900   71.4720  223.2270 C   0  0  0  0  0  0  0  0  0  0  0  0
  135.8166   72.2754  223.5603 H   0  0  0  0  0  0  0  0  0  0  0  0
  137.5423   71.7782  223.3215 H   0  0  0  0  0  0  0  0  0  0  0  0
  136.2100   71.1680  221.7570 C   0  0  0  0  0  0  0  0  0  0  0  0
  135.1850   70.7811  221.6582 H   0  0  0  0  0  0  0  0  0  0  0  0
  136.3282   72.0956  221.1777 H   0  0  0  0  0  0  0  0  0  0  0  0
  137.1960   70.1230  221.2160 C   0  0  0  0  0  0  0  0  0  0  0  0
  136.7844   69.7111  220.2828 H   0  0  0  0  0  0  0  0  0  0  0  0
  138.1550   70.6408  221.0670 H   0  0  0  0  0  0  0  0  0  0  0  0
  139.9990   74.0250  221.8740 C   0  0  0  0  0  0  0  0  0  0  0  0
  140.7960   75.1650  221.8350 C   0  0  0  0  0  0  0  0  0  0  0  0
  141.8938   75.1804  221.7666 H   0  0  0  0  0  0  0  0  0  0  0  0
  139.7980   76.5130  221.9100 S   0  0  0  0  0  0  0  0  0  0  0  0
  138.3440   75.6770  221.9860 C   0  0  0  0  0  0  0  0  0  0  0  0
  137.3430   76.1285  222.0501 H   0  0  0  0  0  0  0  0  0  0  0  0
  138.6230   74.3190  221.9540 C   0  0  0  0  0  0  0  0  0  0  0  0
  137.8433   73.5438  221.9879 H   0  0  0  0  0  0  0  0  0  0  0  0
  1  2  1  0
  2  3  2  0
  3  4  1  0
  3  5  1  0
  5  6  2  0
  6  7  1  0
  7  8  2  0
  8  9  1  0
  8 10  1  0
 10 11  1  0
 10 12  2  0
 12 13  1  0
 12 14  1  0
 14 15  1  0
 14 16  2  0
 16 17  1  0
 17 18  2  0
 17 19  1  0
 19 20  1  0
 20 21  1  0
 20 22  1  0
 20 23  1  0
 23 24  1  0
 23 25  1  0
 25 26  1  0
 25 27  1  0
 25 28  1  0
 28 29  1  0
 28 30  1  0
 28 31  1  0
 31 32  1  0
 31 33  1  0
 31 34  1  0
 34 35  1  0
 34 36  1  0
 34 37  1  0
 37 38  1  0
 37 39  1  0
  2 40  1  0
 40 41  2  0
 41 42  1  0
 41 43  1  0
 43 44  1  0
 44 45  1  0
 44 46  2  0
 46 47  1  0
 19  5  1  0
 37 23  1  0
 46 40  1  0
 16  7  1  0
M  END
>  <UniqueID>  (23) 
614

>  <SMILES>  (23) 
O=c1c2ccccc2nc(/C=C/c2ccsc2)n1CC1CCCCC1

>  <Energy>  (23) 
90.80405365651839

>  <Genealogy>  (23) 
O=c1c2ccccc2nc(/C=C/c2ccsc2)n1CC1CCCCC1 (cis-trans isomerization)
O=c1c2ccccc2nc(/C=C/c2ccsc2)n1CC1CCCCC1 (3D coordinates assigned)
O=c1c2ccccc2nc(/C=C/c2ccsc2)n1CC1CCCCC1 (nonaromatic ring conformer: 90.80405365651839 kcal/mol)

>  <smiles>  (23) 
O=c1c2ccccc2nc(/C=C/c2ccsc2)n1CC1CCCCC1

>  <score_type>  (23) 
oracle

>  <origin>  (23) 
autodockgpu

>  <m_score__min__energy>  (23) 
-6.8200000000000003

>  <m_primary>  (23) 
energy

>  <meeko>  (23) 
{"free_energy": -6.65, "intermolecular_energy": -8.14, "internal_energy": -1.83, "cluster_size": 16, "cluster_id": 1, "rank_in_cluster": 16}

>  <energy>  (23) 
-6.81

>  <cluster_rmsd>  (23) 
0.43

>  <rmsd>  (23) 
271.02

>  <cluster>  (23) 
1

$$$$
WQFRIXFTBLEVTI-ZHACJKMWNA-N
     RDKit          3D

 47 50  0  0  0  0  0  0  0  0999 V2000
  141.5743   72.2664  221.4746 H   0  0  0  0  0  0  0  0  0  0  0  0
  140.5780   72.6070  221.7930 C   0  0  0  0  0  0  0  0  0  0  0  0
  139.6890   71.6820  222.1800 C   0  0  0  0  0  0  0  0  0  0  0  0
  138.8441   71.4398  221.5186 H   0  0  0  0  0  0  0  0  0  0  0  0
  139.8170   70.9750  223.4820 C   0  0  0  0  0  0  0  0  0  0  0  0
  140.3790   71.6660  224.5100 N   0  0  0  0  0  0  0  0  0  0  0  0
  140.4870   71.1510  225.7530 C   0  0  0  0  0  0  0  0  0  0  0  0
  141.0870   71.8990  226.7720 C   0  0  0  0  0  0  0  0  0  0  0  0
  141.4933   72.8979  226.5549 H   0  0  0  0  0  0  0  0  0  0  0  0
  141.1700   71.3770  228.0650 C   0  0  0  0  0  0  0  0  0  0  0  0
  141.6453   71.9639  228.8648 H   0  0  0  0  0  0  0  0  0  0  0  0
  140.6500   70.1100  228.3440 C   0  0  0  0  0  0  0  0  0  0  0  0
  140.7160   69.7019  229.3634 H   0  0  0  0  0  0  0  0  0  0  0  0
  140.0460   69.3600  227.3300 C   0  0  0  0  0  0  0  0  0  0  0  0
  139.6337   68.3650  227.5537 H   0  0  0  0  0  0  0  0  0  0  0  0
  139.9650   69.8780  226.0210 C   0  0  0  0  0  0  0  0  0  0  0  0
  139.3780   69.1630  224.9640 C   0  0  0  0  0  0  0  0  0  0  0  0
  138.8410   68.0460  225.2080 O   0  0  0  0  0  0  0  0  0  0  0  0
  139.3720   69.6790  223.6840 N   0  0  0  0  0  0  0  0  0  0  0  0
  138.8680   68.8360  222.5670 C   0  0  0  0  0  0  0  0  0  0  0  0
  139.4371   69.0939  221.6617 H   0  0  0  0  0  0  0  0  0  0  0  0
  139.0025   67.7919  222.8860 H   0  0  0  0  0  0  0  0  0  0  0  0
  137.3490   69.0010  222.2470 C   0  0  0  0  0  0  0  0  0  0  0  0
  137.1249   68.0958  221.6636 H   0  0  0  0  0  0  0  0  0  0  0  0
  136.4020   68.9100  223.4690 C   0  0  0  0  0  0  0  0  0  0  0  0
  135.4230   68.5539  223.1157 H   0  0  0  0  0  0  0  0  0  0  0  0
  136.8859   68.2257  224.1814 H   0  0  0  0  0  0  0  0  0  0  0  0
  136.1830   70.2370  224.2280 C   0  0  0  0  0  0  0  0  0  0  0  0
  135.1621   70.2359  224.6375 H   0  0  0  0  0  0  0  0  0  0  0  0
  136.9553   70.2855  225.0097 H   0  0  0  0  0  0  0  0  0  0  0  0
  136.3530   71.4940  223.3600 C   0  0  0  0  0  0  0  0  0  0  0  0
  135.6755   72.2778  223.7297 H   0  0  0  0  0  0  0  0  0  0  0  0
  137.4018   71.8192  223.4259 H   0  0  0  0  0  0  0  0  0  0  0  0
  136.0310   71.2110  221.8950 C   0  0  0  0  0  0  0  0  0  0  0  0
  135.0107   70.8063  221.8223 H   0  0  0  0  0  0  0  0  0  0  0  0
  136.1130   72.1509  221.3295 H   0  0  0  0  0  0  0  0  0  0  0  0
  137.0180   70.1950  221.3030 C   0  0  0  0  0  0  0  0  0  0  0  0
  136.5836   69.7918  220.3763 H   0  0  0  0  0  0  0  0  0  0  0  0
  137.9617   70.7338  221.1324 H   0  0  0  0  0  0  0  0  0  0  0  0
  140.2980   74.0590  221.7690 C   0  0  0  0  0  0  0  0  0  0  0  0
  139.0100   74.5510  221.9640 C   0  0  0  0  0  0  0  0  0  0  0  0
  138.1089   73.9444  222.1377 H   0  0  0  0  0  0  0  0  0  0  0  0
  139.0660   76.2270  221.8890 S   0  0  0  0  0  0  0  0  0  0  0  0
  140.7170   76.3570  221.6140 C   0  0  0  0  0  0  0  0  0  0  0  0
  141.2773   77.2948  221.4853 H   0  0  0  0  0  0  0  0  0  0  0  0
  141.2530   75.0780  221.5770 C   0  0  0  0  0  0  0  0  0  0  0  0
  142.3222   74.8779  221.4133 H   0  0  0  0  0  0  0  0  0  0  0  0
  1  2  1  0
  2  3  2  0
  3  4  1  0
  3  5  1  0
  5  6  2  0
  6  7  1  0
  7  8  2  0
  8  9  1  0
  8 10  1  0
 10 11  1  0
 10 12  2  0
 12 13  1  0
 12 14  1  0
 14 15  1  0
 14 16  2  0
 16 17  1  0
 17 18  2  0
 17 19  1  0
 19 20  1  0
 20 21  1  0
 20 22  1  0
 20 23  1  0
 23 24  1  0
 23 25  1  0
 25 26  1  0
 25 27  1  0
 25 28  1  0
 28 29  1  0
 28 30  1  0
 28 31  1  0
 31 32  1  0
 31 33  1  0
 31 34  1  0
 34 35  1  0
 34 36  1  0
 34 37  1  0
 37 38  1  0
 37 39  1  0
  2 40  1  0
 40 41  2  0
 41 42  1  0
 41 43  1  0
 43 44  1  0
 44 45  1  0
 44 46  2  0
 46 47  1  0
 19  5  1  0
 37 23  1  0
 46 40  1  0
 16  7  1  0
M  END
>  <UniqueID>  (24) 
614

>  <SMILES>  (24) 
O=c1c2ccccc2nc(/C=C/c2ccsc2)n1CC1CCCCC1

>  <Energy>  (24) 
90.80405365651839

>  <Genealogy>  (24) 
O=c1c2ccccc2nc(/C=C/c2ccsc2)n1CC1CCCCC1 (cis-trans isomerization)
O=c1c2ccccc2nc(/C=C/c2ccsc2)n1CC1CCCCC1 (3D coordinates assigned)
O=c1c2ccccc2nc(/C=C/c2ccsc2)n1CC1CCCCC1 (nonaromatic ring conformer: 90.80405365651839 kcal/mol)

>  <smiles>  (24) 
O=c1c2ccccc2nc(/C=C/c2ccsc2)n1CC1CCCCC1

>  <score_type>  (24) 
oracle

>  <origin>  (24) 
autodockgpu

>  <m_score__min__energy>  (24) 
-6.8200000000000003

>  <m_primary>  (24) 
energy

>  <meeko>  (24) 
{"free_energy": -6.82, "intermolecular_energy": -8.31, "internal_energy": -1.7, "cluster_size": 16, "cluster_id": 1, "rank_in_cluster": 1}

>  <energy>  (24) 
-6.81

>  <cluster_rmsd>  (24) 
0.43

>  <rmsd>  (24) 
271.01

>  <cluster>  (24) 
1

$$$$
WQFRIXFTBLEVTI-ZHACJKMWNA-N
     RDKit          3D

 47 50  0  0  0  0  0  0  0  0999 V2000
  141.6576   72.7660  221.7495 H   0  0  0  0  0  0  0  0  0  0  0  0
  140.5780   72.8560  221.9400 C   0  0  0  0  0  0  0  0  0  0  0  0
  139.8790   71.7330  222.1560 C   0  0  0  0  0  0  0  0  0  0  0  0
  139.2483   71.3295  221.3501 H   0  0  0  0  0  0  0  0  0  0  0  0
  139.9360   71.0200  223.4590 C   0  0  0  0  0  0  0  0  0  0  0  0
  140.4740   71.6940  224.5120 N   0  0  0  0  0  0  0  0  0  0  0  0
  140.5170   71.1730  225.7560 C   0  0  0  0  0  0  0  0  0  0  0  0
  141.0950   71.9020  226.8010 C   0  0  0  0  0  0  0  0  0  0  0  0
  141.5361   72.8902  226.6039 H   0  0  0  0  0  0  0  0  0  0  0  0
  141.1120   71.3750  228.0950 C   0  0  0  0  0  0  0  0  0  0  0  0
  141.5710   71.9469  228.9149 H   0  0  0  0  0  0  0  0  0  0  0  0
  140.5470   70.1230  228.3490 C   0  0  0  0  0  0  0  0  0  0  0  0
  140.5598   69.7114  229.3690 H   0  0  0  0  0  0  0  0  0  0  0  0
  139.9650   69.3920  227.3080 C   0  0  0  0  0  0  0  0  0  0  0  0
  139.5175   68.4080  227.5115 H   0  0  0  0  0  0  0  0  0  0  0  0
  139.9510   69.9140  225.9990 C   0  0  0  0  0  0  0  0  0  0  0  0
  139.3890   69.2180  224.9160 C   0  0  0  0  0  0  0  0  0  0  0  0
  138.8120   68.1150  225.1350 O   0  0  0  0  0  0  0  0  0  0  0  0
  139.4480   69.7370  223.6390 N   0  0  0  0  0  0  0  0  0  0  0  0
  138.9680   68.9100  222.5000 C   0  0  0  0  0  0  0  0  0  0  0  0
  139.5657   69.1703  221.6140 H   0  0  0  0  0  0  0  0  0  0  0  0
  139.0825   67.8616  222.8126 H   0  0  0  0  0  0  0  0  0  0  0  0
  137.4610   69.0940  222.1380 C   0  0  0  0  0  0  0  0  0  0  0  0
  137.2655   68.2384  221.4748 H   0  0  0  0  0  0  0  0  0  0  0  0
  136.4700   68.9000  223.3130 C   0  0  0  0  0  0  0  0  0  0  0  0
  135.5072   68.5701  222.8958 H   0  0  0  0  0  0  0  0  0  0  0  0
  136.9322   68.1619  223.9849 H   0  0  0  0  0  0  0  0  0  0  0  0
  136.2140   70.1600  224.1690 C   0  0  0  0  0  0  0  0  0  0  0  0
  135.1788   70.1215  224.5389 H   0  0  0  0  0  0  0  0  0  0  0  0
  136.9567   70.1477  224.9803 H   0  0  0  0  0  0  0  0  0  0  0  0
  136.4070   71.4840  223.4130 C   0  0  0  0  0  0  0  0  0  0  0  0
  135.7115   72.2326  223.8202 H   0  0  0  0  0  0  0  0  0  0  0  0
  137.4505   71.8066  223.5434 H   0  0  0  0  0  0  0  0  0  0  0  0
  136.1400   71.3200  221.9190 C   0  0  0  0  0  0  0  0  0  0  0  0
  135.1262   70.9177  221.7763 H   0  0  0  0  0  0  0  0  0  0  0  0
  136.2348   72.3032  221.4350 H   0  0  0  0  0  0  0  0  0  0  0  0
  137.1560   70.3600  221.2830 C   0  0  0  0  0  0  0  0  0  0  0  0
  136.7590   70.0322  220.3109 H   0  0  0  0  0  0  0  0  0  0  0  0
  138.1013   70.9152  221.1924 H   0  0  0  0  0  0  0  0  0  0  0  0
  139.9810   74.2100  221.9430 C   0  0  0  0  0  0  0  0  0  0  0  0
  138.6020   74.3930  221.9690 C   0  0  0  0  0  0  0  0  0  0  0  0
  137.8469   73.5931  221.9793 H   0  0  0  0  0  0  0  0  0  0  0  0
  138.2860   76.0420  221.9820 S   0  0  0  0  0  0  0  0  0  0  0  0
  139.8860   76.5500  221.9610 C   0  0  0  0  0  0  0  0  0  0  0  0
  140.2311   77.5945  221.9614 H   0  0  0  0  0  0  0  0  0  0  0  0
  140.6980   75.4250  221.9430 C   0  0  0  0  0  0  0  0  0  0  0  0
  141.7968   75.4757  221.9300 H   0  0  0  0  0  0  0  0  0  0  0  0
  1  2  1  0
  2  3  2  0
  3  4  1  0
  3  5  1  0
  5  6  2  0
  6  7  1  0
  7  8  2  0
  8  9  1  0
  8 10  1  0
 10 11  1  0
 10 12  2  0
 12 13  1  0
 12 14  1  0
 14 15  1  0
 14 16  2  0
 16 17  1  0
 17 18  2  0
 17 19  1  0
 19 20  1  0
 20 21  1  0
 20 22  1  0
 20 23  1  0
 23 24  1  0
 23 25  1  0
 25 26  1  0
 25 27  1  0
 25 28  1  0
 28 29  1  0
 28 30  1  0
 28 31  1  0
 31 32  1  0
 31 33  1  0
 31 34  1  0
 34 35  1  0
 34 36  1  0
 34 37  1  0
 37 38  1  0
 37 39  1  0
  2 40  1  0
 40 41  2  0
 41 42  1  0
 41 43  1  0
 43 44  1  0
 44 45  1  0
 44 46  2  0
 46 47  1  0
 19  5  1  0
 37 23  1  0
 46 40  1  0
 16  7  1  0
M  END
>  <UniqueID>  (25) 
614

>  <SMILES>  (25) 
O=c1c2ccccc2nc(/C=C/c2ccsc2)n1CC1CCCCC1

>  <Energy>  (25) 
90.80405365651839

>  <Genealogy>  (25) 
O=c1c2ccccc2nc(/C=C/c2ccsc2)n1CC1CCCCC1 (cis-trans isomerization)
O=c1c2ccccc2nc(/C=C/c2ccsc2)n1CC1CCCCC1 (3D coordinates assigned)
O=c1c2ccccc2nc(/C=C/c2ccsc2)n1CC1CCCCC1 (nonaromatic ring conformer: 90.80405365651839 kcal/mol)

>  <smiles>  (25) 
O=c1c2ccccc2nc(/C=C/c2ccsc2)n1CC1CCCCC1

>  <score_type>  (25) 
oracle

>  <origin>  (25) 
autodockgpu

>  <m_score__min__energy>  (25) 
-6.8200000000000003

>  <m_primary>  (25) 
energy

>  <meeko>  (25) 
{"free_energy": -6.74, "intermolecular_energy": -8.23, "internal_energy": -1.79, "cluster_size": 16, "cluster_id": 1, "rank_in_cluster": 9}

>  <energy>  (25) 
-6.8

>  <cluster_rmsd>  (25) 
0.43

>  <rmsd>  (25) 
271.01

>  <cluster>  (25) 
1

$$$$
WQFRIXFTBLEVTI-ZHACJKMWNA-N
     RDKit          3D

 47 50  0  0  0  0  0  0  0  0999 V2000
  138.7201   78.2170  223.8826 H   0  0  0  0  0  0  0  0  0  0  0  0
  139.4500   78.3110  223.0650 C   0  0  0  0  0  0  0  0  0  0  0  0
  139.2910   77.5340  221.9850 C   0  0  0  0  0  0  0  0  0  0  0  0
  138.3864   77.6481  221.3696 H   0  0  0  0  0  0  0  0  0  0  0  0
  140.3090   76.5210  221.5990 C   0  0  0  0  0  0  0  0  0  0  0  0
  140.0690   75.2320  221.9620 N   0  0  0  0  0  0  0  0  0  0  0  0
  140.8880   74.2180  221.6090 C   0  0  0  0  0  0  0  0  0  0  0  0
  140.6030   72.9120  222.0210 C   0  0  0  0  0  0  0  0  0  0  0  0
  139.7244   72.7137  222.6525 H   0  0  0  0  0  0  0  0  0  0  0  0
  141.4350   71.8590  221.6300 C   0  0  0  0  0  0  0  0  0  0  0  0
  141.2134   70.8327  221.9579 H   0  0  0  0  0  0  0  0  0  0  0  0
  142.5480   72.1090  220.8230 C   0  0  0  0  0  0  0  0  0  0  0  0
  143.1998   71.2784  220.5143 H   0  0  0  0  0  0  0  0  0  0  0  0
  142.8350   73.4130  220.4070 C   0  0  0  0  0  0  0  0  0  0  0  0
  143.7104   73.6058  219.7694 H   0  0  0  0  0  0  0  0  0  0  0  0
  142.0050   74.4800  220.8030 C   0  0  0  0  0  0  0  0  0  0  0  0
  142.2520   75.8090  220.4220 C   0  0  0  0  0  0  0  0  0  0  0  0
  143.2130   76.0480  219.6370 O   0  0  0  0  0  0  0  0  0  0  0  0
  141.4500   76.8340  220.8800 N   0  0  0  0  0  0  0  0  0  0  0  0
  141.8250   78.2390  220.5690 C   0  0  0  0  0  0  0  0  0  0  0  0
  141.3767   78.8890  221.3348 H   0  0  0  0  0  0  0  0  0  0  0  0
  142.9246   78.2680  220.5594 H   0  0  0  0  0  0  0  0  0  0  0  0
  141.3640   78.7520  219.1690 C   0  0  0  0  0  0  0  0  0  0  0  0
  141.0173   77.8314  218.6768 H   0  0  0  0  0  0  0  0  0  0  0  0
  140.1180   79.6720  219.1790 C   0  0  0  0  0  0  0  0  0  0  0  0
  139.6118   79.5701  218.2077 H   0  0  0  0  0  0  0  0  0  0  0  0
  139.5035   79.3450  220.0308 H   0  0  0  0  0  0  0  0  0  0  0  0
  140.4100   81.1710  219.4110 C   0  0  0  0  0  0  0  0  0  0  0  0
  139.6619   81.7581  218.8582 H   0  0  0  0  0  0  0  0  0  0  0  0
  140.3640   81.3384  220.4972 H   0  0  0  0  0  0  0  0  0  0  0  0
  141.8080   81.6170  218.9530 C   0  0  0  0  0  0  0  0  0  0  0  0
  141.7556   82.6609  218.6103 H   0  0  0  0  0  0  0  0  0  0  0  0
  142.4976   81.5181  219.8042 H   0  0  0  0  0  0  0  0  0  0  0  0
  142.3280   80.7460  217.8120 C   0  0  0  0  0  0  0  0  0  0  0  0
  141.6054   80.7697  216.9830 H   0  0  0  0  0  0  0  0  0  0  0  0
  143.3016   81.1401  217.4853 H   0  0  0  0  0  0  0  0  0  0  0  0
  142.5170   79.2940  218.2720 C   0  0  0  0  0  0  0  0  0  0  0  0
  142.5881   78.6558  217.3789 H   0  0  0  0  0  0  0  0  0  0  0  0
  143.4302   79.2734  218.8849 H   0  0  0  0  0  0  0  0  0  0  0  0
  140.5500   79.2880  223.2220 C   0  0  0  0  0  0  0  0  0  0  0  0
  140.3960   80.6180  222.8430 C   0  0  0  0  0  0  0  0  0  0  0  0
  139.4911   81.0602  222.4008 H   0  0  0  0  0  0  0  0  0  0  0  0
  141.8250   81.4330  223.1750 S   0  0  0  0  0  0  0  0  0  0  0  0
  142.6580   80.1210  223.8090 C   0  0  0  0  0  0  0  0  0  0  0  0
  143.6894   80.1354  224.1911 H   0  0  0  0  0  0  0  0  0  0  0  0
  141.8210   79.0150  223.7680 C   0  0  0  0  0  0  0  0  0  0  0  0
  142.1207   78.0195  224.1274 H   0  0  0  0  0  0  0  0  0  0  0  0
  1  2  1  0
  2  3  2  0
  3  4  1  0
  3  5  1  0
  5  6  2  0
  6  7  1  0
  7  8  2  0
  8  9  1  0
  8 10  1  0
 10 11  1  0
 10 12  2  0
 12 13  1  0
 12 14  1  0
 14 15  1  0
 14 16  2  0
 16 17  1  0
 17 18  2  0
 17 19  1  0
 19 20  1  0
 20 21  1  0
 20 22  1  0
 20 23  1  0
 23 24  1  0
 23 25  1  0
 25 26  1  0
 25 27  1  0
 25 28  1  0
 28 29  1  0
 28 30  1  0
 28 31  1  0
 31 32  1  0
 31 33  1  0
 31 34  1  0
 34 35  1  0
 34 36  1  0
 34 37  1  0
 37 38  1  0
 37 39  1  0
  2 40  1  0
 40 41  2  0
 41 42  1  0
 41 43  1  0
 43 44  1  0
 44 45  1  0
 44 46  2  0
 46 47  1  0
 19  5  1  0
 37 23  1  0
 46 40  1  0
 16  7  1  0
M  END
>  <UniqueID>  (26) 
614

>  <SMILES>  (26) 
O=c1c2ccccc2nc(/C=C/c2ccsc2)n1CC1CCCCC1

>  <Energy>  (26) 
90.80405365651839

>  <Genealogy>  (26) 
O=c1c2ccccc2nc(/C=C/c2ccsc2)n1CC1CCCCC1 (cis-trans isomerization)
O=c1c2ccccc2nc(/C=C/c2ccsc2)n1CC1CCCCC1 (3D coordinates assigned)
O=c1c2ccccc2nc(/C=C/c2ccsc2)n1CC1CCCCC1 (nonaromatic ring conformer: 90.80405365651839 kcal/mol)

>  <smiles>  (26) 
O=c1c2ccccc2nc(/C=C/c2ccsc2)n1CC1CCCCC1

>  <score_type>  (26) 
oracle

>  <origin>  (26) 
autodockgpu

>  <m_score__min__energy>  (26) 
-6.8200000000000003

>  <m_primary>  (26) 
energy

>  <meeko>  (26) 
{"free_energy": -6.31, "intermolecular_energy": -7.8, "internal_energy": -1.7, "cluster_size": 2, "cluster_id": 3, "rank_in_cluster": 1}

>  <energy>  (26) 
-6.8

>  <cluster_rmsd>  (26) 
0.1

>  <rmsd>  (26) 
270.97

>  <cluster>  (26) 
1

$$$$
WQFRIXFTBLEVTI-ZHACJKMWNA-N
     RDKit          3D

 47 50  0  0  0  0  0  0  0  0999 V2000
  141.7124   72.2459  221.4459 H   0  0  0  0  0  0  0  0  0  0  0  0
  140.6900   72.5100  221.7540 C   0  0  0  0  0  0  0  0  0  0  0  0
  139.8570   71.5170  222.0950 C   0  0  0  0  0  0  0  0  0  0  0  0
  139.1031   71.1756  221.3703 H   0  0  0  0  0  0  0  0  0  0  0  0
  139.9280   70.8660  223.4300 C   0  0  0  0  0  0  0  0  0  0  0  0
  140.4920   71.5820  224.4400 N   0  0  0  0  0  0  0  0  0  0  0  0
  140.5520   71.1200  225.7070 C   0  0  0  0  0  0  0  0  0  0  0  0
  141.1560   71.8910  226.7060 C   0  0  0  0  0  0  0  0  0  0  0  0
  141.6042   72.8635  226.4545 H   0  0  0  0  0  0  0  0  0  0  0  0
  141.1900   71.4260  228.0230 C   0  0  0  0  0  0  0  0  0  0  0  0
  141.6692   72.0307  228.8070 H   0  0  0  0  0  0  0  0  0  0  0  0
  140.6160   70.1940  228.3450 C   0  0  0  0  0  0  0  0  0  0  0  0
  140.6423   69.8310  229.3830 H   0  0  0  0  0  0  0  0  0  0  0  0
  140.0080   69.4210  227.3510 C   0  0  0  0  0  0  0  0  0  0  0  0
  139.5541   68.4527  227.6088 H   0  0  0  0  0  0  0  0  0  0  0  0
  139.9760   69.8810  226.0190 C   0  0  0  0  0  0  0  0  0  0  0  0
  139.3870   69.1410  224.9800 C   0  0  0  0  0  0  0  0  0  0  0  0
  138.8020   68.0570  225.2600 O   0  0  0  0  0  0  0  0  0  0  0  0
  139.4300   69.5980  223.6790 N   0  0  0  0  0  0  0  0  0  0  0  0
  138.9200   68.7240  222.5880 C   0  0  0  0  0  0  0  0  0  0  0  0
  139.5184   68.9202  221.6861 H   0  0  0  0  0  0  0  0  0  0  0  0
  139.0085   67.6911  222.9558 H   0  0  0  0  0  0  0  0  0  0  0  0
  137.4170   68.9290  222.2250 C   0  0  0  0  0  0  0  0  0  0  0  0
  137.1747   68.0085  221.6736 H   0  0  0  0  0  0  0  0  0  0  0  0
  136.4390   68.9220  223.4250 C   0  0  0  0  0  0  0  0  0  0  0  0
  135.4564   68.5865  223.0617 H   0  0  0  0  0  0  0  0  0  0  0  0
  136.8811   68.2511  224.1763 H   0  0  0  0  0  0  0  0  0  0  0  0
  136.2500   70.2860  224.1250 C   0  0  0  0  0  0  0  0  0  0  0  0
  135.2202   70.3376  224.5083 H   0  0  0  0  0  0  0  0  0  0  0  0
  137.0045   70.3393  224.9237 H   0  0  0  0  0  0  0  0  0  0  0  0
  136.4860   71.4990  223.2120 C   0  0  0  0  0  0  0  0  0  0  0  0
  135.8293   72.3210  223.5332 H   0  0  0  0  0  0  0  0  0  0  0  0
  137.5442   71.7889  223.2906 H   0  0  0  0  0  0  0  0  0  0  0  0
  136.1880   71.1680  221.7520 C   0  0  0  0  0  0  0  0  0  0  0  0
  135.1558   70.7967  221.6704 H   0  0  0  0  0  0  0  0  0  0  0  0
  136.3168   72.0806  221.1515 H   0  0  0  0  0  0  0  0  0  0  0  0
  137.1510   70.0950  221.2260 C   0  0  0  0  0  0  0  0  0  0  0  0
  136.7241   69.6699  220.3057 H   0  0  0  0  0  0  0  0  0  0  0  0
  138.1172   70.5931  221.0577 H   0  0  0  0  0  0  0  0  0  0  0  0
  140.3140   73.9410  221.7680 C   0  0  0  0  0  0  0  0  0  0  0  0
  138.9980   74.3410  221.9760 C   0  0  0  0  0  0  0  0  0  0  0  0
  138.1396   73.6716  222.1340 H   0  0  0  0  0  0  0  0  0  0  0  0
  138.9420   76.0190  221.9450 S   0  0  0  0  0  0  0  0  0  0  0  0
  140.5810   76.2650  221.6740 C   0  0  0  0  0  0  0  0  0  0  0  0
  141.0782   77.2408  221.5706 H   0  0  0  0  0  0  0  0  0  0  0  0
  141.2000   75.0250  221.6030 C   0  0  0  0  0  0  0  0  0  0  0  0
  142.2797   74.8998  221.4340 H   0  0  0  0  0  0  0  0  0  0  0  0
  1  2  1  0
  2  3  2  0
  3  4  1  0
  3  5  1  0
  5  6  2  0
  6  7  1  0
  7  8  2  0
  8  9  1  0
  8 10  1  0
 10 11  1  0
 10 12  2  0
 12 13  1  0
 12 14  1  0
 14 15  1  0
 14 16  2  0
 16 17  1  0
 17 18  2  0
 17 19  1  0
 19 20  1  0
 20 21  1  0
 20 22  1  0
 20 23  1  0
 23 24  1  0
 23 25  1  0
 25 26  1  0
 25 27  1  0
 25 28  1  0
 28 29  1  0
 28 30  1  0
 28 31  1  0
 31 32  1  0
 31 33  1  0
 31 34  1  0
 34 35  1  0
 34 36  1  0
 34 37  1  0
 37 38  1  0
 37 39  1  0
  2 40  1  0
 40 41  2  0
 41 42  1  0
 41 43  1  0
 43 44  1  0
 44 45  1  0
 44 46  2  0
 46 47  1  0
 19  5  1  0
 37 23  1  0
 46 40  1  0
 16  7  1  0
M  END
>  <UniqueID>  (27) 
614

>  <SMILES>  (27) 
O=c1c2ccccc2nc(/C=C/c2ccsc2)n1CC1CCCCC1

>  <Energy>  (27) 
90.80405365651839

>  <Genealogy>  (27) 
O=c1c2ccccc2nc(/C=C/c2ccsc2)n1CC1CCCCC1 (cis-trans isomerization)
O=c1c2ccccc2nc(/C=C/c2ccsc2)n1CC1CCCCC1 (3D coordinates assigned)
O=c1c2ccccc2nc(/C=C/c2ccsc2)n1CC1CCCCC1 (nonaromatic ring conformer: 90.80405365651839 kcal/mol)

>  <smiles>  (27) 
O=c1c2ccccc2nc(/C=C/c2ccsc2)n1CC1CCCCC1

>  <score_type>  (27) 
oracle

>  <origin>  (27) 
autodockgpu

>  <m_score__min__energy>  (27) 
-6.8200000000000003

>  <m_primary>  (27) 
energy

>  <meeko>  (27) 
{"free_energy": -6.76, "intermolecular_energy": -8.26, "internal_energy": -1.76, "cluster_size": 16, "cluster_id": 1, "rank_in_cluster": 7}

>  <energy>  (27) 
-6.76

>  <cluster_rmsd>  (27) 
0.14

>  <rmsd>  (27) 
270.99

>  <cluster>  (27) 
1

$$$$
WQFRIXFTBLEVTI-ZHACJKMWNA-N
     RDKit          3D

 47 50  0  0  0  0  0  0  0  0999 V2000
  138.0488   72.6745  221.8748 H   0  0  0  0  0  0  0  0  0  0  0  0
  139.1240   72.8750  221.9920 C   0  0  0  0  0  0  0  0  0  0  0  0
  139.9440   71.8310  222.1800 C   0  0  0  0  0  0  0  0  0  0  0  0
  140.6084   71.5156  221.3620 H   0  0  0  0  0  0  0  0  0  0  0  0
  139.9760   71.0900  223.4680 C   0  0  0  0  0  0  0  0  0  0  0  0
  140.4960   71.7390  224.5450 N   0  0  0  0  0  0  0  0  0  0  0  0
  140.5170   71.1910  225.7780 C   0  0  0  0  0  0  0  0  0  0  0  0
  141.0770   71.8960  226.8490 C   0  0  0  0  0  0  0  0  0  0  0  0
  141.5226   72.8877  226.6819 H   0  0  0  0  0  0  0  0  0  0  0  0
  141.0700   71.3400  228.1310 C   0  0  0  0  0  0  0  0  0  0  0  0
  141.5146   71.8925  228.9719 H   0  0  0  0  0  0  0  0  0  0  0  0
  140.4990   70.0830  228.3460 C   0  0  0  0  0  0  0  0  0  0  0  0
  140.4926   69.6489  229.3567 H   0  0  0  0  0  0  0  0  0  0  0  0
  139.9360   69.3760  227.2800 C   0  0  0  0  0  0  0  0  0  0  0  0
  139.4851   68.3878  227.4537 H   0  0  0  0  0  0  0  0  0  0  0  0
  139.9450   69.9270  225.9830 C   0  0  0  0  0  0  0  0  0  0  0  0
  139.4020   69.2560  224.8750 C   0  0  0  0  0  0  0  0  0  0  0  0
  138.8200   68.1500  225.0580 O   0  0  0  0  0  0  0  0  0  0  0  0
  139.4850   69.8030  223.6100 N   0  0  0  0  0  0  0  0  0  0  0  0
  139.0240   69.0020  222.4450 C   0  0  0  0  0  0  0  0  0  0  0  0
  139.5808   69.3386  221.5581 H   0  0  0  0  0  0  0  0  0  0  0  0
  139.2089   67.9491  222.7044 H   0  0  0  0  0  0  0  0  0  0  0  0
  137.4990   69.1110  222.1290 C   0  0  0  0  0  0  0  0  0  0  0  0
  137.3222   68.2372  221.4847 H   0  0  0  0  0  0  0  0  0  0  0  0
  136.5560   68.8900  223.3380 C   0  0  0  0  0  0  0  0  0  0  0  0
  135.5969   68.5093  222.9571 H   0  0  0  0  0  0  0  0  0  0  0  0
  137.0731   68.1847  224.0052 H   0  0  0  0  0  0  0  0  0  0  0  0
  136.2690   70.1500  224.1830 C   0  0  0  0  0  0  0  0  0  0  0  0
  135.2492   70.0694  224.5874 H   0  0  0  0  0  0  0  0  0  0  0  0
  137.0374   70.1853  224.9694 H   0  0  0  0  0  0  0  0  0  0  0  0
  136.3750   71.4690  223.4020 C   0  0  0  0  0  0  0  0  0  0  0  0
  135.6575   72.1904  223.8202 H   0  0  0  0  0  0  0  0  0  0  0  0
  137.4056   71.8423  223.4944 H   0  0  0  0  0  0  0  0  0  0  0  0
  136.0700   71.2690  221.9200 C   0  0  0  0  0  0  0  0  0  0  0  0
  135.0721   70.8183  221.8154 H   0  0  0  0  0  0  0  0  0  0  0  0
  136.1041   72.2477  221.4191 H   0  0  0  0  0  0  0  0  0  0  0  0
  137.1090   70.3470  221.2660 C   0  0  0  0  0  0  0  0  0  0  0  0
  136.6975   69.9856  220.3120 H   0  0  0  0  0  0  0  0  0  0  0  0
  138.0241   70.9436  221.1369 H   0  0  0  0  0  0  0  0  0  0  0  0
  139.5810   74.2810  221.9330 C   0  0  0  0  0  0  0  0  0  0  0  0
  138.7380   75.3310  222.2850 C   0  0  0  0  0  0  0  0  0  0  0  0
  137.6937   75.2344  222.6169 H   0  0  0  0  0  0  0  0  0  0  0  0
  139.5860   76.7700  222.1170 S   0  0  0  0  0  0  0  0  0  0  0  0
  141.0310   76.0890  221.6020 C   0  0  0  0  0  0  0  0  0  0  0  0
  141.9482   76.6395  221.3459 H   0  0  0  0  0  0  0  0  0  0  0  0
  140.8690   74.7120  221.5550 C   0  0  0  0  0  0  0  0  0  0  0  0
  141.6698   74.0217  221.2515 H   0  0  0  0  0  0  0  0  0  0  0  0
  1  2  1  0
  2  3  2  0
  3  4  1  0
  3  5  1  0
  5  6  2  0
  6  7  1  0
  7  8  2  0
  8  9  1  0
  8 10  1  0
 10 11  1  0
 10 12  2  0
 12 13  1  0
 12 14  1  0
 14 15  1  0
 14 16  2  0
 16 17  1  0
 17 18  2  0
 17 19  1  0
 19 20  1  0
 20 21  1  0
 20 22  1  0
 20 23  1  0
 23 24  1  0
 23 25  1  0
 25 26  1  0
 25 27  1  0
 25 28  1  0
 28 29  1  0
 28 30  1  0
 28 31  1  0
 31 32  1  0
 31 33  1  0
 31 34  1  0
 34 35  1  0
 34 36  1  0
 34 37  1  0
 37 38  1  0
 37 39  1  0
  2 40  1  0
 40 41  2  0
 41 42  1  0
 41 43  1  0
 43 44  1  0
 44 45  1  0
 44 46  2  0
 46 47  1  0
 19  5  1  0
 37 23  1  0
 46 40  1  0
 16  7  1  0
M  END
>  <UniqueID>  (28) 
614

>  <SMILES>  (28) 
O=c1c2ccccc2nc(/C=C/c2ccsc2)n1CC1CCCCC1

>  <Energy>  (28) 
90.80405365651839

>  <Genealogy>  (28) 
O=c1c2ccccc2nc(/C=C/c2ccsc2)n1CC1CCCCC1 (cis-trans isomerization)
O=c1c2ccccc2nc(/C=C/c2ccsc2)n1CC1CCCCC1 (3D coordinates assigned)
O=c1c2ccccc2nc(/C=C/c2ccsc2)n1CC1CCCCC1 (nonaromatic ring conformer: 90.80405365651839 kcal/mol)

>  <smiles>  (28) 
O=c1c2ccccc2nc(/C=C/c2ccsc2)n1CC1CCCCC1

>  <score_type>  (28) 
oracle

>  <origin>  (28) 
autodockgpu

>  <m_score__min__energy>  (28) 
-6.8200000000000003

>  <m_primary>  (28) 
energy

>  <meeko>  (28) 
{"free_energy": -6.81, "intermolecular_energy": -8.3, "internal_energy": -1.71, "cluster_size": 16, "cluster_id": 1, "rank_in_cluster": 4}

>  <energy>  (28) 
-6.76

>  <cluster_rmsd>  (28) 
0.62

>  <rmsd>  (28) 
271.01

>  <cluster>  (28) 
1

$$$$
WQFRIXFTBLEVTI-ZHACJKMWNA-N
     RDKit          3D

 47 50  0  0  0  0  0  0  0  0999 V2000
  143.3141   79.5917  218.8188 H   0  0  0  0  0  0  0  0  0  0  0  0
  142.3330   80.0760  218.9320 C   0  0  0  0  0  0  0  0  0  0  0  0
  141.3440   79.3720  219.4990 C   0  0  0  0  0  0  0  0  0  0  0  0
  140.3810   79.8645  219.6993 H   0  0  0  0  0  0  0  0  0  0  0  0
  141.5170   77.9410  219.8640 C   0  0  0  0  0  0  0  0  0  0  0  0
  142.4490   77.2330  219.1710 N   0  0  0  0  0  0  0  0  0  0  0  0
  142.7390   75.9460  219.4590 C   0  0  0  0  0  0  0  0  0  0  0  0
  143.6960   75.2580  218.7050 C   0  0  0  0  0  0  0  0  0  0  0  0
  144.1941   75.7575  217.8609 H   0  0  0  0  0  0  0  0  0  0  0  0
  144.0190   73.9370  219.0240 C   0  0  0  0  0  0  0  0  0  0  0  0
  144.7687   73.3957  218.4282 H   0  0  0  0  0  0  0  0  0  0  0  0
  143.3910   73.3020  220.0990 C   0  0  0  0  0  0  0  0  0  0  0  0
  143.6482   72.2622  220.3492 H   0  0  0  0  0  0  0  0  0  0  0  0
  142.4360   73.9870  220.8570 C   0  0  0  0  0  0  0  0  0  0  0  0
  141.9454   73.4860  221.7045 H   0  0  0  0  0  0  0  0  0  0  0  0
  142.1010   75.3180  220.5370 C   0  0  0  0  0  0  0  0  0  0  0  0
  141.1430   76.0480  221.2600 C   0  0  0  0  0  0  0  0  0  0  0  0
  140.6120   75.5180  222.2770 O   0  0  0  0  0  0  0  0  0  0  0  0
  140.7990   77.3290  220.8780 N   0  0  0  0  0  0  0  0  0  0  0  0
  139.6830   78.0180  221.5800 C   0  0  0  0  0  0  0  0  0  0  0  0
  139.2548   78.7618  220.8919 H   0  0  0  0  0  0  0  0  0  0  0  0
  138.9716   77.2313  221.8716 H   0  0  0  0  0  0  0  0  0  0  0  0
  140.0840   78.7520  222.8970 C   0  0  0  0  0  0  0  0  0  0  0  0
  139.4489   78.2622  223.6498 H   0  0  0  0  0  0  0  0  0  0  0  0
  141.5290   78.4880  223.3880 C   0  0  0  0  0  0  0  0  0  0  0  0
  141.5466   78.6172  224.4802 H   0  0  0  0  0  0  0  0  0  0  0  0
  141.7810   77.4678  223.0630 H   0  0  0  0  0  0  0  0  0  0  0  0
  142.6070   79.4110  222.7800 C   0  0  0  0  0  0  0  0  0  0  0  0
  143.3947   79.5639  223.5324 H   0  0  0  0  0  0  0  0  0  0  0  0
  142.9763   78.9111  221.8724 H   0  0  0  0  0  0  0  0  0  0  0  0
  142.0830   80.7880  222.3440 C   0  0  0  0  0  0  0  0  0  0  0  0
  142.8824   81.5322  222.4750 H   0  0  0  0  0  0  0  0  0  0  0  0
  141.7772   80.7220  221.2894 H   0  0  0  0  0  0  0  0  0  0  0  0
  140.8710   81.2130  223.1670 C   0  0  0  0  0  0  0  0  0  0  0  0
  141.1390   81.2036  224.2338 H   0  0  0  0  0  0  0  0  0  0  0  0
  140.5715   82.2243  222.8547 H   0  0  0  0  0  0  0  0  0  0  0  0
  139.6900   80.2590  222.9370 C   0  0  0  0  0  0  0  0  0  0  0  0
  138.9654   80.4045  223.7517 H   0  0  0  0  0  0  0  0  0  0  0  0
  139.2746   80.5032  221.9481 H   0  0  0  0  0  0  0  0  0  0  0  0
  142.1830   81.4670  218.4490 C   0  0  0  0  0  0  0  0  0  0  0  0
  141.2400   82.3260  219.0050 C   0  0  0  0  0  0  0  0  0  0  0  0
  140.5366   82.0742  219.8124 H   0  0  0  0  0  0  0  0  0  0  0  0
  141.3590   83.8130  218.2330 S   0  0  0  0  0  0  0  0  0  0  0  0
  142.6070   83.3950  217.1910 C   0  0  0  0  0  0  0  0  0  0  0  0
  143.0718   84.0551  216.4438 H   0  0  0  0  0  0  0  0  0  0  0  0
  142.9510   82.0730  217.4350 C   0  0  0  0  0  0  0  0  0  0  0  0
  143.7481   81.5477  216.8884 H   0  0  0  0  0  0  0  0  0  0  0  0
  1  2  1  0
  2  3  2  0
  3  4  1  0
  3  5  1  0
  5  6  2  0
  6  7  1  0
  7  8  2  0
  8  9  1  0
  8 10  1  0
 10 11  1  0
 10 12  2  0
 12 13  1  0
 12 14  1  0
 14 15  1  0
 14 16  2  0
 16 17  1  0
 17 18  2  0
 17 19  1  0
 19 20  1  0
 20 21  1  0
 20 22  1  0
 20 23  1  0
 23 24  1  0
 23 25  1  0
 25 26  1  0
 25 27  1  0
 25 28  1  0
 28 29  1  0
 28 30  1  0
 28 31  1  0
 31 32  1  0
 31 33  1  0
 31 34  1  0
 34 35  1  0
 34 36  1  0
 34 37  1  0
 37 38  1  0
 37 39  1  0
  2 40  1  0
 40 41  2  0
 41 42  1  0
 41 43  1  0
 43 44  1  0
 44 45  1  0
 44 46  2  0
 46 47  1  0
 19  5  1  0
 37 23  1  0
 46 40  1  0
 16  7  1  0
M  END
>  <UniqueID>  (29) 
614

>  <SMILES>  (29) 
O=c1c2ccccc2nc(/C=C/c2ccsc2)n1CC1CCCCC1

>  <Energy>  (29) 
90.80405365651839

>  <Genealogy>  (29) 
O=c1c2ccccc2nc(/C=C/c2ccsc2)n1CC1CCCCC1 (cis-trans isomerization)
O=c1c2ccccc2nc(/C=C/c2ccsc2)n1CC1CCCCC1 (3D coordinates assigned)
O=c1c2ccccc2nc(/C=C/c2ccsc2)n1CC1CCCCC1 (nonaromatic ring conformer: 90.80405365651839 kcal/mol)

>  <smiles>  (29) 
O=c1c2ccccc2nc(/C=C/c2ccsc2)n1CC1CCCCC1

>  <score_type>  (29) 
oracle

>  <origin>  (29) 
autodockgpu

>  <m_score__min__energy>  (29) 
-6.8200000000000003

>  <m_primary>  (29) 
energy

>  <meeko>  (29) 
{"free_energy": -6.28, "intermolecular_energy": -7.77, "internal_energy": -1.61, "cluster_size": 2, "cluster_id": 2, "rank_in_cluster": 2}

>  <energy>  (29) 
-6.74

>  <cluster_rmsd>  (29) 
0.33

>  <rmsd>  (29) 
270.99

>  <cluster>  (29) 
1

$$$$
WQFRIXFTBLEVTI-ZHACJKMWNA-N
     RDKit          3D

 47 50  0  0  0  0  0  0  0  0999 V2000
  138.0234   72.6962  221.9422 H   0  0  0  0  0  0  0  0  0  0  0  0
  139.1030   72.8890  222.0280 C   0  0  0  0  0  0  0  0  0  0  0  0
  139.9200   71.8400  222.1990 C   0  0  0  0  0  0  0  0  0  0  0  0
  140.5729   71.5269  221.3710 H   0  0  0  0  0  0  0  0  0  0  0  0
  139.9640   71.0900  223.4820 C   0  0  0  0  0  0  0  0  0  0  0  0
  140.4890   71.7340  224.5600 N   0  0  0  0  0  0  0  0  0  0  0  0
  140.5200   71.1780  225.7890 C   0  0  0  0  0  0  0  0  0  0  0  0
  141.0840   71.8780  226.8610 C   0  0  0  0  0  0  0  0  0  0  0  0
  141.5245   72.8726  226.6973 H   0  0  0  0  0  0  0  0  0  0  0  0
  141.0880   71.3140  228.1400 C   0  0  0  0  0  0  0  0  0  0  0  0
  141.5354   71.8632  228.9816 H   0  0  0  0  0  0  0  0  0  0  0  0
  140.5240   70.0530  228.3500 C   0  0  0  0  0  0  0  0  0  0  0  0
  140.5263   69.6118  229.3576 H   0  0  0  0  0  0  0  0  0  0  0  0
  139.9570   69.3510  227.2830 C   0  0  0  0  0  0  0  0  0  0  0  0
  139.5115   68.3597  227.4528 H   0  0  0  0  0  0  0  0  0  0  0  0
  139.9550   69.9110  225.9900 C   0  0  0  0  0  0  0  0  0  0  0  0
  139.4070   69.2450  224.8810 C   0  0  0  0  0  0  0  0  0  0  0  0
  138.8310   68.1350  225.0610 O   0  0  0  0  0  0  0  0  0  0  0  0
  139.4790   69.8000  223.6190 N   0  0  0  0  0  0  0  0  0  0  0  0
  139.0140   69.0050  222.4520 C   0  0  0  0  0  0  0  0  0  0  0  0
  139.5781   69.3359  221.5675 H   0  0  0  0  0  0  0  0  0  0  0  0
  139.1862   67.9500  222.7115 H   0  0  0  0  0  0  0  0  0  0  0  0
  137.4920   69.1310  222.1300 C   0  0  0  0  0  0  0  0  0  0  0  0
  137.3134   68.2706  221.4683 H   0  0  0  0  0  0  0  0  0  0  0  0
  136.5410   68.8950  223.3290 C   0  0  0  0  0  0  0  0  0  0  0  0
  135.5815   68.5283  222.9354 H   0  0  0  0  0  0  0  0  0  0  0  0
  137.0503   68.1744  223.9857 H   0  0  0  0  0  0  0  0  0  0  0  0
  136.2570   70.1400  224.1970 C   0  0  0  0  0  0  0  0  0  0  0  0
  135.2338   70.0589  224.5926 H   0  0  0  0  0  0  0  0  0  0  0  0
  137.0198   70.1542  224.9894 H   0  0  0  0  0  0  0  0  0  0  0  0
  136.3780   71.4730  223.4430 C   0  0  0  0  0  0  0  0  0  0  0  0
  135.6639   72.1918  223.8711 H   0  0  0  0  0  0  0  0  0  0  0  0
  137.4108   71.8365  223.5486 H   0  0  0  0  0  0  0  0  0  0  0  0
  136.0800   71.3040  221.9560 C   0  0  0  0  0  0  0  0  0  0  0  0
  135.0792   70.8632  221.8374 H   0  0  0  0  0  0  0  0  0  0  0  0
  136.1250   72.2921  221.4747 H   0  0  0  0  0  0  0  0  0  0  0  0
  137.1150   70.3870  221.2890 C   0  0  0  0  0  0  0  0  0  0  0  0
  136.7052   70.0472  220.3264 H   0  0  0  0  0  0  0  0  0  0  0  0
  138.0351   70.9791  221.1756 H   0  0  0  0  0  0  0  0  0  0  0  0
  139.5690   74.2910  221.9480 C   0  0  0  0  0  0  0  0  0  0  0  0
  138.7330   75.3510  222.2830 C   0  0  0  0  0  0  0  0  0  0  0  0
  137.6880   75.2661  222.6158 H   0  0  0  0  0  0  0  0  0  0  0  0
  139.5900   76.7820  222.0930 S   0  0  0  0  0  0  0  0  0  0  0  0
  141.0310   76.0840  221.5890 C   0  0  0  0  0  0  0  0  0  0  0  0
  141.9518   76.6247  221.3249 H   0  0  0  0  0  0  0  0  0  0  0  0
  140.8600   74.7070  221.5630 C   0  0  0  0  0  0  0  0  0  0  0  0
  141.6560   74.0067  221.2699 H   0  0  0  0  0  0  0  0  0  0  0  0
  1  2  1  0
  2  3  2  0
  3  4  1  0
  3  5  1  0
  5  6  2  0
  6  7  1  0
  7  8  2  0
  8  9  1  0
  8 10  1  0
 10 11  1  0
 10 12  2  0
 12 13  1  0
 12 14  1  0
 14 15  1  0
 14 16  2  0
 16 17  1  0
 17 18  2  0
 17 19  1  0
 19 20  1  0
 20 21  1  0
 20 22  1  0
 20 23  1  0
 23 24  1  0
 23 25  1  0
 25 26  1  0
 25 27  1  0
 25 28  1  0
 28 29  1  0
 28 30  1  0
 28 31  1  0
 31 32  1  0
 31 33  1  0
 31 34  1  0
 34 35  1  0
 34 36  1  0
 34 37  1  0
 37 38  1  0
 37 39  1  0
  2 40  1  0
 40 41  2  0
 41 42  1  0
 41 43  1  0
 43 44  1  0
 44 45  1  0
 44 46  2  0
 46 47  1  0
 19  5  1  0
 37 23  1  0
 46 40  1  0
 16  7  1  0
M  END
>  <UniqueID>  (30) 
614

>  <SMILES>  (30) 
O=c1c2ccccc2nc(/C=C/c2ccsc2)n1CC1CCCCC1

>  <Energy>  (30) 
90.80405365651839

>  <Genealogy>  (30) 
O=c1c2ccccc2nc(/C=C/c2ccsc2)n1CC1CCCCC1 (cis-trans isomerization)
O=c1c2ccccc2nc(/C=C/c2ccsc2)n1CC1CCCCC1 (3D coordinates assigned)
O=c1c2ccccc2nc(/C=C/c2ccsc2)n1CC1CCCCC1 (nonaromatic ring conformer: 90.80405365651839 kcal/mol)

>  <smiles>  (30) 
O=c1c2ccccc2nc(/C=C/c2ccsc2)n1CC1CCCCC1

>  <score_type>  (30) 
oracle

>  <origin>  (30) 
autodockgpu

>  <m_score__min__energy>  (30) 
-6.8200000000000003

>  <m_primary>  (30) 
energy

>  <meeko>  (30) 
{"free_energy": -6.81, "intermolecular_energy": -8.3, "internal_energy": -1.7, "cluster_size": 16, "cluster_id": 1, "rank_in_cluster": 3}

>  <energy>  (30) 
-6.73

>  <cluster_rmsd>  (30) 
0.62

>  <rmsd>  (30) 
271.0

>  <cluster>  (30) 
1

$$$$
WQFRIXFTBLEVTI-ZHACJKMWNA-N
     RDKit          3D

 47 50  0  0  0  0  0  0  0  0999 V2000
  138.0071   72.6873  221.8946 H   0  0  0  0  0  0  0  0  0  0  0  0
  139.0870   72.8690  221.9980 C   0  0  0  0  0  0  0  0  0  0  0  0
  139.8920   71.8110  222.1730 C   0  0  0  0  0  0  0  0  0  0  0  0
  140.5271   71.4754  221.3399 H   0  0  0  0  0  0  0  0  0  0  0  0
  139.9460   71.0810  223.4670 C   0  0  0  0  0  0  0  0  0  0  0  0
  140.4790   71.7410  224.5300 N   0  0  0  0  0  0  0  0  0  0  0  0
  140.5200   71.2040  225.7680 C   0  0  0  0  0  0  0  0  0  0  0  0
  141.0930   71.9200  226.8250 C   0  0  0  0  0  0  0  0  0  0  0  0
  141.5326   72.9117  226.6428 H   0  0  0  0  0  0  0  0  0  0  0  0
  141.1070   71.3760  228.1110 C   0  0  0  0  0  0  0  0  0  0  0  0
  141.5613   71.9382  228.9402 H   0  0  0  0  0  0  0  0  0  0  0  0
  140.5450   70.1190  228.3460 C   0  0  0  0  0  0  0  0  0  0  0  0
  140.5562   69.6937  229.3604 H   0  0  0  0  0  0  0  0  0  0  0  0
  139.9680   69.4000  227.2940 C   0  0  0  0  0  0  0  0  0  0  0  0
  139.5231   68.4119  227.4830 H   0  0  0  0  0  0  0  0  0  0  0  0
  139.9560   69.9400  225.9920 C   0  0  0  0  0  0  0  0  0  0  0  0
  139.3990   69.2570  224.8980 C   0  0  0  0  0  0  0  0  0  0  0  0
  138.8250   68.1500  225.1000 O   0  0  0  0  0  0  0  0  0  0  0  0
  139.4610   69.7940  223.6280 N   0  0  0  0  0  0  0  0  0  0  0  0
  138.9860   68.9810  222.4760 C   0  0  0  0  0  0  0  0  0  0  0  0
  139.5426   69.2987  221.5820 H   0  0  0  0  0  0  0  0  0  0  0  0
  139.1605   67.9300  222.7498 H   0  0  0  0  0  0  0  0  0  0  0  0
  137.4620   69.1020  222.1650 C   0  0  0  0  0  0  0  0  0  0  0  0
  137.2744   68.2225  221.5315 H   0  0  0  0  0  0  0  0  0  0  0  0
  136.5210   68.9050  223.3800 C   0  0  0  0  0  0  0  0  0  0  0  0
  135.5565   68.5305  223.0066 H   0  0  0  0  0  0  0  0  0  0  0  0
  137.0336   68.2020  224.0531 H   0  0  0  0  0  0  0  0  0  0  0  0
  136.2500   70.1770  224.2130 C   0  0  0  0  0  0  0  0  0  0  0  0
  135.2306   70.1118  224.6212 H   0  0  0  0  0  0  0  0  0  0  0  0
  137.0206   70.2124  224.9972 H   0  0  0  0  0  0  0  0  0  0  0  0
  136.3680   71.4860  223.4170 C   0  0  0  0  0  0  0  0  0  0  0  0
  135.6604   72.2201  223.8298 H   0  0  0  0  0  0  0  0  0  0  0  0
  137.4031   71.8486  223.5015 H   0  0  0  0  0  0  0  0  0  0  0  0
  136.0550   71.2730  221.9380 C   0  0  0  0  0  0  0  0  0  0  0  0
  135.0518   70.8320  221.8422 H   0  0  0  0  0  0  0  0  0  0  0  0
  136.0979   72.2458  221.4264 H   0  0  0  0  0  0  0  0  0  0  0  0
  137.0810   70.3330  221.2900 C   0  0  0  0  0  0  0  0  0  0  0  0
  136.6614   69.9655  220.3419 H   0  0  0  0  0  0  0  0  0  0  0  0
  138.0018   70.9184  221.1505 H   0  0  0  0  0  0  0  0  0  0  0  0
  139.5680   74.2670  221.9360 C   0  0  0  0  0  0  0  0  0  0  0  0
  140.8610   74.5690  221.5190 C   0  0  0  0  0  0  0  0  0  0  0  0
  141.6267   73.8395  221.2167 H   0  0  0  0  0  0  0  0  0  0  0  0
  141.0530   76.2370  221.5560 S   0  0  0  0  0  0  0  0  0  0  0  0
  139.5050   76.6020  222.0920 C   0  0  0  0  0  0  0  0  0  0  0  0
  139.1102   77.6106  222.2841 H   0  0  0  0  0  0  0  0  0  0  0  0
  138.8090   75.4120  222.2510 C   0  0  0  0  0  0  0  0  0  0  0  0
  137.7638   75.3667  222.5908 H   0  0  0  0  0  0  0  0  0  0  0  0
  1  2  1  0
  2  3  2  0
  3  4  1  0
  3  5  1  0
  5  6  2  0
  6  7  1  0
  7  8  2  0
  8  9  1  0
  8 10  1  0
 10 11  1  0
 10 12  2  0
 12 13  1  0
 12 14  1  0
 14 15  1  0
 14 16  2  0
 16 17  1  0
 17 18  2  0
 17 19  1  0
 19 20  1  0
 20 21  1  0
 20 22  1  0
 20 23  1  0
 23 24  1  0
 23 25  1  0
 25 26  1  0
 25 27  1  0
 25 28  1  0
 28 29  1  0
 28 30  1  0
 28 31  1  0
 31 32  1  0
 31 33  1  0
 31 34  1  0
 34 35  1  0
 34 36  1  0
 34 37  1  0
 37 38  1  0
 37 39  1  0
  2 40  1  0
 40 41  2  0
 41 42  1  0
 41 43  1  0
 43 44  1  0
 44 45  1  0
 44 46  2  0
 46 47  1  0
 19  5  1  0
 37 23  1  0
 46 40  1  0
 16  7  1  0
M  END
>  <UniqueID>  (31) 
614

>  <SMILES>  (31) 
O=c1c2ccccc2nc(/C=C/c2ccsc2)n1CC1CCCCC1

>  <Energy>  (31) 
90.80405365651839

>  <Genealogy>  (31) 
O=c1c2ccccc2nc(/C=C/c2ccsc2)n1CC1CCCCC1 (cis-trans isomerization)
O=c1c2ccccc2nc(/C=C/c2ccsc2)n1CC1CCCCC1 (3D coordinates assigned)
O=c1c2ccccc2nc(/C=C/c2ccsc2)n1CC1CCCCC1 (nonaromatic ring conformer: 90.80405365651839 kcal/mol)

>  <smiles>  (31) 
O=c1c2ccccc2nc(/C=C/c2ccsc2)n1CC1CCCCC1

>  <score_type>  (31) 
oracle

>  <origin>  (31) 
autodockgpu

>  <m_score__min__energy>  (31) 
-6.8200000000000003

>  <m_primary>  (31) 
energy

>  <meeko>  (31) 
{"free_energy": -6.76, "intermolecular_energy": -8.25, "internal_energy": -1.71, "cluster_size": 16, "cluster_id": 1, "rank_in_cluster": 8}

>  <energy>  (31) 
-6.7

>  <cluster_rmsd>  (31) 
0.33

>  <rmsd>  (31) 
270.99

>  <cluster>  (31) 
1

$$$$
WQFRIXFTBLEVTI-ZHACJKMWNA-N
     RDKit          3D

 47 50  0  0  0  0  0  0  0  0999 V2000
  141.5579   72.1329  221.4405 H   0  0  0  0  0  0  0  0  0  0  0  0
  140.6050   72.5800  221.7600 C   0  0  0  0  0  0  0  0  0  0  0  0
  139.6430   71.7620  222.2080 C   0  0  0  0  0  0  0  0  0  0  0  0
  138.7318   71.6250  221.6072 H   0  0  0  0  0  0  0  0  0  0  0  0
  139.7780   71.0350  223.4980 C   0  0  0  0  0  0  0  0  0  0  0  0
  140.3340   71.7140  224.5380 N   0  0  0  0  0  0  0  0  0  0  0  0
  140.4470   71.1800  225.7720 C   0  0  0  0  0  0  0  0  0  0  0  0
  141.0400   71.9160  226.8030 C   0  0  0  0  0  0  0  0  0  0  0  0
  141.4366   72.9222  226.6022 H   0  0  0  0  0  0  0  0  0  0  0  0
  141.1290   71.3740  228.0880 C   0  0  0  0  0  0  0  0  0  0  0  0
  141.5999   71.9519  228.8969 H   0  0  0  0  0  0  0  0  0  0  0  0
  140.6200   70.0980  228.3460 C   0  0  0  0  0  0  0  0  0  0  0  0
  140.6885   69.6739  229.3586 H   0  0  0  0  0  0  0  0  0  0  0  0
  140.0240   69.3600  227.3190 C   0  0  0  0  0  0  0  0  0  0  0  0
  139.6222   68.3571  227.5257 H   0  0  0  0  0  0  0  0  0  0  0  0
  139.9370   69.8980  226.0200 C   0  0  0  0  0  0  0  0  0  0  0  0
  139.3570   69.1950  224.9500 C   0  0  0  0  0  0  0  0  0  0  0  0
  138.8290   68.0700  225.1760 O   0  0  0  0  0  0  0  0  0  0  0  0
  139.3450   69.7320  223.6790 N   0  0  0  0  0  0  0  0  0  0  0  0
  138.8490   68.9030  222.5490 C   0  0  0  0  0  0  0  0  0  0  0  0
  139.4144   69.1821  221.6476 H   0  0  0  0  0  0  0  0  0  0  0  0
  138.9949   67.8552  222.8504 H   0  0  0  0  0  0  0  0  0  0  0  0
  137.3280   69.0570  222.2330 C   0  0  0  0  0  0  0  0  0  0  0  0
  137.1046   68.1421  221.6646 H   0  0  0  0  0  0  0  0  0  0  0  0
  136.3870   68.9820  223.4600 C   0  0  0  0  0  0  0  0  0  0  0  0
  135.4078   68.6174  223.1163 H   0  0  0  0  0  0  0  0  0  0  0  0
  136.8772   68.3107  224.1805 H   0  0  0  0  0  0  0  0  0  0  0  0
  136.1660   70.3190  224.2010 C   0  0  0  0  0  0  0  0  0  0  0  0
  135.1468   70.3203  224.6147 H   0  0  0  0  0  0  0  0  0  0  0  0
  136.9406   70.3820  224.9794 H   0  0  0  0  0  0  0  0  0  0  0  0
  136.3280   71.5630  223.3130 C   0  0  0  0  0  0  0  0  0  0  0  0
  135.6501   72.3503  223.6743 H   0  0  0  0  0  0  0  0  0  0  0  0
  137.3763   71.8915  223.3687 H   0  0  0  0  0  0  0  0  0  0  0  0
  136.0000   71.2580  221.8540 C   0  0  0  0  0  0  0  0  0  0  0  0
  134.9810   70.8483  221.7918 H   0  0  0  0  0  0  0  0  0  0  0  0
  136.0750   72.1898  221.2742 H   0  0  0  0  0  0  0  0  0  0  0  0
  136.9890   70.2370  221.2730 C   0  0  0  0  0  0  0  0  0  0  0  0
  136.5529   69.8192  220.3536 H   0  0  0  0  0  0  0  0  0  0  0  0
  137.9301   70.7769  221.0917 H   0  0  0  0  0  0  0  0  0  0  0  0
  140.4600   74.0500  221.6700 C   0  0  0  0  0  0  0  0  0  0  0  0
  139.2680   74.6810  222.0140 C   0  0  0  0  0  0  0  0  0  0  0  0
  138.3521   74.1808  222.3617 H   0  0  0  0  0  0  0  0  0  0  0  0
  139.4660   76.3360  221.8080 S   0  0  0  0  0  0  0  0  0  0  0  0
  141.0610   76.2800  221.2870 C   0  0  0  0  0  0  0  0  0  0  0  0
  141.6793   77.1464  221.0093 H   0  0  0  0  0  0  0  0  0  0  0  0
  141.4650   74.9530  221.2670 C   0  0  0  0  0  0  0  0  0  0  0  0
  142.4740   74.6354  220.9653 H   0  0  0  0  0  0  0  0  0  0  0  0
  1  2  1  0
  2  3  2  0
  3  4  1  0
  3  5  1  0
  5  6  2  0
  6  7  1  0
  7  8  2  0
  8  9  1  0
  8 10  1  0
 10 11  1  0
 10 12  2  0
 12 13  1  0
 12 14  1  0
 14 15  1  0
 14 16  2  0
 16 17  1  0
 17 18  2  0
 17 19  1  0
 19 20  1  0
 20 21  1  0
 20 22  1  0
 20 23  1  0
 23 24  1  0
 23 25  1  0
 25 26  1  0
 25 27  1  0
 25 28  1  0
 28 29  1  0
 28 30  1  0
 28 31  1  0
 31 32  1  0
 31 33  1  0
 31 34  1  0
 34 35  1  0
 34 36  1  0
 34 37  1  0
 37 38  1  0
 37 39  1  0
  2 40  1  0
 40 41  2  0
 41 42  1  0
 41 43  1  0
 43 44  1  0
 44 45  1  0
 44 46  2  0
 46 47  1  0
 19  5  1  0
 37 23  1  0
 46 40  1  0
 16  7  1  0
M  END
>  <UniqueID>  (32) 
614

>  <SMILES>  (32) 
O=c1c2ccccc2nc(/C=C/c2ccsc2)n1CC1CCCCC1

>  <Energy>  (32) 
90.80405365651839

>  <Genealogy>  (32) 
O=c1c2ccccc2nc(/C=C/c2ccsc2)n1CC1CCCCC1 (cis-trans isomerization)
O=c1c2ccccc2nc(/C=C/c2ccsc2)n1CC1CCCCC1 (3D coordinates assigned)
O=c1c2ccccc2nc(/C=C/c2ccsc2)n1CC1CCCCC1 (nonaromatic ring conformer: 90.80405365651839 kcal/mol)

>  <smiles>  (32) 
O=c1c2ccccc2nc(/C=C/c2ccsc2)n1CC1CCCCC1

>  <score_type>  (32) 
oracle

>  <origin>  (32) 
autodockgpu

>  <m_score__min__energy>  (32) 
-6.8200000000000003

>  <m_primary>  (32) 
energy

>  <meeko>  (32) 
{"free_energy": -6.82, "intermolecular_energy": -8.31, "internal_energy": -1.66, "cluster_size": 16, "cluster_id": 1, "rank_in_cluster": 2}

>  <energy>  (32) 
-6.7

>  <cluster_rmsd>  (32) 
0.38

>  <rmsd>  (32) 
270.95

>  <cluster>  (32) 
1

$$$$
WQFRIXFTBLEVTI-ZHACJKMWNA-N
     RDKit          3D

 47 50  0  0  0  0  0  0  0  0999 V2000
  141.5206   72.1841  221.3820 H   0  0  0  0  0  0  0  0  0  0  0  0
  140.5360   72.5150  221.7440 C   0  0  0  0  0  0  0  0  0  0  0  0
  139.6640   71.5800  222.1450 C   0  0  0  0  0  0  0  0  0  0  0  0
  138.8319   71.3023  221.4814 H   0  0  0  0  0  0  0  0  0  0  0  0
  139.7940   70.9090  223.4650 C   0  0  0  0  0  0  0  0  0  0  0  0
  140.3610   71.6270  224.4720 N   0  0  0  0  0  0  0  0  0  0  0  0
  140.4710   71.1460  225.7290 C   0  0  0  0  0  0  0  0  0  0  0  0
  141.0750   71.9200  226.7250 C   0  0  0  0  0  0  0  0  0  0  0  0
  141.4825   72.9117  226.4792 H   0  0  0  0  0  0  0  0  0  0  0  0
  141.1610   71.4340  228.0320 C   0  0  0  0  0  0  0  0  0  0  0  0
  141.6402   72.0416  228.8138 H   0  0  0  0  0  0  0  0  0  0  0  0
  140.6390   70.1770  228.3470 C   0  0  0  0  0  0  0  0  0  0  0  0
  140.7055   69.7976  229.3773 H   0  0  0  0  0  0  0  0  0  0  0  0
  140.0320   69.4000  227.3550 C   0  0  0  0  0  0  0  0  0  0  0  0
  139.6197   68.4117  227.6067 H   0  0  0  0  0  0  0  0  0  0  0  0
  139.9480   69.8820  226.0330 C   0  0  0  0  0  0  0  0  0  0  0  0
  139.3560   69.1400  224.9980 C   0  0  0  0  0  0  0  0  0  0  0  0
  138.8170   68.0310  225.2740 O   0  0  0  0  0  0  0  0  0  0  0  0
  139.3470   69.6200  223.7040 N   0  0  0  0  0  0  0  0  0  0  0  0
  138.8390   68.7470  222.6120 C   0  0  0  0  0  0  0  0  0  0  0  0
  139.4063   68.9783  221.6984 H   0  0  0  0  0  0  0  0  0  0  0  0
  138.9726   67.7117  222.9589 H   0  0  0  0  0  0  0  0  0  0  0  0
  137.3200   68.9070  222.2920 C   0  0  0  0  0  0  0  0  0  0  0  0
  137.0806   67.9628  221.7809 H   0  0  0  0  0  0  0  0  0  0  0  0
  136.3820   68.9210  223.5240 C   0  0  0  0  0  0  0  0  0  0  0  0
  135.3960   68.5516  223.2057 H   0  0  0  0  0  0  0  0  0  0  0  0
  136.8636   68.2867  224.2828 H   0  0  0  0  0  0  0  0  0  0  0  0
  136.1850   70.3040  224.1820 C   0  0  0  0  0  0  0  0  0  0  0  0
  135.1677   70.3464  224.5984 H   0  0  0  0  0  0  0  0  0  0  0  0
  136.9645   70.4022  224.9519 H   0  0  0  0  0  0  0  0  0  0  0  0
  136.3620   71.4890  223.2200 C   0  0  0  0  0  0  0  0  0  0  0  0
  135.6965   72.3066  223.5341 H   0  0  0  0  0  0  0  0  0  0  0  0
  137.4150   71.8055  223.2533 H   0  0  0  0  0  0  0  0  0  0  0  0
  136.0250   71.1000  221.7830 C   0  0  0  0  0  0  0  0  0  0  0  0
  134.9995   70.7036  221.7485 H   0  0  0  0  0  0  0  0  0  0  0  0
  136.1138   71.9935  221.1475 H   0  0  0  0  0  0  0  0  0  0  0  0
  136.9950   70.0300  221.2620 C   0  0  0  0  0  0  0  0  0  0  0  0
  136.5479   69.5630  220.3720 H   0  0  0  0  0  0  0  0  0  0  0  0
  137.9434   70.5426  221.0433 H   0  0  0  0  0  0  0  0  0  0  0  0
  140.2510   73.9670  221.7600 C   0  0  0  0  0  0  0  0  0  0  0  0
  138.9630   74.4490  221.9770 C   0  0  0  0  0  0  0  0  0  0  0  0
  138.0653   73.8349  222.1415 H   0  0  0  0  0  0  0  0  0  0  0  0
  139.0130   76.1270  221.9450 S   0  0  0  0  0  0  0  0  0  0  0  0
  140.6620   76.2700  221.6620 C   0  0  0  0  0  0  0  0  0  0  0  0
  141.2186   77.2126  221.5540 H   0  0  0  0  0  0  0  0  0  0  0  0
  141.2010   74.9940  221.5880 C   0  0  0  0  0  0  0  0  0  0  0  0
  142.2696   74.8016  221.4116 H   0  0  0  0  0  0  0  0  0  0  0  0
  1  2  1  0
  2  3  2  0
  3  4  1  0
  3  5  1  0
  5  6  2  0
  6  7  1  0
  7  8  2  0
  8  9  1  0
  8 10  1  0
 10 11  1  0
 10 12  2  0
 12 13  1  0
 12 14  1  0
 14 15  1  0
 14 16  2  0
 16 17  1  0
 17 18  2  0
 17 19  1  0
 19 20  1  0
 20 21  1  0
 20 22  1  0
 20 23  1  0
 23 24  1  0
 23 25  1  0
 25 26  1  0
 25 27  1  0
 25 28  1  0
 28 29  1  0
 28 30  1  0
 28 31  1  0
 31 32  1  0
 31 33  1  0
 31 34  1  0
 34 35  1  0
 34 36  1  0
 34 37  1  0
 37 38  1  0
 37 39  1  0
  2 40  1  0
 40 41  2  0
 41 42  1  0
 41 43  1  0
 43 44  1  0
 44 45  1  0
 44 46  2  0
 46 47  1  0
 19  5  1  0
 37 23  1  0
 46 40  1  0
 16  7  1  0
M  END
>  <UniqueID>  (33) 
614

>  <SMILES>  (33) 
O=c1c2ccccc2nc(/C=C/c2ccsc2)n1CC1CCCCC1

>  <Energy>  (33) 
90.80405365651839

>  <Genealogy>  (33) 
O=c1c2ccccc2nc(/C=C/c2ccsc2)n1CC1CCCCC1 (cis-trans isomerization)
O=c1c2ccccc2nc(/C=C/c2ccsc2)n1CC1CCCCC1 (3D coordinates assigned)
O=c1c2ccccc2nc(/C=C/c2ccsc2)n1CC1CCCCC1 (nonaromatic ring conformer: 90.80405365651839 kcal/mol)

>  <smiles>  (33) 
O=c1c2ccccc2nc(/C=C/c2ccsc2)n1CC1CCCCC1

>  <score_type>  (33) 
oracle

>  <origin>  (33) 
autodockgpu

>  <m_score__min__energy>  (33) 
-6.8200000000000003

>  <m_primary>  (33) 
energy

>  <meeko>  (33) 
{"free_energy": -6.8, "intermolecular_energy": -8.29, "internal_energy": -1.73, "cluster_size": 16, "cluster_id": 1, "rank_in_cluster": 6}

>  <energy>  (33) 
-6.69

>  <cluster_rmsd>  (33) 
0.24

>  <rmsd>  (33) 
270.99

>  <cluster>  (33) 
1

$$$$
WQFRIXFTBLEVTI-ZHACJKMWNA-N
     RDKit          3D

 47 50  0  0  0  0  0  0  0  0999 V2000
  142.3595   80.6043  219.4354 H   0  0  0  0  0  0  0  0  0  0  0  0
  141.8160   79.9980  220.1750 C   0  0  0  0  0  0  0  0  0  0  0  0
  141.0010   79.0330  219.7250 C   0  0  0  0  0  0  0  0  0  0  0  0
  140.1514   79.3048  219.0813 H   0  0  0  0  0  0  0  0  0  0  0  0
  141.2180   77.6050  220.0750 C   0  0  0  0  0  0  0  0  0  0  0  0
  142.4290   77.0680  219.7650 N   0  0  0  0  0  0  0  0  0  0  0  0
  142.7630   75.8020  220.0950 C   0  0  0  0  0  0  0  0  0  0  0  0
  144.0170   75.2930  219.7390 C   0  0  0  0  0  0  0  0  0  0  0  0
  144.7218   75.9160  219.1688 H   0  0  0  0  0  0  0  0  0  0  0  0
  144.3740   73.9930  220.1080 C   0  0  0  0  0  0  0  0  0  0  0  0
  145.3588   73.5924  219.8258 H   0  0  0  0  0  0  0  0  0  0  0  0
  143.4810   73.2020  220.8350 C   0  0  0  0  0  0  0  0  0  0  0  0
  143.7643   72.1792  221.1242 H   0  0  0  0  0  0  0  0  0  0  0  0
  142.2280   73.7070  221.1960 C   0  0  0  0  0  0  0  0  0  0  0  0
  141.5295   73.0828  221.7725 H   0  0  0  0  0  0  0  0  0  0  0  0
  141.8590   75.0150  220.8220 C   0  0  0  0  0  0  0  0  0  0  0  0
  140.6100   75.5680  221.1490 C   0  0  0  0  0  0  0  0  0  0  0  0
  139.8150   74.8960  221.8650 O   0  0  0  0  0  0  0  0  0  0  0  0
  140.2630   76.8310  220.7120 N   0  0  0  0  0  0  0  0  0  0  0  0
  138.8830   77.3270  220.9590 C   0  0  0  0  0  0  0  0  0  0  0  0
  138.7508   78.2620  220.3948 H   0  0  0  0  0  0  0  0  0  0  0  0
  138.2059   76.5219  220.6374 H   0  0  0  0  0  0  0  0  0  0  0  0
  138.5400   77.6120  222.4540 C   0  0  0  0  0  0  0  0  0  0  0  0
  138.8365   76.6768  222.9514 H   0  0  0  0  0  0  0  0  0  0  0  0
  139.4070   78.7000  223.1360 C   0  0  0  0  0  0  0  0  0  0  0  0
  139.4368   78.4851  224.2144 H   0  0  0  0  0  0  0  0  0  0  0  0
  140.3935   78.6528  222.6517 H   0  0  0  0  0  0  0  0  0  0  0  0
  138.9070   80.1490  222.9510 C   0  0  0  0  0  0  0  0  0  0  0  0
  139.1723   80.7234  223.8508 H   0  0  0  0  0  0  0  0  0  0  0  0
  139.3890   80.5369  222.0415 H   0  0  0  0  0  0  0  0  0  0  0  0
  137.3900   80.2670  222.7330 C   0  0  0  0  0  0  0  0  0  0  0  0
  137.0395   81.2152  223.1667 H   0  0  0  0  0  0  0  0  0  0  0  0
  137.1939   80.2342  221.6511 H   0  0  0  0  0  0  0  0  0  0  0  0
  136.6380   79.1140  223.3900 C   0  0  0  0  0  0  0  0  0  0  0  0
  136.8902   79.0830  224.4603 H   0  0  0  0  0  0  0  0  0  0  0  0
  135.5585   79.2758  223.2539 H   0  0  0  0  0  0  0  0  0  0  0  0
  137.0180   77.7730  222.7450 C   0  0  0  0  0  0  0  0  0  0  0  0
  136.7092   76.9642  223.4236 H   0  0  0  0  0  0  0  0  0  0  0  0
  136.5048   77.7335  221.7729 H   0  0  0  0  0  0  0  0  0  0  0  0
  142.0260   80.2940  221.6090 C   0  0  0  0  0  0  0  0  0  0  0  0
  141.7470   81.5520  222.1360 C   0  0  0  0  0  0  0  0  0  0  0  0
  141.3699   82.4172  221.5710 H   0  0  0  0  0  0  0  0  0  0  0  0
  142.0840   81.5240  223.7810 S   0  0  0  0  0  0  0  0  0  0  0  0
  142.5820   79.9220  223.8530 C   0  0  0  0  0  0  0  0  0  0  0  0
  142.9217   79.3921  224.7551 H   0  0  0  0  0  0  0  0  0  0  0  0
  142.4910   79.3820  222.5780 C   0  0  0  0  0  0  0  0  0  0  0  0
  142.7567   78.3402  222.3454 H   0  0  0  0  0  0  0  0  0  0  0  0
  1  2  1  0
  2  3  2  0
  3  4  1  0
  3  5  1  0
  5  6  2  0
  6  7  1  0
  7  8  2  0
  8  9  1  0
  8 10  1  0
 10 11  1  0
 10 12  2  0
 12 13  1  0
 12 14  1  0
 14 15  1  0
 14 16  2  0
 16 17  1  0
 17 18  2  0
 17 19  1  0
 19 20  1  0
 20 21  1  0
 20 22  1  0
 20 23  1  0
 23 24  1  0
 23 25  1  0
 25 26  1  0
 25 27  1  0
 25 28  1  0
 28 29  1  0
 28 30  1  0
 28 31  1  0
 31 32  1  0
 31 33  1  0
 31 34  1  0
 34 35  1  0
 34 36  1  0
 34 37  1  0
 37 38  1  0
 37 39  1  0
  2 40  1  0
 40 41  2  0
 41 42  1  0
 41 43  1  0
 43 44  1  0
 44 45  1  0
 44 46  2  0
 46 47  1  0
 19  5  1  0
 37 23  1  0
 46 40  1  0
 16  7  1  0
M  END
>  <UniqueID>  (34) 
614

>  <SMILES>  (34) 
O=c1c2ccccc2nc(/C=C/c2ccsc2)n1CC1CCCCC1

>  <Energy>  (34) 
90.80405365651839

>  <Genealogy>  (34) 
O=c1c2ccccc2nc(/C=C/c2ccsc2)n1CC1CCCCC1 (cis-trans isomerization)
O=c1c2ccccc2nc(/C=C/c2ccsc2)n1CC1CCCCC1 (3D coordinates assigned)
O=c1c2ccccc2nc(/C=C/c2ccsc2)n1CC1CCCCC1 (nonaromatic ring conformer: 90.80405365651839 kcal/mol)

>  <smiles>  (34) 
O=c1c2ccccc2nc(/C=C/c2ccsc2)n1CC1CCCCC1

>  <score_type>  (34) 
oracle

>  <origin>  (34) 
autodockgpu

>  <m_score__min__energy>  (34) 
-6.8200000000000003

>  <m_primary>  (34) 
energy

>  <meeko>  (34) 
{"free_energy": -6.23, "intermolecular_energy": -7.72, "internal_energy": -1.81, "cluster_size": 2, "cluster_id": 3, "rank_in_cluster": 2}

>  <energy>  (34) 
-6.67

>  <cluster_rmsd>  (34) 
0.38

>  <rmsd>  (34) 
270.98

>  <cluster>  (34) 
1

$$$$
WQFRIXFTBLEVTI-ZHACJKMWNA-N
     RDKit          3D

 47 50  0  0  0  0  0  0  0  0999 V2000
  137.9813   72.7190  221.9675 H   0  0  0  0  0  0  0  0  0  0  0  0
  139.0660   72.8920  222.0270 C   0  0  0  0  0  0  0  0  0  0  0  0
  139.8670   71.8290  222.1840 C   0  0  0  0  0  0  0  0  0  0  0  0
  140.4941   71.5001  221.3422 H   0  0  0  0  0  0  0  0  0  0  0  0
  139.9280   71.0840  223.4690 C   0  0  0  0  0  0  0  0  0  0  0  0
  140.4590   71.7360  224.5390 N   0  0  0  0  0  0  0  0  0  0  0  0
  140.5050   71.1840  225.7710 C   0  0  0  0  0  0  0  0  0  0  0  0
  141.0750   71.8920  226.8350 C   0  0  0  0  0  0  0  0  0  0  0  0
  141.5080   72.8885  226.6634 H   0  0  0  0  0  0  0  0  0  0  0  0
  141.0940   71.3330  228.1150 C   0  0  0  0  0  0  0  0  0  0  0  0
  141.5459   71.8883  228.9501 H   0  0  0  0  0  0  0  0  0  0  0  0
  140.5400   70.0700  228.3360 C   0  0  0  0  0  0  0  0  0  0  0  0
  140.5550   69.6328  229.3453 H   0  0  0  0  0  0  0  0  0  0  0  0
  139.9660   69.3600  227.2760 C   0  0  0  0  0  0  0  0  0  0  0  0
  139.5267   68.3673  227.4537 H   0  0  0  0  0  0  0  0  0  0  0  0
  139.9500   69.9150  225.9810 C   0  0  0  0  0  0  0  0  0  0  0  0
  139.3950   69.2410  224.8800 C   0  0  0  0  0  0  0  0  0  0  0  0
  138.8270   68.1290  225.0700 O   0  0  0  0  0  0  0  0  0  0  0  0
  139.4520   69.7920  223.6160 N   0  0  0  0  0  0  0  0  0  0  0  0
  138.9800   68.9900  222.4560 C   0  0  0  0  0  0  0  0  0  0  0  0
  139.5348   69.3198  221.5652 H   0  0  0  0  0  0  0  0  0  0  0  0
  139.1591   67.9368  222.7182 H   0  0  0  0  0  0  0  0  0  0  0  0
  137.4550   69.1080  222.1470 C   0  0  0  0  0  0  0  0  0  0  0  0
  137.2730   68.2398  221.4965 H   0  0  0  0  0  0  0  0  0  0  0  0
  136.5150   68.8810  223.3560 C   0  0  0  0  0  0  0  0  0  0  0  0
  135.5529   68.5088  222.9741 H   0  0  0  0  0  0  0  0  0  0  0  0
  137.0312   68.1673  224.0149 H   0  0  0  0  0  0  0  0  0  0  0  0
  136.2360   70.1340  224.2150 C   0  0  0  0  0  0  0  0  0  0  0  0
  135.2173   70.0538  224.6222 H   0  0  0  0  0  0  0  0  0  0  0  0
  137.0066   70.1586  224.9996 H   0  0  0  0  0  0  0  0  0  0  0  0
  136.3450   71.4600  223.4450 C   0  0  0  0  0  0  0  0  0  0  0  0
  135.6322   72.1807  223.8722 H   0  0  0  0  0  0  0  0  0  0  0  0
  137.3776   71.8278  223.5370 H   0  0  0  0  0  0  0  0  0  0  0  0
  136.0340   71.2750  221.9630 C   0  0  0  0  0  0  0  0  0  0  0  0
  135.0337   70.8296  221.8579 H   0  0  0  0  0  0  0  0  0  0  0  0
  136.0709   72.2582  221.4711 H   0  0  0  0  0  0  0  0  0  0  0  0
  137.0670   70.3540  221.2960 C   0  0  0  0  0  0  0  0  0  0  0  0
  136.6502   70.0030  220.3405 H   0  0  0  0  0  0  0  0  0  0  0  0
  137.9842   70.9477  221.1683 H   0  0  0  0  0  0  0  0  0  0  0  0
  139.5560   74.2850  221.9290 C   0  0  0  0  0  0  0  0  0  0  0  0
  138.7410   75.3630  222.2590 C   0  0  0  0  0  0  0  0  0  0  0  0
  137.6971   75.2999  222.6001 H   0  0  0  0  0  0  0  0  0  0  0  0
  139.6220   76.7770  222.0480 S   0  0  0  0  0  0  0  0  0  0  0  0
  141.0470   76.0490  221.5430 C   0  0  0  0  0  0  0  0  0  0  0  0
  141.9755   76.5708  221.2681 H   0  0  0  0  0  0  0  0  0  0  0  0
  140.8520   74.6750  221.5320 C   0  0  0  0  0  0  0  0  0  0  0  0
  141.6340   73.9581  221.2412 H   0  0  0  0  0  0  0  0  0  0  0  0
  1  2  1  0
  2  3  2  0
  3  4  1  0
  3  5  1  0
  5  6  2  0
  6  7  1  0
  7  8  2  0
  8  9  1  0
  8 10  1  0
 10 11  1  0
 10 12  2  0
 12 13  1  0
 12 14  1  0
 14 15  1  0
 14 16  2  0
 16 17  1  0
 17 18  2  0
 17 19  1  0
 19 20  1  0
 20 21  1  0
 20 22  1  0
 20 23  1  0
 23 24  1  0
 23 25  1  0
 25 26  1  0
 25 27  1  0
 25 28  1  0
 28 29  1  0
 28 30  1  0
 28 31  1  0
 31 32  1  0
 31 33  1  0
 31 34  1  0
 34 35  1  0
 34 36  1  0
 34 37  1  0
 37 38  1  0
 37 39  1  0
  2 40  1  0
 40 41  2  0
 41 42  1  0
 41 43  1  0
 43 44  1  0
 44 45  1  0
 44 46  2  0
 46 47  1  0
 19  5  1  0
 37 23  1  0
 46 40  1  0
 16  7  1  0
M  END
>  <UniqueID>  (35) 
614

>  <SMILES>  (35) 
O=c1c2ccccc2nc(/C=C/c2ccsc2)n1CC1CCCCC1

>  <Energy>  (35) 
90.80405365651839

>  <Genealogy>  (35) 
O=c1c2ccccc2nc(/C=C/c2ccsc2)n1CC1CCCCC1 (cis-trans isomerization)
O=c1c2ccccc2nc(/C=C/c2ccsc2)n1CC1CCCCC1 (3D coordinates assigned)
O=c1c2ccccc2nc(/C=C/c2ccsc2)n1CC1CCCCC1 (nonaromatic ring conformer: 90.80405365651839 kcal/mol)

>  <smiles>  (35) 
O=c1c2ccccc2nc(/C=C/c2ccsc2)n1CC1CCCCC1

>  <score_type>  (35) 
oracle

>  <origin>  (35) 
autodockgpu

>  <m_score__min__energy>  (35) 
-6.8200000000000003

>  <m_primary>  (35) 
energy

>  <meeko>  (35) 
{"free_energy": -6.8, "intermolecular_energy": -8.29, "internal_energy": -1.71, "cluster_size": 16, "cluster_id": 1, "rank_in_cluster": 5}

>  <energy>  (35) 
-6.66

>  <cluster_rmsd>  (35) 
0.36

>  <rmsd>  (35) 
270.97

>  <cluster>  (35) 
1

$$$$
WQFRIXFTBLEVTI-ZHACJKMWNA-N
     RDKit          3D

 47 50  0  0  0  0  0  0  0  0999 V2000
  141.6954   72.2149  221.3426 H   0  0  0  0  0  0  0  0  0  0  0  0
  140.6770   72.4340  221.6960 C   0  0  0  0  0  0  0  0  0  0  0  0
  139.8960   71.4040  222.0480 C   0  0  0  0  0  0  0  0  0  0  0  0
  139.1889   70.9910  221.3136 H   0  0  0  0  0  0  0  0  0  0  0  0
  139.9620   70.8060  223.4070 C   0  0  0  0  0  0  0  0  0  0  0  0
  140.5480   71.5490  224.3840 N   0  0  0  0  0  0  0  0  0  0  0  0
  140.6050   71.1380  225.6690 C   0  0  0  0  0  0  0  0  0  0  0  0
  141.2330   71.9350  226.6320 C   0  0  0  0  0  0  0  0  0  0  0  0
  141.7016   72.8859  226.3384 H   0  0  0  0  0  0  0  0  0  0  0  0
  141.2650   71.5230  227.9670 C   0  0  0  0  0  0  0  0  0  0  0  0
  141.7623   72.1481  228.7232 H   0  0  0  0  0  0  0  0  0  0  0  0
  140.6660   70.3180  228.3420 C   0  0  0  0  0  0  0  0  0  0  0  0
  140.6906   69.9968  229.3938 H   0  0  0  0  0  0  0  0  0  0  0  0
  140.0350   69.5190  227.3830 C   0  0  0  0  0  0  0  0  0  0  0  0
  139.5615   68.5723  227.6823 H   0  0  0  0  0  0  0  0  0  0  0  0
  140.0050   69.9250  226.0340 C   0  0  0  0  0  0  0  0  0  0  0  0
  139.3930   69.1580  225.0290 C   0  0  0  0  0  0  0  0  0  0  0  0
  138.7860   68.0990  225.3570 O   0  0  0  0  0  0  0  0  0  0  0  0
  139.4370   69.5600  223.7100 N   0  0  0  0  0  0  0  0  0  0  0  0
  138.9010   68.6540  222.6590 C   0  0  0  0  0  0  0  0  0  0  0  0
  139.5000   68.7971  221.7476 H   0  0  0  0  0  0  0  0  0  0  0  0
  138.9658   67.6356  223.0696 H   0  0  0  0  0  0  0  0  0  0  0  0
  137.4020   68.8810  222.2930 C   0  0  0  0  0  0  0  0  0  0  0  0
  137.1330   67.9414  221.7882 H   0  0  0  0  0  0  0  0  0  0  0  0
  136.4310   68.9590  223.4970 C   0  0  0  0  0  0  0  0  0  0  0  0
  135.4378   68.6323  223.1553 H   0  0  0  0  0  0  0  0  0  0  0  0
  136.8600   68.3143  224.2783 H   0  0  0  0  0  0  0  0  0  0  0  0
  136.2820   70.3600  224.1300 C   0  0  0  0  0  0  0  0  0  0  0  0
  135.2563   70.4575  224.5153 H   0  0  0  0  0  0  0  0  0  0  0  0
  137.0424   70.4325  224.9216 H   0  0  0  0  0  0  0  0  0  0  0  0
  136.5440   71.5200  223.1570 C   0  0  0  0  0  0  0  0  0  0  0  0
  135.9114   72.3740  223.4407 H   0  0  0  0  0  0  0  0  0  0  0  0
  137.6100   71.7849  223.2157 H   0  0  0  0  0  0  0  0  0  0  0  0
  136.2280   71.1260  221.7170 C   0  0  0  0  0  0  0  0  0  0  0  0
  135.1860   70.7783  221.6591 H   0  0  0  0  0  0  0  0  0  0  0  0
  136.3763   72.0044  221.0717 H   0  0  0  0  0  0  0  0  0  0  0  0
  137.1600   70.0030  221.2390 C   0  0  0  0  0  0  0  0  0  0  0  0
  136.7163   69.5445  220.3429 H   0  0  0  0  0  0  0  0  0  0  0  0
  138.1377   70.4667  221.0411 H   0  0  0  0  0  0  0  0  0  0  0  0
  140.2490   73.8500  221.7550 C   0  0  0  0  0  0  0  0  0  0  0  0
  138.9150   74.1940  221.9540 C   0  0  0  0  0  0  0  0  0  0  0  0
  138.0791   73.4887  222.0721 H   0  0  0  0  0  0  0  0  0  0  0  0
  138.7990   75.8680  221.9830 S   0  0  0  0  0  0  0  0  0  0  0  0
  140.4310   76.1840  221.7510 C   0  0  0  0  0  0  0  0  0  0  0  0
  140.8930   77.1806  221.6923 H   0  0  0  0  0  0  0  0  0  0  0  0
  141.0970   74.9710  221.6460 C   0  0  0  0  0  0  0  0  0  0  0  0
  142.1833   74.8917  221.4923 H   0  0  0  0  0  0  0  0  0  0  0  0
  1  2  1  0
  2  3  2  0
  3  4  1  0
  3  5  1  0
  5  6  2  0
  6  7  1  0
  7  8  2  0
  8  9  1  0
  8 10  1  0
 10 11  1  0
 10 12  2  0
 12 13  1  0
 12 14  1  0
 14 15  1  0
 14 16  2  0
 16 17  1  0
 17 18  2  0
 17 19  1  0
 19 20  1  0
 20 21  1  0
 20 22  1  0
 20 23  1  0
 23 24  1  0
 23 25  1  0
 25 26  1  0
 25 27  1  0
 25 28  1  0
 28 29  1  0
 28 30  1  0
 28 31  1  0
 31 32  1  0
 31 33  1  0
 31 34  1  0
 34 35  1  0
 34 36  1  0
 34 37  1  0
 37 38  1  0
 37 39  1  0
  2 40  1  0
 40 41  2  0
 41 42  1  0
 41 43  1  0
 43 44  1  0
 44 45  1  0
 44 46  2  0
 46 47  1  0
 19  5  1  0
 37 23  1  0
 46 40  1  0
 16  7  1  0
M  END
>  <UniqueID>  (36) 
614

>  <SMILES>  (36) 
O=c1c2ccccc2nc(/C=C/c2ccsc2)n1CC1CCCCC1

>  <Energy>  (36) 
90.80405365651839

>  <Genealogy>  (36) 
O=c1c2ccccc2nc(/C=C/c2ccsc2)n1CC1CCCCC1 (cis-trans isomerization)
O=c1c2ccccc2nc(/C=C/c2ccsc2)n1CC1CCCCC1 (3D coordinates assigned)
O=c1c2ccccc2nc(/C=C/c2ccsc2)n1CC1CCCCC1 (nonaromatic ring conformer: 90.80405365651839 kcal/mol)

>  <smiles>  (36) 
O=c1c2ccccc2nc(/C=C/c2ccsc2)n1CC1CCCCC1

>  <score_type>  (36) 
oracle

>  <origin>  (36) 
autodockgpu

>  <m_score__min__energy>  (36) 
-6.8200000000000003

>  <m_primary>  (36) 
energy

>  <meeko>  (36) 
{"free_energy": -6.69, "intermolecular_energy": -8.19, "internal_energy": -1.81, "cluster_size": 16, "cluster_id": 1, "rank_in_cluster": 13}

>  <energy>  (36) 
-6.65

>  <cluster_rmsd>  (36) 
0.37

>  <rmsd>  (36) 
270.96

>  <cluster>  (36) 
1

$$$$
WQFRIXFTBLEVTI-ZHACJKMWNA-N
     RDKit          3D

 47 50  0  0  0  0  0  0  0  0999 V2000
  141.6471   72.7103  221.6501 H   0  0  0  0  0  0  0  0  0  0  0  0
  140.5750   72.7800  221.8860 C   0  0  0  0  0  0  0  0  0  0  0  0
  139.9040   71.6430  222.1180 C   0  0  0  0  0  0  0  0  0  0  0  0
  139.2979   71.2029  221.3124 H   0  0  0  0  0  0  0  0  0  0  0  0
  139.9600   70.9630  223.4390 C   0  0  0  0  0  0  0  0  0  0  0  0
  140.5040   71.6590  224.4720 N   0  0  0  0  0  0  0  0  0  0  0  0
  140.5470   71.1690  225.7300 C   0  0  0  0  0  0  0  0  0  0  0  0
  141.1320   71.9210  226.7550 C   0  0  0  0  0  0  0  0  0  0  0  0
  141.5783   72.9014  226.5322 H   0  0  0  0  0  0  0  0  0  0  0  0
  141.1490   71.4260  228.0620 C   0  0  0  0  0  0  0  0  0  0  0  0
  141.6132   72.0150  228.8668 H   0  0  0  0  0  0  0  0  0  0  0  0
  140.5770   70.1840  228.3470 C   0  0  0  0  0  0  0  0  0  0  0  0
  140.5898   69.7978  229.3769 H   0  0  0  0  0  0  0  0  0  0  0  0
  139.9880   69.4300  227.3270 C   0  0  0  0  0  0  0  0  0  0  0  0
  139.5354   68.4540  227.5562 H   0  0  0  0  0  0  0  0  0  0  0  0
  139.9740   69.9200  226.0050 C   0  0  0  0  0  0  0  0  0  0  0  0
  139.4050   69.2010  224.9410 C   0  0  0  0  0  0  0  0  0  0  0  0
  138.8220   68.1070  225.1890 O   0  0  0  0  0  0  0  0  0  0  0  0
  139.4650   69.6870  223.6510 N   0  0  0  0  0  0  0  0  0  0  0  0
  138.9770   68.8350  222.5340 C   0  0  0  0  0  0  0  0  0  0  0  0
  139.5800   69.0632  221.6427 H   0  0  0  0  0  0  0  0  0  0  0  0
  139.0774   67.7943  222.8758 H   0  0  0  0  0  0  0  0  0  0  0  0
  137.4730   69.0280  222.1630 C   0  0  0  0  0  0  0  0  0  0  0  0
  137.2558   68.1338  221.5603 H   0  0  0  0  0  0  0  0  0  0  0  0
  136.4820   68.9370  223.3500 C   0  0  0  0  0  0  0  0  0  0  0  0
  135.5106   68.6013  222.9579 H   0  0  0  0  0  0  0  0  0  0  0  0
  136.9299   68.2361  224.0698 H   0  0  0  0  0  0  0  0  0  0  0  0
  136.2570   70.2580  224.1190 C   0  0  0  0  0  0  0  0  0  0  0  0
  135.2224   70.2680  224.4926 H   0  0  0  0  0  0  0  0  0  0  0  0
  137.0019   70.2842  224.9280 H   0  0  0  0  0  0  0  0  0  0  0  0
  136.4770   71.5230  223.2740 C   0  0  0  0  0  0  0  0  0  0  0  0
  135.7994   72.3130  223.6300 H   0  0  0  0  0  0  0  0  0  0  0  0
  137.5277   71.8308  223.3807 H   0  0  0  0  0  0  0  0  0  0  0  0
  136.2020   71.2630  221.7950 C   0  0  0  0  0  0  0  0  0  0  0  0
  135.1790   70.8749  221.6819 H   0  0  0  0  0  0  0  0  0  0  0  0
  136.3178   72.2085  221.2449 H   0  0  0  0  0  0  0  0  0  0  0  0
  137.1940   70.2390  221.2240 C   0  0  0  0  0  0  0  0  0  0  0  0
  136.7865   69.8547  220.2773 H   0  0  0  0  0  0  0  0  0  0  0  0
  138.1513   70.7650  221.0937 H   0  0  0  0  0  0  0  0  0  0  0  0
  139.9560   74.1240  221.9290 C   0  0  0  0  0  0  0  0  0  0  0  0
  140.7330   75.2780  221.9180 C   0  0  0  0  0  0  0  0  0  0  0  0
  141.8320   75.3138  221.8882 H   0  0  0  0  0  0  0  0  0  0  0  0
  139.7070   76.6070  221.9580 S   0  0  0  0  0  0  0  0  0  0  0  0
  138.2670   75.7450  221.9830 C   0  0  0  0  0  0  0  0  0  0  0  0
  137.2563   76.1782  222.0118 H   0  0  0  0  0  0  0  0  0  0  0  0
  138.5720   74.3910  221.9610 C   0  0  0  0  0  0  0  0  0  0  0  0
  137.8064   73.6012  221.9679 H   0  0  0  0  0  0  0  0  0  0  0  0
  1  2  1  0
  2  3  2  0
  3  4  1  0
  3  5  1  0
  5  6  2  0
  6  7  1  0
  7  8  2  0
  8  9  1  0
  8 10  1  0
 10 11  1  0
 10 12  2  0
 12 13  1  0
 12 14  1  0
 14 15  1  0
 14 16  2  0
 16 17  1  0
 17 18  2  0
 17 19  1  0
 19 20  1  0
 20 21  1  0
 20 22  1  0
 20 23  1  0
 23 24  1  0
 23 25  1  0
 25 26  1  0
 25 27  1  0
 25 28  1  0
 28 29  1  0
 28 30  1  0
 28 31  1  0
 31 32  1  0
 31 33  1  0
 31 34  1  0
 34 35  1  0
 34 36  1  0
 34 37  1  0
 37 38  1  0
 37 39  1  0
  2 40  1  0
 40 41  2  0
 41 42  1  0
 41 43  1  0
 43 44  1  0
 44 45  1  0
 44 46  2  0
 46 47  1  0
 19  5  1  0
 37 23  1  0
 46 40  1  0
 16  7  1  0
M  END
>  <UniqueID>  (37) 
614

>  <SMILES>  (37) 
O=c1c2ccccc2nc(/C=C/c2ccsc2)n1CC1CCCCC1

>  <Energy>  (37) 
90.80405365651839

>  <Genealogy>  (37) 
O=c1c2ccccc2nc(/C=C/c2ccsc2)n1CC1CCCCC1 (cis-trans isomerization)
O=c1c2ccccc2nc(/C=C/c2ccsc2)n1CC1CCCCC1 (3D coordinates assigned)
O=c1c2ccccc2nc(/C=C/c2ccsc2)n1CC1CCCCC1 (nonaromatic ring conformer: 90.80405365651839 kcal/mol)

>  <smiles>  (37) 
O=c1c2ccccc2nc(/C=C/c2ccsc2)n1CC1CCCCC1

>  <score_type>  (37) 
oracle

>  <origin>  (37) 
autodockgpu

>  <m_score__min__energy>  (37) 
-6.8200000000000003

>  <m_primary>  (37) 
energy

>  <meeko>  (37) 
{"free_energy": -6.67, "intermolecular_energy": -8.17, "internal_energy": -1.82, "cluster_size": 16, "cluster_id": 1, "rank_in_cluster": 14}

>  <energy>  (37) 
-6.64

>  <cluster_rmsd>  (37) 
0.0

>  <rmsd>  (37) 
271.64

>  <cluster>  (37) 
2

$$$$
WQFRIXFTBLEVTI-ZHACJKMWNA-N
     RDKit          3D

 47 50  0  0  0  0  0  0  0  0999 V2000
  141.6823   72.7002  221.6898 H   0  0  0  0  0  0  0  0  0  0  0  0
  140.6060   72.7790  221.9030 C   0  0  0  0  0  0  0  0  0  0  0  0
  139.9220   71.6480  222.1290 C   0  0  0  0  0  0  0  0  0  0  0  0
  139.3092   71.2201  221.3219 H   0  0  0  0  0  0  0  0  0  0  0  0
  139.9730   70.9590  223.4460 C   0  0  0  0  0  0  0  0  0  0  0  0
  140.5150   71.6480  224.4860 N   0  0  0  0  0  0  0  0  0  0  0  0
  140.5530   71.1490  225.7400 C   0  0  0  0  0  0  0  0  0  0  0  0
  141.1350   71.8930  226.7720 C   0  0  0  0  0  0  0  0  0  0  0  0
  141.5833   72.8742  226.5571 H   0  0  0  0  0  0  0  0  0  0  0  0
  141.1470   71.3900  228.0760 C   0  0  0  0  0  0  0  0  0  0  0  0
  141.6085   71.9737  228.8862 H   0  0  0  0  0  0  0  0  0  0  0  0
  140.5730   70.1460  228.3510 C   0  0  0  0  0  0  0  0  0  0  0  0
  140.5813   69.7527  229.3783 H   0  0  0  0  0  0  0  0  0  0  0  0
  139.9880   69.4000  227.3230 C   0  0  0  0  0  0  0  0  0  0  0  0
  139.5341   68.4227  227.5437 H   0  0  0  0  0  0  0  0  0  0  0  0
  139.9790   69.8980  226.0050 C   0  0  0  0  0  0  0  0  0  0  0  0
  139.4130   69.1870  224.9340 C   0  0  0  0  0  0  0  0  0  0  0  0
  138.8280   68.0920  225.1720 O   0  0  0  0  0  0  0  0  0  0  0  0
  139.4770   69.6820  223.6480 N   0  0  0  0  0  0  0  0  0  0  0  0
  138.9920   68.8380  222.5230 C   0  0  0  0  0  0  0  0  0  0  0  0
  139.5948   69.0756  221.6341 H   0  0  0  0  0  0  0  0  0  0  0  0
  139.0952   67.7946  222.8557 H   0  0  0  0  0  0  0  0  0  0  0  0
  137.4880   69.0300  222.1530 C   0  0  0  0  0  0  0  0  0  0  0  0
  137.2755   68.1440  221.5366 H   0  0  0  0  0  0  0  0  0  0  0  0
  136.4960   68.9170  223.3370 C   0  0  0  0  0  0  0  0  0  0  0  0
  135.5269   68.5823  222.9385 H   0  0  0  0  0  0  0  0  0  0  0  0
  136.9470   68.2082  224.0471 H   0  0  0  0  0  0  0  0  0  0  0  0
  136.2630   70.2240  224.1250 C   0  0  0  0  0  0  0  0  0  0  0  0
  135.2275   70.2235  224.4962 H   0  0  0  0  0  0  0  0  0  0  0  0
  137.0056   70.2415  224.9363 H   0  0  0  0  0  0  0  0  0  0  0  0
  136.4790   71.5030  223.2990 C   0  0  0  0  0  0  0  0  0  0  0  0
  135.7973   72.2845  223.6658 H   0  0  0  0  0  0  0  0  0  0  0  0
  137.5283   71.8132  223.4121 H   0  0  0  0  0  0  0  0  0  0  0  0
  136.2080   71.2650  221.8160 C   0  0  0  0  0  0  0  0  0  0  0  0
  135.1867   70.8748  221.6946 H   0  0  0  0  0  0  0  0  0  0  0  0
  136.3210   72.2193  221.2806 H   0  0  0  0  0  0  0  0  0  0  0  0
  137.2050   70.2540  221.2320 C   0  0  0  0  0  0  0  0  0  0  0  0
  136.8007   69.8822  220.2789 H   0  0  0  0  0  0  0  0  0  0  0  0
  138.1602   70.7861  221.1117 H   0  0  0  0  0  0  0  0  0  0  0  0
  139.9960   74.1270  221.9240 C   0  0  0  0  0  0  0  0  0  0  0  0
  138.6160   74.2960  221.9700 C   0  0  0  0  0  0  0  0  0  0  0  0
  137.8691   73.4886  221.9854 H   0  0  0  0  0  0  0  0  0  0  0  0
  138.2840   75.9420  221.9980 S   0  0  0  0  0  0  0  0  0  0  0  0
  139.8790   76.4650  221.9600 C   0  0  0  0  0  0  0  0  0  0  0  0
  140.2144   77.5126  221.9638 H   0  0  0  0  0  0  0  0  0  0  0  0
  140.7010   75.3480  221.9230 C   0  0  0  0  0  0  0  0  0  0  0  0
  141.7990   75.4092  221.8955 H   0  0  0  0  0  0  0  0  0  0  0  0
  1  2  1  0
  2  3  2  0
  3  4  1  0
  3  5  1  0
  5  6  2  0
  6  7  1  0
  7  8  2  0
  8  9  1  0
  8 10  1  0
 10 11  1  0
 10 12  2  0
 12 13  1  0
 12 14  1  0
 14 15  1  0
 14 16  2  0
 16 17  1  0
 17 18  2  0
 17 19  1  0
 19 20  1  0
 20 21  1  0
 20 22  1  0
 20 23  1  0
 23 24  1  0
 23 25  1  0
 25 26  1  0
 25 27  1  0
 25 28  1  0
 28 29  1  0
 28 30  1  0
 28 31  1  0
 31 32  1  0
 31 33  1  0
 31 34  1  0
 34 35  1  0
 34 36  1  0
 34 37  1  0
 37 38  1  0
 37 39  1  0
  2 40  1  0
 40 41  2  0
 41 42  1  0
 41 43  1  0
 43 44  1  0
 44 45  1  0
 44 46  2  0
 46 47  1  0
 19  5  1  0
 37 23  1  0
 46 40  1  0
 16  7  1  0
M  END
>  <UniqueID>  (38) 
614

>  <SMILES>  (38) 
O=c1c2ccccc2nc(/C=C/c2ccsc2)n1CC1CCCCC1

>  <Energy>  (38) 
90.80405365651839

>  <Genealogy>  (38) 
O=c1c2ccccc2nc(/C=C/c2ccsc2)n1CC1CCCCC1 (cis-trans isomerization)
O=c1c2ccccc2nc(/C=C/c2ccsc2)n1CC1CCCCC1 (3D coordinates assigned)
O=c1c2ccccc2nc(/C=C/c2ccsc2)n1CC1CCCCC1 (nonaromatic ring conformer: 90.80405365651839 kcal/mol)

>  <smiles>  (38) 
O=c1c2ccccc2nc(/C=C/c2ccsc2)n1CC1CCCCC1

>  <score_type>  (38) 
oracle

>  <origin>  (38) 
autodockgpu

>  <m_score__min__energy>  (38) 
-6.8200000000000003

>  <m_primary>  (38) 
energy

>  <meeko>  (38) 
{"free_energy": -6.7, "intermolecular_energy": -8.2, "internal_energy": -1.81, "cluster_size": 16, "cluster_id": 1, "rank_in_cluster": 11}

>  <energy>  (38) 
-6.28

>  <cluster_rmsd>  (38) 
0.6

>  <rmsd>  (38) 
271.53

>  <cluster>  (38) 
2

$$$$
WQFRIXFTBLEVTI-ZHACJKMWNA-N
     RDKit          3D

 47 50  0  0  0  0  0  0  0  0999 V2000
  141.7220   72.6718  221.5905 H   0  0  0  0  0  0  0  0  0  0  0  0
  140.6520   72.7260  221.8400 C   0  0  0  0  0  0  0  0  0  0  0  0
  139.9990   71.5790  222.0700 C   0  0  0  0  0  0  0  0  0  0  0  0
  139.4355   71.1083  221.2509 H   0  0  0  0  0  0  0  0  0  0  0  0
  140.0180   70.9270  223.4070 C   0  0  0  0  0  0  0  0  0  0  0  0
  140.5500   71.6400  224.4360 N   0  0  0  0  0  0  0  0  0  0  0  0
  140.5610   71.1770  225.7050 C   0  0  0  0  0  0  0  0  0  0  0  0
  141.1350   71.9440  226.7250 C   0  0  0  0  0  0  0  0  0  0  0  0
  141.5995   72.9129  226.4897 H   0  0  0  0  0  0  0  0  0  0  0  0
  141.1180   71.4790  228.0420 C   0  0  0  0  0  0  0  0  0  0  0  0
  141.5728   72.0804  228.8430 H   0  0  0  0  0  0  0  0  0  0  0  0
  140.5240   70.2510  228.3430 C   0  0  0  0  0  0  0  0  0  0  0  0
  140.5102   69.8881  229.3813 H   0  0  0  0  0  0  0  0  0  0  0  0
  139.9470   69.4820  227.3280 C   0  0  0  0  0  0  0  0  0  0  0  0
  139.4770   68.5171  227.5692 H   0  0  0  0  0  0  0  0  0  0  0  0
  139.9670   69.9420  225.9960 C   0  0  0  0  0  0  0  0  0  0  0  0
  139.4100   69.2060  224.9360 C   0  0  0  0  0  0  0  0  0  0  0  0
  138.8080   68.1260  225.1950 O   0  0  0  0  0  0  0  0  0  0  0  0
  139.5020   69.6630  223.6370 N   0  0  0  0  0  0  0  0  0  0  0  0
  139.0260   68.7920  222.5290 C   0  0  0  0  0  0  0  0  0  0  0  0
  139.6463   68.9966  221.6440 H   0  0  0  0  0  0  0  0  0  0  0  0
  139.1113   67.7577  222.8937 H   0  0  0  0  0  0  0  0  0  0  0  0
  137.5310   68.9900  222.1280 C   0  0  0  0  0  0  0  0  0  0  0  0
  137.3164   68.0873  221.5372 H   0  0  0  0  0  0  0  0  0  0  0  0
  136.5190   68.9280  223.2990 C   0  0  0  0  0  0  0  0  0  0  0  0
  135.5522   68.5919  222.8961 H   0  0  0  0  0  0  0  0  0  0  0  0
  136.9496   68.2376  224.0392 H   0  0  0  0  0  0  0  0  0  0  0  0
  136.2900   70.2640  224.0400 C   0  0  0  0  0  0  0  0  0  0  0  0
  135.2486   70.2886  224.3935 H   0  0  0  0  0  0  0  0  0  0  0  0
  137.0196   70.2990  224.8625 H   0  0  0  0  0  0  0  0  0  0  0  0
  136.5360   71.5120  223.1770 C   0  0  0  0  0  0  0  0  0  0  0  0
  135.8592   72.3138  223.5072 H   0  0  0  0  0  0  0  0  0  0  0  0
  137.5874   71.8123  223.2969 H   0  0  0  0  0  0  0  0  0  0  0  0
  136.2850   71.2290  221.6990 C   0  0  0  0  0  0  0  0  0  0  0  0
  135.2610   70.8471  221.5744 H   0  0  0  0  0  0  0  0  0  0  0  0
  136.4181   72.1639  221.1349 H   0  0  0  0  0  0  0  0  0  0  0  0
  137.2790   70.1870  221.1630 C   0  0  0  0  0  0  0  0  0  0  0  0
  136.8852   69.7897  220.2159 H   0  0  0  0  0  0  0  0  0  0  0  0
  138.2428   70.7029  221.0405 H   0  0  0  0  0  0  0  0  0  0  0  0
  140.0180   74.0610  221.9020 C   0  0  0  0  0  0  0  0  0  0  0  0
  138.6350   74.2030  221.9720 C   0  0  0  0  0  0  0  0  0  0  0  0
  137.9035   73.3815  221.9778 H   0  0  0  0  0  0  0  0  0  0  0  0
  138.2730   75.8400  222.0460 S   0  0  0  0  0  0  0  0  0  0  0  0
  139.8570   76.3950  221.9970 C   0  0  0  0  0  0  0  0  0  0  0  0
  140.1725   77.4485  222.0210 H   0  0  0  0  0  0  0  0  0  0  0  0
  140.6990   75.2950  221.9210 C   0  0  0  0  0  0  0  0  0  0  0  0
  141.7951   75.3780  221.8795 H   0  0  0  0  0  0  0  0  0  0  0  0
  1  2  1  0
  2  3  2  0
  3  4  1  0
  3  5  1  0
  5  6  2  0
  6  7  1  0
  7  8  2  0
  8  9  1  0
  8 10  1  0
 10 11  1  0
 10 12  2  0
 12 13  1  0
 12 14  1  0
 14 15  1  0
 14 16  2  0
 16 17  1  0
 17 18  2  0
 17 19  1  0
 19 20  1  0
 20 21  1  0
 20 22  1  0
 20 23  1  0
 23 24  1  0
 23 25  1  0
 25 26  1  0
 25 27  1  0
 25 28  1  0
 28 29  1  0
 28 30  1  0
 28 31  1  0
 31 32  1  0
 31 33  1  0
 31 34  1  0
 34 35  1  0
 34 36  1  0
 34 37  1  0
 37 38  1  0
 37 39  1  0
  2 40  1  0
 40 41  2  0
 41 42  1  0
 41 43  1  0
 43 44  1  0
 44 45  1  0
 44 46  2  0
 46 47  1  0
 19  5  1  0
 37 23  1  0
 46 40  1  0
 16  7  1  0
M  END
>  <UniqueID>  (39) 
614

>  <SMILES>  (39) 
O=c1c2ccccc2nc(/C=C/c2ccsc2)n1CC1CCCCC1

>  <Energy>  (39) 
90.80405365651839

>  <Genealogy>  (39) 
O=c1c2ccccc2nc(/C=C/c2ccsc2)n1CC1CCCCC1 (cis-trans isomerization)
O=c1c2ccccc2nc(/C=C/c2ccsc2)n1CC1CCCCC1 (3D coordinates assigned)
O=c1c2ccccc2nc(/C=C/c2ccsc2)n1CC1CCCCC1 (nonaromatic ring conformer: 90.80405365651839 kcal/mol)

>  <smiles>  (39) 
O=c1c2ccccc2nc(/C=C/c2ccsc2)n1CC1CCCCC1

>  <score_type>  (39) 
oracle

>  <origin>  (39) 
autodockgpu

>  <m_score__min__energy>  (39) 
-6.8200000000000003

>  <m_primary>  (39) 
energy

>  <meeko>  (39) 
{"free_energy": -6.66, "intermolecular_energy": -8.15, "internal_energy": -1.86, "cluster_size": 16, "cluster_id": 1, "rank_in_cluster": 15}

>  <energy>  (39) 
-6.31

>  <cluster_rmsd>  (39) 
0.0

>  <rmsd>  (39) 
271.52

>  <cluster>  (39) 
3

$$$$
WQFRIXFTBLEVTI-ZHACJKMWNA-N
     RDKit          3D

 47 50  0  0  0  0  0  0  0  0999 V2000
  141.6493   72.2547  221.4066 H   0  0  0  0  0  0  0  0  0  0  0  0
  140.6210   72.4600  221.7390 C   0  0  0  0  0  0  0  0  0  0  0  0
  139.8470   71.4190  222.0760 C   0  0  0  0  0  0  0  0  0  0  0  0
  139.1368   71.0172  221.3383 H   0  0  0  0  0  0  0  0  0  0  0  0
  139.9250   70.7940  223.4230 C   0  0  0  0  0  0  0  0  0  0  0  0
  140.4920   71.5310  224.4160 N   0  0  0  0  0  0  0  0  0  0  0  0
  140.5580   71.0940  225.6910 C   0  0  0  0  0  0  0  0  0  0  0  0
  141.1660   71.8850  226.6730 C   0  0  0  0  0  0  0  0  0  0  0  0
  141.6131   72.8525  226.4008 H   0  0  0  0  0  0  0  0  0  0  0  0
  141.2050   71.4460  227.9980 C   0  0  0  0  0  0  0  0  0  0  0  0
  141.6859   72.0668  228.7683 H   0  0  0  0  0  0  0  0  0  0  0  0
  140.6340   70.2190  228.3470 C   0  0  0  0  0  0  0  0  0  0  0  0
  140.6662   69.8758  229.3916 H   0  0  0  0  0  0  0  0  0  0  0  0
  140.0220   69.4270  227.3710 C   0  0  0  0  0  0  0  0  0  0  0  0
  139.5686   68.4644  227.6499 H   0  0  0  0  0  0  0  0  0  0  0  0
  139.9850   69.8600  226.0300 C   0  0  0  0  0  0  0  0  0  0  0  0
  139.3920   69.1000  225.0090 C   0  0  0  0  0  0  0  0  0  0  0  0
  138.8090   68.0210  225.3130 O   0  0  0  0  0  0  0  0  0  0  0  0
  139.4280   69.5320  223.6980 N   0  0  0  0  0  0  0  0  0  0  0  0
  138.9150   68.6360  222.6280 C   0  0  0  0  0  0  0  0  0  0  0  0
  139.5101   68.8137  221.7201 H   0  0  0  0  0  0  0  0  0  0  0  0
  139.0053   67.6110  223.0168 H   0  0  0  0  0  0  0  0  0  0  0  0
  137.4100   68.8330  222.2660 C   0  0  0  0  0  0  0  0  0  0  0  0
  137.1579   67.8888  221.7611 H   0  0  0  0  0  0  0  0  0  0  0  0
  136.4410   68.8910  223.4740 C   0  0  0  0  0  0  0  0  0  0  0  0
  135.4532   68.5451  223.1353 H   0  0  0  0  0  0  0  0  0  0  0  0
  136.8848   68.2542  224.2534 H   0  0  0  0  0  0  0  0  0  0  0  0
  136.2670   70.2880  224.1080 C   0  0  0  0  0  0  0  0  0  0  0  0
  135.2412   70.3649  224.4975 H   0  0  0  0  0  0  0  0  0  0  0  0
  137.0293   70.3750  224.8963 H   0  0  0  0  0  0  0  0  0  0  0  0
  136.5020   71.4540  223.1350 C   0  0  0  0  0  0  0  0  0  0  0  0
  135.8526   72.2945  223.4210 H   0  0  0  0  0  0  0  0  0  0  0  0
  137.5623   71.7413  223.1908 H   0  0  0  0  0  0  0  0  0  0  0  0
  136.1900   71.0540  221.6960 C   0  0  0  0  0  0  0  0  0  0  0  0
  135.1551   70.6854  221.6412 H   0  0  0  0  0  0  0  0  0  0  0  0
  136.3191   71.9355  221.0508 H   0  0  0  0  0  0  0  0  0  0  0  0
  137.1430   69.9500  221.2140 C   0  0  0  0  0  0  0  0  0  0  0  0
  136.7059   69.4835  220.3189 H   0  0  0  0  0  0  0  0  0  0  0  0
  138.1107   70.4331  221.0134 H   0  0  0  0  0  0  0  0  0  0  0  0
  140.1730   73.8690  221.7880 C   0  0  0  0  0  0  0  0  0  0  0  0
  141.0730   74.9200  221.6380 C   0  0  0  0  0  0  0  0  0  0  0  0
  142.1578   74.8212  221.4851 H   0  0  0  0  0  0  0  0  0  0  0  0
  140.2220   76.3640  221.7300 S   0  0  0  0  0  0  0  0  0  0  0  0
  138.7040   75.6840  221.9550 C   0  0  0  0  0  0  0  0  0  0  0  0
  137.7612   76.2375  222.0767 H   0  0  0  0  0  0  0  0  0  0  0  0
  138.8430   74.3040  221.9610 C   0  0  0  0  0  0  0  0  0  0  0  0
  137.9958   73.6141  222.0887 H   0  0  0  0  0  0  0  0  0  0  0  0
  1  2  1  0
  2  3  2  0
  3  4  1  0
  3  5  1  0
  5  6  2  0
  6  7  1  0
  7  8  2  0
  8  9  1  0
  8 10  1  0
 10 11  1  0
 10 12  2  0
 12 13  1  0
 12 14  1  0
 14 15  1  0
 14 16  2  0
 16 17  1  0
 17 18  2  0
 17 19  1  0
 19 20  1  0
 20 21  1  0
 20 22  1  0
 20 23  1  0
 23 24  1  0
 23 25  1  0
 25 26  1  0
 25 27  1  0
 25 28  1  0
 28 29  1  0
 28 30  1  0
 28 31  1  0
 31 32  1  0
 31 33  1  0
 31 34  1  0
 34 35  1  0
 34 36  1  0
 34 37  1  0
 37 38  1  0
 37 39  1  0
  2 40  1  0
 40 41  2  0
 41 42  1  0
 41 43  1  0
 43 44  1  0
 44 45  1  0
 44 46  2  0
 46 47  1  0
 19  5  1  0
 37 23  1  0
 46 40  1  0
 16  7  1  0
M  END
>  <UniqueID>  (40) 
614

>  <SMILES>  (40) 
O=c1c2ccccc2nc(/C=C/c2ccsc2)n1CC1CCCCC1

>  <Energy>  (40) 
90.80405365651839

>  <Genealogy>  (40) 
O=c1c2ccccc2nc(/C=C/c2ccsc2)n1CC1CCCCC1 (cis-trans isomerization)
O=c1c2ccccc2nc(/C=C/c2ccsc2)n1CC1CCCCC1 (3D coordinates assigned)
O=c1c2ccccc2nc(/C=C/c2ccsc2)n1CC1CCCCC1 (nonaromatic ring conformer: 90.80405365651839 kcal/mol)

>  <smiles>  (40) 
O=c1c2ccccc2nc(/C=C/c2ccsc2)n1CC1CCCCC1

>  <score_type>  (40) 
oracle

>  <origin>  (40) 
autodockgpu

>  <m_score__min__energy>  (40) 
-6.8200000000000003

>  <m_primary>  (40) 
energy

>  <meeko>  (40) 
{"free_energy": -6.7, "intermolecular_energy": -8.19, "internal_energy": -1.79, "cluster_size": 16, "cluster_id": 1, "rank_in_cluster": 12}

>  <energy>  (40) 
-6.23

>  <cluster_rmsd>  (40) 
1.89

>  <rmsd>  (40) 
271.76

>  <cluster>  (40) 
3

$$$$
WQFRIXFTBLEVTI-ZHACJKMWNA-N
     RDKit          3D

 47 50  0  0  0  0  0  0  0  0999 V2000
  142.2090   79.0609  217.7788 H   0  0  0  0  0  0  0  0  0  0  0  0
  142.0920   79.8000  218.5850 C   0  0  0  0  0  0  0  0  0  0  0  0
  141.7930   79.3530  219.8120 C   0  0  0  0  0  0  0  0  0  0  0  0
  141.5657   80.0785  220.6070 H   0  0  0  0  0  0  0  0  0  0  0  0
  141.7610   77.9000  220.1250 C   0  0  0  0  0  0  0  0  0  0  0  0
  142.6650   77.1080  219.4870 N   0  0  0  0  0  0  0  0  0  0  0  0
  142.7730   75.7870  219.7400 C   0  0  0  0  0  0  0  0  0  0  0  0
  143.7110   75.0150  219.0460 C   0  0  0  0  0  0  0  0  0  0  0  0
  144.3445   75.4798  218.2762 H   0  0  0  0  0  0  0  0  0  0  0  0
  143.8430   73.6530  219.3310 C   0  0  0  0  0  0  0  0  0  0  0  0
  144.5778   73.0457  218.7821 H   0  0  0  0  0  0  0  0  0  0  0  0
  143.0430   73.0620  220.3120 C   0  0  0  0  0  0  0  0  0  0  0  0
  143.1502   71.9902  220.5352 H   0  0  0  0  0  0  0  0  0  0  0  0
  142.1060   73.8300  221.0110 C   0  0  0  0  0  0  0  0  0  0  0  0
  141.4801   73.3624  221.7853 H   0  0  0  0  0  0  0  0  0  0  0  0
  141.9630   75.2030  220.7240 C   0  0  0  0  0  0  0  0  0  0  0  0
  141.0320   76.0180  221.3890 C   0  0  0  0  0  0  0  0  0  0  0  0
  140.3470   75.5210  222.3260 O   0  0  0  0  0  0  0  0  0  0  0  0
  140.8800   77.3440  221.0370 N   0  0  0  0  0  0  0  0  0  0  0  0
  139.7900   78.1380  221.6650 C   0  0  0  0  0  0  0  0  0  0  0  0
  139.5025   78.9361  220.9647 H   0  0  0  0  0  0  0  0  0  0  0  0
  138.9768   77.4284  221.8774 H   0  0  0  0  0  0  0  0  0  0  0  0
  140.1570   78.8010  223.0300 C   0  0  0  0  0  0  0  0  0  0  0  0
  139.5037   78.2718  223.7393 H   0  0  0  0  0  0  0  0  0  0  0  0
  141.5890   78.5110  223.5420 C   0  0  0  0  0  0  0  0  0  0  0  0
  141.5788   78.5814  224.6397 H   0  0  0  0  0  0  0  0  0  0  0  0
  141.8501   77.5098  223.1686 H   0  0  0  0  0  0  0  0  0  0  0  0
  142.6820   79.4650  223.0120 C   0  0  0  0  0  0  0  0  0  0  0  0
  143.4499   79.5775  223.7915 H   0  0  0  0  0  0  0  0  0  0  0  0
  143.0759   79.0142  222.0892 H   0  0  0  0  0  0  0  0  0  0  0  0
  142.1670   80.8630  222.6370 C   0  0  0  0  0  0  0  0  0  0  0  0
  142.9616   81.5994  222.8275 H   0  0  0  0  0  0  0  0  0  0  0  0
  141.8880   80.8536  221.5730 H   0  0  0  0  0  0  0  0  0  0  0  0
  140.9330   81.2430  223.4520 C   0  0  0  0  0  0  0  0  0  0  0  0
  141.1742   81.1757  224.5231 H   0  0  0  0  0  0  0  0  0  0  0  0
  140.6400   82.2698  223.1877 H   0  0  0  0  0  0  0  0  0  0  0  0
  139.7600   80.3030  223.1410 C   0  0  0  0  0  0  0  0  0  0  0  0
  139.0147   80.4043  223.9437 H   0  0  0  0  0  0  0  0  0  0  0  0
  139.3695   80.6001  222.1565 H   0  0  0  0  0  0  0  0  0  0  0  0
  142.2740   81.2300  218.2510 C   0  0  0  0  0  0  0  0  0  0  0  0
  143.3360   81.6590  217.4610 C   0  0  0  0  0  0  0  0  0  0  0  0
  144.1182   81.0164  217.0306 H   0  0  0  0  0  0  0  0  0  0  0  0
  143.2210   83.3240  217.2760 S   0  0  0  0  0  0  0  0  0  0  0  0
  141.8250   83.5270  218.1860 C   0  0  0  0  0  0  0  0  0  0  0  0
  141.3146   84.4820  218.3794 H   0  0  0  0  0  0  0  0  0  0  0  0
  141.4260   82.2830  218.6520 C   0  0  0  0  0  0  0  0  0  0  0  0
  140.5324   82.1320  219.2755 H   0  0  0  0  0  0  0  0  0  0  0  0
  1  2  1  0
  2  3  2  0
  3  4  1  0
  3  5  1  0
  5  6  2  0
  6  7  1  0
  7  8  2  0
  8  9  1  0
  8 10  1  0
 10 11  1  0
 10 12  2  0
 12 13  1  0
 12 14  1  0
 14 15  1  0
 14 16  2  0
 16 17  1  0
 17 18  2  0
 17 19  1  0
 19 20  1  0
 20 21  1  0
 20 22  1  0
 20 23  1  0
 23 24  1  0
 23 25  1  0
 25 26  1  0
 25 27  1  0
 25 28  1  0
 28 29  1  0
 28 30  1  0
 28 31  1  0
 31 32  1  0
 31 33  1  0
 31 34  1  0
 34 35  1  0
 34 36  1  0
 34 37  1  0
 37 38  1  0
 37 39  1  0
  2 40  1  0
 40 41  2  0
 41 42  1  0
 41 43  1  0
 43 44  1  0
 44 45  1  0
 44 46  2  0
 46 47  1  0
 19  5  1  0
 37 23  1  0
 46 40  1  0
 16  7  1  0
M  END
>  <UniqueID>  (41) 
615

>  <SMILES>  (41) 
O=c1c2ccccc2nc(/C=C/c2ccsc2)n1CC1CCCCC1

>  <Energy>  (41) 
94.95577678879854

>  <Genealogy>  (41) 
O=c1c2ccccc2nc(/C=C/c2ccsc2)n1CC1CCCCC1 (cis-trans isomerization)
O=c1c2ccccc2nc(/C=C/c2ccsc2)n1CC1CCCCC1 (3D coordinates assigned)
O=c1c2ccccc2nc(/C=C/c2ccsc2)n1CC1CCCCC1 (nonaromatic ring conformer: 94.95577678879854 kcal/mol)

>  <smiles>  (41) 
O=c1c2ccccc2nc(/C=C/c2ccsc2)n1CC1CCCCC1

>  <score_type>  (41) 
oracle

>  <origin>  (41) 
autodockgpu

>  <m_score__min__energy>  (41) 
-6.8200000000000003

>  <m_primary>  (41) 
energy

>  <meeko>  (41) 
{"free_energy": -6.64, "intermolecular_energy": -8.13, "internal_energy": -1.47, "cluster_size": 2, "cluster_id": 2, "rank_in_cluster": 1}

>  <energy>  (41) 
-6.82

>  <cluster_rmsd>  (41) 
0.0

>  <rmsd>  (41) 
271.0

>  <cluster>  (41) 
1

$$$$
WQFRIXFTBLEVTI-ZHACJKMWNA-N
     RDKit          3D

 47 50  0  0  0  0  0  0  0  0999 V2000
  137.9198   72.6783  221.8538 H   0  0  0  0  0  0  0  0  0  0  0  0
  139.0020   72.8260  221.9840 C   0  0  0  0  0  0  0  0  0  0  0  0
  139.7720   71.7410  222.1470 C   0  0  0  0  0  0  0  0  0  0  0  0
  140.3530   71.3614  221.2936 H   0  0  0  0  0  0  0  0  0  0  0  0
  139.8590   71.0390  223.4540 C   0  0  0  0  0  0  0  0  0  0  0  0
  140.4120   71.7250  224.4910 N   0  0  0  0  0  0  0  0  0  0  0  0
  140.4830   71.2140  225.7390 C   0  0  0  0  0  0  0  0  0  0  0  0
  141.0750   71.9550  226.7670 C   0  0  0  0  0  0  0  0  0  0  0  0
  141.5047   72.9449  226.5538 H   0  0  0  0  0  0  0  0  0  0  0  0
  141.1210   71.4390  228.0640 C   0  0  0  0  0  0  0  0  0  0  0  0
  141.5906   72.0211  228.8706 H   0  0  0  0  0  0  0  0  0  0  0  0
  140.5710   70.1840  228.3380 C   0  0  0  0  0  0  0  0  0  0  0  0
  140.6061   69.7805  229.3607 H   0  0  0  0  0  0  0  0  0  0  0  0
  139.9760   69.4400  227.3140 C   0  0  0  0  0  0  0  0  0  0  0  0
  139.5416   68.4535  227.5332 H   0  0  0  0  0  0  0  0  0  0  0  0
  139.9320   69.9520  226.0020 C   0  0  0  0  0  0  0  0  0  0  0  0
  139.3550   69.2440  224.9350 C   0  0  0  0  0  0  0  0  0  0  0  0
  138.7910   68.1380  225.1730 O   0  0  0  0  0  0  0  0  0  0  0  0
  139.3850   69.7530  223.6530 N   0  0  0  0  0  0  0  0  0  0  0  0
  138.8890   68.9130  222.5300 C   0  0  0  0  0  0  0  0  0  0  0  0
  139.4410   69.1972  221.6220 H   0  0  0  0  0  0  0  0  0  0  0  0
  139.0529   67.8682  222.8326 H   0  0  0  0  0  0  0  0  0  0  0  0
  137.3640   69.0450  222.2300 C   0  0  0  0  0  0  0  0  0  0  0  0
  137.1549   68.1384  221.6432 H   0  0  0  0  0  0  0  0  0  0  0  0
  136.4340   68.9240  223.4620 C   0  0  0  0  0  0  0  0  0  0  0  0
  135.4594   68.5480  223.1173 H   0  0  0  0  0  0  0  0  0  0  0  0
  136.9426   68.2464  224.1636 H   0  0  0  0  0  0  0  0  0  0  0  0
  136.1930   70.2390  224.2340 C   0  0  0  0  0  0  0  0  0  0  0  0
  135.1774   70.2107  224.6556 H   0  0  0  0  0  0  0  0  0  0  0  0
  136.9729   70.3000  225.0073 H   0  0  0  0  0  0  0  0  0  0  0  0
  136.3230   71.5060  223.3730 C   0  0  0  0  0  0  0  0  0  0  0  0
  135.6319   72.2710  223.7566 H   0  0  0  0  0  0  0  0  0  0  0  0
  137.3646   71.8552  223.4287 H   0  0  0  0  0  0  0  0  0  0  0  0
  135.9900   71.2260  221.9100 C   0  0  0  0  0  0  0  0  0  0  0  0
  134.9787   70.7979  221.8466 H   0  0  0  0  0  0  0  0  0  0  0  0
  136.0433   72.1717  221.3508 H   0  0  0  0  0  0  0  0  0  0  0  0
  136.9930   70.2380  221.2980 C   0  0  0  0  0  0  0  0  0  0  0  0
  136.5564   69.8311  220.3739 H   0  0  0  0  0  0  0  0  0  0  0  0
  137.9215   70.8001  221.1191 H   0  0  0  0  0  0  0  0  0  0  0  0
  139.5230   74.2110  221.9690 C   0  0  0  0  0  0  0  0  0  0  0  0
  140.8280   74.4880  221.5730 C   0  0  0  0  0  0  0  0  0  0  0  0
  141.5751   73.7461  221.2545 H   0  0  0  0  0  0  0  0  0  0  0  0
  141.0680   76.1470  221.6640 S   0  0  0  0  0  0  0  0  0  0  0  0
  139.5270   76.5410  222.1980 C   0  0  0  0  0  0  0  0  0  0  0  0
  139.1600   77.5545  222.4175 H   0  0  0  0  0  0  0  0  0  0  0  0
  138.7950   75.3670  222.3150 C   0  0  0  0  0  0  0  0  0  0  0  0
  137.7464   75.3416  222.6463 H   0  0  0  0  0  0  0  0  0  0  0  0
  1  2  1  0
  2  3  2  0
  3  4  1  0
  3  5  1  0
  5  6  2  0
  6  7  1  0
  7  8  2  0
  8  9  1  0
  8 10  1  0
 10 11  1  0
 10 12  2  0
 12 13  1  0
 12 14  1  0
 14 15  1  0
 14 16  2  0
 16 17  1  0
 17 18  2  0
 17 19  1  0
 19 20  1  0
 20 21  1  0
 20 22  1  0
 20 23  1  0
 23 24  1  0
 23 25  1  0
 25 26  1  0
 25 27  1  0
 25 28  1  0
 28 29  1  0
 28 30  1  0
 28 31  1  0
 31 32  1  0
 31 33  1  0
 31 34  1  0
 34 35  1  0
 34 36  1  0
 34 37  1  0
 37 38  1  0
 37 39  1  0
  2 40  1  0
 40 41  2  0
 41 42  1  0
 41 43  1  0
 43 44  1  0
 44 45  1  0
 44 46  2  0
 46 47  1  0
 19  5  1  0
 37 23  1  0
 46 40  1  0
 16  7  1  0
M  END
>  <UniqueID>  (42) 
615

>  <SMILES>  (42) 
O=c1c2ccccc2nc(/C=C/c2ccsc2)n1CC1CCCCC1

>  <Energy>  (42) 
94.95577678879854

>  <Genealogy>  (42) 
O=c1c2ccccc2nc(/C=C/c2ccsc2)n1CC1CCCCC1 (cis-trans isomerization)
O=c1c2ccccc2nc(/C=C/c2ccsc2)n1CC1CCCCC1 (3D coordinates assigned)
O=c1c2ccccc2nc(/C=C/c2ccsc2)n1CC1CCCCC1 (nonaromatic ring conformer: 94.95577678879854 kcal/mol)

>  <smiles>  (42) 
O=c1c2ccccc2nc(/C=C/c2ccsc2)n1CC1CCCCC1

>  <score_type>  (42) 
oracle

>  <origin>  (42) 
autodockgpu

>  <m_score__min__energy>  (42) 
-6.8200000000000003

>  <m_primary>  (42) 
energy

>  <meeko>  (42) 
{"free_energy": -6.73, "intermolecular_energy": -8.22, "internal_energy": -1.73, "cluster_size": 16, "cluster_id": 1, "rank_in_cluster": 10}

>  <energy>  (42) 
-6.82

>  <cluster_rmsd>  (42) 
0.18

>  <rmsd>  (42) 
271.0

>  <cluster>  (42) 
1

$$$$
WQFRIXFTBLEVTI-ZHACJKMWNA-N
     RDKit          3D

 47 50  0  0  0  0  0  0  0  0999 V2000
  141.6509   72.5811  221.5306 H   0  0  0  0  0  0  0  0  0  0  0  0
  140.5910   72.6710  221.8110 C   0  0  0  0  0  0  0  0  0  0  0  0
  139.9100   71.5470  222.0760 C   0  0  0  0  0  0  0  0  0  0  0  0
  139.2949   71.0931  221.2850 H   0  0  0  0  0  0  0  0  0  0  0  0
  139.9660   70.8990  223.4130 C   0  0  0  0  0  0  0  0  0  0  0  0
  140.5150   71.6200  224.4280 N   0  0  0  0  0  0  0  0  0  0  0  0
  140.5600   71.1620  225.6970 C   0  0  0  0  0  0  0  0  0  0  0  0
  141.1490   71.9370  226.7020 C   0  0  0  0  0  0  0  0  0  0  0  0
  141.5982   72.9099  226.4536 H   0  0  0  0  0  0  0  0  0  0  0  0
  141.1670   71.4760  228.0210 C   0  0  0  0  0  0  0  0  0  0  0  0
  141.6331   72.0846  228.8099 H   0  0  0  0  0  0  0  0  0  0  0  0
  140.5930   70.2420  228.3380 C   0  0  0  0  0  0  0  0  0  0  0  0
  140.6077   69.8809  229.3769 H   0  0  0  0  0  0  0  0  0  0  0  0
  140.0000   69.4650  227.3380 C   0  0  0  0  0  0  0  0  0  0  0  0
  139.5453   68.4962  227.5925 H   0  0  0  0  0  0  0  0  0  0  0  0
  139.9840   69.9210  226.0050 C   0  0  0  0  0  0  0  0  0  0  0  0
  139.4110   69.1770  224.9610 C   0  0  0  0  0  0  0  0  0  0  0  0
  138.8260   68.0910  225.2360 O   0  0  0  0  0  0  0  0  0  0  0  0
  139.4690   69.6310  223.6590 N   0  0  0  0  0  0  0  0  0  0  0  0
  138.9760   68.7520  222.5640 C   0  0  0  0  0  0  0  0  0  0  0  0
  139.5776   68.9560  221.6660 H   0  0  0  0  0  0  0  0  0  0  0  0
  139.0744   67.7198  222.9313 H   0  0  0  0  0  0  0  0  0  0  0  0
  137.4730   68.9400  222.1920 C   0  0  0  0  0  0  0  0  0  0  0  0
  137.2508   68.0282  221.6182 H   0  0  0  0  0  0  0  0  0  0  0  0
  136.4850   68.8900  223.3830 C   0  0  0  0  0  0  0  0  0  0  0  0
  135.5114   68.5461  223.0038 H   0  0  0  0  0  0  0  0  0  0  0  0
  136.9320   68.2101  224.1233 H   0  0  0  0  0  0  0  0  0  0  0  0
  136.2670   70.2350  224.1110 C   0  0  0  0  0  0  0  0  0  0  0  0
  135.2333   70.2608  224.4863 H   0  0  0  0  0  0  0  0  0  0  0  0
  137.0139   70.2833  224.9171 H   0  0  0  0  0  0  0  0  0  0  0  0
  136.4900   71.4720  223.2270 C   0  0  0  0  0  0  0  0  0  0  0  0
  135.8166   72.2754  223.5603 H   0  0  0  0  0  0  0  0  0  0  0  0
  137.5423   71.7782  223.3215 H   0  0  0  0  0  0  0  0  0  0  0  0
  136.2100   71.1680  221.7570 C   0  0  0  0  0  0  0  0  0  0  0  0
  135.1850   70.7811  221.6582 H   0  0  0  0  0  0  0  0  0  0  0  0
  136.3282   72.0956  221.1777 H   0  0  0  0  0  0  0  0  0  0  0  0
  137.1960   70.1230  221.2160 C   0  0  0  0  0  0  0  0  0  0  0  0
  136.7844   69.7111  220.2828 H   0  0  0  0  0  0  0  0  0  0  0  0
  138.1550   70.6408  221.0670 H   0  0  0  0  0  0  0  0  0  0  0  0
  139.9990   74.0250  221.8740 C   0  0  0  0  0  0  0  0  0  0  0  0
  140.7960   75.1650  221.8350 C   0  0  0  0  0  0  0  0  0  0  0  0
  141.8938   75.1804  221.7666 H   0  0  0  0  0  0  0  0  0  0  0  0
  139.7980   76.5130  221.9100 S   0  0  0  0  0  0  0  0  0  0  0  0
  138.3440   75.6770  221.9860 C   0  0  0  0  0  0  0  0  0  0  0  0
  137.3430   76.1285  222.0501 H   0  0  0  0  0  0  0  0  0  0  0  0
  138.6230   74.3190  221.9540 C   0  0  0  0  0  0  0  0  0  0  0  0
  137.8433   73.5438  221.9879 H   0  0  0  0  0  0  0  0  0  0  0  0
  1  2  1  0
  2  3  2  0
  3  4  1  0
  3  5  1  0
  5  6  2  0
  6  7  1  0
  7  8  2  0
  8  9  1  0
  8 10  1  0
 10 11  1  0
 10 12  2  0
 12 13  1  0
 12 14  1  0
 14 15  1  0
 14 16  2  0
 16 17  1  0
 17 18  2  0
 17 19  1  0
 19 20  1  0
 20 21  1  0
 20 22  1  0
 20 23  1  0
 23 24  1  0
 23 25  1  0
 25 26  1  0
 25 27  1  0
 25 28  1  0
 28 29  1  0
 28 30  1  0
 28 31  1  0
 31 32  1  0
 31 33  1  0
 31 34  1  0
 34 35  1  0
 34 36  1  0
 34 37  1  0
 37 38  1  0
 37 39  1  0
  2 40  1  0
 40 41  2  0
 41 42  1  0
 41 43  1  0
 43 44  1  0
 44 45  1  0
 44 46  2  0
 46 47  1  0
 19  5  1  0
 37 23  1  0
 46 40  1  0
 16  7  1  0
M  END
>  <UniqueID>  (43) 
615

>  <SMILES>  (43) 
O=c1c2ccccc2nc(/C=C/c2ccsc2)n1CC1CCCCC1

>  <Energy>  (43) 
94.95577678879854

>  <Genealogy>  (43) 
O=c1c2ccccc2nc(/C=C/c2ccsc2)n1CC1CCCCC1 (cis-trans isomerization)
O=c1c2ccccc2nc(/C=C/c2ccsc2)n1CC1CCCCC1 (3D coordinates assigned)
O=c1c2ccccc2nc(/C=C/c2ccsc2)n1CC1CCCCC1 (nonaromatic ring conformer: 94.95577678879854 kcal/mol)

>  <smiles>  (43) 
O=c1c2ccccc2nc(/C=C/c2ccsc2)n1CC1CCCCC1

>  <score_type>  (43) 
oracle

>  <origin>  (43) 
autodockgpu

>  <m_score__min__energy>  (43) 
-6.8200000000000003

>  <m_primary>  (43) 
energy

>  <meeko>  (43) 
{"free_energy": -6.65, "intermolecular_energy": -8.14, "internal_energy": -1.83, "cluster_size": 16, "cluster_id": 1, "rank_in_cluster": 16}

>  <energy>  (43) 
-6.81

>  <cluster_rmsd>  (43) 
0.43

>  <rmsd>  (43) 
271.02

>  <cluster>  (43) 
1

$$$$
WQFRIXFTBLEVTI-ZHACJKMWNA-N
     RDKit          3D

 47 50  0  0  0  0  0  0  0  0999 V2000
  141.5743   72.2664  221.4746 H   0  0  0  0  0  0  0  0  0  0  0  0
  140.5780   72.6070  221.7930 C   0  0  0  0  0  0  0  0  0  0  0  0
  139.6890   71.6820  222.1800 C   0  0  0  0  0  0  0  0  0  0  0  0
  138.8441   71.4398  221.5186 H   0  0  0  0  0  0  0  0  0  0  0  0
  139.8170   70.9750  223.4820 C   0  0  0  0  0  0  0  0  0  0  0  0
  140.3790   71.6660  224.5100 N   0  0  0  0  0  0  0  0  0  0  0  0
  140.4870   71.1510  225.7530 C   0  0  0  0  0  0  0  0  0  0  0  0
  141.0870   71.8990  226.7720 C   0  0  0  0  0  0  0  0  0  0  0  0
  141.4933   72.8979  226.5549 H   0  0  0  0  0  0  0  0  0  0  0  0
  141.1700   71.3770  228.0650 C   0  0  0  0  0  0  0  0  0  0  0  0
  141.6453   71.9639  228.8648 H   0  0  0  0  0  0  0  0  0  0  0  0
  140.6500   70.1100  228.3440 C   0  0  0  0  0  0  0  0  0  0  0  0
  140.7160   69.7019  229.3634 H   0  0  0  0  0  0  0  0  0  0  0  0
  140.0460   69.3600  227.3300 C   0  0  0  0  0  0  0  0  0  0  0  0
  139.6337   68.3650  227.5537 H   0  0  0  0  0  0  0  0  0  0  0  0
  139.9650   69.8780  226.0210 C   0  0  0  0  0  0  0  0  0  0  0  0
  139.3780   69.1630  224.9640 C   0  0  0  0  0  0  0  0  0  0  0  0
  138.8410   68.0460  225.2080 O   0  0  0  0  0  0  0  0  0  0  0  0
  139.3720   69.6790  223.6840 N   0  0  0  0  0  0  0  0  0  0  0  0
  138.8680   68.8360  222.5670 C   0  0  0  0  0  0  0  0  0  0  0  0
  139.4371   69.0939  221.6617 H   0  0  0  0  0  0  0  0  0  0  0  0
  139.0025   67.7919  222.8860 H   0  0  0  0  0  0  0  0  0  0  0  0
  137.3490   69.0010  222.2470 C   0  0  0  0  0  0  0  0  0  0  0  0
  137.1249   68.0958  221.6636 H   0  0  0  0  0  0  0  0  0  0  0  0
  136.4020   68.9100  223.4690 C   0  0  0  0  0  0  0  0  0  0  0  0
  135.4230   68.5539  223.1157 H   0  0  0  0  0  0  0  0  0  0  0  0
  136.8859   68.2257  224.1814 H   0  0  0  0  0  0  0  0  0  0  0  0
  136.1830   70.2370  224.2280 C   0  0  0  0  0  0  0  0  0  0  0  0
  135.1621   70.2359  224.6375 H   0  0  0  0  0  0  0  0  0  0  0  0
  136.9553   70.2855  225.0097 H   0  0  0  0  0  0  0  0  0  0  0  0
  136.3530   71.4940  223.3600 C   0  0  0  0  0  0  0  0  0  0  0  0
  135.6755   72.2778  223.7297 H   0  0  0  0  0  0  0  0  0  0  0  0
  137.4018   71.8192  223.4259 H   0  0  0  0  0  0  0  0  0  0  0  0
  136.0310   71.2110  221.8950 C   0  0  0  0  0  0  0  0  0  0  0  0
  135.0107   70.8063  221.8223 H   0  0  0  0  0  0  0  0  0  0  0  0
  136.1130   72.1509  221.3295 H   0  0  0  0  0  0  0  0  0  0  0  0
  137.0180   70.1950  221.3030 C   0  0  0  0  0  0  0  0  0  0  0  0
  136.5836   69.7918  220.3763 H   0  0  0  0  0  0  0  0  0  0  0  0
  137.9617   70.7338  221.1324 H   0  0  0  0  0  0  0  0  0  0  0  0
  140.2980   74.0590  221.7690 C   0  0  0  0  0  0  0  0  0  0  0  0
  139.0100   74.5510  221.9640 C   0  0  0  0  0  0  0  0  0  0  0  0
  138.1089   73.9444  222.1377 H   0  0  0  0  0  0  0  0  0  0  0  0
  139.0660   76.2270  221.8890 S   0  0  0  0  0  0  0  0  0  0  0  0
  140.7170   76.3570  221.6140 C   0  0  0  0  0  0  0  0  0  0  0  0
  141.2773   77.2948  221.4853 H   0  0  0  0  0  0  0  0  0  0  0  0
  141.2530   75.0780  221.5770 C   0  0  0  0  0  0  0  0  0  0  0  0
  142.3222   74.8779  221.4133 H   0  0  0  0  0  0  0  0  0  0  0  0
  1  2  1  0
  2  3  2  0
  3  4  1  0
  3  5  1  0
  5  6  2  0
  6  7  1  0
  7  8  2  0
  8  9  1  0
  8 10  1  0
 10 11  1  0
 10 12  2  0
 12 13  1  0
 12 14  1  0
 14 15  1  0
 14 16  2  0
 16 17  1  0
 17 18  2  0
 17 19  1  0
 19 20  1  0
 20 21  1  0
 20 22  1  0
 20 23  1  0
 23 24  1  0
 23 25  1  0
 25 26  1  0
 25 27  1  0
 25 28  1  0
 28 29  1  0
 28 30  1  0
 28 31  1  0
 31 32  1  0
 31 33  1  0
 31 34  1  0
 34 35  1  0
 34 36  1  0
 34 37  1  0
 37 38  1  0
 37 39  1  0
  2 40  1  0
 40 41  2  0
 41 42  1  0
 41 43  1  0
 43 44  1  0
 44 45  1  0
 44 46  2  0
 46 47  1  0
 19  5  1  0
 37 23  1  0
 46 40  1  0
 16  7  1  0
M  END
>  <UniqueID>  (44) 
615

>  <SMILES>  (44) 
O=c1c2ccccc2nc(/C=C/c2ccsc2)n1CC1CCCCC1

>  <Energy>  (44) 
94.95577678879854

>  <Genealogy>  (44) 
O=c1c2ccccc2nc(/C=C/c2ccsc2)n1CC1CCCCC1 (cis-trans isomerization)
O=c1c2ccccc2nc(/C=C/c2ccsc2)n1CC1CCCCC1 (3D coordinates assigned)
O=c1c2ccccc2nc(/C=C/c2ccsc2)n1CC1CCCCC1 (nonaromatic ring conformer: 94.95577678879854 kcal/mol)

>  <smiles>  (44) 
O=c1c2ccccc2nc(/C=C/c2ccsc2)n1CC1CCCCC1

>  <score_type>  (44) 
oracle

>  <origin>  (44) 
autodockgpu

>  <m_score__min__energy>  (44) 
-6.8200000000000003

>  <m_primary>  (44) 
energy

>  <meeko>  (44) 
{"free_energy": -6.82, "intermolecular_energy": -8.31, "internal_energy": -1.7, "cluster_size": 16, "cluster_id": 1, "rank_in_cluster": 1}

>  <energy>  (44) 
-6.81

>  <cluster_rmsd>  (44) 
0.43

>  <rmsd>  (44) 
271.01

>  <cluster>  (44) 
1

$$$$
WQFRIXFTBLEVTI-ZHACJKMWNA-N
     RDKit          3D

 47 50  0  0  0  0  0  0  0  0999 V2000
  141.6576   72.7660  221.7495 H   0  0  0  0  0  0  0  0  0  0  0  0
  140.5780   72.8560  221.9400 C   0  0  0  0  0  0  0  0  0  0  0  0
  139.8790   71.7330  222.1560 C   0  0  0  0  0  0  0  0  0  0  0  0
  139.2483   71.3295  221.3501 H   0  0  0  0  0  0  0  0  0  0  0  0
  139.9360   71.0200  223.4590 C   0  0  0  0  0  0  0  0  0  0  0  0
  140.4740   71.6940  224.5120 N   0  0  0  0  0  0  0  0  0  0  0  0
  140.5170   71.1730  225.7560 C   0  0  0  0  0  0  0  0  0  0  0  0
  141.0950   71.9020  226.8010 C   0  0  0  0  0  0  0  0  0  0  0  0
  141.5361   72.8902  226.6039 H   0  0  0  0  0  0  0  0  0  0  0  0
  141.1120   71.3750  228.0950 C   0  0  0  0  0  0  0  0  0  0  0  0
  141.5710   71.9469  228.9149 H   0  0  0  0  0  0  0  0  0  0  0  0
  140.5470   70.1230  228.3490 C   0  0  0  0  0  0  0  0  0  0  0  0
  140.5598   69.7114  229.3690 H   0  0  0  0  0  0  0  0  0  0  0  0
  139.9650   69.3920  227.3080 C   0  0  0  0  0  0  0  0  0  0  0  0
  139.5175   68.4080  227.5115 H   0  0  0  0  0  0  0  0  0  0  0  0
  139.9510   69.9140  225.9990 C   0  0  0  0  0  0  0  0  0  0  0  0
  139.3890   69.2180  224.9160 C   0  0  0  0  0  0  0  0  0  0  0  0
  138.8120   68.1150  225.1350 O   0  0  0  0  0  0  0  0  0  0  0  0
  139.4480   69.7370  223.6390 N   0  0  0  0  0  0  0  0  0  0  0  0
  138.9680   68.9100  222.5000 C   0  0  0  0  0  0  0  0  0  0  0  0
  139.5657   69.1703  221.6140 H   0  0  0  0  0  0  0  0  0  0  0  0
  139.0825   67.8616  222.8126 H   0  0  0  0  0  0  0  0  0  0  0  0
  137.4610   69.0940  222.1380 C   0  0  0  0  0  0  0  0  0  0  0  0
  137.2655   68.2384  221.4748 H   0  0  0  0  0  0  0  0  0  0  0  0
  136.4700   68.9000  223.3130 C   0  0  0  0  0  0  0  0  0  0  0  0
  135.5072   68.5701  222.8958 H   0  0  0  0  0  0  0  0  0  0  0  0
  136.9322   68.1619  223.9849 H   0  0  0  0  0  0  0  0  0  0  0  0
  136.2140   70.1600  224.1690 C   0  0  0  0  0  0  0  0  0  0  0  0
  135.1788   70.1215  224.5389 H   0  0  0  0  0  0  0  0  0  0  0  0
  136.9567   70.1477  224.9803 H   0  0  0  0  0  0  0  0  0  0  0  0
  136.4070   71.4840  223.4130 C   0  0  0  0  0  0  0  0  0  0  0  0
  135.7115   72.2326  223.8202 H   0  0  0  0  0  0  0  0  0  0  0  0
  137.4505   71.8066  223.5434 H   0  0  0  0  0  0  0  0  0  0  0  0
  136.1400   71.3200  221.9190 C   0  0  0  0  0  0  0  0  0  0  0  0
  135.1262   70.9177  221.7763 H   0  0  0  0  0  0  0  0  0  0  0  0
  136.2348   72.3032  221.4350 H   0  0  0  0  0  0  0  0  0  0  0  0
  137.1560   70.3600  221.2830 C   0  0  0  0  0  0  0  0  0  0  0  0
  136.7590   70.0322  220.3109 H   0  0  0  0  0  0  0  0  0  0  0  0
  138.1013   70.9152  221.1924 H   0  0  0  0  0  0  0  0  0  0  0  0
  139.9810   74.2100  221.9430 C   0  0  0  0  0  0  0  0  0  0  0  0
  138.6020   74.3930  221.9690 C   0  0  0  0  0  0  0  0  0  0  0  0
  137.8469   73.5931  221.9793 H   0  0  0  0  0  0  0  0  0  0  0  0
  138.2860   76.0420  221.9820 S   0  0  0  0  0  0  0  0  0  0  0  0
  139.8860   76.5500  221.9610 C   0  0  0  0  0  0  0  0  0  0  0  0
  140.2311   77.5945  221.9614 H   0  0  0  0  0  0  0  0  0  0  0  0
  140.6980   75.4250  221.9430 C   0  0  0  0  0  0  0  0  0  0  0  0
  141.7968   75.4757  221.9300 H   0  0  0  0  0  0  0  0  0  0  0  0
  1  2  1  0
  2  3  2  0
  3  4  1  0
  3  5  1  0
  5  6  2  0
  6  7  1  0
  7  8  2  0
  8  9  1  0
  8 10  1  0
 10 11  1  0
 10 12  2  0
 12 13  1  0
 12 14  1  0
 14 15  1  0
 14 16  2  0
 16 17  1  0
 17 18  2  0
 17 19  1  0
 19 20  1  0
 20 21  1  0
 20 22  1  0
 20 23  1  0
 23 24  1  0
 23 25  1  0
 25 26  1  0
 25 27  1  0
 25 28  1  0
 28 29  1  0
 28 30  1  0
 28 31  1  0
 31 32  1  0
 31 33  1  0
 31 34  1  0
 34 35  1  0
 34 36  1  0
 34 37  1  0
 37 38  1  0
 37 39  1  0
  2 40  1  0
 40 41  2  0
 41 42  1  0
 41 43  1  0
 43 44  1  0
 44 45  1  0
 44 46  2  0
 46 47  1  0
 19  5  1  0
 37 23  1  0
 46 40  1  0
 16  7  1  0
M  END
>  <UniqueID>  (45) 
615

>  <SMILES>  (45) 
O=c1c2ccccc2nc(/C=C/c2ccsc2)n1CC1CCCCC1

>  <Energy>  (45) 
94.95577678879854

>  <Genealogy>  (45) 
O=c1c2ccccc2nc(/C=C/c2ccsc2)n1CC1CCCCC1 (cis-trans isomerization)
O=c1c2ccccc2nc(/C=C/c2ccsc2)n1CC1CCCCC1 (3D coordinates assigned)
O=c1c2ccccc2nc(/C=C/c2ccsc2)n1CC1CCCCC1 (nonaromatic ring conformer: 94.95577678879854 kcal/mol)

>  <smiles>  (45) 
O=c1c2ccccc2nc(/C=C/c2ccsc2)n1CC1CCCCC1

>  <score_type>  (45) 
oracle

>  <origin>  (45) 
autodockgpu

>  <m_score__min__energy>  (45) 
-6.8200000000000003

>  <m_primary>  (45) 
energy

>  <meeko>  (45) 
{"free_energy": -6.74, "intermolecular_energy": -8.23, "internal_energy": -1.79, "cluster_size": 16, "cluster_id": 1, "rank_in_cluster": 9}

>  <energy>  (45) 
-6.8

>  <cluster_rmsd>  (45) 
0.43

>  <rmsd>  (45) 
271.01

>  <cluster>  (45) 
1

$$$$
WQFRIXFTBLEVTI-ZHACJKMWNA-N
     RDKit          3D

 47 50  0  0  0  0  0  0  0  0999 V2000
  138.7201   78.2170  223.8826 H   0  0  0  0  0  0  0  0  0  0  0  0
  139.4500   78.3110  223.0650 C   0  0  0  0  0  0  0  0  0  0  0  0
  139.2910   77.5340  221.9850 C   0  0  0  0  0  0  0  0  0  0  0  0
  138.3864   77.6481  221.3696 H   0  0  0  0  0  0  0  0  0  0  0  0
  140.3090   76.5210  221.5990 C   0  0  0  0  0  0  0  0  0  0  0  0
  140.0690   75.2320  221.9620 N   0  0  0  0  0  0  0  0  0  0  0  0
  140.8880   74.2180  221.6090 C   0  0  0  0  0  0  0  0  0  0  0  0
  140.6030   72.9120  222.0210 C   0  0  0  0  0  0  0  0  0  0  0  0
  139.7244   72.7137  222.6525 H   0  0  0  0  0  0  0  0  0  0  0  0
  141.4350   71.8590  221.6300 C   0  0  0  0  0  0  0  0  0  0  0  0
  141.2134   70.8327  221.9579 H   0  0  0  0  0  0  0  0  0  0  0  0
  142.5480   72.1090  220.8230 C   0  0  0  0  0  0  0  0  0  0  0  0
  143.1998   71.2784  220.5143 H   0  0  0  0  0  0  0  0  0  0  0  0
  142.8350   73.4130  220.4070 C   0  0  0  0  0  0  0  0  0  0  0  0
  143.7104   73.6058  219.7694 H   0  0  0  0  0  0  0  0  0  0  0  0
  142.0050   74.4800  220.8030 C   0  0  0  0  0  0  0  0  0  0  0  0
  142.2520   75.8090  220.4220 C   0  0  0  0  0  0  0  0  0  0  0  0
  143.2130   76.0480  219.6370 O   0  0  0  0  0  0  0  0  0  0  0  0
  141.4500   76.8340  220.8800 N   0  0  0  0  0  0  0  0  0  0  0  0
  141.8250   78.2390  220.5690 C   0  0  0  0  0  0  0  0  0  0  0  0
  141.3767   78.8890  221.3348 H   0  0  0  0  0  0  0  0  0  0  0  0
  142.9246   78.2680  220.5594 H   0  0  0  0  0  0  0  0  0  0  0  0
  141.3640   78.7520  219.1690 C   0  0  0  0  0  0  0  0  0  0  0  0
  141.0173   77.8314  218.6768 H   0  0  0  0  0  0  0  0  0  0  0  0
  140.1180   79.6720  219.1790 C   0  0  0  0  0  0  0  0  0  0  0  0
  139.6118   79.5701  218.2077 H   0  0  0  0  0  0  0  0  0  0  0  0
  139.5035   79.3450  220.0308 H   0  0  0  0  0  0  0  0  0  0  0  0
  140.4100   81.1710  219.4110 C   0  0  0  0  0  0  0  0  0  0  0  0
  139.6619   81.7581  218.8582 H   0  0  0  0  0  0  0  0  0  0  0  0
  140.3640   81.3384  220.4972 H   0  0  0  0  0  0  0  0  0  0  0  0
  141.8080   81.6170  218.9530 C   0  0  0  0  0  0  0  0  0  0  0  0
  141.7556   82.6609  218.6103 H   0  0  0  0  0  0  0  0  0  0  0  0
  142.4976   81.5181  219.8042 H   0  0  0  0  0  0  0  0  0  0  0  0
  142.3280   80.7460  217.8120 C   0  0  0  0  0  0  0  0  0  0  0  0
  141.6054   80.7697  216.9830 H   0  0  0  0  0  0  0  0  0  0  0  0
  143.3016   81.1401  217.4853 H   0  0  0  0  0  0  0  0  0  0  0  0
  142.5170   79.2940  218.2720 C   0  0  0  0  0  0  0  0  0  0  0  0
  142.5881   78.6558  217.3789 H   0  0  0  0  0  0  0  0  0  0  0  0
  143.4302   79.2734  218.8849 H   0  0  0  0  0  0  0  0  0  0  0  0
  140.5500   79.2880  223.2220 C   0  0  0  0  0  0  0  0  0  0  0  0
  140.3960   80.6180  222.8430 C   0  0  0  0  0  0  0  0  0  0  0  0
  139.4911   81.0602  222.4008 H   0  0  0  0  0  0  0  0  0  0  0  0
  141.8250   81.4330  223.1750 S   0  0  0  0  0  0  0  0  0  0  0  0
  142.6580   80.1210  223.8090 C   0  0  0  0  0  0  0  0  0  0  0  0
  143.6894   80.1354  224.1911 H   0  0  0  0  0  0  0  0  0  0  0  0
  141.8210   79.0150  223.7680 C   0  0  0  0  0  0  0  0  0  0  0  0
  142.1207   78.0195  224.1274 H   0  0  0  0  0  0  0  0  0  0  0  0
  1  2  1  0
  2  3  2  0
  3  4  1  0
  3  5  1  0
  5  6  2  0
  6  7  1  0
  7  8  2  0
  8  9  1  0
  8 10  1  0
 10 11  1  0
 10 12  2  0
 12 13  1  0
 12 14  1  0
 14 15  1  0
 14 16  2  0
 16 17  1  0
 17 18  2  0
 17 19  1  0
 19 20  1  0
 20 21  1  0
 20 22  1  0
 20 23  1  0
 23 24  1  0
 23 25  1  0
 25 26  1  0
 25 27  1  0
 25 28  1  0
 28 29  1  0
 28 30  1  0
 28 31  1  0
 31 32  1  0
 31 33  1  0
 31 34  1  0
 34 35  1  0
 34 36  1  0
 34 37  1  0
 37 38  1  0
 37 39  1  0
  2 40  1  0
 40 41  2  0
 41 42  1  0
 41 43  1  0
 43 44  1  0
 44 45  1  0
 44 46  2  0
 46 47  1  0
 19  5  1  0
 37 23  1  0
 46 40  1  0
 16  7  1  0
M  END
>  <UniqueID>  (46) 
615

>  <SMILES>  (46) 
O=c1c2ccccc2nc(/C=C/c2ccsc2)n1CC1CCCCC1

>  <Energy>  (46) 
94.95577678879854

>  <Genealogy>  (46) 
O=c1c2ccccc2nc(/C=C/c2ccsc2)n1CC1CCCCC1 (cis-trans isomerization)
O=c1c2ccccc2nc(/C=C/c2ccsc2)n1CC1CCCCC1 (3D coordinates assigned)
O=c1c2ccccc2nc(/C=C/c2ccsc2)n1CC1CCCCC1 (nonaromatic ring conformer: 94.95577678879854 kcal/mol)

>  <smiles>  (46) 
O=c1c2ccccc2nc(/C=C/c2ccsc2)n1CC1CCCCC1

>  <score_type>  (46) 
oracle

>  <origin>  (46) 
autodockgpu

>  <m_score__min__energy>  (46) 
-6.8200000000000003

>  <m_primary>  (46) 
energy

>  <meeko>  (46) 
{"free_energy": -6.31, "intermolecular_energy": -7.8, "internal_energy": -1.7, "cluster_size": 2, "cluster_id": 3, "rank_in_cluster": 1}

>  <energy>  (46) 
-6.8

>  <cluster_rmsd>  (46) 
0.1

>  <rmsd>  (46) 
270.97

>  <cluster>  (46) 
1

$$$$
WQFRIXFTBLEVTI-ZHACJKMWNA-N
     RDKit          3D

 47 50  0  0  0  0  0  0  0  0999 V2000
  141.7124   72.2459  221.4459 H   0  0  0  0  0  0  0  0  0  0  0  0
  140.6900   72.5100  221.7540 C   0  0  0  0  0  0  0  0  0  0  0  0
  139.8570   71.5170  222.0950 C   0  0  0  0  0  0  0  0  0  0  0  0
  139.1031   71.1756  221.3703 H   0  0  0  0  0  0  0  0  0  0  0  0
  139.9280   70.8660  223.4300 C   0  0  0  0  0  0  0  0  0  0  0  0
  140.4920   71.5820  224.4400 N   0  0  0  0  0  0  0  0  0  0  0  0
  140.5520   71.1200  225.7070 C   0  0  0  0  0  0  0  0  0  0  0  0
  141.1560   71.8910  226.7060 C   0  0  0  0  0  0  0  0  0  0  0  0
  141.6042   72.8635  226.4545 H   0  0  0  0  0  0  0  0  0  0  0  0
  141.1900   71.4260  228.0230 C   0  0  0  0  0  0  0  0  0  0  0  0
  141.6692   72.0307  228.8070 H   0  0  0  0  0  0  0  0  0  0  0  0
  140.6160   70.1940  228.3450 C   0  0  0  0  0  0  0  0  0  0  0  0
  140.6423   69.8310  229.3830 H   0  0  0  0  0  0  0  0  0  0  0  0
  140.0080   69.4210  227.3510 C   0  0  0  0  0  0  0  0  0  0  0  0
  139.5541   68.4527  227.6088 H   0  0  0  0  0  0  0  0  0  0  0  0
  139.9760   69.8810  226.0190 C   0  0  0  0  0  0  0  0  0  0  0  0
  139.3870   69.1410  224.9800 C   0  0  0  0  0  0  0  0  0  0  0  0
  138.8020   68.0570  225.2600 O   0  0  0  0  0  0  0  0  0  0  0  0
  139.4300   69.5980  223.6790 N   0  0  0  0  0  0  0  0  0  0  0  0
  138.9200   68.7240  222.5880 C   0  0  0  0  0  0  0  0  0  0  0  0
  139.5184   68.9202  221.6861 H   0  0  0  0  0  0  0  0  0  0  0  0
  139.0085   67.6911  222.9558 H   0  0  0  0  0  0  0  0  0  0  0  0
  137.4170   68.9290  222.2250 C   0  0  0  0  0  0  0  0  0  0  0  0
  137.1747   68.0085  221.6736 H   0  0  0  0  0  0  0  0  0  0  0  0
  136.4390   68.9220  223.4250 C   0  0  0  0  0  0  0  0  0  0  0  0
  135.4564   68.5865  223.0617 H   0  0  0  0  0  0  0  0  0  0  0  0
  136.8811   68.2511  224.1763 H   0  0  0  0  0  0  0  0  0  0  0  0
  136.2500   70.2860  224.1250 C   0  0  0  0  0  0  0  0  0  0  0  0
  135.2202   70.3376  224.5083 H   0  0  0  0  0  0  0  0  0  0  0  0
  137.0045   70.3393  224.9237 H   0  0  0  0  0  0  0  0  0  0  0  0
  136.4860   71.4990  223.2120 C   0  0  0  0  0  0  0  0  0  0  0  0
  135.8293   72.3210  223.5332 H   0  0  0  0  0  0  0  0  0  0  0  0
  137.5442   71.7889  223.2906 H   0  0  0  0  0  0  0  0  0  0  0  0
  136.1880   71.1680  221.7520 C   0  0  0  0  0  0  0  0  0  0  0  0
  135.1558   70.7967  221.6704 H   0  0  0  0  0  0  0  0  0  0  0  0
  136.3168   72.0806  221.1515 H   0  0  0  0  0  0  0  0  0  0  0  0
  137.1510   70.0950  221.2260 C   0  0  0  0  0  0  0  0  0  0  0  0
  136.7241   69.6699  220.3057 H   0  0  0  0  0  0  0  0  0  0  0  0
  138.1172   70.5931  221.0577 H   0  0  0  0  0  0  0  0  0  0  0  0
  140.3140   73.9410  221.7680 C   0  0  0  0  0  0  0  0  0  0  0  0
  138.9980   74.3410  221.9760 C   0  0  0  0  0  0  0  0  0  0  0  0
  138.1396   73.6716  222.1340 H   0  0  0  0  0  0  0  0  0  0  0  0
  138.9420   76.0190  221.9450 S   0  0  0  0  0  0  0  0  0  0  0  0
  140.5810   76.2650  221.6740 C   0  0  0  0  0  0  0  0  0  0  0  0
  141.0782   77.2408  221.5706 H   0  0  0  0  0  0  0  0  0  0  0  0
  141.2000   75.0250  221.6030 C   0  0  0  0  0  0  0  0  0  0  0  0
  142.2797   74.8998  221.4340 H   0  0  0  0  0  0  0  0  0  0  0  0
  1  2  1  0
  2  3  2  0
  3  4  1  0
  3  5  1  0
  5  6  2  0
  6  7  1  0
  7  8  2  0
  8  9  1  0
  8 10  1  0
 10 11  1  0
 10 12  2  0
 12 13  1  0
 12 14  1  0
 14 15  1  0
 14 16  2  0
 16 17  1  0
 17 18  2  0
 17 19  1  0
 19 20  1  0
 20 21  1  0
 20 22  1  0
 20 23  1  0
 23 24  1  0
 23 25  1  0
 25 26  1  0
 25 27  1  0
 25 28  1  0
 28 29  1  0
 28 30  1  0
 28 31  1  0
 31 32  1  0
 31 33  1  0
 31 34  1  0
 34 35  1  0
 34 36  1  0
 34 37  1  0
 37 38  1  0
 37 39  1  0
  2 40  1  0
 40 41  2  0
 41 42  1  0
 41 43  1  0
 43 44  1  0
 44 45  1  0
 44 46  2  0
 46 47  1  0
 19  5  1  0
 37 23  1  0
 46 40  1  0
 16  7  1  0
M  END
>  <UniqueID>  (47) 
615

>  <SMILES>  (47) 
O=c1c2ccccc2nc(/C=C/c2ccsc2)n1CC1CCCCC1

>  <Energy>  (47) 
94.95577678879854

>  <Genealogy>  (47) 
O=c1c2ccccc2nc(/C=C/c2ccsc2)n1CC1CCCCC1 (cis-trans isomerization)
O=c1c2ccccc2nc(/C=C/c2ccsc2)n1CC1CCCCC1 (3D coordinates assigned)
O=c1c2ccccc2nc(/C=C/c2ccsc2)n1CC1CCCCC1 (nonaromatic ring conformer: 94.95577678879854 kcal/mol)

>  <smiles>  (47) 
O=c1c2ccccc2nc(/C=C/c2ccsc2)n1CC1CCCCC1

>  <score_type>  (47) 
oracle

>  <origin>  (47) 
autodockgpu

>  <m_score__min__energy>  (47) 
-6.8200000000000003

>  <m_primary>  (47) 
energy

>  <meeko>  (47) 
{"free_energy": -6.76, "intermolecular_energy": -8.26, "internal_energy": -1.76, "cluster_size": 16, "cluster_id": 1, "rank_in_cluster": 7}

>  <energy>  (47) 
-6.76

>  <cluster_rmsd>  (47) 
0.14

>  <rmsd>  (47) 
270.99

>  <cluster>  (47) 
1

$$$$
WQFRIXFTBLEVTI-ZHACJKMWNA-N
     RDKit          3D

 47 50  0  0  0  0  0  0  0  0999 V2000
  138.0488   72.6745  221.8748 H   0  0  0  0  0  0  0  0  0  0  0  0
  139.1240   72.8750  221.9920 C   0  0  0  0  0  0  0  0  0  0  0  0
  139.9440   71.8310  222.1800 C   0  0  0  0  0  0  0  0  0  0  0  0
  140.6084   71.5156  221.3620 H   0  0  0  0  0  0  0  0  0  0  0  0
  139.9760   71.0900  223.4680 C   0  0  0  0  0  0  0  0  0  0  0  0
  140.4960   71.7390  224.5450 N   0  0  0  0  0  0  0  0  0  0  0  0
  140.5170   71.1910  225.7780 C   0  0  0  0  0  0  0  0  0  0  0  0
  141.0770   71.8960  226.8490 C   0  0  0  0  0  0  0  0  0  0  0  0
  141.5226   72.8877  226.6819 H   0  0  0  0  0  0  0  0  0  0  0  0
  141.0700   71.3400  228.1310 C   0  0  0  0  0  0  0  0  0  0  0  0
  141.5146   71.8925  228.9719 H   0  0  0  0  0  0  0  0  0  0  0  0
  140.4990   70.0830  228.3460 C   0  0  0  0  0  0  0  0  0  0  0  0
  140.4926   69.6489  229.3567 H   0  0  0  0  0  0  0  0  0  0  0  0
  139.9360   69.3760  227.2800 C   0  0  0  0  0  0  0  0  0  0  0  0
  139.4851   68.3878  227.4537 H   0  0  0  0  0  0  0  0  0  0  0  0
  139.9450   69.9270  225.9830 C   0  0  0  0  0  0  0  0  0  0  0  0
  139.4020   69.2560  224.8750 C   0  0  0  0  0  0  0  0  0  0  0  0
  138.8200   68.1500  225.0580 O   0  0  0  0  0  0  0  0  0  0  0  0
  139.4850   69.8030  223.6100 N   0  0  0  0  0  0  0  0  0  0  0  0
  139.0240   69.0020  222.4450 C   0  0  0  0  0  0  0  0  0  0  0  0
  139.5808   69.3386  221.5581 H   0  0  0  0  0  0  0  0  0  0  0  0
  139.2089   67.9491  222.7044 H   0  0  0  0  0  0  0  0  0  0  0  0
  137.4990   69.1110  222.1290 C   0  0  0  0  0  0  0  0  0  0  0  0
  137.3222   68.2372  221.4847 H   0  0  0  0  0  0  0  0  0  0  0  0
  136.5560   68.8900  223.3380 C   0  0  0  0  0  0  0  0  0  0  0  0
  135.5969   68.5093  222.9571 H   0  0  0  0  0  0  0  0  0  0  0  0
  137.0731   68.1847  224.0052 H   0  0  0  0  0  0  0  0  0  0  0  0
  136.2690   70.1500  224.1830 C   0  0  0  0  0  0  0  0  0  0  0  0
  135.2492   70.0694  224.5874 H   0  0  0  0  0  0  0  0  0  0  0  0
  137.0374   70.1853  224.9694 H   0  0  0  0  0  0  0  0  0  0  0  0
  136.3750   71.4690  223.4020 C   0  0  0  0  0  0  0  0  0  0  0  0
  135.6575   72.1904  223.8202 H   0  0  0  0  0  0  0  0  0  0  0  0
  137.4056   71.8423  223.4944 H   0  0  0  0  0  0  0  0  0  0  0  0
  136.0700   71.2690  221.9200 C   0  0  0  0  0  0  0  0  0  0  0  0
  135.0721   70.8183  221.8154 H   0  0  0  0  0  0  0  0  0  0  0  0
  136.1041   72.2477  221.4191 H   0  0  0  0  0  0  0  0  0  0  0  0
  137.1090   70.3470  221.2660 C   0  0  0  0  0  0  0  0  0  0  0  0
  136.6975   69.9856  220.3120 H   0  0  0  0  0  0  0  0  0  0  0  0
  138.0241   70.9436  221.1369 H   0  0  0  0  0  0  0  0  0  0  0  0
  139.5810   74.2810  221.9330 C   0  0  0  0  0  0  0  0  0  0  0  0
  138.7380   75.3310  222.2850 C   0  0  0  0  0  0  0  0  0  0  0  0
  137.6937   75.2344  222.6169 H   0  0  0  0  0  0  0  0  0  0  0  0
  139.5860   76.7700  222.1170 S   0  0  0  0  0  0  0  0  0  0  0  0
  141.0310   76.0890  221.6020 C   0  0  0  0  0  0  0  0  0  0  0  0
  141.9482   76.6395  221.3459 H   0  0  0  0  0  0  0  0  0  0  0  0
  140.8690   74.7120  221.5550 C   0  0  0  0  0  0  0  0  0  0  0  0
  141.6698   74.0217  221.2515 H   0  0  0  0  0  0  0  0  0  0  0  0
  1  2  1  0
  2  3  2  0
  3  4  1  0
  3  5  1  0
  5  6  2  0
  6  7  1  0
  7  8  2  0
  8  9  1  0
  8 10  1  0
 10 11  1  0
 10 12  2  0
 12 13  1  0
 12 14  1  0
 14 15  1  0
 14 16  2  0
 16 17  1  0
 17 18  2  0
 17 19  1  0
 19 20  1  0
 20 21  1  0
 20 22  1  0
 20 23  1  0
 23 24  1  0
 23 25  1  0
 25 26  1  0
 25 27  1  0
 25 28  1  0
 28 29  1  0
 28 30  1  0
 28 31  1  0
 31 32  1  0
 31 33  1  0
 31 34  1  0
 34 35  1  0
 34 36  1  0
 34 37  1  0
 37 38  1  0
 37 39  1  0
  2 40  1  0
 40 41  2  0
 41 42  1  0
 41 43  1  0
 43 44  1  0
 44 45  1  0
 44 46  2  0
 46 47  1  0
 19  5  1  0
 37 23  1  0
 46 40  1  0
 16  7  1  0
M  END
>  <UniqueID>  (48) 
615

>  <SMILES>  (48) 
O=c1c2ccccc2nc(/C=C/c2ccsc2)n1CC1CCCCC1

>  <Energy>  (48) 
94.95577678879854

>  <Genealogy>  (48) 
O=c1c2ccccc2nc(/C=C/c2ccsc2)n1CC1CCCCC1 (cis-trans isomerization)
O=c1c2ccccc2nc(/C=C/c2ccsc2)n1CC1CCCCC1 (3D coordinates assigned)
O=c1c2ccccc2nc(/C=C/c2ccsc2)n1CC1CCCCC1 (nonaromatic ring conformer: 94.95577678879854 kcal/mol)

>  <smiles>  (48) 
O=c1c2ccccc2nc(/C=C/c2ccsc2)n1CC1CCCCC1

>  <score_type>  (48) 
oracle

>  <origin>  (48) 
autodockgpu

>  <m_score__min__energy>  (48) 
-6.8200000000000003

>  <m_primary>  (48) 
energy

>  <meeko>  (48) 
{"free_energy": -6.81, "intermolecular_energy": -8.3, "internal_energy": -1.71, "cluster_size": 16, "cluster_id": 1, "rank_in_cluster": 4}

>  <energy>  (48) 
-6.76

>  <cluster_rmsd>  (48) 
0.62

>  <rmsd>  (48) 
271.01

>  <cluster>  (48) 
1

$$$$
WQFRIXFTBLEVTI-ZHACJKMWNA-N
     RDKit          3D

 47 50  0  0  0  0  0  0  0  0999 V2000
  143.3141   79.5917  218.8188 H   0  0  0  0  0  0  0  0  0  0  0  0
  142.3330   80.0760  218.9320 C   0  0  0  0  0  0  0  0  0  0  0  0
  141.3440   79.3720  219.4990 C   0  0  0  0  0  0  0  0  0  0  0  0
  140.3810   79.8645  219.6993 H   0  0  0  0  0  0  0  0  0  0  0  0
  141.5170   77.9410  219.8640 C   0  0  0  0  0  0  0  0  0  0  0  0
  142.4490   77.2330  219.1710 N   0  0  0  0  0  0  0  0  0  0  0  0
  142.7390   75.9460  219.4590 C   0  0  0  0  0  0  0  0  0  0  0  0
  143.6960   75.2580  218.7050 C   0  0  0  0  0  0  0  0  0  0  0  0
  144.1941   75.7575  217.8609 H   0  0  0  0  0  0  0  0  0  0  0  0
  144.0190   73.9370  219.0240 C   0  0  0  0  0  0  0  0  0  0  0  0
  144.7687   73.3957  218.4282 H   0  0  0  0  0  0  0  0  0  0  0  0
  143.3910   73.3020  220.0990 C   0  0  0  0  0  0  0  0  0  0  0  0
  143.6482   72.2622  220.3492 H   0  0  0  0  0  0  0  0  0  0  0  0
  142.4360   73.9870  220.8570 C   0  0  0  0  0  0  0  0  0  0  0  0
  141.9454   73.4860  221.7045 H   0  0  0  0  0  0  0  0  0  0  0  0
  142.1010   75.3180  220.5370 C   0  0  0  0  0  0  0  0  0  0  0  0
  141.1430   76.0480  221.2600 C   0  0  0  0  0  0  0  0  0  0  0  0
  140.6120   75.5180  222.2770 O   0  0  0  0  0  0  0  0  0  0  0  0
  140.7990   77.3290  220.8780 N   0  0  0  0  0  0  0  0  0  0  0  0
  139.6830   78.0180  221.5800 C   0  0  0  0  0  0  0  0  0  0  0  0
  139.2548   78.7618  220.8919 H   0  0  0  0  0  0  0  0  0  0  0  0
  138.9716   77.2313  221.8716 H   0  0  0  0  0  0  0  0  0  0  0  0
  140.0840   78.7520  222.8970 C   0  0  0  0  0  0  0  0  0  0  0  0
  139.4489   78.2622  223.6498 H   0  0  0  0  0  0  0  0  0  0  0  0
  141.5290   78.4880  223.3880 C   0  0  0  0  0  0  0  0  0  0  0  0
  141.5466   78.6172  224.4802 H   0  0  0  0  0  0  0  0  0  0  0  0
  141.7810   77.4678  223.0630 H   0  0  0  0  0  0  0  0  0  0  0  0
  142.6070   79.4110  222.7800 C   0  0  0  0  0  0  0  0  0  0  0  0
  143.3947   79.5639  223.5324 H   0  0  0  0  0  0  0  0  0  0  0  0
  142.9763   78.9111  221.8724 H   0  0  0  0  0  0  0  0  0  0  0  0
  142.0830   80.7880  222.3440 C   0  0  0  0  0  0  0  0  0  0  0  0
  142.8824   81.5322  222.4750 H   0  0  0  0  0  0  0  0  0  0  0  0
  141.7772   80.7220  221.2894 H   0  0  0  0  0  0  0  0  0  0  0  0
  140.8710   81.2130  223.1670 C   0  0  0  0  0  0  0  0  0  0  0  0
  141.1390   81.2036  224.2338 H   0  0  0  0  0  0  0  0  0  0  0  0
  140.5715   82.2243  222.8547 H   0  0  0  0  0  0  0  0  0  0  0  0
  139.6900   80.2590  222.9370 C   0  0  0  0  0  0  0  0  0  0  0  0
  138.9654   80.4045  223.7517 H   0  0  0  0  0  0  0  0  0  0  0  0
  139.2746   80.5032  221.9481 H   0  0  0  0  0  0  0  0  0  0  0  0
  142.1830   81.4670  218.4490 C   0  0  0  0  0  0  0  0  0  0  0  0
  141.2400   82.3260  219.0050 C   0  0  0  0  0  0  0  0  0  0  0  0
  140.5366   82.0742  219.8124 H   0  0  0  0  0  0  0  0  0  0  0  0
  141.3590   83.8130  218.2330 S   0  0  0  0  0  0  0  0  0  0  0  0
  142.6070   83.3950  217.1910 C   0  0  0  0  0  0  0  0  0  0  0  0
  143.0718   84.0551  216.4438 H   0  0  0  0  0  0  0  0  0  0  0  0
  142.9510   82.0730  217.4350 C   0  0  0  0  0  0  0  0  0  0  0  0
  143.7481   81.5477  216.8884 H   0  0  0  0  0  0  0  0  0  0  0  0
  1  2  1  0
  2  3  2  0
  3  4  1  0
  3  5  1  0
  5  6  2  0
  6  7  1  0
  7  8  2  0
  8  9  1  0
  8 10  1  0
 10 11  1  0
 10 12  2  0
 12 13  1  0
 12 14  1  0
 14 15  1  0
 14 16  2  0
 16 17  1  0
 17 18  2  0
 17 19  1  0
 19 20  1  0
 20 21  1  0
 20 22  1  0
 20 23  1  0
 23 24  1  0
 23 25  1  0
 25 26  1  0
 25 27  1  0
 25 28  1  0
 28 29  1  0
 28 30  1  0
 28 31  1  0
 31 32  1  0
 31 33  1  0
 31 34  1  0
 34 35  1  0
 34 36  1  0
 34 37  1  0
 37 38  1  0
 37 39  1  0
  2 40  1  0
 40 41  2  0
 41 42  1  0
 41 43  1  0
 43 44  1  0
 44 45  1  0
 44 46  2  0
 46 47  1  0
 19  5  1  0
 37 23  1  0
 46 40  1  0
 16  7  1  0
M  END
>  <UniqueID>  (49) 
615

>  <SMILES>  (49) 
O=c1c2ccccc2nc(/C=C/c2ccsc2)n1CC1CCCCC1

>  <Energy>  (49) 
94.95577678879854

>  <Genealogy>  (49) 
O=c1c2ccccc2nc(/C=C/c2ccsc2)n1CC1CCCCC1 (cis-trans isomerization)
O=c1c2ccccc2nc(/C=C/c2ccsc2)n1CC1CCCCC1 (3D coordinates assigned)
O=c1c2ccccc2nc(/C=C/c2ccsc2)n1CC1CCCCC1 (nonaromatic ring conformer: 94.95577678879854 kcal/mol)

>  <smiles>  (49) 
O=c1c2ccccc2nc(/C=C/c2ccsc2)n1CC1CCCCC1

>  <score_type>  (49) 
oracle

>  <origin>  (49) 
autodockgpu

>  <m_score__min__energy>  (49) 
-6.8200000000000003

>  <m_primary>  (49) 
energy

>  <meeko>  (49) 
{"free_energy": -6.28, "intermolecular_energy": -7.77, "internal_energy": -1.61, "cluster_size": 2, "cluster_id": 2, "rank_in_cluster": 2}

>  <energy>  (49) 
-6.74

>  <cluster_rmsd>  (49) 
0.33

>  <rmsd>  (49) 
270.99

>  <cluster>  (49) 
1

$$$$
WQFRIXFTBLEVTI-ZHACJKMWNA-N
     RDKit          3D

 47 50  0  0  0  0  0  0  0  0999 V2000
  138.0234   72.6962  221.9422 H   0  0  0  0  0  0  0  0  0  0  0  0
  139.1030   72.8890  222.0280 C   0  0  0  0  0  0  0  0  0  0  0  0
  139.9200   71.8400  222.1990 C   0  0  0  0  0  0  0  0  0  0  0  0
  140.5729   71.5269  221.3710 H   0  0  0  0  0  0  0  0  0  0  0  0
  139.9640   71.0900  223.4820 C   0  0  0  0  0  0  0  0  0  0  0  0
  140.4890   71.7340  224.5600 N   0  0  0  0  0  0  0  0  0  0  0  0
  140.5200   71.1780  225.7890 C   0  0  0  0  0  0  0  0  0  0  0  0
  141.0840   71.8780  226.8610 C   0  0  0  0  0  0  0  0  0  0  0  0
  141.5245   72.8726  226.6973 H   0  0  0  0  0  0  0  0  0  0  0  0
  141.0880   71.3140  228.1400 C   0  0  0  0  0  0  0  0  0  0  0  0
  141.5354   71.8632  228.9816 H   0  0  0  0  0  0  0  0  0  0  0  0
  140.5240   70.0530  228.3500 C   0  0  0  0  0  0  0  0  0  0  0  0
  140.5263   69.6118  229.3576 H   0  0  0  0  0  0  0  0  0  0  0  0
  139.9570   69.3510  227.2830 C   0  0  0  0  0  0  0  0  0  0  0  0
  139.5115   68.3597  227.4528 H   0  0  0  0  0  0  0  0  0  0  0  0
  139.9550   69.9110  225.9900 C   0  0  0  0  0  0  0  0  0  0  0  0
  139.4070   69.2450  224.8810 C   0  0  0  0  0  0  0  0  0  0  0  0
  138.8310   68.1350  225.0610 O   0  0  0  0  0  0  0  0  0  0  0  0
  139.4790   69.8000  223.6190 N   0  0  0  0  0  0  0  0  0  0  0  0
  139.0140   69.0050  222.4520 C   0  0  0  0  0  0  0  0  0  0  0  0
  139.5781   69.3359  221.5675 H   0  0  0  0  0  0  0  0  0  0  0  0
  139.1862   67.9500  222.7115 H   0  0  0  0  0  0  0  0  0  0  0  0
  137.4920   69.1310  222.1300 C   0  0  0  0  0  0  0  0  0  0  0  0
  137.3134   68.2706  221.4683 H   0  0  0  0  0  0  0  0  0  0  0  0
  136.5410   68.8950  223.3290 C   0  0  0  0  0  0  0  0  0  0  0  0
  135.5815   68.5283  222.9354 H   0  0  0  0  0  0  0  0  0  0  0  0
  137.0503   68.1744  223.9857 H   0  0  0  0  0  0  0  0  0  0  0  0
  136.2570   70.1400  224.1970 C   0  0  0  0  0  0  0  0  0  0  0  0
  135.2338   70.0589  224.5926 H   0  0  0  0  0  0  0  0  0  0  0  0
  137.0198   70.1542  224.9894 H   0  0  0  0  0  0  0  0  0  0  0  0
  136.3780   71.4730  223.4430 C   0  0  0  0  0  0  0  0  0  0  0  0
  135.6639   72.1918  223.8711 H   0  0  0  0  0  0  0  0  0  0  0  0
  137.4108   71.8365  223.5486 H   0  0  0  0  0  0  0  0  0  0  0  0
  136.0800   71.3040  221.9560 C   0  0  0  0  0  0  0  0  0  0  0  0
  135.0792   70.8632  221.8374 H   0  0  0  0  0  0  0  0  0  0  0  0
  136.1250   72.2921  221.4747 H   0  0  0  0  0  0  0  0  0  0  0  0
  137.1150   70.3870  221.2890 C   0  0  0  0  0  0  0  0  0  0  0  0
  136.7052   70.0472  220.3264 H   0  0  0  0  0  0  0  0  0  0  0  0
  138.0351   70.9791  221.1756 H   0  0  0  0  0  0  0  0  0  0  0  0
  139.5690   74.2910  221.9480 C   0  0  0  0  0  0  0  0  0  0  0  0
  138.7330   75.3510  222.2830 C   0  0  0  0  0  0  0  0  0  0  0  0
  137.6880   75.2661  222.6158 H   0  0  0  0  0  0  0  0  0  0  0  0
  139.5900   76.7820  222.0930 S   0  0  0  0  0  0  0  0  0  0  0  0
  141.0310   76.0840  221.5890 C   0  0  0  0  0  0  0  0  0  0  0  0
  141.9518   76.6247  221.3249 H   0  0  0  0  0  0  0  0  0  0  0  0
  140.8600   74.7070  221.5630 C   0  0  0  0  0  0  0  0  0  0  0  0
  141.6560   74.0067  221.2699 H   0  0  0  0  0  0  0  0  0  0  0  0
  1  2  1  0
  2  3  2  0
  3  4  1  0
  3  5  1  0
  5  6  2  0
  6  7  1  0
  7  8  2  0
  8  9  1  0
  8 10  1  0
 10 11  1  0
 10 12  2  0
 12 13  1  0
 12 14  1  0
 14 15  1  0
 14 16  2  0
 16 17  1  0
 17 18  2  0
 17 19  1  0
 19 20  1  0
 20 21  1  0
 20 22  1  0
 20 23  1  0
 23 24  1  0
 23 25  1  0
 25 26  1  0
 25 27  1  0
 25 28  1  0
 28 29  1  0
 28 30  1  0
 28 31  1  0
 31 32  1  0
 31 33  1  0
 31 34  1  0
 34 35  1  0
 34 36  1  0
 34 37  1  0
 37 38  1  0
 37 39  1  0
  2 40  1  0
 40 41  2  0
 41 42  1  0
 41 43  1  0
 43 44  1  0
 44 45  1  0
 44 46  2  0
 46 47  1  0
 19  5  1  0
 37 23  1  0
 46 40  1  0
 16  7  1  0
M  END
>  <UniqueID>  (50) 
615

>  <SMILES>  (50) 
O=c1c2ccccc2nc(/C=C/c2ccsc2)n1CC1CCCCC1

>  <Energy>  (50) 
94.95577678879854

>  <Genealogy>  (50) 
O=c1c2ccccc2nc(/C=C/c2ccsc2)n1CC1CCCCC1 (cis-trans isomerization)
O=c1c2ccccc2nc(/C=C/c2ccsc2)n1CC1CCCCC1 (3D coordinates assigned)
O=c1c2ccccc2nc(/C=C/c2ccsc2)n1CC1CCCCC1 (nonaromatic ring conformer: 94.95577678879854 kcal/mol)

>  <smiles>  (50) 
O=c1c2ccccc2nc(/C=C/c2ccsc2)n1CC1CCCCC1

>  <score_type>  (50) 
oracle

>  <origin>  (50) 
autodockgpu

>  <m_score__min__energy>  (50) 
-6.8200000000000003

>  <m_primary>  (50) 
energy

>  <meeko>  (50) 
{"free_energy": -6.81, "intermolecular_energy": -8.3, "internal_energy": -1.7, "cluster_size": 16, "cluster_id": 1, "rank_in_cluster": 3}

>  <energy>  (50) 
-6.73

>  <cluster_rmsd>  (50) 
0.62

>  <rmsd>  (50) 
271.0

>  <cluster>  (50) 
1

$$$$
WQFRIXFTBLEVTI-ZHACJKMWNA-N
     RDKit          3D

 47 50  0  0  0  0  0  0  0  0999 V2000
  138.0071   72.6873  221.8946 H   0  0  0  0  0  0  0  0  0  0  0  0
  139.0870   72.8690  221.9980 C   0  0  0  0  0  0  0  0  0  0  0  0
  139.8920   71.8110  222.1730 C   0  0  0  0  0  0  0  0  0  0  0  0
  140.5271   71.4754  221.3399 H   0  0  0  0  0  0  0  0  0  0  0  0
  139.9460   71.0810  223.4670 C   0  0  0  0  0  0  0  0  0  0  0  0
  140.4790   71.7410  224.5300 N   0  0  0  0  0  0  0  0  0  0  0  0
  140.5200   71.2040  225.7680 C   0  0  0  0  0  0  0  0  0  0  0  0
  141.0930   71.9200  226.8250 C   0  0  0  0  0  0  0  0  0  0  0  0
  141.5326   72.9117  226.6428 H   0  0  0  0  0  0  0  0  0  0  0  0
  141.1070   71.3760  228.1110 C   0  0  0  0  0  0  0  0  0  0  0  0
  141.5613   71.9382  228.9402 H   0  0  0  0  0  0  0  0  0  0  0  0
  140.5450   70.1190  228.3460 C   0  0  0  0  0  0  0  0  0  0  0  0
  140.5562   69.6937  229.3604 H   0  0  0  0  0  0  0  0  0  0  0  0
  139.9680   69.4000  227.2940 C   0  0  0  0  0  0  0  0  0  0  0  0
  139.5231   68.4119  227.4830 H   0  0  0  0  0  0  0  0  0  0  0  0
  139.9560   69.9400  225.9920 C   0  0  0  0  0  0  0  0  0  0  0  0
  139.3990   69.2570  224.8980 C   0  0  0  0  0  0  0  0  0  0  0  0
  138.8250   68.1500  225.1000 O   0  0  0  0  0  0  0  0  0  0  0  0
  139.4610   69.7940  223.6280 N   0  0  0  0  0  0  0  0  0  0  0  0
  138.9860   68.9810  222.4760 C   0  0  0  0  0  0  0  0  0  0  0  0
  139.5426   69.2987  221.5820 H   0  0  0  0  0  0  0  0  0  0  0  0
  139.1605   67.9300  222.7498 H   0  0  0  0  0  0  0  0  0  0  0  0
  137.4620   69.1020  222.1650 C   0  0  0  0  0  0  0  0  0  0  0  0
  137.2744   68.2225  221.5315 H   0  0  0  0  0  0  0  0  0  0  0  0
  136.5210   68.9050  223.3800 C   0  0  0  0  0  0  0  0  0  0  0  0
  135.5565   68.5305  223.0066 H   0  0  0  0  0  0  0  0  0  0  0  0
  137.0336   68.2020  224.0531 H   0  0  0  0  0  0  0  0  0  0  0  0
  136.2500   70.1770  224.2130 C   0  0  0  0  0  0  0  0  0  0  0  0
  135.2306   70.1118  224.6212 H   0  0  0  0  0  0  0  0  0  0  0  0
  137.0206   70.2124  224.9972 H   0  0  0  0  0  0  0  0  0  0  0  0
  136.3680   71.4860  223.4170 C   0  0  0  0  0  0  0  0  0  0  0  0
  135.6604   72.2201  223.8298 H   0  0  0  0  0  0  0  0  0  0  0  0
  137.4031   71.8486  223.5015 H   0  0  0  0  0  0  0  0  0  0  0  0
  136.0550   71.2730  221.9380 C   0  0  0  0  0  0  0  0  0  0  0  0
  135.0518   70.8320  221.8422 H   0  0  0  0  0  0  0  0  0  0  0  0
  136.0979   72.2458  221.4264 H   0  0  0  0  0  0  0  0  0  0  0  0
  137.0810   70.3330  221.2900 C   0  0  0  0  0  0  0  0  0  0  0  0
  136.6614   69.9655  220.3419 H   0  0  0  0  0  0  0  0  0  0  0  0
  138.0018   70.9184  221.1505 H   0  0  0  0  0  0  0  0  0  0  0  0
  139.5680   74.2670  221.9360 C   0  0  0  0  0  0  0  0  0  0  0  0
  140.8610   74.5690  221.5190 C   0  0  0  0  0  0  0  0  0  0  0  0
  141.6267   73.8395  221.2167 H   0  0  0  0  0  0  0  0  0  0  0  0
  141.0530   76.2370  221.5560 S   0  0  0  0  0  0  0  0  0  0  0  0
  139.5050   76.6020  222.0920 C   0  0  0  0  0  0  0  0  0  0  0  0
  139.1102   77.6106  222.2841 H   0  0  0  0  0  0  0  0  0  0  0  0
  138.8090   75.4120  222.2510 C   0  0  0  0  0  0  0  0  0  0  0  0
  137.7638   75.3667  222.5908 H   0  0  0  0  0  0  0  0  0  0  0  0
  1  2  1  0
  2  3  2  0
  3  4  1  0
  3  5  1  0
  5  6  2  0
  6  7  1  0
  7  8  2  0
  8  9  1  0
  8 10  1  0
 10 11  1  0
 10 12  2  0
 12 13  1  0
 12 14  1  0
 14 15  1  0
 14 16  2  0
 16 17  1  0
 17 18  2  0
 17 19  1  0
 19 20  1  0
 20 21  1  0
 20 22  1  0
 20 23  1  0
 23 24  1  0
 23 25  1  0
 25 26  1  0
 25 27  1  0
 25 28  1  0
 28 29  1  0
 28 30  1  0
 28 31  1  0
 31 32  1  0
 31 33  1  0
 31 34  1  0
 34 35  1  0
 34 36  1  0
 34 37  1  0
 37 38  1  0
 37 39  1  0
  2 40  1  0
 40 41  2  0
 41 42  1  0
 41 43  1  0
 43 44  1  0
 44 45  1  0
 44 46  2  0
 46 47  1  0
 19  5  1  0
 37 23  1  0
 46 40  1  0
 16  7  1  0
M  END
>  <UniqueID>  (51) 
615

>  <SMILES>  (51) 
O=c1c2ccccc2nc(/C=C/c2ccsc2)n1CC1CCCCC1

>  <Energy>  (51) 
94.95577678879854

>  <Genealogy>  (51) 
O=c1c2ccccc2nc(/C=C/c2ccsc2)n1CC1CCCCC1 (cis-trans isomerization)
O=c1c2ccccc2nc(/C=C/c2ccsc2)n1CC1CCCCC1 (3D coordinates assigned)
O=c1c2ccccc2nc(/C=C/c2ccsc2)n1CC1CCCCC1 (nonaromatic ring conformer: 94.95577678879854 kcal/mol)

>  <smiles>  (51) 
O=c1c2ccccc2nc(/C=C/c2ccsc2)n1CC1CCCCC1

>  <score_type>  (51) 
oracle

>  <origin>  (51) 
autodockgpu

>  <m_score__min__energy>  (51) 
-6.8200000000000003

>  <m_primary>  (51) 
energy

>  <meeko>  (51) 
{"free_energy": -6.76, "intermolecular_energy": -8.25, "internal_energy": -1.71, "cluster_size": 16, "cluster_id": 1, "rank_in_cluster": 8}

>  <energy>  (51) 
-6.7

>  <cluster_rmsd>  (51) 
0.33

>  <rmsd>  (51) 
270.99

>  <cluster>  (51) 
1

$$$$
WQFRIXFTBLEVTI-ZHACJKMWNA-N
     RDKit          3D

 47 50  0  0  0  0  0  0  0  0999 V2000
  141.5579   72.1329  221.4405 H   0  0  0  0  0  0  0  0  0  0  0  0
  140.6050   72.5800  221.7600 C   0  0  0  0  0  0  0  0  0  0  0  0
  139.6430   71.7620  222.2080 C   0  0  0  0  0  0  0  0  0  0  0  0
  138.7318   71.6250  221.6072 H   0  0  0  0  0  0  0  0  0  0  0  0
  139.7780   71.0350  223.4980 C   0  0  0  0  0  0  0  0  0  0  0  0
  140.3340   71.7140  224.5380 N   0  0  0  0  0  0  0  0  0  0  0  0
  140.4470   71.1800  225.7720 C   0  0  0  0  0  0  0  0  0  0  0  0
  141.0400   71.9160  226.8030 C   0  0  0  0  0  0  0  0  0  0  0  0
  141.4366   72.9222  226.6022 H   0  0  0  0  0  0  0  0  0  0  0  0
  141.1290   71.3740  228.0880 C   0  0  0  0  0  0  0  0  0  0  0  0
  141.5999   71.9519  228.8969 H   0  0  0  0  0  0  0  0  0  0  0  0
  140.6200   70.0980  228.3460 C   0  0  0  0  0  0  0  0  0  0  0  0
  140.6885   69.6739  229.3586 H   0  0  0  0  0  0  0  0  0  0  0  0
  140.0240   69.3600  227.3190 C   0  0  0  0  0  0  0  0  0  0  0  0
  139.6222   68.3571  227.5257 H   0  0  0  0  0  0  0  0  0  0  0  0
  139.9370   69.8980  226.0200 C   0  0  0  0  0  0  0  0  0  0  0  0
  139.3570   69.1950  224.9500 C   0  0  0  0  0  0  0  0  0  0  0  0
  138.8290   68.0700  225.1760 O   0  0  0  0  0  0  0  0  0  0  0  0
  139.3450   69.7320  223.6790 N   0  0  0  0  0  0  0  0  0  0  0  0
  138.8490   68.9030  222.5490 C   0  0  0  0  0  0  0  0  0  0  0  0
  139.4144   69.1821  221.6476 H   0  0  0  0  0  0  0  0  0  0  0  0
  138.9949   67.8552  222.8504 H   0  0  0  0  0  0  0  0  0  0  0  0
  137.3280   69.0570  222.2330 C   0  0  0  0  0  0  0  0  0  0  0  0
  137.1046   68.1421  221.6646 H   0  0  0  0  0  0  0  0  0  0  0  0
  136.3870   68.9820  223.4600 C   0  0  0  0  0  0  0  0  0  0  0  0
  135.4078   68.6174  223.1163 H   0  0  0  0  0  0  0  0  0  0  0  0
  136.8772   68.3107  224.1805 H   0  0  0  0  0  0  0  0  0  0  0  0
  136.1660   70.3190  224.2010 C   0  0  0  0  0  0  0  0  0  0  0  0
  135.1468   70.3203  224.6147 H   0  0  0  0  0  0  0  0  0  0  0  0
  136.9406   70.3820  224.9794 H   0  0  0  0  0  0  0  0  0  0  0  0
  136.3280   71.5630  223.3130 C   0  0  0  0  0  0  0  0  0  0  0  0
  135.6501   72.3503  223.6743 H   0  0  0  0  0  0  0  0  0  0  0  0
  137.3763   71.8915  223.3687 H   0  0  0  0  0  0  0  0  0  0  0  0
  136.0000   71.2580  221.8540 C   0  0  0  0  0  0  0  0  0  0  0  0
  134.9810   70.8483  221.7918 H   0  0  0  0  0  0  0  0  0  0  0  0
  136.0750   72.1898  221.2742 H   0  0  0  0  0  0  0  0  0  0  0  0
  136.9890   70.2370  221.2730 C   0  0  0  0  0  0  0  0  0  0  0  0
  136.5529   69.8192  220.3536 H   0  0  0  0  0  0  0  0  0  0  0  0
  137.9301   70.7769  221.0917 H   0  0  0  0  0  0  0  0  0  0  0  0
  140.4600   74.0500  221.6700 C   0  0  0  0  0  0  0  0  0  0  0  0
  139.2680   74.6810  222.0140 C   0  0  0  0  0  0  0  0  0  0  0  0
  138.3521   74.1808  222.3617 H   0  0  0  0  0  0  0  0  0  0  0  0
  139.4660   76.3360  221.8080 S   0  0  0  0  0  0  0  0  0  0  0  0
  141.0610   76.2800  221.2870 C   0  0  0  0  0  0  0  0  0  0  0  0
  141.6793   77.1464  221.0093 H   0  0  0  0  0  0  0  0  0  0  0  0
  141.4650   74.9530  221.2670 C   0  0  0  0  0  0  0  0  0  0  0  0
  142.4740   74.6354  220.9653 H   0  0  0  0  0  0  0  0  0  0  0  0
  1  2  1  0
  2  3  2  0
  3  4  1  0
  3  5  1  0
  5  6  2  0
  6  7  1  0
  7  8  2  0
  8  9  1  0
  8 10  1  0
 10 11  1  0
 10 12  2  0
 12 13  1  0
 12 14  1  0
 14 15  1  0
 14 16  2  0
 16 17  1  0
 17 18  2  0
 17 19  1  0
 19 20  1  0
 20 21  1  0
 20 22  1  0
 20 23  1  0
 23 24  1  0
 23 25  1  0
 25 26  1  0
 25 27  1  0
 25 28  1  0
 28 29  1  0
 28 30  1  0
 28 31  1  0
 31 32  1  0
 31 33  1  0
 31 34  1  0
 34 35  1  0
 34 36  1  0
 34 37  1  0
 37 38  1  0
 37 39  1  0
  2 40  1  0
 40 41  2  0
 41 42  1  0
 41 43  1  0
 43 44  1  0
 44 45  1  0
 44 46  2  0
 46 47  1  0
 19  5  1  0
 37 23  1  0
 46 40  1  0
 16  7  1  0
M  END
>  <UniqueID>  (52) 
615

>  <SMILES>  (52) 
O=c1c2ccccc2nc(/C=C/c2ccsc2)n1CC1CCCCC1

>  <Energy>  (52) 
94.95577678879854

>  <Genealogy>  (52) 
O=c1c2ccccc2nc(/C=C/c2ccsc2)n1CC1CCCCC1 (cis-trans isomerization)
O=c1c2ccccc2nc(/C=C/c2ccsc2)n1CC1CCCCC1 (3D coordinates assigned)
O=c1c2ccccc2nc(/C=C/c2ccsc2)n1CC1CCCCC1 (nonaromatic ring conformer: 94.95577678879854 kcal/mol)

>  <smiles>  (52) 
O=c1c2ccccc2nc(/C=C/c2ccsc2)n1CC1CCCCC1

>  <score_type>  (52) 
oracle

>  <origin>  (52) 
autodockgpu

>  <m_score__min__energy>  (52) 
-6.8200000000000003

>  <m_primary>  (52) 
energy

>  <meeko>  (52) 
{"free_energy": -6.82, "intermolecular_energy": -8.31, "internal_energy": -1.66, "cluster_size": 16, "cluster_id": 1, "rank_in_cluster": 2}

>  <energy>  (52) 
-6.7

>  <cluster_rmsd>  (52) 
0.38

>  <rmsd>  (52) 
270.95

>  <cluster>  (52) 
1

$$$$
WQFRIXFTBLEVTI-ZHACJKMWNA-N
     RDKit          3D

 47 50  0  0  0  0  0  0  0  0999 V2000
  141.5206   72.1841  221.3820 H   0  0  0  0  0  0  0  0  0  0  0  0
  140.5360   72.5150  221.7440 C   0  0  0  0  0  0  0  0  0  0  0  0
  139.6640   71.5800  222.1450 C   0  0  0  0  0  0  0  0  0  0  0  0
  138.8319   71.3023  221.4814 H   0  0  0  0  0  0  0  0  0  0  0  0
  139.7940   70.9090  223.4650 C   0  0  0  0  0  0  0  0  0  0  0  0
  140.3610   71.6270  224.4720 N   0  0  0  0  0  0  0  0  0  0  0  0
  140.4710   71.1460  225.7290 C   0  0  0  0  0  0  0  0  0  0  0  0
  141.0750   71.9200  226.7250 C   0  0  0  0  0  0  0  0  0  0  0  0
  141.4825   72.9117  226.4792 H   0  0  0  0  0  0  0  0  0  0  0  0
  141.1610   71.4340  228.0320 C   0  0  0  0  0  0  0  0  0  0  0  0
  141.6402   72.0416  228.8138 H   0  0  0  0  0  0  0  0  0  0  0  0
  140.6390   70.1770  228.3470 C   0  0  0  0  0  0  0  0  0  0  0  0
  140.7055   69.7976  229.3773 H   0  0  0  0  0  0  0  0  0  0  0  0
  140.0320   69.4000  227.3550 C   0  0  0  0  0  0  0  0  0  0  0  0
  139.6197   68.4117  227.6067 H   0  0  0  0  0  0  0  0  0  0  0  0
  139.9480   69.8820  226.0330 C   0  0  0  0  0  0  0  0  0  0  0  0
  139.3560   69.1400  224.9980 C   0  0  0  0  0  0  0  0  0  0  0  0
  138.8170   68.0310  225.2740 O   0  0  0  0  0  0  0  0  0  0  0  0
  139.3470   69.6200  223.7040 N   0  0  0  0  0  0  0  0  0  0  0  0
  138.8390   68.7470  222.6120 C   0  0  0  0  0  0  0  0  0  0  0  0
  139.4063   68.9783  221.6984 H   0  0  0  0  0  0  0  0  0  0  0  0
  138.9726   67.7117  222.9589 H   0  0  0  0  0  0  0  0  0  0  0  0
  137.3200   68.9070  222.2920 C   0  0  0  0  0  0  0  0  0  0  0  0
  137.0806   67.9628  221.7809 H   0  0  0  0  0  0  0  0  0  0  0  0
  136.3820   68.9210  223.5240 C   0  0  0  0  0  0  0  0  0  0  0  0
  135.3960   68.5516  223.2057 H   0  0  0  0  0  0  0  0  0  0  0  0
  136.8636   68.2867  224.2828 H   0  0  0  0  0  0  0  0  0  0  0  0
  136.1850   70.3040  224.1820 C   0  0  0  0  0  0  0  0  0  0  0  0
  135.1677   70.3464  224.5984 H   0  0  0  0  0  0  0  0  0  0  0  0
  136.9645   70.4022  224.9519 H   0  0  0  0  0  0  0  0  0  0  0  0
  136.3620   71.4890  223.2200 C   0  0  0  0  0  0  0  0  0  0  0  0
  135.6965   72.3066  223.5341 H   0  0  0  0  0  0  0  0  0  0  0  0
  137.4150   71.8055  223.2533 H   0  0  0  0  0  0  0  0  0  0  0  0
  136.0250   71.1000  221.7830 C   0  0  0  0  0  0  0  0  0  0  0  0
  134.9995   70.7036  221.7485 H   0  0  0  0  0  0  0  0  0  0  0  0
  136.1138   71.9935  221.1475 H   0  0  0  0  0  0  0  0  0  0  0  0
  136.9950   70.0300  221.2620 C   0  0  0  0  0  0  0  0  0  0  0  0
  136.5479   69.5630  220.3720 H   0  0  0  0  0  0  0  0  0  0  0  0
  137.9434   70.5426  221.0433 H   0  0  0  0  0  0  0  0  0  0  0  0
  140.2510   73.9670  221.7600 C   0  0  0  0  0  0  0  0  0  0  0  0
  138.9630   74.4490  221.9770 C   0  0  0  0  0  0  0  0  0  0  0  0
  138.0653   73.8349  222.1415 H   0  0  0  0  0  0  0  0  0  0  0  0
  139.0130   76.1270  221.9450 S   0  0  0  0  0  0  0  0  0  0  0  0
  140.6620   76.2700  221.6620 C   0  0  0  0  0  0  0  0  0  0  0  0
  141.2186   77.2126  221.5540 H   0  0  0  0  0  0  0  0  0  0  0  0
  141.2010   74.9940  221.5880 C   0  0  0  0  0  0  0  0  0  0  0  0
  142.2696   74.8016  221.4116 H   0  0  0  0  0  0  0  0  0  0  0  0
  1  2  1  0
  2  3  2  0
  3  4  1  0
  3  5  1  0
  5  6  2  0
  6  7  1  0
  7  8  2  0
  8  9  1  0
  8 10  1  0
 10 11  1  0
 10 12  2  0
 12 13  1  0
 12 14  1  0
 14 15  1  0
 14 16  2  0
 16 17  1  0
 17 18  2  0
 17 19  1  0
 19 20  1  0
 20 21  1  0
 20 22  1  0
 20 23  1  0
 23 24  1  0
 23 25  1  0
 25 26  1  0
 25 27  1  0
 25 28  1  0
 28 29  1  0
 28 30  1  0
 28 31  1  0
 31 32  1  0
 31 33  1  0
 31 34  1  0
 34 35  1  0
 34 36  1  0
 34 37  1  0
 37 38  1  0
 37 39  1  0
  2 40  1  0
 40 41  2  0
 41 42  1  0
 41 43  1  0
 43 44  1  0
 44 45  1  0
 44 46  2  0
 46 47  1  0
 19  5  1  0
 37 23  1  0
 46 40  1  0
 16  7  1  0
M  END
>  <UniqueID>  (53) 
615

>  <SMILES>  (53) 
O=c1c2ccccc2nc(/C=C/c2ccsc2)n1CC1CCCCC1

>  <Energy>  (53) 
94.95577678879854

>  <Genealogy>  (53) 
O=c1c2ccccc2nc(/C=C/c2ccsc2)n1CC1CCCCC1 (cis-trans isomerization)
O=c1c2ccccc2nc(/C=C/c2ccsc2)n1CC1CCCCC1 (3D coordinates assigned)
O=c1c2ccccc2nc(/C=C/c2ccsc2)n1CC1CCCCC1 (nonaromatic ring conformer: 94.95577678879854 kcal/mol)

>  <smiles>  (53) 
O=c1c2ccccc2nc(/C=C/c2ccsc2)n1CC1CCCCC1

>  <score_type>  (53) 
oracle

>  <origin>  (53) 
autodockgpu

>  <m_score__min__energy>  (53) 
-6.8200000000000003

>  <m_primary>  (53) 
energy

>  <meeko>  (53) 
{"free_energy": -6.8, "intermolecular_energy": -8.29, "internal_energy": -1.73, "cluster_size": 16, "cluster_id": 1, "rank_in_cluster": 6}

>  <energy>  (53) 
-6.69

>  <cluster_rmsd>  (53) 
0.24

>  <rmsd>  (53) 
270.99

>  <cluster>  (53) 
1

$$$$
WQFRIXFTBLEVTI-ZHACJKMWNA-N
     RDKit          3D

 47 50  0  0  0  0  0  0  0  0999 V2000
  142.3595   80.6043  219.4354 H   0  0  0  0  0  0  0  0  0  0  0  0
  141.8160   79.9980  220.1750 C   0  0  0  0  0  0  0  0  0  0  0  0
  141.0010   79.0330  219.7250 C   0  0  0  0  0  0  0  0  0  0  0  0
  140.1514   79.3048  219.0813 H   0  0  0  0  0  0  0  0  0  0  0  0
  141.2180   77.6050  220.0750 C   0  0  0  0  0  0  0  0  0  0  0  0
  142.4290   77.0680  219.7650 N   0  0  0  0  0  0  0  0  0  0  0  0
  142.7630   75.8020  220.0950 C   0  0  0  0  0  0  0  0  0  0  0  0
  144.0170   75.2930  219.7390 C   0  0  0  0  0  0  0  0  0  0  0  0
  144.7218   75.9160  219.1688 H   0  0  0  0  0  0  0  0  0  0  0  0
  144.3740   73.9930  220.1080 C   0  0  0  0  0  0  0  0  0  0  0  0
  145.3588   73.5924  219.8258 H   0  0  0  0  0  0  0  0  0  0  0  0
  143.4810   73.2020  220.8350 C   0  0  0  0  0  0  0  0  0  0  0  0
  143.7643   72.1792  221.1242 H   0  0  0  0  0  0  0  0  0  0  0  0
  142.2280   73.7070  221.1960 C   0  0  0  0  0  0  0  0  0  0  0  0
  141.5295   73.0828  221.7725 H   0  0  0  0  0  0  0  0  0  0  0  0
  141.8590   75.0150  220.8220 C   0  0  0  0  0  0  0  0  0  0  0  0
  140.6100   75.5680  221.1490 C   0  0  0  0  0  0  0  0  0  0  0  0
  139.8150   74.8960  221.8650 O   0  0  0  0  0  0  0  0  0  0  0  0
  140.2630   76.8310  220.7120 N   0  0  0  0  0  0  0  0  0  0  0  0
  138.8830   77.3270  220.9590 C   0  0  0  0  0  0  0  0  0  0  0  0
  138.7508   78.2620  220.3948 H   0  0  0  0  0  0  0  0  0  0  0  0
  138.2059   76.5219  220.6374 H   0  0  0  0  0  0  0  0  0  0  0  0
  138.5400   77.6120  222.4540 C   0  0  0  0  0  0  0  0  0  0  0  0
  138.8365   76.6768  222.9514 H   0  0  0  0  0  0  0  0  0  0  0  0
  139.4070   78.7000  223.1360 C   0  0  0  0  0  0  0  0  0  0  0  0
  139.4368   78.4851  224.2144 H   0  0  0  0  0  0  0  0  0  0  0  0
  140.3935   78.6528  222.6517 H   0  0  0  0  0  0  0  0  0  0  0  0
  138.9070   80.1490  222.9510 C   0  0  0  0  0  0  0  0  0  0  0  0
  139.1723   80.7234  223.8508 H   0  0  0  0  0  0  0  0  0  0  0  0
  139.3890   80.5369  222.0415 H   0  0  0  0  0  0  0  0  0  0  0  0
  137.3900   80.2670  222.7330 C   0  0  0  0  0  0  0  0  0  0  0  0
  137.0395   81.2152  223.1667 H   0  0  0  0  0  0  0  0  0  0  0  0
  137.1939   80.2342  221.6511 H   0  0  0  0  0  0  0  0  0  0  0  0
  136.6380   79.1140  223.3900 C   0  0  0  0  0  0  0  0  0  0  0  0
  136.8902   79.0830  224.4603 H   0  0  0  0  0  0  0  0  0  0  0  0
  135.5585   79.2758  223.2539 H   0  0  0  0  0  0  0  0  0  0  0  0
  137.0180   77.7730  222.7450 C   0  0  0  0  0  0  0  0  0  0  0  0
  136.7092   76.9642  223.4236 H   0  0  0  0  0  0  0  0  0  0  0  0
  136.5048   77.7335  221.7729 H   0  0  0  0  0  0  0  0  0  0  0  0
  142.0260   80.2940  221.6090 C   0  0  0  0  0  0  0  0  0  0  0  0
  141.7470   81.5520  222.1360 C   0  0  0  0  0  0  0  0  0  0  0  0
  141.3699   82.4172  221.5710 H   0  0  0  0  0  0  0  0  0  0  0  0
  142.0840   81.5240  223.7810 S   0  0  0  0  0  0  0  0  0  0  0  0
  142.5820   79.9220  223.8530 C   0  0  0  0  0  0  0  0  0  0  0  0
  142.9217   79.3921  224.7551 H   0  0  0  0  0  0  0  0  0  0  0  0
  142.4910   79.3820  222.5780 C   0  0  0  0  0  0  0  0  0  0  0  0
  142.7567   78.3402  222.3454 H   0  0  0  0  0  0  0  0  0  0  0  0
  1  2  1  0
  2  3  2  0
  3  4  1  0
  3  5  1  0
  5  6  2  0
  6  7  1  0
  7  8  2  0
  8  9  1  0
  8 10  1  0
 10 11  1  0
 10 12  2  0
 12 13  1  0
 12 14  1  0
 14 15  1  0
 14 16  2  0
 16 17  1  0
 17 18  2  0
 17 19  1  0
 19 20  1  0
 20 21  1  0
 20 22  1  0
 20 23  1  0
 23 24  1  0
 23 25  1  0
 25 26  1  0
 25 27  1  0
 25 28  1  0
 28 29  1  0
 28 30  1  0
 28 31  1  0
 31 32  1  0
 31 33  1  0
 31 34  1  0
 34 35  1  0
 34 36  1  0
 34 37  1  0
 37 38  1  0
 37 39  1  0
  2 40  1  0
 40 41  2  0
 41 42  1  0
 41 43  1  0
 43 44  1  0
 44 45  1  0
 44 46  2  0
 46 47  1  0
 19  5  1  0
 37 23  1  0
 46 40  1  0
 16  7  1  0
M  END
>  <UniqueID>  (54) 
615

>  <SMILES>  (54) 
O=c1c2ccccc2nc(/C=C/c2ccsc2)n1CC1CCCCC1

>  <Energy>  (54) 
94.95577678879854

>  <Genealogy>  (54) 
O=c1c2ccccc2nc(/C=C/c2ccsc2)n1CC1CCCCC1 (cis-trans isomerization)
O=c1c2ccccc2nc(/C=C/c2ccsc2)n1CC1CCCCC1 (3D coordinates assigned)
O=c1c2ccccc2nc(/C=C/c2ccsc2)n1CC1CCCCC1 (nonaromatic ring conformer: 94.95577678879854 kcal/mol)

>  <smiles>  (54) 
O=c1c2ccccc2nc(/C=C/c2ccsc2)n1CC1CCCCC1

>  <score_type>  (54) 
oracle

>  <origin>  (54) 
autodockgpu

>  <m_score__min__energy>  (54) 
-6.8200000000000003

>  <m_primary>  (54) 
energy

>  <meeko>  (54) 
{"free_energy": -6.23, "intermolecular_energy": -7.72, "internal_energy": -1.81, "cluster_size": 2, "cluster_id": 3, "rank_in_cluster": 2}

>  <energy>  (54) 
-6.67

>  <cluster_rmsd>  (54) 
0.38

>  <rmsd>  (54) 
270.98

>  <cluster>  (54) 
1

$$$$
WQFRIXFTBLEVTI-ZHACJKMWNA-N
     RDKit          3D

 47 50  0  0  0  0  0  0  0  0999 V2000
  137.9813   72.7190  221.9675 H   0  0  0  0  0  0  0  0  0  0  0  0
  139.0660   72.8920  222.0270 C   0  0  0  0  0  0  0  0  0  0  0  0
  139.8670   71.8290  222.1840 C   0  0  0  0  0  0  0  0  0  0  0  0
  140.4941   71.5001  221.3422 H   0  0  0  0  0  0  0  0  0  0  0  0
  139.9280   71.0840  223.4690 C   0  0  0  0  0  0  0  0  0  0  0  0
  140.4590   71.7360  224.5390 N   0  0  0  0  0  0  0  0  0  0  0  0
  140.5050   71.1840  225.7710 C   0  0  0  0  0  0  0  0  0  0  0  0
  141.0750   71.8920  226.8350 C   0  0  0  0  0  0  0  0  0  0  0  0
  141.5080   72.8885  226.6634 H   0  0  0  0  0  0  0  0  0  0  0  0
  141.0940   71.3330  228.1150 C   0  0  0  0  0  0  0  0  0  0  0  0
  141.5459   71.8883  228.9501 H   0  0  0  0  0  0  0  0  0  0  0  0
  140.5400   70.0700  228.3360 C   0  0  0  0  0  0  0  0  0  0  0  0
  140.5550   69.6328  229.3453 H   0  0  0  0  0  0  0  0  0  0  0  0
  139.9660   69.3600  227.2760 C   0  0  0  0  0  0  0  0  0  0  0  0
  139.5267   68.3673  227.4537 H   0  0  0  0  0  0  0  0  0  0  0  0
  139.9500   69.9150  225.9810 C   0  0  0  0  0  0  0  0  0  0  0  0
  139.3950   69.2410  224.8800 C   0  0  0  0  0  0  0  0  0  0  0  0
  138.8270   68.1290  225.0700 O   0  0  0  0  0  0  0  0  0  0  0  0
  139.4520   69.7920  223.6160 N   0  0  0  0  0  0  0  0  0  0  0  0
  138.9800   68.9900  222.4560 C   0  0  0  0  0  0  0  0  0  0  0  0
  139.5348   69.3198  221.5652 H   0  0  0  0  0  0  0  0  0  0  0  0
  139.1591   67.9368  222.7182 H   0  0  0  0  0  0  0  0  0  0  0  0
  137.4550   69.1080  222.1470 C   0  0  0  0  0  0  0  0  0  0  0  0
  137.2730   68.2398  221.4965 H   0  0  0  0  0  0  0  0  0  0  0  0
  136.5150   68.8810  223.3560 C   0  0  0  0  0  0  0  0  0  0  0  0
  135.5529   68.5088  222.9741 H   0  0  0  0  0  0  0  0  0  0  0  0
  137.0312   68.1673  224.0149 H   0  0  0  0  0  0  0  0  0  0  0  0
  136.2360   70.1340  224.2150 C   0  0  0  0  0  0  0  0  0  0  0  0
  135.2173   70.0538  224.6222 H   0  0  0  0  0  0  0  0  0  0  0  0
  137.0066   70.1586  224.9996 H   0  0  0  0  0  0  0  0  0  0  0  0
  136.3450   71.4600  223.4450 C   0  0  0  0  0  0  0  0  0  0  0  0
  135.6322   72.1807  223.8722 H   0  0  0  0  0  0  0  0  0  0  0  0
  137.3776   71.8278  223.5370 H   0  0  0  0  0  0  0  0  0  0  0  0
  136.0340   71.2750  221.9630 C   0  0  0  0  0  0  0  0  0  0  0  0
  135.0337   70.8296  221.8579 H   0  0  0  0  0  0  0  0  0  0  0  0
  136.0709   72.2582  221.4711 H   0  0  0  0  0  0  0  0  0  0  0  0
  137.0670   70.3540  221.2960 C   0  0  0  0  0  0  0  0  0  0  0  0
  136.6502   70.0030  220.3405 H   0  0  0  0  0  0  0  0  0  0  0  0
  137.9842   70.9477  221.1683 H   0  0  0  0  0  0  0  0  0  0  0  0
  139.5560   74.2850  221.9290 C   0  0  0  0  0  0  0  0  0  0  0  0
  138.7410   75.3630  222.2590 C   0  0  0  0  0  0  0  0  0  0  0  0
  137.6971   75.2999  222.6001 H   0  0  0  0  0  0  0  0  0  0  0  0
  139.6220   76.7770  222.0480 S   0  0  0  0  0  0  0  0  0  0  0  0
  141.0470   76.0490  221.5430 C   0  0  0  0  0  0  0  0  0  0  0  0
  141.9755   76.5708  221.2681 H   0  0  0  0  0  0  0  0  0  0  0  0
  140.8520   74.6750  221.5320 C   0  0  0  0  0  0  0  0  0  0  0  0
  141.6340   73.9581  221.2412 H   0  0  0  0  0  0  0  0  0  0  0  0
  1  2  1  0
  2  3  2  0
  3  4  1  0
  3  5  1  0
  5  6  2  0
  6  7  1  0
  7  8  2  0
  8  9  1  0
  8 10  1  0
 10 11  1  0
 10 12  2  0
 12 13  1  0
 12 14  1  0
 14 15  1  0
 14 16  2  0
 16 17  1  0
 17 18  2  0
 17 19  1  0
 19 20  1  0
 20 21  1  0
 20 22  1  0
 20 23  1  0
 23 24  1  0
 23 25  1  0
 25 26  1  0
 25 27  1  0
 25 28  1  0
 28 29  1  0
 28 30  1  0
 28 31  1  0
 31 32  1  0
 31 33  1  0
 31 34  1  0
 34 35  1  0
 34 36  1  0
 34 37  1  0
 37 38  1  0
 37 39  1  0
  2 40  1  0
 40 41  2  0
 41 42  1  0
 41 43  1  0
 43 44  1  0
 44 45  1  0
 44 46  2  0
 46 47  1  0
 19  5  1  0
 37 23  1  0
 46 40  1  0
 16  7  1  0
M  END
>  <UniqueID>  (55) 
615

>  <SMILES>  (55) 
O=c1c2ccccc2nc(/C=C/c2ccsc2)n1CC1CCCCC1

>  <Energy>  (55) 
94.95577678879854

>  <Genealogy>  (55) 
O=c1c2ccccc2nc(/C=C/c2ccsc2)n1CC1CCCCC1 (cis-trans isomerization)
O=c1c2ccccc2nc(/C=C/c2ccsc2)n1CC1CCCCC1 (3D coordinates assigned)
O=c1c2ccccc2nc(/C=C/c2ccsc2)n1CC1CCCCC1 (nonaromatic ring conformer: 94.95577678879854 kcal/mol)

>  <smiles>  (55) 
O=c1c2ccccc2nc(/C=C/c2ccsc2)n1CC1CCCCC1

>  <score_type>  (55) 
oracle

>  <origin>  (55) 
autodockgpu

>  <m_score__min__energy>  (55) 
-6.8200000000000003

>  <m_primary>  (55) 
energy

>  <meeko>  (55) 
{"free_energy": -6.8, "intermolecular_energy": -8.29, "internal_energy": -1.71, "cluster_size": 16, "cluster_id": 1, "rank_in_cluster": 5}

>  <energy>  (55) 
-6.66

>  <cluster_rmsd>  (55) 
0.36

>  <rmsd>  (55) 
270.97

>  <cluster>  (55) 
1

$$$$
WQFRIXFTBLEVTI-ZHACJKMWNA-N
     RDKit          3D

 47 50  0  0  0  0  0  0  0  0999 V2000
  141.6954   72.2149  221.3426 H   0  0  0  0  0  0  0  0  0  0  0  0
  140.6770   72.4340  221.6960 C   0  0  0  0  0  0  0  0  0  0  0  0
  139.8960   71.4040  222.0480 C   0  0  0  0  0  0  0  0  0  0  0  0
  139.1889   70.9910  221.3136 H   0  0  0  0  0  0  0  0  0  0  0  0
  139.9620   70.8060  223.4070 C   0  0  0  0  0  0  0  0  0  0  0  0
  140.5480   71.5490  224.3840 N   0  0  0  0  0  0  0  0  0  0  0  0
  140.6050   71.1380  225.6690 C   0  0  0  0  0  0  0  0  0  0  0  0
  141.2330   71.9350  226.6320 C   0  0  0  0  0  0  0  0  0  0  0  0
  141.7016   72.8859  226.3384 H   0  0  0  0  0  0  0  0  0  0  0  0
  141.2650   71.5230  227.9670 C   0  0  0  0  0  0  0  0  0  0  0  0
  141.7623   72.1481  228.7232 H   0  0  0  0  0  0  0  0  0  0  0  0
  140.6660   70.3180  228.3420 C   0  0  0  0  0  0  0  0  0  0  0  0
  140.6906   69.9968  229.3938 H   0  0  0  0  0  0  0  0  0  0  0  0
  140.0350   69.5190  227.3830 C   0  0  0  0  0  0  0  0  0  0  0  0
  139.5615   68.5723  227.6823 H   0  0  0  0  0  0  0  0  0  0  0  0
  140.0050   69.9250  226.0340 C   0  0  0  0  0  0  0  0  0  0  0  0
  139.3930   69.1580  225.0290 C   0  0  0  0  0  0  0  0  0  0  0  0
  138.7860   68.0990  225.3570 O   0  0  0  0  0  0  0  0  0  0  0  0
  139.4370   69.5600  223.7100 N   0  0  0  0  0  0  0  0  0  0  0  0
  138.9010   68.6540  222.6590 C   0  0  0  0  0  0  0  0  0  0  0  0
  139.5000   68.7971  221.7476 H   0  0  0  0  0  0  0  0  0  0  0  0
  138.9658   67.6356  223.0696 H   0  0  0  0  0  0  0  0  0  0  0  0
  137.4020   68.8810  222.2930 C   0  0  0  0  0  0  0  0  0  0  0  0
  137.1330   67.9414  221.7882 H   0  0  0  0  0  0  0  0  0  0  0  0
  136.4310   68.9590  223.4970 C   0  0  0  0  0  0  0  0  0  0  0  0
  135.4378   68.6323  223.1553 H   0  0  0  0  0  0  0  0  0  0  0  0
  136.8600   68.3143  224.2783 H   0  0  0  0  0  0  0  0  0  0  0  0
  136.2820   70.3600  224.1300 C   0  0  0  0  0  0  0  0  0  0  0  0
  135.2563   70.4575  224.5153 H   0  0  0  0  0  0  0  0  0  0  0  0
  137.0424   70.4325  224.9216 H   0  0  0  0  0  0  0  0  0  0  0  0
  136.5440   71.5200  223.1570 C   0  0  0  0  0  0  0  0  0  0  0  0
  135.9114   72.3740  223.4407 H   0  0  0  0  0  0  0  0  0  0  0  0
  137.6100   71.7849  223.2157 H   0  0  0  0  0  0  0  0  0  0  0  0
  136.2280   71.1260  221.7170 C   0  0  0  0  0  0  0  0  0  0  0  0
  135.1860   70.7783  221.6591 H   0  0  0  0  0  0  0  0  0  0  0  0
  136.3763   72.0044  221.0717 H   0  0  0  0  0  0  0  0  0  0  0  0
  137.1600   70.0030  221.2390 C   0  0  0  0  0  0  0  0  0  0  0  0
  136.7163   69.5445  220.3429 H   0  0  0  0  0  0  0  0  0  0  0  0
  138.1377   70.4667  221.0411 H   0  0  0  0  0  0  0  0  0  0  0  0
  140.2490   73.8500  221.7550 C   0  0  0  0  0  0  0  0  0  0  0  0
  138.9150   74.1940  221.9540 C   0  0  0  0  0  0  0  0  0  0  0  0
  138.0791   73.4887  222.0721 H   0  0  0  0  0  0  0  0  0  0  0  0
  138.7990   75.8680  221.9830 S   0  0  0  0  0  0  0  0  0  0  0  0
  140.4310   76.1840  221.7510 C   0  0  0  0  0  0  0  0  0  0  0  0
  140.8930   77.1806  221.6923 H   0  0  0  0  0  0  0  0  0  0  0  0
  141.0970   74.9710  221.6460 C   0  0  0  0  0  0  0  0  0  0  0  0
  142.1833   74.8917  221.4923 H   0  0  0  0  0  0  0  0  0  0  0  0
  1  2  1  0
  2  3  2  0
  3  4  1  0
  3  5  1  0
  5  6  2  0
  6  7  1  0
  7  8  2  0
  8  9  1  0
  8 10  1  0
 10 11  1  0
 10 12  2  0
 12 13  1  0
 12 14  1  0
 14 15  1  0
 14 16  2  0
 16 17  1  0
 17 18  2  0
 17 19  1  0
 19 20  1  0
 20 21  1  0
 20 22  1  0
 20 23  1  0
 23 24  1  0
 23 25  1  0
 25 26  1  0
 25 27  1  0
 25 28  1  0
 28 29  1  0
 28 30  1  0
 28 31  1  0
 31 32  1  0
 31 33  1  0
 31 34  1  0
 34 35  1  0
 34 36  1  0
 34 37  1  0
 37 38  1  0
 37 39  1  0
  2 40  1  0
 40 41  2  0
 41 42  1  0
 41 43  1  0
 43 44  1  0
 44 45  1  0
 44 46  2  0
 46 47  1  0
 19  5  1  0
 37 23  1  0
 46 40  1  0
 16  7  1  0
M  END
>  <UniqueID>  (56) 
615

>  <SMILES>  (56) 
O=c1c2ccccc2nc(/C=C/c2ccsc2)n1CC1CCCCC1

>  <Energy>  (56) 
94.95577678879854

>  <Genealogy>  (56) 
O=c1c2ccccc2nc(/C=C/c2ccsc2)n1CC1CCCCC1 (cis-trans isomerization)
O=c1c2ccccc2nc(/C=C/c2ccsc2)n1CC1CCCCC1 (3D coordinates assigned)
O=c1c2ccccc2nc(/C=C/c2ccsc2)n1CC1CCCCC1 (nonaromatic ring conformer: 94.95577678879854 kcal/mol)

>  <smiles>  (56) 
O=c1c2ccccc2nc(/C=C/c2ccsc2)n1CC1CCCCC1

>  <score_type>  (56) 
oracle

>  <origin>  (56) 
autodockgpu

>  <m_score__min__energy>  (56) 
-6.8200000000000003

>  <m_primary>  (56) 
energy

>  <meeko>  (56) 
{"free_energy": -6.69, "intermolecular_energy": -8.19, "internal_energy": -1.81, "cluster_size": 16, "cluster_id": 1, "rank_in_cluster": 13}

>  <energy>  (56) 
-6.65

>  <cluster_rmsd>  (56) 
0.37

>  <rmsd>  (56) 
270.96

>  <cluster>  (56) 
1

$$$$
WQFRIXFTBLEVTI-ZHACJKMWNA-N
     RDKit          3D

 47 50  0  0  0  0  0  0  0  0999 V2000
  141.6471   72.7103  221.6501 H   0  0  0  0  0  0  0  0  0  0  0  0
  140.5750   72.7800  221.8860 C   0  0  0  0  0  0  0  0  0  0  0  0
  139.9040   71.6430  222.1180 C   0  0  0  0  0  0  0  0  0  0  0  0
  139.2979   71.2029  221.3124 H   0  0  0  0  0  0  0  0  0  0  0  0
  139.9600   70.9630  223.4390 C   0  0  0  0  0  0  0  0  0  0  0  0
  140.5040   71.6590  224.4720 N   0  0  0  0  0  0  0  0  0  0  0  0
  140.5470   71.1690  225.7300 C   0  0  0  0  0  0  0  0  0  0  0  0
  141.1320   71.9210  226.7550 C   0  0  0  0  0  0  0  0  0  0  0  0
  141.5783   72.9014  226.5322 H   0  0  0  0  0  0  0  0  0  0  0  0
  141.1490   71.4260  228.0620 C   0  0  0  0  0  0  0  0  0  0  0  0
  141.6132   72.0150  228.8668 H   0  0  0  0  0  0  0  0  0  0  0  0
  140.5770   70.1840  228.3470 C   0  0  0  0  0  0  0  0  0  0  0  0
  140.5898   69.7978  229.3769 H   0  0  0  0  0  0  0  0  0  0  0  0
  139.9880   69.4300  227.3270 C   0  0  0  0  0  0  0  0  0  0  0  0
  139.5354   68.4540  227.5562 H   0  0  0  0  0  0  0  0  0  0  0  0
  139.9740   69.9200  226.0050 C   0  0  0  0  0  0  0  0  0  0  0  0
  139.4050   69.2010  224.9410 C   0  0  0  0  0  0  0  0  0  0  0  0
  138.8220   68.1070  225.1890 O   0  0  0  0  0  0  0  0  0  0  0  0
  139.4650   69.6870  223.6510 N   0  0  0  0  0  0  0  0  0  0  0  0
  138.9770   68.8350  222.5340 C   0  0  0  0  0  0  0  0  0  0  0  0
  139.5800   69.0632  221.6427 H   0  0  0  0  0  0  0  0  0  0  0  0
  139.0774   67.7943  222.8758 H   0  0  0  0  0  0  0  0  0  0  0  0
  137.4730   69.0280  222.1630 C   0  0  0  0  0  0  0  0  0  0  0  0
  137.2558   68.1338  221.5603 H   0  0  0  0  0  0  0  0  0  0  0  0
  136.4820   68.9370  223.3500 C   0  0  0  0  0  0  0  0  0  0  0  0
  135.5106   68.6013  222.9579 H   0  0  0  0  0  0  0  0  0  0  0  0
  136.9299   68.2361  224.0698 H   0  0  0  0  0  0  0  0  0  0  0  0
  136.2570   70.2580  224.1190 C   0  0  0  0  0  0  0  0  0  0  0  0
  135.2224   70.2680  224.4926 H   0  0  0  0  0  0  0  0  0  0  0  0
  137.0019   70.2842  224.9280 H   0  0  0  0  0  0  0  0  0  0  0  0
  136.4770   71.5230  223.2740 C   0  0  0  0  0  0  0  0  0  0  0  0
  135.7994   72.3130  223.6300 H   0  0  0  0  0  0  0  0  0  0  0  0
  137.5277   71.8308  223.3807 H   0  0  0  0  0  0  0  0  0  0  0  0
  136.2020   71.2630  221.7950 C   0  0  0  0  0  0  0  0  0  0  0  0
  135.1790   70.8749  221.6819 H   0  0  0  0  0  0  0  0  0  0  0  0
  136.3178   72.2085  221.2449 H   0  0  0  0  0  0  0  0  0  0  0  0
  137.1940   70.2390  221.2240 C   0  0  0  0  0  0  0  0  0  0  0  0
  136.7865   69.8547  220.2773 H   0  0  0  0  0  0  0  0  0  0  0  0
  138.1513   70.7650  221.0937 H   0  0  0  0  0  0  0  0  0  0  0  0
  139.9560   74.1240  221.9290 C   0  0  0  0  0  0  0  0  0  0  0  0
  140.7330   75.2780  221.9180 C   0  0  0  0  0  0  0  0  0  0  0  0
  141.8320   75.3138  221.8882 H   0  0  0  0  0  0  0  0  0  0  0  0
  139.7070   76.6070  221.9580 S   0  0  0  0  0  0  0  0  0  0  0  0
  138.2670   75.7450  221.9830 C   0  0  0  0  0  0  0  0  0  0  0  0
  137.2563   76.1782  222.0118 H   0  0  0  0  0  0  0  0  0  0  0  0
  138.5720   74.3910  221.9610 C   0  0  0  0  0  0  0  0  0  0  0  0
  137.8064   73.6012  221.9679 H   0  0  0  0  0  0  0  0  0  0  0  0
  1  2  1  0
  2  3  2  0
  3  4  1  0
  3  5  1  0
  5  6  2  0
  6  7  1  0
  7  8  2  0
  8  9  1  0
  8 10  1  0
 10 11  1  0
 10 12  2  0
 12 13  1  0
 12 14  1  0
 14 15  1  0
 14 16  2  0
 16 17  1  0
 17 18  2  0
 17 19  1  0
 19 20  1  0
 20 21  1  0
 20 22  1  0
 20 23  1  0
 23 24  1  0
 23 25  1  0
 25 26  1  0
 25 27  1  0
 25 28  1  0
 28 29  1  0
 28 30  1  0
 28 31  1  0
 31 32  1  0
 31 33  1  0
 31 34  1  0
 34 35  1  0
 34 36  1  0
 34 37  1  0
 37 38  1  0
 37 39  1  0
  2 40  1  0
 40 41  2  0
 41 42  1  0
 41 43  1  0
 43 44  1  0
 44 45  1  0
 44 46  2  0
 46 47  1  0
 19  5  1  0
 37 23  1  0
 46 40  1  0
 16  7  1  0
M  END
>  <UniqueID>  (57) 
615

>  <SMILES>  (57) 
O=c1c2ccccc2nc(/C=C/c2ccsc2)n1CC1CCCCC1

>  <Energy>  (57) 
94.95577678879854

>  <Genealogy>  (57) 
O=c1c2ccccc2nc(/C=C/c2ccsc2)n1CC1CCCCC1 (cis-trans isomerization)
O=c1c2ccccc2nc(/C=C/c2ccsc2)n1CC1CCCCC1 (3D coordinates assigned)
O=c1c2ccccc2nc(/C=C/c2ccsc2)n1CC1CCCCC1 (nonaromatic ring conformer: 94.95577678879854 kcal/mol)

>  <smiles>  (57) 
O=c1c2ccccc2nc(/C=C/c2ccsc2)n1CC1CCCCC1

>  <score_type>  (57) 
oracle

>  <origin>  (57) 
autodockgpu

>  <m_score__min__energy>  (57) 
-6.8200000000000003

>  <m_primary>  (57) 
energy

>  <meeko>  (57) 
{"free_energy": -6.67, "intermolecular_energy": -8.17, "internal_energy": -1.82, "cluster_size": 16, "cluster_id": 1, "rank_in_cluster": 14}

>  <energy>  (57) 
-6.64

>  <cluster_rmsd>  (57) 
0.0

>  <rmsd>  (57) 
271.64

>  <cluster>  (57) 
2

$$$$
WQFRIXFTBLEVTI-ZHACJKMWNA-N
     RDKit          3D

 47 50  0  0  0  0  0  0  0  0999 V2000
  141.6823   72.7002  221.6898 H   0  0  0  0  0  0  0  0  0  0  0  0
  140.6060   72.7790  221.9030 C   0  0  0  0  0  0  0  0  0  0  0  0
  139.9220   71.6480  222.1290 C   0  0  0  0  0  0  0  0  0  0  0  0
  139.3092   71.2201  221.3219 H   0  0  0  0  0  0  0  0  0  0  0  0
  139.9730   70.9590  223.4460 C   0  0  0  0  0  0  0  0  0  0  0  0
  140.5150   71.6480  224.4860 N   0  0  0  0  0  0  0  0  0  0  0  0
  140.5530   71.1490  225.7400 C   0  0  0  0  0  0  0  0  0  0  0  0
  141.1350   71.8930  226.7720 C   0  0  0  0  0  0  0  0  0  0  0  0
  141.5833   72.8742  226.5571 H   0  0  0  0  0  0  0  0  0  0  0  0
  141.1470   71.3900  228.0760 C   0  0  0  0  0  0  0  0  0  0  0  0
  141.6085   71.9737  228.8862 H   0  0  0  0  0  0  0  0  0  0  0  0
  140.5730   70.1460  228.3510 C   0  0  0  0  0  0  0  0  0  0  0  0
  140.5813   69.7527  229.3783 H   0  0  0  0  0  0  0  0  0  0  0  0
  139.9880   69.4000  227.3230 C   0  0  0  0  0  0  0  0  0  0  0  0
  139.5341   68.4227  227.5437 H   0  0  0  0  0  0  0  0  0  0  0  0
  139.9790   69.8980  226.0050 C   0  0  0  0  0  0  0  0  0  0  0  0
  139.4130   69.1870  224.9340 C   0  0  0  0  0  0  0  0  0  0  0  0
  138.8280   68.0920  225.1720 O   0  0  0  0  0  0  0  0  0  0  0  0
  139.4770   69.6820  223.6480 N   0  0  0  0  0  0  0  0  0  0  0  0
  138.9920   68.8380  222.5230 C   0  0  0  0  0  0  0  0  0  0  0  0
  139.5948   69.0756  221.6341 H   0  0  0  0  0  0  0  0  0  0  0  0
  139.0952   67.7946  222.8557 H   0  0  0  0  0  0  0  0  0  0  0  0
  137.4880   69.0300  222.1530 C   0  0  0  0  0  0  0  0  0  0  0  0
  137.2755   68.1440  221.5366 H   0  0  0  0  0  0  0  0  0  0  0  0
  136.4960   68.9170  223.3370 C   0  0  0  0  0  0  0  0  0  0  0  0
  135.5269   68.5823  222.9385 H   0  0  0  0  0  0  0  0  0  0  0  0
  136.9470   68.2082  224.0471 H   0  0  0  0  0  0  0  0  0  0  0  0
  136.2630   70.2240  224.1250 C   0  0  0  0  0  0  0  0  0  0  0  0
  135.2275   70.2235  224.4962 H   0  0  0  0  0  0  0  0  0  0  0  0
  137.0056   70.2415  224.9363 H   0  0  0  0  0  0  0  0  0  0  0  0
  136.4790   71.5030  223.2990 C   0  0  0  0  0  0  0  0  0  0  0  0
  135.7973   72.2845  223.6658 H   0  0  0  0  0  0  0  0  0  0  0  0
  137.5283   71.8132  223.4121 H   0  0  0  0  0  0  0  0  0  0  0  0
  136.2080   71.2650  221.8160 C   0  0  0  0  0  0  0  0  0  0  0  0
  135.1867   70.8748  221.6946 H   0  0  0  0  0  0  0  0  0  0  0  0
  136.3210   72.2193  221.2806 H   0  0  0  0  0  0  0  0  0  0  0  0
  137.2050   70.2540  221.2320 C   0  0  0  0  0  0  0  0  0  0  0  0
  136.8007   69.8822  220.2789 H   0  0  0  0  0  0  0  0  0  0  0  0
  138.1602   70.7861  221.1117 H   0  0  0  0  0  0  0  0  0  0  0  0
  139.9960   74.1270  221.9240 C   0  0  0  0  0  0  0  0  0  0  0  0
  138.6160   74.2960  221.9700 C   0  0  0  0  0  0  0  0  0  0  0  0
  137.8691   73.4886  221.9854 H   0  0  0  0  0  0  0  0  0  0  0  0
  138.2840   75.9420  221.9980 S   0  0  0  0  0  0  0  0  0  0  0  0
  139.8790   76.4650  221.9600 C   0  0  0  0  0  0  0  0  0  0  0  0
  140.2144   77.5126  221.9638 H   0  0  0  0  0  0  0  0  0  0  0  0
  140.7010   75.3480  221.9230 C   0  0  0  0  0  0  0  0  0  0  0  0
  141.7990   75.4092  221.8955 H   0  0  0  0  0  0  0  0  0  0  0  0
  1  2  1  0
  2  3  2  0
  3  4  1  0
  3  5  1  0
  5  6  2  0
  6  7  1  0
  7  8  2  0
  8  9  1  0
  8 10  1  0
 10 11  1  0
 10 12  2  0
 12 13  1  0
 12 14  1  0
 14 15  1  0
 14 16  2  0
 16 17  1  0
 17 18  2  0
 17 19  1  0
 19 20  1  0
 20 21  1  0
 20 22  1  0
 20 23  1  0
 23 24  1  0
 23 25  1  0
 25 26  1  0
 25 27  1  0
 25 28  1  0
 28 29  1  0
 28 30  1  0
 28 31  1  0
 31 32  1  0
 31 33  1  0
 31 34  1  0
 34 35  1  0
 34 36  1  0
 34 37  1  0
 37 38  1  0
 37 39  1  0
  2 40  1  0
 40 41  2  0
 41 42  1  0
 41 43  1  0
 43 44  1  0
 44 45  1  0
 44 46  2  0
 46 47  1  0
 19  5  1  0
 37 23  1  0
 46 40  1  0
 16  7  1  0
M  END
>  <UniqueID>  (58) 
615

>  <SMILES>  (58) 
O=c1c2ccccc2nc(/C=C/c2ccsc2)n1CC1CCCCC1

>  <Energy>  (58) 
94.95577678879854

>  <Genealogy>  (58) 
O=c1c2ccccc2nc(/C=C/c2ccsc2)n1CC1CCCCC1 (cis-trans isomerization)
O=c1c2ccccc2nc(/C=C/c2ccsc2)n1CC1CCCCC1 (3D coordinates assigned)
O=c1c2ccccc2nc(/C=C/c2ccsc2)n1CC1CCCCC1 (nonaromatic ring conformer: 94.95577678879854 kcal/mol)

>  <smiles>  (58) 
O=c1c2ccccc2nc(/C=C/c2ccsc2)n1CC1CCCCC1

>  <score_type>  (58) 
oracle

>  <origin>  (58) 
autodockgpu

>  <m_score__min__energy>  (58) 
-6.8200000000000003

>  <m_primary>  (58) 
energy

>  <meeko>  (58) 
{"free_energy": -6.7, "intermolecular_energy": -8.2, "internal_energy": -1.81, "cluster_size": 16, "cluster_id": 1, "rank_in_cluster": 11}

>  <energy>  (58) 
-6.28

>  <cluster_rmsd>  (58) 
0.6

>  <rmsd>  (58) 
271.53

>  <cluster>  (58) 
2

$$$$
WQFRIXFTBLEVTI-ZHACJKMWNA-N
     RDKit          3D

 47 50  0  0  0  0  0  0  0  0999 V2000
  141.7220   72.6718  221.5905 H   0  0  0  0  0  0  0  0  0  0  0  0
  140.6520   72.7260  221.8400 C   0  0  0  0  0  0  0  0  0  0  0  0
  139.9990   71.5790  222.0700 C   0  0  0  0  0  0  0  0  0  0  0  0
  139.4355   71.1083  221.2509 H   0  0  0  0  0  0  0  0  0  0  0  0
  140.0180   70.9270  223.4070 C   0  0  0  0  0  0  0  0  0  0  0  0
  140.5500   71.6400  224.4360 N   0  0  0  0  0  0  0  0  0  0  0  0
  140.5610   71.1770  225.7050 C   0  0  0  0  0  0  0  0  0  0  0  0
  141.1350   71.9440  226.7250 C   0  0  0  0  0  0  0  0  0  0  0  0
  141.5995   72.9129  226.4897 H   0  0  0  0  0  0  0  0  0  0  0  0
  141.1180   71.4790  228.0420 C   0  0  0  0  0  0  0  0  0  0  0  0
  141.5728   72.0804  228.8430 H   0  0  0  0  0  0  0  0  0  0  0  0
  140.5240   70.2510  228.3430 C   0  0  0  0  0  0  0  0  0  0  0  0
  140.5102   69.8881  229.3813 H   0  0  0  0  0  0  0  0  0  0  0  0
  139.9470   69.4820  227.3280 C   0  0  0  0  0  0  0  0  0  0  0  0
  139.4770   68.5171  227.5692 H   0  0  0  0  0  0  0  0  0  0  0  0
  139.9670   69.9420  225.9960 C   0  0  0  0  0  0  0  0  0  0  0  0
  139.4100   69.2060  224.9360 C   0  0  0  0  0  0  0  0  0  0  0  0
  138.8080   68.1260  225.1950 O   0  0  0  0  0  0  0  0  0  0  0  0
  139.5020   69.6630  223.6370 N   0  0  0  0  0  0  0  0  0  0  0  0
  139.0260   68.7920  222.5290 C   0  0  0  0  0  0  0  0  0  0  0  0
  139.6463   68.9966  221.6440 H   0  0  0  0  0  0  0  0  0  0  0  0
  139.1113   67.7577  222.8937 H   0  0  0  0  0  0  0  0  0  0  0  0
  137.5310   68.9900  222.1280 C   0  0  0  0  0  0  0  0  0  0  0  0
  137.3164   68.0873  221.5372 H   0  0  0  0  0  0  0  0  0  0  0  0
  136.5190   68.9280  223.2990 C   0  0  0  0  0  0  0  0  0  0  0  0
  135.5522   68.5919  222.8961 H   0  0  0  0  0  0  0  0  0  0  0  0
  136.9496   68.2376  224.0392 H   0  0  0  0  0  0  0  0  0  0  0  0
  136.2900   70.2640  224.0400 C   0  0  0  0  0  0  0  0  0  0  0  0
  135.2486   70.2886  224.3935 H   0  0  0  0  0  0  0  0  0  0  0  0
  137.0196   70.2990  224.8625 H   0  0  0  0  0  0  0  0  0  0  0  0
  136.5360   71.5120  223.1770 C   0  0  0  0  0  0  0  0  0  0  0  0
  135.8592   72.3138  223.5072 H   0  0  0  0  0  0  0  0  0  0  0  0
  137.5874   71.8123  223.2969 H   0  0  0  0  0  0  0  0  0  0  0  0
  136.2850   71.2290  221.6990 C   0  0  0  0  0  0  0  0  0  0  0  0
  135.2610   70.8471  221.5744 H   0  0  0  0  0  0  0  0  0  0  0  0
  136.4181   72.1639  221.1349 H   0  0  0  0  0  0  0  0  0  0  0  0
  137.2790   70.1870  221.1630 C   0  0  0  0  0  0  0  0  0  0  0  0
  136.8852   69.7897  220.2159 H   0  0  0  0  0  0  0  0  0  0  0  0
  138.2428   70.7029  221.0405 H   0  0  0  0  0  0  0  0  0  0  0  0
  140.0180   74.0610  221.9020 C   0  0  0  0  0  0  0  0  0  0  0  0
  138.6350   74.2030  221.9720 C   0  0  0  0  0  0  0  0  0  0  0  0
  137.9035   73.3815  221.9778 H   0  0  0  0  0  0  0  0  0  0  0  0
  138.2730   75.8400  222.0460 S   0  0  0  0  0  0  0  0  0  0  0  0
  139.8570   76.3950  221.9970 C   0  0  0  0  0  0  0  0  0  0  0  0
  140.1725   77.4485  222.0210 H   0  0  0  0  0  0  0  0  0  0  0  0
  140.6990   75.2950  221.9210 C   0  0  0  0  0  0  0  0  0  0  0  0
  141.7951   75.3780  221.8795 H   0  0  0  0  0  0  0  0  0  0  0  0
  1  2  1  0
  2  3  2  0
  3  4  1  0
  3  5  1  0
  5  6  2  0
  6  7  1  0
  7  8  2  0
  8  9  1  0
  8 10  1  0
 10 11  1  0
 10 12  2  0
 12 13  1  0
 12 14  1  0
 14 15  1  0
 14 16  2  0
 16 17  1  0
 17 18  2  0
 17 19  1  0
 19 20  1  0
 20 21  1  0
 20 22  1  0
 20 23  1  0
 23 24  1  0
 23 25  1  0
 25 26  1  0
 25 27  1  0
 25 28  1  0
 28 29  1  0
 28 30  1  0
 28 31  1  0
 31 32  1  0
 31 33  1  0
 31 34  1  0
 34 35  1  0
 34 36  1  0
 34 37  1  0
 37 38  1  0
 37 39  1  0
  2 40  1  0
 40 41  2  0
 41 42  1  0
 41 43  1  0
 43 44  1  0
 44 45  1  0
 44 46  2  0
 46 47  1  0
 19  5  1  0
 37 23  1  0
 46 40  1  0
 16  7  1  0
M  END
>  <UniqueID>  (59) 
615

>  <SMILES>  (59) 
O=c1c2ccccc2nc(/C=C/c2ccsc2)n1CC1CCCCC1

>  <Energy>  (59) 
94.95577678879854

>  <Genealogy>  (59) 
O=c1c2ccccc2nc(/C=C/c2ccsc2)n1CC1CCCCC1 (cis-trans isomerization)
O=c1c2ccccc2nc(/C=C/c2ccsc2)n1CC1CCCCC1 (3D coordinates assigned)
O=c1c2ccccc2nc(/C=C/c2ccsc2)n1CC1CCCCC1 (nonaromatic ring conformer: 94.95577678879854 kcal/mol)

>  <smiles>  (59) 
O=c1c2ccccc2nc(/C=C/c2ccsc2)n1CC1CCCCC1

>  <score_type>  (59) 
oracle

>  <origin>  (59) 
autodockgpu

>  <m_score__min__energy>  (59) 
-6.8200000000000003

>  <m_primary>  (59) 
energy

>  <meeko>  (59) 
{"free_energy": -6.66, "intermolecular_energy": -8.15, "internal_energy": -1.86, "cluster_size": 16, "cluster_id": 1, "rank_in_cluster": 15}

>  <energy>  (59) 
-6.31

>  <cluster_rmsd>  (59) 
0.0

>  <rmsd>  (59) 
271.52

>  <cluster>  (59) 
3

$$$$
WQFRIXFTBLEVTI-ZHACJKMWNA-N
     RDKit          3D

 47 50  0  0  0  0  0  0  0  0999 V2000
  141.6493   72.2547  221.4066 H   0  0  0  0  0  0  0  0  0  0  0  0
  140.6210   72.4600  221.7390 C   0  0  0  0  0  0  0  0  0  0  0  0
  139.8470   71.4190  222.0760 C   0  0  0  0  0  0  0  0  0  0  0  0
  139.1368   71.0172  221.3383 H   0  0  0  0  0  0  0  0  0  0  0  0
  139.9250   70.7940  223.4230 C   0  0  0  0  0  0  0  0  0  0  0  0
  140.4920   71.5310  224.4160 N   0  0  0  0  0  0  0  0  0  0  0  0
  140.5580   71.0940  225.6910 C   0  0  0  0  0  0  0  0  0  0  0  0
  141.1660   71.8850  226.6730 C   0  0  0  0  0  0  0  0  0  0  0  0
  141.6131   72.8525  226.4008 H   0  0  0  0  0  0  0  0  0  0  0  0
  141.2050   71.4460  227.9980 C   0  0  0  0  0  0  0  0  0  0  0  0
  141.6859   72.0668  228.7683 H   0  0  0  0  0  0  0  0  0  0  0  0
  140.6340   70.2190  228.3470 C   0  0  0  0  0  0  0  0  0  0  0  0
  140.6662   69.8758  229.3916 H   0  0  0  0  0  0  0  0  0  0  0  0
  140.0220   69.4270  227.3710 C   0  0  0  0  0  0  0  0  0  0  0  0
  139.5686   68.4644  227.6499 H   0  0  0  0  0  0  0  0  0  0  0  0
  139.9850   69.8600  226.0300 C   0  0  0  0  0  0  0  0  0  0  0  0
  139.3920   69.1000  225.0090 C   0  0  0  0  0  0  0  0  0  0  0  0
  138.8090   68.0210  225.3130 O   0  0  0  0  0  0  0  0  0  0  0  0
  139.4280   69.5320  223.6980 N   0  0  0  0  0  0  0  0  0  0  0  0
  138.9150   68.6360  222.6280 C   0  0  0  0  0  0  0  0  0  0  0  0
  139.5101   68.8137  221.7201 H   0  0  0  0  0  0  0  0  0  0  0  0
  139.0053   67.6110  223.0168 H   0  0  0  0  0  0  0  0  0  0  0  0
  137.4100   68.8330  222.2660 C   0  0  0  0  0  0  0  0  0  0  0  0
  137.1579   67.8888  221.7611 H   0  0  0  0  0  0  0  0  0  0  0  0
  136.4410   68.8910  223.4740 C   0  0  0  0  0  0  0  0  0  0  0  0
  135.4532   68.5451  223.1353 H   0  0  0  0  0  0  0  0  0  0  0  0
  136.8848   68.2542  224.2534 H   0  0  0  0  0  0  0  0  0  0  0  0
  136.2670   70.2880  224.1080 C   0  0  0  0  0  0  0  0  0  0  0  0
  135.2412   70.3649  224.4975 H   0  0  0  0  0  0  0  0  0  0  0  0
  137.0293   70.3750  224.8963 H   0  0  0  0  0  0  0  0  0  0  0  0
  136.5020   71.4540  223.1350 C   0  0  0  0  0  0  0  0  0  0  0  0
  135.8526   72.2945  223.4210 H   0  0  0  0  0  0  0  0  0  0  0  0
  137.5623   71.7413  223.1908 H   0  0  0  0  0  0  0  0  0  0  0  0
  136.1900   71.0540  221.6960 C   0  0  0  0  0  0  0  0  0  0  0  0
  135.1551   70.6854  221.6412 H   0  0  0  0  0  0  0  0  0  0  0  0
  136.3191   71.9355  221.0508 H   0  0  0  0  0  0  0  0  0  0  0  0
  137.1430   69.9500  221.2140 C   0  0  0  0  0  0  0  0  0  0  0  0
  136.7059   69.4835  220.3189 H   0  0  0  0  0  0  0  0  0  0  0  0
  138.1107   70.4331  221.0134 H   0  0  0  0  0  0  0  0  0  0  0  0
  140.1730   73.8690  221.7880 C   0  0  0  0  0  0  0  0  0  0  0  0
  141.0730   74.9200  221.6380 C   0  0  0  0  0  0  0  0  0  0  0  0
  142.1578   74.8212  221.4851 H   0  0  0  0  0  0  0  0  0  0  0  0
  140.2220   76.3640  221.7300 S   0  0  0  0  0  0  0  0  0  0  0  0
  138.7040   75.6840  221.9550 C   0  0  0  0  0  0  0  0  0  0  0  0
  137.7612   76.2375  222.0767 H   0  0  0  0  0  0  0  0  0  0  0  0
  138.8430   74.3040  221.9610 C   0  0  0  0  0  0  0  0  0  0  0  0
  137.9958   73.6141  222.0887 H   0  0  0  0  0  0  0  0  0  0  0  0
  1  2  1  0
  2  3  2  0
  3  4  1  0
  3  5  1  0
  5  6  2  0
  6  7  1  0
  7  8  2  0
  8  9  1  0
  8 10  1  0
 10 11  1  0
 10 12  2  0
 12 13  1  0
 12 14  1  0
 14 15  1  0
 14 16  2  0
 16 17  1  0
 17 18  2  0
 17 19  1  0
 19 20  1  0
 20 21  1  0
 20 22  1  0
 20 23  1  0
 23 24  1  0
 23 25  1  0
 25 26  1  0
 25 27  1  0
 25 28  1  0
 28 29  1  0
 28 30  1  0
 28 31  1  0
 31 32  1  0
 31 33  1  0
 31 34  1  0
 34 35  1  0
 34 36  1  0
 34 37  1  0
 37 38  1  0
 37 39  1  0
  2 40  1  0
 40 41  2  0
 41 42  1  0
 41 43  1  0
 43 44  1  0
 44 45  1  0
 44 46  2  0
 46 47  1  0
 19  5  1  0
 37 23  1  0
 46 40  1  0
 16  7  1  0
M  END
>  <UniqueID>  (60) 
615

>  <SMILES>  (60) 
O=c1c2ccccc2nc(/C=C/c2ccsc2)n1CC1CCCCC1

>  <Energy>  (60) 
94.95577678879854

>  <Genealogy>  (60) 
O=c1c2ccccc2nc(/C=C/c2ccsc2)n1CC1CCCCC1 (cis-trans isomerization)
O=c1c2ccccc2nc(/C=C/c2ccsc2)n1CC1CCCCC1 (3D coordinates assigned)
O=c1c2ccccc2nc(/C=C/c2ccsc2)n1CC1CCCCC1 (nonaromatic ring conformer: 94.95577678879854 kcal/mol)

>  <smiles>  (60) 
O=c1c2ccccc2nc(/C=C/c2ccsc2)n1CC1CCCCC1

>  <score_type>  (60) 
oracle

>  <origin>  (60) 
autodockgpu

>  <m_score__min__energy>  (60) 
-6.8200000000000003

>  <m_primary>  (60) 
energy

>  <meeko>  (60) 
{"free_energy": -6.7, "intermolecular_energy": -8.19, "internal_energy": -1.79, "cluster_size": 16, "cluster_id": 1, "rank_in_cluster": 12}

>  <energy>  (60) 
-6.23

>  <cluster_rmsd>  (60) 
1.89

>  <rmsd>  (60) 
271.76

>  <cluster>  (60) 
3

$$$$
WQFRIXFTBLEVTI-ZHACJKMWNA-N
     RDKit          3D

 47 50  0  0  0  0  0  0  0  0999 V2000
  142.2090   79.0609  217.7788 H   0  0  0  0  0  0  0  0  0  0  0  0
  142.0920   79.8000  218.5850 C   0  0  0  0  0  0  0  0  0  0  0  0
  141.7930   79.3530  219.8120 C   0  0  0  0  0  0  0  0  0  0  0  0
  141.5657   80.0785  220.6070 H   0  0  0  0  0  0  0  0  0  0  0  0
  141.7610   77.9000  220.1250 C   0  0  0  0  0  0  0  0  0  0  0  0
  142.6650   77.1080  219.4870 N   0  0  0  0  0  0  0  0  0  0  0  0
  142.7730   75.7870  219.7400 C   0  0  0  0  0  0  0  0  0  0  0  0
  143.7110   75.0150  219.0460 C   0  0  0  0  0  0  0  0  0  0  0  0
  144.3445   75.4798  218.2762 H   0  0  0  0  0  0  0  0  0  0  0  0
  143.8430   73.6530  219.3310 C   0  0  0  0  0  0  0  0  0  0  0  0
  144.5778   73.0457  218.7821 H   0  0  0  0  0  0  0  0  0  0  0  0
  143.0430   73.0620  220.3120 C   0  0  0  0  0  0  0  0  0  0  0  0
  143.1502   71.9902  220.5352 H   0  0  0  0  0  0  0  0  0  0  0  0
  142.1060   73.8300  221.0110 C   0  0  0  0  0  0  0  0  0  0  0  0
  141.4801   73.3624  221.7853 H   0  0  0  0  0  0  0  0  0  0  0  0
  141.9630   75.2030  220.7240 C   0  0  0  0  0  0  0  0  0  0  0  0
  141.0320   76.0180  221.3890 C   0  0  0  0  0  0  0  0  0  0  0  0
  140.3470   75.5210  222.3260 O   0  0  0  0  0  0  0  0  0  0  0  0
  140.8800   77.3440  221.0370 N   0  0  0  0  0  0  0  0  0  0  0  0
  139.7900   78.1380  221.6650 C   0  0  0  0  0  0  0  0  0  0  0  0
  139.5025   78.9361  220.9647 H   0  0  0  0  0  0  0  0  0  0  0  0
  138.9768   77.4284  221.8774 H   0  0  0  0  0  0  0  0  0  0  0  0
  140.1570   78.8010  223.0300 C   0  0  0  0  0  0  0  0  0  0  0  0
  139.5037   78.2718  223.7393 H   0  0  0  0  0  0  0  0  0  0  0  0
  141.5890   78.5110  223.5420 C   0  0  0  0  0  0  0  0  0  0  0  0
  141.5788   78.5814  224.6397 H   0  0  0  0  0  0  0  0  0  0  0  0
  141.8501   77.5098  223.1686 H   0  0  0  0  0  0  0  0  0  0  0  0
  142.6820   79.4650  223.0120 C   0  0  0  0  0  0  0  0  0  0  0  0
  143.4499   79.5775  223.7915 H   0  0  0  0  0  0  0  0  0  0  0  0
  143.0759   79.0142  222.0892 H   0  0  0  0  0  0  0  0  0  0  0  0
  142.1670   80.8630  222.6370 C   0  0  0  0  0  0  0  0  0  0  0  0
  142.9616   81.5994  222.8275 H   0  0  0  0  0  0  0  0  0  0  0  0
  141.8880   80.8536  221.5730 H   0  0  0  0  0  0  0  0  0  0  0  0
  140.9330   81.2430  223.4520 C   0  0  0  0  0  0  0  0  0  0  0  0
  141.1742   81.1757  224.5231 H   0  0  0  0  0  0  0  0  0  0  0  0
  140.6400   82.2698  223.1877 H   0  0  0  0  0  0  0  0  0  0  0  0
  139.7600   80.3030  223.1410 C   0  0  0  0  0  0  0  0  0  0  0  0
  139.0147   80.4043  223.9437 H   0  0  0  0  0  0  0  0  0  0  0  0
  139.3695   80.6001  222.1565 H   0  0  0  0  0  0  0  0  0  0  0  0
  142.2740   81.2300  218.2510 C   0  0  0  0  0  0  0  0  0  0  0  0
  143.3360   81.6590  217.4610 C   0  0  0  0  0  0  0  0  0  0  0  0
  144.1182   81.0164  217.0306 H   0  0  0  0  0  0  0  0  0  0  0  0
  143.2210   83.3240  217.2760 S   0  0  0  0  0  0  0  0  0  0  0  0
  141.8250   83.5270  218.1860 C   0  0  0  0  0  0  0  0  0  0  0  0
  141.3146   84.4820  218.3794 H   0  0  0  0  0  0  0  0  0  0  0  0
  141.4260   82.2830  218.6520 C   0  0  0  0  0  0  0  0  0  0  0  0
  140.5324   82.1320  219.2755 H   0  0  0  0  0  0  0  0  0  0  0  0
  1  2  1  0
  2  3  2  0
  3  4  1  0
  3  5  1  0
  5  6  2  0
  6  7  1  0
  7  8  2  0
  8  9  1  0
  8 10  1  0
 10 11  1  0
 10 12  2  0
 12 13  1  0
 12 14  1  0
 14 15  1  0
 14 16  2  0
 16 17  1  0
 17 18  2  0
 17 19  1  0
 19 20  1  0
 20 21  1  0
 20 22  1  0
 20 23  1  0
 23 24  1  0
 23 25  1  0
 25 26  1  0
 25 27  1  0
 25 28  1  0
 28 29  1  0
 28 30  1  0
 28 31  1  0
 31 32  1  0
 31 33  1  0
 31 34  1  0
 34 35  1  0
 34 36  1  0
 34 37  1  0
 37 38  1  0
 37 39  1  0
  2 40  1  0
 40 41  2  0
 41 42  1  0
 41 43  1  0
 43 44  1  0
 44 45  1  0
 44 46  2  0
 46 47  1  0
 19  5  1  0
 37 23  1  0
 46 40  1  0
 16  7  1  0
M  END
>  <UniqueID>  (61) 
616

>  <SMILES>  (61) 
O=c1c2ccccc2nc(/C=C/c2ccsc2)n1CC1CCCCC1

>  <Energy>  (61) 
95.60265504110782

>  <Genealogy>  (61) 
O=c1c2ccccc2nc(/C=C/c2ccsc2)n1CC1CCCCC1 (cis-trans isomerization)
O=c1c2ccccc2nc(/C=C/c2ccsc2)n1CC1CCCCC1 (3D coordinates assigned)
O=c1c2ccccc2nc(/C=C/c2ccsc2)n1CC1CCCCC1 (nonaromatic ring conformer: 95.60265504110782 kcal/mol)

>  <smiles>  (61) 
O=c1c2ccccc2nc(/C=C/c2ccsc2)n1CC1CCCCC1

>  <score_type>  (61) 
oracle

>  <origin>  (61) 
autodockgpu

>  <m_score__min__energy>  (61) 
-6.8200000000000003

>  <m_primary>  (61) 
energy

>  <meeko>  (61) 
{"free_energy": -6.64, "intermolecular_energy": -8.13, "internal_energy": -1.47, "cluster_size": 2, "cluster_id": 2, "rank_in_cluster": 1}

>  <energy>  (61) 
-6.82

>  <cluster_rmsd>  (61) 
0.0

>  <rmsd>  (61) 
271.0

>  <cluster>  (61) 
1

$$$$
WQFRIXFTBLEVTI-ZHACJKMWNA-N
     RDKit          3D

 47 50  0  0  0  0  0  0  0  0999 V2000
  137.9198   72.6783  221.8538 H   0  0  0  0  0  0  0  0  0  0  0  0
  139.0020   72.8260  221.9840 C   0  0  0  0  0  0  0  0  0  0  0  0
  139.7720   71.7410  222.1470 C   0  0  0  0  0  0  0  0  0  0  0  0
  140.3530   71.3614  221.2936 H   0  0  0  0  0  0  0  0  0  0  0  0
  139.8590   71.0390  223.4540 C   0  0  0  0  0  0  0  0  0  0  0  0
  140.4120   71.7250  224.4910 N   0  0  0  0  0  0  0  0  0  0  0  0
  140.4830   71.2140  225.7390 C   0  0  0  0  0  0  0  0  0  0  0  0
  141.0750   71.9550  226.7670 C   0  0  0  0  0  0  0  0  0  0  0  0
  141.5047   72.9449  226.5538 H   0  0  0  0  0  0  0  0  0  0  0  0
  141.1210   71.4390  228.0640 C   0  0  0  0  0  0  0  0  0  0  0  0
  141.5906   72.0211  228.8706 H   0  0  0  0  0  0  0  0  0  0  0  0
  140.5710   70.1840  228.3380 C   0  0  0  0  0  0  0  0  0  0  0  0
  140.6061   69.7805  229.3607 H   0  0  0  0  0  0  0  0  0  0  0  0
  139.9760   69.4400  227.3140 C   0  0  0  0  0  0  0  0  0  0  0  0
  139.5416   68.4535  227.5332 H   0  0  0  0  0  0  0  0  0  0  0  0
  139.9320   69.9520  226.0020 C   0  0  0  0  0  0  0  0  0  0  0  0
  139.3550   69.2440  224.9350 C   0  0  0  0  0  0  0  0  0  0  0  0
  138.7910   68.1380  225.1730 O   0  0  0  0  0  0  0  0  0  0  0  0
  139.3850   69.7530  223.6530 N   0  0  0  0  0  0  0  0  0  0  0  0
  138.8890   68.9130  222.5300 C   0  0  0  0  0  0  0  0  0  0  0  0
  139.4410   69.1972  221.6220 H   0  0  0  0  0  0  0  0  0  0  0  0
  139.0529   67.8682  222.8326 H   0  0  0  0  0  0  0  0  0  0  0  0
  137.3640   69.0450  222.2300 C   0  0  0  0  0  0  0  0  0  0  0  0
  137.1549   68.1384  221.6432 H   0  0  0  0  0  0  0  0  0  0  0  0
  136.4340   68.9240  223.4620 C   0  0  0  0  0  0  0  0  0  0  0  0
  135.4594   68.5480  223.1173 H   0  0  0  0  0  0  0  0  0  0  0  0
  136.9426   68.2464  224.1636 H   0  0  0  0  0  0  0  0  0  0  0  0
  136.1930   70.2390  224.2340 C   0  0  0  0  0  0  0  0  0  0  0  0
  135.1774   70.2107  224.6556 H   0  0  0  0  0  0  0  0  0  0  0  0
  136.9729   70.3000  225.0073 H   0  0  0  0  0  0  0  0  0  0  0  0
  136.3230   71.5060  223.3730 C   0  0  0  0  0  0  0  0  0  0  0  0
  135.6319   72.2710  223.7566 H   0  0  0  0  0  0  0  0  0  0  0  0
  137.3646   71.8552  223.4287 H   0  0  0  0  0  0  0  0  0  0  0  0
  135.9900   71.2260  221.9100 C   0  0  0  0  0  0  0  0  0  0  0  0
  134.9787   70.7979  221.8466 H   0  0  0  0  0  0  0  0  0  0  0  0
  136.0433   72.1717  221.3508 H   0  0  0  0  0  0  0  0  0  0  0  0
  136.9930   70.2380  221.2980 C   0  0  0  0  0  0  0  0  0  0  0  0
  136.5564   69.8311  220.3739 H   0  0  0  0  0  0  0  0  0  0  0  0
  137.9215   70.8001  221.1191 H   0  0  0  0  0  0  0  0  0  0  0  0
  139.5230   74.2110  221.9690 C   0  0  0  0  0  0  0  0  0  0  0  0
  140.8280   74.4880  221.5730 C   0  0  0  0  0  0  0  0  0  0  0  0
  141.5751   73.7461  221.2545 H   0  0  0  0  0  0  0  0  0  0  0  0
  141.0680   76.1470  221.6640 S   0  0  0  0  0  0  0  0  0  0  0  0
  139.5270   76.5410  222.1980 C   0  0  0  0  0  0  0  0  0  0  0  0
  139.1600   77.5545  222.4175 H   0  0  0  0  0  0  0  0  0  0  0  0
  138.7950   75.3670  222.3150 C   0  0  0  0  0  0  0  0  0  0  0  0
  137.7464   75.3416  222.6463 H   0  0  0  0  0  0  0  0  0  0  0  0
  1  2  1  0
  2  3  2  0
  3  4  1  0
  3  5  1  0
  5  6  2  0
  6  7  1  0
  7  8  2  0
  8  9  1  0
  8 10  1  0
 10 11  1  0
 10 12  2  0
 12 13  1  0
 12 14  1  0
 14 15  1  0
 14 16  2  0
 16 17  1  0
 17 18  2  0
 17 19  1  0
 19 20  1  0
 20 21  1  0
 20 22  1  0
 20 23  1  0
 23 24  1  0
 23 25  1  0
 25 26  1  0
 25 27  1  0
 25 28  1  0
 28 29  1  0
 28 30  1  0
 28 31  1  0
 31 32  1  0
 31 33  1  0
 31 34  1  0
 34 35  1  0
 34 36  1  0
 34 37  1  0
 37 38  1  0
 37 39  1  0
  2 40  1  0
 40 41  2  0
 41 42  1  0
 41 43  1  0
 43 44  1  0
 44 45  1  0
 44 46  2  0
 46 47  1  0
 19  5  1  0
 37 23  1  0
 46 40  1  0
 16  7  1  0
M  END
>  <UniqueID>  (62) 
616

>  <SMILES>  (62) 
O=c1c2ccccc2nc(/C=C/c2ccsc2)n1CC1CCCCC1

>  <Energy>  (62) 
95.60265504110782

>  <Genealogy>  (62) 
O=c1c2ccccc2nc(/C=C/c2ccsc2)n1CC1CCCCC1 (cis-trans isomerization)
O=c1c2ccccc2nc(/C=C/c2ccsc2)n1CC1CCCCC1 (3D coordinates assigned)
O=c1c2ccccc2nc(/C=C/c2ccsc2)n1CC1CCCCC1 (nonaromatic ring conformer: 95.60265504110782 kcal/mol)

>  <smiles>  (62) 
O=c1c2ccccc2nc(/C=C/c2ccsc2)n1CC1CCCCC1

>  <score_type>  (62) 
oracle

>  <origin>  (62) 
autodockgpu

>  <m_score__min__energy>  (62) 
-6.8200000000000003

>  <m_primary>  (62) 
energy

>  <meeko>  (62) 
{"free_energy": -6.73, "intermolecular_energy": -8.22, "internal_energy": -1.73, "cluster_size": 16, "cluster_id": 1, "rank_in_cluster": 10}

>  <energy>  (62) 
-6.82

>  <cluster_rmsd>  (62) 
0.18

>  <rmsd>  (62) 
271.0

>  <cluster>  (62) 
1

$$$$
WQFRIXFTBLEVTI-ZHACJKMWNA-N
     RDKit          3D

 47 50  0  0  0  0  0  0  0  0999 V2000
  141.6509   72.5811  221.5306 H   0  0  0  0  0  0  0  0  0  0  0  0
  140.5910   72.6710  221.8110 C   0  0  0  0  0  0  0  0  0  0  0  0
  139.9100   71.5470  222.0760 C   0  0  0  0  0  0  0  0  0  0  0  0
  139.2949   71.0931  221.2850 H   0  0  0  0  0  0  0  0  0  0  0  0
  139.9660   70.8990  223.4130 C   0  0  0  0  0  0  0  0  0  0  0  0
  140.5150   71.6200  224.4280 N   0  0  0  0  0  0  0  0  0  0  0  0
  140.5600   71.1620  225.6970 C   0  0  0  0  0  0  0  0  0  0  0  0
  141.1490   71.9370  226.7020 C   0  0  0  0  0  0  0  0  0  0  0  0
  141.5982   72.9099  226.4536 H   0  0  0  0  0  0  0  0  0  0  0  0
  141.1670   71.4760  228.0210 C   0  0  0  0  0  0  0  0  0  0  0  0
  141.6331   72.0846  228.8099 H   0  0  0  0  0  0  0  0  0  0  0  0
  140.5930   70.2420  228.3380 C   0  0  0  0  0  0  0  0  0  0  0  0
  140.6077   69.8809  229.3769 H   0  0  0  0  0  0  0  0  0  0  0  0
  140.0000   69.4650  227.3380 C   0  0  0  0  0  0  0  0  0  0  0  0
  139.5453   68.4962  227.5925 H   0  0  0  0  0  0  0  0  0  0  0  0
  139.9840   69.9210  226.0050 C   0  0  0  0  0  0  0  0  0  0  0  0
  139.4110   69.1770  224.9610 C   0  0  0  0  0  0  0  0  0  0  0  0
  138.8260   68.0910  225.2360 O   0  0  0  0  0  0  0  0  0  0  0  0
  139.4690   69.6310  223.6590 N   0  0  0  0  0  0  0  0  0  0  0  0
  138.9760   68.7520  222.5640 C   0  0  0  0  0  0  0  0  0  0  0  0
  139.5776   68.9560  221.6660 H   0  0  0  0  0  0  0  0  0  0  0  0
  139.0744   67.7198  222.9313 H   0  0  0  0  0  0  0  0  0  0  0  0
  137.4730   68.9400  222.1920 C   0  0  0  0  0  0  0  0  0  0  0  0
  137.2508   68.0282  221.6182 H   0  0  0  0  0  0  0  0  0  0  0  0
  136.4850   68.8900  223.3830 C   0  0  0  0  0  0  0  0  0  0  0  0
  135.5114   68.5461  223.0038 H   0  0  0  0  0  0  0  0  0  0  0  0
  136.9320   68.2101  224.1233 H   0  0  0  0  0  0  0  0  0  0  0  0
  136.2670   70.2350  224.1110 C   0  0  0  0  0  0  0  0  0  0  0  0
  135.2333   70.2608  224.4863 H   0  0  0  0  0  0  0  0  0  0  0  0
  137.0139   70.2833  224.9171 H   0  0  0  0  0  0  0  0  0  0  0  0
  136.4900   71.4720  223.2270 C   0  0  0  0  0  0  0  0  0  0  0  0
  135.8166   72.2754  223.5603 H   0  0  0  0  0  0  0  0  0  0  0  0
  137.5423   71.7782  223.3215 H   0  0  0  0  0  0  0  0  0  0  0  0
  136.2100   71.1680  221.7570 C   0  0  0  0  0  0  0  0  0  0  0  0
  135.1850   70.7811  221.6582 H   0  0  0  0  0  0  0  0  0  0  0  0
  136.3282   72.0956  221.1777 H   0  0  0  0  0  0  0  0  0  0  0  0
  137.1960   70.1230  221.2160 C   0  0  0  0  0  0  0  0  0  0  0  0
  136.7844   69.7111  220.2828 H   0  0  0  0  0  0  0  0  0  0  0  0
  138.1550   70.6408  221.0670 H   0  0  0  0  0  0  0  0  0  0  0  0
  139.9990   74.0250  221.8740 C   0  0  0  0  0  0  0  0  0  0  0  0
  140.7960   75.1650  221.8350 C   0  0  0  0  0  0  0  0  0  0  0  0
  141.8938   75.1804  221.7666 H   0  0  0  0  0  0  0  0  0  0  0  0
  139.7980   76.5130  221.9100 S   0  0  0  0  0  0  0  0  0  0  0  0
  138.3440   75.6770  221.9860 C   0  0  0  0  0  0  0  0  0  0  0  0
  137.3430   76.1285  222.0501 H   0  0  0  0  0  0  0  0  0  0  0  0
  138.6230   74.3190  221.9540 C   0  0  0  0  0  0  0  0  0  0  0  0
  137.8433   73.5438  221.9879 H   0  0  0  0  0  0  0  0  0  0  0  0
  1  2  1  0
  2  3  2  0
  3  4  1  0
  3  5  1  0
  5  6  2  0
  6  7  1  0
  7  8  2  0
  8  9  1  0
  8 10  1  0
 10 11  1  0
 10 12  2  0
 12 13  1  0
 12 14  1  0
 14 15  1  0
 14 16  2  0
 16 17  1  0
 17 18  2  0
 17 19  1  0
 19 20  1  0
 20 21  1  0
 20 22  1  0
 20 23  1  0
 23 24  1  0
 23 25  1  0
 25 26  1  0
 25 27  1  0
 25 28  1  0
 28 29  1  0
 28 30  1  0
 28 31  1  0
 31 32  1  0
 31 33  1  0
 31 34  1  0
 34 35  1  0
 34 36  1  0
 34 37  1  0
 37 38  1  0
 37 39  1  0
  2 40  1  0
 40 41  2  0
 41 42  1  0
 41 43  1  0
 43 44  1  0
 44 45  1  0
 44 46  2  0
 46 47  1  0
 19  5  1  0
 37 23  1  0
 46 40  1  0
 16  7  1  0
M  END
>  <UniqueID>  (63) 
616

>  <SMILES>  (63) 
O=c1c2ccccc2nc(/C=C/c2ccsc2)n1CC1CCCCC1

>  <Energy>  (63) 
95.60265504110782

>  <Genealogy>  (63) 
O=c1c2ccccc2nc(/C=C/c2ccsc2)n1CC1CCCCC1 (cis-trans isomerization)
O=c1c2ccccc2nc(/C=C/c2ccsc2)n1CC1CCCCC1 (3D coordinates assigned)
O=c1c2ccccc2nc(/C=C/c2ccsc2)n1CC1CCCCC1 (nonaromatic ring conformer: 95.60265504110782 kcal/mol)

>  <smiles>  (63) 
O=c1c2ccccc2nc(/C=C/c2ccsc2)n1CC1CCCCC1

>  <score_type>  (63) 
oracle

>  <origin>  (63) 
autodockgpu

>  <m_score__min__energy>  (63) 
-6.8200000000000003

>  <m_primary>  (63) 
energy

>  <meeko>  (63) 
{"free_energy": -6.65, "intermolecular_energy": -8.14, "internal_energy": -1.83, "cluster_size": 16, "cluster_id": 1, "rank_in_cluster": 16}

>  <energy>  (63) 
-6.81

>  <cluster_rmsd>  (63) 
0.43

>  <rmsd>  (63) 
271.02

>  <cluster>  (63) 
1

$$$$
WQFRIXFTBLEVTI-ZHACJKMWNA-N
     RDKit          3D

 47 50  0  0  0  0  0  0  0  0999 V2000
  141.5743   72.2664  221.4746 H   0  0  0  0  0  0  0  0  0  0  0  0
  140.5780   72.6070  221.7930 C   0  0  0  0  0  0  0  0  0  0  0  0
  139.6890   71.6820  222.1800 C   0  0  0  0  0  0  0  0  0  0  0  0
  138.8441   71.4398  221.5186 H   0  0  0  0  0  0  0  0  0  0  0  0
  139.8170   70.9750  223.4820 C   0  0  0  0  0  0  0  0  0  0  0  0
  140.3790   71.6660  224.5100 N   0  0  0  0  0  0  0  0  0  0  0  0
  140.4870   71.1510  225.7530 C   0  0  0  0  0  0  0  0  0  0  0  0
  141.0870   71.8990  226.7720 C   0  0  0  0  0  0  0  0  0  0  0  0
  141.4933   72.8979  226.5549 H   0  0  0  0  0  0  0  0  0  0  0  0
  141.1700   71.3770  228.0650 C   0  0  0  0  0  0  0  0  0  0  0  0
  141.6453   71.9639  228.8648 H   0  0  0  0  0  0  0  0  0  0  0  0
  140.6500   70.1100  228.3440 C   0  0  0  0  0  0  0  0  0  0  0  0
  140.7160   69.7019  229.3634 H   0  0  0  0  0  0  0  0  0  0  0  0
  140.0460   69.3600  227.3300 C   0  0  0  0  0  0  0  0  0  0  0  0
  139.6337   68.3650  227.5537 H   0  0  0  0  0  0  0  0  0  0  0  0
  139.9650   69.8780  226.0210 C   0  0  0  0  0  0  0  0  0  0  0  0
  139.3780   69.1630  224.9640 C   0  0  0  0  0  0  0  0  0  0  0  0
  138.8410   68.0460  225.2080 O   0  0  0  0  0  0  0  0  0  0  0  0
  139.3720   69.6790  223.6840 N   0  0  0  0  0  0  0  0  0  0  0  0
  138.8680   68.8360  222.5670 C   0  0  0  0  0  0  0  0  0  0  0  0
  139.4371   69.0939  221.6617 H   0  0  0  0  0  0  0  0  0  0  0  0
  139.0025   67.7919  222.8860 H   0  0  0  0  0  0  0  0  0  0  0  0
  137.3490   69.0010  222.2470 C   0  0  0  0  0  0  0  0  0  0  0  0
  137.1249   68.0958  221.6636 H   0  0  0  0  0  0  0  0  0  0  0  0
  136.4020   68.9100  223.4690 C   0  0  0  0  0  0  0  0  0  0  0  0
  135.4230   68.5539  223.1157 H   0  0  0  0  0  0  0  0  0  0  0  0
  136.8859   68.2257  224.1814 H   0  0  0  0  0  0  0  0  0  0  0  0
  136.1830   70.2370  224.2280 C   0  0  0  0  0  0  0  0  0  0  0  0
  135.1621   70.2359  224.6375 H   0  0  0  0  0  0  0  0  0  0  0  0
  136.9553   70.2855  225.0097 H   0  0  0  0  0  0  0  0  0  0  0  0
  136.3530   71.4940  223.3600 C   0  0  0  0  0  0  0  0  0  0  0  0
  135.6755   72.2778  223.7297 H   0  0  0  0  0  0  0  0  0  0  0  0
  137.4018   71.8192  223.4259 H   0  0  0  0  0  0  0  0  0  0  0  0
  136.0310   71.2110  221.8950 C   0  0  0  0  0  0  0  0  0  0  0  0
  135.0107   70.8063  221.8223 H   0  0  0  0  0  0  0  0  0  0  0  0
  136.1130   72.1509  221.3295 H   0  0  0  0  0  0  0  0  0  0  0  0
  137.0180   70.1950  221.3030 C   0  0  0  0  0  0  0  0  0  0  0  0
  136.5836   69.7918  220.3763 H   0  0  0  0  0  0  0  0  0  0  0  0
  137.9617   70.7338  221.1324 H   0  0  0  0  0  0  0  0  0  0  0  0
  140.2980   74.0590  221.7690 C   0  0  0  0  0  0  0  0  0  0  0  0
  139.0100   74.5510  221.9640 C   0  0  0  0  0  0  0  0  0  0  0  0
  138.1089   73.9444  222.1377 H   0  0  0  0  0  0  0  0  0  0  0  0
  139.0660   76.2270  221.8890 S   0  0  0  0  0  0  0  0  0  0  0  0
  140.7170   76.3570  221.6140 C   0  0  0  0  0  0  0  0  0  0  0  0
  141.2773   77.2948  221.4853 H   0  0  0  0  0  0  0  0  0  0  0  0
  141.2530   75.0780  221.5770 C   0  0  0  0  0  0  0  0  0  0  0  0
  142.3222   74.8779  221.4133 H   0  0  0  0  0  0  0  0  0  0  0  0
  1  2  1  0
  2  3  2  0
  3  4  1  0
  3  5  1  0
  5  6  2  0
  6  7  1  0
  7  8  2  0
  8  9  1  0
  8 10  1  0
 10 11  1  0
 10 12  2  0
 12 13  1  0
 12 14  1  0
 14 15  1  0
 14 16  2  0
 16 17  1  0
 17 18  2  0
 17 19  1  0
 19 20  1  0
 20 21  1  0
 20 22  1  0
 20 23  1  0
 23 24  1  0
 23 25  1  0
 25 26  1  0
 25 27  1  0
 25 28  1  0
 28 29  1  0
 28 30  1  0
 28 31  1  0
 31 32  1  0
 31 33  1  0
 31 34  1  0
 34 35  1  0
 34 36  1  0
 34 37  1  0
 37 38  1  0
 37 39  1  0
  2 40  1  0
 40 41  2  0
 41 42  1  0
 41 43  1  0
 43 44  1  0
 44 45  1  0
 44 46  2  0
 46 47  1  0
 19  5  1  0
 37 23  1  0
 46 40  1  0
 16  7  1  0
M  END
>  <UniqueID>  (64) 
616

>  <SMILES>  (64) 
O=c1c2ccccc2nc(/C=C/c2ccsc2)n1CC1CCCCC1

>  <Energy>  (64) 
95.60265504110782

>  <Genealogy>  (64) 
O=c1c2ccccc2nc(/C=C/c2ccsc2)n1CC1CCCCC1 (cis-trans isomerization)
O=c1c2ccccc2nc(/C=C/c2ccsc2)n1CC1CCCCC1 (3D coordinates assigned)
O=c1c2ccccc2nc(/C=C/c2ccsc2)n1CC1CCCCC1 (nonaromatic ring conformer: 95.60265504110782 kcal/mol)

>  <smiles>  (64) 
O=c1c2ccccc2nc(/C=C/c2ccsc2)n1CC1CCCCC1

>  <score_type>  (64) 
oracle

>  <origin>  (64) 
autodockgpu

>  <m_score__min__energy>  (64) 
-6.8200000000000003

>  <m_primary>  (64) 
energy

>  <meeko>  (64) 
{"free_energy": -6.82, "intermolecular_energy": -8.31, "internal_energy": -1.7, "cluster_size": 16, "cluster_id": 1, "rank_in_cluster": 1}

>  <energy>  (64) 
-6.81

>  <cluster_rmsd>  (64) 
0.43

>  <rmsd>  (64) 
271.01

>  <cluster>  (64) 
1

$$$$
WQFRIXFTBLEVTI-ZHACJKMWNA-N
     RDKit          3D

 47 50  0  0  0  0  0  0  0  0999 V2000
  141.6576   72.7660  221.7495 H   0  0  0  0  0  0  0  0  0  0  0  0
  140.5780   72.8560  221.9400 C   0  0  0  0  0  0  0  0  0  0  0  0
  139.8790   71.7330  222.1560 C   0  0  0  0  0  0  0  0  0  0  0  0
  139.2483   71.3295  221.3501 H   0  0  0  0  0  0  0  0  0  0  0  0
  139.9360   71.0200  223.4590 C   0  0  0  0  0  0  0  0  0  0  0  0
  140.4740   71.6940  224.5120 N   0  0  0  0  0  0  0  0  0  0  0  0
  140.5170   71.1730  225.7560 C   0  0  0  0  0  0  0  0  0  0  0  0
  141.0950   71.9020  226.8010 C   0  0  0  0  0  0  0  0  0  0  0  0
  141.5361   72.8902  226.6039 H   0  0  0  0  0  0  0  0  0  0  0  0
  141.1120   71.3750  228.0950 C   0  0  0  0  0  0  0  0  0  0  0  0
  141.5710   71.9469  228.9149 H   0  0  0  0  0  0  0  0  0  0  0  0
  140.5470   70.1230  228.3490 C   0  0  0  0  0  0  0  0  0  0  0  0
  140.5598   69.7114  229.3690 H   0  0  0  0  0  0  0  0  0  0  0  0
  139.9650   69.3920  227.3080 C   0  0  0  0  0  0  0  0  0  0  0  0
  139.5175   68.4080  227.5115 H   0  0  0  0  0  0  0  0  0  0  0  0
  139.9510   69.9140  225.9990 C   0  0  0  0  0  0  0  0  0  0  0  0
  139.3890   69.2180  224.9160 C   0  0  0  0  0  0  0  0  0  0  0  0
  138.8120   68.1150  225.1350 O   0  0  0  0  0  0  0  0  0  0  0  0
  139.4480   69.7370  223.6390 N   0  0  0  0  0  0  0  0  0  0  0  0
  138.9680   68.9100  222.5000 C   0  0  0  0  0  0  0  0  0  0  0  0
  139.5657   69.1703  221.6140 H   0  0  0  0  0  0  0  0  0  0  0  0
  139.0825   67.8616  222.8126 H   0  0  0  0  0  0  0  0  0  0  0  0
  137.4610   69.0940  222.1380 C   0  0  0  0  0  0  0  0  0  0  0  0
  137.2655   68.2384  221.4748 H   0  0  0  0  0  0  0  0  0  0  0  0
  136.4700   68.9000  223.3130 C   0  0  0  0  0  0  0  0  0  0  0  0
  135.5072   68.5701  222.8958 H   0  0  0  0  0  0  0  0  0  0  0  0
  136.9322   68.1619  223.9849 H   0  0  0  0  0  0  0  0  0  0  0  0
  136.2140   70.1600  224.1690 C   0  0  0  0  0  0  0  0  0  0  0  0
  135.1788   70.1215  224.5389 H   0  0  0  0  0  0  0  0  0  0  0  0
  136.9567   70.1477  224.9803 H   0  0  0  0  0  0  0  0  0  0  0  0
  136.4070   71.4840  223.4130 C   0  0  0  0  0  0  0  0  0  0  0  0
  135.7115   72.2326  223.8202 H   0  0  0  0  0  0  0  0  0  0  0  0
  137.4505   71.8066  223.5434 H   0  0  0  0  0  0  0  0  0  0  0  0
  136.1400   71.3200  221.9190 C   0  0  0  0  0  0  0  0  0  0  0  0
  135.1262   70.9177  221.7763 H   0  0  0  0  0  0  0  0  0  0  0  0
  136.2348   72.3032  221.4350 H   0  0  0  0  0  0  0  0  0  0  0  0
  137.1560   70.3600  221.2830 C   0  0  0  0  0  0  0  0  0  0  0  0
  136.7590   70.0322  220.3109 H   0  0  0  0  0  0  0  0  0  0  0  0
  138.1013   70.9152  221.1924 H   0  0  0  0  0  0  0  0  0  0  0  0
  139.9810   74.2100  221.9430 C   0  0  0  0  0  0  0  0  0  0  0  0
  138.6020   74.3930  221.9690 C   0  0  0  0  0  0  0  0  0  0  0  0
  137.8469   73.5931  221.9793 H   0  0  0  0  0  0  0  0  0  0  0  0
  138.2860   76.0420  221.9820 S   0  0  0  0  0  0  0  0  0  0  0  0
  139.8860   76.5500  221.9610 C   0  0  0  0  0  0  0  0  0  0  0  0
  140.2311   77.5945  221.9614 H   0  0  0  0  0  0  0  0  0  0  0  0
  140.6980   75.4250  221.9430 C   0  0  0  0  0  0  0  0  0  0  0  0
  141.7968   75.4757  221.9300 H   0  0  0  0  0  0  0  0  0  0  0  0
  1  2  1  0
  2  3  2  0
  3  4  1  0
  3  5  1  0
  5  6  2  0
  6  7  1  0
  7  8  2  0
  8  9  1  0
  8 10  1  0
 10 11  1  0
 10 12  2  0
 12 13  1  0
 12 14  1  0
 14 15  1  0
 14 16  2  0
 16 17  1  0
 17 18  2  0
 17 19  1  0
 19 20  1  0
 20 21  1  0
 20 22  1  0
 20 23  1  0
 23 24  1  0
 23 25  1  0
 25 26  1  0
 25 27  1  0
 25 28  1  0
 28 29  1  0
 28 30  1  0
 28 31  1  0
 31 32  1  0
 31 33  1  0
 31 34  1  0
 34 35  1  0
 34 36  1  0
 34 37  1  0
 37 38  1  0
 37 39  1  0
  2 40  1  0
 40 41  2  0
 41 42  1  0
 41 43  1  0
 43 44  1  0
 44 45  1  0
 44 46  2  0
 46 47  1  0
 19  5  1  0
 37 23  1  0
 46 40  1  0
 16  7  1  0
M  END
>  <UniqueID>  (65) 
616

>  <SMILES>  (65) 
O=c1c2ccccc2nc(/C=C/c2ccsc2)n1CC1CCCCC1

>  <Energy>  (65) 
95.60265504110782

>  <Genealogy>  (65) 
O=c1c2ccccc2nc(/C=C/c2ccsc2)n1CC1CCCCC1 (cis-trans isomerization)
O=c1c2ccccc2nc(/C=C/c2ccsc2)n1CC1CCCCC1 (3D coordinates assigned)
O=c1c2ccccc2nc(/C=C/c2ccsc2)n1CC1CCCCC1 (nonaromatic ring conformer: 95.60265504110782 kcal/mol)

>  <smiles>  (65) 
O=c1c2ccccc2nc(/C=C/c2ccsc2)n1CC1CCCCC1

>  <score_type>  (65) 
oracle

>  <origin>  (65) 
autodockgpu

>  <m_score__min__energy>  (65) 
-6.8200000000000003

>  <m_primary>  (65) 
energy

>  <meeko>  (65) 
{"free_energy": -6.74, "intermolecular_energy": -8.23, "internal_energy": -1.79, "cluster_size": 16, "cluster_id": 1, "rank_in_cluster": 9}

>  <energy>  (65) 
-6.8

>  <cluster_rmsd>  (65) 
0.43

>  <rmsd>  (65) 
271.01

>  <cluster>  (65) 
1

$$$$
WQFRIXFTBLEVTI-ZHACJKMWNA-N
     RDKit          3D

 47 50  0  0  0  0  0  0  0  0999 V2000
  138.7201   78.2170  223.8826 H   0  0  0  0  0  0  0  0  0  0  0  0
  139.4500   78.3110  223.0650 C   0  0  0  0  0  0  0  0  0  0  0  0
  139.2910   77.5340  221.9850 C   0  0  0  0  0  0  0  0  0  0  0  0
  138.3864   77.6481  221.3696 H   0  0  0  0  0  0  0  0  0  0  0  0
  140.3090   76.5210  221.5990 C   0  0  0  0  0  0  0  0  0  0  0  0
  140.0690   75.2320  221.9620 N   0  0  0  0  0  0  0  0  0  0  0  0
  140.8880   74.2180  221.6090 C   0  0  0  0  0  0  0  0  0  0  0  0
  140.6030   72.9120  222.0210 C   0  0  0  0  0  0  0  0  0  0  0  0
  139.7244   72.7137  222.6525 H   0  0  0  0  0  0  0  0  0  0  0  0
  141.4350   71.8590  221.6300 C   0  0  0  0  0  0  0  0  0  0  0  0
  141.2134   70.8327  221.9579 H   0  0  0  0  0  0  0  0  0  0  0  0
  142.5480   72.1090  220.8230 C   0  0  0  0  0  0  0  0  0  0  0  0
  143.1998   71.2784  220.5143 H   0  0  0  0  0  0  0  0  0  0  0  0
  142.8350   73.4130  220.4070 C   0  0  0  0  0  0  0  0  0  0  0  0
  143.7104   73.6058  219.7694 H   0  0  0  0  0  0  0  0  0  0  0  0
  142.0050   74.4800  220.8030 C   0  0  0  0  0  0  0  0  0  0  0  0
  142.2520   75.8090  220.4220 C   0  0  0  0  0  0  0  0  0  0  0  0
  143.2130   76.0480  219.6370 O   0  0  0  0  0  0  0  0  0  0  0  0
  141.4500   76.8340  220.8800 N   0  0  0  0  0  0  0  0  0  0  0  0
  141.8250   78.2390  220.5690 C   0  0  0  0  0  0  0  0  0  0  0  0
  141.3767   78.8890  221.3348 H   0  0  0  0  0  0  0  0  0  0  0  0
  142.9246   78.2680  220.5594 H   0  0  0  0  0  0  0  0  0  0  0  0
  141.3640   78.7520  219.1690 C   0  0  0  0  0  0  0  0  0  0  0  0
  141.0173   77.8314  218.6768 H   0  0  0  0  0  0  0  0  0  0  0  0
  140.1180   79.6720  219.1790 C   0  0  0  0  0  0  0  0  0  0  0  0
  139.6118   79.5701  218.2077 H   0  0  0  0  0  0  0  0  0  0  0  0
  139.5035   79.3450  220.0308 H   0  0  0  0  0  0  0  0  0  0  0  0
  140.4100   81.1710  219.4110 C   0  0  0  0  0  0  0  0  0  0  0  0
  139.6619   81.7581  218.8582 H   0  0  0  0  0  0  0  0  0  0  0  0
  140.3640   81.3384  220.4972 H   0  0  0  0  0  0  0  0  0  0  0  0
  141.8080   81.6170  218.9530 C   0  0  0  0  0  0  0  0  0  0  0  0
  141.7556   82.6609  218.6103 H   0  0  0  0  0  0  0  0  0  0  0  0
  142.4976   81.5181  219.8042 H   0  0  0  0  0  0  0  0  0  0  0  0
  142.3280   80.7460  217.8120 C   0  0  0  0  0  0  0  0  0  0  0  0
  141.6054   80.7697  216.9830 H   0  0  0  0  0  0  0  0  0  0  0  0
  143.3016   81.1401  217.4853 H   0  0  0  0  0  0  0  0  0  0  0  0
  142.5170   79.2940  218.2720 C   0  0  0  0  0  0  0  0  0  0  0  0
  142.5881   78.6558  217.3789 H   0  0  0  0  0  0  0  0  0  0  0  0
  143.4302   79.2734  218.8849 H   0  0  0  0  0  0  0  0  0  0  0  0
  140.5500   79.2880  223.2220 C   0  0  0  0  0  0  0  0  0  0  0  0
  140.3960   80.6180  222.8430 C   0  0  0  0  0  0  0  0  0  0  0  0
  139.4911   81.0602  222.4008 H   0  0  0  0  0  0  0  0  0  0  0  0
  141.8250   81.4330  223.1750 S   0  0  0  0  0  0  0  0  0  0  0  0
  142.6580   80.1210  223.8090 C   0  0  0  0  0  0  0  0  0  0  0  0
  143.6894   80.1354  224.1911 H   0  0  0  0  0  0  0  0  0  0  0  0
  141.8210   79.0150  223.7680 C   0  0  0  0  0  0  0  0  0  0  0  0
  142.1207   78.0195  224.1274 H   0  0  0  0  0  0  0  0  0  0  0  0
  1  2  1  0
  2  3  2  0
  3  4  1  0
  3  5  1  0
  5  6  2  0
  6  7  1  0
  7  8  2  0
  8  9  1  0
  8 10  1  0
 10 11  1  0
 10 12  2  0
 12 13  1  0
 12 14  1  0
 14 15  1  0
 14 16  2  0
 16 17  1  0
 17 18  2  0
 17 19  1  0
 19 20  1  0
 20 21  1  0
 20 22  1  0
 20 23  1  0
 23 24  1  0
 23 25  1  0
 25 26  1  0
 25 27  1  0
 25 28  1  0
 28 29  1  0
 28 30  1  0
 28 31  1  0
 31 32  1  0
 31 33  1  0
 31 34  1  0
 34 35  1  0
 34 36  1  0
 34 37  1  0
 37 38  1  0
 37 39  1  0
  2 40  1  0
 40 41  2  0
 41 42  1  0
 41 43  1  0
 43 44  1  0
 44 45  1  0
 44 46  2  0
 46 47  1  0
 19  5  1  0
 37 23  1  0
 46 40  1  0
 16  7  1  0
M  END
>  <UniqueID>  (66) 
616

>  <SMILES>  (66) 
O=c1c2ccccc2nc(/C=C/c2ccsc2)n1CC1CCCCC1

>  <Energy>  (66) 
95.60265504110782

>  <Genealogy>  (66) 
O=c1c2ccccc2nc(/C=C/c2ccsc2)n1CC1CCCCC1 (cis-trans isomerization)
O=c1c2ccccc2nc(/C=C/c2ccsc2)n1CC1CCCCC1 (3D coordinates assigned)
O=c1c2ccccc2nc(/C=C/c2ccsc2)n1CC1CCCCC1 (nonaromatic ring conformer: 95.60265504110782 kcal/mol)

>  <smiles>  (66) 
O=c1c2ccccc2nc(/C=C/c2ccsc2)n1CC1CCCCC1

>  <score_type>  (66) 
oracle

>  <origin>  (66) 
autodockgpu

>  <m_score__min__energy>  (66) 
-6.8200000000000003

>  <m_primary>  (66) 
energy

>  <meeko>  (66) 
{"free_energy": -6.31, "intermolecular_energy": -7.8, "internal_energy": -1.7, "cluster_size": 2, "cluster_id": 3, "rank_in_cluster": 1}

>  <energy>  (66) 
-6.8

>  <cluster_rmsd>  (66) 
0.1

>  <rmsd>  (66) 
270.97

>  <cluster>  (66) 
1

$$$$
WQFRIXFTBLEVTI-ZHACJKMWNA-N
     RDKit          3D

 47 50  0  0  0  0  0  0  0  0999 V2000
  141.7124   72.2459  221.4459 H   0  0  0  0  0  0  0  0  0  0  0  0
  140.6900   72.5100  221.7540 C   0  0  0  0  0  0  0  0  0  0  0  0
  139.8570   71.5170  222.0950 C   0  0  0  0  0  0  0  0  0  0  0  0
  139.1031   71.1756  221.3703 H   0  0  0  0  0  0  0  0  0  0  0  0
  139.9280   70.8660  223.4300 C   0  0  0  0  0  0  0  0  0  0  0  0
  140.4920   71.5820  224.4400 N   0  0  0  0  0  0  0  0  0  0  0  0
  140.5520   71.1200  225.7070 C   0  0  0  0  0  0  0  0  0  0  0  0
  141.1560   71.8910  226.7060 C   0  0  0  0  0  0  0  0  0  0  0  0
  141.6042   72.8635  226.4545 H   0  0  0  0  0  0  0  0  0  0  0  0
  141.1900   71.4260  228.0230 C   0  0  0  0  0  0  0  0  0  0  0  0
  141.6692   72.0307  228.8070 H   0  0  0  0  0  0  0  0  0  0  0  0
  140.6160   70.1940  228.3450 C   0  0  0  0  0  0  0  0  0  0  0  0
  140.6423   69.8310  229.3830 H   0  0  0  0  0  0  0  0  0  0  0  0
  140.0080   69.4210  227.3510 C   0  0  0  0  0  0  0  0  0  0  0  0
  139.5541   68.4527  227.6088 H   0  0  0  0  0  0  0  0  0  0  0  0
  139.9760   69.8810  226.0190 C   0  0  0  0  0  0  0  0  0  0  0  0
  139.3870   69.1410  224.9800 C   0  0  0  0  0  0  0  0  0  0  0  0
  138.8020   68.0570  225.2600 O   0  0  0  0  0  0  0  0  0  0  0  0
  139.4300   69.5980  223.6790 N   0  0  0  0  0  0  0  0  0  0  0  0
  138.9200   68.7240  222.5880 C   0  0  0  0  0  0  0  0  0  0  0  0
  139.5184   68.9202  221.6861 H   0  0  0  0  0  0  0  0  0  0  0  0
  139.0085   67.6911  222.9558 H   0  0  0  0  0  0  0  0  0  0  0  0
  137.4170   68.9290  222.2250 C   0  0  0  0  0  0  0  0  0  0  0  0
  137.1747   68.0085  221.6736 H   0  0  0  0  0  0  0  0  0  0  0  0
  136.4390   68.9220  223.4250 C   0  0  0  0  0  0  0  0  0  0  0  0
  135.4564   68.5865  223.0617 H   0  0  0  0  0  0  0  0  0  0  0  0
  136.8811   68.2511  224.1763 H   0  0  0  0  0  0  0  0  0  0  0  0
  136.2500   70.2860  224.1250 C   0  0  0  0  0  0  0  0  0  0  0  0
  135.2202   70.3376  224.5083 H   0  0  0  0  0  0  0  0  0  0  0  0
  137.0045   70.3393  224.9237 H   0  0  0  0  0  0  0  0  0  0  0  0
  136.4860   71.4990  223.2120 C   0  0  0  0  0  0  0  0  0  0  0  0
  135.8293   72.3210  223.5332 H   0  0  0  0  0  0  0  0  0  0  0  0
  137.5442   71.7889  223.2906 H   0  0  0  0  0  0  0  0  0  0  0  0
  136.1880   71.1680  221.7520 C   0  0  0  0  0  0  0  0  0  0  0  0
  135.1558   70.7967  221.6704 H   0  0  0  0  0  0  0  0  0  0  0  0
  136.3168   72.0806  221.1515 H   0  0  0  0  0  0  0  0  0  0  0  0
  137.1510   70.0950  221.2260 C   0  0  0  0  0  0  0  0  0  0  0  0
  136.7241   69.6699  220.3057 H   0  0  0  0  0  0  0  0  0  0  0  0
  138.1172   70.5931  221.0577 H   0  0  0  0  0  0  0  0  0  0  0  0
  140.3140   73.9410  221.7680 C   0  0  0  0  0  0  0  0  0  0  0  0
  138.9980   74.3410  221.9760 C   0  0  0  0  0  0  0  0  0  0  0  0
  138.1396   73.6716  222.1340 H   0  0  0  0  0  0  0  0  0  0  0  0
  138.9420   76.0190  221.9450 S   0  0  0  0  0  0  0  0  0  0  0  0
  140.5810   76.2650  221.6740 C   0  0  0  0  0  0  0  0  0  0  0  0
  141.0782   77.2408  221.5706 H   0  0  0  0  0  0  0  0  0  0  0  0
  141.2000   75.0250  221.6030 C   0  0  0  0  0  0  0  0  0  0  0  0
  142.2797   74.8998  221.4340 H   0  0  0  0  0  0  0  0  0  0  0  0
  1  2  1  0
  2  3  2  0
  3  4  1  0
  3  5  1  0
  5  6  2  0
  6  7  1  0
  7  8  2  0
  8  9  1  0
  8 10  1  0
 10 11  1  0
 10 12  2  0
 12 13  1  0
 12 14  1  0
 14 15  1  0
 14 16  2  0
 16 17  1  0
 17 18  2  0
 17 19  1  0
 19 20  1  0
 20 21  1  0
 20 22  1  0
 20 23  1  0
 23 24  1  0
 23 25  1  0
 25 26  1  0
 25 27  1  0
 25 28  1  0
 28 29  1  0
 28 30  1  0
 28 31  1  0
 31 32  1  0
 31 33  1  0
 31 34  1  0
 34 35  1  0
 34 36  1  0
 34 37  1  0
 37 38  1  0
 37 39  1  0
  2 40  1  0
 40 41  2  0
 41 42  1  0
 41 43  1  0
 43 44  1  0
 44 45  1  0
 44 46  2  0
 46 47  1  0
 19  5  1  0
 37 23  1  0
 46 40  1  0
 16  7  1  0
M  END
>  <UniqueID>  (67) 
616

>  <SMILES>  (67) 
O=c1c2ccccc2nc(/C=C/c2ccsc2)n1CC1CCCCC1

>  <Energy>  (67) 
95.60265504110782

>  <Genealogy>  (67) 
O=c1c2ccccc2nc(/C=C/c2ccsc2)n1CC1CCCCC1 (cis-trans isomerization)
O=c1c2ccccc2nc(/C=C/c2ccsc2)n1CC1CCCCC1 (3D coordinates assigned)
O=c1c2ccccc2nc(/C=C/c2ccsc2)n1CC1CCCCC1 (nonaromatic ring conformer: 95.60265504110782 kcal/mol)

>  <smiles>  (67) 
O=c1c2ccccc2nc(/C=C/c2ccsc2)n1CC1CCCCC1

>  <score_type>  (67) 
oracle

>  <origin>  (67) 
autodockgpu

>  <m_score__min__energy>  (67) 
-6.8200000000000003

>  <m_primary>  (67) 
energy

>  <meeko>  (67) 
{"free_energy": -6.76, "intermolecular_energy": -8.26, "internal_energy": -1.76, "cluster_size": 16, "cluster_id": 1, "rank_in_cluster": 7}

>  <energy>  (67) 
-6.76

>  <cluster_rmsd>  (67) 
0.14

>  <rmsd>  (67) 
270.99

>  <cluster>  (67) 
1

$$$$
WQFRIXFTBLEVTI-ZHACJKMWNA-N
     RDKit          3D

 47 50  0  0  0  0  0  0  0  0999 V2000
  138.0488   72.6745  221.8748 H   0  0  0  0  0  0  0  0  0  0  0  0
  139.1240   72.8750  221.9920 C   0  0  0  0  0  0  0  0  0  0  0  0
  139.9440   71.8310  222.1800 C   0  0  0  0  0  0  0  0  0  0  0  0
  140.6084   71.5156  221.3620 H   0  0  0  0  0  0  0  0  0  0  0  0
  139.9760   71.0900  223.4680 C   0  0  0  0  0  0  0  0  0  0  0  0
  140.4960   71.7390  224.5450 N   0  0  0  0  0  0  0  0  0  0  0  0
  140.5170   71.1910  225.7780 C   0  0  0  0  0  0  0  0  0  0  0  0
  141.0770   71.8960  226.8490 C   0  0  0  0  0  0  0  0  0  0  0  0
  141.5226   72.8877  226.6819 H   0  0  0  0  0  0  0  0  0  0  0  0
  141.0700   71.3400  228.1310 C   0  0  0  0  0  0  0  0  0  0  0  0
  141.5146   71.8925  228.9719 H   0  0  0  0  0  0  0  0  0  0  0  0
  140.4990   70.0830  228.3460 C   0  0  0  0  0  0  0  0  0  0  0  0
  140.4926   69.6489  229.3567 H   0  0  0  0  0  0  0  0  0  0  0  0
  139.9360   69.3760  227.2800 C   0  0  0  0  0  0  0  0  0  0  0  0
  139.4851   68.3878  227.4537 H   0  0  0  0  0  0  0  0  0  0  0  0
  139.9450   69.9270  225.9830 C   0  0  0  0  0  0  0  0  0  0  0  0
  139.4020   69.2560  224.8750 C   0  0  0  0  0  0  0  0  0  0  0  0
  138.8200   68.1500  225.0580 O   0  0  0  0  0  0  0  0  0  0  0  0
  139.4850   69.8030  223.6100 N   0  0  0  0  0  0  0  0  0  0  0  0
  139.0240   69.0020  222.4450 C   0  0  0  0  0  0  0  0  0  0  0  0
  139.5808   69.3386  221.5581 H   0  0  0  0  0  0  0  0  0  0  0  0
  139.2089   67.9491  222.7044 H   0  0  0  0  0  0  0  0  0  0  0  0
  137.4990   69.1110  222.1290 C   0  0  0  0  0  0  0  0  0  0  0  0
  137.3222   68.2372  221.4847 H   0  0  0  0  0  0  0  0  0  0  0  0
  136.5560   68.8900  223.3380 C   0  0  0  0  0  0  0  0  0  0  0  0
  135.5969   68.5093  222.9571 H   0  0  0  0  0  0  0  0  0  0  0  0
  137.0731   68.1847  224.0052 H   0  0  0  0  0  0  0  0  0  0  0  0
  136.2690   70.1500  224.1830 C   0  0  0  0  0  0  0  0  0  0  0  0
  135.2492   70.0694  224.5874 H   0  0  0  0  0  0  0  0  0  0  0  0
  137.0374   70.1853  224.9694 H   0  0  0  0  0  0  0  0  0  0  0  0
  136.3750   71.4690  223.4020 C   0  0  0  0  0  0  0  0  0  0  0  0
  135.6575   72.1904  223.8202 H   0  0  0  0  0  0  0  0  0  0  0  0
  137.4056   71.8423  223.4944 H   0  0  0  0  0  0  0  0  0  0  0  0
  136.0700   71.2690  221.9200 C   0  0  0  0  0  0  0  0  0  0  0  0
  135.0721   70.8183  221.8154 H   0  0  0  0  0  0  0  0  0  0  0  0
  136.1041   72.2477  221.4191 H   0  0  0  0  0  0  0  0  0  0  0  0
  137.1090   70.3470  221.2660 C   0  0  0  0  0  0  0  0  0  0  0  0
  136.6975   69.9856  220.3120 H   0  0  0  0  0  0  0  0  0  0  0  0
  138.0241   70.9436  221.1369 H   0  0  0  0  0  0  0  0  0  0  0  0
  139.5810   74.2810  221.9330 C   0  0  0  0  0  0  0  0  0  0  0  0
  138.7380   75.3310  222.2850 C   0  0  0  0  0  0  0  0  0  0  0  0
  137.6937   75.2344  222.6169 H   0  0  0  0  0  0  0  0  0  0  0  0
  139.5860   76.7700  222.1170 S   0  0  0  0  0  0  0  0  0  0  0  0
  141.0310   76.0890  221.6020 C   0  0  0  0  0  0  0  0  0  0  0  0
  141.9482   76.6395  221.3459 H   0  0  0  0  0  0  0  0  0  0  0  0
  140.8690   74.7120  221.5550 C   0  0  0  0  0  0  0  0  0  0  0  0
  141.6698   74.0217  221.2515 H   0  0  0  0  0  0  0  0  0  0  0  0
  1  2  1  0
  2  3  2  0
  3  4  1  0
  3  5  1  0
  5  6  2  0
  6  7  1  0
  7  8  2  0
  8  9  1  0
  8 10  1  0
 10 11  1  0
 10 12  2  0
 12 13  1  0
 12 14  1  0
 14 15  1  0
 14 16  2  0
 16 17  1  0
 17 18  2  0
 17 19  1  0
 19 20  1  0
 20 21  1  0
 20 22  1  0
 20 23  1  0
 23 24  1  0
 23 25  1  0
 25 26  1  0
 25 27  1  0
 25 28  1  0
 28 29  1  0
 28 30  1  0
 28 31  1  0
 31 32  1  0
 31 33  1  0
 31 34  1  0
 34 35  1  0
 34 36  1  0
 34 37  1  0
 37 38  1  0
 37 39  1  0
  2 40  1  0
 40 41  2  0
 41 42  1  0
 41 43  1  0
 43 44  1  0
 44 45  1  0
 44 46  2  0
 46 47  1  0
 19  5  1  0
 37 23  1  0
 46 40  1  0
 16  7  1  0
M  END
>  <UniqueID>  (68) 
616

>  <SMILES>  (68) 
O=c1c2ccccc2nc(/C=C/c2ccsc2)n1CC1CCCCC1

>  <Energy>  (68) 
95.60265504110782

>  <Genealogy>  (68) 
O=c1c2ccccc2nc(/C=C/c2ccsc2)n1CC1CCCCC1 (cis-trans isomerization)
O=c1c2ccccc2nc(/C=C/c2ccsc2)n1CC1CCCCC1 (3D coordinates assigned)
O=c1c2ccccc2nc(/C=C/c2ccsc2)n1CC1CCCCC1 (nonaromatic ring conformer: 95.60265504110782 kcal/mol)

>  <smiles>  (68) 
O=c1c2ccccc2nc(/C=C/c2ccsc2)n1CC1CCCCC1

>  <score_type>  (68) 
oracle

>  <origin>  (68) 
autodockgpu

>  <m_score__min__energy>  (68) 
-6.8200000000000003

>  <m_primary>  (68) 
energy

>  <meeko>  (68) 
{"free_energy": -6.81, "intermolecular_energy": -8.3, "internal_energy": -1.71, "cluster_size": 16, "cluster_id": 1, "rank_in_cluster": 4}

>  <energy>  (68) 
-6.76

>  <cluster_rmsd>  (68) 
0.62

>  <rmsd>  (68) 
271.01

>  <cluster>  (68) 
1

$$$$
WQFRIXFTBLEVTI-ZHACJKMWNA-N
     RDKit          3D

 47 50  0  0  0  0  0  0  0  0999 V2000
  143.3141   79.5917  218.8188 H   0  0  0  0  0  0  0  0  0  0  0  0
  142.3330   80.0760  218.9320 C   0  0  0  0  0  0  0  0  0  0  0  0
  141.3440   79.3720  219.4990 C   0  0  0  0  0  0  0  0  0  0  0  0
  140.3810   79.8645  219.6993 H   0  0  0  0  0  0  0  0  0  0  0  0
  141.5170   77.9410  219.8640 C   0  0  0  0  0  0  0  0  0  0  0  0
  142.4490   77.2330  219.1710 N   0  0  0  0  0  0  0  0  0  0  0  0
  142.7390   75.9460  219.4590 C   0  0  0  0  0  0  0  0  0  0  0  0
  143.6960   75.2580  218.7050 C   0  0  0  0  0  0  0  0  0  0  0  0
  144.1941   75.7575  217.8609 H   0  0  0  0  0  0  0  0  0  0  0  0
  144.0190   73.9370  219.0240 C   0  0  0  0  0  0  0  0  0  0  0  0
  144.7687   73.3957  218.4282 H   0  0  0  0  0  0  0  0  0  0  0  0
  143.3910   73.3020  220.0990 C   0  0  0  0  0  0  0  0  0  0  0  0
  143.6482   72.2622  220.3492 H   0  0  0  0  0  0  0  0  0  0  0  0
  142.4360   73.9870  220.8570 C   0  0  0  0  0  0  0  0  0  0  0  0
  141.9454   73.4860  221.7045 H   0  0  0  0  0  0  0  0  0  0  0  0
  142.1010   75.3180  220.5370 C   0  0  0  0  0  0  0  0  0  0  0  0
  141.1430   76.0480  221.2600 C   0  0  0  0  0  0  0  0  0  0  0  0
  140.6120   75.5180  222.2770 O   0  0  0  0  0  0  0  0  0  0  0  0
  140.7990   77.3290  220.8780 N   0  0  0  0  0  0  0  0  0  0  0  0
  139.6830   78.0180  221.5800 C   0  0  0  0  0  0  0  0  0  0  0  0
  139.2548   78.7618  220.8919 H   0  0  0  0  0  0  0  0  0  0  0  0
  138.9716   77.2313  221.8716 H   0  0  0  0  0  0  0  0  0  0  0  0
  140.0840   78.7520  222.8970 C   0  0  0  0  0  0  0  0  0  0  0  0
  139.4489   78.2622  223.6498 H   0  0  0  0  0  0  0  0  0  0  0  0
  141.5290   78.4880  223.3880 C   0  0  0  0  0  0  0  0  0  0  0  0
  141.5466   78.6172  224.4802 H   0  0  0  0  0  0  0  0  0  0  0  0
  141.7810   77.4678  223.0630 H   0  0  0  0  0  0  0  0  0  0  0  0
  142.6070   79.4110  222.7800 C   0  0  0  0  0  0  0  0  0  0  0  0
  143.3947   79.5639  223.5324 H   0  0  0  0  0  0  0  0  0  0  0  0
  142.9763   78.9111  221.8724 H   0  0  0  0  0  0  0  0  0  0  0  0
  142.0830   80.7880  222.3440 C   0  0  0  0  0  0  0  0  0  0  0  0
  142.8824   81.5322  222.4750 H   0  0  0  0  0  0  0  0  0  0  0  0
  141.7772   80.7220  221.2894 H   0  0  0  0  0  0  0  0  0  0  0  0
  140.8710   81.2130  223.1670 C   0  0  0  0  0  0  0  0  0  0  0  0
  141.1390   81.2036  224.2338 H   0  0  0  0  0  0  0  0  0  0  0  0
  140.5715   82.2243  222.8547 H   0  0  0  0  0  0  0  0  0  0  0  0
  139.6900   80.2590  222.9370 C   0  0  0  0  0  0  0  0  0  0  0  0
  138.9654   80.4045  223.7517 H   0  0  0  0  0  0  0  0  0  0  0  0
  139.2746   80.5032  221.9481 H   0  0  0  0  0  0  0  0  0  0  0  0
  142.1830   81.4670  218.4490 C   0  0  0  0  0  0  0  0  0  0  0  0
  141.2400   82.3260  219.0050 C   0  0  0  0  0  0  0  0  0  0  0  0
  140.5366   82.0742  219.8124 H   0  0  0  0  0  0  0  0  0  0  0  0
  141.3590   83.8130  218.2330 S   0  0  0  0  0  0  0  0  0  0  0  0
  142.6070   83.3950  217.1910 C   0  0  0  0  0  0  0  0  0  0  0  0
  143.0718   84.0551  216.4438 H   0  0  0  0  0  0  0  0  0  0  0  0
  142.9510   82.0730  217.4350 C   0  0  0  0  0  0  0  0  0  0  0  0
  143.7481   81.5477  216.8884 H   0  0  0  0  0  0  0  0  0  0  0  0
  1  2  1  0
  2  3  2  0
  3  4  1  0
  3  5  1  0
  5  6  2  0
  6  7  1  0
  7  8  2  0
  8  9  1  0
  8 10  1  0
 10 11  1  0
 10 12  2  0
 12 13  1  0
 12 14  1  0
 14 15  1  0
 14 16  2  0
 16 17  1  0
 17 18  2  0
 17 19  1  0
 19 20  1  0
 20 21  1  0
 20 22  1  0
 20 23  1  0
 23 24  1  0
 23 25  1  0
 25 26  1  0
 25 27  1  0
 25 28  1  0
 28 29  1  0
 28 30  1  0
 28 31  1  0
 31 32  1  0
 31 33  1  0
 31 34  1  0
 34 35  1  0
 34 36  1  0
 34 37  1  0
 37 38  1  0
 37 39  1  0
  2 40  1  0
 40 41  2  0
 41 42  1  0
 41 43  1  0
 43 44  1  0
 44 45  1  0
 44 46  2  0
 46 47  1  0
 19  5  1  0
 37 23  1  0
 46 40  1  0
 16  7  1  0
M  END
>  <UniqueID>  (69) 
616

>  <SMILES>  (69) 
O=c1c2ccccc2nc(/C=C/c2ccsc2)n1CC1CCCCC1

>  <Energy>  (69) 
95.60265504110782

>  <Genealogy>  (69) 
O=c1c2ccccc2nc(/C=C/c2ccsc2)n1CC1CCCCC1 (cis-trans isomerization)
O=c1c2ccccc2nc(/C=C/c2ccsc2)n1CC1CCCCC1 (3D coordinates assigned)
O=c1c2ccccc2nc(/C=C/c2ccsc2)n1CC1CCCCC1 (nonaromatic ring conformer: 95.60265504110782 kcal/mol)

>  <smiles>  (69) 
O=c1c2ccccc2nc(/C=C/c2ccsc2)n1CC1CCCCC1

>  <score_type>  (69) 
oracle

>  <origin>  (69) 
autodockgpu

>  <m_score__min__energy>  (69) 
-6.8200000000000003

>  <m_primary>  (69) 
energy

>  <meeko>  (69) 
{"free_energy": -6.28, "intermolecular_energy": -7.77, "internal_energy": -1.61, "cluster_size": 2, "cluster_id": 2, "rank_in_cluster": 2}

>  <energy>  (69) 
-6.74

>  <cluster_rmsd>  (69) 
0.33

>  <rmsd>  (69) 
270.99

>  <cluster>  (69) 
1

$$$$
WQFRIXFTBLEVTI-ZHACJKMWNA-N
     RDKit          3D

 47 50  0  0  0  0  0  0  0  0999 V2000
  138.0234   72.6962  221.9422 H   0  0  0  0  0  0  0  0  0  0  0  0
  139.1030   72.8890  222.0280 C   0  0  0  0  0  0  0  0  0  0  0  0
  139.9200   71.8400  222.1990 C   0  0  0  0  0  0  0  0  0  0  0  0
  140.5729   71.5269  221.3710 H   0  0  0  0  0  0  0  0  0  0  0  0
  139.9640   71.0900  223.4820 C   0  0  0  0  0  0  0  0  0  0  0  0
  140.4890   71.7340  224.5600 N   0  0  0  0  0  0  0  0  0  0  0  0
  140.5200   71.1780  225.7890 C   0  0  0  0  0  0  0  0  0  0  0  0
  141.0840   71.8780  226.8610 C   0  0  0  0  0  0  0  0  0  0  0  0
  141.5245   72.8726  226.6973 H   0  0  0  0  0  0  0  0  0  0  0  0
  141.0880   71.3140  228.1400 C   0  0  0  0  0  0  0  0  0  0  0  0
  141.5354   71.8632  228.9816 H   0  0  0  0  0  0  0  0  0  0  0  0
  140.5240   70.0530  228.3500 C   0  0  0  0  0  0  0  0  0  0  0  0
  140.5263   69.6118  229.3576 H   0  0  0  0  0  0  0  0  0  0  0  0
  139.9570   69.3510  227.2830 C   0  0  0  0  0  0  0  0  0  0  0  0
  139.5115   68.3597  227.4528 H   0  0  0  0  0  0  0  0  0  0  0  0
  139.9550   69.9110  225.9900 C   0  0  0  0  0  0  0  0  0  0  0  0
  139.4070   69.2450  224.8810 C   0  0  0  0  0  0  0  0  0  0  0  0
  138.8310   68.1350  225.0610 O   0  0  0  0  0  0  0  0  0  0  0  0
  139.4790   69.8000  223.6190 N   0  0  0  0  0  0  0  0  0  0  0  0
  139.0140   69.0050  222.4520 C   0  0  0  0  0  0  0  0  0  0  0  0
  139.5781   69.3359  221.5675 H   0  0  0  0  0  0  0  0  0  0  0  0
  139.1862   67.9500  222.7115 H   0  0  0  0  0  0  0  0  0  0  0  0
  137.4920   69.1310  222.1300 C   0  0  0  0  0  0  0  0  0  0  0  0
  137.3134   68.2706  221.4683 H   0  0  0  0  0  0  0  0  0  0  0  0
  136.5410   68.8950  223.3290 C   0  0  0  0  0  0  0  0  0  0  0  0
  135.5815   68.5283  222.9354 H   0  0  0  0  0  0  0  0  0  0  0  0
  137.0503   68.1744  223.9857 H   0  0  0  0  0  0  0  0  0  0  0  0
  136.2570   70.1400  224.1970 C   0  0  0  0  0  0  0  0  0  0  0  0
  135.2338   70.0589  224.5926 H   0  0  0  0  0  0  0  0  0  0  0  0
  137.0198   70.1542  224.9894 H   0  0  0  0  0  0  0  0  0  0  0  0
  136.3780   71.4730  223.4430 C   0  0  0  0  0  0  0  0  0  0  0  0
  135.6639   72.1918  223.8711 H   0  0  0  0  0  0  0  0  0  0  0  0
  137.4108   71.8365  223.5486 H   0  0  0  0  0  0  0  0  0  0  0  0
  136.0800   71.3040  221.9560 C   0  0  0  0  0  0  0  0  0  0  0  0
  135.0792   70.8632  221.8374 H   0  0  0  0  0  0  0  0  0  0  0  0
  136.1250   72.2921  221.4747 H   0  0  0  0  0  0  0  0  0  0  0  0
  137.1150   70.3870  221.2890 C   0  0  0  0  0  0  0  0  0  0  0  0
  136.7052   70.0472  220.3264 H   0  0  0  0  0  0  0  0  0  0  0  0
  138.0351   70.9791  221.1756 H   0  0  0  0  0  0  0  0  0  0  0  0
  139.5690   74.2910  221.9480 C   0  0  0  0  0  0  0  0  0  0  0  0
  138.7330   75.3510  222.2830 C   0  0  0  0  0  0  0  0  0  0  0  0
  137.6880   75.2661  222.6158 H   0  0  0  0  0  0  0  0  0  0  0  0
  139.5900   76.7820  222.0930 S   0  0  0  0  0  0  0  0  0  0  0  0
  141.0310   76.0840  221.5890 C   0  0  0  0  0  0  0  0  0  0  0  0
  141.9518   76.6247  221.3249 H   0  0  0  0  0  0  0  0  0  0  0  0
  140.8600   74.7070  221.5630 C   0  0  0  0  0  0  0  0  0  0  0  0
  141.6560   74.0067  221.2699 H   0  0  0  0  0  0  0  0  0  0  0  0
  1  2  1  0
  2  3  2  0
  3  4  1  0
  3  5  1  0
  5  6  2  0
  6  7  1  0
  7  8  2  0
  8  9  1  0
  8 10  1  0
 10 11  1  0
 10 12  2  0
 12 13  1  0
 12 14  1  0
 14 15  1  0
 14 16  2  0
 16 17  1  0
 17 18  2  0
 17 19  1  0
 19 20  1  0
 20 21  1  0
 20 22  1  0
 20 23  1  0
 23 24  1  0
 23 25  1  0
 25 26  1  0
 25 27  1  0
 25 28  1  0
 28 29  1  0
 28 30  1  0
 28 31  1  0
 31 32  1  0
 31 33  1  0
 31 34  1  0
 34 35  1  0
 34 36  1  0
 34 37  1  0
 37 38  1  0
 37 39  1  0
  2 40  1  0
 40 41  2  0
 41 42  1  0
 41 43  1  0
 43 44  1  0
 44 45  1  0
 44 46  2  0
 46 47  1  0
 19  5  1  0
 37 23  1  0
 46 40  1  0
 16  7  1  0
M  END
>  <UniqueID>  (70) 
616

>  <SMILES>  (70) 
O=c1c2ccccc2nc(/C=C/c2ccsc2)n1CC1CCCCC1

>  <Energy>  (70) 
95.60265504110782

>  <Genealogy>  (70) 
O=c1c2ccccc2nc(/C=C/c2ccsc2)n1CC1CCCCC1 (cis-trans isomerization)
O=c1c2ccccc2nc(/C=C/c2ccsc2)n1CC1CCCCC1 (3D coordinates assigned)
O=c1c2ccccc2nc(/C=C/c2ccsc2)n1CC1CCCCC1 (nonaromatic ring conformer: 95.60265504110782 kcal/mol)

>  <smiles>  (70) 
O=c1c2ccccc2nc(/C=C/c2ccsc2)n1CC1CCCCC1

>  <score_type>  (70) 
oracle

>  <origin>  (70) 
autodockgpu

>  <m_score__min__energy>  (70) 
-6.8200000000000003

>  <m_primary>  (70) 
energy

>  <meeko>  (70) 
{"free_energy": -6.81, "intermolecular_energy": -8.3, "internal_energy": -1.7, "cluster_size": 16, "cluster_id": 1, "rank_in_cluster": 3}

>  <energy>  (70) 
-6.73

>  <cluster_rmsd>  (70) 
0.62

>  <rmsd>  (70) 
271.0

>  <cluster>  (70) 
1

$$$$
WQFRIXFTBLEVTI-ZHACJKMWNA-N
     RDKit          3D

 47 50  0  0  0  0  0  0  0  0999 V2000
  138.0071   72.6873  221.8946 H   0  0  0  0  0  0  0  0  0  0  0  0
  139.0870   72.8690  221.9980 C   0  0  0  0  0  0  0  0  0  0  0  0
  139.8920   71.8110  222.1730 C   0  0  0  0  0  0  0  0  0  0  0  0
  140.5271   71.4754  221.3399 H   0  0  0  0  0  0  0  0  0  0  0  0
  139.9460   71.0810  223.4670 C   0  0  0  0  0  0  0  0  0  0  0  0
  140.4790   71.7410  224.5300 N   0  0  0  0  0  0  0  0  0  0  0  0
  140.5200   71.2040  225.7680 C   0  0  0  0  0  0  0  0  0  0  0  0
  141.0930   71.9200  226.8250 C   0  0  0  0  0  0  0  0  0  0  0  0
  141.5326   72.9117  226.6428 H   0  0  0  0  0  0  0  0  0  0  0  0
  141.1070   71.3760  228.1110 C   0  0  0  0  0  0  0  0  0  0  0  0
  141.5613   71.9382  228.9402 H   0  0  0  0  0  0  0  0  0  0  0  0
  140.5450   70.1190  228.3460 C   0  0  0  0  0  0  0  0  0  0  0  0
  140.5562   69.6937  229.3604 H   0  0  0  0  0  0  0  0  0  0  0  0
  139.9680   69.4000  227.2940 C   0  0  0  0  0  0  0  0  0  0  0  0
  139.5231   68.4119  227.4830 H   0  0  0  0  0  0  0  0  0  0  0  0
  139.9560   69.9400  225.9920 C   0  0  0  0  0  0  0  0  0  0  0  0
  139.3990   69.2570  224.8980 C   0  0  0  0  0  0  0  0  0  0  0  0
  138.8250   68.1500  225.1000 O   0  0  0  0  0  0  0  0  0  0  0  0
  139.4610   69.7940  223.6280 N   0  0  0  0  0  0  0  0  0  0  0  0
  138.9860   68.9810  222.4760 C   0  0  0  0  0  0  0  0  0  0  0  0
  139.5426   69.2987  221.5820 H   0  0  0  0  0  0  0  0  0  0  0  0
  139.1605   67.9300  222.7498 H   0  0  0  0  0  0  0  0  0  0  0  0
  137.4620   69.1020  222.1650 C   0  0  0  0  0  0  0  0  0  0  0  0
  137.2744   68.2225  221.5315 H   0  0  0  0  0  0  0  0  0  0  0  0
  136.5210   68.9050  223.3800 C   0  0  0  0  0  0  0  0  0  0  0  0
  135.5565   68.5305  223.0066 H   0  0  0  0  0  0  0  0  0  0  0  0
  137.0336   68.2020  224.0531 H   0  0  0  0  0  0  0  0  0  0  0  0
  136.2500   70.1770  224.2130 C   0  0  0  0  0  0  0  0  0  0  0  0
  135.2306   70.1118  224.6212 H   0  0  0  0  0  0  0  0  0  0  0  0
  137.0206   70.2124  224.9972 H   0  0  0  0  0  0  0  0  0  0  0  0
  136.3680   71.4860  223.4170 C   0  0  0  0  0  0  0  0  0  0  0  0
  135.6604   72.2201  223.8298 H   0  0  0  0  0  0  0  0  0  0  0  0
  137.4031   71.8486  223.5015 H   0  0  0  0  0  0  0  0  0  0  0  0
  136.0550   71.2730  221.9380 C   0  0  0  0  0  0  0  0  0  0  0  0
  135.0518   70.8320  221.8422 H   0  0  0  0  0  0  0  0  0  0  0  0
  136.0979   72.2458  221.4264 H   0  0  0  0  0  0  0  0  0  0  0  0
  137.0810   70.3330  221.2900 C   0  0  0  0  0  0  0  0  0  0  0  0
  136.6614   69.9655  220.3419 H   0  0  0  0  0  0  0  0  0  0  0  0
  138.0018   70.9184  221.1505 H   0  0  0  0  0  0  0  0  0  0  0  0
  139.5680   74.2670  221.9360 C   0  0  0  0  0  0  0  0  0  0  0  0
  140.8610   74.5690  221.5190 C   0  0  0  0  0  0  0  0  0  0  0  0
  141.6267   73.8395  221.2167 H   0  0  0  0  0  0  0  0  0  0  0  0
  141.0530   76.2370  221.5560 S   0  0  0  0  0  0  0  0  0  0  0  0
  139.5050   76.6020  222.0920 C   0  0  0  0  0  0  0  0  0  0  0  0
  139.1102   77.6106  222.2841 H   0  0  0  0  0  0  0  0  0  0  0  0
  138.8090   75.4120  222.2510 C   0  0  0  0  0  0  0  0  0  0  0  0
  137.7638   75.3667  222.5908 H   0  0  0  0  0  0  0  0  0  0  0  0
  1  2  1  0
  2  3  2  0
  3  4  1  0
  3  5  1  0
  5  6  2  0
  6  7  1  0
  7  8  2  0
  8  9  1  0
  8 10  1  0
 10 11  1  0
 10 12  2  0
 12 13  1  0
 12 14  1  0
 14 15  1  0
 14 16  2  0
 16 17  1  0
 17 18  2  0
 17 19  1  0
 19 20  1  0
 20 21  1  0
 20 22  1  0
 20 23  1  0
 23 24  1  0
 23 25  1  0
 25 26  1  0
 25 27  1  0
 25 28  1  0
 28 29  1  0
 28 30  1  0
 28 31  1  0
 31 32  1  0
 31 33  1  0
 31 34  1  0
 34 35  1  0
 34 36  1  0
 34 37  1  0
 37 38  1  0
 37 39  1  0
  2 40  1  0
 40 41  2  0
 41 42  1  0
 41 43  1  0
 43 44  1  0
 44 45  1  0
 44 46  2  0
 46 47  1  0
 19  5  1  0
 37 23  1  0
 46 40  1  0
 16  7  1  0
M  END
>  <UniqueID>  (71) 
616

>  <SMILES>  (71) 
O=c1c2ccccc2nc(/C=C/c2ccsc2)n1CC1CCCCC1

>  <Energy>  (71) 
95.60265504110782

>  <Genealogy>  (71) 
O=c1c2ccccc2nc(/C=C/c2ccsc2)n1CC1CCCCC1 (cis-trans isomerization)
O=c1c2ccccc2nc(/C=C/c2ccsc2)n1CC1CCCCC1 (3D coordinates assigned)
O=c1c2ccccc2nc(/C=C/c2ccsc2)n1CC1CCCCC1 (nonaromatic ring conformer: 95.60265504110782 kcal/mol)

>  <smiles>  (71) 
O=c1c2ccccc2nc(/C=C/c2ccsc2)n1CC1CCCCC1

>  <score_type>  (71) 
oracle

>  <origin>  (71) 
autodockgpu

>  <m_score__min__energy>  (71) 
-6.8200000000000003

>  <m_primary>  (71) 
energy

>  <meeko>  (71) 
{"free_energy": -6.76, "intermolecular_energy": -8.25, "internal_energy": -1.71, "cluster_size": 16, "cluster_id": 1, "rank_in_cluster": 8}

>  <energy>  (71) 
-6.7

>  <cluster_rmsd>  (71) 
0.33

>  <rmsd>  (71) 
270.99

>  <cluster>  (71) 
1

$$$$
WQFRIXFTBLEVTI-ZHACJKMWNA-N
     RDKit          3D

 47 50  0  0  0  0  0  0  0  0999 V2000
  141.5579   72.1329  221.4405 H   0  0  0  0  0  0  0  0  0  0  0  0
  140.6050   72.5800  221.7600 C   0  0  0  0  0  0  0  0  0  0  0  0
  139.6430   71.7620  222.2080 C   0  0  0  0  0  0  0  0  0  0  0  0
  138.7318   71.6250  221.6072 H   0  0  0  0  0  0  0  0  0  0  0  0
  139.7780   71.0350  223.4980 C   0  0  0  0  0  0  0  0  0  0  0  0
  140.3340   71.7140  224.5380 N   0  0  0  0  0  0  0  0  0  0  0  0
  140.4470   71.1800  225.7720 C   0  0  0  0  0  0  0  0  0  0  0  0
  141.0400   71.9160  226.8030 C   0  0  0  0  0  0  0  0  0  0  0  0
  141.4366   72.9222  226.6022 H   0  0  0  0  0  0  0  0  0  0  0  0
  141.1290   71.3740  228.0880 C   0  0  0  0  0  0  0  0  0  0  0  0
  141.5999   71.9519  228.8969 H   0  0  0  0  0  0  0  0  0  0  0  0
  140.6200   70.0980  228.3460 C   0  0  0  0  0  0  0  0  0  0  0  0
  140.6885   69.6739  229.3586 H   0  0  0  0  0  0  0  0  0  0  0  0
  140.0240   69.3600  227.3190 C   0  0  0  0  0  0  0  0  0  0  0  0
  139.6222   68.3571  227.5257 H   0  0  0  0  0  0  0  0  0  0  0  0
  139.9370   69.8980  226.0200 C   0  0  0  0  0  0  0  0  0  0  0  0
  139.3570   69.1950  224.9500 C   0  0  0  0  0  0  0  0  0  0  0  0
  138.8290   68.0700  225.1760 O   0  0  0  0  0  0  0  0  0  0  0  0
  139.3450   69.7320  223.6790 N   0  0  0  0  0  0  0  0  0  0  0  0
  138.8490   68.9030  222.5490 C   0  0  0  0  0  0  0  0  0  0  0  0
  139.4144   69.1821  221.6476 H   0  0  0  0  0  0  0  0  0  0  0  0
  138.9949   67.8552  222.8504 H   0  0  0  0  0  0  0  0  0  0  0  0
  137.3280   69.0570  222.2330 C   0  0  0  0  0  0  0  0  0  0  0  0
  137.1046   68.1421  221.6646 H   0  0  0  0  0  0  0  0  0  0  0  0
  136.3870   68.9820  223.4600 C   0  0  0  0  0  0  0  0  0  0  0  0
  135.4078   68.6174  223.1163 H   0  0  0  0  0  0  0  0  0  0  0  0
  136.8772   68.3107  224.1805 H   0  0  0  0  0  0  0  0  0  0  0  0
  136.1660   70.3190  224.2010 C   0  0  0  0  0  0  0  0  0  0  0  0
  135.1468   70.3203  224.6147 H   0  0  0  0  0  0  0  0  0  0  0  0
  136.9406   70.3820  224.9794 H   0  0  0  0  0  0  0  0  0  0  0  0
  136.3280   71.5630  223.3130 C   0  0  0  0  0  0  0  0  0  0  0  0
  135.6501   72.3503  223.6743 H   0  0  0  0  0  0  0  0  0  0  0  0
  137.3763   71.8915  223.3687 H   0  0  0  0  0  0  0  0  0  0  0  0
  136.0000   71.2580  221.8540 C   0  0  0  0  0  0  0  0  0  0  0  0
  134.9810   70.8483  221.7918 H   0  0  0  0  0  0  0  0  0  0  0  0
  136.0750   72.1898  221.2742 H   0  0  0  0  0  0  0  0  0  0  0  0
  136.9890   70.2370  221.2730 C   0  0  0  0  0  0  0  0  0  0  0  0
  136.5529   69.8192  220.3536 H   0  0  0  0  0  0  0  0  0  0  0  0
  137.9301   70.7769  221.0917 H   0  0  0  0  0  0  0  0  0  0  0  0
  140.4600   74.0500  221.6700 C   0  0  0  0  0  0  0  0  0  0  0  0
  139.2680   74.6810  222.0140 C   0  0  0  0  0  0  0  0  0  0  0  0
  138.3521   74.1808  222.3617 H   0  0  0  0  0  0  0  0  0  0  0  0
  139.4660   76.3360  221.8080 S   0  0  0  0  0  0  0  0  0  0  0  0
  141.0610   76.2800  221.2870 C   0  0  0  0  0  0  0  0  0  0  0  0
  141.6793   77.1464  221.0093 H   0  0  0  0  0  0  0  0  0  0  0  0
  141.4650   74.9530  221.2670 C   0  0  0  0  0  0  0  0  0  0  0  0
  142.4740   74.6354  220.9653 H   0  0  0  0  0  0  0  0  0  0  0  0
  1  2  1  0
  2  3  2  0
  3  4  1  0
  3  5  1  0
  5  6  2  0
  6  7  1  0
  7  8  2  0
  8  9  1  0
  8 10  1  0
 10 11  1  0
 10 12  2  0
 12 13  1  0
 12 14  1  0
 14 15  1  0
 14 16  2  0
 16 17  1  0
 17 18  2  0
 17 19  1  0
 19 20  1  0
 20 21  1  0
 20 22  1  0
 20 23  1  0
 23 24  1  0
 23 25  1  0
 25 26  1  0
 25 27  1  0
 25 28  1  0
 28 29  1  0
 28 30  1  0
 28 31  1  0
 31 32  1  0
 31 33  1  0
 31 34  1  0
 34 35  1  0
 34 36  1  0
 34 37  1  0
 37 38  1  0
 37 39  1  0
  2 40  1  0
 40 41  2  0
 41 42  1  0
 41 43  1  0
 43 44  1  0
 44 45  1  0
 44 46  2  0
 46 47  1  0
 19  5  1  0
 37 23  1  0
 46 40  1  0
 16  7  1  0
M  END
>  <UniqueID>  (72) 
616

>  <SMILES>  (72) 
O=c1c2ccccc2nc(/C=C/c2ccsc2)n1CC1CCCCC1

>  <Energy>  (72) 
95.60265504110782

>  <Genealogy>  (72) 
O=c1c2ccccc2nc(/C=C/c2ccsc2)n1CC1CCCCC1 (cis-trans isomerization)
O=c1c2ccccc2nc(/C=C/c2ccsc2)n1CC1CCCCC1 (3D coordinates assigned)
O=c1c2ccccc2nc(/C=C/c2ccsc2)n1CC1CCCCC1 (nonaromatic ring conformer: 95.60265504110782 kcal/mol)

>  <smiles>  (72) 
O=c1c2ccccc2nc(/C=C/c2ccsc2)n1CC1CCCCC1

>  <score_type>  (72) 
oracle

>  <origin>  (72) 
autodockgpu

>  <m_score__min__energy>  (72) 
-6.8200000000000003

>  <m_primary>  (72) 
energy

>  <meeko>  (72) 
{"free_energy": -6.82, "intermolecular_energy": -8.31, "internal_energy": -1.66, "cluster_size": 16, "cluster_id": 1, "rank_in_cluster": 2}

>  <energy>  (72) 
-6.7

>  <cluster_rmsd>  (72) 
0.38

>  <rmsd>  (72) 
270.95

>  <cluster>  (72) 
1

$$$$
WQFRIXFTBLEVTI-ZHACJKMWNA-N
     RDKit          3D

 47 50  0  0  0  0  0  0  0  0999 V2000
  141.5206   72.1841  221.3820 H   0  0  0  0  0  0  0  0  0  0  0  0
  140.5360   72.5150  221.7440 C   0  0  0  0  0  0  0  0  0  0  0  0
  139.6640   71.5800  222.1450 C   0  0  0  0  0  0  0  0  0  0  0  0
  138.8319   71.3023  221.4814 H   0  0  0  0  0  0  0  0  0  0  0  0
  139.7940   70.9090  223.4650 C   0  0  0  0  0  0  0  0  0  0  0  0
  140.3610   71.6270  224.4720 N   0  0  0  0  0  0  0  0  0  0  0  0
  140.4710   71.1460  225.7290 C   0  0  0  0  0  0  0  0  0  0  0  0
  141.0750   71.9200  226.7250 C   0  0  0  0  0  0  0  0  0  0  0  0
  141.4825   72.9117  226.4792 H   0  0  0  0  0  0  0  0  0  0  0  0
  141.1610   71.4340  228.0320 C   0  0  0  0  0  0  0  0  0  0  0  0
  141.6402   72.0416  228.8138 H   0  0  0  0  0  0  0  0  0  0  0  0
  140.6390   70.1770  228.3470 C   0  0  0  0  0  0  0  0  0  0  0  0
  140.7055   69.7976  229.3773 H   0  0  0  0  0  0  0  0  0  0  0  0
  140.0320   69.4000  227.3550 C   0  0  0  0  0  0  0  0  0  0  0  0
  139.6197   68.4117  227.6067 H   0  0  0  0  0  0  0  0  0  0  0  0
  139.9480   69.8820  226.0330 C   0  0  0  0  0  0  0  0  0  0  0  0
  139.3560   69.1400  224.9980 C   0  0  0  0  0  0  0  0  0  0  0  0
  138.8170   68.0310  225.2740 O   0  0  0  0  0  0  0  0  0  0  0  0
  139.3470   69.6200  223.7040 N   0  0  0  0  0  0  0  0  0  0  0  0
  138.8390   68.7470  222.6120 C   0  0  0  0  0  0  0  0  0  0  0  0
  139.4063   68.9783  221.6984 H   0  0  0  0  0  0  0  0  0  0  0  0
  138.9726   67.7117  222.9589 H   0  0  0  0  0  0  0  0  0  0  0  0
  137.3200   68.9070  222.2920 C   0  0  0  0  0  0  0  0  0  0  0  0
  137.0806   67.9628  221.7809 H   0  0  0  0  0  0  0  0  0  0  0  0
  136.3820   68.9210  223.5240 C   0  0  0  0  0  0  0  0  0  0  0  0
  135.3960   68.5516  223.2057 H   0  0  0  0  0  0  0  0  0  0  0  0
  136.8636   68.2867  224.2828 H   0  0  0  0  0  0  0  0  0  0  0  0
  136.1850   70.3040  224.1820 C   0  0  0  0  0  0  0  0  0  0  0  0
  135.1677   70.3464  224.5984 H   0  0  0  0  0  0  0  0  0  0  0  0
  136.9645   70.4022  224.9519 H   0  0  0  0  0  0  0  0  0  0  0  0
  136.3620   71.4890  223.2200 C   0  0  0  0  0  0  0  0  0  0  0  0
  135.6965   72.3066  223.5341 H   0  0  0  0  0  0  0  0  0  0  0  0
  137.4150   71.8055  223.2533 H   0  0  0  0  0  0  0  0  0  0  0  0
  136.0250   71.1000  221.7830 C   0  0  0  0  0  0  0  0  0  0  0  0
  134.9995   70.7036  221.7485 H   0  0  0  0  0  0  0  0  0  0  0  0
  136.1138   71.9935  221.1475 H   0  0  0  0  0  0  0  0  0  0  0  0
  136.9950   70.0300  221.2620 C   0  0  0  0  0  0  0  0  0  0  0  0
  136.5479   69.5630  220.3720 H   0  0  0  0  0  0  0  0  0  0  0  0
  137.9434   70.5426  221.0433 H   0  0  0  0  0  0  0  0  0  0  0  0
  140.2510   73.9670  221.7600 C   0  0  0  0  0  0  0  0  0  0  0  0
  138.9630   74.4490  221.9770 C   0  0  0  0  0  0  0  0  0  0  0  0
  138.0653   73.8349  222.1415 H   0  0  0  0  0  0  0  0  0  0  0  0
  139.0130   76.1270  221.9450 S   0  0  0  0  0  0  0  0  0  0  0  0
  140.6620   76.2700  221.6620 C   0  0  0  0  0  0  0  0  0  0  0  0
  141.2186   77.2126  221.5540 H   0  0  0  0  0  0  0  0  0  0  0  0
  141.2010   74.9940  221.5880 C   0  0  0  0  0  0  0  0  0  0  0  0
  142.2696   74.8016  221.4116 H   0  0  0  0  0  0  0  0  0  0  0  0
  1  2  1  0
  2  3  2  0
  3  4  1  0
  3  5  1  0
  5  6  2  0
  6  7  1  0
  7  8  2  0
  8  9  1  0
  8 10  1  0
 10 11  1  0
 10 12  2  0
 12 13  1  0
 12 14  1  0
 14 15  1  0
 14 16  2  0
 16 17  1  0
 17 18  2  0
 17 19  1  0
 19 20  1  0
 20 21  1  0
 20 22  1  0
 20 23  1  0
 23 24  1  0
 23 25  1  0
 25 26  1  0
 25 27  1  0
 25 28  1  0
 28 29  1  0
 28 30  1  0
 28 31  1  0
 31 32  1  0
 31 33  1  0
 31 34  1  0
 34 35  1  0
 34 36  1  0
 34 37  1  0
 37 38  1  0
 37 39  1  0
  2 40  1  0
 40 41  2  0
 41 42  1  0
 41 43  1  0
 43 44  1  0
 44 45  1  0
 44 46  2  0
 46 47  1  0
 19  5  1  0
 37 23  1  0
 46 40  1  0
 16  7  1  0
M  END
>  <UniqueID>  (73) 
616

>  <SMILES>  (73) 
O=c1c2ccccc2nc(/C=C/c2ccsc2)n1CC1CCCCC1

>  <Energy>  (73) 
95.60265504110782

>  <Genealogy>  (73) 
O=c1c2ccccc2nc(/C=C/c2ccsc2)n1CC1CCCCC1 (cis-trans isomerization)
O=c1c2ccccc2nc(/C=C/c2ccsc2)n1CC1CCCCC1 (3D coordinates assigned)
O=c1c2ccccc2nc(/C=C/c2ccsc2)n1CC1CCCCC1 (nonaromatic ring conformer: 95.60265504110782 kcal/mol)

>  <smiles>  (73) 
O=c1c2ccccc2nc(/C=C/c2ccsc2)n1CC1CCCCC1

>  <score_type>  (73) 
oracle

>  <origin>  (73) 
autodockgpu

>  <m_score__min__energy>  (73) 
-6.8200000000000003

>  <m_primary>  (73) 
energy

>  <meeko>  (73) 
{"free_energy": -6.8, "intermolecular_energy": -8.29, "internal_energy": -1.73, "cluster_size": 16, "cluster_id": 1, "rank_in_cluster": 6}

>  <energy>  (73) 
-6.69

>  <cluster_rmsd>  (73) 
0.24

>  <rmsd>  (73) 
270.99

>  <cluster>  (73) 
1

$$$$
WQFRIXFTBLEVTI-ZHACJKMWNA-N
     RDKit          3D

 47 50  0  0  0  0  0  0  0  0999 V2000
  142.3595   80.6043  219.4354 H   0  0  0  0  0  0  0  0  0  0  0  0
  141.8160   79.9980  220.1750 C   0  0  0  0  0  0  0  0  0  0  0  0
  141.0010   79.0330  219.7250 C   0  0  0  0  0  0  0  0  0  0  0  0
  140.1514   79.3048  219.0813 H   0  0  0  0  0  0  0  0  0  0  0  0
  141.2180   77.6050  220.0750 C   0  0  0  0  0  0  0  0  0  0  0  0
  142.4290   77.0680  219.7650 N   0  0  0  0  0  0  0  0  0  0  0  0
  142.7630   75.8020  220.0950 C   0  0  0  0  0  0  0  0  0  0  0  0
  144.0170   75.2930  219.7390 C   0  0  0  0  0  0  0  0  0  0  0  0
  144.7218   75.9160  219.1688 H   0  0  0  0  0  0  0  0  0  0  0  0
  144.3740   73.9930  220.1080 C   0  0  0  0  0  0  0  0  0  0  0  0
  145.3588   73.5924  219.8258 H   0  0  0  0  0  0  0  0  0  0  0  0
  143.4810   73.2020  220.8350 C   0  0  0  0  0  0  0  0  0  0  0  0
  143.7643   72.1792  221.1242 H   0  0  0  0  0  0  0  0  0  0  0  0
  142.2280   73.7070  221.1960 C   0  0  0  0  0  0  0  0  0  0  0  0
  141.5295   73.0828  221.7725 H   0  0  0  0  0  0  0  0  0  0  0  0
  141.8590   75.0150  220.8220 C   0  0  0  0  0  0  0  0  0  0  0  0
  140.6100   75.5680  221.1490 C   0  0  0  0  0  0  0  0  0  0  0  0
  139.8150   74.8960  221.8650 O   0  0  0  0  0  0  0  0  0  0  0  0
  140.2630   76.8310  220.7120 N   0  0  0  0  0  0  0  0  0  0  0  0
  138.8830   77.3270  220.9590 C   0  0  0  0  0  0  0  0  0  0  0  0
  138.7508   78.2620  220.3948 H   0  0  0  0  0  0  0  0  0  0  0  0
  138.2059   76.5219  220.6374 H   0  0  0  0  0  0  0  0  0  0  0  0
  138.5400   77.6120  222.4540 C   0  0  0  0  0  0  0  0  0  0  0  0
  138.8365   76.6768  222.9514 H   0  0  0  0  0  0  0  0  0  0  0  0
  139.4070   78.7000  223.1360 C   0  0  0  0  0  0  0  0  0  0  0  0
  139.4368   78.4851  224.2144 H   0  0  0  0  0  0  0  0  0  0  0  0
  140.3935   78.6528  222.6517 H   0  0  0  0  0  0  0  0  0  0  0  0
  138.9070   80.1490  222.9510 C   0  0  0  0  0  0  0  0  0  0  0  0
  139.1723   80.7234  223.8508 H   0  0  0  0  0  0  0  0  0  0  0  0
  139.3890   80.5369  222.0415 H   0  0  0  0  0  0  0  0  0  0  0  0
  137.3900   80.2670  222.7330 C   0  0  0  0  0  0  0  0  0  0  0  0
  137.0395   81.2152  223.1667 H   0  0  0  0  0  0  0  0  0  0  0  0
  137.1939   80.2342  221.6511 H   0  0  0  0  0  0  0  0  0  0  0  0
  136.6380   79.1140  223.3900 C   0  0  0  0  0  0  0  0  0  0  0  0
  136.8902   79.0830  224.4603 H   0  0  0  0  0  0  0  0  0  0  0  0
  135.5585   79.2758  223.2539 H   0  0  0  0  0  0  0  0  0  0  0  0
  137.0180   77.7730  222.7450 C   0  0  0  0  0  0  0  0  0  0  0  0
  136.7092   76.9642  223.4236 H   0  0  0  0  0  0  0  0  0  0  0  0
  136.5048   77.7335  221.7729 H   0  0  0  0  0  0  0  0  0  0  0  0
  142.0260   80.2940  221.6090 C   0  0  0  0  0  0  0  0  0  0  0  0
  141.7470   81.5520  222.1360 C   0  0  0  0  0  0  0  0  0  0  0  0
  141.3699   82.4172  221.5710 H   0  0  0  0  0  0  0  0  0  0  0  0
  142.0840   81.5240  223.7810 S   0  0  0  0  0  0  0  0  0  0  0  0
  142.5820   79.9220  223.8530 C   0  0  0  0  0  0  0  0  0  0  0  0
  142.9217   79.3921  224.7551 H   0  0  0  0  0  0  0  0  0  0  0  0
  142.4910   79.3820  222.5780 C   0  0  0  0  0  0  0  0  0  0  0  0
  142.7567   78.3402  222.3454 H   0  0  0  0  0  0  0  0  0  0  0  0
  1  2  1  0
  2  3  2  0
  3  4  1  0
  3  5  1  0
  5  6  2  0
  6  7  1  0
  7  8  2  0
  8  9  1  0
  8 10  1  0
 10 11  1  0
 10 12  2  0
 12 13  1  0
 12 14  1  0
 14 15  1  0
 14 16  2  0
 16 17  1  0
 17 18  2  0
 17 19  1  0
 19 20  1  0
 20 21  1  0
 20 22  1  0
 20 23  1  0
 23 24  1  0
 23 25  1  0
 25 26  1  0
 25 27  1  0
 25 28  1  0
 28 29  1  0
 28 30  1  0
 28 31  1  0
 31 32  1  0
 31 33  1  0
 31 34  1  0
 34 35  1  0
 34 36  1  0
 34 37  1  0
 37 38  1  0
 37 39  1  0
  2 40  1  0
 40 41  2  0
 41 42  1  0
 41 43  1  0
 43 44  1  0
 44 45  1  0
 44 46  2  0
 46 47  1  0
 19  5  1  0
 37 23  1  0
 46 40  1  0
 16  7  1  0
M  END
>  <UniqueID>  (74) 
616

>  <SMILES>  (74) 
O=c1c2ccccc2nc(/C=C/c2ccsc2)n1CC1CCCCC1

>  <Energy>  (74) 
95.60265504110782

>  <Genealogy>  (74) 
O=c1c2ccccc2nc(/C=C/c2ccsc2)n1CC1CCCCC1 (cis-trans isomerization)
O=c1c2ccccc2nc(/C=C/c2ccsc2)n1CC1CCCCC1 (3D coordinates assigned)
O=c1c2ccccc2nc(/C=C/c2ccsc2)n1CC1CCCCC1 (nonaromatic ring conformer: 95.60265504110782 kcal/mol)

>  <smiles>  (74) 
O=c1c2ccccc2nc(/C=C/c2ccsc2)n1CC1CCCCC1

>  <score_type>  (74) 
oracle

>  <origin>  (74) 
autodockgpu

>  <m_score__min__energy>  (74) 
-6.8200000000000003

>  <m_primary>  (74) 
energy

>  <meeko>  (74) 
{"free_energy": -6.23, "intermolecular_energy": -7.72, "internal_energy": -1.81, "cluster_size": 2, "cluster_id": 3, "rank_in_cluster": 2}

>  <energy>  (74) 
-6.67

>  <cluster_rmsd>  (74) 
0.38

>  <rmsd>  (74) 
270.98

>  <cluster>  (74) 
1

$$$$
WQFRIXFTBLEVTI-ZHACJKMWNA-N
     RDKit          3D

 47 50  0  0  0  0  0  0  0  0999 V2000
  137.9813   72.7190  221.9675 H   0  0  0  0  0  0  0  0  0  0  0  0
  139.0660   72.8920  222.0270 C   0  0  0  0  0  0  0  0  0  0  0  0
  139.8670   71.8290  222.1840 C   0  0  0  0  0  0  0  0  0  0  0  0
  140.4941   71.5001  221.3422 H   0  0  0  0  0  0  0  0  0  0  0  0
  139.9280   71.0840  223.4690 C   0  0  0  0  0  0  0  0  0  0  0  0
  140.4590   71.7360  224.5390 N   0  0  0  0  0  0  0  0  0  0  0  0
  140.5050   71.1840  225.7710 C   0  0  0  0  0  0  0  0  0  0  0  0
  141.0750   71.8920  226.8350 C   0  0  0  0  0  0  0  0  0  0  0  0
  141.5080   72.8885  226.6634 H   0  0  0  0  0  0  0  0  0  0  0  0
  141.0940   71.3330  228.1150 C   0  0  0  0  0  0  0  0  0  0  0  0
  141.5459   71.8883  228.9501 H   0  0  0  0  0  0  0  0  0  0  0  0
  140.5400   70.0700  228.3360 C   0  0  0  0  0  0  0  0  0  0  0  0
  140.5550   69.6328  229.3453 H   0  0  0  0  0  0  0  0  0  0  0  0
  139.9660   69.3600  227.2760 C   0  0  0  0  0  0  0  0  0  0  0  0
  139.5267   68.3673  227.4537 H   0  0  0  0  0  0  0  0  0  0  0  0
  139.9500   69.9150  225.9810 C   0  0  0  0  0  0  0  0  0  0  0  0
  139.3950   69.2410  224.8800 C   0  0  0  0  0  0  0  0  0  0  0  0
  138.8270   68.1290  225.0700 O   0  0  0  0  0  0  0  0  0  0  0  0
  139.4520   69.7920  223.6160 N   0  0  0  0  0  0  0  0  0  0  0  0
  138.9800   68.9900  222.4560 C   0  0  0  0  0  0  0  0  0  0  0  0
  139.5348   69.3198  221.5652 H   0  0  0  0  0  0  0  0  0  0  0  0
  139.1591   67.9368  222.7182 H   0  0  0  0  0  0  0  0  0  0  0  0
  137.4550   69.1080  222.1470 C   0  0  0  0  0  0  0  0  0  0  0  0
  137.2730   68.2398  221.4965 H   0  0  0  0  0  0  0  0  0  0  0  0
  136.5150   68.8810  223.3560 C   0  0  0  0  0  0  0  0  0  0  0  0
  135.5529   68.5088  222.9741 H   0  0  0  0  0  0  0  0  0  0  0  0
  137.0312   68.1673  224.0149 H   0  0  0  0  0  0  0  0  0  0  0  0
  136.2360   70.1340  224.2150 C   0  0  0  0  0  0  0  0  0  0  0  0
  135.2173   70.0538  224.6222 H   0  0  0  0  0  0  0  0  0  0  0  0
  137.0066   70.1586  224.9996 H   0  0  0  0  0  0  0  0  0  0  0  0
  136.3450   71.4600  223.4450 C   0  0  0  0  0  0  0  0  0  0  0  0
  135.6322   72.1807  223.8722 H   0  0  0  0  0  0  0  0  0  0  0  0
  137.3776   71.8278  223.5370 H   0  0  0  0  0  0  0  0  0  0  0  0
  136.0340   71.2750  221.9630 C   0  0  0  0  0  0  0  0  0  0  0  0
  135.0337   70.8296  221.8579 H   0  0  0  0  0  0  0  0  0  0  0  0
  136.0709   72.2582  221.4711 H   0  0  0  0  0  0  0  0  0  0  0  0
  137.0670   70.3540  221.2960 C   0  0  0  0  0  0  0  0  0  0  0  0
  136.6502   70.0030  220.3405 H   0  0  0  0  0  0  0  0  0  0  0  0
  137.9842   70.9477  221.1683 H   0  0  0  0  0  0  0  0  0  0  0  0
  139.5560   74.2850  221.9290 C   0  0  0  0  0  0  0  0  0  0  0  0
  138.7410   75.3630  222.2590 C   0  0  0  0  0  0  0  0  0  0  0  0
  137.6971   75.2999  222.6001 H   0  0  0  0  0  0  0  0  0  0  0  0
  139.6220   76.7770  222.0480 S   0  0  0  0  0  0  0  0  0  0  0  0
  141.0470   76.0490  221.5430 C   0  0  0  0  0  0  0  0  0  0  0  0
  141.9755   76.5708  221.2681 H   0  0  0  0  0  0  0  0  0  0  0  0
  140.8520   74.6750  221.5320 C   0  0  0  0  0  0  0  0  0  0  0  0
  141.6340   73.9581  221.2412 H   0  0  0  0  0  0  0  0  0  0  0  0
  1  2  1  0
  2  3  2  0
  3  4  1  0
  3  5  1  0
  5  6  2  0
  6  7  1  0
  7  8  2  0
  8  9  1  0
  8 10  1  0
 10 11  1  0
 10 12  2  0
 12 13  1  0
 12 14  1  0
 14 15  1  0
 14 16  2  0
 16 17  1  0
 17 18  2  0
 17 19  1  0
 19 20  1  0
 20 21  1  0
 20 22  1  0
 20 23  1  0
 23 24  1  0
 23 25  1  0
 25 26  1  0
 25 27  1  0
 25 28  1  0
 28 29  1  0
 28 30  1  0
 28 31  1  0
 31 32  1  0
 31 33  1  0
 31 34  1  0
 34 35  1  0
 34 36  1  0
 34 37  1  0
 37 38  1  0
 37 39  1  0
  2 40  1  0
 40 41  2  0
 41 42  1  0
 41 43  1  0
 43 44  1  0
 44 45  1  0
 44 46  2  0
 46 47  1  0
 19  5  1  0
 37 23  1  0
 46 40  1  0
 16  7  1  0
M  END
>  <UniqueID>  (75) 
616

>  <SMILES>  (75) 
O=c1c2ccccc2nc(/C=C/c2ccsc2)n1CC1CCCCC1

>  <Energy>  (75) 
95.60265504110782

>  <Genealogy>  (75) 
O=c1c2ccccc2nc(/C=C/c2ccsc2)n1CC1CCCCC1 (cis-trans isomerization)
O=c1c2ccccc2nc(/C=C/c2ccsc2)n1CC1CCCCC1 (3D coordinates assigned)
O=c1c2ccccc2nc(/C=C/c2ccsc2)n1CC1CCCCC1 (nonaromatic ring conformer: 95.60265504110782 kcal/mol)

>  <smiles>  (75) 
O=c1c2ccccc2nc(/C=C/c2ccsc2)n1CC1CCCCC1

>  <score_type>  (75) 
oracle

>  <origin>  (75) 
autodockgpu

>  <m_score__min__energy>  (75) 
-6.8200000000000003

>  <m_primary>  (75) 
energy

>  <meeko>  (75) 
{"free_energy": -6.8, "intermolecular_energy": -8.29, "internal_energy": -1.71, "cluster_size": 16, "cluster_id": 1, "rank_in_cluster": 5}

>  <energy>  (75) 
-6.66

>  <cluster_rmsd>  (75) 
0.36

>  <rmsd>  (75) 
270.97

>  <cluster>  (75) 
1

$$$$
WQFRIXFTBLEVTI-ZHACJKMWNA-N
     RDKit          3D

 47 50  0  0  0  0  0  0  0  0999 V2000
  141.6954   72.2149  221.3426 H   0  0  0  0  0  0  0  0  0  0  0  0
  140.6770   72.4340  221.6960 C   0  0  0  0  0  0  0  0  0  0  0  0
  139.8960   71.4040  222.0480 C   0  0  0  0  0  0  0  0  0  0  0  0
  139.1889   70.9910  221.3136 H   0  0  0  0  0  0  0  0  0  0  0  0
  139.9620   70.8060  223.4070 C   0  0  0  0  0  0  0  0  0  0  0  0
  140.5480   71.5490  224.3840 N   0  0  0  0  0  0  0  0  0  0  0  0
  140.6050   71.1380  225.6690 C   0  0  0  0  0  0  0  0  0  0  0  0
  141.2330   71.9350  226.6320 C   0  0  0  0  0  0  0  0  0  0  0  0
  141.7016   72.8859  226.3384 H   0  0  0  0  0  0  0  0  0  0  0  0
  141.2650   71.5230  227.9670 C   0  0  0  0  0  0  0  0  0  0  0  0
  141.7623   72.1481  228.7232 H   0  0  0  0  0  0  0  0  0  0  0  0
  140.6660   70.3180  228.3420 C   0  0  0  0  0  0  0  0  0  0  0  0
  140.6906   69.9968  229.3938 H   0  0  0  0  0  0  0  0  0  0  0  0
  140.0350   69.5190  227.3830 C   0  0  0  0  0  0  0  0  0  0  0  0
  139.5615   68.5723  227.6823 H   0  0  0  0  0  0  0  0  0  0  0  0
  140.0050   69.9250  226.0340 C   0  0  0  0  0  0  0  0  0  0  0  0
  139.3930   69.1580  225.0290 C   0  0  0  0  0  0  0  0  0  0  0  0
  138.7860   68.0990  225.3570 O   0  0  0  0  0  0  0  0  0  0  0  0
  139.4370   69.5600  223.7100 N   0  0  0  0  0  0  0  0  0  0  0  0
  138.9010   68.6540  222.6590 C   0  0  0  0  0  0  0  0  0  0  0  0
  139.5000   68.7971  221.7476 H   0  0  0  0  0  0  0  0  0  0  0  0
  138.9658   67.6356  223.0696 H   0  0  0  0  0  0  0  0  0  0  0  0
  137.4020   68.8810  222.2930 C   0  0  0  0  0  0  0  0  0  0  0  0
  137.1330   67.9414  221.7882 H   0  0  0  0  0  0  0  0  0  0  0  0
  136.4310   68.9590  223.4970 C   0  0  0  0  0  0  0  0  0  0  0  0
  135.4378   68.6323  223.1553 H   0  0  0  0  0  0  0  0  0  0  0  0
  136.8600   68.3143  224.2783 H   0  0  0  0  0  0  0  0  0  0  0  0
  136.2820   70.3600  224.1300 C   0  0  0  0  0  0  0  0  0  0  0  0
  135.2563   70.4575  224.5153 H   0  0  0  0  0  0  0  0  0  0  0  0
  137.0424   70.4325  224.9216 H   0  0  0  0  0  0  0  0  0  0  0  0
  136.5440   71.5200  223.1570 C   0  0  0  0  0  0  0  0  0  0  0  0
  135.9114   72.3740  223.4407 H   0  0  0  0  0  0  0  0  0  0  0  0
  137.6100   71.7849  223.2157 H   0  0  0  0  0  0  0  0  0  0  0  0
  136.2280   71.1260  221.7170 C   0  0  0  0  0  0  0  0  0  0  0  0
  135.1860   70.7783  221.6591 H   0  0  0  0  0  0  0  0  0  0  0  0
  136.3763   72.0044  221.0717 H   0  0  0  0  0  0  0  0  0  0  0  0
  137.1600   70.0030  221.2390 C   0  0  0  0  0  0  0  0  0  0  0  0
  136.7163   69.5445  220.3429 H   0  0  0  0  0  0  0  0  0  0  0  0
  138.1377   70.4667  221.0411 H   0  0  0  0  0  0  0  0  0  0  0  0
  140.2490   73.8500  221.7550 C   0  0  0  0  0  0  0  0  0  0  0  0
  138.9150   74.1940  221.9540 C   0  0  0  0  0  0  0  0  0  0  0  0
  138.0791   73.4887  222.0721 H   0  0  0  0  0  0  0  0  0  0  0  0
  138.7990   75.8680  221.9830 S   0  0  0  0  0  0  0  0  0  0  0  0
  140.4310   76.1840  221.7510 C   0  0  0  0  0  0  0  0  0  0  0  0
  140.8930   77.1806  221.6923 H   0  0  0  0  0  0  0  0  0  0  0  0
  141.0970   74.9710  221.6460 C   0  0  0  0  0  0  0  0  0  0  0  0
  142.1833   74.8917  221.4923 H   0  0  0  0  0  0  0  0  0  0  0  0
  1  2  1  0
  2  3  2  0
  3  4  1  0
  3  5  1  0
  5  6  2  0
  6  7  1  0
  7  8  2  0
  8  9  1  0
  8 10  1  0
 10 11  1  0
 10 12  2  0
 12 13  1  0
 12 14  1  0
 14 15  1  0
 14 16  2  0
 16 17  1  0
 17 18  2  0
 17 19  1  0
 19 20  1  0
 20 21  1  0
 20 22  1  0
 20 23  1  0
 23 24  1  0
 23 25  1  0
 25 26  1  0
 25 27  1  0
 25 28  1  0
 28 29  1  0
 28 30  1  0
 28 31  1  0
 31 32  1  0
 31 33  1  0
 31 34  1  0
 34 35  1  0
 34 36  1  0
 34 37  1  0
 37 38  1  0
 37 39  1  0
  2 40  1  0
 40 41  2  0
 41 42  1  0
 41 43  1  0
 43 44  1  0
 44 45  1  0
 44 46  2  0
 46 47  1  0
 19  5  1  0
 37 23  1  0
 46 40  1  0
 16  7  1  0
M  END
>  <UniqueID>  (76) 
616

>  <SMILES>  (76) 
O=c1c2ccccc2nc(/C=C/c2ccsc2)n1CC1CCCCC1

>  <Energy>  (76) 
95.60265504110782

>  <Genealogy>  (76) 
O=c1c2ccccc2nc(/C=C/c2ccsc2)n1CC1CCCCC1 (cis-trans isomerization)
O=c1c2ccccc2nc(/C=C/c2ccsc2)n1CC1CCCCC1 (3D coordinates assigned)
O=c1c2ccccc2nc(/C=C/c2ccsc2)n1CC1CCCCC1 (nonaromatic ring conformer: 95.60265504110782 kcal/mol)

>  <smiles>  (76) 
O=c1c2ccccc2nc(/C=C/c2ccsc2)n1CC1CCCCC1

>  <score_type>  (76) 
oracle

>  <origin>  (76) 
autodockgpu

>  <m_score__min__energy>  (76) 
-6.8200000000000003

>  <m_primary>  (76) 
energy

>  <meeko>  (76) 
{"free_energy": -6.69, "intermolecular_energy": -8.19, "internal_energy": -1.81, "cluster_size": 16, "cluster_id": 1, "rank_in_cluster": 13}

>  <energy>  (76) 
-6.65

>  <cluster_rmsd>  (76) 
0.37

>  <rmsd>  (76) 
270.96

>  <cluster>  (76) 
1

$$$$
WQFRIXFTBLEVTI-ZHACJKMWNA-N
     RDKit          3D

 47 50  0  0  0  0  0  0  0  0999 V2000
  141.6471   72.7103  221.6501 H   0  0  0  0  0  0  0  0  0  0  0  0
  140.5750   72.7800  221.8860 C   0  0  0  0  0  0  0  0  0  0  0  0
  139.9040   71.6430  222.1180 C   0  0  0  0  0  0  0  0  0  0  0  0
  139.2979   71.2029  221.3124 H   0  0  0  0  0  0  0  0  0  0  0  0
  139.9600   70.9630  223.4390 C   0  0  0  0  0  0  0  0  0  0  0  0
  140.5040   71.6590  224.4720 N   0  0  0  0  0  0  0  0  0  0  0  0
  140.5470   71.1690  225.7300 C   0  0  0  0  0  0  0  0  0  0  0  0
  141.1320   71.9210  226.7550 C   0  0  0  0  0  0  0  0  0  0  0  0
  141.5783   72.9014  226.5322 H   0  0  0  0  0  0  0  0  0  0  0  0
  141.1490   71.4260  228.0620 C   0  0  0  0  0  0  0  0  0  0  0  0
  141.6132   72.0150  228.8668 H   0  0  0  0  0  0  0  0  0  0  0  0
  140.5770   70.1840  228.3470 C   0  0  0  0  0  0  0  0  0  0  0  0
  140.5898   69.7978  229.3769 H   0  0  0  0  0  0  0  0  0  0  0  0
  139.9880   69.4300  227.3270 C   0  0  0  0  0  0  0  0  0  0  0  0
  139.5354   68.4540  227.5562 H   0  0  0  0  0  0  0  0  0  0  0  0
  139.9740   69.9200  226.0050 C   0  0  0  0  0  0  0  0  0  0  0  0
  139.4050   69.2010  224.9410 C   0  0  0  0  0  0  0  0  0  0  0  0
  138.8220   68.1070  225.1890 O   0  0  0  0  0  0  0  0  0  0  0  0
  139.4650   69.6870  223.6510 N   0  0  0  0  0  0  0  0  0  0  0  0
  138.9770   68.8350  222.5340 C   0  0  0  0  0  0  0  0  0  0  0  0
  139.5800   69.0632  221.6427 H   0  0  0  0  0  0  0  0  0  0  0  0
  139.0774   67.7943  222.8758 H   0  0  0  0  0  0  0  0  0  0  0  0
  137.4730   69.0280  222.1630 C   0  0  0  0  0  0  0  0  0  0  0  0
  137.2558   68.1338  221.5603 H   0  0  0  0  0  0  0  0  0  0  0  0
  136.4820   68.9370  223.3500 C   0  0  0  0  0  0  0  0  0  0  0  0
  135.5106   68.6013  222.9579 H   0  0  0  0  0  0  0  0  0  0  0  0
  136.9299   68.2361  224.0698 H   0  0  0  0  0  0  0  0  0  0  0  0
  136.2570   70.2580  224.1190 C   0  0  0  0  0  0  0  0  0  0  0  0
  135.2224   70.2680  224.4926 H   0  0  0  0  0  0  0  0  0  0  0  0
  137.0019   70.2842  224.9280 H   0  0  0  0  0  0  0  0  0  0  0  0
  136.4770   71.5230  223.2740 C   0  0  0  0  0  0  0  0  0  0  0  0
  135.7994   72.3130  223.6300 H   0  0  0  0  0  0  0  0  0  0  0  0
  137.5277   71.8308  223.3807 H   0  0  0  0  0  0  0  0  0  0  0  0
  136.2020   71.2630  221.7950 C   0  0  0  0  0  0  0  0  0  0  0  0
  135.1790   70.8749  221.6819 H   0  0  0  0  0  0  0  0  0  0  0  0
  136.3178   72.2085  221.2449 H   0  0  0  0  0  0  0  0  0  0  0  0
  137.1940   70.2390  221.2240 C   0  0  0  0  0  0  0  0  0  0  0  0
  136.7865   69.8547  220.2773 H   0  0  0  0  0  0  0  0  0  0  0  0
  138.1513   70.7650  221.0937 H   0  0  0  0  0  0  0  0  0  0  0  0
  139.9560   74.1240  221.9290 C   0  0  0  0  0  0  0  0  0  0  0  0
  140.7330   75.2780  221.9180 C   0  0  0  0  0  0  0  0  0  0  0  0
  141.8320   75.3138  221.8882 H   0  0  0  0  0  0  0  0  0  0  0  0
  139.7070   76.6070  221.9580 S   0  0  0  0  0  0  0  0  0  0  0  0
  138.2670   75.7450  221.9830 C   0  0  0  0  0  0  0  0  0  0  0  0
  137.2563   76.1782  222.0118 H   0  0  0  0  0  0  0  0  0  0  0  0
  138.5720   74.3910  221.9610 C   0  0  0  0  0  0  0  0  0  0  0  0
  137.8064   73.6012  221.9679 H   0  0  0  0  0  0  0  0  0  0  0  0
  1  2  1  0
  2  3  2  0
  3  4  1  0
  3  5  1  0
  5  6  2  0
  6  7  1  0
  7  8  2  0
  8  9  1  0
  8 10  1  0
 10 11  1  0
 10 12  2  0
 12 13  1  0
 12 14  1  0
 14 15  1  0
 14 16  2  0
 16 17  1  0
 17 18  2  0
 17 19  1  0
 19 20  1  0
 20 21  1  0
 20 22  1  0
 20 23  1  0
 23 24  1  0
 23 25  1  0
 25 26  1  0
 25 27  1  0
 25 28  1  0
 28 29  1  0
 28 30  1  0
 28 31  1  0
 31 32  1  0
 31 33  1  0
 31 34  1  0
 34 35  1  0
 34 36  1  0
 34 37  1  0
 37 38  1  0
 37 39  1  0
  2 40  1  0
 40 41  2  0
 41 42  1  0
 41 43  1  0
 43 44  1  0
 44 45  1  0
 44 46  2  0
 46 47  1  0
 19  5  1  0
 37 23  1  0
 46 40  1  0
 16  7  1  0
M  END
>  <UniqueID>  (77) 
616

>  <SMILES>  (77) 
O=c1c2ccccc2nc(/C=C/c2ccsc2)n1CC1CCCCC1

>  <Energy>  (77) 
95.60265504110782

>  <Genealogy>  (77) 
O=c1c2ccccc2nc(/C=C/c2ccsc2)n1CC1CCCCC1 (cis-trans isomerization)
O=c1c2ccccc2nc(/C=C/c2ccsc2)n1CC1CCCCC1 (3D coordinates assigned)
O=c1c2ccccc2nc(/C=C/c2ccsc2)n1CC1CCCCC1 (nonaromatic ring conformer: 95.60265504110782 kcal/mol)

>  <smiles>  (77) 
O=c1c2ccccc2nc(/C=C/c2ccsc2)n1CC1CCCCC1

>  <score_type>  (77) 
oracle

>  <origin>  (77) 
autodockgpu

>  <m_score__min__energy>  (77) 
-6.8200000000000003

>  <m_primary>  (77) 
energy

>  <meeko>  (77) 
{"free_energy": -6.67, "intermolecular_energy": -8.17, "internal_energy": -1.82, "cluster_size": 16, "cluster_id": 1, "rank_in_cluster": 14}

>  <energy>  (77) 
-6.64

>  <cluster_rmsd>  (77) 
0.0

>  <rmsd>  (77) 
271.64

>  <cluster>  (77) 
2

$$$$
WQFRIXFTBLEVTI-ZHACJKMWNA-N
     RDKit          3D

 47 50  0  0  0  0  0  0  0  0999 V2000
  141.6823   72.7002  221.6898 H   0  0  0  0  0  0  0  0  0  0  0  0
  140.6060   72.7790  221.9030 C   0  0  0  0  0  0  0  0  0  0  0  0
  139.9220   71.6480  222.1290 C   0  0  0  0  0  0  0  0  0  0  0  0
  139.3092   71.2201  221.3219 H   0  0  0  0  0  0  0  0  0  0  0  0
  139.9730   70.9590  223.4460 C   0  0  0  0  0  0  0  0  0  0  0  0
  140.5150   71.6480  224.4860 N   0  0  0  0  0  0  0  0  0  0  0  0
  140.5530   71.1490  225.7400 C   0  0  0  0  0  0  0  0  0  0  0  0
  141.1350   71.8930  226.7720 C   0  0  0  0  0  0  0  0  0  0  0  0
  141.5833   72.8742  226.5571 H   0  0  0  0  0  0  0  0  0  0  0  0
  141.1470   71.3900  228.0760 C   0  0  0  0  0  0  0  0  0  0  0  0
  141.6085   71.9737  228.8862 H   0  0  0  0  0  0  0  0  0  0  0  0
  140.5730   70.1460  228.3510 C   0  0  0  0  0  0  0  0  0  0  0  0
  140.5813   69.7527  229.3783 H   0  0  0  0  0  0  0  0  0  0  0  0
  139.9880   69.4000  227.3230 C   0  0  0  0  0  0  0  0  0  0  0  0
  139.5341   68.4227  227.5437 H   0  0  0  0  0  0  0  0  0  0  0  0
  139.9790   69.8980  226.0050 C   0  0  0  0  0  0  0  0  0  0  0  0
  139.4130   69.1870  224.9340 C   0  0  0  0  0  0  0  0  0  0  0  0
  138.8280   68.0920  225.1720 O   0  0  0  0  0  0  0  0  0  0  0  0
  139.4770   69.6820  223.6480 N   0  0  0  0  0  0  0  0  0  0  0  0
  138.9920   68.8380  222.5230 C   0  0  0  0  0  0  0  0  0  0  0  0
  139.5948   69.0756  221.6341 H   0  0  0  0  0  0  0  0  0  0  0  0
  139.0952   67.7946  222.8557 H   0  0  0  0  0  0  0  0  0  0  0  0
  137.4880   69.0300  222.1530 C   0  0  0  0  0  0  0  0  0  0  0  0
  137.2755   68.1440  221.5366 H   0  0  0  0  0  0  0  0  0  0  0  0
  136.4960   68.9170  223.3370 C   0  0  0  0  0  0  0  0  0  0  0  0
  135.5269   68.5823  222.9385 H   0  0  0  0  0  0  0  0  0  0  0  0
  136.9470   68.2082  224.0471 H   0  0  0  0  0  0  0  0  0  0  0  0
  136.2630   70.2240  224.1250 C   0  0  0  0  0  0  0  0  0  0  0  0
  135.2275   70.2235  224.4962 H   0  0  0  0  0  0  0  0  0  0  0  0
  137.0056   70.2415  224.9363 H   0  0  0  0  0  0  0  0  0  0  0  0
  136.4790   71.5030  223.2990 C   0  0  0  0  0  0  0  0  0  0  0  0
  135.7973   72.2845  223.6658 H   0  0  0  0  0  0  0  0  0  0  0  0
  137.5283   71.8132  223.4121 H   0  0  0  0  0  0  0  0  0  0  0  0
  136.2080   71.2650  221.8160 C   0  0  0  0  0  0  0  0  0  0  0  0
  135.1867   70.8748  221.6946 H   0  0  0  0  0  0  0  0  0  0  0  0
  136.3210   72.2193  221.2806 H   0  0  0  0  0  0  0  0  0  0  0  0
  137.2050   70.2540  221.2320 C   0  0  0  0  0  0  0  0  0  0  0  0
  136.8007   69.8822  220.2789 H   0  0  0  0  0  0  0  0  0  0  0  0
  138.1602   70.7861  221.1117 H   0  0  0  0  0  0  0  0  0  0  0  0
  139.9960   74.1270  221.9240 C   0  0  0  0  0  0  0  0  0  0  0  0
  138.6160   74.2960  221.9700 C   0  0  0  0  0  0  0  0  0  0  0  0
  137.8691   73.4886  221.9854 H   0  0  0  0  0  0  0  0  0  0  0  0
  138.2840   75.9420  221.9980 S   0  0  0  0  0  0  0  0  0  0  0  0
  139.8790   76.4650  221.9600 C   0  0  0  0  0  0  0  0  0  0  0  0
  140.2144   77.5126  221.9638 H   0  0  0  0  0  0  0  0  0  0  0  0
  140.7010   75.3480  221.9230 C   0  0  0  0  0  0  0  0  0  0  0  0
  141.7990   75.4092  221.8955 H   0  0  0  0  0  0  0  0  0  0  0  0
  1  2  1  0
  2  3  2  0
  3  4  1  0
  3  5  1  0
  5  6  2  0
  6  7  1  0
  7  8  2  0
  8  9  1  0
  8 10  1  0
 10 11  1  0
 10 12  2  0
 12 13  1  0
 12 14  1  0
 14 15  1  0
 14 16  2  0
 16 17  1  0
 17 18  2  0
 17 19  1  0
 19 20  1  0
 20 21  1  0
 20 22  1  0
 20 23  1  0
 23 24  1  0
 23 25  1  0
 25 26  1  0
 25 27  1  0
 25 28  1  0
 28 29  1  0
 28 30  1  0
 28 31  1  0
 31 32  1  0
 31 33  1  0
 31 34  1  0
 34 35  1  0
 34 36  1  0
 34 37  1  0
 37 38  1  0
 37 39  1  0
  2 40  1  0
 40 41  2  0
 41 42  1  0
 41 43  1  0
 43 44  1  0
 44 45  1  0
 44 46  2  0
 46 47  1  0
 19  5  1  0
 37 23  1  0
 46 40  1  0
 16  7  1  0
M  END
>  <UniqueID>  (78) 
616

>  <SMILES>  (78) 
O=c1c2ccccc2nc(/C=C/c2ccsc2)n1CC1CCCCC1

>  <Energy>  (78) 
95.60265504110782

>  <Genealogy>  (78) 
O=c1c2ccccc2nc(/C=C/c2ccsc2)n1CC1CCCCC1 (cis-trans isomerization)
O=c1c2ccccc2nc(/C=C/c2ccsc2)n1CC1CCCCC1 (3D coordinates assigned)
O=c1c2ccccc2nc(/C=C/c2ccsc2)n1CC1CCCCC1 (nonaromatic ring conformer: 95.60265504110782 kcal/mol)

>  <smiles>  (78) 
O=c1c2ccccc2nc(/C=C/c2ccsc2)n1CC1CCCCC1

>  <score_type>  (78) 
oracle

>  <origin>  (78) 
autodockgpu

>  <m_score__min__energy>  (78) 
-6.8200000000000003

>  <m_primary>  (78) 
energy

>  <meeko>  (78) 
{"free_energy": -6.7, "intermolecular_energy": -8.2, "internal_energy": -1.81, "cluster_size": 16, "cluster_id": 1, "rank_in_cluster": 11}

>  <energy>  (78) 
-6.28

>  <cluster_rmsd>  (78) 
0.6

>  <rmsd>  (78) 
271.53

>  <cluster>  (78) 
2

$$$$
WQFRIXFTBLEVTI-ZHACJKMWNA-N
     RDKit          3D

 47 50  0  0  0  0  0  0  0  0999 V2000
  141.7220   72.6718  221.5905 H   0  0  0  0  0  0  0  0  0  0  0  0
  140.6520   72.7260  221.8400 C   0  0  0  0  0  0  0  0  0  0  0  0
  139.9990   71.5790  222.0700 C   0  0  0  0  0  0  0  0  0  0  0  0
  139.4355   71.1083  221.2509 H   0  0  0  0  0  0  0  0  0  0  0  0
  140.0180   70.9270  223.4070 C   0  0  0  0  0  0  0  0  0  0  0  0
  140.5500   71.6400  224.4360 N   0  0  0  0  0  0  0  0  0  0  0  0
  140.5610   71.1770  225.7050 C   0  0  0  0  0  0  0  0  0  0  0  0
  141.1350   71.9440  226.7250 C   0  0  0  0  0  0  0  0  0  0  0  0
  141.5995   72.9129  226.4897 H   0  0  0  0  0  0  0  0  0  0  0  0
  141.1180   71.4790  228.0420 C   0  0  0  0  0  0  0  0  0  0  0  0
  141.5728   72.0804  228.8430 H   0  0  0  0  0  0  0  0  0  0  0  0
  140.5240   70.2510  228.3430 C   0  0  0  0  0  0  0  0  0  0  0  0
  140.5102   69.8881  229.3813 H   0  0  0  0  0  0  0  0  0  0  0  0
  139.9470   69.4820  227.3280 C   0  0  0  0  0  0  0  0  0  0  0  0
  139.4770   68.5171  227.5692 H   0  0  0  0  0  0  0  0  0  0  0  0
  139.9670   69.9420  225.9960 C   0  0  0  0  0  0  0  0  0  0  0  0
  139.4100   69.2060  224.9360 C   0  0  0  0  0  0  0  0  0  0  0  0
  138.8080   68.1260  225.1950 O   0  0  0  0  0  0  0  0  0  0  0  0
  139.5020   69.6630  223.6370 N   0  0  0  0  0  0  0  0  0  0  0  0
  139.0260   68.7920  222.5290 C   0  0  0  0  0  0  0  0  0  0  0  0
  139.6463   68.9966  221.6440 H   0  0  0  0  0  0  0  0  0  0  0  0
  139.1113   67.7577  222.8937 H   0  0  0  0  0  0  0  0  0  0  0  0
  137.5310   68.9900  222.1280 C   0  0  0  0  0  0  0  0  0  0  0  0
  137.3164   68.0873  221.5372 H   0  0  0  0  0  0  0  0  0  0  0  0
  136.5190   68.9280  223.2990 C   0  0  0  0  0  0  0  0  0  0  0  0
  135.5522   68.5919  222.8961 H   0  0  0  0  0  0  0  0  0  0  0  0
  136.9496   68.2376  224.0392 H   0  0  0  0  0  0  0  0  0  0  0  0
  136.2900   70.2640  224.0400 C   0  0  0  0  0  0  0  0  0  0  0  0
  135.2486   70.2886  224.3935 H   0  0  0  0  0  0  0  0  0  0  0  0
  137.0196   70.2990  224.8625 H   0  0  0  0  0  0  0  0  0  0  0  0
  136.5360   71.5120  223.1770 C   0  0  0  0  0  0  0  0  0  0  0  0
  135.8592   72.3138  223.5072 H   0  0  0  0  0  0  0  0  0  0  0  0
  137.5874   71.8123  223.2969 H   0  0  0  0  0  0  0  0  0  0  0  0
  136.2850   71.2290  221.6990 C   0  0  0  0  0  0  0  0  0  0  0  0
  135.2610   70.8471  221.5744 H   0  0  0  0  0  0  0  0  0  0  0  0
  136.4181   72.1639  221.1349 H   0  0  0  0  0  0  0  0  0  0  0  0
  137.2790   70.1870  221.1630 C   0  0  0  0  0  0  0  0  0  0  0  0
  136.8852   69.7897  220.2159 H   0  0  0  0  0  0  0  0  0  0  0  0
  138.2428   70.7029  221.0405 H   0  0  0  0  0  0  0  0  0  0  0  0
  140.0180   74.0610  221.9020 C   0  0  0  0  0  0  0  0  0  0  0  0
  138.6350   74.2030  221.9720 C   0  0  0  0  0  0  0  0  0  0  0  0
  137.9035   73.3815  221.9778 H   0  0  0  0  0  0  0  0  0  0  0  0
  138.2730   75.8400  222.0460 S   0  0  0  0  0  0  0  0  0  0  0  0
  139.8570   76.3950  221.9970 C   0  0  0  0  0  0  0  0  0  0  0  0
  140.1725   77.4485  222.0210 H   0  0  0  0  0  0  0  0  0  0  0  0
  140.6990   75.2950  221.9210 C   0  0  0  0  0  0  0  0  0  0  0  0
  141.7951   75.3780  221.8795 H   0  0  0  0  0  0  0  0  0  0  0  0
  1  2  1  0
  2  3  2  0
  3  4  1  0
  3  5  1  0
  5  6  2  0
  6  7  1  0
  7  8  2  0
  8  9  1  0
  8 10  1  0
 10 11  1  0
 10 12  2  0
 12 13  1  0
 12 14  1  0
 14 15  1  0
 14 16  2  0
 16 17  1  0
 17 18  2  0
 17 19  1  0
 19 20  1  0
 20 21  1  0
 20 22  1  0
 20 23  1  0
 23 24  1  0
 23 25  1  0
 25 26  1  0
 25 27  1  0
 25 28  1  0
 28 29  1  0
 28 30  1  0
 28 31  1  0
 31 32  1  0
 31 33  1  0
 31 34  1  0
 34 35  1  0
 34 36  1  0
 34 37  1  0
 37 38  1  0
 37 39  1  0
  2 40  1  0
 40 41  2  0
 41 42  1  0
 41 43  1  0
 43 44  1  0
 44 45  1  0
 44 46  2  0
 46 47  1  0
 19  5  1  0
 37 23  1  0
 46 40  1  0
 16  7  1  0
M  END
>  <UniqueID>  (79) 
616

>  <SMILES>  (79) 
O=c1c2ccccc2nc(/C=C/c2ccsc2)n1CC1CCCCC1

>  <Energy>  (79) 
95.60265504110782

>  <Genealogy>  (79) 
O=c1c2ccccc2nc(/C=C/c2ccsc2)n1CC1CCCCC1 (cis-trans isomerization)
O=c1c2ccccc2nc(/C=C/c2ccsc2)n1CC1CCCCC1 (3D coordinates assigned)
O=c1c2ccccc2nc(/C=C/c2ccsc2)n1CC1CCCCC1 (nonaromatic ring conformer: 95.60265504110782 kcal/mol)

>  <smiles>  (79) 
O=c1c2ccccc2nc(/C=C/c2ccsc2)n1CC1CCCCC1

>  <score_type>  (79) 
oracle

>  <origin>  (79) 
autodockgpu

>  <m_score__min__energy>  (79) 
-6.8200000000000003

>  <m_primary>  (79) 
energy

>  <meeko>  (79) 
{"free_energy": -6.66, "intermolecular_energy": -8.15, "internal_energy": -1.86, "cluster_size": 16, "cluster_id": 1, "rank_in_cluster": 15}

>  <energy>  (79) 
-6.31

>  <cluster_rmsd>  (79) 
0.0

>  <rmsd>  (79) 
271.52

>  <cluster>  (79) 
3

$$$$
WQFRIXFTBLEVTI-ZHACJKMWNA-N
     RDKit          3D

 47 50  0  0  0  0  0  0  0  0999 V2000
  141.6493   72.2547  221.4066 H   0  0  0  0  0  0  0  0  0  0  0  0
  140.6210   72.4600  221.7390 C   0  0  0  0  0  0  0  0  0  0  0  0
  139.8470   71.4190  222.0760 C   0  0  0  0  0  0  0  0  0  0  0  0
  139.1368   71.0172  221.3383 H   0  0  0  0  0  0  0  0  0  0  0  0
  139.9250   70.7940  223.4230 C   0  0  0  0  0  0  0  0  0  0  0  0
  140.4920   71.5310  224.4160 N   0  0  0  0  0  0  0  0  0  0  0  0
  140.5580   71.0940  225.6910 C   0  0  0  0  0  0  0  0  0  0  0  0
  141.1660   71.8850  226.6730 C   0  0  0  0  0  0  0  0  0  0  0  0
  141.6131   72.8525  226.4008 H   0  0  0  0  0  0  0  0  0  0  0  0
  141.2050   71.4460  227.9980 C   0  0  0  0  0  0  0  0  0  0  0  0
  141.6859   72.0668  228.7683 H   0  0  0  0  0  0  0  0  0  0  0  0
  140.6340   70.2190  228.3470 C   0  0  0  0  0  0  0  0  0  0  0  0
  140.6662   69.8758  229.3916 H   0  0  0  0  0  0  0  0  0  0  0  0
  140.0220   69.4270  227.3710 C   0  0  0  0  0  0  0  0  0  0  0  0
  139.5686   68.4644  227.6499 H   0  0  0  0  0  0  0  0  0  0  0  0
  139.9850   69.8600  226.0300 C   0  0  0  0  0  0  0  0  0  0  0  0
  139.3920   69.1000  225.0090 C   0  0  0  0  0  0  0  0  0  0  0  0
  138.8090   68.0210  225.3130 O   0  0  0  0  0  0  0  0  0  0  0  0
  139.4280   69.5320  223.6980 N   0  0  0  0  0  0  0  0  0  0  0  0
  138.9150   68.6360  222.6280 C   0  0  0  0  0  0  0  0  0  0  0  0
  139.5101   68.8137  221.7201 H   0  0  0  0  0  0  0  0  0  0  0  0
  139.0053   67.6110  223.0168 H   0  0  0  0  0  0  0  0  0  0  0  0
  137.4100   68.8330  222.2660 C   0  0  0  0  0  0  0  0  0  0  0  0
  137.1579   67.8888  221.7611 H   0  0  0  0  0  0  0  0  0  0  0  0
  136.4410   68.8910  223.4740 C   0  0  0  0  0  0  0  0  0  0  0  0
  135.4532   68.5451  223.1353 H   0  0  0  0  0  0  0  0  0  0  0  0
  136.8848   68.2542  224.2534 H   0  0  0  0  0  0  0  0  0  0  0  0
  136.2670   70.2880  224.1080 C   0  0  0  0  0  0  0  0  0  0  0  0
  135.2412   70.3649  224.4975 H   0  0  0  0  0  0  0  0  0  0  0  0
  137.0293   70.3750  224.8963 H   0  0  0  0  0  0  0  0  0  0  0  0
  136.5020   71.4540  223.1350 C   0  0  0  0  0  0  0  0  0  0  0  0
  135.8526   72.2945  223.4210 H   0  0  0  0  0  0  0  0  0  0  0  0
  137.5623   71.7413  223.1908 H   0  0  0  0  0  0  0  0  0  0  0  0
  136.1900   71.0540  221.6960 C   0  0  0  0  0  0  0  0  0  0  0  0
  135.1551   70.6854  221.6412 H   0  0  0  0  0  0  0  0  0  0  0  0
  136.3191   71.9355  221.0508 H   0  0  0  0  0  0  0  0  0  0  0  0
  137.1430   69.9500  221.2140 C   0  0  0  0  0  0  0  0  0  0  0  0
  136.7059   69.4835  220.3189 H   0  0  0  0  0  0  0  0  0  0  0  0
  138.1107   70.4331  221.0134 H   0  0  0  0  0  0  0  0  0  0  0  0
  140.1730   73.8690  221.7880 C   0  0  0  0  0  0  0  0  0  0  0  0
  141.0730   74.9200  221.6380 C   0  0  0  0  0  0  0  0  0  0  0  0
  142.1578   74.8212  221.4851 H   0  0  0  0  0  0  0  0  0  0  0  0
  140.2220   76.3640  221.7300 S   0  0  0  0  0  0  0  0  0  0  0  0
  138.7040   75.6840  221.9550 C   0  0  0  0  0  0  0  0  0  0  0  0
  137.7612   76.2375  222.0767 H   0  0  0  0  0  0  0  0  0  0  0  0
  138.8430   74.3040  221.9610 C   0  0  0  0  0  0  0  0  0  0  0  0
  137.9958   73.6141  222.0887 H   0  0  0  0  0  0  0  0  0  0  0  0
  1  2  1  0
  2  3  2  0
  3  4  1  0
  3  5  1  0
  5  6  2  0
  6  7  1  0
  7  8  2  0
  8  9  1  0
  8 10  1  0
 10 11  1  0
 10 12  2  0
 12 13  1  0
 12 14  1  0
 14 15  1  0
 14 16  2  0
 16 17  1  0
 17 18  2  0
 17 19  1  0
 19 20  1  0
 20 21  1  0
 20 22  1  0
 20 23  1  0
 23 24  1  0
 23 25  1  0
 25 26  1  0
 25 27  1  0
 25 28  1  0
 28 29  1  0
 28 30  1  0
 28 31  1  0
 31 32  1  0
 31 33  1  0
 31 34  1  0
 34 35  1  0
 34 36  1  0
 34 37  1  0
 37 38  1  0
 37 39  1  0
  2 40  1  0
 40 41  2  0
 41 42  1  0
 41 43  1  0
 43 44  1  0
 44 45  1  0
 44 46  2  0
 46 47  1  0
 19  5  1  0
 37 23  1  0
 46 40  1  0
 16  7  1  0
M  END
>  <UniqueID>  (80) 
616

>  <SMILES>  (80) 
O=c1c2ccccc2nc(/C=C/c2ccsc2)n1CC1CCCCC1

>  <Energy>  (80) 
95.60265504110782

>  <Genealogy>  (80) 
O=c1c2ccccc2nc(/C=C/c2ccsc2)n1CC1CCCCC1 (cis-trans isomerization)
O=c1c2ccccc2nc(/C=C/c2ccsc2)n1CC1CCCCC1 (3D coordinates assigned)
O=c1c2ccccc2nc(/C=C/c2ccsc2)n1CC1CCCCC1 (nonaromatic ring conformer: 95.60265504110782 kcal/mol)

>  <smiles>  (80) 
O=c1c2ccccc2nc(/C=C/c2ccsc2)n1CC1CCCCC1

>  <score_type>  (80) 
oracle

>  <origin>  (80) 
autodockgpu

>  <m_score__min__energy>  (80) 
-6.8200000000000003

>  <m_primary>  (80) 
energy

>  <meeko>  (80) 
{"free_energy": -6.7, "intermolecular_energy": -8.19, "internal_energy": -1.79, "cluster_size": 16, "cluster_id": 1, "rank_in_cluster": 12}

>  <energy>  (80) 
-6.23

>  <cluster_rmsd>  (80) 
1.89

>  <rmsd>  (80) 
271.76

>  <cluster>  (80) 
3

$$$$
