ABNVVKAVWJYHCL-CLOONOSVNA-N
     RDKit          3D

 58 63  0  0  0  0  0  0  0  0999 V2000
  139.1070   70.9090  221.3450 O   0  0  0  0  0  0  0  0  0  0  0  0
  139.7600   71.6020  222.1700 C   0  0  0  0  0  0  0  0  0  0  0  0
  139.9110   71.1230  223.5550 C   0  0  0  0  0  0  0  0  0  0  0  0
  139.7070   69.8120  223.9850 C   0  0  0  0  0  0  0  0  0  0  0  0
  139.9890   69.8320  225.3330 C   0  0  0  0  0  0  0  0  0  0  0  0
  139.9560   68.8110  226.2810 C   0  0  0  0  0  0  0  0  0  0  0  0
  140.3060   69.1350  227.6050 C   0  0  0  0  0  0  0  0  0  0  0  0
  140.2860   68.1740  228.5610 F   0  0  0  0  0  0  0  0  0  0  0  0
  140.6760   70.4550  227.9440 C   0  0  0  0  0  0  0  0  0  0  0  0
  140.7010   71.4630  226.9630 C   0  0  0  0  0  0  0  0  0  0  0  0
  140.3490   71.1130  225.6610 C   0  0  0  0  0  0  0  0  0  0  0  0
  140.3110   71.9130  224.5820 N   0  0  0  0  0  0  0  0  0  0  0  0
  140.2950   72.8670  221.7580 N   0  0  0  0  0  0  0  0  0  0  0  0
  139.4980   74.0830  221.6180 C   0  0  0  0  0  0  0  0  0  0  0  0
  140.5100   75.2160  221.2330 C   0  0  2  0  0  0  0  0  0  0  0  0
  140.7140   76.2310  222.3540 C   0  0  0  0  0  0  0  0  0  0  0  0
  140.9840   77.5320  221.6290 C   0  0  0  0  0  0  0  0  0  0  0  0
  140.2260   77.4890  220.3680 N   0  0  0  0  0  0  0  0  0  0  0  0
  140.8500   78.2880  219.2780 C   0  0  2  0  0  0  0  0  0  0  0  0
  142.2360   77.7240  218.8890 C   0  0  0  0  0  0  0  0  0  0  0  0
  142.8670   78.5310  217.7410 C   0  0  0  0  0  0  0  0  0  0  0  0
  142.4410   80.0090  217.7600 C   0  0  0  0  0  0  0  0  0  0  0  0
  142.1690   80.4680  219.1250 N   0  0  0  0  0  0  0  0  0  0  0  0
  141.0060   79.7780  219.7170 C   0  0  0  0  0  0  0  0  0  0  0  0
  140.0700   76.0610  220.0220 C   0  0  0  0  0  0  0  0  0  0  0  0
  141.7790   74.4420  220.9670 C   0  0  0  0  0  0  0  0  0  0  0  0
  142.9970   74.9040  220.4500 C   0  0  0  0  0  0  0  0  0  0  0  0
  144.0400   73.9860  220.2560 C   0  0  0  0  0  0  0  0  0  0  0  0
  143.8540   72.6270  220.5640 C   0  0  0  0  0  0  0  0  0  0  0  0
  142.6260   72.1810  221.0780 C   0  0  0  0  0  0  0  0  0  0  0  0
  141.6100   73.1200  221.2920 C   0  0  0  0  0  0  0  0  0  0  0  0
  139.3900   68.9500  223.3796 H   0  0  0  0  0  0  0  0  0  0  0  0
  139.6662   67.7867  226.0038 H   0  0  0  0  0  0  0  0  0  0  0  0
  140.9465   70.6967  228.9824 H   0  0  0  0  0  0  0  0  0  0  0  0
  140.9891   72.4941  227.2156 H   0  0  0  0  0  0  0  0  0  0  0  0
  140.5400   72.9310  224.5460 H   0  0  0  0  0  0  0  0  0  0  0  0
  138.7442   73.9578  220.8267 H   0  0  0  0  0  0  0  0  0  0  0  0
  138.9576   74.3215  222.5460 H   0  0  0  0  0  0  0  0  0  0  0  0
  139.8112   76.3113  222.9772 H   0  0  0  0  0  0  0  0  0  0  0  0
  141.5308   75.9496  223.0350 H   0  0  0  0  0  0  0  0  0  0  0  0
  140.6495   78.3821  222.2417 H   0  0  0  0  0  0  0  0  0  0  0  0
  142.0596   77.6570  221.4356 H   0  0  0  0  0  0  0  0  0  0  0  0
  140.1868   78.2272  218.4026 H   0  0  0  0  0  0  0  0  0  0  0  0
  142.8996   77.7687  219.7652 H   0  0  0  0  0  0  0  0  0  0  0  0
  142.1054   76.6852  218.5517 H   0  0  0  0  0  0  0  0  0  0  0  0
  143.9619   78.4777  217.8319 H   0  0  0  0  0  0  0  0  0  0  0  0
  142.5196   78.0939  216.7932 H   0  0  0  0  0  0  0  0  0  0  0  0
  143.2487   80.6201  217.3309 H   0  0  0  0  0  0  0  0  0  0  0  0
  141.5188   80.1118  217.1692 H   0  0  0  0  0  0  0  0  0  0  0  0
  143.0150   80.2870  219.7170 H   0  0  0  0  0  0  0  0  0  0  0  0
  141.1100   79.8054  220.8117 H   0  0  0  0  0  0  0  0  0  0  0  0
  140.1105   80.3069  219.3588 H   0  0  0  0  0  0  0  0  0  0  0  0
  139.0171   75.8493  219.7842 H   0  0  0  0  0  0  0  0  0  0  0  0
  140.6873   75.8150  219.1454 H   0  0  0  0  0  0  0  0  0  0  0  0
  143.1327   75.9668  220.2009 H   0  0  0  0  0  0  0  0  0  0  0  0
  145.0071   74.3309  219.8613 H   0  0  0  0  0  0  0  0  0  0  0  0
  144.6731   71.9109  220.4018 H   0  0  0  0  0  0  0  0  0  0  0  0
  142.4657   71.1172  221.3075 H   0  0  0  0  0  0  0  0  0  0  0  0
  1  2  2  0
  2  3  1  0
  3  4  2  0
  4  5  1  0
  5  6  2  0
  6  7  1  0
  7  8  1  0
  7  9  2  0
  9 10  1  0
 10 11  2  0
 11 12  1  0
  2 13  1  0
 13 14  1  0
 15 14  1  1
 15 16  1  0
 16 17  1  0
 17 18  1  0
 18 19  1  0
 19 20  1  0
 20 21  1  0
 21 22  1  0
 22 23  1  0
 23 24  1  0
 18 25  1  0
 15 26  1  0
 26 27  2  0
 27 28  1  0
 28 29  2  0
 29 30  1  0
 30 31  2  0
 12  3  1  0
 31 13  1  0
 11  5  1  0
 25 15  1  0
 31 26  1  0
 24 19  1  0
  4 32  1  0
  6 33  1  0
  9 34  1  0
 10 35  1  0
 12 36  1  0
 14 37  1  0
 14 38  1  0
 16 39  1  0
 16 40  1  0
 17 41  1  0
 17 42  1  0
 19 43  1  6
 20 44  1  0
 20 45  1  0
 21 46  1  0
 21 47  1  0
 22 48  1  0
 22 49  1  0
 23 50  1  0
 24 51  1  0
 24 52  1  0
 25 53  1  0
 25 54  1  0
 27 55  1  0
 28 56  1  0
 29 57  1  0
 30 58  1  0
M  END
>  <UniqueID>  (1) 
22

>  <SMILES>  (1) 
O=C(c1cc2cc(F)ccc2[nH]1)N1C[C@@]2(CCN([C@@H]3CCCNC3)C2)c2ccccc21

>  <Energy>  (1) 
129.44821072843936

>  <Genealogy>  (1) 
O=C(c1cc2cc(F)ccc2[nH]1)N1C[C@@]2(CCN([C@@H]3CCCNC3)C2)c2ccccc21 (chirality)
O=C(c1cc2cc(F)ccc2[nH]1)N1C[C@@]2(CCN([C@@H]3CCCNC3)C2)c2ccccc21 (3D coordinates assigned)
O=C(c1cc2cc(F)ccc2[nH]1)N1C[C@@]2(CCN([C@@H]3CCCNC3)C2)c2ccccc21 (nonaromatic ring conformer: 129.44821072843936 kcal/mol)

>  <smiles>  (1) 
O=C(c1cc2cc(F)ccc2[nH]1)N1C[C@@]2(CCN(C3CCCNC3)C2)c2ccccc21

>  <score_type>  (1) 
oracle

>  <origin>  (1) 
autodockgpu

>  <m_score__min__energy>  (1) 
-8.2799999999999994

>  <m_primary>  (1) 
energy

>  <meeko>  (1) 
{"free_energy": -8.2, "intermolecular_energy": -9.09, "internal_energy": -1.26, "cluster_size": 6, "cluster_id": 3, "rank_in_cluster": 3}

>  <energy>  (1) 
-8.28

>  <cluster_rmsd>  (1) 
0.0

>  <rmsd>  (1) 
272.49

>  <cluster>  (1) 
1

$$$$
ABNVVKAVWJYHCL-CLOONOSVNA-N
     RDKit          3D

 58 63  0  0  0  0  0  0  0  0999 V2000
  139.0370   70.9100  221.3860 O   0  0  0  0  0  0  0  0  0  0  0  0
  139.7140   71.5930  222.2010 C   0  0  0  0  0  0  0  0  0  0  0  0
  139.8810   71.1100  223.5830 C   0  0  0  0  0  0  0  0  0  0  0  0
  139.6760   69.7990  224.0130 C   0  0  0  0  0  0  0  0  0  0  0  0
  139.9760   69.8150  225.3570 C   0  0  0  0  0  0  0  0  0  0  0  0
  139.9500   68.7920  226.3030 C   0  0  0  0  0  0  0  0  0  0  0  0
  140.3200   69.1110  227.6240 C   0  0  0  0  0  0  0  0  0  0  0  0
  140.3080   68.1480  228.5780 F   0  0  0  0  0  0  0  0  0  0  0  0
  140.7030   70.4290  227.9600 C   0  0  0  0  0  0  0  0  0  0  0  0
  140.7210   71.4390  226.9810 C   0  0  0  0  0  0  0  0  0  0  0  0
  140.3480   71.0930  225.6830 C   0  0  0  0  0  0  0  0  0  0  0  0
  140.3000   71.8950  224.6060 N   0  0  0  0  0  0  0  0  0  0  0  0
  140.2610   72.8500  221.7820 N   0  0  0  0  0  0  0  0  0  0  0  0
  139.4730   74.0710  221.6280 C   0  0  0  0  0  0  0  0  0  0  0  0
  140.4960   75.1940  221.2390 C   0  0  2  0  0  0  0  0  0  0  0  0
  140.7030   76.2160  222.3530 C   0  0  0  0  0  0  0  0  0  0  0  0
  140.9860   77.5090  221.6180 C   0  0  0  0  0  0  0  0  0  0  0  0
  140.2330   77.4620  220.3550 N   0  0  0  0  0  0  0  0  0  0  0  0
  140.8680   78.2470  219.2610 C   0  0  2  0  0  0  0  0  0  0  0  0
  142.2540   77.6740  218.8870 C   0  0  0  0  0  0  0  0  0  0  0  0
  142.8950   78.4670  217.7360 C   0  0  0  0  0  0  0  0  0  0  0  0
  142.4760   79.9470  217.7360 C   0  0  0  0  0  0  0  0  0  0  0  0
  142.1960   80.4200  219.0960 N   0  0  0  0  0  0  0  0  0  0  0  0
  141.0260   79.7410  219.6860 C   0  0  0  0  0  0  0  0  0  0  0  0
  140.0670   76.0320  220.0190 C   0  0  0  0  0  0  0  0  0  0  0  0
  141.7600   74.4080  220.9840 C   0  0  0  0  0  0  0  0  0  0  0  0
  142.9840   74.8570  220.4680 C   0  0  0  0  0  0  0  0  0  0  0  0
  144.0200   73.9290  220.2860 C   0  0  0  0  0  0  0  0  0  0  0  0
  143.8220   72.5740  220.6040 C   0  0  0  0  0  0  0  0  0  0  0  0
  142.5900   72.1410  221.1160 C   0  0  0  0  0  0  0  0  0  0  0  0
  141.5800   73.0900  221.3180 C   0  0  0  0  0  0  0  0  0  0  0  0
  139.3466   68.9399  223.4102 H   0  0  0  0  0  0  0  0  0  0  0  0
  139.6506   67.7700  226.0273 H   0  0  0  0  0  0  0  0  0  0  0  0
  140.9893   70.6671  228.9951 H   0  0  0  0  0  0  0  0  0  0  0  0
  141.0195   72.4677  227.2313 H   0  0  0  0  0  0  0  0  0  0  0  0
  140.5350   72.9120  224.5690 H   0  0  0  0  0  0  0  0  0  0  0  0
  138.7225   73.9448  220.8338 H   0  0  0  0  0  0  0  0  0  0  0  0
  138.9294   74.3209  222.5510 H   0  0  0  0  0  0  0  0  0  0  0  0
  139.7982   76.3082  222.9717 H   0  0  0  0  0  0  0  0  0  0  0  0
  141.5144   75.9340  223.0400 H   0  0  0  0  0  0  0  0  0  0  0  0
  140.6559   78.3667  222.2224 H   0  0  0  0  0  0  0  0  0  0  0  0
  142.0633   77.6236  221.4276 H   0  0  0  0  0  0  0  0  0  0  0  0
  140.2111   78.1793  218.3813 H   0  0  0  0  0  0  0  0  0  0  0  0
  142.9120   77.7249  219.7670 H   0  0  0  0  0  0  0  0  0  0  0  0
  142.1218   76.6323  218.5592 H   0  0  0  0  0  0  0  0  0  0  0  0
  143.9891   78.4100  217.8347 H   0  0  0  0  0  0  0  0  0  0  0  0
  142.5507   78.0219  216.7908 H   0  0  0  0  0  0  0  0  0  0  0  0
  143.2898   80.5501  217.3070 H   0  0  0  0  0  0  0  0  0  0  0  0
  141.5594   80.0491  217.1365 H   0  0  0  0  0  0  0  0  0  0  0  0
  143.0370   80.2420  219.6940 H   0  0  0  0  0  0  0  0  0  0  0  0
  141.1215   79.7793  220.7812 H   0  0  0  0  0  0  0  0  0  0  0  0
  140.1353   80.2696  219.3157 H   0  0  0  0  0  0  0  0  0  0  0  0
  139.0134   75.8265  219.7788 H   0  0  0  0  0  0  0  0  0  0  0  0
  140.6851   75.7740  219.1464 H   0  0  0  0  0  0  0  0  0  0  0  0
  143.1290   75.9166  220.2109 H   0  0  0  0  0  0  0  0  0  0  0  0
  144.9915   74.2629  219.8928 H   0  0  0  0  0  0  0  0  0  0  0  0
  144.6364   71.8506  220.4507 H   0  0  0  0  0  0  0  0  0  0  0  0
  142.4210   71.0803  221.3534 H   0  0  0  0  0  0  0  0  0  0  0  0
  1  2  2  0
  2  3  1  0
  3  4  2  0
  4  5  1  0
  5  6  2  0
  6  7  1  0
  7  8  1  0
  7  9  2  0
  9 10  1  0
 10 11  2  0
 11 12  1  0
  2 13  1  0
 13 14  1  0
 15 14  1  1
 15 16  1  0
 16 17  1  0
 17 18  1  0
 18 19  1  0
 19 20  1  0
 20 21  1  0
 21 22  1  0
 22 23  1  0
 23 24  1  0
 18 25  1  0
 15 26  1  0
 26 27  2  0
 27 28  1  0
 28 29  2  0
 29 30  1  0
 30 31  2  0
 12  3  1  0
 31 13  1  0
 11  5  1  0
 25 15  1  0
 31 26  1  0
 24 19  1  0
  4 32  1  0
  6 33  1  0
  9 34  1  0
 10 35  1  0
 12 36  1  0
 14 37  1  0
 14 38  1  0
 16 39  1  0
 16 40  1  0
 17 41  1  0
 17 42  1  0
 19 43  1  6
 20 44  1  0
 20 45  1  0
 21 46  1  0
 21 47  1  0
 22 48  1  0
 22 49  1  0
 23 50  1  0
 24 51  1  0
 24 52  1  0
 25 53  1  0
 25 54  1  0
 27 55  1  0
 28 56  1  0
 29 57  1  0
 30 58  1  0
M  END
>  <UniqueID>  (2) 
22

>  <SMILES>  (2) 
O=C(c1cc2cc(F)ccc2[nH]1)N1C[C@@]2(CCN([C@@H]3CCCNC3)C2)c2ccccc21

>  <Energy>  (2) 
129.44821072843936

>  <Genealogy>  (2) 
O=C(c1cc2cc(F)ccc2[nH]1)N1C[C@@]2(CCN([C@@H]3CCCNC3)C2)c2ccccc21 (chirality)
O=C(c1cc2cc(F)ccc2[nH]1)N1C[C@@]2(CCN([C@@H]3CCCNC3)C2)c2ccccc21 (3D coordinates assigned)
O=C(c1cc2cc(F)ccc2[nH]1)N1C[C@@]2(CCN([C@@H]3CCCNC3)C2)c2ccccc21 (nonaromatic ring conformer: 129.44821072843936 kcal/mol)

>  <smiles>  (2) 
O=C(c1cc2cc(F)ccc2[nH]1)N1C[C@@]2(CCN(C3CCCNC3)C2)c2ccccc21

>  <score_type>  (2) 
oracle

>  <origin>  (2) 
autodockgpu

>  <m_score__min__energy>  (2) 
-8.2799999999999994

>  <m_primary>  (2) 
energy

>  <meeko>  (2) 
{"free_energy": -8.2, "intermolecular_energy": -9.1, "internal_energy": -1.26, "cluster_size": 6, "cluster_id": 3, "rank_in_cluster": 2}

>  <energy>  (2) 
-8.28

>  <cluster_rmsd>  (2) 
0.05

>  <rmsd>  (2) 
272.5

>  <cluster>  (2) 
1

$$$$
ABNVVKAVWJYHCL-CLOONOSVNA-N
     RDKit          3D

 58 63  0  0  0  0  0  0  0  0999 V2000
  139.1530   70.9030  221.1980 O   0  0  0  0  0  0  0  0  0  0  0  0
  139.4540   71.6840  222.1400 C   0  0  0  0  0  0  0  0  0  0  0  0
  139.7130   71.1310  223.4810 C   0  0  0  0  0  0  0  0  0  0  0  0
  139.5940   69.7890  223.8390 C   0  0  0  0  0  0  0  0  0  0  0  0
  139.9610   69.7410  225.1660 C   0  0  0  0  0  0  0  0  0  0  0  0
  140.0330   68.6660  226.0490 C   0  0  0  0  0  0  0  0  0  0  0  0
  140.4530   68.9260  227.3670 C   0  0  0  0  0  0  0  0  0  0  0  0
  140.5360   67.9090  228.2600 F   0  0  0  0  0  0  0  0  0  0  0  0
  140.7880   70.2400  227.7640 C   0  0  0  0  0  0  0  0  0  0  0  0
  140.7070   71.3040  226.8480 C   0  0  0  0  0  0  0  0  0  0  0  0
  140.2870   71.0160  225.5500 C   0  0  0  0  0  0  0  0  0  0  0  0
  140.1450   71.8760  224.5280 N   0  0  0  0  0  0  0  0  0  0  0  0
  139.4820   73.0970  221.9000 N   0  0  0  0  0  0  0  0  0  0  0  0
  140.7070   73.8640  221.6880 C   0  0  0  0  0  0  0  0  0  0  0  0
  140.2460   75.3320  221.3870 C   0  0  2  0  0  0  0  0  0  0  0  0
  140.4850   75.7410  219.9360 C   0  0  0  0  0  0  0  0  0  0  0  0
  140.7680   77.2260  220.0130 C   0  0  0  0  0  0  0  0  0  0  0  0
  141.4320   77.4720  221.3020 N   0  0  0  0  0  0  0  0  0  0  0  0
  141.1830   78.8370  221.8420 C   0  0  2  0  0  0  0  0  0  0  0  0
  142.3760   79.3350  222.6900 C   0  0  0  0  0  0  0  0  0  0  0  0
  142.1300   80.7570  223.2220 C   0  0  0  0  0  0  0  0  0  0  0  0
  140.6380   81.0450  223.4640 C   0  0  0  0  0  0  0  0  0  0  0  0
  139.9120   79.8230  223.8240 N   0  0  0  0  0  0  0  0  0  0  0  0
  139.8890   78.8490  222.7160 C   0  0  0  0  0  0  0  0  0  0  0  0
  140.9860   76.4000  222.2160 C   0  0  0  0  0  0  0  0  0  0  0  0
  138.7690   75.2800  221.6980 C   0  0  0  0  0  0  0  0  0  0  0  0
  137.8450   76.3320  221.7470 C   0  0  0  0  0  0  0  0  0  0  0  0
  136.5160   76.0470  222.0940 C   0  0  0  0  0  0  0  0  0  0  0  0
  136.1300   74.7290  222.3980 C   0  0  0  0  0  0  0  0  0  0  0  0
  137.0700   73.6890  222.3470 C   0  0  0  0  0  0  0  0  0  0  0  0
  138.3830   73.9920  221.9690 C   0  0  0  0  0  0  0  0  0  0  0  0
  139.2763   68.9511  223.2011 H   0  0  0  0  0  0  0  0  0  0  0  0
  139.7703   67.6476  225.7269 H   0  0  0  0  0  0  0  0  0  0  0  0
  141.1144   70.4321  228.7968 H   0  0  0  0  0  0  0  0  0  0  0  0
  140.9667   72.3305  227.1460 H   0  0  0  0  0  0  0  0  0  0  0  0
  140.3280   72.9040  224.5410 H   0  0  0  0  0  0  0  0  0  0  0  0
  141.3362   73.8376  222.5899 H   0  0  0  0  0  0  0  0  0  0  0  0
  141.3055   73.4506  220.8628 H   0  0  0  0  0  0  0  0  0  0  0  0
  141.3456   75.2008  219.5147 H   0  0  0  0  0  0  0  0  0  0  0  0
  139.6296   75.5074  219.2851 H   0  0  0  0  0  0  0  0  0  0  0  0
  141.4265   77.5283  219.1853 H   0  0  0  0  0  0  0  0  0  0  0  0
  139.8374   77.8071  219.9341 H   0  0  0  0  0  0  0  0  0  0  0  0
  141.0561   79.5129  220.9835 H   0  0  0  0  0  0  0  0  0  0  0  0
  142.5190   78.6538  223.5417 H   0  0  0  0  0  0  0  0  0  0  0  0
  143.2714   79.3538  222.0513 H   0  0  0  0  0  0  0  0  0  0  0  0
  142.6712   80.8768  224.1721 H   0  0  0  0  0  0  0  0  0  0  0  0
  142.4883   81.4656  222.4607 H   0  0  0  0  0  0  0  0  0  0  0  0
  140.5417   81.7735  224.2825 H   0  0  0  0  0  0  0  0  0  0  0  0
  140.2060   81.4450  222.5348 H   0  0  0  0  0  0  0  0  0  0  0  0
  140.3770   79.3880  224.6560 H   0  0  0  0  0  0  0  0  0  0  0  0
  139.7530   77.8446  223.1434 H   0  0  0  0  0  0  0  0  0  0  0  0
  139.0641   79.1474  222.0523 H   0  0  0  0  0  0  0  0  0  0  0  0
  141.8576   75.9477  222.7117 H   0  0  0  0  0  0  0  0  0  0  0  0
  140.3167   76.8127  222.9852 H   0  0  0  0  0  0  0  0  0  0  0  0
  138.1558   77.3620  221.5177 H   0  0  0  0  0  0  0  0  0  0  0  0
  135.7729   76.8573  222.1285 H   0  0  0  0  0  0  0  0  0  0  0  0
  135.0880   74.5132  222.6765 H   0  0  0  0  0  0  0  0  0  0  0  0
  136.7814   72.6578  222.5986 H   0  0  0  0  0  0  0  0  0  0  0  0
  1  2  2  0
  2  3  1  0
  3  4  2  0
  4  5  1  0
  5  6  2  0
  6  7  1  0
  7  8  1  0
  7  9  2  0
  9 10  1  0
 10 11  2  0
 11 12  1  0
  2 13  1  0
 13 14  1  0
 15 14  1  6
 15 16  1  0
 16 17  1  0
 17 18  1  0
 18 19  1  0
 19 20  1  0
 20 21  1  0
 21 22  1  0
 22 23  1  0
 23 24  1  0
 18 25  1  0
 15 26  1  0
 26 27  2  0
 27 28  1  0
 28 29  2  0
 29 30  1  0
 30 31  2  0
 12  3  1  0
 31 13  1  0
 11  5  1  0
 25 15  1  0
 31 26  1  0
 24 19  1  0
  4 32  1  0
  6 33  1  0
  9 34  1  0
 10 35  1  0
 12 36  1  0
 14 37  1  0
 14 38  1  0
 16 39  1  0
 16 40  1  0
 17 41  1  0
 17 42  1  0
 19 43  1  6
 20 44  1  0
 20 45  1  0
 21 46  1  0
 21 47  1  0
 22 48  1  0
 22 49  1  0
 23 50  1  0
 24 51  1  0
 24 52  1  0
 25 53  1  0
 25 54  1  0
 27 55  1  0
 28 56  1  0
 29 57  1  0
 30 58  1  0
M  END
>  <UniqueID>  (3) 
22

>  <SMILES>  (3) 
O=C(c1cc2cc(F)ccc2[nH]1)N1C[C@@]2(CCN([C@@H]3CCCNC3)C2)c2ccccc21

>  <Energy>  (3) 
129.44821072843936

>  <Genealogy>  (3) 
O=C(c1cc2cc(F)ccc2[nH]1)N1C[C@@]2(CCN([C@@H]3CCCNC3)C2)c2ccccc21 (chirality)
O=C(c1cc2cc(F)ccc2[nH]1)N1C[C@@]2(CCN([C@@H]3CCCNC3)C2)c2ccccc21 (3D coordinates assigned)
O=C(c1cc2cc(F)ccc2[nH]1)N1C[C@@]2(CCN([C@@H]3CCCNC3)C2)c2ccccc21 (nonaromatic ring conformer: 129.44821072843936 kcal/mol)

>  <smiles>  (3) 
O=C(c1cc2cc(F)ccc2[nH]1)N1C[C@@]2(CCN(C3CCCNC3)C2)c2ccccc21

>  <score_type>  (3) 
oracle

>  <origin>  (3) 
autodockgpu

>  <m_score__min__energy>  (3) 
-8.2799999999999994

>  <m_primary>  (3) 
energy

>  <meeko>  (3) 
{"free_energy": -8.27, "intermolecular_energy": -9.17, "internal_energy": -1.21, "cluster_size": 8, "cluster_id": 1, "rank_in_cluster": 7}

>  <energy>  (3) 
-8.28

>  <cluster_rmsd>  (3) 
0.05

>  <rmsd>  (3) 
272.5

>  <cluster>  (3) 
1

$$$$
ABNVVKAVWJYHCL-CLOONOSVNA-N
     RDKit          3D

 58 63  0  0  0  0  0  0  0  0999 V2000
  139.2460   70.7810  221.2940 O   0  0  0  0  0  0  0  0  0  0  0  0
  139.8410   71.5090  222.1330 C   0  0  0  0  0  0  0  0  0  0  0  0
  139.9580   71.0530  223.5300 C   0  0  0  0  0  0  0  0  0  0  0  0
  139.7300   69.7510  223.9780 C   0  0  0  0  0  0  0  0  0  0  0  0
  139.9850   69.7920  225.3300 C   0  0  0  0  0  0  0  0  0  0  0  0
  139.9210   68.7890  226.2950 C   0  0  0  0  0  0  0  0  0  0  0  0
  140.2490   69.1310  227.6210 C   0  0  0  0  0  0  0  0  0  0  0  0
  140.1990   68.1870  228.5930 F   0  0  0  0  0  0  0  0  0  0  0  0
  140.6300   70.4530  227.9440 C   0  0  0  0  0  0  0  0  0  0  0  0
  140.6870   71.4430  226.9460 C   0  0  0  0  0  0  0  0  0  0  0  0
  140.3560   71.0740  225.6430 C   0  0  0  0  0  0  0  0  0  0  0  0
  140.3490   71.8550  224.5500 N   0  0  0  0  0  0  0  0  0  0  0  0
  140.3410   72.7880  221.7250 N   0  0  0  0  0  0  0  0  0  0  0  0
  139.5180   73.9900  221.6190 C   0  0  0  0  0  0  0  0  0  0  0  0
  140.4990   75.1480  221.2240 C   0  0  2  0  0  0  0  0  0  0  0  0
  140.7100   76.1530  222.3530 C   0  0  0  0  0  0  0  0  0  0  0  0
  140.9370   77.4680  221.6370 C   0  0  0  0  0  0  0  0  0  0  0  0
  140.1500   77.4250  220.3950 N   0  0  0  0  0  0  0  0  0  0  0  0
  140.7330   78.2490  219.3000 C   0  0  2  0  0  0  0  0  0  0  0  0
  142.0720   77.6590  218.8020 C   0  0  0  0  0  0  0  0  0  0  0  0
  142.6580   78.4930  217.6510 C   0  0  0  0  0  0  0  0  0  0  0  0
  142.2840   79.9820  217.7540 C   0  0  0  0  0  0  0  0  0  0  0  0
  142.1120   80.3910  219.1520 N   0  0  0  0  0  0  0  0  0  0  0  0
  140.9650   79.7140  219.7870 C   0  0  0  0  0  0  0  0  0  0  0  0
  140.0140   75.9980  220.0340 C   0  0  0  0  0  0  0  0  0  0  0  0
  141.7760   74.4020  220.9180 C   0  0  0  0  0  0  0  0  0  0  0  0
  142.9720   74.8940  220.3790 C   0  0  0  0  0  0  0  0  0  0  0  0
  144.0270   73.9990  220.1480 C   0  0  0  0  0  0  0  0  0  0  0  0
  143.8740   72.6330  220.4440 C   0  0  0  0  0  0  0  0  0  0  0  0
  142.6690   72.1570  220.9810 C   0  0  0  0  0  0  0  0  0  0  0  0
  141.6400   73.0730  221.2310 C   0  0  0  0  0  0  0  0  0  0  0  0
  139.4154   68.8822  223.3812 H   0  0  0  0  0  0  0  0  0  0  0  0
  139.6240   67.7636  226.0297 H   0  0  0  0  0  0  0  0  0  0  0  0
  140.8838   70.7098  228.9831 H   0  0  0  0  0  0  0  0  0  0  0  0
  140.9831   72.4748  227.1860 H   0  0  0  0  0  0  0  0  0  0  0  0
  140.5920   72.8690  224.5010 H   0  0  0  0  0  0  0  0  0  0  0  0
  138.7481   73.8596  220.8443 H   0  0  0  0  0  0  0  0  0  0  0  0
  138.9958   74.2068  222.5625 H   0  0  0  0  0  0  0  0  0  0  0  0
  139.8210   76.2079  222.9985 H   0  0  0  0  0  0  0  0  0  0  0  0
  141.5479   75.8798  223.0112 H   0  0  0  0  0  0  0  0  0  0  0  0
  140.6011   78.3042  222.2679 H   0  0  0  0  0  0  0  0  0  0  0  0
  142.0050   77.6162  221.4191 H   0  0  0  0  0  0  0  0  0  0  0  0
  140.0158   78.2451  218.4660 H   0  0  0  0  0  0  0  0  0  0  0  0
  142.7894   77.6455  219.6357 H   0  0  0  0  0  0  0  0  0  0  0  0
  141.8854   76.6402  218.4316 H   0  0  0  0  0  0  0  0  0  0  0  0
  143.7540   78.4021  217.6717 H   0  0  0  0  0  0  0  0  0  0  0  0
  142.2384   78.1068  216.7104 H   0  0  0  0  0  0  0  0  0  0  0  0
  143.0840   80.5850  217.2997 H   0  0  0  0  0  0  0  0  0  0  0  0
  141.3319   80.1390  217.2259 H   0  0  0  0  0  0  0  0  0  0  0  0
  142.9860   80.1600  219.6810 H   0  0  0  0  0  0  0  0  0  0  0  0
  141.1359   79.6928  220.8734 H   0  0  0  0  0  0  0  0  0  0  0  0
  140.0676   80.2849  219.5062 H   0  0  0  0  0  0  0  0  0  0  0  0
  138.9602   75.7680  219.8180 H   0  0  0  0  0  0  0  0  0  0  0  0
  140.6148   75.7750  219.1400 H   0  0  0  0  0  0  0  0  0  0  0  0
  143.0816   75.9624  220.1414 H   0  0  0  0  0  0  0  0  0  0  0  0
  144.9773   74.3670  219.7339 H   0  0  0  0  0  0  0  0  0  0  0  0
  144.7026   71.9350  220.2537 H   0  0  0  0  0  0  0  0  0  0  0  0
  142.5353   71.0875  221.2009 H   0  0  0  0  0  0  0  0  0  0  0  0
  1  2  2  0
  2  3  1  0
  3  4  2  0
  4  5  1  0
  5  6  2  0
  6  7  1  0
  7  8  1  0
  7  9  2  0
  9 10  1  0
 10 11  2  0
 11 12  1  0
  2 13  1  0
 13 14  1  0
 15 14  1  1
 15 16  1  0
 16 17  1  0
 17 18  1  0
 18 19  1  0
 19 20  1  0
 20 21  1  0
 21 22  1  0
 22 23  1  0
 23 24  1  0
 18 25  1  0
 15 26  1  0
 26 27  2  0
 27 28  1  0
 28 29  2  0
 29 30  1  0
 30 31  2  0
 12  3  1  0
 31 13  1  0
 11  5  1  0
 25 15  1  0
 31 26  1  0
 24 19  1  0
  4 32  1  0
  6 33  1  0
  9 34  1  0
 10 35  1  0
 12 36  1  0
 14 37  1  0
 14 38  1  0
 16 39  1  0
 16 40  1  0
 17 41  1  0
 17 42  1  0
 19 43  1  6
 20 44  1  0
 20 45  1  0
 21 46  1  0
 21 47  1  0
 22 48  1  0
 22 49  1  0
 23 50  1  0
 24 51  1  0
 24 52  1  0
 25 53  1  0
 25 54  1  0
 27 55  1  0
 28 56  1  0
 29 57  1  0
 30 58  1  0
M  END
>  <UniqueID>  (4) 
22

>  <SMILES>  (4) 
O=C(c1cc2cc(F)ccc2[nH]1)N1C[C@@]2(CCN([C@@H]3CCCNC3)C2)c2ccccc21

>  <Energy>  (4) 
129.44821072843936

>  <Genealogy>  (4) 
O=C(c1cc2cc(F)ccc2[nH]1)N1C[C@@]2(CCN([C@@H]3CCCNC3)C2)c2ccccc21 (chirality)
O=C(c1cc2cc(F)ccc2[nH]1)N1C[C@@]2(CCN([C@@H]3CCCNC3)C2)c2ccccc21 (3D coordinates assigned)
O=C(c1cc2cc(F)ccc2[nH]1)N1C[C@@]2(CCN([C@@H]3CCCNC3)C2)c2ccccc21 (nonaromatic ring conformer: 129.44821072843936 kcal/mol)

>  <smiles>  (4) 
O=C(c1cc2cc(F)ccc2[nH]1)N1C[C@@]2(CCN(C3CCCNC3)C2)c2ccccc21

>  <score_type>  (4) 
oracle

>  <origin>  (4) 
autodockgpu

>  <m_score__min__energy>  (4) 
-8.2799999999999994

>  <m_primary>  (4) 
energy

>  <meeko>  (4) 
{"free_energy": -8.19, "intermolecular_energy": -9.09, "internal_energy": -1.26, "cluster_size": 6, "cluster_id": 3, "rank_in_cluster": 5}

>  <energy>  (4) 
-8.28

>  <cluster_rmsd>  (4) 
0.05

>  <rmsd>  (4) 
272.5

>  <cluster>  (4) 
1

$$$$
ABNVVKAVWJYHCL-CLOONOSVNA-N
     RDKit          3D

 58 63  0  0  0  0  0  0  0  0999 V2000
  139.1660   70.9000  221.1990 O   0  0  0  0  0  0  0  0  0  0  0  0
  139.4620   71.6810  222.1430 C   0  0  0  0  0  0  0  0  0  0  0  0
  139.7120   71.1260  223.4860 C   0  0  0  0  0  0  0  0  0  0  0  0
  139.5760   69.7860  223.8460 C   0  0  0  0  0  0  0  0  0  0  0  0
  139.9390   69.7360  225.1730 C   0  0  0  0  0  0  0  0  0  0  0  0
  139.9950   68.6610  226.0580 C   0  0  0  0  0  0  0  0  0  0  0  0
  140.4160   68.9170  227.3770 C   0  0  0  0  0  0  0  0  0  0  0  0
  140.4850   67.9020  228.2720 F   0  0  0  0  0  0  0  0  0  0  0  0
  140.7660   70.2280  227.7720 C   0  0  0  0  0  0  0  0  0  0  0  0
  140.7000   71.2920  226.8550 C   0  0  0  0  0  0  0  0  0  0  0  0
  140.2790   71.0070  225.5570 C   0  0  0  0  0  0  0  0  0  0  0  0
  140.1500   71.8670  224.5330 N   0  0  0  0  0  0  0  0  0  0  0  0
  139.4960   73.0930  221.9040 N   0  0  0  0  0  0  0  0  0  0  0  0
  140.7240   73.8570  221.6960 C   0  0  0  0  0  0  0  0  0  0  0  0
  140.2680   75.3260  221.3940 C   0  0  2  0  0  0  0  0  0  0  0  0
  140.5120   75.7350  219.9440 C   0  0  0  0  0  0  0  0  0  0  0  0
  140.7990   77.2190  220.0230 C   0  0  0  0  0  0  0  0  0  0  0  0
  141.4610   77.4630  221.3140 N   0  0  0  0  0  0  0  0  0  0  0  0
  141.2140   78.8280  221.8530 C   0  0  2  0  0  0  0  0  0  0  0  0
  142.4060   79.3220  222.7050 C   0  0  0  0  0  0  0  0  0  0  0  0
  142.1630   80.7450  223.2360 C   0  0  0  0  0  0  0  0  0  0  0  0
  140.6720   81.0370  223.4750 C   0  0  0  0  0  0  0  0  0  0  0  0
  139.9420   79.8170  223.8330 N   0  0  0  0  0  0  0  0  0  0  0  0
  139.9190   78.8430  222.7250 C   0  0  0  0  0  0  0  0  0  0  0  0
  141.0080   76.3920  222.2260 C   0  0  0  0  0  0  0  0  0  0  0  0
  138.7900   75.2780  221.7010 C   0  0  0  0  0  0  0  0  0  0  0  0
  137.8690   76.3330  221.7480 C   0  0  0  0  0  0  0  0  0  0  0  0
  136.5380   76.0520  222.0910 C   0  0  0  0  0  0  0  0  0  0  0  0
  136.1470   74.7360  222.3940 C   0  0  0  0  0  0  0  0  0  0  0  0
  137.0840   73.6920  222.3460 C   0  0  0  0  0  0  0  0  0  0  0  0
  138.3990   73.9910  221.9710 C   0  0  0  0  0  0  0  0  0  0  0  0
  139.2498   68.9509  223.2087 H   0  0  0  0  0  0  0  0  0  0  0  0
  139.7193   67.6457  225.7367 H   0  0  0  0  0  0  0  0  0  0  0  0
  141.0927   70.4176  228.8051 H   0  0  0  0  0  0  0  0  0  0  0  0
  140.9717   72.3157  227.1522 H   0  0  0  0  0  0  0  0  0  0  0  0
  140.3460   72.8930  224.5450 H   0  0  0  0  0  0  0  0  0  0  0  0
  141.3503   73.8286  222.5998 H   0  0  0  0  0  0  0  0  0  0  0  0
  141.3239   73.4423  220.8725 H   0  0  0  0  0  0  0  0  0  0  0  0
  141.3722   75.1926  219.5246 H   0  0  0  0  0  0  0  0  0  0  0  0
  139.6578   75.5041  219.2905 H   0  0  0  0  0  0  0  0  0  0  0  0
  141.4601   77.5200  219.1970 H   0  0  0  0  0  0  0  0  0  0  0  0
  139.8699   77.8025  219.9427 H   0  0  0  0  0  0  0  0  0  0  0  0
  141.0905   79.5040  220.9940 H   0  0  0  0  0  0  0  0  0  0  0  0
  142.5439   78.6404  223.5573 H   0  0  0  0  0  0  0  0  0  0  0  0
  143.3036   79.3376  222.0694 H   0  0  0  0  0  0  0  0  0  0  0  0
  142.7027   80.8637  224.1871 H   0  0  0  0  0  0  0  0  0  0  0  0
  142.5247   81.4523  222.4751 H   0  0  0  0  0  0  0  0  0  0  0  0
  140.5761   81.7654  224.2936 H   0  0  0  0  0  0  0  0  0  0  0  0
  140.2430   81.4386  222.5451 H   0  0  0  0  0  0  0  0  0  0  0  0
  140.4040   79.3800  224.6670 H   0  0  0  0  0  0  0  0  0  0  0  0
  139.7802   77.8389  223.1523 H   0  0  0  0  0  0  0  0  0  0  0  0
  139.0959   79.1433  222.0599 H   0  0  0  0  0  0  0  0  0  0  0  0
  141.8762   75.9371  222.7252 H   0  0  0  0  0  0  0  0  0  0  0  0
  140.3367   76.8067  222.9924 H   0  0  0  0  0  0  0  0  0  0  0  0
  138.1837   77.3621  221.5202 H   0  0  0  0  0  0  0  0  0  0  0  0
  135.7973   76.8646  222.1230 H   0  0  0  0  0  0  0  0  0  0  0  0
  135.1034   74.5238  222.6696 H   0  0  0  0  0  0  0  0  0  0  0  0
  136.7914   72.6619  222.5975 H   0  0  0  0  0  0  0  0  0  0  0  0
  1  2  2  0
  2  3  1  0
  3  4  2  0
  4  5  1  0
  5  6  2  0
  6  7  1  0
  7  8  1  0
  7  9  2  0
  9 10  1  0
 10 11  2  0
 11 12  1  0
  2 13  1  0
 13 14  1  0
 15 14  1  6
 15 16  1  0
 16 17  1  0
 17 18  1  0
 18 19  1  0
 19 20  1  0
 20 21  1  0
 21 22  1  0
 22 23  1  0
 23 24  1  0
 18 25  1  0
 15 26  1  0
 26 27  2  0
 27 28  1  0
 28 29  2  0
 29 30  1  0
 30 31  2  0
 12  3  1  0
 31 13  1  0
 11  5  1  0
 25 15  1  0
 31 26  1  0
 24 19  1  0
  4 32  1  0
  6 33  1  0
  9 34  1  0
 10 35  1  0
 12 36  1  0
 14 37  1  0
 14 38  1  0
 16 39  1  0
 16 40  1  0
 17 41  1  0
 17 42  1  0
 19 43  1  6
 20 44  1  0
 20 45  1  0
 21 46  1  0
 21 47  1  0
 22 48  1  0
 22 49  1  0
 23 50  1  0
 24 51  1  0
 24 52  1  0
 25 53  1  0
 25 54  1  0
 27 55  1  0
 28 56  1  0
 29 57  1  0
 30 58  1  0
M  END
>  <UniqueID>  (5) 
22

>  <SMILES>  (5) 
O=C(c1cc2cc(F)ccc2[nH]1)N1C[C@@]2(CCN([C@@H]3CCCNC3)C2)c2ccccc21

>  <Energy>  (5) 
129.44821072843936

>  <Genealogy>  (5) 
O=C(c1cc2cc(F)ccc2[nH]1)N1C[C@@]2(CCN([C@@H]3CCCNC3)C2)c2ccccc21 (chirality)
O=C(c1cc2cc(F)ccc2[nH]1)N1C[C@@]2(CCN([C@@H]3CCCNC3)C2)c2ccccc21 (3D coordinates assigned)
O=C(c1cc2cc(F)ccc2[nH]1)N1C[C@@]2(CCN([C@@H]3CCCNC3)C2)c2ccccc21 (nonaromatic ring conformer: 129.44821072843936 kcal/mol)

>  <smiles>  (5) 
O=C(c1cc2cc(F)ccc2[nH]1)N1C[C@@]2(CCN(C3CCCNC3)C2)c2ccccc21

>  <score_type>  (5) 
oracle

>  <origin>  (5) 
autodockgpu

>  <m_score__min__energy>  (5) 
-8.2799999999999994

>  <m_primary>  (5) 
energy

>  <meeko>  (5) 
{"free_energy": -8.28, "intermolecular_energy": -9.17, "internal_energy": -1.21, "cluster_size": 8, "cluster_id": 1, "rank_in_cluster": 2}

>  <energy>  (5) 
-8.28

>  <cluster_rmsd>  (5) 
0.02

>  <rmsd>  (5) 
272.49

>  <cluster>  (5) 
1

$$$$
ABNVVKAVWJYHCL-CLOONOSVNA-N
     RDKit          3D

 58 63  0  0  0  0  0  0  0  0999 V2000
  142.3700   77.5640  218.2390 O   0  0  0  0  0  0  0  0  0  0  0  0
  142.2140   76.9940  219.3520 C   0  0  0  0  0  0  0  0  0  0  0  0
  141.5360   77.7150  220.4430 C   0  0  0  0  0  0  0  0  0  0  0  0
  140.1550   77.8160  220.6120 C   0  0  0  0  0  0  0  0  0  0  0  0
  139.9910   78.5480  221.7660 C   0  0  0  0  0  0  0  0  0  0  0  0
  138.8320   78.9590  222.4210 C   0  0  0  0  0  0  0  0  0  0  0  0
  138.9770   79.7060  223.6060 C   0  0  0  0  0  0  0  0  0  0  0  0
  137.8770   80.1280  224.2760 F   0  0  0  0  0  0  0  0  0  0  0  0
  140.2640   80.0170  224.1010 C   0  0  0  0  0  0  0  0  0  0  0  0
  141.4150   79.5860  223.4170 C   0  0  0  0  0  0  0  0  0  0  0  0
  141.2390   78.8490  222.2460 C   0  0  0  0  0  0  0  0  0  0  0  0
  142.1940   78.3410  221.4500 N   0  0  0  0  0  0  0  0  0  0  0  0
  142.7480   75.6780  219.5490 N   0  0  0  0  0  0  0  0  0  0  0  0
  143.9220   75.1610  218.8510 C   0  0  0  0  0  0  0  0  0  0  0  0
  144.1760   73.7310  219.4420 C   0  0  2  0  0  0  0  0  0  0  0  0
  145.4350   73.6630  220.3010 C   0  0  0  0  0  0  0  0  0  0  0  0
  145.9440   72.2520  220.0980 C   0  0  0  0  0  0  0  0  0  0  0  0
  145.5760   71.8530  218.7310 N   0  0  0  0  0  0  0  0  0  0  0  0
  145.3740   70.3860  218.5790 C   0  0  2  0  0  0  0  0  0  0  0  0
  143.9890   69.9490  219.1120 C   0  0  0  0  0  0  0  0  0  0  0  0
  143.7690   68.4380  218.9270 C   0  0  0  0  0  0  0  0  0  0  0  0
  145.0820   67.6400  219.0000 C   0  0  0  0  0  0  0  0  0  0  0  0
  146.0570   68.2960  219.8770 N   0  0  0  0  0  0  0  0  0  0  0  0
  146.4880   69.6020  219.3410 C   0  0  0  0  0  0  0  0  0  0  0  0
  144.3780   72.6410  218.3720 C   0  0  0  0  0  0  0  0  0  0  0  0
  142.9390   73.4990  220.2760 C   0  0  0  0  0  0  0  0  0  0  0  0
  142.5330   72.3330  220.9380 C   0  0  0  0  0  0  0  0  0  0  0  0
  141.3150   72.3410  221.6340 C   0  0  0  0  0  0  0  0  0  0  0  0
  140.5150   73.4980  221.6500 C   0  0  0  0  0  0  0  0  0  0  0  0
  140.9360   74.6560  220.9780 C   0  0  0  0  0  0  0  0  0  0  0  0
  142.1690   74.6340  220.3160 C   0  0  0  0  0  0  0  0  0  0  0  0
  139.3686   77.4011  219.9643 H   0  0  0  0  0  0  0  0  0  0  0  0
  137.8366   78.7083  222.0256 H   0  0  0  0  0  0  0  0  0  0  0  0
  140.3661   80.6004  225.0279 H   0  0  0  0  0  0  0  0  0  0  0  0
  142.4212   79.8225  223.7934 H   0  0  0  0  0  0  0  0  0  0  0  0
  143.2270   78.4170  221.5800 H   0  0  0  0  0  0  0  0  0  0  0  0
  143.7286   75.0997  217.7699 H   0  0  0  0  0  0  0  0  0  0  0  0
  144.7950   75.8161  218.9876 H   0  0  0  0  0  0  0  0  0  0  0  0
  146.1790   74.3991  219.9625 H   0  0  0  0  0  0  0  0  0  0  0  0
  145.2378   73.8929  221.3585 H   0  0  0  0  0  0  0  0  0  0  0  0
  147.0371   72.2241  220.2181 H   0  0  0  0  0  0  0  0  0  0  0  0
  145.5049   71.5667  220.8379 H   0  0  0  0  0  0  0  0  0  0  0  0
  145.4267   70.1554  217.5047 H   0  0  0  0  0  0  0  0  0  0  0  0
  143.9245   70.1918  220.1829 H   0  0  0  0  0  0  0  0  0  0  0  0
  143.2141   70.4843  218.5436 H   0  0  0  0  0  0  0  0  0  0  0  0
  143.0938   68.0800  219.7182 H   0  0  0  0  0  0  0  0  0  0  0  0
  143.3375   68.2823  217.9272 H   0  0  0  0  0  0  0  0  0  0  0  0
  144.8686   66.6342  219.3908 H   0  0  0  0  0  0  0  0  0  0  0  0
  145.5095   67.5822  217.9881 H   0  0  0  0  0  0  0  0  0  0  0  0
  145.6210   68.4370  220.8190 H   0  0  0  0  0  0  0  0  0  0  0  0
  146.8315   70.2225  220.1818 H   0  0  0  0  0  0  0  0  0  0  0  0
  147.2822   69.3941  218.6088 H   0  0  0  0  0  0  0  0  0  0  0  0
  144.5224   73.1091  217.3871 H   0  0  0  0  0  0  0  0  0  0  0  0
  143.4946   71.9872  218.3262 H   0  0  0  0  0  0  0  0  0  0  0  0
  143.1577   71.4280  220.9125 H   0  0  0  0  0  0  0  0  0  0  0  0
  140.9842   71.4389  222.1694 H   0  0  0  0  0  0  0  0  0  0  0  0
  139.5570   73.4951  222.1906 H   0  0  0  0  0  0  0  0  0  0  0  0
  140.3107   75.5610  220.9717 H   0  0  0  0  0  0  0  0  0  0  0  0
  1  2  2  0
  2  3  1  0
  3  4  2  0
  4  5  1  0
  5  6  2  0
  6  7  1  0
  7  8  1  0
  7  9  2  0
  9 10  1  0
 10 11  2  0
 11 12  1  0
  2 13  1  0
 13 14  1  0
 15 14  1  6
 15 16  1  0
 16 17  1  0
 17 18  1  0
 18 19  1  0
 19 20  1  0
 20 21  1  0
 21 22  1  0
 22 23  1  0
 23 24  1  0
 18 25  1  0
 15 26  1  0
 26 27  2  0
 27 28  1  0
 28 29  2  0
 29 30  1  0
 30 31  2  0
 12  3  1  0
 31 13  1  0
 11  5  1  0
 25 15  1  0
 31 26  1  0
 24 19  1  0
  4 32  1  0
  6 33  1  0
  9 34  1  0
 10 35  1  0
 12 36  1  0
 14 37  1  0
 14 38  1  0
 16 39  1  0
 16 40  1  0
 17 41  1  0
 17 42  1  0
 19 43  1  6
 20 44  1  0
 20 45  1  0
 21 46  1  0
 21 47  1  0
 22 48  1  0
 22 49  1  0
 23 50  1  0
 24 51  1  0
 24 52  1  0
 25 53  1  0
 25 54  1  0
 27 55  1  0
 28 56  1  0
 29 57  1  0
 30 58  1  0
M  END
>  <UniqueID>  (6) 
22

>  <SMILES>  (6) 
O=C(c1cc2cc(F)ccc2[nH]1)N1C[C@@]2(CCN([C@@H]3CCCNC3)C2)c2ccccc21

>  <Energy>  (6) 
129.44821072843936

>  <Genealogy>  (6) 
O=C(c1cc2cc(F)ccc2[nH]1)N1C[C@@]2(CCN([C@@H]3CCCNC3)C2)c2ccccc21 (chirality)
O=C(c1cc2cc(F)ccc2[nH]1)N1C[C@@]2(CCN([C@@H]3CCCNC3)C2)c2ccccc21 (3D coordinates assigned)
O=C(c1cc2cc(F)ccc2[nH]1)N1C[C@@]2(CCN([C@@H]3CCCNC3)C2)c2ccccc21 (nonaromatic ring conformer: 129.44821072843936 kcal/mol)

>  <smiles>  (6) 
O=C(c1cc2cc(F)ccc2[nH]1)N1C[C@@]2(CCN(C3CCCNC3)C2)c2ccccc21

>  <score_type>  (6) 
oracle

>  <origin>  (6) 
autodockgpu

>  <m_score__min__energy>  (6) 
-8.2799999999999994

>  <m_primary>  (6) 
energy

>  <meeko>  (6) 
{"free_energy": -8.22, "intermolecular_energy": -9.12, "internal_energy": -1.29, "cluster_size": 6, "cluster_id": 2, "rank_in_cluster": 1}

>  <energy>  (6) 
-8.28

>  <cluster_rmsd>  (6) 
0.03

>  <rmsd>  (6) 
272.49

>  <cluster>  (6) 
1

$$$$
ABNVVKAVWJYHCL-CLOONOSVNA-N
     RDKit          3D

 58 63  0  0  0  0  0  0  0  0999 V2000
  139.0850   70.8950  221.3580 O   0  0  0  0  0  0  0  0  0  0  0  0
  139.7450   71.5850  222.1810 C   0  0  0  0  0  0  0  0  0  0  0  0
  139.9000   71.1040  223.5650 C   0  0  0  0  0  0  0  0  0  0  0  0
  139.7070   69.7890  223.9920 C   0  0  0  0  0  0  0  0  0  0  0  0
  139.9900   69.8080  225.3390 C   0  0  0  0  0  0  0  0  0  0  0  0
  139.9650   68.7850  226.2850 C   0  0  0  0  0  0  0  0  0  0  0  0
  140.3130   69.1080  227.6100 C   0  0  0  0  0  0  0  0  0  0  0  0
  140.3020   68.1440  228.5630 F   0  0  0  0  0  0  0  0  0  0  0  0
  140.6740   70.4300  227.9520 C   0  0  0  0  0  0  0  0  0  0  0  0
  140.6910   71.4410  226.9730 C   0  0  0  0  0  0  0  0  0  0  0  0
  140.3400   71.0910  225.6700 C   0  0  0  0  0  0  0  0  0  0  0  0
  140.2950   71.8930  224.5940 N   0  0  0  0  0  0  0  0  0  0  0  0
  140.2840   72.8470  221.7680 N   0  0  0  0  0  0  0  0  0  0  0  0
  139.4890   74.0650  221.6230 C   0  0  0  0  0  0  0  0  0  0  0  0
  140.5050   75.1960  221.2390 C   0  0  2  0  0  0  0  0  0  0  0  0
  140.7080   76.2120  222.3590 C   0  0  0  0  0  0  0  0  0  0  0  0
  140.9820   77.5110  221.6320 C   0  0  0  0  0  0  0  0  0  0  0  0
  140.2270   77.4670  220.3690 N   0  0  0  0  0  0  0  0  0  0  0  0
  140.8560   78.2630  219.2790 C   0  0  2  0  0  0  0  0  0  0  0  0
  142.2510   77.7070  218.9080 C   0  0  0  0  0  0  0  0  0  0  0  0
  142.8860   78.5110  217.7610 C   0  0  0  0  0  0  0  0  0  0  0  0
  142.4480   79.9860  217.7630 C   0  0  0  0  0  0  0  0  0  0  0  0
  142.1580   80.4520  219.1220 N   0  0  0  0  0  0  0  0  0  0  0  0
  140.9950   79.7570  219.7080 C   0  0  0  0  0  0  0  0  0  0  0  0
  140.0700   76.0390  220.0250 C   0  0  0  0  0  0  0  0  0  0  0  0
  141.7730   74.4180  220.9780 C   0  0  0  0  0  0  0  0  0  0  0  0
  142.9930   74.8780  220.4630 C   0  0  0  0  0  0  0  0  0  0  0  0
  144.0350   73.9570  220.2740 C   0  0  0  0  0  0  0  0  0  0  0  0
  143.8450   72.5990  220.5840 C   0  0  0  0  0  0  0  0  0  0  0  0
  142.6160   72.1560  221.0950 C   0  0  0  0  0  0  0  0  0  0  0  0
  141.6010   73.0980  221.3050 C   0  0  0  0  0  0  0  0  0  0  0  0
  139.3965   68.9260  223.3847 H   0  0  0  0  0  0  0  0  0  0  0  0
  139.6827   67.7592  226.0055 H   0  0  0  0  0  0  0  0  0  0  0  0
  140.9437   70.6711  228.9908 H   0  0  0  0  0  0  0  0  0  0  0  0
  140.9720   72.4736  227.2276 H   0  0  0  0  0  0  0  0  0  0  0  0
  140.5170   72.9130  224.5600 H   0  0  0  0  0  0  0  0  0  0  0  0
  138.7376   73.9396  220.8295 H   0  0  0  0  0  0  0  0  0  0  0  0
  138.9459   74.3062  222.5487 H   0  0  0  0  0  0  0  0  0  0  0  0
  139.8038   76.2949  222.9799 H   0  0  0  0  0  0  0  0  0  0  0  0
  141.5223   75.9303  223.0428 H   0  0  0  0  0  0  0  0  0  0  0  0
  140.6475   78.3629  222.2422 H   0  0  0  0  0  0  0  0  0  0  0  0
  142.0583   77.6336  221.4410 H   0  0  0  0  0  0  0  0  0  0  0  0
  140.2025   78.1902  218.3972 H   0  0  0  0  0  0  0  0  0  0  0  0
  142.9055   77.7634  219.7903 H   0  0  0  0  0  0  0  0  0  0  0  0
  142.1326   76.6646  218.5773 H   0  0  0  0  0  0  0  0  0  0  0  0
  143.9804   78.4678  217.8634 H   0  0  0  0  0  0  0  0  0  0  0  0
  142.5507   78.0639  216.8136 H   0  0  0  0  0  0  0  0  0  0  0  0
  143.2553   80.6004  217.3378 H   0  0  0  0  0  0  0  0  0  0  0  0
  141.5320   80.0777  217.1609 H   0  0  0  0  0  0  0  0  0  0  0  0
  142.9990   80.2840  219.7240 H   0  0  0  0  0  0  0  0  0  0  0  0
  141.0879   79.7936  220.8034 H   0  0  0  0  0  0  0  0  0  0  0  0
  140.0986   80.2757  219.3372 H   0  0  0  0  0  0  0  0  0  0  0  0
  139.0175   75.8283  219.7843 H   0  0  0  0  0  0  0  0  0  0  0  0
  140.6894   75.7904  219.1506 H   0  0  0  0  0  0  0  0  0  0  0  0
  143.1309   75.9400  220.2119 H   0  0  0  0  0  0  0  0  0  0  0  0
  145.0041   74.2990  219.8818 H   0  0  0  0  0  0  0  0  0  0  0  0
  144.6632   71.8811  220.4253 H   0  0  0  0  0  0  0  0  0  0  0  0
  142.4531   71.0928  221.3256 H   0  0  0  0  0  0  0  0  0  0  0  0
  1  2  2  0
  2  3  1  0
  3  4  2  0
  4  5  1  0
  5  6  2  0
  6  7  1  0
  7  8  1  0
  7  9  2  0
  9 10  1  0
 10 11  2  0
 11 12  1  0
  2 13  1  0
 13 14  1  0
 15 14  1  1
 15 16  1  0
 16 17  1  0
 17 18  1  0
 18 19  1  0
 19 20  1  0
 20 21  1  0
 21 22  1  0
 22 23  1  0
 23 24  1  0
 18 25  1  0
 15 26  1  0
 26 27  2  0
 27 28  1  0
 28 29  2  0
 29 30  1  0
 30 31  2  0
 12  3  1  0
 31 13  1  0
 11  5  1  0
 25 15  1  0
 31 26  1  0
 24 19  1  0
  4 32  1  0
  6 33  1  0
  9 34  1  0
 10 35  1  0
 12 36  1  0
 14 37  1  0
 14 38  1  0
 16 39  1  0
 16 40  1  0
 17 41  1  0
 17 42  1  0
 19 43  1  6
 20 44  1  0
 20 45  1  0
 21 46  1  0
 21 47  1  0
 22 48  1  0
 22 49  1  0
 23 50  1  0
 24 51  1  0
 24 52  1  0
 25 53  1  0
 25 54  1  0
 27 55  1  0
 28 56  1  0
 29 57  1  0
 30 58  1  0
M  END
>  <UniqueID>  (7) 
22

>  <SMILES>  (7) 
O=C(c1cc2cc(F)ccc2[nH]1)N1C[C@@]2(CCN([C@@H]3CCCNC3)C2)c2ccccc21

>  <Energy>  (7) 
129.44821072843936

>  <Genealogy>  (7) 
O=C(c1cc2cc(F)ccc2[nH]1)N1C[C@@]2(CCN([C@@H]3CCCNC3)C2)c2ccccc21 (chirality)
O=C(c1cc2cc(F)ccc2[nH]1)N1C[C@@]2(CCN([C@@H]3CCCNC3)C2)c2ccccc21 (3D coordinates assigned)
O=C(c1cc2cc(F)ccc2[nH]1)N1C[C@@]2(CCN([C@@H]3CCCNC3)C2)c2ccccc21 (nonaromatic ring conformer: 129.44821072843936 kcal/mol)

>  <smiles>  (7) 
O=C(c1cc2cc(F)ccc2[nH]1)N1C[C@@]2(CCN(C3CCCNC3)C2)c2ccccc21

>  <score_type>  (7) 
oracle

>  <origin>  (7) 
autodockgpu

>  <m_score__min__energy>  (7) 
-8.2799999999999994

>  <m_primary>  (7) 
energy

>  <meeko>  (7) 
{"free_energy": -8.21, "intermolecular_energy": -9.1, "internal_energy": -1.26, "cluster_size": 6, "cluster_id": 3, "rank_in_cluster": 1}

>  <energy>  (7) 
-8.27

>  <cluster_rmsd>  (7) 
0.04

>  <rmsd>  (7) 
272.49

>  <cluster>  (7) 
1

$$$$
ABNVVKAVWJYHCL-CLOONOSVNA-N
     RDKit          3D

 58 63  0  0  0  0  0  0  0  0999 V2000
  141.0420   76.6120  217.8720 O   0  0  0  0  0  0  0  0  0  0  0  0
  141.6750   76.4640  218.9520 C   0  0  0  0  0  0  0  0  0  0  0  0
  141.7410   77.5840  219.9080 C   0  0  0  0  0  0  0  0  0  0  0  0
  141.6980   78.9380  219.5730 C   0  0  0  0  0  0  0  0  0  0  0  0
  141.7600   79.6030  220.7760 C   0  0  0  0  0  0  0  0  0  0  0  0
  141.7550   80.9680  221.0590 C   0  0  0  0  0  0  0  0  0  0  0  0
  141.8250   81.3590  222.4090 C   0  0  0  0  0  0  0  0  0  0  0  0
  141.8250   82.6760  222.7310 F   0  0  0  0  0  0  0  0  0  0  0  0
  141.8970   80.3860  223.4320 C   0  0  0  0  0  0  0  0  0  0  0  0
  141.8990   79.0160  223.1140 C   0  0  0  0  0  0  0  0  0  0  0  0
  141.8290   78.6600  221.7680 C   0  0  0  0  0  0  0  0  0  0  0  0
  141.8130   77.4200  221.2510 N   0  0  0  0  0  0  0  0  0  0  0  0
  142.3620   75.2320  219.2030 N   0  0  0  0  0  0  0  0  0  0  0  0
  143.5570   74.8020  218.4790 C   0  0  0  0  0  0  0  0  0  0  0  0
  143.9970   73.4520  219.1430 C   0  0  2  0  0  0  0  0  0  0  0  0
  145.2920   73.5810  219.9400 C   0  0  0  0  0  0  0  0  0  0  0  0
  145.9480   72.2240  219.7990 C   0  0  0  0  0  0  0  0  0  0  0  0
  145.5690   71.6960  218.4790 N   0  0  0  0  0  0  0  0  0  0  0  0
  145.5280   70.2090  218.4280 C   0  0  2  0  0  0  0  0  0  0  0  0
  144.1540   69.6670  218.8850 C   0  0  0  0  0  0  0  0  0  0  0  0
  144.1030   68.1320  218.8030 C   0  0  0  0  0  0  0  0  0  0  0  0
  145.4780   67.4840  219.0410 C   0  0  0  0  0  0  0  0  0  0  0  0
  146.3030   68.3010  219.9360 N   0  0  0  0  0  0  0  0  0  0  0  0
  146.6460   69.6040  219.3340 C   0  0  0  0  0  0  0  0  0  0  0  0
  144.2750   72.3220  218.1330 C   0  0  0  0  0  0  0  0  0  0  0  0
  142.8310   73.1410  220.0520 C   0  0  0  0  0  0  0  0  0  0  0  0
  142.5900   71.9840  220.8040 C   0  0  0  0  0  0  0  0  0  0  0  0
  141.4100   71.9040  221.5590 C   0  0  0  0  0  0  0  0  0  0  0  0
  140.4860   72.9640  221.5440 C   0  0  0  0  0  0  0  0  0  0  0  0
  140.7420   74.1140  220.7820 C   0  0  0  0  0  0  0  0  0  0  0  0
  141.9400   74.1840  220.0610 C   0  0  0  0  0  0  0  0  0  0  0  0
  141.6295   79.3776  218.5670 H   0  0  0  0  0  0  0  0  0  0  0  0
  141.6982   81.7149  220.2535 H   0  0  0  0  0  0  0  0  0  0  0  0
  141.9518   80.7026  224.4840 H   0  0  0  0  0  0  0  0  0  0  0  0
  141.9540   78.2503  223.9018 H   0  0  0  0  0  0  0  0  0  0  0  0
  141.8500   76.5190  221.7780 H   0  0  0  0  0  0  0  0  0  0  0  0
  143.3252   74.6476  217.4149 H   0  0  0  0  0  0  0  0  0  0  0  0
  144.3550   75.5573  218.5308 H   0  0  0  0  0  0  0  0  0  0  0  0
  145.9326   74.3702  219.5194 H   0  0  0  0  0  0  0  0  0  0  0  0
  145.1162   73.8583  220.9899 H   0  0  0  0  0  0  0  0  0  0  0  0
  147.0414   72.3246  219.8655 H   0  0  0  0  0  0  0  0  0  0  0  0
  145.6212   71.5456  220.6009 H   0  0  0  0  0  0  0  0  0  0  0  0
  145.6944   69.9094  217.3827 H   0  0  0  0  0  0  0  0  0  0  0  0
  143.9749   69.9763  219.9253 H   0  0  0  0  0  0  0  0  0  0  0  0
  143.3804   70.0760  218.2184 H   0  0  0  0  0  0  0  0  0  0  0  0
  143.4014   67.7610  219.5647 H   0  0  0  0  0  0  0  0  0  0  0  0
  143.7771   67.8619  217.7877 H   0  0  0  0  0  0  0  0  0  0  0  0
  145.3333   66.4917  219.4930 H   0  0  0  0  0  0  0  0  0  0  0  0
  145.9943   67.3988  218.0734 H   0  0  0  0  0  0  0  0  0  0  0  0
  145.7760   68.4610  220.8280 H   0  0  0  0  0  0  0  0  0  0  0  0
  146.8524   70.3153  220.1473 H   0  0  0  0  0  0  0  0  0  0  0  0
  147.5171   69.4309  218.6850 H   0  0  0  0  0  0  0  0  0  0  0  0
  144.3230   72.7367  217.1153 H   0  0  0  0  0  0  0  0  0  0  0  0
  143.4701   71.5733  218.1719 H   0  0  0  0  0  0  0  0  0  0  0  0
  143.3120   71.1541  220.8027 H   0  0  0  0  0  0  0  0  0  0  0  0
  141.2069   71.0087  222.1650 H   0  0  0  0  0  0  0  0  0  0  0  0
  139.5591   72.8913  222.1318 H   0  0  0  0  0  0  0  0  0  0  0  0
  140.0180   74.9416  220.7518 H   0  0  0  0  0  0  0  0  0  0  0  0
  1  2  2  0
  2  3  1  0
  3  4  2  0
  4  5  1  0
  5  6  2  0
  6  7  1  0
  7  8  1  0
  7  9  2  0
  9 10  1  0
 10 11  2  0
 11 12  1  0
  2 13  1  0
 13 14  1  0
 15 14  1  6
 15 16  1  0
 16 17  1  0
 17 18  1  0
 18 19  1  0
 19 20  1  0
 20 21  1  0
 21 22  1  0
 22 23  1  0
 23 24  1  0
 18 25  1  0
 15 26  1  0
 26 27  2  0
 27 28  1  0
 28 29  2  0
 29 30  1  0
 30 31  2  0
 12  3  1  0
 31 13  1  0
 11  5  1  0
 25 15  1  0
 31 26  1  0
 24 19  1  0
  4 32  1  0
  6 33  1  0
  9 34  1  0
 10 35  1  0
 12 36  1  0
 14 37  1  0
 14 38  1  0
 16 39  1  0
 16 40  1  0
 17 41  1  0
 17 42  1  0
 19 43  1  6
 20 44  1  0
 20 45  1  0
 21 46  1  0
 21 47  1  0
 22 48  1  0
 22 49  1  0
 23 50  1  0
 24 51  1  0
 24 52  1  0
 25 53  1  0
 25 54  1  0
 27 55  1  0
 28 56  1  0
 29 57  1  0
 30 58  1  0
M  END
>  <UniqueID>  (8) 
22

>  <SMILES>  (8) 
O=C(c1cc2cc(F)ccc2[nH]1)N1C[C@@]2(CCN([C@@H]3CCCNC3)C2)c2ccccc21

>  <Energy>  (8) 
129.44821072843936

>  <Genealogy>  (8) 
O=C(c1cc2cc(F)ccc2[nH]1)N1C[C@@]2(CCN([C@@H]3CCCNC3)C2)c2ccccc21 (chirality)
O=C(c1cc2cc(F)ccc2[nH]1)N1C[C@@]2(CCN([C@@H]3CCCNC3)C2)c2ccccc21 (3D coordinates assigned)
O=C(c1cc2cc(F)ccc2[nH]1)N1C[C@@]2(CCN([C@@H]3CCCNC3)C2)c2ccccc21 (nonaromatic ring conformer: 129.44821072843936 kcal/mol)

>  <smiles>  (8) 
O=C(c1cc2cc(F)ccc2[nH]1)N1C[C@@]2(CCN(C3CCCNC3)C2)c2ccccc21

>  <score_type>  (8) 
oracle

>  <origin>  (8) 
autodockgpu

>  <m_score__min__energy>  (8) 
-8.2799999999999994

>  <m_primary>  (8) 
energy

>  <meeko>  (8) 
{"free_energy": -8.21, "intermolecular_energy": -9.1, "internal_energy": -1.3, "cluster_size": 6, "cluster_id": 2, "rank_in_cluster": 3}

>  <energy>  (8) 
-8.27

>  <cluster_rmsd>  (8) 
0.05

>  <rmsd>  (8) 
272.5

>  <cluster>  (8) 
1

$$$$
ABNVVKAVWJYHCL-CLOONOSVNA-N
     RDKit          3D

 58 63  0  0  0  0  0  0  0  0999 V2000
  139.1890   70.9080  221.1850 O   0  0  0  0  0  0  0  0  0  0  0  0
  139.4800   71.6870  222.1320 C   0  0  0  0  0  0  0  0  0  0  0  0
  139.7250   71.1310  223.4740 C   0  0  0  0  0  0  0  0  0  0  0  0
  139.5870   69.7890  223.8320 C   0  0  0  0  0  0  0  0  0  0  0  0
  139.9460   69.7370  225.1600 C   0  0  0  0  0  0  0  0  0  0  0  0
  139.9990   68.6600  226.0430 C   0  0  0  0  0  0  0  0  0  0  0  0
  140.4150   68.9140  227.3640 C   0  0  0  0  0  0  0  0  0  0  0  0
  140.4810   67.8970  228.2570 F   0  0  0  0  0  0  0  0  0  0  0  0
  140.7650   70.2240  227.7630 C   0  0  0  0  0  0  0  0  0  0  0  0
  140.7020   71.2900  226.8470 C   0  0  0  0  0  0  0  0  0  0  0  0
  140.2850   71.0070  225.5470 C   0  0  0  0  0  0  0  0  0  0  0  0
  140.1600   71.8690  224.5250 N   0  0  0  0  0  0  0  0  0  0  0  0
  139.5100   73.1010  221.8970 N   0  0  0  0  0  0  0  0  0  0  0  0
  140.7370   73.8660  221.6880 C   0  0  0  0  0  0  0  0  0  0  0  0
  140.2790   75.3360  221.3910 C   0  0  2  0  0  0  0  0  0  0  0  0
  140.5210   75.7480  219.9420 C   0  0  0  0  0  0  0  0  0  0  0  0
  140.8060   77.2330  220.0240 C   0  0  0  0  0  0  0  0  0  0  0  0
  141.4690   77.4740  221.3150 N   0  0  0  0  0  0  0  0  0  0  0  0
  141.2210   78.8380  221.8580 C   0  0  2  0  0  0  0  0  0  0  0  0
  142.4170   79.3350  222.7030 C   0  0  0  0  0  0  0  0  0  0  0  0
  142.1720   80.7560  223.2380 C   0  0  0  0  0  0  0  0  0  0  0  0
  140.6810   81.0420  223.4860 C   0  0  0  0  0  0  0  0  0  0  0  0
  139.9570   79.8190  223.8470 N   0  0  0  0  0  0  0  0  0  0  0  0
  139.9310   78.8470  222.7370 C   0  0  0  0  0  0  0  0  0  0  0  0
  141.0190   76.4000  222.2250 C   0  0  0  0  0  0  0  0  0  0  0  0
  138.8020   75.2850  221.7000 C   0  0  0  0  0  0  0  0  0  0  0  0
  137.8790   76.3390  221.7510 C   0  0  0  0  0  0  0  0  0  0  0  0
  136.5490   76.0550  222.0950 C   0  0  0  0  0  0  0  0  0  0  0  0
  136.1600   74.7370  222.3950 C   0  0  0  0  0  0  0  0  0  0  0  0
  137.0990   73.6950  222.3420 C   0  0  0  0  0  0  0  0  0  0  0  0
  138.4130   73.9970  221.9670 C   0  0  0  0  0  0  0  0  0  0  0  0
  139.2623   68.9549  223.1926 H   0  0  0  0  0  0  0  0  0  0  0  0
  139.7249   67.6453  225.7187 H   0  0  0  0  0  0  0  0  0  0  0  0
  141.0890   70.4114  228.7973 H   0  0  0  0  0  0  0  0  0  0  0  0
  140.9728   72.3132  227.1466 H   0  0  0  0  0  0  0  0  0  0  0  0
  140.3550   72.8950  224.5390 H   0  0  0  0  0  0  0  0  0  0  0  0
  141.3656   73.8356  222.5902 H   0  0  0  0  0  0  0  0  0  0  0  0
  141.3352   73.4538  220.8620 H   0  0  0  0  0  0  0  0  0  0  0  0
  141.3816   75.2077  219.5208 H   0  0  0  0  0  0  0  0  0  0  0  0
  139.6667   75.5171  219.2887 H   0  0  0  0  0  0  0  0  0  0  0  0
  141.4659   77.5370  219.1981 H   0  0  0  0  0  0  0  0  0  0  0  0
  139.8763   77.8157  219.9458 H   0  0  0  0  0  0  0  0  0  0  0  0
  141.0903   79.5155  221.0013 H   0  0  0  0  0  0  0  0  0  0  0  0
  142.5631   78.6524  223.5531 H   0  0  0  0  0  0  0  0  0  0  0  0
  143.3104   79.3551  222.0615 H   0  0  0  0  0  0  0  0  0  0  0  0
  142.7167   80.8749  224.1863 H   0  0  0  0  0  0  0  0  0  0  0  0
  142.5269   81.4661  222.4766 H   0  0  0  0  0  0  0  0  0  0  0  0
  140.5871   81.7693  224.3059 H   0  0  0  0  0  0  0  0  0  0  0  0
  140.2453   81.4426  222.5588 H   0  0  0  0  0  0  0  0  0  0  0  0
  140.4250   79.3830  224.6760 H   0  0  0  0  0  0  0  0  0  0  0  0
  139.7978   77.8416  223.1630 H   0  0  0  0  0  0  0  0  0  0  0  0
  139.1033   79.1459  222.0771 H   0  0  0  0  0  0  0  0  0  0  0  0
  141.8886   75.9446  222.7213 H   0  0  0  0  0  0  0  0  0  0  0  0
  140.3488   76.8116  222.9941 H   0  0  0  0  0  0  0  0  0  0  0  0
  138.1918   77.3692  221.5256 H   0  0  0  0  0  0  0  0  0  0  0  0
  135.8072   76.8665  222.1303 H   0  0  0  0  0  0  0  0  0  0  0  0
  135.1173   74.5223  222.6719 H   0  0  0  0  0  0  0  0  0  0  0  0
  136.8083   72.6635  222.5898 H   0  0  0  0  0  0  0  0  0  0  0  0
  1  2  2  0
  2  3  1  0
  3  4  2  0
  4  5  1  0
  5  6  2  0
  6  7  1  0
  7  8  1  0
  7  9  2  0
  9 10  1  0
 10 11  2  0
 11 12  1  0
  2 13  1  0
 13 14  1  0
 15 14  1  6
 15 16  1  0
 16 17  1  0
 17 18  1  0
 18 19  1  0
 19 20  1  0
 20 21  1  0
 21 22  1  0
 22 23  1  0
 23 24  1  0
 18 25  1  0
 15 26  1  0
 26 27  2  0
 27 28  1  0
 28 29  2  0
 29 30  1  0
 30 31  2  0
 12  3  1  0
 31 13  1  0
 11  5  1  0
 25 15  1  0
 31 26  1  0
 24 19  1  0
  4 32  1  0
  6 33  1  0
  9 34  1  0
 10 35  1  0
 12 36  1  0
 14 37  1  0
 14 38  1  0
 16 39  1  0
 16 40  1  0
 17 41  1  0
 17 42  1  0
 19 43  1  6
 20 44  1  0
 20 45  1  0
 21 46  1  0
 21 47  1  0
 22 48  1  0
 22 49  1  0
 23 50  1  0
 24 51  1  0
 24 52  1  0
 25 53  1  0
 25 54  1  0
 27 55  1  0
 28 56  1  0
 29 57  1  0
 30 58  1  0
M  END
>  <UniqueID>  (9) 
22

>  <SMILES>  (9) 
O=C(c1cc2cc(F)ccc2[nH]1)N1C[C@@]2(CCN([C@@H]3CCCNC3)C2)c2ccccc21

>  <Energy>  (9) 
129.44821072843936

>  <Genealogy>  (9) 
O=C(c1cc2cc(F)ccc2[nH]1)N1C[C@@]2(CCN([C@@H]3CCCNC3)C2)c2ccccc21 (chirality)
O=C(c1cc2cc(F)ccc2[nH]1)N1C[C@@]2(CCN([C@@H]3CCCNC3)C2)c2ccccc21 (3D coordinates assigned)
O=C(c1cc2cc(F)ccc2[nH]1)N1C[C@@]2(CCN([C@@H]3CCCNC3)C2)c2ccccc21 (nonaromatic ring conformer: 129.44821072843936 kcal/mol)

>  <smiles>  (9) 
O=C(c1cc2cc(F)ccc2[nH]1)N1C[C@@]2(CCN(C3CCCNC3)C2)c2ccccc21

>  <score_type>  (9) 
oracle

>  <origin>  (9) 
autodockgpu

>  <m_score__min__energy>  (9) 
-8.2799999999999994

>  <m_primary>  (9) 
energy

>  <meeko>  (9) 
{"free_energy": -8.27, "intermolecular_energy": -9.17, "internal_energy": -1.21, "cluster_size": 8, "cluster_id": 1, "rank_in_cluster": 8}

>  <energy>  (9) 
-8.22

>  <cluster_rmsd>  (9) 
0.0

>  <rmsd>  (9) 
271.86

>  <cluster>  (9) 
2

$$$$
ABNVVKAVWJYHCL-CLOONOSVNA-N
     RDKit          3D

 58 63  0  0  0  0  0  0  0  0999 V2000
  141.1820   76.6720  217.9400 O   0  0  0  0  0  0  0  0  0  0  0  0
  141.7690   76.4710  219.0370 C   0  0  0  0  0  0  0  0  0  0  0  0
  141.8100   77.5490  220.0420 C   0  0  0  0  0  0  0  0  0  0  0  0
  141.8080   78.9160  219.7620 C   0  0  0  0  0  0  0  0  0  0  0  0
  141.8250   79.5300  220.9940 C   0  0  0  0  0  0  0  0  0  0  0  0
  141.8330   80.8810  221.3340 C   0  0  0  0  0  0  0  0  0  0  0  0
  141.8460   81.2150  222.7010 C   0  0  0  0  0  0  0  0  0  0  0  0
  141.8550   82.5170  223.0770 F   0  0  0  0  0  0  0  0  0  0  0  0
  141.8500   80.1990  223.6840 C   0  0  0  0  0  0  0  0  0  0  0  0
  141.8400   78.8430  223.3090 C   0  0  0  0  0  0  0  0  0  0  0  0
  141.8290   78.5450  221.9480 C   0  0  0  0  0  0  0  0  0  0  0  0
  141.8140   77.3280  221.3790 N   0  0  0  0  0  0  0  0  0  0  0  0
  142.4300   75.2190  219.2630 N   0  0  0  0  0  0  0  0  0  0  0  0
  143.6400   74.7990  218.5610 C   0  0  0  0  0  0  0  0  0  0  0  0
  144.0400   73.4180  219.1880 C   0  0  2  0  0  0  0  0  0  0  0  0
  145.3100   73.4970  220.0290 C   0  0  0  0  0  0  0  0  0  0  0  0
  145.9510   72.1360  219.8570 C   0  0  0  0  0  0  0  0  0  0  0  0
  145.6070   71.6640  218.5070 N   0  0  0  0  0  0  0  0  0  0  0  0
  145.5460   70.1810  218.3990 C   0  0  2  0  0  0  0  0  0  0  0  0
  144.1470   69.6440  218.7790 C   0  0  0  0  0  0  0  0  0  0  0  0
  144.0770   68.1140  218.6390 C   0  0  0  0  0  0  0  0  0  0  0  0
  145.4320   67.4360  218.9060 C   0  0  0  0  0  0  0  0  0  0  0  0
  146.2310   68.2060  219.8640 N   0  0  0  0  0  0  0  0  0  0  0  0
  146.6180   69.5250  219.3260 C   0  0  0  0  0  0  0  0  0  0  0  0
  144.3340   72.3220  218.1450 C   0  0  0  0  0  0  0  0  0  0  0  0
  142.8410   73.0920  220.0470 C   0  0  0  0  0  0  0  0  0  0  0  0
  142.5600   71.9110  220.7470 C   0  0  0  0  0  0  0  0  0  0  0  0
  141.3550   71.8210  221.4610 C   0  0  0  0  0  0  0  0  0  0  0  0
  140.4470   72.8950  221.4570 C   0  0  0  0  0  0  0  0  0  0  0  0
  140.7440   74.0680  220.7470 C   0  0  0  0  0  0  0  0  0  0  0  0
  141.9660   74.1470  220.0670 C   0  0  0  0  0  0  0  0  0  0  0  0
  141.7956   79.3977  218.7731 H   0  0  0  0  0  0  0  0  0  0  0  0
  141.8293   81.6615  220.5589 H   0  0  0  0  0  0  0  0  0  0  0  0
  141.8610   80.4706  224.7499 H   0  0  0  0  0  0  0  0  0  0  0  0
  141.8408   78.0444  224.0654 H   0  0  0  0  0  0  0  0  0  0  0  0
  141.8090   76.4050  221.8680 H   0  0  0  0  0  0  0  0  0  0  0  0
  143.4396   74.6876  217.4852 H   0  0  0  0  0  0  0  0  0  0  0  0
  144.4464   75.5398  218.6652 H   0  0  0  0  0  0  0  0  0  0  0  0
  145.9748   74.2915  219.6590 H   0  0  0  0  0  0  0  0  0  0  0  0
  145.1048   73.7373  221.0826 H   0  0  0  0  0  0  0  0  0  0  0  0
  147.0430   72.2172  219.9616 H   0  0  0  0  0  0  0  0  0  0  0  0
  145.5891   71.4331  220.6218 H   0  0  0  0  0  0  0  0  0  0  0  0
  145.7501   69.9176  217.3507 H   0  0  0  0  0  0  0  0  0  0  0  0
  143.9292   69.9184  219.8217 H   0  0  0  0  0  0  0  0  0  0  0  0
  143.4080   70.0886  218.0963 H   0  0  0  0  0  0  0  0  0  0  0  0
  143.3408   67.7271  219.3590 H   0  0  0  0  0  0  0  0  0  0  0  0
  143.7872   67.8858  217.6027 H   0  0  0  0  0  0  0  0  0  0  0  0
  145.2554   66.4295  219.3133 H   0  0  0  0  0  0  0  0  0  0  0  0
  145.9857   67.3791  217.9572 H   0  0  0  0  0  0  0  0  0  0  0  0
  145.6710   68.3410  220.7400 H   0  0  0  0  0  0  0  0  0  0  0  0
  146.8015   70.2022  220.1732 H   0  0  0  0  0  0  0  0  0  0  0  0
  147.5126   69.3624  218.7069 H   0  0  0  0  0  0  0  0  0  0  0  0
  144.4201   72.7735  217.1456 H   0  0  0  0  0  0  0  0  0  0  0  0
  143.5178   71.5847  218.1307 H   0  0  0  0  0  0  0  0  0  0  0  0
  143.2700   71.0709  220.7371 H   0  0  0  0  0  0  0  0  0  0  0  0
  141.1199   70.9069  222.0259 H   0  0  0  0  0  0  0  0  0  0  0  0
  139.5009   72.8150  222.0124 H   0  0  0  0  0  0  0  0  0  0  0  0
  140.0330   74.9070  220.7248 H   0  0  0  0  0  0  0  0  0  0  0  0
  1  2  2  0
  2  3  1  0
  3  4  2  0
  4  5  1  0
  5  6  2  0
  6  7  1  0
  7  8  1  0
  7  9  2  0
  9 10  1  0
 10 11  2  0
 11 12  1  0
  2 13  1  0
 13 14  1  0
 15 14  1  6
 15 16  1  0
 16 17  1  0
 17 18  1  0
 18 19  1  0
 19 20  1  0
 20 21  1  0
 21 22  1  0
 22 23  1  0
 23 24  1  0
 18 25  1  0
 15 26  1  0
 26 27  2  0
 27 28  1  0
 28 29  2  0
 29 30  1  0
 30 31  2  0
 12  3  1  0
 31 13  1  0
 11  5  1  0
 25 15  1  0
 31 26  1  0
 24 19  1  0
  4 32  1  0
  6 33  1  0
  9 34  1  0
 10 35  1  0
 12 36  1  0
 14 37  1  0
 14 38  1  0
 16 39  1  0
 16 40  1  0
 17 41  1  0
 17 42  1  0
 19 43  1  6
 20 44  1  0
 20 45  1  0
 21 46  1  0
 21 47  1  0
 22 48  1  0
 22 49  1  0
 23 50  1  0
 24 51  1  0
 24 52  1  0
 25 53  1  0
 25 54  1  0
 27 55  1  0
 28 56  1  0
 29 57  1  0
 30 58  1  0
M  END
>  <UniqueID>  (10) 
22

>  <SMILES>  (10) 
O=C(c1cc2cc(F)ccc2[nH]1)N1C[C@@]2(CCN([C@@H]3CCCNC3)C2)c2ccccc21

>  <Energy>  (10) 
129.44821072843936

>  <Genealogy>  (10) 
O=C(c1cc2cc(F)ccc2[nH]1)N1C[C@@]2(CCN([C@@H]3CCCNC3)C2)c2ccccc21 (chirality)
O=C(c1cc2cc(F)ccc2[nH]1)N1C[C@@]2(CCN([C@@H]3CCCNC3)C2)c2ccccc21 (3D coordinates assigned)
O=C(c1cc2cc(F)ccc2[nH]1)N1C[C@@]2(CCN([C@@H]3CCCNC3)C2)c2ccccc21 (nonaromatic ring conformer: 129.44821072843936 kcal/mol)

>  <smiles>  (10) 
O=C(c1cc2cc(F)ccc2[nH]1)N1C[C@@]2(CCN(C3CCCNC3)C2)c2ccccc21

>  <score_type>  (10) 
oracle

>  <origin>  (10) 
autodockgpu

>  <m_score__min__energy>  (10) 
-8.2799999999999994

>  <m_primary>  (10) 
energy

>  <meeko>  (10) 
{"free_energy": -8.15, "intermolecular_energy": -9.04, "internal_energy": -1.31, "cluster_size": 6, "cluster_id": 2, "rank_in_cluster": 6}

>  <energy>  (10) 
-8.22

>  <cluster_rmsd>  (10) 
0.06

>  <rmsd>  (10) 
271.82

>  <cluster>  (10) 
2

$$$$
ABNVVKAVWJYHCL-CLOONOSVNA-N
     RDKit          3D

 58 63  0  0  0  0  0  0  0  0999 V2000
  141.2040   76.6850  218.0410 O   0  0  0  0  0  0  0  0  0  0  0  0
  141.7720   76.4570  219.1420 C   0  0  0  0  0  0  0  0  0  0  0  0
  141.7970   77.5100  220.1730 C   0  0  0  0  0  0  0  0  0  0  0  0
  141.8160   78.8830  219.9270 C   0  0  0  0  0  0  0  0  0  0  0  0
  141.8050   79.4670  221.1740 C   0  0  0  0  0  0  0  0  0  0  0  0
  141.8170   80.8100  221.5460 C   0  0  0  0  0  0  0  0  0  0  0  0
  141.7960   81.1110  222.9210 C   0  0  0  0  0  0  0  0  0  0  0  0
  141.8070   82.4040  223.3280 F   0  0  0  0  0  0  0  0  0  0  0  0
  141.7640   80.0720  223.8780 C   0  0  0  0  0  0  0  0  0  0  0  0
  141.7520   78.7260  223.4700 C   0  0  0  0  0  0  0  0  0  0  0  0
  141.7740   78.4600  222.1020 C   0  0  0  0  0  0  0  0  0  0  0  0
  141.7630   77.2570  221.5040 N   0  0  0  0  0  0  0  0  0  0  0  0
  142.4300   75.2010  219.3480 N   0  0  0  0  0  0  0  0  0  0  0  0
  143.6040   74.7620  218.5960 C   0  0  0  0  0  0  0  0  0  0  0  0
  144.0170   73.3820  219.2150 C   0  0  2  0  0  0  0  0  0  0  0  0
  145.3250   73.4540  219.9980 C   0  0  0  0  0  0  0  0  0  0  0  0
  145.9440   72.0850  219.8080 C   0  0  0  0  0  0  0  0  0  0  0  0
  145.5340   71.6070  218.4790 N   0  0  0  0  0  0  0  0  0  0  0  0
  145.4540   70.1230  218.3860 C   0  0  2  0  0  0  0  0  0  0  0  0
  144.0360   69.6120  218.7330 C   0  0  0  0  0  0  0  0  0  0  0  0
  143.9470   68.0820  218.6070 C   0  0  0  0  0  0  0  0  0  0  0  0
  145.2830   67.3870  218.9190 C   0  0  0  0  0  0  0  0  0  0  0  0
  146.0680   68.1550  219.8910 N   0  0  0  0  0  0  0  0  0  0  0  0
  146.4890   69.4620  219.3490 C   0  0  0  0  0  0  0  0  0  0  0  0
  144.2530   72.2750  218.1690 C   0  0  0  0  0  0  0  0  0  0  0  0
  142.8550   73.0750  220.1290 C   0  0  0  0  0  0  0  0  0  0  0  0
  142.5930   71.9020  220.8510 C   0  0  0  0  0  0  0  0  0  0  0  0
  141.4210   71.8300  221.6190 C   0  0  0  0  0  0  0  0  0  0  0  0
  140.5250   72.9140  221.6470 C   0  0  0  0  0  0  0  0  0  0  0  0
  140.8020   74.0790  220.9150 C   0  0  0  0  0  0  0  0  0  0  0  0
  141.9920   74.1390  220.1800 C   0  0  0  0  0  0  0  0  0  0  0  0
  141.8355   79.3887  218.9503 H   0  0  0  0  0  0  0  0  0  0  0  0
  141.8421   81.6086  220.7900 H   0  0  0  0  0  0  0  0  0  0  0  0
  141.7484   80.3176  224.9501 H   0  0  0  0  0  0  0  0  0  0  0  0
  141.7261   77.9096  224.2068 H   0  0  0  0  0  0  0  0  0  0  0  0
  141.7360   76.3230  221.9700 H   0  0  0  0  0  0  0  0  0  0  0  0
  143.3548   74.6448  217.5310 H   0  0  0  0  0  0  0  0  0  0  0  0
  144.4220   75.4947  218.6588 H   0  0  0  0  0  0  0  0  0  0  0  0
  145.9804   74.2388  219.5924 H   0  0  0  0  0  0  0  0  0  0  0  0
  145.1698   73.7041  221.0579 H   0  0  0  0  0  0  0  0  0  0  0  0
  147.0404   72.1556  219.8621 H   0  0  0  0  0  0  0  0  0  0  0  0
  145.6106   71.3915  220.5941 H   0  0  0  0  0  0  0  0  0  0  0  0
  145.6837   69.8441  217.3471 H   0  0  0  0  0  0  0  0  0  0  0  0
  143.7939   69.9011  219.7663 H   0  0  0  0  0  0  0  0  0  0  0  0
  143.3226   70.0606  218.0260 H   0  0  0  0  0  0  0  0  0  0  0  0
  143.1852   67.7138  219.3099 H   0  0  0  0  0  0  0  0  0  0  0  0
  143.6832   67.8471  217.5653 H   0  0  0  0  0  0  0  0  0  0  0  0
  145.0795   66.3879  219.3319 H   0  0  0  0  0  0  0  0  0  0  0  0
  145.8618   67.3118  217.9866 H   0  0  0  0  0  0  0  0  0  0  0  0
  145.4860   68.3090  220.7480 H   0  0  0  0  0  0  0  0  0  0  0  0
  146.6593   70.1461  220.1934 H   0  0  0  0  0  0  0  0  0  0  0  0
  147.3974   69.2787  218.7564 H   0  0  0  0  0  0  0  0  0  0  0  0
  144.2986   72.7178  217.1631 H   0  0  0  0  0  0  0  0  0  0  0  0
  143.4297   71.5461  218.1973 H   0  0  0  0  0  0  0  0  0  0  0  0
  143.2930   71.0542  220.8160 H   0  0  0  0  0  0  0  0  0  0  0  0
  141.2021   70.9228  222.2012 H   0  0  0  0  0  0  0  0  0  0  0  0
  139.6039   72.8484  222.2448 H   0  0  0  0  0  0  0  0  0  0  0  0
  140.0999   74.9258  220.9187 H   0  0  0  0  0  0  0  0  0  0  0  0
  1  2  2  0
  2  3  1  0
  3  4  2  0
  4  5  1  0
  5  6  2  0
  6  7  1  0
  7  8  1  0
  7  9  2  0
  9 10  1  0
 10 11  2  0
 11 12  1  0
  2 13  1  0
 13 14  1  0
 15 14  1  6
 15 16  1  0
 16 17  1  0
 17 18  1  0
 18 19  1  0
 19 20  1  0
 20 21  1  0
 21 22  1  0
 22 23  1  0
 23 24  1  0
 18 25  1  0
 15 26  1  0
 26 27  2  0
 27 28  1  0
 28 29  2  0
 29 30  1  0
 30 31  2  0
 12  3  1  0
 31 13  1  0
 11  5  1  0
 25 15  1  0
 31 26  1  0
 24 19  1  0
  4 32  1  0
  6 33  1  0
  9 34  1  0
 10 35  1  0
 12 36  1  0
 14 37  1  0
 14 38  1  0
 16 39  1  0
 16 40  1  0
 17 41  1  0
 17 42  1  0
 19 43  1  6
 20 44  1  0
 20 45  1  0
 21 46  1  0
 21 47  1  0
 22 48  1  0
 22 49  1  0
 23 50  1  0
 24 51  1  0
 24 52  1  0
 25 53  1  0
 25 54  1  0
 27 55  1  0
 28 56  1  0
 29 57  1  0
 30 58  1  0
M  END
>  <UniqueID>  (11) 
22

>  <SMILES>  (11) 
O=C(c1cc2cc(F)ccc2[nH]1)N1C[C@@]2(CCN([C@@H]3CCCNC3)C2)c2ccccc21

>  <Energy>  (11) 
129.44821072843936

>  <Genealogy>  (11) 
O=C(c1cc2cc(F)ccc2[nH]1)N1C[C@@]2(CCN([C@@H]3CCCNC3)C2)c2ccccc21 (chirality)
O=C(c1cc2cc(F)ccc2[nH]1)N1C[C@@]2(CCN([C@@H]3CCCNC3)C2)c2ccccc21 (3D coordinates assigned)
O=C(c1cc2cc(F)ccc2[nH]1)N1C[C@@]2(CCN([C@@H]3CCCNC3)C2)c2ccccc21 (nonaromatic ring conformer: 129.44821072843936 kcal/mol)

>  <smiles>  (11) 
O=C(c1cc2cc(F)ccc2[nH]1)N1C[C@@]2(CCN(C3CCCNC3)C2)c2ccccc21

>  <score_type>  (11) 
oracle

>  <origin>  (11) 
autodockgpu

>  <m_score__min__energy>  (11) 
-8.2799999999999994

>  <m_primary>  (11) 
energy

>  <meeko>  (11) 
{"free_energy": -8.16, "intermolecular_energy": -9.05, "internal_energy": -1.32, "cluster_size": 6, "cluster_id": 2, "rank_in_cluster": 5}

>  <energy>  (11) 
-8.21

>  <cluster_rmsd>  (11) 
1.31

>  <rmsd>  (11) 
271.73

>  <cluster>  (11) 
2

$$$$
ABNVVKAVWJYHCL-CLOONOSVNA-N
     RDKit          3D

 58 63  0  0  0  0  0  0  0  0999 V2000
  139.1450   70.9330  221.1820 O   0  0  0  0  0  0  0  0  0  0  0  0
  139.4460   71.7100  222.1270 C   0  0  0  0  0  0  0  0  0  0  0  0
  139.7000   71.1520  223.4670 C   0  0  0  0  0  0  0  0  0  0  0  0
  139.5570   69.8110  223.8260 C   0  0  0  0  0  0  0  0  0  0  0  0
  139.9270   69.7560  225.1510 C   0  0  0  0  0  0  0  0  0  0  0  0
  139.9810   68.6790  226.0330 C   0  0  0  0  0  0  0  0  0  0  0  0
  140.4110   68.9300  227.3500 C   0  0  0  0  0  0  0  0  0  0  0  0
  140.4770   67.9120  228.2430 F   0  0  0  0  0  0  0  0  0  0  0  0
  140.7720   70.2370  227.7460 C   0  0  0  0  0  0  0  0  0  0  0  0
  140.7070   71.3040  226.8310 C   0  0  0  0  0  0  0  0  0  0  0  0
  140.2780   71.0240  225.5350 C   0  0  0  0  0  0  0  0  0  0  0  0
  140.1490   71.8870  224.5140 N   0  0  0  0  0  0  0  0  0  0  0  0
  139.4820   73.1240  221.8930 N   0  0  0  0  0  0  0  0  0  0  0  0
  140.7110   73.8850  221.6800 C   0  0  0  0  0  0  0  0  0  0  0  0
  140.2570   75.3560  221.3850 C   0  0  2  0  0  0  0  0  0  0  0  0
  140.4950   75.7680  219.9350 C   0  0  0  0  0  0  0  0  0  0  0  0
  140.7860   77.2510  220.0160 C   0  0  0  0  0  0  0  0  0  0  0  0
  141.4540   77.4900  221.3050 N   0  0  0  0  0  0  0  0  0  0  0  0
  141.2140   78.8550  221.8500 C   0  0  2  0  0  0  0  0  0  0  0  0
  142.4110   79.3430  222.6960 C   0  0  0  0  0  0  0  0  0  0  0  0
  142.1740   80.7650  223.2330 C   0  0  0  0  0  0  0  0  0  0  0  0
  140.6850   81.0600  223.4810 C   0  0  0  0  0  0  0  0  0  0  0  0
  139.9540   79.8400  223.8390 N   0  0  0  0  0  0  0  0  0  0  0  0
  139.9230   78.8700  222.7280 C   0  0  0  0  0  0  0  0  0  0  0  0
  141.0040   76.4170  222.2160 C   0  0  0  0  0  0  0  0  0  0  0  0
  138.7810   75.3110  221.6990 C   0  0  0  0  0  0  0  0  0  0  0  0
  137.8620   76.3680  221.7530 C   0  0  0  0  0  0  0  0  0  0  0  0
  136.5320   76.0890  222.1020 C   0  0  0  0  0  0  0  0  0  0  0  0
  136.1400   74.7720  222.4030 C   0  0  0  0  0  0  0  0  0  0  0  0
  137.0740   73.7270  222.3470 C   0  0  0  0  0  0  0  0  0  0  0  0
  138.3880   74.0240  221.9670 C   0  0  0  0  0  0  0  0  0  0  0  0
  139.2217   68.9792  223.1891 H   0  0  0  0  0  0  0  0  0  0  0  0
  139.6971   67.6662  225.7112 H   0  0  0  0  0  0  0  0  0  0  0  0
  141.1065   70.4221  228.7775 H   0  0  0  0  0  0  0  0  0  0  0  0
  140.9857   72.3256  227.1289 H   0  0  0  0  0  0  0  0  0  0  0  0
  140.3510   72.9120  224.5270 H   0  0  0  0  0  0  0  0  0  0  0  0
  141.3426   73.8523  222.5800 H   0  0  0  0  0  0  0  0  0  0  0  0
  141.3051   73.4710  220.8520 H   0  0  0  0  0  0  0  0  0  0  0  0
  141.3518   75.2245  219.5102 H   0  0  0  0  0  0  0  0  0  0  0  0
  139.6370   75.5409  219.2852 H   0  0  0  0  0  0  0  0  0  0  0  0
  141.4445   77.5523  219.1880 H   0  0  0  0  0  0  0  0  0  0  0  0
  139.8582   77.8371  219.9407 H   0  0  0  0  0  0  0  0  0  0  0  0
  141.0885   79.5348  220.9944 H   0  0  0  0  0  0  0  0  0  0  0  0
  142.5522   78.6583  223.5453 H   0  0  0  0  0  0  0  0  0  0  0  0
  143.3051   79.3586  222.0554 H   0  0  0  0  0  0  0  0  0  0  0  0
  142.7191   80.8793  224.1816 H   0  0  0  0  0  0  0  0  0  0  0  0
  142.5332   81.4739  222.4724 H   0  0  0  0  0  0  0  0  0  0  0  0
  140.5952   81.7859  224.3026 H   0  0  0  0  0  0  0  0  0  0  0  0
  140.2519   81.4659  222.5549 H   0  0  0  0  0  0  0  0  0  0  0  0
  140.4190   79.4000  224.6690 H   0  0  0  0  0  0  0  0  0  0  0  0
  139.7837   77.8648  223.1524 H   0  0  0  0  0  0  0  0  0  0  0  0
  139.0974   79.1744  222.0679 H   0  0  0  0  0  0  0  0  0  0  0  0
  141.8741   75.9584  222.7085 H   0  0  0  0  0  0  0  0  0  0  0  0
  140.3382   76.8306  222.9878 H   0  0  0  0  0  0  0  0  0  0  0  0
  138.1776   77.3970  221.5260 H   0  0  0  0  0  0  0  0  0  0  0  0
  135.7932   76.9030  222.1404 H   0  0  0  0  0  0  0  0  0  0  0  0
  135.0975   74.5609  222.6832 H   0  0  0  0  0  0  0  0  0  0  0  0
  136.7803   72.6967  222.5963 H   0  0  0  0  0  0  0  0  0  0  0  0
  1  2  2  0
  2  3  1  0
  3  4  2  0
  4  5  1  0
  5  6  2  0
  6  7  1  0
  7  8  1  0
  7  9  2  0
  9 10  1  0
 10 11  2  0
 11 12  1  0
  2 13  1  0
 13 14  1  0
 15 14  1  6
 15 16  1  0
 16 17  1  0
 17 18  1  0
 18 19  1  0
 19 20  1  0
 20 21  1  0
 21 22  1  0
 22 23  1  0
 23 24  1  0
 18 25  1  0
 15 26  1  0
 26 27  2  0
 27 28  1  0
 28 29  2  0
 29 30  1  0
 30 31  2  0
 12  3  1  0
 31 13  1  0
 11  5  1  0
 25 15  1  0
 31 26  1  0
 24 19  1  0
  4 32  1  0
  6 33  1  0
  9 34  1  0
 10 35  1  0
 12 36  1  0
 14 37  1  0
 14 38  1  0
 16 39  1  0
 16 40  1  0
 17 41  1  0
 17 42  1  0
 19 43  1  6
 20 44  1  0
 20 45  1  0
 21 46  1  0
 21 47  1  0
 22 48  1  0
 22 49  1  0
 23 50  1  0
 24 51  1  0
 24 52  1  0
 25 53  1  0
 25 54  1  0
 27 55  1  0
 28 56  1  0
 29 57  1  0
 30 58  1  0
M  END
>  <UniqueID>  (12) 
22

>  <SMILES>  (12) 
O=C(c1cc2cc(F)ccc2[nH]1)N1C[C@@]2(CCN([C@@H]3CCCNC3)C2)c2ccccc21

>  <Energy>  (12) 
129.44821072843936

>  <Genealogy>  (12) 
O=C(c1cc2cc(F)ccc2[nH]1)N1C[C@@]2(CCN([C@@H]3CCCNC3)C2)c2ccccc21 (chirality)
O=C(c1cc2cc(F)ccc2[nH]1)N1C[C@@]2(CCN([C@@H]3CCCNC3)C2)c2ccccc21 (3D coordinates assigned)
O=C(c1cc2cc(F)ccc2[nH]1)N1C[C@@]2(CCN([C@@H]3CCCNC3)C2)c2ccccc21 (nonaromatic ring conformer: 129.44821072843936 kcal/mol)

>  <smiles>  (12) 
O=C(c1cc2cc(F)ccc2[nH]1)N1C[C@@]2(CCN(C3CCCNC3)C2)c2ccccc21

>  <score_type>  (12) 
oracle

>  <origin>  (12) 
autodockgpu

>  <m_score__min__energy>  (12) 
-8.2799999999999994

>  <m_primary>  (12) 
energy

>  <meeko>  (12) 
{"free_energy": -8.28, "intermolecular_energy": -9.17, "internal_energy": -1.21, "cluster_size": 8, "cluster_id": 1, "rank_in_cluster": 5}

>  <energy>  (12) 
-8.18

>  <cluster_rmsd>  (12) 
1.24

>  <rmsd>  (12) 
271.69

>  <cluster>  (12) 
2

$$$$
ABNVVKAVWJYHCL-CLOONOSVNA-N
     RDKit          3D

 58 63  0  0  0  0  0  0  0  0999 V2000
  142.3220   77.5080  218.1610 O   0  0  0  0  0  0  0  0  0  0  0  0
  142.1820   76.9530  219.2840 C   0  0  0  0  0  0  0  0  0  0  0  0
  141.5140   77.6870  220.3730 C   0  0  0  0  0  0  0  0  0  0  0  0
  140.1340   77.7890  220.5520 C   0  0  0  0  0  0  0  0  0  0  0  0
  139.9790   78.5350  221.6990 C   0  0  0  0  0  0  0  0  0  0  0  0
  138.8260   78.9540  222.3600 C   0  0  0  0  0  0  0  0  0  0  0  0
  138.9810   79.7140  223.5340 C   0  0  0  0  0  0  0  0  0  0  0  0
  137.8870   80.1440  224.2080 F   0  0  0  0  0  0  0  0  0  0  0  0
  140.2720   80.0320  224.0130 C   0  0  0  0  0  0  0  0  0  0  0  0
  141.4170   79.5930  223.3250 C   0  0  0  0  0  0  0  0  0  0  0  0
  141.2310   78.8430  222.1650 C   0  0  0  0  0  0  0  0  0  0  0  0
  142.1800   78.3260  221.3660 N   0  0  0  0  0  0  0  0  0  0  0  0
  142.7250   75.6430  219.4940 N   0  0  0  0  0  0  0  0  0  0  0  0
  143.9030   75.1270  218.8000 C   0  0  0  0  0  0  0  0  0  0  0  0
  144.1670   73.7050  219.4060 C   0  0  2  0  0  0  0  0  0  0  0  0
  145.4270   73.6540  220.2650 C   0  0  0  0  0  0  0  0  0  0  0  0
  145.9450   72.2450  220.0760 C   0  0  0  0  0  0  0  0  0  0  0  0
  145.5790   71.8290  218.7130 N   0  0  0  0  0  0  0  0  0  0  0  0
  145.3870   70.3590  218.5770 C   0  0  2  0  0  0  0  0  0  0  0  0
  144.0150   69.9160  219.1360 C   0  0  0  0  0  0  0  0  0  0  0  0
  143.8050   68.4020  218.9680 C   0  0  0  0  0  0  0  0  0  0  0  0
  145.1260   67.6150  219.0240 C   0  0  0  0  0  0  0  0  0  0  0  0
  146.1090   68.2870  219.8800 N   0  0  0  0  0  0  0  0  0  0  0  0
  146.5210   69.5910  219.3260 C   0  0  0  0  0  0  0  0  0  0  0  0
  144.3760   72.6050  218.3470 C   0  0  0  0  0  0  0  0  0  0  0  0
  142.9320   73.4740  220.2440 C   0  0  0  0  0  0  0  0  0  0  0  0
  142.5350   72.3110  220.9180 C   0  0  0  0  0  0  0  0  0  0  0  0
  141.3170   72.3180  221.6150 C   0  0  0  0  0  0  0  0  0  0  0  0
  140.5100   73.4700  221.6190 C   0  0  0  0  0  0  0  0  0  0  0  0
  140.9210   74.6240  220.9350 C   0  0  0  0  0  0  0  0  0  0  0  0
  142.1550   74.6030  220.2730 C   0  0  0  0  0  0  0  0  0  0  0  0
  139.3427   77.3659  219.9158 H   0  0  0  0  0  0  0  0  0  0  0  0
  137.8271   78.6989  221.9764 H   0  0  0  0  0  0  0  0  0  0  0  0
  140.3820   80.6276  224.9312 H   0  0  0  0  0  0  0  0  0  0  0  0
  142.4263   79.8336  223.6902 H   0  0  0  0  0  0  0  0  0  0  0  0
  143.2140   78.4040  221.4860 H   0  0  0  0  0  0  0  0  0  0  0  0
  143.7094   75.0531  217.7197 H   0  0  0  0  0  0  0  0  0  0  0  0
  144.7715   75.7897  218.9289 H   0  0  0  0  0  0  0  0  0  0  0  0
  146.1660   74.3916  219.9187 H   0  0  0  0  0  0  0  0  0  0  0  0
  145.2288   73.8932  221.3202 H   0  0  0  0  0  0  0  0  0  0  0  0
  147.0383   72.2257  220.1957 H   0  0  0  0  0  0  0  0  0  0  0  0
  145.5106   71.5645  220.8231 H   0  0  0  0  0  0  0  0  0  0  0  0
  145.4236   70.1186  217.5042 H   0  0  0  0  0  0  0  0  0  0  0  0
  143.9657   70.1680  220.2056 H   0  0  0  0  0  0  0  0  0  0  0  0
  143.2266   70.4399  218.5757 H   0  0  0  0  0  0  0  0  0  0  0  0
  143.1472   68.0453  219.7743 H   0  0  0  0  0  0  0  0  0  0  0  0
  143.3572   68.2342  217.9774 H   0  0  0  0  0  0  0  0  0  0  0  0
  144.9281   66.6103  219.4257 H   0  0  0  0  0  0  0  0  0  0  0  0
  145.5369   67.5521  218.0056 H   0  0  0  0  0  0  0  0  0  0  0  0
  145.6880   68.4310  220.8280 H   0  0  0  0  0  0  0  0  0  0  0  0
  146.8741   70.2214  220.1554 H   0  0  0  0  0  0  0  0  0  0  0  0
  147.3046   69.3835  218.5825 H   0  0  0  0  0  0  0  0  0  0  0  0
  144.5166   73.0639  217.3572 H   0  0  0  0  0  0  0  0  0  0  0  0
  143.4970   71.9447  218.3088 H   0  0  0  0  0  0  0  0  0  0  0  0
  143.1660   71.4101  220.9010 H   0  0  0  0  0  0  0  0  0  0  0  0
  140.9923   71.4194  222.1601 H   0  0  0  0  0  0  0  0  0  0  0  0
  139.5526   73.4662  222.1607 H   0  0  0  0  0  0  0  0  0  0  0  0
  140.2889   75.5241  220.9191 H   0  0  0  0  0  0  0  0  0  0  0  0
  1  2  2  0
  2  3  1  0
  3  4  2  0
  4  5  1  0
  5  6  2  0
  6  7  1  0
  7  8  1  0
  7  9  2  0
  9 10  1  0
 10 11  2  0
 11 12  1  0
  2 13  1  0
 13 14  1  0
 15 14  1  6
 15 16  1  0
 16 17  1  0
 17 18  1  0
 18 19  1  0
 19 20  1  0
 20 21  1  0
 21 22  1  0
 22 23  1  0
 23 24  1  0
 18 25  1  0
 15 26  1  0
 26 27  2  0
 27 28  1  0
 28 29  2  0
 29 30  1  0
 30 31  2  0
 12  3  1  0
 31 13  1  0
 11  5  1  0
 25 15  1  0
 31 26  1  0
 24 19  1  0
  4 32  1  0
  6 33  1  0
  9 34  1  0
 10 35  1  0
 12 36  1  0
 14 37  1  0
 14 38  1  0
 16 39  1  0
 16 40  1  0
 17 41  1  0
 17 42  1  0
 19 43  1  6
 20 44  1  0
 20 45  1  0
 21 46  1  0
 21 47  1  0
 22 48  1  0
 22 49  1  0
 23 50  1  0
 24 51  1  0
 24 52  1  0
 25 53  1  0
 25 54  1  0
 27 55  1  0
 28 56  1  0
 29 57  1  0
 30 58  1  0
M  END
>  <UniqueID>  (13) 
22

>  <SMILES>  (13) 
O=C(c1cc2cc(F)ccc2[nH]1)N1C[C@@]2(CCN([C@@H]3CCCNC3)C2)c2ccccc21

>  <Energy>  (13) 
129.44821072843936

>  <Genealogy>  (13) 
O=C(c1cc2cc(F)ccc2[nH]1)N1C[C@@]2(CCN([C@@H]3CCCNC3)C2)c2ccccc21 (chirality)
O=C(c1cc2cc(F)ccc2[nH]1)N1C[C@@]2(CCN([C@@H]3CCCNC3)C2)c2ccccc21 (3D coordinates assigned)
O=C(c1cc2cc(F)ccc2[nH]1)N1C[C@@]2(CCN([C@@H]3CCCNC3)C2)c2ccccc21 (nonaromatic ring conformer: 129.44821072843936 kcal/mol)

>  <smiles>  (13) 
O=C(c1cc2cc(F)ccc2[nH]1)N1C[C@@]2(CCN(C3CCCNC3)C2)c2ccccc21

>  <score_type>  (13) 
oracle

>  <origin>  (13) 
autodockgpu

>  <m_score__min__energy>  (13) 
-8.2799999999999994

>  <m_primary>  (13) 
energy

>  <meeko>  (13) 
{"free_energy": -8.22, "intermolecular_energy": -9.11, "internal_energy": -1.29, "cluster_size": 6, "cluster_id": 2, "rank_in_cluster": 2}

>  <energy>  (13) 
-8.16

>  <cluster_rmsd>  (13) 
1.22

>  <rmsd>  (13) 
271.81

>  <cluster>  (13) 
2

$$$$
ABNVVKAVWJYHCL-CLOONOSVNA-N
     RDKit          3D

 58 63  0  0  0  0  0  0  0  0999 V2000
  139.1920   70.8930  221.2560 O   0  0  0  0  0  0  0  0  0  0  0  0
  139.8120   71.6020  222.0940 C   0  0  0  0  0  0  0  0  0  0  0  0
  139.9560   71.1200  223.4790 C   0  0  0  0  0  0  0  0  0  0  0  0
  139.7800   69.8010  223.9000 C   0  0  0  0  0  0  0  0  0  0  0  0
  140.0440   69.8220  225.2510 C   0  0  0  0  0  0  0  0  0  0  0  0
  140.0240   68.7960  226.1940 C   0  0  0  0  0  0  0  0  0  0  0  0
  140.3480   69.1220  227.5250 C   0  0  0  0  0  0  0  0  0  0  0  0
  140.3400   68.1560  228.4760 F   0  0  0  0  0  0  0  0  0  0  0  0
  140.6810   70.4500  227.8740 C   0  0  0  0  0  0  0  0  0  0  0  0
  140.6940   71.4630  226.8980 C   0  0  0  0  0  0  0  0  0  0  0  0
  140.3680   71.1100  225.5900 C   0  0  0  0  0  0  0  0  0  0  0  0
  140.3230   71.9140  224.5140 N   0  0  0  0  0  0  0  0  0  0  0  0
  140.3150   72.8840  221.6970 N   0  0  0  0  0  0  0  0  0  0  0  0
  139.4910   74.0860  221.5900 C   0  0  0  0  0  0  0  0  0  0  0  0
  140.4740   75.2460  221.2100 C   0  0  2  0  0  0  0  0  0  0  0  0
  140.6750   76.2450  222.3460 C   0  0  0  0  0  0  0  0  0  0  0  0
  140.9070   77.5640  221.6400 C   0  0  0  0  0  0  0  0  0  0  0  0
  140.1300   77.5280  220.3910 N   0  0  0  0  0  0  0  0  0  0  0  0
  140.7210   78.3580  219.3060 C   0  0  2  0  0  0  0  0  0  0  0  0
  142.0290   77.7350  218.7680 C   0  0  0  0  0  0  0  0  0  0  0  0
  142.6220   78.5780  217.6260 C   0  0  0  0  0  0  0  0  0  0  0  0
  142.3030   80.0750  217.7730 C   0  0  0  0  0  0  0  0  0  0  0  0
  142.1710   80.4550  219.1830 N   0  0  0  0  0  0  0  0  0  0  0  0
  141.0130   79.8010  219.8240 C   0  0  0  0  0  0  0  0  0  0  0  0
  139.9980   76.1030  220.0210 C   0  0  0  0  0  0  0  0  0  0  0  0
  141.7540   74.5030  220.9110 C   0  0  0  0  0  0  0  0  0  0  0  0
  142.9540   74.9990  220.3830 C   0  0  0  0  0  0  0  0  0  0  0  0
  144.0120   74.1060  220.1560 C   0  0  0  0  0  0  0  0  0  0  0  0
  143.8580   72.7380  220.4430 C   0  0  0  0  0  0  0  0  0  0  0  0
  142.6480   72.2580  220.9680 C   0  0  0  0  0  0  0  0  0  0  0  0
  141.6170   73.1720  221.2140 C   0  0  0  0  0  0  0  0  0  0  0  0
  139.4931   68.9342  223.2865 H   0  0  0  0  0  0  0  0  0  0  0  0
  139.7638   67.7661  225.9081 H   0  0  0  0  0  0  0  0  0  0  0  0
  140.9320   70.6937  228.9169 H   0  0  0  0  0  0  0  0  0  0  0  0
  140.9530   72.4998  227.1588 H   0  0  0  0  0  0  0  0  0  0  0  0
  140.5280   72.9370  224.4860 H   0  0  0  0  0  0  0  0  0  0  0  0
  138.7281   73.9589  220.8078 H   0  0  0  0  0  0  0  0  0  0  0  0
  138.9598   74.2974  222.5298 H   0  0  0  0  0  0  0  0  0  0  0  0
  139.7807   76.2957  222.9844 H   0  0  0  0  0  0  0  0  0  0  0  0
  141.5079   75.9686  223.0093 H   0  0  0  0  0  0  0  0  0  0  0  0
  140.5655   78.3962  222.2731 H   0  0  0  0  0  0  0  0  0  0  0  0
  141.9766   77.7141  221.4318 H   0  0  0  0  0  0  0  0  0  0  0  0
  139.9889   78.3996  218.4861 H   0  0  0  0  0  0  0  0  0  0  0  0
  142.7610   77.6759  219.5870 H   0  0  0  0  0  0  0  0  0  0  0  0
  141.8006   76.7326  218.3768 H   0  0  0  0  0  0  0  0  0  0  0  0
  143.7144   78.4487  217.6224 H   0  0  0  0  0  0  0  0  0  0  0  0
  142.1708   78.2307  216.6848 H   0  0  0  0  0  0  0  0  0  0  0  0
  143.1154   80.6609  217.3184 H   0  0  0  0  0  0  0  0  0  0  0  0
  141.3473   80.2779  217.2675 H   0  0  0  0  0  0  0  0  0  0  0  0
  143.0460   80.1800  219.6890 H   0  0  0  0  0  0  0  0  0  0  0  0
  141.2038   79.7464  220.9059 H   0  0  0  0  0  0  0  0  0  0  0  0
  140.1308   80.4091  219.5751 H   0  0  0  0  0  0  0  0  0  0  0  0
  138.9461   75.8736  219.7952 H   0  0  0  0  0  0  0  0  0  0  0  0
  140.6064   75.8856  219.1307 H   0  0  0  0  0  0  0  0  0  0  0  0
  143.0641   76.0686  220.1509 H   0  0  0  0  0  0  0  0  0  0  0  0
  144.9654   74.4773  219.7521 H   0  0  0  0  0  0  0  0  0  0  0  0
  144.6886   72.0417  220.2554 H   0  0  0  0  0  0  0  0  0  0  0  0
  142.5130   71.1874  221.1813 H   0  0  0  0  0  0  0  0  0  0  0  0
  1  2  2  0
  2  3  1  0
  3  4  2  0
  4  5  1  0
  5  6  2  0
  6  7  1  0
  7  8  1  0
  7  9  2  0
  9 10  1  0
 10 11  2  0
 11 12  1  0
  2 13  1  0
 13 14  1  0
 15 14  1  1
 15 16  1  0
 16 17  1  0
 17 18  1  0
 18 19  1  0
 19 20  1  0
 20 21  1  0
 21 22  1  0
 22 23  1  0
 23 24  1  0
 18 25  1  0
 15 26  1  0
 26 27  2  0
 27 28  1  0
 28 29  2  0
 29 30  1  0
 30 31  2  0
 12  3  1  0
 31 13  1  0
 11  5  1  0
 25 15  1  0
 31 26  1  0
 24 19  1  0
  4 32  1  0
  6 33  1  0
  9 34  1  0
 10 35  1  0
 12 36  1  0
 14 37  1  0
 14 38  1  0
 16 39  1  0
 16 40  1  0
 17 41  1  0
 17 42  1  0
 19 43  1  6
 20 44  1  0
 20 45  1  0
 21 46  1  0
 21 47  1  0
 22 48  1  0
 22 49  1  0
 23 50  1  0
 24 51  1  0
 24 52  1  0
 25 53  1  0
 25 54  1  0
 27 55  1  0
 28 56  1  0
 29 57  1  0
 30 58  1  0
M  END
>  <UniqueID>  (14) 
22

>  <SMILES>  (14) 
O=C(c1cc2cc(F)ccc2[nH]1)N1C[C@@]2(CCN([C@@H]3CCCNC3)C2)c2ccccc21

>  <Energy>  (14) 
129.44821072843936

>  <Genealogy>  (14) 
O=C(c1cc2cc(F)ccc2[nH]1)N1C[C@@]2(CCN([C@@H]3CCCNC3)C2)c2ccccc21 (chirality)
O=C(c1cc2cc(F)ccc2[nH]1)N1C[C@@]2(CCN([C@@H]3CCCNC3)C2)c2ccccc21 (3D coordinates assigned)
O=C(c1cc2cc(F)ccc2[nH]1)N1C[C@@]2(CCN([C@@H]3CCCNC3)C2)c2ccccc21 (nonaromatic ring conformer: 129.44821072843936 kcal/mol)

>  <smiles>  (14) 
O=C(c1cc2cc(F)ccc2[nH]1)N1C[C@@]2(CCN(C3CCCNC3)C2)c2ccccc21

>  <score_type>  (14) 
oracle

>  <origin>  (14) 
autodockgpu

>  <m_score__min__energy>  (14) 
-8.2799999999999994

>  <m_primary>  (14) 
energy

>  <meeko>  (14) 
{"free_energy": -8.2, "intermolecular_energy": -9.09, "internal_energy": -1.26, "cluster_size": 6, "cluster_id": 3, "rank_in_cluster": 4}

>  <energy>  (14) 
-8.15

>  <cluster_rmsd>  (14) 
1.26

>  <rmsd>  (14) 
271.77

>  <cluster>  (14) 
2

$$$$
ABNVVKAVWJYHCL-CLOONOSVNA-N
     RDKit          3D

 58 63  0  0  0  0  0  0  0  0999 V2000
  139.1060   70.9410  221.1770 O   0  0  0  0  0  0  0  0  0  0  0  0
  139.4240   71.7160  222.1190 C   0  0  0  0  0  0  0  0  0  0  0  0
  139.6910   71.1540  223.4550 C   0  0  0  0  0  0  0  0  0  0  0  0
  139.5600   69.8120  223.8100 C   0  0  0  0  0  0  0  0  0  0  0  0
  139.9390   69.7550  225.1320 C   0  0  0  0  0  0  0  0  0  0  0  0
  140.0080   68.6750  226.0110 C   0  0  0  0  0  0  0  0  0  0  0  0
  140.4440   68.9250  227.3250 C   0  0  0  0  0  0  0  0  0  0  0  0
  140.5250   67.9050  228.2140 F   0  0  0  0  0  0  0  0  0  0  0  0
  140.7980   70.2340  227.7240 C   0  0  0  0  0  0  0  0  0  0  0  0
  140.7200   71.3030  226.8130 C   0  0  0  0  0  0  0  0  0  0  0  0
  140.2830   71.0240  225.5190 C   0  0  0  0  0  0  0  0  0  0  0  0
  140.1410   71.8900  224.5010 N   0  0  0  0  0  0  0  0  0  0  0  0
  139.4650   73.1290  221.8850 N   0  0  0  0  0  0  0  0  0  0  0  0
  140.6970   73.8850  221.6710 C   0  0  0  0  0  0  0  0  0  0  0  0
  140.2490   75.3580  221.3770 C   0  0  2  0  0  0  0  0  0  0  0  0
  140.4870   75.7700  219.9270 C   0  0  0  0  0  0  0  0  0  0  0  0
  140.7840   77.2520  220.0090 C   0  0  0  0  0  0  0  0  0  0  0  0
  141.4550   77.4880  221.2970 N   0  0  0  0  0  0  0  0  0  0  0  0
  141.2210   78.8530  221.8420 C   0  0  2  0  0  0  0  0  0  0  0  0
  142.4160   79.3300  222.7000 C   0  0  0  0  0  0  0  0  0  0  0  0
  142.1860   80.7520  223.2380 C   0  0  0  0  0  0  0  0  0  0  0  0
  140.6970   81.0580  223.4740 C   0  0  0  0  0  0  0  0  0  0  0  0
  139.9540   79.8440  223.8240 N   0  0  0  0  0  0  0  0  0  0  0  0
  139.9240   78.8760  222.7100 C   0  0  0  0  0  0  0  0  0  0  0  0
  141.0020   76.4160  222.2080 C   0  0  0  0  0  0  0  0  0  0  0  0
  138.7730   75.3190  221.6940 C   0  0  0  0  0  0  0  0  0  0  0  0
  137.8590   76.3800  221.7500 C   0  0  0  0  0  0  0  0  0  0  0  0
  136.5280   76.1070  222.1010 C   0  0  0  0  0  0  0  0  0  0  0  0
  136.1310   74.7920  222.4020 C   0  0  0  0  0  0  0  0  0  0  0  0
  137.0600   73.7420  222.3430 C   0  0  0  0  0  0  0  0  0  0  0  0
  138.3750   74.0340  221.9620 C   0  0  0  0  0  0  0  0  0  0  0  0
  139.2264   68.9800  223.1724 H   0  0  0  0  0  0  0  0  0  0  0  0
  139.7307   67.6608  225.6877 H   0  0  0  0  0  0  0  0  0  0  0  0
  141.1369   70.4180  228.7542 H   0  0  0  0  0  0  0  0  0  0  0  0
  140.9948   72.3254  227.1118 H   0  0  0  0  0  0  0  0  0  0  0  0
  140.3360   72.9160  224.5160 H   0  0  0  0  0  0  0  0  0  0  0  0
  141.3294   73.8493  222.5704 H   0  0  0  0  0  0  0  0  0  0  0  0
  141.2885   73.4688  220.8422 H   0  0  0  0  0  0  0  0  0  0  0  0
  141.3412   75.2234  219.5008 H   0  0  0  0  0  0  0  0  0  0  0  0
  139.6275   75.5467  219.2779 H   0  0  0  0  0  0  0  0  0  0  0  0
  141.4423   77.5513  219.1801 H   0  0  0  0  0  0  0  0  0  0  0  0
  139.8582   77.8415  219.9360 H   0  0  0  0  0  0  0  0  0  0  0  0
  141.1073   79.5352  220.9866 H   0  0  0  0  0  0  0  0  0  0  0  0
  142.5446   78.6423  223.5488 H   0  0  0  0  0  0  0  0  0  0  0  0
  143.3155   79.3399  222.0670 H   0  0  0  0  0  0  0  0  0  0  0  0
  142.7239   80.8599  224.1914 H   0  0  0  0  0  0  0  0  0  0  0  0
  142.5574   81.4598  222.4823 H   0  0  0  0  0  0  0  0  0  0  0  0
  140.6059   81.7835  224.2958 H   0  0  0  0  0  0  0  0  0  0  0  0
  140.2748   81.4683  222.5448 H   0  0  0  0  0  0  0  0  0  0  0  0
  140.4080   79.3980  224.6560 H   0  0  0  0  0  0  0  0  0  0  0  0
  139.7738   77.8710  223.1312 H   0  0  0  0  0  0  0  0  0  0  0  0
  139.1058   79.1881  222.0444 H   0  0  0  0  0  0  0  0  0  0  0  0
  141.8710   75.9535  222.6988 H   0  0  0  0  0  0  0  0  0  0  0  0
  140.3391   76.8317  222.9811 H   0  0  0  0  0  0  0  0  0  0  0  0
  138.1790   77.4077  221.5230 H   0  0  0  0  0  0  0  0  0  0  0  0
  135.7929   76.9243  222.1408 H   0  0  0  0  0  0  0  0  0  0  0  0
  135.0882   74.5857  222.6848 H   0  0  0  0  0  0  0  0  0  0  0  0
  136.7617   72.7126  222.5906 H   0  0  0  0  0  0  0  0  0  0  0  0
  1  2  2  0
  2  3  1  0
  3  4  2  0
  4  5  1  0
  5  6  2  0
  6  7  1  0
  7  8  1  0
  7  9  2  0
  9 10  1  0
 10 11  2  0
 11 12  1  0
  2 13  1  0
 13 14  1  0
 15 14  1  6
 15 16  1  0
 16 17  1  0
 17 18  1  0
 18 19  1  0
 19 20  1  0
 20 21  1  0
 21 22  1  0
 22 23  1  0
 23 24  1  0
 18 25  1  0
 15 26  1  0
 26 27  2  0
 27 28  1  0
 28 29  2  0
 29 30  1  0
 30 31  2  0
 12  3  1  0
 31 13  1  0
 11  5  1  0
 25 15  1  0
 31 26  1  0
 24 19  1  0
  4 32  1  0
  6 33  1  0
  9 34  1  0
 10 35  1  0
 12 36  1  0
 14 37  1  0
 14 38  1  0
 16 39  1  0
 16 40  1  0
 17 41  1  0
 17 42  1  0
 19 43  1  6
 20 44  1  0
 20 45  1  0
 21 46  1  0
 21 47  1  0
 22 48  1  0
 22 49  1  0
 23 50  1  0
 24 51  1  0
 24 52  1  0
 25 53  1  0
 25 54  1  0
 27 55  1  0
 28 56  1  0
 29 57  1  0
 30 58  1  0
M  END
>  <UniqueID>  (15) 
22

>  <SMILES>  (15) 
O=C(c1cc2cc(F)ccc2[nH]1)N1C[C@@]2(CCN([C@@H]3CCCNC3)C2)c2ccccc21

>  <Energy>  (15) 
129.44821072843936

>  <Genealogy>  (15) 
O=C(c1cc2cc(F)ccc2[nH]1)N1C[C@@]2(CCN([C@@H]3CCCNC3)C2)c2ccccc21 (chirality)
O=C(c1cc2cc(F)ccc2[nH]1)N1C[C@@]2(CCN([C@@H]3CCCNC3)C2)c2ccccc21 (3D coordinates assigned)
O=C(c1cc2cc(F)ccc2[nH]1)N1C[C@@]2(CCN([C@@H]3CCCNC3)C2)c2ccccc21 (nonaromatic ring conformer: 129.44821072843936 kcal/mol)

>  <smiles>  (15) 
O=C(c1cc2cc(F)ccc2[nH]1)N1C[C@@]2(CCN(C3CCCNC3)C2)c2ccccc21

>  <score_type>  (15) 
oracle

>  <origin>  (15) 
autodockgpu

>  <m_score__min__energy>  (15) 
-8.2799999999999994

>  <m_primary>  (15) 
energy

>  <meeko>  (15) 
{"free_energy": -8.28, "intermolecular_energy": -9.17, "internal_energy": -1.21, "cluster_size": 8, "cluster_id": 1, "rank_in_cluster": 1}

>  <energy>  (15) 
-8.21

>  <cluster_rmsd>  (15) 
0.0

>  <rmsd>  (15) 
272.16

>  <cluster>  (15) 
3

$$$$
ABNVVKAVWJYHCL-CLOONOSVNA-N
     RDKit          3D

 58 63  0  0  0  0  0  0  0  0999 V2000
  139.1670   70.8980  221.2020 O   0  0  0  0  0  0  0  0  0  0  0  0
  139.4660   71.6790  222.1450 C   0  0  0  0  0  0  0  0  0  0  0  0
  139.7200   71.1250  223.4870 C   0  0  0  0  0  0  0  0  0  0  0  0
  139.5940   69.7830  223.8460 C   0  0  0  0  0  0  0  0  0  0  0  0
  139.9570   69.7350  225.1730 C   0  0  0  0  0  0  0  0  0  0  0  0
  140.0210   68.6590  226.0560 C   0  0  0  0  0  0  0  0  0  0  0  0
  140.4400   68.9170  227.3750 C   0  0  0  0  0  0  0  0  0  0  0  0
  140.5160   67.9010  228.2690 F   0  0  0  0  0  0  0  0  0  0  0  0
  140.7810   70.2300  227.7720 C   0  0  0  0  0  0  0  0  0  0  0  0
  140.7070   71.2950  226.8560 C   0  0  0  0  0  0  0  0  0  0  0  0
  140.2880   71.0080  225.5580 C   0  0  0  0  0  0  0  0  0  0  0  0
  140.1530   71.8680  224.5350 N   0  0  0  0  0  0  0  0  0  0  0  0
  139.4980   73.0920  221.9060 N   0  0  0  0  0  0  0  0  0  0  0  0
  140.7260   73.8560  221.6980 C   0  0  0  0  0  0  0  0  0  0  0  0
  140.2690   75.3250  221.3960 C   0  0  2  0  0  0  0  0  0  0  0  0
  140.5140   75.7330  219.9460 C   0  0  0  0  0  0  0  0  0  0  0  0
  140.8000   77.2180  220.0240 C   0  0  0  0  0  0  0  0  0  0  0  0
  141.4600   77.4630  221.3160 N   0  0  0  0  0  0  0  0  0  0  0  0
  141.2110   78.8290  221.8550 C   0  0  2  0  0  0  0  0  0  0  0  0
  142.3990   79.3210  222.7130 C   0  0  0  0  0  0  0  0  0  0  0  0
  142.1540   80.7440  223.2440 C   0  0  0  0  0  0  0  0  0  0  0  0
  140.6620   81.0370  223.4750 C   0  0  0  0  0  0  0  0  0  0  0  0
  139.9290   79.8170  223.8280 N   0  0  0  0  0  0  0  0  0  0  0  0
  139.9110   78.8440  222.7190 C   0  0  0  0  0  0  0  0  0  0  0  0
  141.0080   76.3920  222.2280 C   0  0  0  0  0  0  0  0  0  0  0  0
  138.7910   75.2760  221.7010 C   0  0  0  0  0  0  0  0  0  0  0  0
  137.8690   76.3300  221.7470 C   0  0  0  0  0  0  0  0  0  0  0  0
  136.5370   76.0480  222.0890 C   0  0  0  0  0  0  0  0  0  0  0  0
  136.1480   74.7310  222.3920 C   0  0  0  0  0  0  0  0  0  0  0  0
  137.0860   73.6880  222.3440 C   0  0  0  0  0  0  0  0  0  0  0  0
  138.4010   73.9890  221.9710 C   0  0  0  0  0  0  0  0  0  0  0  0
  139.2744   68.9458  223.2080 H   0  0  0  0  0  0  0  0  0  0  0  0
  139.7531   67.6421  225.7333 H   0  0  0  0  0  0  0  0  0  0  0  0
  141.1068   70.4205  228.8052 H   0  0  0  0  0  0  0  0  0  0  0  0
  140.9711   72.3203  227.1542 H   0  0  0  0  0  0  0  0  0  0  0  0
  140.3410   72.8950  224.5480 H   0  0  0  0  0  0  0  0  0  0  0  0
  141.3524   73.8278  222.6018 H   0  0  0  0  0  0  0  0  0  0  0  0
  141.3263   73.4414  220.8748 H   0  0  0  0  0  0  0  0  0  0  0  0
  141.3750   75.1909  219.5279 H   0  0  0  0  0  0  0  0  0  0  0  0
  139.6605   75.5010  219.2920 H   0  0  0  0  0  0  0  0  0  0  0  0
  141.4622   77.5188  219.1988 H   0  0  0  0  0  0  0  0  0  0  0  0
  139.8709   77.8010  219.9417 H   0  0  0  0  0  0  0  0  0  0  0  0
  141.0927   79.5065  220.9965 H   0  0  0  0  0  0  0  0  0  0  0  0
  142.5322   78.6385  223.5654 H   0  0  0  0  0  0  0  0  0  0  0  0
  143.2999   79.3364  222.0820 H   0  0  0  0  0  0  0  0  0  0  0  0
  142.6886   80.8615  224.1982 H   0  0  0  0  0  0  0  0  0  0  0  0
  142.5204   81.4517  222.4857 H   0  0  0  0  0  0  0  0  0  0  0  0
  140.5621   81.7648  224.2937 H   0  0  0  0  0  0  0  0  0  0  0  0
  140.2384   81.4398  222.5431 H   0  0  0  0  0  0  0  0  0  0  0  0
  140.3850   79.3790  224.6640 H   0  0  0  0  0  0  0  0  0  0  0  0
  139.7687   77.8396  223.1444 H   0  0  0  0  0  0  0  0  0  0  0  0
  139.0918   79.1453  222.0495 H   0  0  0  0  0  0  0  0  0  0  0  0
  141.8766   75.9380  222.7274 H   0  0  0  0  0  0  0  0  0  0  0  0
  140.3362   76.8062  222.9943 H   0  0  0  0  0  0  0  0  0  0  0  0
  138.1830   77.3593  221.5193 H   0  0  0  0  0  0  0  0  0  0  0  0
  135.7953   76.8597  222.1201 H   0  0  0  0  0  0  0  0  0  0  0  0
  135.1047   74.5175  222.6676 H   0  0  0  0  0  0  0  0  0  0  0  0
  136.7942   72.6573  222.5939 H   0  0  0  0  0  0  0  0  0  0  0  0
  1  2  2  0
  2  3  1  0
  3  4  2  0
  4  5  1  0
  5  6  2  0
  6  7  1  0
  7  8  1  0
  7  9  2  0
  9 10  1  0
 10 11  2  0
 11 12  1  0
  2 13  1  0
 13 14  1  0
 15 14  1  6
 15 16  1  0
 16 17  1  0
 17 18  1  0
 18 19  1  0
 19 20  1  0
 20 21  1  0
 21 22  1  0
 22 23  1  0
 23 24  1  0
 18 25  1  0
 15 26  1  0
 26 27  2  0
 27 28  1  0
 28 29  2  0
 29 30  1  0
 30 31  2  0
 12  3  1  0
 31 13  1  0
 11  5  1  0
 25 15  1  0
 31 26  1  0
 24 19  1  0
  4 32  1  0
  6 33  1  0
  9 34  1  0
 10 35  1  0
 12 36  1  0
 14 37  1  0
 14 38  1  0
 16 39  1  0
 16 40  1  0
 17 41  1  0
 17 42  1  0
 19 43  1  6
 20 44  1  0
 20 45  1  0
 21 46  1  0
 21 47  1  0
 22 48  1  0
 22 49  1  0
 23 50  1  0
 24 51  1  0
 24 52  1  0
 25 53  1  0
 25 54  1  0
 27 55  1  0
 28 56  1  0
 29 57  1  0
 30 58  1  0
M  END
>  <UniqueID>  (16) 
22

>  <SMILES>  (16) 
O=C(c1cc2cc(F)ccc2[nH]1)N1C[C@@]2(CCN([C@@H]3CCCNC3)C2)c2ccccc21

>  <Energy>  (16) 
129.44821072843936

>  <Genealogy>  (16) 
O=C(c1cc2cc(F)ccc2[nH]1)N1C[C@@]2(CCN([C@@H]3CCCNC3)C2)c2ccccc21 (chirality)
O=C(c1cc2cc(F)ccc2[nH]1)N1C[C@@]2(CCN([C@@H]3CCCNC3)C2)c2ccccc21 (3D coordinates assigned)
O=C(c1cc2cc(F)ccc2[nH]1)N1C[C@@]2(CCN([C@@H]3CCCNC3)C2)c2ccccc21 (nonaromatic ring conformer: 129.44821072843936 kcal/mol)

>  <smiles>  (16) 
O=C(c1cc2cc(F)ccc2[nH]1)N1C[C@@]2(CCN(C3CCCNC3)C2)c2ccccc21

>  <score_type>  (16) 
oracle

>  <origin>  (16) 
autodockgpu

>  <m_score__min__energy>  (16) 
-8.2799999999999994

>  <m_primary>  (16) 
energy

>  <meeko>  (16) 
{"free_energy": -8.28, "intermolecular_energy": -9.17, "internal_energy": -1.21, "cluster_size": 8, "cluster_id": 1, "rank_in_cluster": 4}

>  <energy>  (16) 
-8.2

>  <cluster_rmsd>  (16) 
0.03

>  <rmsd>  (16) 
272.16

>  <cluster>  (16) 
3

$$$$
ABNVVKAVWJYHCL-CLOONOSVNA-N
     RDKit          3D

 58 63  0  0  0  0  0  0  0  0999 V2000
  139.0880   70.8910  221.3450 O   0  0  0  0  0  0  0  0  0  0  0  0
  139.7310   71.5910  222.1730 C   0  0  0  0  0  0  0  0  0  0  0  0
  139.8720   71.1170  223.5610 C   0  0  0  0  0  0  0  0  0  0  0  0
  139.6470   69.8120  223.9980 C   0  0  0  0  0  0  0  0  0  0  0  0
  139.9280   69.8350  225.3450 C   0  0  0  0  0  0  0  0  0  0  0  0
  139.8780   68.8200  226.2990 C   0  0  0  0  0  0  0  0  0  0  0  0
  140.2310   69.1450  227.6220 C   0  0  0  0  0  0  0  0  0  0  0  0
  140.1950   68.1900  228.5840 F   0  0  0  0  0  0  0  0  0  0  0  0
  140.6220   70.4620  227.9540 C   0  0  0  0  0  0  0  0  0  0  0  0
  140.6640   71.4640  226.9680 C   0  0  0  0  0  0  0  0  0  0  0  0
  140.3080   71.1120  225.6670 C   0  0  0  0  0  0  0  0  0  0  0  0
  140.2830   71.9060  224.5840 N   0  0  0  0  0  0  0  0  0  0  0  0
  140.2620   72.8570  221.7620 N   0  0  0  0  0  0  0  0  0  0  0  0
  139.4600   74.0700  221.6160 C   0  0  0  0  0  0  0  0  0  0  0  0
  140.4700   75.2070  221.2340 C   0  0  2  0  0  0  0  0  0  0  0  0
  140.6650   76.2240  222.3550 C   0  0  0  0  0  0  0  0  0  0  0  0
  140.9320   77.5250  221.6290 C   0  0  0  0  0  0  0  0  0  0  0  0
  140.1800   77.4770  220.3650 N   0  0  0  0  0  0  0  0  0  0  0  0
  140.8050   78.2770  219.2760 C   0  0  2  0  0  0  0  0  0  0  0  0
  142.1940   77.7170  218.8910 C   0  0  0  0  0  0  0  0  0  0  0  0
  142.8250   78.5250  217.7460 C   0  0  0  0  0  0  0  0  0  0  0  0
  142.3960   80.0020  217.7620 C   0  0  0  0  0  0  0  0  0  0  0  0
  142.1180   80.4610  219.1260 N   0  0  0  0  0  0  0  0  0  0  0  0
  140.9550   79.7680  219.7150 C   0  0  0  0  0  0  0  0  0  0  0  0
  140.0310   76.0480  220.0200 C   0  0  0  0  0  0  0  0  0  0  0  0
  141.7430   74.4380  220.9740 C   0  0  0  0  0  0  0  0  0  0  0  0
  142.9610   74.9040  220.4610 C   0  0  0  0  0  0  0  0  0  0  0  0
  144.0080   73.9900  220.2720 C   0  0  0  0  0  0  0  0  0  0  0  0
  143.8260   72.6300  220.5820 C   0  0  0  0  0  0  0  0  0  0  0  0
  142.5990   72.1800  221.0910 C   0  0  0  0  0  0  0  0  0  0  0  0
  141.5780   73.1160  221.3000 C   0  0  0  0  0  0  0  0  0  0  0  0
  139.3169   68.9518  223.3971 H   0  0  0  0  0  0  0  0  0  0  0  0
  139.5728   67.7988  226.0268 H   0  0  0  0  0  0  0  0  0  0  0  0
  140.8955   70.7051  228.9913 H   0  0  0  0  0  0  0  0  0  0  0  0
  140.9678   72.4919  227.2153 H   0  0  0  0  0  0  0  0  0  0  0  0
  140.5290   72.9200  224.5420 H   0  0  0  0  0  0  0  0  0  0  0  0
  138.7107   73.9404  220.8212 H   0  0  0  0  0  0  0  0  0  0  0  0
  138.9138   74.3078  222.5407 H   0  0  0  0  0  0  0  0  0  0  0  0
  139.7593   76.3010  222.9745 H   0  0  0  0  0  0  0  0  0  0  0  0
  141.4800   75.9471  223.0399 H   0  0  0  0  0  0  0  0  0  0  0  0
  140.5909   78.3745  222.2390 H   0  0  0  0  0  0  0  0  0  0  0  0
  142.0079   77.6544  221.4400 H   0  0  0  0  0  0  0  0  0  0  0  0
  140.1448   78.2134  218.3985 H   0  0  0  0  0  0  0  0  0  0  0  0
  142.8550   77.7638  219.7690 H   0  0  0  0  0  0  0  0  0  0  0  0
  142.0676   76.6777  218.5535 H   0  0  0  0  0  0  0  0  0  0  0  0
  143.9198   78.4745  217.8401 H   0  0  0  0  0  0  0  0  0  0  0  0
  142.4802   78.0868  216.7978 H   0  0  0  0  0  0  0  0  0  0  0  0
  143.2041   80.6145  217.3355 H   0  0  0  0  0  0  0  0  0  0  0  0
  141.4760   80.1028  217.1674 H   0  0  0  0  0  0  0  0  0  0  0  0
  142.9620   80.2830  219.7200 H   0  0  0  0  0  0  0  0  0  0  0  0
  141.0555   79.7962  220.8100 H   0  0  0  0  0  0  0  0  0  0  0  0
  140.0590   80.2942  219.3541 H   0  0  0  0  0  0  0  0  0  0  0  0
  138.9799   75.8316  219.7786 H   0  0  0  0  0  0  0  0  0  0  0  0
  140.6522   75.8032  219.1458 H   0  0  0  0  0  0  0  0  0  0  0  0
  143.0935   75.9670  220.2111 H   0  0  0  0  0  0  0  0  0  0  0  0
  144.9750   74.3380  219.8799 H   0  0  0  0  0  0  0  0  0  0  0  0
  144.6488   71.9171  220.4247 H   0  0  0  0  0  0  0  0  0  0  0  0
  142.4419   71.1158  221.3210 H   0  0  0  0  0  0  0  0  0  0  0  0
  1  2  2  0
  2  3  1  0
  3  4  2  0
  4  5  1  0
  5  6  2  0
  6  7  1  0
  7  8  1  0
  7  9  2  0
  9 10  1  0
 10 11  2  0
 11 12  1  0
  2 13  1  0
 13 14  1  0
 15 14  1  1
 15 16  1  0
 16 17  1  0
 17 18  1  0
 18 19  1  0
 19 20  1  0
 20 21  1  0
 21 22  1  0
 22 23  1  0
 23 24  1  0
 18 25  1  0
 15 26  1  0
 26 27  2  0
 27 28  1  0
 28 29  2  0
 29 30  1  0
 30 31  2  0
 12  3  1  0
 31 13  1  0
 11  5  1  0
 25 15  1  0
 31 26  1  0
 24 19  1  0
  4 32  1  0
  6 33  1  0
  9 34  1  0
 10 35  1  0
 12 36  1  0
 14 37  1  0
 14 38  1  0
 16 39  1  0
 16 40  1  0
 17 41  1  0
 17 42  1  0
 19 43  1  6
 20 44  1  0
 20 45  1  0
 21 46  1  0
 21 47  1  0
 22 48  1  0
 22 49  1  0
 23 50  1  0
 24 51  1  0
 24 52  1  0
 25 53  1  0
 25 54  1  0
 27 55  1  0
 28 56  1  0
 29 57  1  0
 30 58  1  0
M  END
>  <UniqueID>  (17) 
22

>  <SMILES>  (17) 
O=C(c1cc2cc(F)ccc2[nH]1)N1C[C@@]2(CCN([C@@H]3CCCNC3)C2)c2ccccc21

>  <Energy>  (17) 
129.44821072843936

>  <Genealogy>  (17) 
O=C(c1cc2cc(F)ccc2[nH]1)N1C[C@@]2(CCN([C@@H]3CCCNC3)C2)c2ccccc21 (chirality)
O=C(c1cc2cc(F)ccc2[nH]1)N1C[C@@]2(CCN([C@@H]3CCCNC3)C2)c2ccccc21 (3D coordinates assigned)
O=C(c1cc2cc(F)ccc2[nH]1)N1C[C@@]2(CCN([C@@H]3CCCNC3)C2)c2ccccc21 (nonaromatic ring conformer: 129.44821072843936 kcal/mol)

>  <smiles>  (17) 
O=C(c1cc2cc(F)ccc2[nH]1)N1C[C@@]2(CCN(C3CCCNC3)C2)c2ccccc21

>  <score_type>  (17) 
oracle

>  <origin>  (17) 
autodockgpu

>  <m_score__min__energy>  (17) 
-8.2799999999999994

>  <m_primary>  (17) 
energy

>  <meeko>  (17) 
{"free_energy": -8.19, "intermolecular_energy": -9.08, "internal_energy": -1.26, "cluster_size": 6, "cluster_id": 3, "rank_in_cluster": 6}

>  <energy>  (17) 
-8.2

>  <cluster_rmsd>  (17) 
0.03

>  <rmsd>  (17) 
272.17

>  <cluster>  (17) 
3

$$$$
ABNVVKAVWJYHCL-CLOONOSVNA-N
     RDKit          3D

 58 63  0  0  0  0  0  0  0  0999 V2000
  141.4380   76.6830  217.7470 O   0  0  0  0  0  0  0  0  0  0  0  0
  141.9160   76.4480  218.8900 C   0  0  0  0  0  0  0  0  0  0  0  0
  141.8800   77.5040  219.9170 C   0  0  0  0  0  0  0  0  0  0  0  0
  141.8660   78.8760  219.6680 C   0  0  0  0  0  0  0  0  0  0  0  0
  141.8030   79.4620  220.9120 C   0  0  0  0  0  0  0  0  0  0  0  0
  141.7640   80.8060  221.2800 C   0  0  0  0  0  0  0  0  0  0  0  0
  141.6960   81.1090  222.6530 C   0  0  0  0  0  0  0  0  0  0  0  0
  141.6580   82.4020  223.0570 F   0  0  0  0  0  0  0  0  0  0  0  0
  141.6690   80.0720  223.6120 C   0  0  0  0  0  0  0  0  0  0  0  0
  141.7080   78.7250  223.2090 C   0  0  0  0  0  0  0  0  0  0  0  0
  141.7760   78.4560  221.8430 C   0  0  0  0  0  0  0  0  0  0  0  0
  141.8170   77.2530  221.2480 N   0  0  0  0  0  0  0  0  0  0  0  0
  142.5320   75.1800  219.1470 N   0  0  0  0  0  0  0  0  0  0  0  0
  143.6910   74.6730  218.4160 C   0  0  0  0  0  0  0  0  0  0  0  0
  144.0580   73.3060  219.0920 C   0  0  2  0  0  0  0  0  0  0  0  0
  145.3670   73.3670  219.8740 C   0  0  0  0  0  0  0  0  0  0  0  0
  145.9410   71.9730  219.7420 C   0  0  0  0  0  0  0  0  0  0  0  0
  145.5170   71.4540  218.4320 N   0  0  0  0  0  0  0  0  0  0  0  0
  145.3880   69.9710  218.3990 C   0  0  2  0  0  0  0  0  0  0  0  0
  143.9720   69.5190  218.8230 C   0  0  0  0  0  0  0  0  0  0  0  0
  143.8310   67.9880  218.7590 C   0  0  0  0  0  0  0  0  0  0  0  0
  145.1570   67.2630  219.0440 C   0  0  0  0  0  0  0  0  0  0  0  0
  146.0050   68.0420  219.9520 N   0  0  0  0  0  0  0  0  0  0  0  0
  146.4420   69.3130  219.3440 C   0  0  0  0  0  0  0  0  0  0  0  0
  144.2580   72.1500  218.0920 C   0  0  0  0  0  0  0  0  0  0  0  0
  142.8860   73.0750  220.0160 C   0  0  0  0  0  0  0  0  0  0  0  0
  142.5850   71.9420  220.7840 C   0  0  0  0  0  0  0  0  0  0  0  0
  141.4110   71.9400  221.5520 C   0  0  0  0  0  0  0  0  0  0  0  0
  140.5510   73.0520  221.5340 C   0  0  0  0  0  0  0  0  0  0  0  0
  140.8660   74.1760  220.7560 C   0  0  0  0  0  0  0  0  0  0  0  0
  142.0580   74.1680  220.0220 C   0  0  0  0  0  0  0  0  0  0  0  0
  141.8983   79.3800  218.6908 H   0  0  0  0  0  0  0  0  0  0  0  0
  141.7857   81.6034  220.5225 H   0  0  0  0  0  0  0  0  0  0  0  0
  141.6171   80.3200  224.6824 H   0  0  0  0  0  0  0  0  0  0  0  0
  141.6855   77.9103  223.9478 H   0  0  0  0  0  0  0  0  0  0  0  0
  141.8050   76.3190  221.7160 H   0  0  0  0  0  0  0  0  0  0  0  0
  143.4388   74.5207  217.3562 H   0  0  0  0  0  0  0  0  0  0  0  0
  144.5326   75.3805  218.4503 H   0  0  0  0  0  0  0  0  0  0  0  0
  146.0480   74.1126  219.4379 H   0  0  0  0  0  0  0  0  0  0  0  0
  145.2190   73.6651  220.9224 H   0  0  0  0  0  0  0  0  0  0  0  0
  147.0390   72.0102  219.7959 H   0  0  0  0  0  0  0  0  0  0  0  0
  145.5843   71.3236  220.5551 H   0  0  0  0  0  0  0  0  0  0  0  0
  145.5653   69.6469  217.3629 H   0  0  0  0  0  0  0  0  0  0  0  0
  143.7828   69.8535  219.8537 H   0  0  0  0  0  0  0  0  0  0  0  0
  143.2434   69.9640  218.1294 H   0  0  0  0  0  0  0  0  0  0  0  0
  143.0877   67.6705  219.5051 H   0  0  0  0  0  0  0  0  0  0  0  0
  143.5174   67.7232  217.7384 H   0  0  0  0  0  0  0  0  0  0  0  0
  144.9405   66.2876  219.5041 H   0  0  0  0  0  0  0  0  0  0  0  0
  145.6937   67.1336  218.0926 H   0  0  0  0  0  0  0  0  0  0  0  0
  145.4640   68.2450  220.8260 H   0  0  0  0  0  0  0  0  0  0  0  0
  146.6682   70.0221  220.1539 H   0  0  0  0  0  0  0  0  0  0  0  0
  147.3187   69.0788  218.7222 H   0  0  0  0  0  0  0  0  0  0  0  0
  144.3186   72.5496  217.0689 H   0  0  0  0  0  0  0  0  0  0  0  0
  143.4113   71.4501  218.1479 H   0  0  0  0  0  0  0  0  0  0  0  0
  143.2566   71.0708  220.7846 H   0  0  0  0  0  0  0  0  0  0  0  0
  141.1624   71.0651  222.1706 H   0  0  0  0  0  0  0  0  0  0  0  0
  139.6279   73.0407  222.1321 H   0  0  0  0  0  0  0  0  0  0  0  0
  140.1914   75.0443  220.7234 H   0  0  0  0  0  0  0  0  0  0  0  0
  1  2  2  0
  2  3  1  0
  3  4  2  0
  4  5  1  0
  5  6  2  0
  6  7  1  0
  7  8  1  0
  7  9  2  0
  9 10  1  0
 10 11  2  0
 11 12  1  0
  2 13  1  0
 13 14  1  0
 15 14  1  6
 15 16  1  0
 16 17  1  0
 17 18  1  0
 18 19  1  0
 19 20  1  0
 20 21  1  0
 21 22  1  0
 22 23  1  0
 23 24  1  0
 18 25  1  0
 15 26  1  0
 26 27  2  0
 27 28  1  0
 28 29  2  0
 29 30  1  0
 30 31  2  0
 12  3  1  0
 31 13  1  0
 11  5  1  0
 25 15  1  0
 31 26  1  0
 24 19  1  0
  4 32  1  0
  6 33  1  0
  9 34  1  0
 10 35  1  0
 12 36  1  0
 14 37  1  0
 14 38  1  0
 16 39  1  0
 16 40  1  0
 17 41  1  0
 17 42  1  0
 19 43  1  6
 20 44  1  0
 20 45  1  0
 21 46  1  0
 21 47  1  0
 22 48  1  0
 22 49  1  0
 23 50  1  0
 24 51  1  0
 24 52  1  0
 25 53  1  0
 25 54  1  0
 27 55  1  0
 28 56  1  0
 29 57  1  0
 30 58  1  0
M  END
>  <UniqueID>  (18) 
22

>  <SMILES>  (18) 
O=C(c1cc2cc(F)ccc2[nH]1)N1C[C@@]2(CCN([C@@H]3CCCNC3)C2)c2ccccc21

>  <Energy>  (18) 
129.44821072843936

>  <Genealogy>  (18) 
O=C(c1cc2cc(F)ccc2[nH]1)N1C[C@@]2(CCN([C@@H]3CCCNC3)C2)c2ccccc21 (chirality)
O=C(c1cc2cc(F)ccc2[nH]1)N1C[C@@]2(CCN([C@@H]3CCCNC3)C2)c2ccccc21 (3D coordinates assigned)
O=C(c1cc2cc(F)ccc2[nH]1)N1C[C@@]2(CCN([C@@H]3CCCNC3)C2)c2ccccc21 (nonaromatic ring conformer: 129.44821072843936 kcal/mol)

>  <smiles>  (18) 
O=C(c1cc2cc(F)ccc2[nH]1)N1C[C@@]2(CCN(C3CCCNC3)C2)c2ccccc21

>  <score_type>  (18) 
oracle

>  <origin>  (18) 
autodockgpu

>  <m_score__min__energy>  (18) 
-8.2799999999999994

>  <m_primary>  (18) 
energy

>  <meeko>  (18) 
{"free_energy": -8.18, "intermolecular_energy": -9.07, "internal_energy": -1.33, "cluster_size": 6, "cluster_id": 2, "rank_in_cluster": 4}

>  <energy>  (18) 
-8.2

>  <cluster_rmsd>  (18) 
0.13

>  <rmsd>  (18) 
272.12

>  <cluster>  (18) 
3

$$$$
ABNVVKAVWJYHCL-CLOONOSVNA-N
     RDKit          3D

 58 63  0  0  0  0  0  0  0  0999 V2000
  139.1850   70.9010  221.1940 O   0  0  0  0  0  0  0  0  0  0  0  0
  139.4760   71.6830  222.1390 C   0  0  0  0  0  0  0  0  0  0  0  0
  139.7240   71.1300  223.4820 C   0  0  0  0  0  0  0  0  0  0  0  0
  139.5830   69.7900  223.8450 C   0  0  0  0  0  0  0  0  0  0  0  0
  139.9460   69.7420  225.1720 C   0  0  0  0  0  0  0  0  0  0  0  0
  139.9990   68.6680  226.0580 C   0  0  0  0  0  0  0  0  0  0  0  0
  140.4210   68.9250  227.3770 C   0  0  0  0  0  0  0  0  0  0  0  0
  140.4860   67.9110  228.2730 F   0  0  0  0  0  0  0  0  0  0  0  0
  140.7760   70.2350  227.7700 C   0  0  0  0  0  0  0  0  0  0  0  0
  140.7130   71.2980  226.8510 C   0  0  0  0  0  0  0  0  0  0  0  0
  140.2910   71.0120  225.5530 C   0  0  0  0  0  0  0  0  0  0  0  0
  140.1650   71.8710  224.5280 N   0  0  0  0  0  0  0  0  0  0  0  0
  139.5040   73.0960  221.9000 N   0  0  0  0  0  0  0  0  0  0  0  0
  140.7290   73.8630  221.6880 C   0  0  0  0  0  0  0  0  0  0  0  0
  140.2680   75.3310  221.3880 C   0  0  2  0  0  0  0  0  0  0  0  0
  140.5080   75.7400  219.9370 C   0  0  0  0  0  0  0  0  0  0  0  0
  140.7910   77.2250  220.0150 C   0  0  0  0  0  0  0  0  0  0  0  0
  141.4540   77.4720  221.3050 N   0  0  0  0  0  0  0  0  0  0  0  0
  141.2040   78.8360  221.8440 C   0  0  2  0  0  0  0  0  0  0  0  0
  142.3980   79.3360  222.6900 C   0  0  0  0  0  0  0  0  0  0  0  0
  142.1510   80.7580  223.2220 C   0  0  0  0  0  0  0  0  0  0  0  0
  140.6600   81.0430  223.4680 C   0  0  0  0  0  0  0  0  0  0  0  0
  139.9370   79.8200  223.8290 N   0  0  0  0  0  0  0  0  0  0  0  0
  139.9120   78.8460  222.7220 C   0  0  0  0  0  0  0  0  0  0  0  0
  141.0070   76.3990  222.2180 C   0  0  0  0  0  0  0  0  0  0  0  0
  138.7910   75.2780  221.6980 C   0  0  0  0  0  0  0  0  0  0  0  0
  137.8670   76.3300  221.7460 C   0  0  0  0  0  0  0  0  0  0  0  0
  136.5370   76.0450  222.0920 C   0  0  0  0  0  0  0  0  0  0  0  0
  136.1510   74.7270  222.3960 C   0  0  0  0  0  0  0  0  0  0  0  0
  137.0910   73.6870  222.3450 C   0  0  0  0  0  0  0  0  0  0  0  0
  138.4050   73.9900  221.9680 C   0  0  0  0  0  0  0  0  0  0  0  0
  139.2537   68.9546  223.2096 H   0  0  0  0  0  0  0  0  0  0  0  0
  139.7205   67.6531  225.7380 H   0  0  0  0  0  0  0  0  0  0  0  0
  141.1042   70.4250  228.8026 H   0  0  0  0  0  0  0  0  0  0  0  0
  140.9876   72.3214  227.1465 H   0  0  0  0  0  0  0  0  0  0  0  0
  140.3640   72.8960  224.5380 H   0  0  0  0  0  0  0  0  0  0  0  0
  141.3586   73.8360  222.5896 H   0  0  0  0  0  0  0  0  0  0  0  0
  141.3272   73.4500  220.8624 H   0  0  0  0  0  0  0  0  0  0  0  0
  141.3689   75.1998  219.5161 H   0  0  0  0  0  0  0  0  0  0  0  0
  139.6532   75.5064  219.2852 H   0  0  0  0  0  0  0  0  0  0  0  0
  141.4502   77.5274  219.1880 H   0  0  0  0  0  0  0  0  0  0  0  0
  139.8601   77.8056  219.9358 H   0  0  0  0  0  0  0  0  0  0  0  0
  141.0740   79.5110  220.9852 H   0  0  0  0  0  0  0  0  0  0  0  0
  142.5434   78.6552  223.5417 H   0  0  0  0  0  0  0  0  0  0  0  0
  143.2923   79.3558  222.0498 H   0  0  0  0  0  0  0  0  0  0  0  0
  142.6947   80.8794  224.1705 H   0  0  0  0  0  0  0  0  0  0  0  0
  142.5058   81.4669  222.4594 H   0  0  0  0  0  0  0  0  0  0  0  0
  140.5646   81.7708  224.2873 H   0  0  0  0  0  0  0  0  0  0  0  0
  140.2250   81.4427  222.5401 H   0  0  0  0  0  0  0  0  0  0  0  0
  140.4040   79.3860  224.6610 H   0  0  0  0  0  0  0  0  0  0  0  0
  139.7789   77.8415  223.1501 H   0  0  0  0  0  0  0  0  0  0  0  0
  139.0845   79.1425  222.0607 H   0  0  0  0  0  0  0  0  0  0  0  0
  141.8782   75.9466  222.7144 H   0  0  0  0  0  0  0  0  0  0  0  0
  140.3366   76.8113  222.9865 H   0  0  0  0  0  0  0  0  0  0  0  0
  138.1780   77.3599  221.5168 H   0  0  0  0  0  0  0  0  0  0  0  0
  135.7938   76.8553  222.1256 H   0  0  0  0  0  0  0  0  0  0  0  0
  135.1090   74.5112  222.6745 H   0  0  0  0  0  0  0  0  0  0  0  0
  136.8021   72.6557  222.5958 H   0  0  0  0  0  0  0  0  0  0  0  0
  1  2  2  0
  2  3  1  0
  3  4  2  0
  4  5  1  0
  5  6  2  0
  6  7  1  0
  7  8  1  0
  7  9  2  0
  9 10  1  0
 10 11  2  0
 11 12  1  0
  2 13  1  0
 13 14  1  0
 15 14  1  6
 15 16  1  0
 16 17  1  0
 17 18  1  0
 18 19  1  0
 19 20  1  0
 20 21  1  0
 21 22  1  0
 22 23  1  0
 23 24  1  0
 18 25  1  0
 15 26  1  0
 26 27  2  0
 27 28  1  0
 28 29  2  0
 29 30  1  0
 30 31  2  0
 12  3  1  0
 31 13  1  0
 11  5  1  0
 25 15  1  0
 31 26  1  0
 24 19  1  0
  4 32  1  0
  6 33  1  0
  9 34  1  0
 10 35  1  0
 12 36  1  0
 14 37  1  0
 14 38  1  0
 16 39  1  0
 16 40  1  0
 17 41  1  0
 17 42  1  0
 19 43  1  6
 20 44  1  0
 20 45  1  0
 21 46  1  0
 21 47  1  0
 22 48  1  0
 22 49  1  0
 23 50  1  0
 24 51  1  0
 24 52  1  0
 25 53  1  0
 25 54  1  0
 27 55  1  0
 28 56  1  0
 29 57  1  0
 30 58  1  0
M  END
>  <UniqueID>  (19) 
22

>  <SMILES>  (19) 
O=C(c1cc2cc(F)ccc2[nH]1)N1C[C@@]2(CCN([C@@H]3CCCNC3)C2)c2ccccc21

>  <Energy>  (19) 
129.44821072843936

>  <Genealogy>  (19) 
O=C(c1cc2cc(F)ccc2[nH]1)N1C[C@@]2(CCN([C@@H]3CCCNC3)C2)c2ccccc21 (chirality)
O=C(c1cc2cc(F)ccc2[nH]1)N1C[C@@]2(CCN([C@@H]3CCCNC3)C2)c2ccccc21 (3D coordinates assigned)
O=C(c1cc2cc(F)ccc2[nH]1)N1C[C@@]2(CCN([C@@H]3CCCNC3)C2)c2ccccc21 (nonaromatic ring conformer: 129.44821072843936 kcal/mol)

>  <smiles>  (19) 
O=C(c1cc2cc(F)ccc2[nH]1)N1C[C@@]2(CCN(C3CCCNC3)C2)c2ccccc21

>  <score_type>  (19) 
oracle

>  <origin>  (19) 
autodockgpu

>  <m_score__min__energy>  (19) 
-8.2799999999999994

>  <m_primary>  (19) 
energy

>  <meeko>  (19) 
{"free_energy": -8.28, "intermolecular_energy": -9.17, "internal_energy": -1.21, "cluster_size": 8, "cluster_id": 1, "rank_in_cluster": 3}

>  <energy>  (19) 
-8.19

>  <cluster_rmsd>  (19) 
0.11

>  <rmsd>  (19) 
272.12

>  <cluster>  (19) 
3

$$$$
ABNVVKAVWJYHCL-CLOONOSVNA-N
     RDKit          3D

 58 63  0  0  0  0  0  0  0  0999 V2000
  139.1230   70.9150  221.1880 O   0  0  0  0  0  0  0  0  0  0  0  0
  139.4320   71.6920  222.1310 C   0  0  0  0  0  0  0  0  0  0  0  0
  139.6910   71.1340  223.4700 C   0  0  0  0  0  0  0  0  0  0  0  0
  139.5480   69.7940  223.8300 C   0  0  0  0  0  0  0  0  0  0  0  0
  139.9240   69.7400  225.1540 C   0  0  0  0  0  0  0  0  0  0  0  0
  139.9810   68.6630  226.0360 C   0  0  0  0  0  0  0  0  0  0  0  0
  140.4160   68.9140  227.3510 C   0  0  0  0  0  0  0  0  0  0  0  0
  140.4860   67.8970  228.2440 F   0  0  0  0  0  0  0  0  0  0  0  0
  140.7800   70.2220  227.7450 C   0  0  0  0  0  0  0  0  0  0  0  0
  140.7120   71.2880  226.8300 C   0  0  0  0  0  0  0  0  0  0  0  0
  140.2770   71.0080  225.5360 C   0  0  0  0  0  0  0  0  0  0  0  0
  140.1450   71.8700  224.5140 N   0  0  0  0  0  0  0  0  0  0  0  0
  139.4720   73.1050  221.8940 N   0  0  0  0  0  0  0  0  0  0  0  0
  140.7030   73.8620  221.6820 C   0  0  0  0  0  0  0  0  0  0  0  0
  140.2530   75.3340  221.3840 C   0  0  2  0  0  0  0  0  0  0  0  0
  140.4940   75.7440  219.9340 C   0  0  0  0  0  0  0  0  0  0  0  0
  140.7890   77.2260  220.0140 C   0  0  0  0  0  0  0  0  0  0  0  0
  141.4560   77.4650  221.3030 N   0  0  0  0  0  0  0  0  0  0  0  0
  141.2180   78.8310  221.8450 C   0  0  2  0  0  0  0  0  0  0  0  0
  142.4090   79.3110  222.7070 C   0  0  0  0  0  0  0  0  0  0  0  0
  142.1750   80.7350  223.2410 C   0  0  0  0  0  0  0  0  0  0  0  0
  140.6850   81.0390  223.4710 C   0  0  0  0  0  0  0  0  0  0  0  0
  139.9420   79.8240  223.8200 N   0  0  0  0  0  0  0  0  0  0  0  0
  139.9170   78.8550  222.7080 C   0  0  0  0  0  0  0  0  0  0  0  0
  141.0020   76.3950  222.2150 C   0  0  0  0  0  0  0  0  0  0  0  0
  138.7760   75.2930  221.6970 C   0  0  0  0  0  0  0  0  0  0  0  0
  137.8610   76.3530  221.7490 C   0  0  0  0  0  0  0  0  0  0  0  0
  136.5290   76.0780  222.0960 C   0  0  0  0  0  0  0  0  0  0  0  0
  136.1330   74.7630  222.3990 C   0  0  0  0  0  0  0  0  0  0  0  0
  137.0650   73.7140  222.3450 C   0  0  0  0  0  0  0  0  0  0  0  0
  138.3800   74.0080  221.9660 C   0  0  0  0  0  0  0  0  0  0  0  0
  139.2090   68.9621  223.1952 H   0  0  0  0  0  0  0  0  0  0  0  0
  139.6956   67.6502  225.7154 H   0  0  0  0  0  0  0  0  0  0  0  0
  141.1189   70.4074  228.7749 H   0  0  0  0  0  0  0  0  0  0  0  0
  140.9930   72.3094  227.1261 H   0  0  0  0  0  0  0  0  0  0  0  0
  140.3480   72.8940  224.5260 H   0  0  0  0  0  0  0  0  0  0  0  0
  141.3330   73.8290  222.5831 H   0  0  0  0  0  0  0  0  0  0  0  0
  141.2975   73.4451  220.8557 H   0  0  0  0  0  0  0  0  0  0  0  0
  141.3498   75.1977  219.5108 H   0  0  0  0  0  0  0  0  0  0  0  0
  139.6362   75.5187  219.2833 H   0  0  0  0  0  0  0  0  0  0  0  0
  141.4492   77.5246  219.1864 H   0  0  0  0  0  0  0  0  0  0  0  0
  139.8628   77.8144  219.9373 H   0  0  0  0  0  0  0  0  0  0  0  0
  141.1069   79.5112  220.9877 H   0  0  0  0  0  0  0  0  0  0  0  0
  142.5346   78.6254  223.5580 H   0  0  0  0  0  0  0  0  0  0  0  0
  143.3113   79.3201  222.0779 H   0  0  0  0  0  0  0  0  0  0  0  0
  142.7094   80.8461  224.1960 H   0  0  0  0  0  0  0  0  0  0  0  0
  142.5480   81.4416  222.4849 H   0  0  0  0  0  0  0  0  0  0  0  0
  140.5898   81.7655  224.2914 H   0  0  0  0  0  0  0  0  0  0  0  0
  140.2657   81.4473  222.5396 H   0  0  0  0  0  0  0  0  0  0  0  0
  140.3930   79.3810  224.6550 H   0  0  0  0  0  0  0  0  0  0  0  0
  139.7654   77.8506  223.1301 H   0  0  0  0  0  0  0  0  0  0  0  0
  139.1015   79.1660  222.0385 H   0  0  0  0  0  0  0  0  0  0  0  0
  141.8702   75.9349  222.7095 H   0  0  0  0  0  0  0  0  0  0  0  0
  140.3363   76.8115  222.9853 H   0  0  0  0  0  0  0  0  0  0  0  0
  138.1804   77.3809  221.5222 H   0  0  0  0  0  0  0  0  0  0  0  0
  135.7922   76.8940  222.1311 H   0  0  0  0  0  0  0  0  0  0  0  0
  135.0897   74.5555  222.6792 H   0  0  0  0  0  0  0  0  0  0  0  0
  136.7684   72.6846  222.5949 H   0  0  0  0  0  0  0  0  0  0  0  0
  1  2  2  0
  2  3  1  0
  3  4  2  0
  4  5  1  0
  5  6  2  0
  6  7  1  0
  7  8  1  0
  7  9  2  0
  9 10  1  0
 10 11  2  0
 11 12  1  0
  2 13  1  0
 13 14  1  0
 15 14  1  6
 15 16  1  0
 16 17  1  0
 17 18  1  0
 18 19  1  0
 19 20  1  0
 20 21  1  0
 21 22  1  0
 22 23  1  0
 23 24  1  0
 18 25  1  0
 15 26  1  0
 26 27  2  0
 27 28  1  0
 28 29  2  0
 29 30  1  0
 30 31  2  0
 12  3  1  0
 31 13  1  0
 11  5  1  0
 25 15  1  0
 31 26  1  0
 24 19  1  0
  4 32  1  0
  6 33  1  0
  9 34  1  0
 10 35  1  0
 12 36  1  0
 14 37  1  0
 14 38  1  0
 16 39  1  0
 16 40  1  0
 17 41  1  0
 17 42  1  0
 19 43  1  6
 20 44  1  0
 20 45  1  0
 21 46  1  0
 21 47  1  0
 22 48  1  0
 22 49  1  0
 23 50  1  0
 24 51  1  0
 24 52  1  0
 25 53  1  0
 25 54  1  0
 27 55  1  0
 28 56  1  0
 29 57  1  0
 30 58  1  0
M  END
>  <UniqueID>  (20) 
22

>  <SMILES>  (20) 
O=C(c1cc2cc(F)ccc2[nH]1)N1C[C@@]2(CCN([C@@H]3CCCNC3)C2)c2ccccc21

>  <Energy>  (20) 
129.44821072843936

>  <Genealogy>  (20) 
O=C(c1cc2cc(F)ccc2[nH]1)N1C[C@@]2(CCN([C@@H]3CCCNC3)C2)c2ccccc21 (chirality)
O=C(c1cc2cc(F)ccc2[nH]1)N1C[C@@]2(CCN([C@@H]3CCCNC3)C2)c2ccccc21 (3D coordinates assigned)
O=C(c1cc2cc(F)ccc2[nH]1)N1C[C@@]2(CCN([C@@H]3CCCNC3)C2)c2ccccc21 (nonaromatic ring conformer: 129.44821072843936 kcal/mol)

>  <smiles>  (20) 
O=C(c1cc2cc(F)ccc2[nH]1)N1C[C@@]2(CCN(C3CCCNC3)C2)c2ccccc21

>  <score_type>  (20) 
oracle

>  <origin>  (20) 
autodockgpu

>  <m_score__min__energy>  (20) 
-8.2799999999999994

>  <m_primary>  (20) 
energy

>  <meeko>  (20) 
{"free_energy": -8.28, "intermolecular_energy": -9.17, "internal_energy": -1.21, "cluster_size": 8, "cluster_id": 1, "rank_in_cluster": 6}

>  <energy>  (20) 
-8.19

>  <cluster_rmsd>  (20) 
0.05

>  <rmsd>  (20) 
272.15

>  <cluster>  (20) 
3

$$$$
ABNVVKAVWJYHCL-CLOONOSVNA-N
     RDKit          3D

 58 63  0  0  0  0  0  0  0  0999 V2000
  139.1070   70.9090  221.3450 O   0  0  0  0  0  0  0  0  0  0  0  0
  139.7600   71.6020  222.1700 C   0  0  0  0  0  0  0  0  0  0  0  0
  139.9110   71.1230  223.5550 C   0  0  0  0  0  0  0  0  0  0  0  0
  139.7070   69.8120  223.9850 C   0  0  0  0  0  0  0  0  0  0  0  0
  139.9890   69.8320  225.3330 C   0  0  0  0  0  0  0  0  0  0  0  0
  139.9560   68.8110  226.2810 C   0  0  0  0  0  0  0  0  0  0  0  0
  140.3060   69.1350  227.6050 C   0  0  0  0  0  0  0  0  0  0  0  0
  140.2860   68.1740  228.5610 F   0  0  0  0  0  0  0  0  0  0  0  0
  140.6760   70.4550  227.9440 C   0  0  0  0  0  0  0  0  0  0  0  0
  140.7010   71.4630  226.9630 C   0  0  0  0  0  0  0  0  0  0  0  0
  140.3490   71.1130  225.6610 C   0  0  0  0  0  0  0  0  0  0  0  0
  140.3110   71.9130  224.5820 N   0  0  0  0  0  0  0  0  0  0  0  0
  140.2950   72.8670  221.7580 N   0  0  0  0  0  0  0  0  0  0  0  0
  139.4980   74.0830  221.6180 C   0  0  0  0  0  0  0  0  0  0  0  0
  140.5100   75.2160  221.2330 C   0  0  2  0  0  0  0  0  0  0  0  0
  140.7140   76.2310  222.3540 C   0  0  0  0  0  0  0  0  0  0  0  0
  140.9840   77.5320  221.6290 C   0  0  0  0  0  0  0  0  0  0  0  0
  140.2260   77.4890  220.3680 N   0  0  0  0  0  0  0  0  0  0  0  0
  140.8500   78.2880  219.2780 C   0  0  2  0  0  0  0  0  0  0  0  0
  142.2360   77.7240  218.8890 C   0  0  0  0  0  0  0  0  0  0  0  0
  142.8670   78.5310  217.7410 C   0  0  0  0  0  0  0  0  0  0  0  0
  142.4410   80.0090  217.7600 C   0  0  0  0  0  0  0  0  0  0  0  0
  142.1690   80.4680  219.1250 N   0  0  0  0  0  0  0  0  0  0  0  0
  141.0060   79.7780  219.7170 C   0  0  0  0  0  0  0  0  0  0  0  0
  140.0700   76.0610  220.0220 C   0  0  0  0  0  0  0  0  0  0  0  0
  141.7790   74.4420  220.9670 C   0  0  0  0  0  0  0  0  0  0  0  0
  142.9970   74.9040  220.4500 C   0  0  0  0  0  0  0  0  0  0  0  0
  144.0400   73.9860  220.2560 C   0  0  0  0  0  0  0  0  0  0  0  0
  143.8540   72.6270  220.5640 C   0  0  0  0  0  0  0  0  0  0  0  0
  142.6260   72.1810  221.0780 C   0  0  0  0  0  0  0  0  0  0  0  0
  141.6100   73.1200  221.2920 C   0  0  0  0  0  0  0  0  0  0  0  0
  139.3900   68.9500  223.3796 H   0  0  0  0  0  0  0  0  0  0  0  0
  139.6662   67.7867  226.0038 H   0  0  0  0  0  0  0  0  0  0  0  0
  140.9465   70.6967  228.9824 H   0  0  0  0  0  0  0  0  0  0  0  0
  140.9891   72.4941  227.2156 H   0  0  0  0  0  0  0  0  0  0  0  0
  140.5400   72.9310  224.5460 H   0  0  0  0  0  0  0  0  0  0  0  0
  138.7442   73.9578  220.8267 H   0  0  0  0  0  0  0  0  0  0  0  0
  138.9576   74.3215  222.5460 H   0  0  0  0  0  0  0  0  0  0  0  0
  139.8112   76.3113  222.9772 H   0  0  0  0  0  0  0  0  0  0  0  0
  141.5308   75.9496  223.0350 H   0  0  0  0  0  0  0  0  0  0  0  0
  140.6495   78.3821  222.2417 H   0  0  0  0  0  0  0  0  0  0  0  0
  142.0596   77.6570  221.4356 H   0  0  0  0  0  0  0  0  0  0  0  0
  140.1868   78.2272  218.4026 H   0  0  0  0  0  0  0  0  0  0  0  0
  142.8996   77.7687  219.7652 H   0  0  0  0  0  0  0  0  0  0  0  0
  142.1054   76.6852  218.5517 H   0  0  0  0  0  0  0  0  0  0  0  0
  143.9619   78.4777  217.8319 H   0  0  0  0  0  0  0  0  0  0  0  0
  142.5196   78.0939  216.7932 H   0  0  0  0  0  0  0  0  0  0  0  0
  143.2487   80.6201  217.3309 H   0  0  0  0  0  0  0  0  0  0  0  0
  141.5188   80.1118  217.1692 H   0  0  0  0  0  0  0  0  0  0  0  0
  143.0150   80.2870  219.7170 H   0  0  0  0  0  0  0  0  0  0  0  0
  141.1100   79.8054  220.8117 H   0  0  0  0  0  0  0  0  0  0  0  0
  140.1105   80.3069  219.3588 H   0  0  0  0  0  0  0  0  0  0  0  0
  139.0171   75.8493  219.7842 H   0  0  0  0  0  0  0  0  0  0  0  0
  140.6873   75.8150  219.1454 H   0  0  0  0  0  0  0  0  0  0  0  0
  143.1327   75.9668  220.2009 H   0  0  0  0  0  0  0  0  0  0  0  0
  145.0071   74.3309  219.8613 H   0  0  0  0  0  0  0  0  0  0  0  0
  144.6731   71.9109  220.4018 H   0  0  0  0  0  0  0  0  0  0  0  0
  142.4657   71.1172  221.3075 H   0  0  0  0  0  0  0  0  0  0  0  0
  1  2  2  0
  2  3  1  0
  3  4  2  0
  4  5  1  0
  5  6  2  0
  6  7  1  0
  7  8  1  0
  7  9  2  0
  9 10  1  0
 10 11  2  0
 11 12  1  0
  2 13  1  0
 13 14  1  0
 15 14  1  1
 15 16  1  0
 16 17  1  0
 17 18  1  0
 18 19  1  0
 19 20  1  0
 20 21  1  0
 21 22  1  0
 22 23  1  0
 23 24  1  0
 18 25  1  0
 15 26  1  0
 26 27  2  0
 27 28  1  0
 28 29  2  0
 29 30  1  0
 30 31  2  0
 12  3  1  0
 31 13  1  0
 11  5  1  0
 25 15  1  0
 31 26  1  0
 24 19  1  0
  4 32  1  0
  6 33  1  0
  9 34  1  0
 10 35  1  0
 12 36  1  0
 14 37  1  0
 14 38  1  0
 16 39  1  0
 16 40  1  0
 17 41  1  0
 17 42  1  0
 19 43  1  6
 20 44  1  0
 20 45  1  0
 21 46  1  0
 21 47  1  0
 22 48  1  0
 22 49  1  0
 23 50  1  0
 24 51  1  0
 24 52  1  0
 25 53  1  0
 25 54  1  0
 27 55  1  0
 28 56  1  0
 29 57  1  0
 30 58  1  0
M  END
>  <UniqueID>  (21) 
23

>  <SMILES>  (21) 
O=C(c1cc2cc(F)ccc2[nH]1)N1C[C@@]2(CCN([C@@H]3CCCNC3)C2)c2ccccc21

>  <Energy>  (21) 
129.555333351433

>  <Genealogy>  (21) 
O=C(c1cc2cc(F)ccc2[nH]1)N1C[C@@]2(CCN([C@@H]3CCCNC3)C2)c2ccccc21 (chirality)
O=C(c1cc2cc(F)ccc2[nH]1)N1C[C@@]2(CCN([C@@H]3CCCNC3)C2)c2ccccc21 (3D coordinates assigned)
O=C(c1cc2cc(F)ccc2[nH]1)N1C[C@@]2(CCN([C@@H]3CCCNC3)C2)c2ccccc21 (nonaromatic ring conformer: 129.555333351433 kcal/mol)

>  <smiles>  (21) 
O=C(c1cc2cc(F)ccc2[nH]1)N1C[C@@]2(CCN(C3CCCNC3)C2)c2ccccc21

>  <score_type>  (21) 
oracle

>  <origin>  (21) 
autodockgpu

>  <m_score__min__energy>  (21) 
-8.2799999999999994

>  <m_primary>  (21) 
energy

>  <meeko>  (21) 
{"free_energy": -8.2, "intermolecular_energy": -9.09, "internal_energy": -1.26, "cluster_size": 6, "cluster_id": 3, "rank_in_cluster": 3}

>  <energy>  (21) 
-8.28

>  <cluster_rmsd>  (21) 
0.0

>  <rmsd>  (21) 
272.49

>  <cluster>  (21) 
1

$$$$
ABNVVKAVWJYHCL-CLOONOSVNA-N
     RDKit          3D

 58 63  0  0  0  0  0  0  0  0999 V2000
  139.0370   70.9100  221.3860 O   0  0  0  0  0  0  0  0  0  0  0  0
  139.7140   71.5930  222.2010 C   0  0  0  0  0  0  0  0  0  0  0  0
  139.8810   71.1100  223.5830 C   0  0  0  0  0  0  0  0  0  0  0  0
  139.6760   69.7990  224.0130 C   0  0  0  0  0  0  0  0  0  0  0  0
  139.9760   69.8150  225.3570 C   0  0  0  0  0  0  0  0  0  0  0  0
  139.9500   68.7920  226.3030 C   0  0  0  0  0  0  0  0  0  0  0  0
  140.3200   69.1110  227.6240 C   0  0  0  0  0  0  0  0  0  0  0  0
  140.3080   68.1480  228.5780 F   0  0  0  0  0  0  0  0  0  0  0  0
  140.7030   70.4290  227.9600 C   0  0  0  0  0  0  0  0  0  0  0  0
  140.7210   71.4390  226.9810 C   0  0  0  0  0  0  0  0  0  0  0  0
  140.3480   71.0930  225.6830 C   0  0  0  0  0  0  0  0  0  0  0  0
  140.3000   71.8950  224.6060 N   0  0  0  0  0  0  0  0  0  0  0  0
  140.2610   72.8500  221.7820 N   0  0  0  0  0  0  0  0  0  0  0  0
  139.4730   74.0710  221.6280 C   0  0  0  0  0  0  0  0  0  0  0  0
  140.4960   75.1940  221.2390 C   0  0  2  0  0  0  0  0  0  0  0  0
  140.7030   76.2160  222.3530 C   0  0  0  0  0  0  0  0  0  0  0  0
  140.9860   77.5090  221.6180 C   0  0  0  0  0  0  0  0  0  0  0  0
  140.2330   77.4620  220.3550 N   0  0  0  0  0  0  0  0  0  0  0  0
  140.8680   78.2470  219.2610 C   0  0  2  0  0  0  0  0  0  0  0  0
  142.2540   77.6740  218.8870 C   0  0  0  0  0  0  0  0  0  0  0  0
  142.8950   78.4670  217.7360 C   0  0  0  0  0  0  0  0  0  0  0  0
  142.4760   79.9470  217.7360 C   0  0  0  0  0  0  0  0  0  0  0  0
  142.1960   80.4200  219.0960 N   0  0  0  0  0  0  0  0  0  0  0  0
  141.0260   79.7410  219.6860 C   0  0  0  0  0  0  0  0  0  0  0  0
  140.0670   76.0320  220.0190 C   0  0  0  0  0  0  0  0  0  0  0  0
  141.7600   74.4080  220.9840 C   0  0  0  0  0  0  0  0  0  0  0  0
  142.9840   74.8570  220.4680 C   0  0  0  0  0  0  0  0  0  0  0  0
  144.0200   73.9290  220.2860 C   0  0  0  0  0  0  0  0  0  0  0  0
  143.8220   72.5740  220.6040 C   0  0  0  0  0  0  0  0  0  0  0  0
  142.5900   72.1410  221.1160 C   0  0  0  0  0  0  0  0  0  0  0  0
  141.5800   73.0900  221.3180 C   0  0  0  0  0  0  0  0  0  0  0  0
  139.3466   68.9399  223.4102 H   0  0  0  0  0  0  0  0  0  0  0  0
  139.6506   67.7700  226.0273 H   0  0  0  0  0  0  0  0  0  0  0  0
  140.9893   70.6671  228.9951 H   0  0  0  0  0  0  0  0  0  0  0  0
  141.0195   72.4677  227.2313 H   0  0  0  0  0  0  0  0  0  0  0  0
  140.5350   72.9120  224.5690 H   0  0  0  0  0  0  0  0  0  0  0  0
  138.7225   73.9448  220.8338 H   0  0  0  0  0  0  0  0  0  0  0  0
  138.9294   74.3209  222.5510 H   0  0  0  0  0  0  0  0  0  0  0  0
  139.7982   76.3082  222.9717 H   0  0  0  0  0  0  0  0  0  0  0  0
  141.5144   75.9340  223.0400 H   0  0  0  0  0  0  0  0  0  0  0  0
  140.6559   78.3667  222.2224 H   0  0  0  0  0  0  0  0  0  0  0  0
  142.0633   77.6236  221.4276 H   0  0  0  0  0  0  0  0  0  0  0  0
  140.2111   78.1793  218.3813 H   0  0  0  0  0  0  0  0  0  0  0  0
  142.9120   77.7249  219.7670 H   0  0  0  0  0  0  0  0  0  0  0  0
  142.1218   76.6323  218.5592 H   0  0  0  0  0  0  0  0  0  0  0  0
  143.9891   78.4100  217.8347 H   0  0  0  0  0  0  0  0  0  0  0  0
  142.5507   78.0219  216.7908 H   0  0  0  0  0  0  0  0  0  0  0  0
  143.2898   80.5501  217.3070 H   0  0  0  0  0  0  0  0  0  0  0  0
  141.5594   80.0491  217.1365 H   0  0  0  0  0  0  0  0  0  0  0  0
  143.0370   80.2420  219.6940 H   0  0  0  0  0  0  0  0  0  0  0  0
  141.1215   79.7793  220.7812 H   0  0  0  0  0  0  0  0  0  0  0  0
  140.1353   80.2696  219.3157 H   0  0  0  0  0  0  0  0  0  0  0  0
  139.0134   75.8265  219.7788 H   0  0  0  0  0  0  0  0  0  0  0  0
  140.6851   75.7740  219.1464 H   0  0  0  0  0  0  0  0  0  0  0  0
  143.1290   75.9166  220.2109 H   0  0  0  0  0  0  0  0  0  0  0  0
  144.9915   74.2629  219.8928 H   0  0  0  0  0  0  0  0  0  0  0  0
  144.6364   71.8506  220.4507 H   0  0  0  0  0  0  0  0  0  0  0  0
  142.4210   71.0803  221.3534 H   0  0  0  0  0  0  0  0  0  0  0  0
  1  2  2  0
  2  3  1  0
  3  4  2  0
  4  5  1  0
  5  6  2  0
  6  7  1  0
  7  8  1  0
  7  9  2  0
  9 10  1  0
 10 11  2  0
 11 12  1  0
  2 13  1  0
 13 14  1  0
 15 14  1  1
 15 16  1  0
 16 17  1  0
 17 18  1  0
 18 19  1  0
 19 20  1  0
 20 21  1  0
 21 22  1  0
 22 23  1  0
 23 24  1  0
 18 25  1  0
 15 26  1  0
 26 27  2  0
 27 28  1  0
 28 29  2  0
 29 30  1  0
 30 31  2  0
 12  3  1  0
 31 13  1  0
 11  5  1  0
 25 15  1  0
 31 26  1  0
 24 19  1  0
  4 32  1  0
  6 33  1  0
  9 34  1  0
 10 35  1  0
 12 36  1  0
 14 37  1  0
 14 38  1  0
 16 39  1  0
 16 40  1  0
 17 41  1  0
 17 42  1  0
 19 43  1  6
 20 44  1  0
 20 45  1  0
 21 46  1  0
 21 47  1  0
 22 48  1  0
 22 49  1  0
 23 50  1  0
 24 51  1  0
 24 52  1  0
 25 53  1  0
 25 54  1  0
 27 55  1  0
 28 56  1  0
 29 57  1  0
 30 58  1  0
M  END
>  <UniqueID>  (22) 
23

>  <SMILES>  (22) 
O=C(c1cc2cc(F)ccc2[nH]1)N1C[C@@]2(CCN([C@@H]3CCCNC3)C2)c2ccccc21

>  <Energy>  (22) 
129.555333351433

>  <Genealogy>  (22) 
O=C(c1cc2cc(F)ccc2[nH]1)N1C[C@@]2(CCN([C@@H]3CCCNC3)C2)c2ccccc21 (chirality)
O=C(c1cc2cc(F)ccc2[nH]1)N1C[C@@]2(CCN([C@@H]3CCCNC3)C2)c2ccccc21 (3D coordinates assigned)
O=C(c1cc2cc(F)ccc2[nH]1)N1C[C@@]2(CCN([C@@H]3CCCNC3)C2)c2ccccc21 (nonaromatic ring conformer: 129.555333351433 kcal/mol)

>  <smiles>  (22) 
O=C(c1cc2cc(F)ccc2[nH]1)N1C[C@@]2(CCN(C3CCCNC3)C2)c2ccccc21

>  <score_type>  (22) 
oracle

>  <origin>  (22) 
autodockgpu

>  <m_score__min__energy>  (22) 
-8.2799999999999994

>  <m_primary>  (22) 
energy

>  <meeko>  (22) 
{"free_energy": -8.2, "intermolecular_energy": -9.1, "internal_energy": -1.26, "cluster_size": 6, "cluster_id": 3, "rank_in_cluster": 2}

>  <energy>  (22) 
-8.28

>  <cluster_rmsd>  (22) 
0.05

>  <rmsd>  (22) 
272.5

>  <cluster>  (22) 
1

$$$$
ABNVVKAVWJYHCL-CLOONOSVNA-N
     RDKit          3D

 58 63  0  0  0  0  0  0  0  0999 V2000
  139.1530   70.9030  221.1980 O   0  0  0  0  0  0  0  0  0  0  0  0
  139.4540   71.6840  222.1400 C   0  0  0  0  0  0  0  0  0  0  0  0
  139.7130   71.1310  223.4810 C   0  0  0  0  0  0  0  0  0  0  0  0
  139.5940   69.7890  223.8390 C   0  0  0  0  0  0  0  0  0  0  0  0
  139.9610   69.7410  225.1660 C   0  0  0  0  0  0  0  0  0  0  0  0
  140.0330   68.6660  226.0490 C   0  0  0  0  0  0  0  0  0  0  0  0
  140.4530   68.9260  227.3670 C   0  0  0  0  0  0  0  0  0  0  0  0
  140.5360   67.9090  228.2600 F   0  0  0  0  0  0  0  0  0  0  0  0
  140.7880   70.2400  227.7640 C   0  0  0  0  0  0  0  0  0  0  0  0
  140.7070   71.3040  226.8480 C   0  0  0  0  0  0  0  0  0  0  0  0
  140.2870   71.0160  225.5500 C   0  0  0  0  0  0  0  0  0  0  0  0
  140.1450   71.8760  224.5280 N   0  0  0  0  0  0  0  0  0  0  0  0
  139.4820   73.0970  221.9000 N   0  0  0  0  0  0  0  0  0  0  0  0
  140.7070   73.8640  221.6880 C   0  0  0  0  0  0  0  0  0  0  0  0
  140.2460   75.3320  221.3870 C   0  0  2  0  0  0  0  0  0  0  0  0
  140.4850   75.7410  219.9360 C   0  0  0  0  0  0  0  0  0  0  0  0
  140.7680   77.2260  220.0130 C   0  0  0  0  0  0  0  0  0  0  0  0
  141.4320   77.4720  221.3020 N   0  0  0  0  0  0  0  0  0  0  0  0
  141.1830   78.8370  221.8420 C   0  0  2  0  0  0  0  0  0  0  0  0
  142.3760   79.3350  222.6900 C   0  0  0  0  0  0  0  0  0  0  0  0
  142.1300   80.7570  223.2220 C   0  0  0  0  0  0  0  0  0  0  0  0
  140.6380   81.0450  223.4640 C   0  0  0  0  0  0  0  0  0  0  0  0
  139.9120   79.8230  223.8240 N   0  0  0  0  0  0  0  0  0  0  0  0
  139.8890   78.8490  222.7160 C   0  0  0  0  0  0  0  0  0  0  0  0
  140.9860   76.4000  222.2160 C   0  0  0  0  0  0  0  0  0  0  0  0
  138.7690   75.2800  221.6980 C   0  0  0  0  0  0  0  0  0  0  0  0
  137.8450   76.3320  221.7470 C   0  0  0  0  0  0  0  0  0  0  0  0
  136.5160   76.0470  222.0940 C   0  0  0  0  0  0  0  0  0  0  0  0
  136.1300   74.7290  222.3980 C   0  0  0  0  0  0  0  0  0  0  0  0
  137.0700   73.6890  222.3470 C   0  0  0  0  0  0  0  0  0  0  0  0
  138.3830   73.9920  221.9690 C   0  0  0  0  0  0  0  0  0  0  0  0
  139.2763   68.9511  223.2011 H   0  0  0  0  0  0  0  0  0  0  0  0
  139.7703   67.6476  225.7269 H   0  0  0  0  0  0  0  0  0  0  0  0
  141.1144   70.4321  228.7968 H   0  0  0  0  0  0  0  0  0  0  0  0
  140.9667   72.3305  227.1460 H   0  0  0  0  0  0  0  0  0  0  0  0
  140.3280   72.9040  224.5410 H   0  0  0  0  0  0  0  0  0  0  0  0
  141.3362   73.8376  222.5899 H   0  0  0  0  0  0  0  0  0  0  0  0
  141.3055   73.4506  220.8628 H   0  0  0  0  0  0  0  0  0  0  0  0
  141.3456   75.2008  219.5147 H   0  0  0  0  0  0  0  0  0  0  0  0
  139.6296   75.5074  219.2851 H   0  0  0  0  0  0  0  0  0  0  0  0
  141.4265   77.5283  219.1853 H   0  0  0  0  0  0  0  0  0  0  0  0
  139.8374   77.8071  219.9341 H   0  0  0  0  0  0  0  0  0  0  0  0
  141.0561   79.5129  220.9835 H   0  0  0  0  0  0  0  0  0  0  0  0
  142.5190   78.6538  223.5417 H   0  0  0  0  0  0  0  0  0  0  0  0
  143.2714   79.3538  222.0513 H   0  0  0  0  0  0  0  0  0  0  0  0
  142.6712   80.8768  224.1721 H   0  0  0  0  0  0  0  0  0  0  0  0
  142.4883   81.4656  222.4607 H   0  0  0  0  0  0  0  0  0  0  0  0
  140.5417   81.7735  224.2825 H   0  0  0  0  0  0  0  0  0  0  0  0
  140.2060   81.4450  222.5348 H   0  0  0  0  0  0  0  0  0  0  0  0
  140.3770   79.3880  224.6560 H   0  0  0  0  0  0  0  0  0  0  0  0
  139.7530   77.8446  223.1434 H   0  0  0  0  0  0  0  0  0  0  0  0
  139.0641   79.1474  222.0523 H   0  0  0  0  0  0  0  0  0  0  0  0
  141.8576   75.9477  222.7117 H   0  0  0  0  0  0  0  0  0  0  0  0
  140.3167   76.8127  222.9852 H   0  0  0  0  0  0  0  0  0  0  0  0
  138.1558   77.3620  221.5177 H   0  0  0  0  0  0  0  0  0  0  0  0
  135.7729   76.8573  222.1285 H   0  0  0  0  0  0  0  0  0  0  0  0
  135.0880   74.5132  222.6765 H   0  0  0  0  0  0  0  0  0  0  0  0
  136.7814   72.6578  222.5986 H   0  0  0  0  0  0  0  0  0  0  0  0
  1  2  2  0
  2  3  1  0
  3  4  2  0
  4  5  1  0
  5  6  2  0
  6  7  1  0
  7  8  1  0
  7  9  2  0
  9 10  1  0
 10 11  2  0
 11 12  1  0
  2 13  1  0
 13 14  1  0
 15 14  1  6
 15 16  1  0
 16 17  1  0
 17 18  1  0
 18 19  1  0
 19 20  1  0
 20 21  1  0
 21 22  1  0
 22 23  1  0
 23 24  1  0
 18 25  1  0
 15 26  1  0
 26 27  2  0
 27 28  1  0
 28 29  2  0
 29 30  1  0
 30 31  2  0
 12  3  1  0
 31 13  1  0
 11  5  1  0
 25 15  1  0
 31 26  1  0
 24 19  1  0
  4 32  1  0
  6 33  1  0
  9 34  1  0
 10 35  1  0
 12 36  1  0
 14 37  1  0
 14 38  1  0
 16 39  1  0
 16 40  1  0
 17 41  1  0
 17 42  1  0
 19 43  1  6
 20 44  1  0
 20 45  1  0
 21 46  1  0
 21 47  1  0
 22 48  1  0
 22 49  1  0
 23 50  1  0
 24 51  1  0
 24 52  1  0
 25 53  1  0
 25 54  1  0
 27 55  1  0
 28 56  1  0
 29 57  1  0
 30 58  1  0
M  END
>  <UniqueID>  (23) 
23

>  <SMILES>  (23) 
O=C(c1cc2cc(F)ccc2[nH]1)N1C[C@@]2(CCN([C@@H]3CCCNC3)C2)c2ccccc21

>  <Energy>  (23) 
129.555333351433

>  <Genealogy>  (23) 
O=C(c1cc2cc(F)ccc2[nH]1)N1C[C@@]2(CCN([C@@H]3CCCNC3)C2)c2ccccc21 (chirality)
O=C(c1cc2cc(F)ccc2[nH]1)N1C[C@@]2(CCN([C@@H]3CCCNC3)C2)c2ccccc21 (3D coordinates assigned)
O=C(c1cc2cc(F)ccc2[nH]1)N1C[C@@]2(CCN([C@@H]3CCCNC3)C2)c2ccccc21 (nonaromatic ring conformer: 129.555333351433 kcal/mol)

>  <smiles>  (23) 
O=C(c1cc2cc(F)ccc2[nH]1)N1C[C@@]2(CCN(C3CCCNC3)C2)c2ccccc21

>  <score_type>  (23) 
oracle

>  <origin>  (23) 
autodockgpu

>  <m_score__min__energy>  (23) 
-8.2799999999999994

>  <m_primary>  (23) 
energy

>  <meeko>  (23) 
{"free_energy": -8.27, "intermolecular_energy": -9.17, "internal_energy": -1.21, "cluster_size": 8, "cluster_id": 1, "rank_in_cluster": 7}

>  <energy>  (23) 
-8.28

>  <cluster_rmsd>  (23) 
0.05

>  <rmsd>  (23) 
272.5

>  <cluster>  (23) 
1

$$$$
ABNVVKAVWJYHCL-CLOONOSVNA-N
     RDKit          3D

 58 63  0  0  0  0  0  0  0  0999 V2000
  139.2460   70.7810  221.2940 O   0  0  0  0  0  0  0  0  0  0  0  0
  139.8410   71.5090  222.1330 C   0  0  0  0  0  0  0  0  0  0  0  0
  139.9580   71.0530  223.5300 C   0  0  0  0  0  0  0  0  0  0  0  0
  139.7300   69.7510  223.9780 C   0  0  0  0  0  0  0  0  0  0  0  0
  139.9850   69.7920  225.3300 C   0  0  0  0  0  0  0  0  0  0  0  0
  139.9210   68.7890  226.2950 C   0  0  0  0  0  0  0  0  0  0  0  0
  140.2490   69.1310  227.6210 C   0  0  0  0  0  0  0  0  0  0  0  0
  140.1990   68.1870  228.5930 F   0  0  0  0  0  0  0  0  0  0  0  0
  140.6300   70.4530  227.9440 C   0  0  0  0  0  0  0  0  0  0  0  0
  140.6870   71.4430  226.9460 C   0  0  0  0  0  0  0  0  0  0  0  0
  140.3560   71.0740  225.6430 C   0  0  0  0  0  0  0  0  0  0  0  0
  140.3490   71.8550  224.5500 N   0  0  0  0  0  0  0  0  0  0  0  0
  140.3410   72.7880  221.7250 N   0  0  0  0  0  0  0  0  0  0  0  0
  139.5180   73.9900  221.6190 C   0  0  0  0  0  0  0  0  0  0  0  0
  140.4990   75.1480  221.2240 C   0  0  2  0  0  0  0  0  0  0  0  0
  140.7100   76.1530  222.3530 C   0  0  0  0  0  0  0  0  0  0  0  0
  140.9370   77.4680  221.6370 C   0  0  0  0  0  0  0  0  0  0  0  0
  140.1500   77.4250  220.3950 N   0  0  0  0  0  0  0  0  0  0  0  0
  140.7330   78.2490  219.3000 C   0  0  2  0  0  0  0  0  0  0  0  0
  142.0720   77.6590  218.8020 C   0  0  0  0  0  0  0  0  0  0  0  0
  142.6580   78.4930  217.6510 C   0  0  0  0  0  0  0  0  0  0  0  0
  142.2840   79.9820  217.7540 C   0  0  0  0  0  0  0  0  0  0  0  0
  142.1120   80.3910  219.1520 N   0  0  0  0  0  0  0  0  0  0  0  0
  140.9650   79.7140  219.7870 C   0  0  0  0  0  0  0  0  0  0  0  0
  140.0140   75.9980  220.0340 C   0  0  0  0  0  0  0  0  0  0  0  0
  141.7760   74.4020  220.9180 C   0  0  0  0  0  0  0  0  0  0  0  0
  142.9720   74.8940  220.3790 C   0  0  0  0  0  0  0  0  0  0  0  0
  144.0270   73.9990  220.1480 C   0  0  0  0  0  0  0  0  0  0  0  0
  143.8740   72.6330  220.4440 C   0  0  0  0  0  0  0  0  0  0  0  0
  142.6690   72.1570  220.9810 C   0  0  0  0  0  0  0  0  0  0  0  0
  141.6400   73.0730  221.2310 C   0  0  0  0  0  0  0  0  0  0  0  0
  139.4154   68.8822  223.3812 H   0  0  0  0  0  0  0  0  0  0  0  0
  139.6240   67.7636  226.0297 H   0  0  0  0  0  0  0  0  0  0  0  0
  140.8838   70.7098  228.9831 H   0  0  0  0  0  0  0  0  0  0  0  0
  140.9831   72.4748  227.1860 H   0  0  0  0  0  0  0  0  0  0  0  0
  140.5920   72.8690  224.5010 H   0  0  0  0  0  0  0  0  0  0  0  0
  138.7481   73.8596  220.8443 H   0  0  0  0  0  0  0  0  0  0  0  0
  138.9958   74.2068  222.5625 H   0  0  0  0  0  0  0  0  0  0  0  0
  139.8210   76.2079  222.9985 H   0  0  0  0  0  0  0  0  0  0  0  0
  141.5479   75.8798  223.0112 H   0  0  0  0  0  0  0  0  0  0  0  0
  140.6011   78.3042  222.2679 H   0  0  0  0  0  0  0  0  0  0  0  0
  142.0050   77.6162  221.4191 H   0  0  0  0  0  0  0  0  0  0  0  0
  140.0158   78.2451  218.4660 H   0  0  0  0  0  0  0  0  0  0  0  0
  142.7894   77.6455  219.6357 H   0  0  0  0  0  0  0  0  0  0  0  0
  141.8854   76.6402  218.4316 H   0  0  0  0  0  0  0  0  0  0  0  0
  143.7540   78.4021  217.6717 H   0  0  0  0  0  0  0  0  0  0  0  0
  142.2384   78.1068  216.7104 H   0  0  0  0  0  0  0  0  0  0  0  0
  143.0840   80.5850  217.2997 H   0  0  0  0  0  0  0  0  0  0  0  0
  141.3319   80.1390  217.2259 H   0  0  0  0  0  0  0  0  0  0  0  0
  142.9860   80.1600  219.6810 H   0  0  0  0  0  0  0  0  0  0  0  0
  141.1359   79.6928  220.8734 H   0  0  0  0  0  0  0  0  0  0  0  0
  140.0676   80.2849  219.5062 H   0  0  0  0  0  0  0  0  0  0  0  0
  138.9602   75.7680  219.8180 H   0  0  0  0  0  0  0  0  0  0  0  0
  140.6148   75.7750  219.1400 H   0  0  0  0  0  0  0  0  0  0  0  0
  143.0816   75.9624  220.1414 H   0  0  0  0  0  0  0  0  0  0  0  0
  144.9773   74.3670  219.7339 H   0  0  0  0  0  0  0  0  0  0  0  0
  144.7026   71.9350  220.2537 H   0  0  0  0  0  0  0  0  0  0  0  0
  142.5353   71.0875  221.2009 H   0  0  0  0  0  0  0  0  0  0  0  0
  1  2  2  0
  2  3  1  0
  3  4  2  0
  4  5  1  0
  5  6  2  0
  6  7  1  0
  7  8  1  0
  7  9  2  0
  9 10  1  0
 10 11  2  0
 11 12  1  0
  2 13  1  0
 13 14  1  0
 15 14  1  1
 15 16  1  0
 16 17  1  0
 17 18  1  0
 18 19  1  0
 19 20  1  0
 20 21  1  0
 21 22  1  0
 22 23  1  0
 23 24  1  0
 18 25  1  0
 15 26  1  0
 26 27  2  0
 27 28  1  0
 28 29  2  0
 29 30  1  0
 30 31  2  0
 12  3  1  0
 31 13  1  0
 11  5  1  0
 25 15  1  0
 31 26  1  0
 24 19  1  0
  4 32  1  0
  6 33  1  0
  9 34  1  0
 10 35  1  0
 12 36  1  0
 14 37  1  0
 14 38  1  0
 16 39  1  0
 16 40  1  0
 17 41  1  0
 17 42  1  0
 19 43  1  6
 20 44  1  0
 20 45  1  0
 21 46  1  0
 21 47  1  0
 22 48  1  0
 22 49  1  0
 23 50  1  0
 24 51  1  0
 24 52  1  0
 25 53  1  0
 25 54  1  0
 27 55  1  0
 28 56  1  0
 29 57  1  0
 30 58  1  0
M  END
>  <UniqueID>  (24) 
23

>  <SMILES>  (24) 
O=C(c1cc2cc(F)ccc2[nH]1)N1C[C@@]2(CCN([C@@H]3CCCNC3)C2)c2ccccc21

>  <Energy>  (24) 
129.555333351433

>  <Genealogy>  (24) 
O=C(c1cc2cc(F)ccc2[nH]1)N1C[C@@]2(CCN([C@@H]3CCCNC3)C2)c2ccccc21 (chirality)
O=C(c1cc2cc(F)ccc2[nH]1)N1C[C@@]2(CCN([C@@H]3CCCNC3)C2)c2ccccc21 (3D coordinates assigned)
O=C(c1cc2cc(F)ccc2[nH]1)N1C[C@@]2(CCN([C@@H]3CCCNC3)C2)c2ccccc21 (nonaromatic ring conformer: 129.555333351433 kcal/mol)

>  <smiles>  (24) 
O=C(c1cc2cc(F)ccc2[nH]1)N1C[C@@]2(CCN(C3CCCNC3)C2)c2ccccc21

>  <score_type>  (24) 
oracle

>  <origin>  (24) 
autodockgpu

>  <m_score__min__energy>  (24) 
-8.2799999999999994

>  <m_primary>  (24) 
energy

>  <meeko>  (24) 
{"free_energy": -8.19, "intermolecular_energy": -9.09, "internal_energy": -1.26, "cluster_size": 6, "cluster_id": 3, "rank_in_cluster": 5}

>  <energy>  (24) 
-8.28

>  <cluster_rmsd>  (24) 
0.05

>  <rmsd>  (24) 
272.5

>  <cluster>  (24) 
1

$$$$
ABNVVKAVWJYHCL-CLOONOSVNA-N
     RDKit          3D

 58 63  0  0  0  0  0  0  0  0999 V2000
  139.1660   70.9000  221.1990 O   0  0  0  0  0  0  0  0  0  0  0  0
  139.4620   71.6810  222.1430 C   0  0  0  0  0  0  0  0  0  0  0  0
  139.7120   71.1260  223.4860 C   0  0  0  0  0  0  0  0  0  0  0  0
  139.5760   69.7860  223.8460 C   0  0  0  0  0  0  0  0  0  0  0  0
  139.9390   69.7360  225.1730 C   0  0  0  0  0  0  0  0  0  0  0  0
  139.9950   68.6610  226.0580 C   0  0  0  0  0  0  0  0  0  0  0  0
  140.4160   68.9170  227.3770 C   0  0  0  0  0  0  0  0  0  0  0  0
  140.4850   67.9020  228.2720 F   0  0  0  0  0  0  0  0  0  0  0  0
  140.7660   70.2280  227.7720 C   0  0  0  0  0  0  0  0  0  0  0  0
  140.7000   71.2920  226.8550 C   0  0  0  0  0  0  0  0  0  0  0  0
  140.2790   71.0070  225.5570 C   0  0  0  0  0  0  0  0  0  0  0  0
  140.1500   71.8670  224.5330 N   0  0  0  0  0  0  0  0  0  0  0  0
  139.4960   73.0930  221.9040 N   0  0  0  0  0  0  0  0  0  0  0  0
  140.7240   73.8570  221.6960 C   0  0  0  0  0  0  0  0  0  0  0  0
  140.2680   75.3260  221.3940 C   0  0  2  0  0  0  0  0  0  0  0  0
  140.5120   75.7350  219.9440 C   0  0  0  0  0  0  0  0  0  0  0  0
  140.7990   77.2190  220.0230 C   0  0  0  0  0  0  0  0  0  0  0  0
  141.4610   77.4630  221.3140 N   0  0  0  0  0  0  0  0  0  0  0  0
  141.2140   78.8280  221.8530 C   0  0  2  0  0  0  0  0  0  0  0  0
  142.4060   79.3220  222.7050 C   0  0  0  0  0  0  0  0  0  0  0  0
  142.1630   80.7450  223.2360 C   0  0  0  0  0  0  0  0  0  0  0  0
  140.6720   81.0370  223.4750 C   0  0  0  0  0  0  0  0  0  0  0  0
  139.9420   79.8170  223.8330 N   0  0  0  0  0  0  0  0  0  0  0  0
  139.9190   78.8430  222.7250 C   0  0  0  0  0  0  0  0  0  0  0  0
  141.0080   76.3920  222.2260 C   0  0  0  0  0  0  0  0  0  0  0  0
  138.7900   75.2780  221.7010 C   0  0  0  0  0  0  0  0  0  0  0  0
  137.8690   76.3330  221.7480 C   0  0  0  0  0  0  0  0  0  0  0  0
  136.5380   76.0520  222.0910 C   0  0  0  0  0  0  0  0  0  0  0  0
  136.1470   74.7360  222.3940 C   0  0  0  0  0  0  0  0  0  0  0  0
  137.0840   73.6920  222.3460 C   0  0  0  0  0  0  0  0  0  0  0  0
  138.3990   73.9910  221.9710 C   0  0  0  0  0  0  0  0  0  0  0  0
  139.2498   68.9509  223.2087 H   0  0  0  0  0  0  0  0  0  0  0  0
  139.7193   67.6457  225.7367 H   0  0  0  0  0  0  0  0  0  0  0  0
  141.0927   70.4176  228.8051 H   0  0  0  0  0  0  0  0  0  0  0  0
  140.9717   72.3157  227.1522 H   0  0  0  0  0  0  0  0  0  0  0  0
  140.3460   72.8930  224.5450 H   0  0  0  0  0  0  0  0  0  0  0  0
  141.3503   73.8286  222.5998 H   0  0  0  0  0  0  0  0  0  0  0  0
  141.3239   73.4423  220.8725 H   0  0  0  0  0  0  0  0  0  0  0  0
  141.3722   75.1926  219.5246 H   0  0  0  0  0  0  0  0  0  0  0  0
  139.6578   75.5041  219.2905 H   0  0  0  0  0  0  0  0  0  0  0  0
  141.4601   77.5200  219.1970 H   0  0  0  0  0  0  0  0  0  0  0  0
  139.8699   77.8025  219.9427 H   0  0  0  0  0  0  0  0  0  0  0  0
  141.0905   79.5040  220.9940 H   0  0  0  0  0  0  0  0  0  0  0  0
  142.5439   78.6404  223.5573 H   0  0  0  0  0  0  0  0  0  0  0  0
  143.3036   79.3376  222.0694 H   0  0  0  0  0  0  0  0  0  0  0  0
  142.7027   80.8637  224.1871 H   0  0  0  0  0  0  0  0  0  0  0  0
  142.5247   81.4523  222.4751 H   0  0  0  0  0  0  0  0  0  0  0  0
  140.5761   81.7654  224.2936 H   0  0  0  0  0  0  0  0  0  0  0  0
  140.2430   81.4386  222.5451 H   0  0  0  0  0  0  0  0  0  0  0  0
  140.4040   79.3800  224.6670 H   0  0  0  0  0  0  0  0  0  0  0  0
  139.7802   77.8389  223.1523 H   0  0  0  0  0  0  0  0  0  0  0  0
  139.0959   79.1433  222.0599 H   0  0  0  0  0  0  0  0  0  0  0  0
  141.8762   75.9371  222.7252 H   0  0  0  0  0  0  0  0  0  0  0  0
  140.3367   76.8067  222.9924 H   0  0  0  0  0  0  0  0  0  0  0  0
  138.1837   77.3621  221.5202 H   0  0  0  0  0  0  0  0  0  0  0  0
  135.7973   76.8646  222.1230 H   0  0  0  0  0  0  0  0  0  0  0  0
  135.1034   74.5238  222.6696 H   0  0  0  0  0  0  0  0  0  0  0  0
  136.7914   72.6619  222.5975 H   0  0  0  0  0  0  0  0  0  0  0  0
  1  2  2  0
  2  3  1  0
  3  4  2  0
  4  5  1  0
  5  6  2  0
  6  7  1  0
  7  8  1  0
  7  9  2  0
  9 10  1  0
 10 11  2  0
 11 12  1  0
  2 13  1  0
 13 14  1  0
 15 14  1  6
 15 16  1  0
 16 17  1  0
 17 18  1  0
 18 19  1  0
 19 20  1  0
 20 21  1  0
 21 22  1  0
 22 23  1  0
 23 24  1  0
 18 25  1  0
 15 26  1  0
 26 27  2  0
 27 28  1  0
 28 29  2  0
 29 30  1  0
 30 31  2  0
 12  3  1  0
 31 13  1  0
 11  5  1  0
 25 15  1  0
 31 26  1  0
 24 19  1  0
  4 32  1  0
  6 33  1  0
  9 34  1  0
 10 35  1  0
 12 36  1  0
 14 37  1  0
 14 38  1  0
 16 39  1  0
 16 40  1  0
 17 41  1  0
 17 42  1  0
 19 43  1  6
 20 44  1  0
 20 45  1  0
 21 46  1  0
 21 47  1  0
 22 48  1  0
 22 49  1  0
 23 50  1  0
 24 51  1  0
 24 52  1  0
 25 53  1  0
 25 54  1  0
 27 55  1  0
 28 56  1  0
 29 57  1  0
 30 58  1  0
M  END
>  <UniqueID>  (25) 
23

>  <SMILES>  (25) 
O=C(c1cc2cc(F)ccc2[nH]1)N1C[C@@]2(CCN([C@@H]3CCCNC3)C2)c2ccccc21

>  <Energy>  (25) 
129.555333351433

>  <Genealogy>  (25) 
O=C(c1cc2cc(F)ccc2[nH]1)N1C[C@@]2(CCN([C@@H]3CCCNC3)C2)c2ccccc21 (chirality)
O=C(c1cc2cc(F)ccc2[nH]1)N1C[C@@]2(CCN([C@@H]3CCCNC3)C2)c2ccccc21 (3D coordinates assigned)
O=C(c1cc2cc(F)ccc2[nH]1)N1C[C@@]2(CCN([C@@H]3CCCNC3)C2)c2ccccc21 (nonaromatic ring conformer: 129.555333351433 kcal/mol)

>  <smiles>  (25) 
O=C(c1cc2cc(F)ccc2[nH]1)N1C[C@@]2(CCN(C3CCCNC3)C2)c2ccccc21

>  <score_type>  (25) 
oracle

>  <origin>  (25) 
autodockgpu

>  <m_score__min__energy>  (25) 
-8.2799999999999994

>  <m_primary>  (25) 
energy

>  <meeko>  (25) 
{"free_energy": -8.28, "intermolecular_energy": -9.17, "internal_energy": -1.21, "cluster_size": 8, "cluster_id": 1, "rank_in_cluster": 2}

>  <energy>  (25) 
-8.28

>  <cluster_rmsd>  (25) 
0.02

>  <rmsd>  (25) 
272.49

>  <cluster>  (25) 
1

$$$$
ABNVVKAVWJYHCL-CLOONOSVNA-N
     RDKit          3D

 58 63  0  0  0  0  0  0  0  0999 V2000
  142.3700   77.5640  218.2390 O   0  0  0  0  0  0  0  0  0  0  0  0
  142.2140   76.9940  219.3520 C   0  0  0  0  0  0  0  0  0  0  0  0
  141.5360   77.7150  220.4430 C   0  0  0  0  0  0  0  0  0  0  0  0
  140.1550   77.8160  220.6120 C   0  0  0  0  0  0  0  0  0  0  0  0
  139.9910   78.5480  221.7660 C   0  0  0  0  0  0  0  0  0  0  0  0
  138.8320   78.9590  222.4210 C   0  0  0  0  0  0  0  0  0  0  0  0
  138.9770   79.7060  223.6060 C   0  0  0  0  0  0  0  0  0  0  0  0
  137.8770   80.1280  224.2760 F   0  0  0  0  0  0  0  0  0  0  0  0
  140.2640   80.0170  224.1010 C   0  0  0  0  0  0  0  0  0  0  0  0
  141.4150   79.5860  223.4170 C   0  0  0  0  0  0  0  0  0  0  0  0
  141.2390   78.8490  222.2460 C   0  0  0  0  0  0  0  0  0  0  0  0
  142.1940   78.3410  221.4500 N   0  0  0  0  0  0  0  0  0  0  0  0
  142.7480   75.6780  219.5490 N   0  0  0  0  0  0  0  0  0  0  0  0
  143.9220   75.1610  218.8510 C   0  0  0  0  0  0  0  0  0  0  0  0
  144.1760   73.7310  219.4420 C   0  0  2  0  0  0  0  0  0  0  0  0
  145.4350   73.6630  220.3010 C   0  0  0  0  0  0  0  0  0  0  0  0
  145.9440   72.2520  220.0980 C   0  0  0  0  0  0  0  0  0  0  0  0
  145.5760   71.8530  218.7310 N   0  0  0  0  0  0  0  0  0  0  0  0
  145.3740   70.3860  218.5790 C   0  0  2  0  0  0  0  0  0  0  0  0
  143.9890   69.9490  219.1120 C   0  0  0  0  0  0  0  0  0  0  0  0
  143.7690   68.4380  218.9270 C   0  0  0  0  0  0  0  0  0  0  0  0
  145.0820   67.6400  219.0000 C   0  0  0  0  0  0  0  0  0  0  0  0
  146.0570   68.2960  219.8770 N   0  0  0  0  0  0  0  0  0  0  0  0
  146.4880   69.6020  219.3410 C   0  0  0  0  0  0  0  0  0  0  0  0
  144.3780   72.6410  218.3720 C   0  0  0  0  0  0  0  0  0  0  0  0
  142.9390   73.4990  220.2760 C   0  0  0  0  0  0  0  0  0  0  0  0
  142.5330   72.3330  220.9380 C   0  0  0  0  0  0  0  0  0  0  0  0
  141.3150   72.3410  221.6340 C   0  0  0  0  0  0  0  0  0  0  0  0
  140.5150   73.4980  221.6500 C   0  0  0  0  0  0  0  0  0  0  0  0
  140.9360   74.6560  220.9780 C   0  0  0  0  0  0  0  0  0  0  0  0
  142.1690   74.6340  220.3160 C   0  0  0  0  0  0  0  0  0  0  0  0
  139.3686   77.4011  219.9643 H   0  0  0  0  0  0  0  0  0  0  0  0
  137.8366   78.7083  222.0256 H   0  0  0  0  0  0  0  0  0  0  0  0
  140.3661   80.6004  225.0279 H   0  0  0  0  0  0  0  0  0  0  0  0
  142.4212   79.8225  223.7934 H   0  0  0  0  0  0  0  0  0  0  0  0
  143.2270   78.4170  221.5800 H   0  0  0  0  0  0  0  0  0  0  0  0
  143.7286   75.0997  217.7699 H   0  0  0  0  0  0  0  0  0  0  0  0
  144.7950   75.8161  218.9876 H   0  0  0  0  0  0  0  0  0  0  0  0
  146.1790   74.3991  219.9625 H   0  0  0  0  0  0  0  0  0  0  0  0
  145.2378   73.8929  221.3585 H   0  0  0  0  0  0  0  0  0  0  0  0
  147.0371   72.2241  220.2181 H   0  0  0  0  0  0  0  0  0  0  0  0
  145.5049   71.5667  220.8379 H   0  0  0  0  0  0  0  0  0  0  0  0
  145.4267   70.1554  217.5047 H   0  0  0  0  0  0  0  0  0  0  0  0
  143.9245   70.1918  220.1829 H   0  0  0  0  0  0  0  0  0  0  0  0
  143.2141   70.4843  218.5436 H   0  0  0  0  0  0  0  0  0  0  0  0
  143.0938   68.0800  219.7182 H   0  0  0  0  0  0  0  0  0  0  0  0
  143.3375   68.2823  217.9272 H   0  0  0  0  0  0  0  0  0  0  0  0
  144.8686   66.6342  219.3908 H   0  0  0  0  0  0  0  0  0  0  0  0
  145.5095   67.5822  217.9881 H   0  0  0  0  0  0  0  0  0  0  0  0
  145.6210   68.4370  220.8190 H   0  0  0  0  0  0  0  0  0  0  0  0
  146.8315   70.2225  220.1818 H   0  0  0  0  0  0  0  0  0  0  0  0
  147.2822   69.3941  218.6088 H   0  0  0  0  0  0  0  0  0  0  0  0
  144.5224   73.1091  217.3871 H   0  0  0  0  0  0  0  0  0  0  0  0
  143.4946   71.9872  218.3262 H   0  0  0  0  0  0  0  0  0  0  0  0
  143.1577   71.4280  220.9125 H   0  0  0  0  0  0  0  0  0  0  0  0
  140.9842   71.4389  222.1694 H   0  0  0  0  0  0  0  0  0  0  0  0
  139.5570   73.4951  222.1906 H   0  0  0  0  0  0  0  0  0  0  0  0
  140.3107   75.5610  220.9717 H   0  0  0  0  0  0  0  0  0  0  0  0
  1  2  2  0
  2  3  1  0
  3  4  2  0
  4  5  1  0
  5  6  2  0
  6  7  1  0
  7  8  1  0
  7  9  2  0
  9 10  1  0
 10 11  2  0
 11 12  1  0
  2 13  1  0
 13 14  1  0
 15 14  1  6
 15 16  1  0
 16 17  1  0
 17 18  1  0
 18 19  1  0
 19 20  1  0
 20 21  1  0
 21 22  1  0
 22 23  1  0
 23 24  1  0
 18 25  1  0
 15 26  1  0
 26 27  2  0
 27 28  1  0
 28 29  2  0
 29 30  1  0
 30 31  2  0
 12  3  1  0
 31 13  1  0
 11  5  1  0
 25 15  1  0
 31 26  1  0
 24 19  1  0
  4 32  1  0
  6 33  1  0
  9 34  1  0
 10 35  1  0
 12 36  1  0
 14 37  1  0
 14 38  1  0
 16 39  1  0
 16 40  1  0
 17 41  1  0
 17 42  1  0
 19 43  1  6
 20 44  1  0
 20 45  1  0
 21 46  1  0
 21 47  1  0
 22 48  1  0
 22 49  1  0
 23 50  1  0
 24 51  1  0
 24 52  1  0
 25 53  1  0
 25 54  1  0
 27 55  1  0
 28 56  1  0
 29 57  1  0
 30 58  1  0
M  END
>  <UniqueID>  (26) 
23

>  <SMILES>  (26) 
O=C(c1cc2cc(F)ccc2[nH]1)N1C[C@@]2(CCN([C@@H]3CCCNC3)C2)c2ccccc21

>  <Energy>  (26) 
129.555333351433

>  <Genealogy>  (26) 
O=C(c1cc2cc(F)ccc2[nH]1)N1C[C@@]2(CCN([C@@H]3CCCNC3)C2)c2ccccc21 (chirality)
O=C(c1cc2cc(F)ccc2[nH]1)N1C[C@@]2(CCN([C@@H]3CCCNC3)C2)c2ccccc21 (3D coordinates assigned)
O=C(c1cc2cc(F)ccc2[nH]1)N1C[C@@]2(CCN([C@@H]3CCCNC3)C2)c2ccccc21 (nonaromatic ring conformer: 129.555333351433 kcal/mol)

>  <smiles>  (26) 
O=C(c1cc2cc(F)ccc2[nH]1)N1C[C@@]2(CCN(C3CCCNC3)C2)c2ccccc21

>  <score_type>  (26) 
oracle

>  <origin>  (26) 
autodockgpu

>  <m_score__min__energy>  (26) 
-8.2799999999999994

>  <m_primary>  (26) 
energy

>  <meeko>  (26) 
{"free_energy": -8.22, "intermolecular_energy": -9.12, "internal_energy": -1.29, "cluster_size": 6, "cluster_id": 2, "rank_in_cluster": 1}

>  <energy>  (26) 
-8.28

>  <cluster_rmsd>  (26) 
0.03

>  <rmsd>  (26) 
272.49

>  <cluster>  (26) 
1

$$$$
ABNVVKAVWJYHCL-CLOONOSVNA-N
     RDKit          3D

 58 63  0  0  0  0  0  0  0  0999 V2000
  139.0850   70.8950  221.3580 O   0  0  0  0  0  0  0  0  0  0  0  0
  139.7450   71.5850  222.1810 C   0  0  0  0  0  0  0  0  0  0  0  0
  139.9000   71.1040  223.5650 C   0  0  0  0  0  0  0  0  0  0  0  0
  139.7070   69.7890  223.9920 C   0  0  0  0  0  0  0  0  0  0  0  0
  139.9900   69.8080  225.3390 C   0  0  0  0  0  0  0  0  0  0  0  0
  139.9650   68.7850  226.2850 C   0  0  0  0  0  0  0  0  0  0  0  0
  140.3130   69.1080  227.6100 C   0  0  0  0  0  0  0  0  0  0  0  0
  140.3020   68.1440  228.5630 F   0  0  0  0  0  0  0  0  0  0  0  0
  140.6740   70.4300  227.9520 C   0  0  0  0  0  0  0  0  0  0  0  0
  140.6910   71.4410  226.9730 C   0  0  0  0  0  0  0  0  0  0  0  0
  140.3400   71.0910  225.6700 C   0  0  0  0  0  0  0  0  0  0  0  0
  140.2950   71.8930  224.5940 N   0  0  0  0  0  0  0  0  0  0  0  0
  140.2840   72.8470  221.7680 N   0  0  0  0  0  0  0  0  0  0  0  0
  139.4890   74.0650  221.6230 C   0  0  0  0  0  0  0  0  0  0  0  0
  140.5050   75.1960  221.2390 C   0  0  2  0  0  0  0  0  0  0  0  0
  140.7080   76.2120  222.3590 C   0  0  0  0  0  0  0  0  0  0  0  0
  140.9820   77.5110  221.6320 C   0  0  0  0  0  0  0  0  0  0  0  0
  140.2270   77.4670  220.3690 N   0  0  0  0  0  0  0  0  0  0  0  0
  140.8560   78.2630  219.2790 C   0  0  2  0  0  0  0  0  0  0  0  0
  142.2510   77.7070  218.9080 C   0  0  0  0  0  0  0  0  0  0  0  0
  142.8860   78.5110  217.7610 C   0  0  0  0  0  0  0  0  0  0  0  0
  142.4480   79.9860  217.7630 C   0  0  0  0  0  0  0  0  0  0  0  0
  142.1580   80.4520  219.1220 N   0  0  0  0  0  0  0  0  0  0  0  0
  140.9950   79.7570  219.7080 C   0  0  0  0  0  0  0  0  0  0  0  0
  140.0700   76.0390  220.0250 C   0  0  0  0  0  0  0  0  0  0  0  0
  141.7730   74.4180  220.9780 C   0  0  0  0  0  0  0  0  0  0  0  0
  142.9930   74.8780  220.4630 C   0  0  0  0  0  0  0  0  0  0  0  0
  144.0350   73.9570  220.2740 C   0  0  0  0  0  0  0  0  0  0  0  0
  143.8450   72.5990  220.5840 C   0  0  0  0  0  0  0  0  0  0  0  0
  142.6160   72.1560  221.0950 C   0  0  0  0  0  0  0  0  0  0  0  0
  141.6010   73.0980  221.3050 C   0  0  0  0  0  0  0  0  0  0  0  0
  139.3965   68.9260  223.3847 H   0  0  0  0  0  0  0  0  0  0  0  0
  139.6827   67.7592  226.0055 H   0  0  0  0  0  0  0  0  0  0  0  0
  140.9437   70.6711  228.9908 H   0  0  0  0  0  0  0  0  0  0  0  0
  140.9720   72.4736  227.2276 H   0  0  0  0  0  0  0  0  0  0  0  0
  140.5170   72.9130  224.5600 H   0  0  0  0  0  0  0  0  0  0  0  0
  138.7376   73.9396  220.8295 H   0  0  0  0  0  0  0  0  0  0  0  0
  138.9459   74.3062  222.5487 H   0  0  0  0  0  0  0  0  0  0  0  0
  139.8038   76.2949  222.9799 H   0  0  0  0  0  0  0  0  0  0  0  0
  141.5223   75.9303  223.0428 H   0  0  0  0  0  0  0  0  0  0  0  0
  140.6475   78.3629  222.2422 H   0  0  0  0  0  0  0  0  0  0  0  0
  142.0583   77.6336  221.4410 H   0  0  0  0  0  0  0  0  0  0  0  0
  140.2025   78.1902  218.3972 H   0  0  0  0  0  0  0  0  0  0  0  0
  142.9055   77.7634  219.7903 H   0  0  0  0  0  0  0  0  0  0  0  0
  142.1326   76.6646  218.5773 H   0  0  0  0  0  0  0  0  0  0  0  0
  143.9804   78.4678  217.8634 H   0  0  0  0  0  0  0  0  0  0  0  0
  142.5507   78.0639  216.8136 H   0  0  0  0  0  0  0  0  0  0  0  0
  143.2553   80.6004  217.3378 H   0  0  0  0  0  0  0  0  0  0  0  0
  141.5320   80.0777  217.1609 H   0  0  0  0  0  0  0  0  0  0  0  0
  142.9990   80.2840  219.7240 H   0  0  0  0  0  0  0  0  0  0  0  0
  141.0879   79.7936  220.8034 H   0  0  0  0  0  0  0  0  0  0  0  0
  140.0986   80.2757  219.3372 H   0  0  0  0  0  0  0  0  0  0  0  0
  139.0175   75.8283  219.7843 H   0  0  0  0  0  0  0  0  0  0  0  0
  140.6894   75.7904  219.1506 H   0  0  0  0  0  0  0  0  0  0  0  0
  143.1309   75.9400  220.2119 H   0  0  0  0  0  0  0  0  0  0  0  0
  145.0041   74.2990  219.8818 H   0  0  0  0  0  0  0  0  0  0  0  0
  144.6632   71.8811  220.4253 H   0  0  0  0  0  0  0  0  0  0  0  0
  142.4531   71.0928  221.3256 H   0  0  0  0  0  0  0  0  0  0  0  0
  1  2  2  0
  2  3  1  0
  3  4  2  0
  4  5  1  0
  5  6  2  0
  6  7  1  0
  7  8  1  0
  7  9  2  0
  9 10  1  0
 10 11  2  0
 11 12  1  0
  2 13  1  0
 13 14  1  0
 15 14  1  1
 15 16  1  0
 16 17  1  0
 17 18  1  0
 18 19  1  0
 19 20  1  0
 20 21  1  0
 21 22  1  0
 22 23  1  0
 23 24  1  0
 18 25  1  0
 15 26  1  0
 26 27  2  0
 27 28  1  0
 28 29  2  0
 29 30  1  0
 30 31  2  0
 12  3  1  0
 31 13  1  0
 11  5  1  0
 25 15  1  0
 31 26  1  0
 24 19  1  0
  4 32  1  0
  6 33  1  0
  9 34  1  0
 10 35  1  0
 12 36  1  0
 14 37  1  0
 14 38  1  0
 16 39  1  0
 16 40  1  0
 17 41  1  0
 17 42  1  0
 19 43  1  6
 20 44  1  0
 20 45  1  0
 21 46  1  0
 21 47  1  0
 22 48  1  0
 22 49  1  0
 23 50  1  0
 24 51  1  0
 24 52  1  0
 25 53  1  0
 25 54  1  0
 27 55  1  0
 28 56  1  0
 29 57  1  0
 30 58  1  0
M  END
>  <UniqueID>  (27) 
23

>  <SMILES>  (27) 
O=C(c1cc2cc(F)ccc2[nH]1)N1C[C@@]2(CCN([C@@H]3CCCNC3)C2)c2ccccc21

>  <Energy>  (27) 
129.555333351433

>  <Genealogy>  (27) 
O=C(c1cc2cc(F)ccc2[nH]1)N1C[C@@]2(CCN([C@@H]3CCCNC3)C2)c2ccccc21 (chirality)
O=C(c1cc2cc(F)ccc2[nH]1)N1C[C@@]2(CCN([C@@H]3CCCNC3)C2)c2ccccc21 (3D coordinates assigned)
O=C(c1cc2cc(F)ccc2[nH]1)N1C[C@@]2(CCN([C@@H]3CCCNC3)C2)c2ccccc21 (nonaromatic ring conformer: 129.555333351433 kcal/mol)

>  <smiles>  (27) 
O=C(c1cc2cc(F)ccc2[nH]1)N1C[C@@]2(CCN(C3CCCNC3)C2)c2ccccc21

>  <score_type>  (27) 
oracle

>  <origin>  (27) 
autodockgpu

>  <m_score__min__energy>  (27) 
-8.2799999999999994

>  <m_primary>  (27) 
energy

>  <meeko>  (27) 
{"free_energy": -8.21, "intermolecular_energy": -9.1, "internal_energy": -1.26, "cluster_size": 6, "cluster_id": 3, "rank_in_cluster": 1}

>  <energy>  (27) 
-8.27

>  <cluster_rmsd>  (27) 
0.04

>  <rmsd>  (27) 
272.49

>  <cluster>  (27) 
1

$$$$
ABNVVKAVWJYHCL-CLOONOSVNA-N
     RDKit          3D

 58 63  0  0  0  0  0  0  0  0999 V2000
  141.0420   76.6120  217.8720 O   0  0  0  0  0  0  0  0  0  0  0  0
  141.6750   76.4640  218.9520 C   0  0  0  0  0  0  0  0  0  0  0  0
  141.7410   77.5840  219.9080 C   0  0  0  0  0  0  0  0  0  0  0  0
  141.6980   78.9380  219.5730 C   0  0  0  0  0  0  0  0  0  0  0  0
  141.7600   79.6030  220.7760 C   0  0  0  0  0  0  0  0  0  0  0  0
  141.7550   80.9680  221.0590 C   0  0  0  0  0  0  0  0  0  0  0  0
  141.8250   81.3590  222.4090 C   0  0  0  0  0  0  0  0  0  0  0  0
  141.8250   82.6760  222.7310 F   0  0  0  0  0  0  0  0  0  0  0  0
  141.8970   80.3860  223.4320 C   0  0  0  0  0  0  0  0  0  0  0  0
  141.8990   79.0160  223.1140 C   0  0  0  0  0  0  0  0  0  0  0  0
  141.8290   78.6600  221.7680 C   0  0  0  0  0  0  0  0  0  0  0  0
  141.8130   77.4200  221.2510 N   0  0  0  0  0  0  0  0  0  0  0  0
  142.3620   75.2320  219.2030 N   0  0  0  0  0  0  0  0  0  0  0  0
  143.5570   74.8020  218.4790 C   0  0  0  0  0  0  0  0  0  0  0  0
  143.9970   73.4520  219.1430 C   0  0  2  0  0  0  0  0  0  0  0  0
  145.2920   73.5810  219.9400 C   0  0  0  0  0  0  0  0  0  0  0  0
  145.9480   72.2240  219.7990 C   0  0  0  0  0  0  0  0  0  0  0  0
  145.5690   71.6960  218.4790 N   0  0  0  0  0  0  0  0  0  0  0  0
  145.5280   70.2090  218.4280 C   0  0  2  0  0  0  0  0  0  0  0  0
  144.1540   69.6670  218.8850 C   0  0  0  0  0  0  0  0  0  0  0  0
  144.1030   68.1320  218.8030 C   0  0  0  0  0  0  0  0  0  0  0  0
  145.4780   67.4840  219.0410 C   0  0  0  0  0  0  0  0  0  0  0  0
  146.3030   68.3010  219.9360 N   0  0  0  0  0  0  0  0  0  0  0  0
  146.6460   69.6040  219.3340 C   0  0  0  0  0  0  0  0  0  0  0  0
  144.2750   72.3220  218.1330 C   0  0  0  0  0  0  0  0  0  0  0  0
  142.8310   73.1410  220.0520 C   0  0  0  0  0  0  0  0  0  0  0  0
  142.5900   71.9840  220.8040 C   0  0  0  0  0  0  0  0  0  0  0  0
  141.4100   71.9040  221.5590 C   0  0  0  0  0  0  0  0  0  0  0  0
  140.4860   72.9640  221.5440 C   0  0  0  0  0  0  0  0  0  0  0  0
  140.7420   74.1140  220.7820 C   0  0  0  0  0  0  0  0  0  0  0  0
  141.9400   74.1840  220.0610 C   0  0  0  0  0  0  0  0  0  0  0  0
  141.6295   79.3776  218.5670 H   0  0  0  0  0  0  0  0  0  0  0  0
  141.6982   81.7149  220.2535 H   0  0  0  0  0  0  0  0  0  0  0  0
  141.9518   80.7026  224.4840 H   0  0  0  0  0  0  0  0  0  0  0  0
  141.9540   78.2503  223.9018 H   0  0  0  0  0  0  0  0  0  0  0  0
  141.8500   76.5190  221.7780 H   0  0  0  0  0  0  0  0  0  0  0  0
  143.3252   74.6476  217.4149 H   0  0  0  0  0  0  0  0  0  0  0  0
  144.3550   75.5573  218.5308 H   0  0  0  0  0  0  0  0  0  0  0  0
  145.9326   74.3702  219.5194 H   0  0  0  0  0  0  0  0  0  0  0  0
  145.1162   73.8583  220.9899 H   0  0  0  0  0  0  0  0  0  0  0  0
  147.0414   72.3246  219.8655 H   0  0  0  0  0  0  0  0  0  0  0  0
  145.6212   71.5456  220.6009 H   0  0  0  0  0  0  0  0  0  0  0  0
  145.6944   69.9094  217.3827 H   0  0  0  0  0  0  0  0  0  0  0  0
  143.9749   69.9763  219.9253 H   0  0  0  0  0  0  0  0  0  0  0  0
  143.3804   70.0760  218.2184 H   0  0  0  0  0  0  0  0  0  0  0  0
  143.4014   67.7610  219.5647 H   0  0  0  0  0  0  0  0  0  0  0  0
  143.7771   67.8619  217.7877 H   0  0  0  0  0  0  0  0  0  0  0  0
  145.3333   66.4917  219.4930 H   0  0  0  0  0  0  0  0  0  0  0  0
  145.9943   67.3988  218.0734 H   0  0  0  0  0  0  0  0  0  0  0  0
  145.7760   68.4610  220.8280 H   0  0  0  0  0  0  0  0  0  0  0  0
  146.8524   70.3153  220.1473 H   0  0  0  0  0  0  0  0  0  0  0  0
  147.5171   69.4309  218.6850 H   0  0  0  0  0  0  0  0  0  0  0  0
  144.3230   72.7367  217.1153 H   0  0  0  0  0  0  0  0  0  0  0  0
  143.4701   71.5733  218.1719 H   0  0  0  0  0  0  0  0  0  0  0  0
  143.3120   71.1541  220.8027 H   0  0  0  0  0  0  0  0  0  0  0  0
  141.2069   71.0087  222.1650 H   0  0  0  0  0  0  0  0  0  0  0  0
  139.5591   72.8913  222.1318 H   0  0  0  0  0  0  0  0  0  0  0  0
  140.0180   74.9416  220.7518 H   0  0  0  0  0  0  0  0  0  0  0  0
  1  2  2  0
  2  3  1  0
  3  4  2  0
  4  5  1  0
  5  6  2  0
  6  7  1  0
  7  8  1  0
  7  9  2  0
  9 10  1  0
 10 11  2  0
 11 12  1  0
  2 13  1  0
 13 14  1  0
 15 14  1  6
 15 16  1  0
 16 17  1  0
 17 18  1  0
 18 19  1  0
 19 20  1  0
 20 21  1  0
 21 22  1  0
 22 23  1  0
 23 24  1  0
 18 25  1  0
 15 26  1  0
 26 27  2  0
 27 28  1  0
 28 29  2  0
 29 30  1  0
 30 31  2  0
 12  3  1  0
 31 13  1  0
 11  5  1  0
 25 15  1  0
 31 26  1  0
 24 19  1  0
  4 32  1  0
  6 33  1  0
  9 34  1  0
 10 35  1  0
 12 36  1  0
 14 37  1  0
 14 38  1  0
 16 39  1  0
 16 40  1  0
 17 41  1  0
 17 42  1  0
 19 43  1  6
 20 44  1  0
 20 45  1  0
 21 46  1  0
 21 47  1  0
 22 48  1  0
 22 49  1  0
 23 50  1  0
 24 51  1  0
 24 52  1  0
 25 53  1  0
 25 54  1  0
 27 55  1  0
 28 56  1  0
 29 57  1  0
 30 58  1  0
M  END
>  <UniqueID>  (28) 
23

>  <SMILES>  (28) 
O=C(c1cc2cc(F)ccc2[nH]1)N1C[C@@]2(CCN([C@@H]3CCCNC3)C2)c2ccccc21

>  <Energy>  (28) 
129.555333351433

>  <Genealogy>  (28) 
O=C(c1cc2cc(F)ccc2[nH]1)N1C[C@@]2(CCN([C@@H]3CCCNC3)C2)c2ccccc21 (chirality)
O=C(c1cc2cc(F)ccc2[nH]1)N1C[C@@]2(CCN([C@@H]3CCCNC3)C2)c2ccccc21 (3D coordinates assigned)
O=C(c1cc2cc(F)ccc2[nH]1)N1C[C@@]2(CCN([C@@H]3CCCNC3)C2)c2ccccc21 (nonaromatic ring conformer: 129.555333351433 kcal/mol)

>  <smiles>  (28) 
O=C(c1cc2cc(F)ccc2[nH]1)N1C[C@@]2(CCN(C3CCCNC3)C2)c2ccccc21

>  <score_type>  (28) 
oracle

>  <origin>  (28) 
autodockgpu

>  <m_score__min__energy>  (28) 
-8.2799999999999994

>  <m_primary>  (28) 
energy

>  <meeko>  (28) 
{"free_energy": -8.21, "intermolecular_energy": -9.1, "internal_energy": -1.3, "cluster_size": 6, "cluster_id": 2, "rank_in_cluster": 3}

>  <energy>  (28) 
-8.27

>  <cluster_rmsd>  (28) 
0.05

>  <rmsd>  (28) 
272.5

>  <cluster>  (28) 
1

$$$$
ABNVVKAVWJYHCL-CLOONOSVNA-N
     RDKit          3D

 58 63  0  0  0  0  0  0  0  0999 V2000
  139.1890   70.9080  221.1850 O   0  0  0  0  0  0  0  0  0  0  0  0
  139.4800   71.6870  222.1320 C   0  0  0  0  0  0  0  0  0  0  0  0
  139.7250   71.1310  223.4740 C   0  0  0  0  0  0  0  0  0  0  0  0
  139.5870   69.7890  223.8320 C   0  0  0  0  0  0  0  0  0  0  0  0
  139.9460   69.7370  225.1600 C   0  0  0  0  0  0  0  0  0  0  0  0
  139.9990   68.6600  226.0430 C   0  0  0  0  0  0  0  0  0  0  0  0
  140.4150   68.9140  227.3640 C   0  0  0  0  0  0  0  0  0  0  0  0
  140.4810   67.8970  228.2570 F   0  0  0  0  0  0  0  0  0  0  0  0
  140.7650   70.2240  227.7630 C   0  0  0  0  0  0  0  0  0  0  0  0
  140.7020   71.2900  226.8470 C   0  0  0  0  0  0  0  0  0  0  0  0
  140.2850   71.0070  225.5470 C   0  0  0  0  0  0  0  0  0  0  0  0
  140.1600   71.8690  224.5250 N   0  0  0  0  0  0  0  0  0  0  0  0
  139.5100   73.1010  221.8970 N   0  0  0  0  0  0  0  0  0  0  0  0
  140.7370   73.8660  221.6880 C   0  0  0  0  0  0  0  0  0  0  0  0
  140.2790   75.3360  221.3910 C   0  0  2  0  0  0  0  0  0  0  0  0
  140.5210   75.7480  219.9420 C   0  0  0  0  0  0  0  0  0  0  0  0
  140.8060   77.2330  220.0240 C   0  0  0  0  0  0  0  0  0  0  0  0
  141.4690   77.4740  221.3150 N   0  0  0  0  0  0  0  0  0  0  0  0
  141.2210   78.8380  221.8580 C   0  0  2  0  0  0  0  0  0  0  0  0
  142.4170   79.3350  222.7030 C   0  0  0  0  0  0  0  0  0  0  0  0
  142.1720   80.7560  223.2380 C   0  0  0  0  0  0  0  0  0  0  0  0
  140.6810   81.0420  223.4860 C   0  0  0  0  0  0  0  0  0  0  0  0
  139.9570   79.8190  223.8470 N   0  0  0  0  0  0  0  0  0  0  0  0
  139.9310   78.8470  222.7370 C   0  0  0  0  0  0  0  0  0  0  0  0
  141.0190   76.4000  222.2250 C   0  0  0  0  0  0  0  0  0  0  0  0
  138.8020   75.2850  221.7000 C   0  0  0  0  0  0  0  0  0  0  0  0
  137.8790   76.3390  221.7510 C   0  0  0  0  0  0  0  0  0  0  0  0
  136.5490   76.0550  222.0950 C   0  0  0  0  0  0  0  0  0  0  0  0
  136.1600   74.7370  222.3950 C   0  0  0  0  0  0  0  0  0  0  0  0
  137.0990   73.6950  222.3420 C   0  0  0  0  0  0  0  0  0  0  0  0
  138.4130   73.9970  221.9670 C   0  0  0  0  0  0  0  0  0  0  0  0
  139.2623   68.9549  223.1926 H   0  0  0  0  0  0  0  0  0  0  0  0
  139.7249   67.6453  225.7187 H   0  0  0  0  0  0  0  0  0  0  0  0
  141.0890   70.4114  228.7973 H   0  0  0  0  0  0  0  0  0  0  0  0
  140.9728   72.3132  227.1466 H   0  0  0  0  0  0  0  0  0  0  0  0
  140.3550   72.8950  224.5390 H   0  0  0  0  0  0  0  0  0  0  0  0
  141.3656   73.8356  222.5902 H   0  0  0  0  0  0  0  0  0  0  0  0
  141.3352   73.4538  220.8620 H   0  0  0  0  0  0  0  0  0  0  0  0
  141.3816   75.2077  219.5208 H   0  0  0  0  0  0  0  0  0  0  0  0
  139.6667   75.5171  219.2887 H   0  0  0  0  0  0  0  0  0  0  0  0
  141.4659   77.5370  219.1981 H   0  0  0  0  0  0  0  0  0  0  0  0
  139.8763   77.8157  219.9458 H   0  0  0  0  0  0  0  0  0  0  0  0
  141.0903   79.5155  221.0013 H   0  0  0  0  0  0  0  0  0  0  0  0
  142.5631   78.6524  223.5531 H   0  0  0  0  0  0  0  0  0  0  0  0
  143.3104   79.3551  222.0615 H   0  0  0  0  0  0  0  0  0  0  0  0
  142.7167   80.8749  224.1863 H   0  0  0  0  0  0  0  0  0  0  0  0
  142.5269   81.4661  222.4766 H   0  0  0  0  0  0  0  0  0  0  0  0
  140.5871   81.7693  224.3059 H   0  0  0  0  0  0  0  0  0  0  0  0
  140.2453   81.4426  222.5588 H   0  0  0  0  0  0  0  0  0  0  0  0
  140.4250   79.3830  224.6760 H   0  0  0  0  0  0  0  0  0  0  0  0
  139.7978   77.8416  223.1630 H   0  0  0  0  0  0  0  0  0  0  0  0
  139.1033   79.1459  222.0771 H   0  0  0  0  0  0  0  0  0  0  0  0
  141.8886   75.9446  222.7213 H   0  0  0  0  0  0  0  0  0  0  0  0
  140.3488   76.8116  222.9941 H   0  0  0  0  0  0  0  0  0  0  0  0
  138.1918   77.3692  221.5256 H   0  0  0  0  0  0  0  0  0  0  0  0
  135.8072   76.8665  222.1303 H   0  0  0  0  0  0  0  0  0  0  0  0
  135.1173   74.5223  222.6719 H   0  0  0  0  0  0  0  0  0  0  0  0
  136.8083   72.6635  222.5898 H   0  0  0  0  0  0  0  0  0  0  0  0
  1  2  2  0
  2  3  1  0
  3  4  2  0
  4  5  1  0
  5  6  2  0
  6  7  1  0
  7  8  1  0
  7  9  2  0
  9 10  1  0
 10 11  2  0
 11 12  1  0
  2 13  1  0
 13 14  1  0
 15 14  1  6
 15 16  1  0
 16 17  1  0
 17 18  1  0
 18 19  1  0
 19 20  1  0
 20 21  1  0
 21 22  1  0
 22 23  1  0
 23 24  1  0
 18 25  1  0
 15 26  1  0
 26 27  2  0
 27 28  1  0
 28 29  2  0
 29 30  1  0
 30 31  2  0
 12  3  1  0
 31 13  1  0
 11  5  1  0
 25 15  1  0
 31 26  1  0
 24 19  1  0
  4 32  1  0
  6 33  1  0
  9 34  1  0
 10 35  1  0
 12 36  1  0
 14 37  1  0
 14 38  1  0
 16 39  1  0
 16 40  1  0
 17 41  1  0
 17 42  1  0
 19 43  1  6
 20 44  1  0
 20 45  1  0
 21 46  1  0
 21 47  1  0
 22 48  1  0
 22 49  1  0
 23 50  1  0
 24 51  1  0
 24 52  1  0
 25 53  1  0
 25 54  1  0
 27 55  1  0
 28 56  1  0
 29 57  1  0
 30 58  1  0
M  END
>  <UniqueID>  (29) 
23

>  <SMILES>  (29) 
O=C(c1cc2cc(F)ccc2[nH]1)N1C[C@@]2(CCN([C@@H]3CCCNC3)C2)c2ccccc21

>  <Energy>  (29) 
129.555333351433

>  <Genealogy>  (29) 
O=C(c1cc2cc(F)ccc2[nH]1)N1C[C@@]2(CCN([C@@H]3CCCNC3)C2)c2ccccc21 (chirality)
O=C(c1cc2cc(F)ccc2[nH]1)N1C[C@@]2(CCN([C@@H]3CCCNC3)C2)c2ccccc21 (3D coordinates assigned)
O=C(c1cc2cc(F)ccc2[nH]1)N1C[C@@]2(CCN([C@@H]3CCCNC3)C2)c2ccccc21 (nonaromatic ring conformer: 129.555333351433 kcal/mol)

>  <smiles>  (29) 
O=C(c1cc2cc(F)ccc2[nH]1)N1C[C@@]2(CCN(C3CCCNC3)C2)c2ccccc21

>  <score_type>  (29) 
oracle

>  <origin>  (29) 
autodockgpu

>  <m_score__min__energy>  (29) 
-8.2799999999999994

>  <m_primary>  (29) 
energy

>  <meeko>  (29) 
{"free_energy": -8.27, "intermolecular_energy": -9.17, "internal_energy": -1.21, "cluster_size": 8, "cluster_id": 1, "rank_in_cluster": 8}

>  <energy>  (29) 
-8.22

>  <cluster_rmsd>  (29) 
0.0

>  <rmsd>  (29) 
271.86

>  <cluster>  (29) 
2

$$$$
ABNVVKAVWJYHCL-CLOONOSVNA-N
     RDKit          3D

 58 63  0  0  0  0  0  0  0  0999 V2000
  141.1820   76.6720  217.9400 O   0  0  0  0  0  0  0  0  0  0  0  0
  141.7690   76.4710  219.0370 C   0  0  0  0  0  0  0  0  0  0  0  0
  141.8100   77.5490  220.0420 C   0  0  0  0  0  0  0  0  0  0  0  0
  141.8080   78.9160  219.7620 C   0  0  0  0  0  0  0  0  0  0  0  0
  141.8250   79.5300  220.9940 C   0  0  0  0  0  0  0  0  0  0  0  0
  141.8330   80.8810  221.3340 C   0  0  0  0  0  0  0  0  0  0  0  0
  141.8460   81.2150  222.7010 C   0  0  0  0  0  0  0  0  0  0  0  0
  141.8550   82.5170  223.0770 F   0  0  0  0  0  0  0  0  0  0  0  0
  141.8500   80.1990  223.6840 C   0  0  0  0  0  0  0  0  0  0  0  0
  141.8400   78.8430  223.3090 C   0  0  0  0  0  0  0  0  0  0  0  0
  141.8290   78.5450  221.9480 C   0  0  0  0  0  0  0  0  0  0  0  0
  141.8140   77.3280  221.3790 N   0  0  0  0  0  0  0  0  0  0  0  0
  142.4300   75.2190  219.2630 N   0  0  0  0  0  0  0  0  0  0  0  0
  143.6400   74.7990  218.5610 C   0  0  0  0  0  0  0  0  0  0  0  0
  144.0400   73.4180  219.1880 C   0  0  2  0  0  0  0  0  0  0  0  0
  145.3100   73.4970  220.0290 C   0  0  0  0  0  0  0  0  0  0  0  0
  145.9510   72.1360  219.8570 C   0  0  0  0  0  0  0  0  0  0  0  0
  145.6070   71.6640  218.5070 N   0  0  0  0  0  0  0  0  0  0  0  0
  145.5460   70.1810  218.3990 C   0  0  2  0  0  0  0  0  0  0  0  0
  144.1470   69.6440  218.7790 C   0  0  0  0  0  0  0  0  0  0  0  0
  144.0770   68.1140  218.6390 C   0  0  0  0  0  0  0  0  0  0  0  0
  145.4320   67.4360  218.9060 C   0  0  0  0  0  0  0  0  0  0  0  0
  146.2310   68.2060  219.8640 N   0  0  0  0  0  0  0  0  0  0  0  0
  146.6180   69.5250  219.3260 C   0  0  0  0  0  0  0  0  0  0  0  0
  144.3340   72.3220  218.1450 C   0  0  0  0  0  0  0  0  0  0  0  0
  142.8410   73.0920  220.0470 C   0  0  0  0  0  0  0  0  0  0  0  0
  142.5600   71.9110  220.7470 C   0  0  0  0  0  0  0  0  0  0  0  0
  141.3550   71.8210  221.4610 C   0  0  0  0  0  0  0  0  0  0  0  0
  140.4470   72.8950  221.4570 C   0  0  0  0  0  0  0  0  0  0  0  0
  140.7440   74.0680  220.7470 C   0  0  0  0  0  0  0  0  0  0  0  0
  141.9660   74.1470  220.0670 C   0  0  0  0  0  0  0  0  0  0  0  0
  141.7956   79.3977  218.7731 H   0  0  0  0  0  0  0  0  0  0  0  0
  141.8293   81.6615  220.5589 H   0  0  0  0  0  0  0  0  0  0  0  0
  141.8610   80.4706  224.7499 H   0  0  0  0  0  0  0  0  0  0  0  0
  141.8408   78.0444  224.0654 H   0  0  0  0  0  0  0  0  0  0  0  0
  141.8090   76.4050  221.8680 H   0  0  0  0  0  0  0  0  0  0  0  0
  143.4396   74.6876  217.4852 H   0  0  0  0  0  0  0  0  0  0  0  0
  144.4464   75.5398  218.6652 H   0  0  0  0  0  0  0  0  0  0  0  0
  145.9748   74.2915  219.6590 H   0  0  0  0  0  0  0  0  0  0  0  0
  145.1048   73.7373  221.0826 H   0  0  0  0  0  0  0  0  0  0  0  0
  147.0430   72.2172  219.9616 H   0  0  0  0  0  0  0  0  0  0  0  0
  145.5891   71.4331  220.6218 H   0  0  0  0  0  0  0  0  0  0  0  0
  145.7501   69.9176  217.3507 H   0  0  0  0  0  0  0  0  0  0  0  0
  143.9292   69.9184  219.8217 H   0  0  0  0  0  0  0  0  0  0  0  0
  143.4080   70.0886  218.0963 H   0  0  0  0  0  0  0  0  0  0  0  0
  143.3408   67.7271  219.3590 H   0  0  0  0  0  0  0  0  0  0  0  0
  143.7872   67.8858  217.6027 H   0  0  0  0  0  0  0  0  0  0  0  0
  145.2554   66.4295  219.3133 H   0  0  0  0  0  0  0  0  0  0  0  0
  145.9857   67.3791  217.9572 H   0  0  0  0  0  0  0  0  0  0  0  0
  145.6710   68.3410  220.7400 H   0  0  0  0  0  0  0  0  0  0  0  0
  146.8015   70.2022  220.1732 H   0  0  0  0  0  0  0  0  0  0  0  0
  147.5126   69.3624  218.7069 H   0  0  0  0  0  0  0  0  0  0  0  0
  144.4201   72.7735  217.1456 H   0  0  0  0  0  0  0  0  0  0  0  0
  143.5178   71.5847  218.1307 H   0  0  0  0  0  0  0  0  0  0  0  0
  143.2700   71.0709  220.7371 H   0  0  0  0  0  0  0  0  0  0  0  0
  141.1199   70.9069  222.0259 H   0  0  0  0  0  0  0  0  0  0  0  0
  139.5009   72.8150  222.0124 H   0  0  0  0  0  0  0  0  0  0  0  0
  140.0330   74.9070  220.7248 H   0  0  0  0  0  0  0  0  0  0  0  0
  1  2  2  0
  2  3  1  0
  3  4  2  0
  4  5  1  0
  5  6  2  0
  6  7  1  0
  7  8  1  0
  7  9  2  0
  9 10  1  0
 10 11  2  0
 11 12  1  0
  2 13  1  0
 13 14  1  0
 15 14  1  6
 15 16  1  0
 16 17  1  0
 17 18  1  0
 18 19  1  0
 19 20  1  0
 20 21  1  0
 21 22  1  0
 22 23  1  0
 23 24  1  0
 18 25  1  0
 15 26  1  0
 26 27  2  0
 27 28  1  0
 28 29  2  0
 29 30  1  0
 30 31  2  0
 12  3  1  0
 31 13  1  0
 11  5  1  0
 25 15  1  0
 31 26  1  0
 24 19  1  0
  4 32  1  0
  6 33  1  0
  9 34  1  0
 10 35  1  0
 12 36  1  0
 14 37  1  0
 14 38  1  0
 16 39  1  0
 16 40  1  0
 17 41  1  0
 17 42  1  0
 19 43  1  6
 20 44  1  0
 20 45  1  0
 21 46  1  0
 21 47  1  0
 22 48  1  0
 22 49  1  0
 23 50  1  0
 24 51  1  0
 24 52  1  0
 25 53  1  0
 25 54  1  0
 27 55  1  0
 28 56  1  0
 29 57  1  0
 30 58  1  0
M  END
>  <UniqueID>  (30) 
23

>  <SMILES>  (30) 
O=C(c1cc2cc(F)ccc2[nH]1)N1C[C@@]2(CCN([C@@H]3CCCNC3)C2)c2ccccc21

>  <Energy>  (30) 
129.555333351433

>  <Genealogy>  (30) 
O=C(c1cc2cc(F)ccc2[nH]1)N1C[C@@]2(CCN([C@@H]3CCCNC3)C2)c2ccccc21 (chirality)
O=C(c1cc2cc(F)ccc2[nH]1)N1C[C@@]2(CCN([C@@H]3CCCNC3)C2)c2ccccc21 (3D coordinates assigned)
O=C(c1cc2cc(F)ccc2[nH]1)N1C[C@@]2(CCN([C@@H]3CCCNC3)C2)c2ccccc21 (nonaromatic ring conformer: 129.555333351433 kcal/mol)

>  <smiles>  (30) 
O=C(c1cc2cc(F)ccc2[nH]1)N1C[C@@]2(CCN(C3CCCNC3)C2)c2ccccc21

>  <score_type>  (30) 
oracle

>  <origin>  (30) 
autodockgpu

>  <m_score__min__energy>  (30) 
-8.2799999999999994

>  <m_primary>  (30) 
energy

>  <meeko>  (30) 
{"free_energy": -8.15, "intermolecular_energy": -9.04, "internal_energy": -1.31, "cluster_size": 6, "cluster_id": 2, "rank_in_cluster": 6}

>  <energy>  (30) 
-8.22

>  <cluster_rmsd>  (30) 
0.06

>  <rmsd>  (30) 
271.82

>  <cluster>  (30) 
2

$$$$
ABNVVKAVWJYHCL-CLOONOSVNA-N
     RDKit          3D

 58 63  0  0  0  0  0  0  0  0999 V2000
  141.2040   76.6850  218.0410 O   0  0  0  0  0  0  0  0  0  0  0  0
  141.7720   76.4570  219.1420 C   0  0  0  0  0  0  0  0  0  0  0  0
  141.7970   77.5100  220.1730 C   0  0  0  0  0  0  0  0  0  0  0  0
  141.8160   78.8830  219.9270 C   0  0  0  0  0  0  0  0  0  0  0  0
  141.8050   79.4670  221.1740 C   0  0  0  0  0  0  0  0  0  0  0  0
  141.8170   80.8100  221.5460 C   0  0  0  0  0  0  0  0  0  0  0  0
  141.7960   81.1110  222.9210 C   0  0  0  0  0  0  0  0  0  0  0  0
  141.8070   82.4040  223.3280 F   0  0  0  0  0  0  0  0  0  0  0  0
  141.7640   80.0720  223.8780 C   0  0  0  0  0  0  0  0  0  0  0  0
  141.7520   78.7260  223.4700 C   0  0  0  0  0  0  0  0  0  0  0  0
  141.7740   78.4600  222.1020 C   0  0  0  0  0  0  0  0  0  0  0  0
  141.7630   77.2570  221.5040 N   0  0  0  0  0  0  0  0  0  0  0  0
  142.4300   75.2010  219.3480 N   0  0  0  0  0  0  0  0  0  0  0  0
  143.6040   74.7620  218.5960 C   0  0  0  0  0  0  0  0  0  0  0  0
  144.0170   73.3820  219.2150 C   0  0  2  0  0  0  0  0  0  0  0  0
  145.3250   73.4540  219.9980 C   0  0  0  0  0  0  0  0  0  0  0  0
  145.9440   72.0850  219.8080 C   0  0  0  0  0  0  0  0  0  0  0  0
  145.5340   71.6070  218.4790 N   0  0  0  0  0  0  0  0  0  0  0  0
  145.4540   70.1230  218.3860 C   0  0  2  0  0  0  0  0  0  0  0  0
  144.0360   69.6120  218.7330 C   0  0  0  0  0  0  0  0  0  0  0  0
  143.9470   68.0820  218.6070 C   0  0  0  0  0  0  0  0  0  0  0  0
  145.2830   67.3870  218.9190 C   0  0  0  0  0  0  0  0  0  0  0  0
  146.0680   68.1550  219.8910 N   0  0  0  0  0  0  0  0  0  0  0  0
  146.4890   69.4620  219.3490 C   0  0  0  0  0  0  0  0  0  0  0  0
  144.2530   72.2750  218.1690 C   0  0  0  0  0  0  0  0  0  0  0  0
  142.8550   73.0750  220.1290 C   0  0  0  0  0  0  0  0  0  0  0  0
  142.5930   71.9020  220.8510 C   0  0  0  0  0  0  0  0  0  0  0  0
  141.4210   71.8300  221.6190 C   0  0  0  0  0  0  0  0  0  0  0  0
  140.5250   72.9140  221.6470 C   0  0  0  0  0  0  0  0  0  0  0  0
  140.8020   74.0790  220.9150 C   0  0  0  0  0  0  0  0  0  0  0  0
  141.9920   74.1390  220.1800 C   0  0  0  0  0  0  0  0  0  0  0  0
  141.8355   79.3887  218.9503 H   0  0  0  0  0  0  0  0  0  0  0  0
  141.8421   81.6086  220.7900 H   0  0  0  0  0  0  0  0  0  0  0  0
  141.7484   80.3176  224.9501 H   0  0  0  0  0  0  0  0  0  0  0  0
  141.7261   77.9096  224.2068 H   0  0  0  0  0  0  0  0  0  0  0  0
  141.7360   76.3230  221.9700 H   0  0  0  0  0  0  0  0  0  0  0  0
  143.3548   74.6448  217.5310 H   0  0  0  0  0  0  0  0  0  0  0  0
  144.4220   75.4947  218.6588 H   0  0  0  0  0  0  0  0  0  0  0  0
  145.9804   74.2388  219.5924 H   0  0  0  0  0  0  0  0  0  0  0  0
  145.1698   73.7041  221.0579 H   0  0  0  0  0  0  0  0  0  0  0  0
  147.0404   72.1556  219.8621 H   0  0  0  0  0  0  0  0  0  0  0  0
  145.6106   71.3915  220.5941 H   0  0  0  0  0  0  0  0  0  0  0  0
  145.6837   69.8441  217.3471 H   0  0  0  0  0  0  0  0  0  0  0  0
  143.7939   69.9011  219.7663 H   0  0  0  0  0  0  0  0  0  0  0  0
  143.3226   70.0606  218.0260 H   0  0  0  0  0  0  0  0  0  0  0  0
  143.1852   67.7138  219.3099 H   0  0  0  0  0  0  0  0  0  0  0  0
  143.6832   67.8471  217.5653 H   0  0  0  0  0  0  0  0  0  0  0  0
  145.0795   66.3879  219.3319 H   0  0  0  0  0  0  0  0  0  0  0  0
  145.8618   67.3118  217.9866 H   0  0  0  0  0  0  0  0  0  0  0  0
  145.4860   68.3090  220.7480 H   0  0  0  0  0  0  0  0  0  0  0  0
  146.6593   70.1461  220.1934 H   0  0  0  0  0  0  0  0  0  0  0  0
  147.3974   69.2787  218.7564 H   0  0  0  0  0  0  0  0  0  0  0  0
  144.2986   72.7178  217.1631 H   0  0  0  0  0  0  0  0  0  0  0  0
  143.4297   71.5461  218.1973 H   0  0  0  0  0  0  0  0  0  0  0  0
  143.2930   71.0542  220.8160 H   0  0  0  0  0  0  0  0  0  0  0  0
  141.2021   70.9228  222.2012 H   0  0  0  0  0  0  0  0  0  0  0  0
  139.6039   72.8484  222.2448 H   0  0  0  0  0  0  0  0  0  0  0  0
  140.0999   74.9258  220.9187 H   0  0  0  0  0  0  0  0  0  0  0  0
  1  2  2  0
  2  3  1  0
  3  4  2  0
  4  5  1  0
  5  6  2  0
  6  7  1  0
  7  8  1  0
  7  9  2  0
  9 10  1  0
 10 11  2  0
 11 12  1  0
  2 13  1  0
 13 14  1  0
 15 14  1  6
 15 16  1  0
 16 17  1  0
 17 18  1  0
 18 19  1  0
 19 20  1  0
 20 21  1  0
 21 22  1  0
 22 23  1  0
 23 24  1  0
 18 25  1  0
 15 26  1  0
 26 27  2  0
 27 28  1  0
 28 29  2  0
 29 30  1  0
 30 31  2  0
 12  3  1  0
 31 13  1  0
 11  5  1  0
 25 15  1  0
 31 26  1  0
 24 19  1  0
  4 32  1  0
  6 33  1  0
  9 34  1  0
 10 35  1  0
 12 36  1  0
 14 37  1  0
 14 38  1  0
 16 39  1  0
 16 40  1  0
 17 41  1  0
 17 42  1  0
 19 43  1  6
 20 44  1  0
 20 45  1  0
 21 46  1  0
 21 47  1  0
 22 48  1  0
 22 49  1  0
 23 50  1  0
 24 51  1  0
 24 52  1  0
 25 53  1  0
 25 54  1  0
 27 55  1  0
 28 56  1  0
 29 57  1  0
 30 58  1  0
M  END
>  <UniqueID>  (31) 
23

>  <SMILES>  (31) 
O=C(c1cc2cc(F)ccc2[nH]1)N1C[C@@]2(CCN([C@@H]3CCCNC3)C2)c2ccccc21

>  <Energy>  (31) 
129.555333351433

>  <Genealogy>  (31) 
O=C(c1cc2cc(F)ccc2[nH]1)N1C[C@@]2(CCN([C@@H]3CCCNC3)C2)c2ccccc21 (chirality)
O=C(c1cc2cc(F)ccc2[nH]1)N1C[C@@]2(CCN([C@@H]3CCCNC3)C2)c2ccccc21 (3D coordinates assigned)
O=C(c1cc2cc(F)ccc2[nH]1)N1C[C@@]2(CCN([C@@H]3CCCNC3)C2)c2ccccc21 (nonaromatic ring conformer: 129.555333351433 kcal/mol)

>  <smiles>  (31) 
O=C(c1cc2cc(F)ccc2[nH]1)N1C[C@@]2(CCN(C3CCCNC3)C2)c2ccccc21

>  <score_type>  (31) 
oracle

>  <origin>  (31) 
autodockgpu

>  <m_score__min__energy>  (31) 
-8.2799999999999994

>  <m_primary>  (31) 
energy

>  <meeko>  (31) 
{"free_energy": -8.16, "intermolecular_energy": -9.05, "internal_energy": -1.32, "cluster_size": 6, "cluster_id": 2, "rank_in_cluster": 5}

>  <energy>  (31) 
-8.21

>  <cluster_rmsd>  (31) 
1.31

>  <rmsd>  (31) 
271.73

>  <cluster>  (31) 
2

$$$$
ABNVVKAVWJYHCL-CLOONOSVNA-N
     RDKit          3D

 58 63  0  0  0  0  0  0  0  0999 V2000
  139.1450   70.9330  221.1820 O   0  0  0  0  0  0  0  0  0  0  0  0
  139.4460   71.7100  222.1270 C   0  0  0  0  0  0  0  0  0  0  0  0
  139.7000   71.1520  223.4670 C   0  0  0  0  0  0  0  0  0  0  0  0
  139.5570   69.8110  223.8260 C   0  0  0  0  0  0  0  0  0  0  0  0
  139.9270   69.7560  225.1510 C   0  0  0  0  0  0  0  0  0  0  0  0
  139.9810   68.6790  226.0330 C   0  0  0  0  0  0  0  0  0  0  0  0
  140.4110   68.9300  227.3500 C   0  0  0  0  0  0  0  0  0  0  0  0
  140.4770   67.9120  228.2430 F   0  0  0  0  0  0  0  0  0  0  0  0
  140.7720   70.2370  227.7460 C   0  0  0  0  0  0  0  0  0  0  0  0
  140.7070   71.3040  226.8310 C   0  0  0  0  0  0  0  0  0  0  0  0
  140.2780   71.0240  225.5350 C   0  0  0  0  0  0  0  0  0  0  0  0
  140.1490   71.8870  224.5140 N   0  0  0  0  0  0  0  0  0  0  0  0
  139.4820   73.1240  221.8930 N   0  0  0  0  0  0  0  0  0  0  0  0
  140.7110   73.8850  221.6800 C   0  0  0  0  0  0  0  0  0  0  0  0
  140.2570   75.3560  221.3850 C   0  0  2  0  0  0  0  0  0  0  0  0
  140.4950   75.7680  219.9350 C   0  0  0  0  0  0  0  0  0  0  0  0
  140.7860   77.2510  220.0160 C   0  0  0  0  0  0  0  0  0  0  0  0
  141.4540   77.4900  221.3050 N   0  0  0  0  0  0  0  0  0  0  0  0
  141.2140   78.8550  221.8500 C   0  0  2  0  0  0  0  0  0  0  0  0
  142.4110   79.3430  222.6960 C   0  0  0  0  0  0  0  0  0  0  0  0
  142.1740   80.7650  223.2330 C   0  0  0  0  0  0  0  0  0  0  0  0
  140.6850   81.0600  223.4810 C   0  0  0  0  0  0  0  0  0  0  0  0
  139.9540   79.8400  223.8390 N   0  0  0  0  0  0  0  0  0  0  0  0
  139.9230   78.8700  222.7280 C   0  0  0  0  0  0  0  0  0  0  0  0
  141.0040   76.4170  222.2160 C   0  0  0  0  0  0  0  0  0  0  0  0
  138.7810   75.3110  221.6990 C   0  0  0  0  0  0  0  0  0  0  0  0
  137.8620   76.3680  221.7530 C   0  0  0  0  0  0  0  0  0  0  0  0
  136.5320   76.0890  222.1020 C   0  0  0  0  0  0  0  0  0  0  0  0
  136.1400   74.7720  222.4030 C   0  0  0  0  0  0  0  0  0  0  0  0
  137.0740   73.7270  222.3470 C   0  0  0  0  0  0  0  0  0  0  0  0
  138.3880   74.0240  221.9670 C   0  0  0  0  0  0  0  0  0  0  0  0
  139.2217   68.9792  223.1891 H   0  0  0  0  0  0  0  0  0  0  0  0
  139.6971   67.6662  225.7112 H   0  0  0  0  0  0  0  0  0  0  0  0
  141.1065   70.4221  228.7775 H   0  0  0  0  0  0  0  0  0  0  0  0
  140.9857   72.3256  227.1289 H   0  0  0  0  0  0  0  0  0  0  0  0
  140.3510   72.9120  224.5270 H   0  0  0  0  0  0  0  0  0  0  0  0
  141.3426   73.8523  222.5800 H   0  0  0  0  0  0  0  0  0  0  0  0
  141.3051   73.4710  220.8520 H   0  0  0  0  0  0  0  0  0  0  0  0
  141.3518   75.2245  219.5102 H   0  0  0  0  0  0  0  0  0  0  0  0
  139.6370   75.5409  219.2852 H   0  0  0  0  0  0  0  0  0  0  0  0
  141.4445   77.5523  219.1880 H   0  0  0  0  0  0  0  0  0  0  0  0
  139.8582   77.8371  219.9407 H   0  0  0  0  0  0  0  0  0  0  0  0
  141.0885   79.5348  220.9944 H   0  0  0  0  0  0  0  0  0  0  0  0
  142.5522   78.6583  223.5453 H   0  0  0  0  0  0  0  0  0  0  0  0
  143.3051   79.3586  222.0554 H   0  0  0  0  0  0  0  0  0  0  0  0
  142.7191   80.8793  224.1816 H   0  0  0  0  0  0  0  0  0  0  0  0
  142.5332   81.4739  222.4724 H   0  0  0  0  0  0  0  0  0  0  0  0
  140.5952   81.7859  224.3026 H   0  0  0  0  0  0  0  0  0  0  0  0
  140.2519   81.4659  222.5549 H   0  0  0  0  0  0  0  0  0  0  0  0
  140.4190   79.4000  224.6690 H   0  0  0  0  0  0  0  0  0  0  0  0
  139.7837   77.8648  223.1524 H   0  0  0  0  0  0  0  0  0  0  0  0
  139.0974   79.1744  222.0679 H   0  0  0  0  0  0  0  0  0  0  0  0
  141.8741   75.9584  222.7085 H   0  0  0  0  0  0  0  0  0  0  0  0
  140.3382   76.8306  222.9878 H   0  0  0  0  0  0  0  0  0  0  0  0
  138.1776   77.3970  221.5260 H   0  0  0  0  0  0  0  0  0  0  0  0
  135.7932   76.9030  222.1404 H   0  0  0  0  0  0  0  0  0  0  0  0
  135.0975   74.5609  222.6832 H   0  0  0  0  0  0  0  0  0  0  0  0
  136.7803   72.6967  222.5963 H   0  0  0  0  0  0  0  0  0  0  0  0
  1  2  2  0
  2  3  1  0
  3  4  2  0
  4  5  1  0
  5  6  2  0
  6  7  1  0
  7  8  1  0
  7  9  2  0
  9 10  1  0
 10 11  2  0
 11 12  1  0
  2 13  1  0
 13 14  1  0
 15 14  1  6
 15 16  1  0
 16 17  1  0
 17 18  1  0
 18 19  1  0
 19 20  1  0
 20 21  1  0
 21 22  1  0
 22 23  1  0
 23 24  1  0
 18 25  1  0
 15 26  1  0
 26 27  2  0
 27 28  1  0
 28 29  2  0
 29 30  1  0
 30 31  2  0
 12  3  1  0
 31 13  1  0
 11  5  1  0
 25 15  1  0
 31 26  1  0
 24 19  1  0
  4 32  1  0
  6 33  1  0
  9 34  1  0
 10 35  1  0
 12 36  1  0
 14 37  1  0
 14 38  1  0
 16 39  1  0
 16 40  1  0
 17 41  1  0
 17 42  1  0
 19 43  1  6
 20 44  1  0
 20 45  1  0
 21 46  1  0
 21 47  1  0
 22 48  1  0
 22 49  1  0
 23 50  1  0
 24 51  1  0
 24 52  1  0
 25 53  1  0
 25 54  1  0
 27 55  1  0
 28 56  1  0
 29 57  1  0
 30 58  1  0
M  END
>  <UniqueID>  (32) 
23

>  <SMILES>  (32) 
O=C(c1cc2cc(F)ccc2[nH]1)N1C[C@@]2(CCN([C@@H]3CCCNC3)C2)c2ccccc21

>  <Energy>  (32) 
129.555333351433

>  <Genealogy>  (32) 
O=C(c1cc2cc(F)ccc2[nH]1)N1C[C@@]2(CCN([C@@H]3CCCNC3)C2)c2ccccc21 (chirality)
O=C(c1cc2cc(F)ccc2[nH]1)N1C[C@@]2(CCN([C@@H]3CCCNC3)C2)c2ccccc21 (3D coordinates assigned)
O=C(c1cc2cc(F)ccc2[nH]1)N1C[C@@]2(CCN([C@@H]3CCCNC3)C2)c2ccccc21 (nonaromatic ring conformer: 129.555333351433 kcal/mol)

>  <smiles>  (32) 
O=C(c1cc2cc(F)ccc2[nH]1)N1C[C@@]2(CCN(C3CCCNC3)C2)c2ccccc21

>  <score_type>  (32) 
oracle

>  <origin>  (32) 
autodockgpu

>  <m_score__min__energy>  (32) 
-8.2799999999999994

>  <m_primary>  (32) 
energy

>  <meeko>  (32) 
{"free_energy": -8.28, "intermolecular_energy": -9.17, "internal_energy": -1.21, "cluster_size": 8, "cluster_id": 1, "rank_in_cluster": 5}

>  <energy>  (32) 
-8.18

>  <cluster_rmsd>  (32) 
1.24

>  <rmsd>  (32) 
271.69

>  <cluster>  (32) 
2

$$$$
ABNVVKAVWJYHCL-CLOONOSVNA-N
     RDKit          3D

 58 63  0  0  0  0  0  0  0  0999 V2000
  142.3220   77.5080  218.1610 O   0  0  0  0  0  0  0  0  0  0  0  0
  142.1820   76.9530  219.2840 C   0  0  0  0  0  0  0  0  0  0  0  0
  141.5140   77.6870  220.3730 C   0  0  0  0  0  0  0  0  0  0  0  0
  140.1340   77.7890  220.5520 C   0  0  0  0  0  0  0  0  0  0  0  0
  139.9790   78.5350  221.6990 C   0  0  0  0  0  0  0  0  0  0  0  0
  138.8260   78.9540  222.3600 C   0  0  0  0  0  0  0  0  0  0  0  0
  138.9810   79.7140  223.5340 C   0  0  0  0  0  0  0  0  0  0  0  0
  137.8870   80.1440  224.2080 F   0  0  0  0  0  0  0  0  0  0  0  0
  140.2720   80.0320  224.0130 C   0  0  0  0  0  0  0  0  0  0  0  0
  141.4170   79.5930  223.3250 C   0  0  0  0  0  0  0  0  0  0  0  0
  141.2310   78.8430  222.1650 C   0  0  0  0  0  0  0  0  0  0  0  0
  142.1800   78.3260  221.3660 N   0  0  0  0  0  0  0  0  0  0  0  0
  142.7250   75.6430  219.4940 N   0  0  0  0  0  0  0  0  0  0  0  0
  143.9030   75.1270  218.8000 C   0  0  0  0  0  0  0  0  0  0  0  0
  144.1670   73.7050  219.4060 C   0  0  2  0  0  0  0  0  0  0  0  0
  145.4270   73.6540  220.2650 C   0  0  0  0  0  0  0  0  0  0  0  0
  145.9450   72.2450  220.0760 C   0  0  0  0  0  0  0  0  0  0  0  0
  145.5790   71.8290  218.7130 N   0  0  0  0  0  0  0  0  0  0  0  0
  145.3870   70.3590  218.5770 C   0  0  2  0  0  0  0  0  0  0  0  0
  144.0150   69.9160  219.1360 C   0  0  0  0  0  0  0  0  0  0  0  0
  143.8050   68.4020  218.9680 C   0  0  0  0  0  0  0  0  0  0  0  0
  145.1260   67.6150  219.0240 C   0  0  0  0  0  0  0  0  0  0  0  0
  146.1090   68.2870  219.8800 N   0  0  0  0  0  0  0  0  0  0  0  0
  146.5210   69.5910  219.3260 C   0  0  0  0  0  0  0  0  0  0  0  0
  144.3760   72.6050  218.3470 C   0  0  0  0  0  0  0  0  0  0  0  0
  142.9320   73.4740  220.2440 C   0  0  0  0  0  0  0  0  0  0  0  0
  142.5350   72.3110  220.9180 C   0  0  0  0  0  0  0  0  0  0  0  0
  141.3170   72.3180  221.6150 C   0  0  0  0  0  0  0  0  0  0  0  0
  140.5100   73.4700  221.6190 C   0  0  0  0  0  0  0  0  0  0  0  0
  140.9210   74.6240  220.9350 C   0  0  0  0  0  0  0  0  0  0  0  0
  142.1550   74.6030  220.2730 C   0  0  0  0  0  0  0  0  0  0  0  0
  139.3427   77.3659  219.9158 H   0  0  0  0  0  0  0  0  0  0  0  0
  137.8271   78.6989  221.9764 H   0  0  0  0  0  0  0  0  0  0  0  0
  140.3820   80.6276  224.9312 H   0  0  0  0  0  0  0  0  0  0  0  0
  142.4263   79.8336  223.6902 H   0  0  0  0  0  0  0  0  0  0  0  0
  143.2140   78.4040  221.4860 H   0  0  0  0  0  0  0  0  0  0  0  0
  143.7094   75.0531  217.7197 H   0  0  0  0  0  0  0  0  0  0  0  0
  144.7715   75.7897  218.9289 H   0  0  0  0  0  0  0  0  0  0  0  0
  146.1660   74.3916  219.9187 H   0  0  0  0  0  0  0  0  0  0  0  0
  145.2288   73.8932  221.3202 H   0  0  0  0  0  0  0  0  0  0  0  0
  147.0383   72.2257  220.1957 H   0  0  0  0  0  0  0  0  0  0  0  0
  145.5106   71.5645  220.8231 H   0  0  0  0  0  0  0  0  0  0  0  0
  145.4236   70.1186  217.5042 H   0  0  0  0  0  0  0  0  0  0  0  0
  143.9657   70.1680  220.2056 H   0  0  0  0  0  0  0  0  0  0  0  0
  143.2266   70.4399  218.5757 H   0  0  0  0  0  0  0  0  0  0  0  0
  143.1472   68.0453  219.7743 H   0  0  0  0  0  0  0  0  0  0  0  0
  143.3572   68.2342  217.9774 H   0  0  0  0  0  0  0  0  0  0  0  0
  144.9281   66.6103  219.4257 H   0  0  0  0  0  0  0  0  0  0  0  0
  145.5369   67.5521  218.0056 H   0  0  0  0  0  0  0  0  0  0  0  0
  145.6880   68.4310  220.8280 H   0  0  0  0  0  0  0  0  0  0  0  0
  146.8741   70.2214  220.1554 H   0  0  0  0  0  0  0  0  0  0  0  0
  147.3046   69.3835  218.5825 H   0  0  0  0  0  0  0  0  0  0  0  0
  144.5166   73.0639  217.3572 H   0  0  0  0  0  0  0  0  0  0  0  0
  143.4970   71.9447  218.3088 H   0  0  0  0  0  0  0  0  0  0  0  0
  143.1660   71.4101  220.9010 H   0  0  0  0  0  0  0  0  0  0  0  0
  140.9923   71.4194  222.1601 H   0  0  0  0  0  0  0  0  0  0  0  0
  139.5526   73.4662  222.1607 H   0  0  0  0  0  0  0  0  0  0  0  0
  140.2889   75.5241  220.9191 H   0  0  0  0  0  0  0  0  0  0  0  0
  1  2  2  0
  2  3  1  0
  3  4  2  0
  4  5  1  0
  5  6  2  0
  6  7  1  0
  7  8  1  0
  7  9  2  0
  9 10  1  0
 10 11  2  0
 11 12  1  0
  2 13  1  0
 13 14  1  0
 15 14  1  6
 15 16  1  0
 16 17  1  0
 17 18  1  0
 18 19  1  0
 19 20  1  0
 20 21  1  0
 21 22  1  0
 22 23  1  0
 23 24  1  0
 18 25  1  0
 15 26  1  0
 26 27  2  0
 27 28  1  0
 28 29  2  0
 29 30  1  0
 30 31  2  0
 12  3  1  0
 31 13  1  0
 11  5  1  0
 25 15  1  0
 31 26  1  0
 24 19  1  0
  4 32  1  0
  6 33  1  0
  9 34  1  0
 10 35  1  0
 12 36  1  0
 14 37  1  0
 14 38  1  0
 16 39  1  0
 16 40  1  0
 17 41  1  0
 17 42  1  0
 19 43  1  6
 20 44  1  0
 20 45  1  0
 21 46  1  0
 21 47  1  0
 22 48  1  0
 22 49  1  0
 23 50  1  0
 24 51  1  0
 24 52  1  0
 25 53  1  0
 25 54  1  0
 27 55  1  0
 28 56  1  0
 29 57  1  0
 30 58  1  0
M  END
>  <UniqueID>  (33) 
23

>  <SMILES>  (33) 
O=C(c1cc2cc(F)ccc2[nH]1)N1C[C@@]2(CCN([C@@H]3CCCNC3)C2)c2ccccc21

>  <Energy>  (33) 
129.555333351433

>  <Genealogy>  (33) 
O=C(c1cc2cc(F)ccc2[nH]1)N1C[C@@]2(CCN([C@@H]3CCCNC3)C2)c2ccccc21 (chirality)
O=C(c1cc2cc(F)ccc2[nH]1)N1C[C@@]2(CCN([C@@H]3CCCNC3)C2)c2ccccc21 (3D coordinates assigned)
O=C(c1cc2cc(F)ccc2[nH]1)N1C[C@@]2(CCN([C@@H]3CCCNC3)C2)c2ccccc21 (nonaromatic ring conformer: 129.555333351433 kcal/mol)

>  <smiles>  (33) 
O=C(c1cc2cc(F)ccc2[nH]1)N1C[C@@]2(CCN(C3CCCNC3)C2)c2ccccc21

>  <score_type>  (33) 
oracle

>  <origin>  (33) 
autodockgpu

>  <m_score__min__energy>  (33) 
-8.2799999999999994

>  <m_primary>  (33) 
energy

>  <meeko>  (33) 
{"free_energy": -8.22, "intermolecular_energy": -9.11, "internal_energy": -1.29, "cluster_size": 6, "cluster_id": 2, "rank_in_cluster": 2}

>  <energy>  (33) 
-8.16

>  <cluster_rmsd>  (33) 
1.22

>  <rmsd>  (33) 
271.81

>  <cluster>  (33) 
2

$$$$
ABNVVKAVWJYHCL-CLOONOSVNA-N
     RDKit          3D

 58 63  0  0  0  0  0  0  0  0999 V2000
  139.1920   70.8930  221.2560 O   0  0  0  0  0  0  0  0  0  0  0  0
  139.8120   71.6020  222.0940 C   0  0  0  0  0  0  0  0  0  0  0  0
  139.9560   71.1200  223.4790 C   0  0  0  0  0  0  0  0  0  0  0  0
  139.7800   69.8010  223.9000 C   0  0  0  0  0  0  0  0  0  0  0  0
  140.0440   69.8220  225.2510 C   0  0  0  0  0  0  0  0  0  0  0  0
  140.0240   68.7960  226.1940 C   0  0  0  0  0  0  0  0  0  0  0  0
  140.3480   69.1220  227.5250 C   0  0  0  0  0  0  0  0  0  0  0  0
  140.3400   68.1560  228.4760 F   0  0  0  0  0  0  0  0  0  0  0  0
  140.6810   70.4500  227.8740 C   0  0  0  0  0  0  0  0  0  0  0  0
  140.6940   71.4630  226.8980 C   0  0  0  0  0  0  0  0  0  0  0  0
  140.3680   71.1100  225.5900 C   0  0  0  0  0  0  0  0  0  0  0  0
  140.3230   71.9140  224.5140 N   0  0  0  0  0  0  0  0  0  0  0  0
  140.3150   72.8840  221.6970 N   0  0  0  0  0  0  0  0  0  0  0  0
  139.4910   74.0860  221.5900 C   0  0  0  0  0  0  0  0  0  0  0  0
  140.4740   75.2460  221.2100 C   0  0  2  0  0  0  0  0  0  0  0  0
  140.6750   76.2450  222.3460 C   0  0  0  0  0  0  0  0  0  0  0  0
  140.9070   77.5640  221.6400 C   0  0  0  0  0  0  0  0  0  0  0  0
  140.1300   77.5280  220.3910 N   0  0  0  0  0  0  0  0  0  0  0  0
  140.7210   78.3580  219.3060 C   0  0  2  0  0  0  0  0  0  0  0  0
  142.0290   77.7350  218.7680 C   0  0  0  0  0  0  0  0  0  0  0  0
  142.6220   78.5780  217.6260 C   0  0  0  0  0  0  0  0  0  0  0  0
  142.3030   80.0750  217.7730 C   0  0  0  0  0  0  0  0  0  0  0  0
  142.1710   80.4550  219.1830 N   0  0  0  0  0  0  0  0  0  0  0  0
  141.0130   79.8010  219.8240 C   0  0  0  0  0  0  0  0  0  0  0  0
  139.9980   76.1030  220.0210 C   0  0  0  0  0  0  0  0  0  0  0  0
  141.7540   74.5030  220.9110 C   0  0  0  0  0  0  0  0  0  0  0  0
  142.9540   74.9990  220.3830 C   0  0  0  0  0  0  0  0  0  0  0  0
  144.0120   74.1060  220.1560 C   0  0  0  0  0  0  0  0  0  0  0  0
  143.8580   72.7380  220.4430 C   0  0  0  0  0  0  0  0  0  0  0  0
  142.6480   72.2580  220.9680 C   0  0  0  0  0  0  0  0  0  0  0  0
  141.6170   73.1720  221.2140 C   0  0  0  0  0  0  0  0  0  0  0  0
  139.4931   68.9342  223.2865 H   0  0  0  0  0  0  0  0  0  0  0  0
  139.7638   67.7661  225.9081 H   0  0  0  0  0  0  0  0  0  0  0  0
  140.9320   70.6937  228.9169 H   0  0  0  0  0  0  0  0  0  0  0  0
  140.9530   72.4998  227.1588 H   0  0  0  0  0  0  0  0  0  0  0  0
  140.5280   72.9370  224.4860 H   0  0  0  0  0  0  0  0  0  0  0  0
  138.7281   73.9589  220.8078 H   0  0  0  0  0  0  0  0  0  0  0  0
  138.9598   74.2974  222.5298 H   0  0  0  0  0  0  0  0  0  0  0  0
  139.7807   76.2957  222.9844 H   0  0  0  0  0  0  0  0  0  0  0  0
  141.5079   75.9686  223.0093 H   0  0  0  0  0  0  0  0  0  0  0  0
  140.5655   78.3962  222.2731 H   0  0  0  0  0  0  0  0  0  0  0  0
  141.9766   77.7141  221.4318 H   0  0  0  0  0  0  0  0  0  0  0  0
  139.9889   78.3996  218.4861 H   0  0  0  0  0  0  0  0  0  0  0  0
  142.7610   77.6759  219.5870 H   0  0  0  0  0  0  0  0  0  0  0  0
  141.8006   76.7326  218.3768 H   0  0  0  0  0  0  0  0  0  0  0  0
  143.7144   78.4487  217.6224 H   0  0  0  0  0  0  0  0  0  0  0  0
  142.1708   78.2307  216.6848 H   0  0  0  0  0  0  0  0  0  0  0  0
  143.1154   80.6609  217.3184 H   0  0  0  0  0  0  0  0  0  0  0  0
  141.3473   80.2779  217.2675 H   0  0  0  0  0  0  0  0  0  0  0  0
  143.0460   80.1800  219.6890 H   0  0  0  0  0  0  0  0  0  0  0  0
  141.2038   79.7464  220.9059 H   0  0  0  0  0  0  0  0  0  0  0  0
  140.1308   80.4091  219.5751 H   0  0  0  0  0  0  0  0  0  0  0  0
  138.9461   75.8736  219.7952 H   0  0  0  0  0  0  0  0  0  0  0  0
  140.6064   75.8856  219.1307 H   0  0  0  0  0  0  0  0  0  0  0  0
  143.0641   76.0686  220.1509 H   0  0  0  0  0  0  0  0  0  0  0  0
  144.9654   74.4773  219.7521 H   0  0  0  0  0  0  0  0  0  0  0  0
  144.6886   72.0417  220.2554 H   0  0  0  0  0  0  0  0  0  0  0  0
  142.5130   71.1874  221.1813 H   0  0  0  0  0  0  0  0  0  0  0  0
  1  2  2  0
  2  3  1  0
  3  4  2  0
  4  5  1  0
  5  6  2  0
  6  7  1  0
  7  8  1  0
  7  9  2  0
  9 10  1  0
 10 11  2  0
 11 12  1  0
  2 13  1  0
 13 14  1  0
 15 14  1  1
 15 16  1  0
 16 17  1  0
 17 18  1  0
 18 19  1  0
 19 20  1  0
 20 21  1  0
 21 22  1  0
 22 23  1  0
 23 24  1  0
 18 25  1  0
 15 26  1  0
 26 27  2  0
 27 28  1  0
 28 29  2  0
 29 30  1  0
 30 31  2  0
 12  3  1  0
 31 13  1  0
 11  5  1  0
 25 15  1  0
 31 26  1  0
 24 19  1  0
  4 32  1  0
  6 33  1  0
  9 34  1  0
 10 35  1  0
 12 36  1  0
 14 37  1  0
 14 38  1  0
 16 39  1  0
 16 40  1  0
 17 41  1  0
 17 42  1  0
 19 43  1  6
 20 44  1  0
 20 45  1  0
 21 46  1  0
 21 47  1  0
 22 48  1  0
 22 49  1  0
 23 50  1  0
 24 51  1  0
 24 52  1  0
 25 53  1  0
 25 54  1  0
 27 55  1  0
 28 56  1  0
 29 57  1  0
 30 58  1  0
M  END
>  <UniqueID>  (34) 
23

>  <SMILES>  (34) 
O=C(c1cc2cc(F)ccc2[nH]1)N1C[C@@]2(CCN([C@@H]3CCCNC3)C2)c2ccccc21

>  <Energy>  (34) 
129.555333351433

>  <Genealogy>  (34) 
O=C(c1cc2cc(F)ccc2[nH]1)N1C[C@@]2(CCN([C@@H]3CCCNC3)C2)c2ccccc21 (chirality)
O=C(c1cc2cc(F)ccc2[nH]1)N1C[C@@]2(CCN([C@@H]3CCCNC3)C2)c2ccccc21 (3D coordinates assigned)
O=C(c1cc2cc(F)ccc2[nH]1)N1C[C@@]2(CCN([C@@H]3CCCNC3)C2)c2ccccc21 (nonaromatic ring conformer: 129.555333351433 kcal/mol)

>  <smiles>  (34) 
O=C(c1cc2cc(F)ccc2[nH]1)N1C[C@@]2(CCN(C3CCCNC3)C2)c2ccccc21

>  <score_type>  (34) 
oracle

>  <origin>  (34) 
autodockgpu

>  <m_score__min__energy>  (34) 
-8.2799999999999994

>  <m_primary>  (34) 
energy

>  <meeko>  (34) 
{"free_energy": -8.2, "intermolecular_energy": -9.09, "internal_energy": -1.26, "cluster_size": 6, "cluster_id": 3, "rank_in_cluster": 4}

>  <energy>  (34) 
-8.15

>  <cluster_rmsd>  (34) 
1.26

>  <rmsd>  (34) 
271.77

>  <cluster>  (34) 
2

$$$$
ABNVVKAVWJYHCL-CLOONOSVNA-N
     RDKit          3D

 58 63  0  0  0  0  0  0  0  0999 V2000
  139.1060   70.9410  221.1770 O   0  0  0  0  0  0  0  0  0  0  0  0
  139.4240   71.7160  222.1190 C   0  0  0  0  0  0  0  0  0  0  0  0
  139.6910   71.1540  223.4550 C   0  0  0  0  0  0  0  0  0  0  0  0
  139.5600   69.8120  223.8100 C   0  0  0  0  0  0  0  0  0  0  0  0
  139.9390   69.7550  225.1320 C   0  0  0  0  0  0  0  0  0  0  0  0
  140.0080   68.6750  226.0110 C   0  0  0  0  0  0  0  0  0  0  0  0
  140.4440   68.9250  227.3250 C   0  0  0  0  0  0  0  0  0  0  0  0
  140.5250   67.9050  228.2140 F   0  0  0  0  0  0  0  0  0  0  0  0
  140.7980   70.2340  227.7240 C   0  0  0  0  0  0  0  0  0  0  0  0
  140.7200   71.3030  226.8130 C   0  0  0  0  0  0  0  0  0  0  0  0
  140.2830   71.0240  225.5190 C   0  0  0  0  0  0  0  0  0  0  0  0
  140.1410   71.8900  224.5010 N   0  0  0  0  0  0  0  0  0  0  0  0
  139.4650   73.1290  221.8850 N   0  0  0  0  0  0  0  0  0  0  0  0
  140.6970   73.8850  221.6710 C   0  0  0  0  0  0  0  0  0  0  0  0
  140.2490   75.3580  221.3770 C   0  0  2  0  0  0  0  0  0  0  0  0
  140.4870   75.7700  219.9270 C   0  0  0  0  0  0  0  0  0  0  0  0
  140.7840   77.2520  220.0090 C   0  0  0  0  0  0  0  0  0  0  0  0
  141.4550   77.4880  221.2970 N   0  0  0  0  0  0  0  0  0  0  0  0
  141.2210   78.8530  221.8420 C   0  0  2  0  0  0  0  0  0  0  0  0
  142.4160   79.3300  222.7000 C   0  0  0  0  0  0  0  0  0  0  0  0
  142.1860   80.7520  223.2380 C   0  0  0  0  0  0  0  0  0  0  0  0
  140.6970   81.0580  223.4740 C   0  0  0  0  0  0  0  0  0  0  0  0
  139.9540   79.8440  223.8240 N   0  0  0  0  0  0  0  0  0  0  0  0
  139.9240   78.8760  222.7100 C   0  0  0  0  0  0  0  0  0  0  0  0
  141.0020   76.4160  222.2080 C   0  0  0  0  0  0  0  0  0  0  0  0
  138.7730   75.3190  221.6940 C   0  0  0  0  0  0  0  0  0  0  0  0
  137.8590   76.3800  221.7500 C   0  0  0  0  0  0  0  0  0  0  0  0
  136.5280   76.1070  222.1010 C   0  0  0  0  0  0  0  0  0  0  0  0
  136.1310   74.7920  222.4020 C   0  0  0  0  0  0  0  0  0  0  0  0
  137.0600   73.7420  222.3430 C   0  0  0  0  0  0  0  0  0  0  0  0
  138.3750   74.0340  221.9620 C   0  0  0  0  0  0  0  0  0  0  0  0
  139.2264   68.9800  223.1724 H   0  0  0  0  0  0  0  0  0  0  0  0
  139.7307   67.6608  225.6877 H   0  0  0  0  0  0  0  0  0  0  0  0
  141.1369   70.4180  228.7542 H   0  0  0  0  0  0  0  0  0  0  0  0
  140.9948   72.3254  227.1118 H   0  0  0  0  0  0  0  0  0  0  0  0
  140.3360   72.9160  224.5160 H   0  0  0  0  0  0  0  0  0  0  0  0
  141.3294   73.8493  222.5704 H   0  0  0  0  0  0  0  0  0  0  0  0
  141.2885   73.4688  220.8422 H   0  0  0  0  0  0  0  0  0  0  0  0
  141.3412   75.2234  219.5008 H   0  0  0  0  0  0  0  0  0  0  0  0
  139.6275   75.5467  219.2779 H   0  0  0  0  0  0  0  0  0  0  0  0
  141.4423   77.5513  219.1801 H   0  0  0  0  0  0  0  0  0  0  0  0
  139.8582   77.8415  219.9360 H   0  0  0  0  0  0  0  0  0  0  0  0
  141.1073   79.5352  220.9866 H   0  0  0  0  0  0  0  0  0  0  0  0
  142.5446   78.6423  223.5488 H   0  0  0  0  0  0  0  0  0  0  0  0
  143.3155   79.3399  222.0670 H   0  0  0  0  0  0  0  0  0  0  0  0
  142.7239   80.8599  224.1914 H   0  0  0  0  0  0  0  0  0  0  0  0
  142.5574   81.4598  222.4823 H   0  0  0  0  0  0  0  0  0  0  0  0
  140.6059   81.7835  224.2958 H   0  0  0  0  0  0  0  0  0  0  0  0
  140.2748   81.4683  222.5448 H   0  0  0  0  0  0  0  0  0  0  0  0
  140.4080   79.3980  224.6560 H   0  0  0  0  0  0  0  0  0  0  0  0
  139.7738   77.8710  223.1312 H   0  0  0  0  0  0  0  0  0  0  0  0
  139.1058   79.1881  222.0444 H   0  0  0  0  0  0  0  0  0  0  0  0
  141.8710   75.9535  222.6988 H   0  0  0  0  0  0  0  0  0  0  0  0
  140.3391   76.8317  222.9811 H   0  0  0  0  0  0  0  0  0  0  0  0
  138.1790   77.4077  221.5230 H   0  0  0  0  0  0  0  0  0  0  0  0
  135.7929   76.9243  222.1408 H   0  0  0  0  0  0  0  0  0  0  0  0
  135.0882   74.5857  222.6848 H   0  0  0  0  0  0  0  0  0  0  0  0
  136.7617   72.7126  222.5906 H   0  0  0  0  0  0  0  0  0  0  0  0
  1  2  2  0
  2  3  1  0
  3  4  2  0
  4  5  1  0
  5  6  2  0
  6  7  1  0
  7  8  1  0
  7  9  2  0
  9 10  1  0
 10 11  2  0
 11 12  1  0
  2 13  1  0
 13 14  1  0
 15 14  1  6
 15 16  1  0
 16 17  1  0
 17 18  1  0
 18 19  1  0
 19 20  1  0
 20 21  1  0
 21 22  1  0
 22 23  1  0
 23 24  1  0
 18 25  1  0
 15 26  1  0
 26 27  2  0
 27 28  1  0
 28 29  2  0
 29 30  1  0
 30 31  2  0
 12  3  1  0
 31 13  1  0
 11  5  1  0
 25 15  1  0
 31 26  1  0
 24 19  1  0
  4 32  1  0
  6 33  1  0
  9 34  1  0
 10 35  1  0
 12 36  1  0
 14 37  1  0
 14 38  1  0
 16 39  1  0
 16 40  1  0
 17 41  1  0
 17 42  1  0
 19 43  1  6
 20 44  1  0
 20 45  1  0
 21 46  1  0
 21 47  1  0
 22 48  1  0
 22 49  1  0
 23 50  1  0
 24 51  1  0
 24 52  1  0
 25 53  1  0
 25 54  1  0
 27 55  1  0
 28 56  1  0
 29 57  1  0
 30 58  1  0
M  END
>  <UniqueID>  (35) 
23

>  <SMILES>  (35) 
O=C(c1cc2cc(F)ccc2[nH]1)N1C[C@@]2(CCN([C@@H]3CCCNC3)C2)c2ccccc21

>  <Energy>  (35) 
129.555333351433

>  <Genealogy>  (35) 
O=C(c1cc2cc(F)ccc2[nH]1)N1C[C@@]2(CCN([C@@H]3CCCNC3)C2)c2ccccc21 (chirality)
O=C(c1cc2cc(F)ccc2[nH]1)N1C[C@@]2(CCN([C@@H]3CCCNC3)C2)c2ccccc21 (3D coordinates assigned)
O=C(c1cc2cc(F)ccc2[nH]1)N1C[C@@]2(CCN([C@@H]3CCCNC3)C2)c2ccccc21 (nonaromatic ring conformer: 129.555333351433 kcal/mol)

>  <smiles>  (35) 
O=C(c1cc2cc(F)ccc2[nH]1)N1C[C@@]2(CCN(C3CCCNC3)C2)c2ccccc21

>  <score_type>  (35) 
oracle

>  <origin>  (35) 
autodockgpu

>  <m_score__min__energy>  (35) 
-8.2799999999999994

>  <m_primary>  (35) 
energy

>  <meeko>  (35) 
{"free_energy": -8.28, "intermolecular_energy": -9.17, "internal_energy": -1.21, "cluster_size": 8, "cluster_id": 1, "rank_in_cluster": 1}

>  <energy>  (35) 
-8.21

>  <cluster_rmsd>  (35) 
0.0

>  <rmsd>  (35) 
272.16

>  <cluster>  (35) 
3

$$$$
ABNVVKAVWJYHCL-CLOONOSVNA-N
     RDKit          3D

 58 63  0  0  0  0  0  0  0  0999 V2000
  139.1670   70.8980  221.2020 O   0  0  0  0  0  0  0  0  0  0  0  0
  139.4660   71.6790  222.1450 C   0  0  0  0  0  0  0  0  0  0  0  0
  139.7200   71.1250  223.4870 C   0  0  0  0  0  0  0  0  0  0  0  0
  139.5940   69.7830  223.8460 C   0  0  0  0  0  0  0  0  0  0  0  0
  139.9570   69.7350  225.1730 C   0  0  0  0  0  0  0  0  0  0  0  0
  140.0210   68.6590  226.0560 C   0  0  0  0  0  0  0  0  0  0  0  0
  140.4400   68.9170  227.3750 C   0  0  0  0  0  0  0  0  0  0  0  0
  140.5160   67.9010  228.2690 F   0  0  0  0  0  0  0  0  0  0  0  0
  140.7810   70.2300  227.7720 C   0  0  0  0  0  0  0  0  0  0  0  0
  140.7070   71.2950  226.8560 C   0  0  0  0  0  0  0  0  0  0  0  0
  140.2880   71.0080  225.5580 C   0  0  0  0  0  0  0  0  0  0  0  0
  140.1530   71.8680  224.5350 N   0  0  0  0  0  0  0  0  0  0  0  0
  139.4980   73.0920  221.9060 N   0  0  0  0  0  0  0  0  0  0  0  0
  140.7260   73.8560  221.6980 C   0  0  0  0  0  0  0  0  0  0  0  0
  140.2690   75.3250  221.3960 C   0  0  2  0  0  0  0  0  0  0  0  0
  140.5140   75.7330  219.9460 C   0  0  0  0  0  0  0  0  0  0  0  0
  140.8000   77.2180  220.0240 C   0  0  0  0  0  0  0  0  0  0  0  0
  141.4600   77.4630  221.3160 N   0  0  0  0  0  0  0  0  0  0  0  0
  141.2110   78.8290  221.8550 C   0  0  2  0  0  0  0  0  0  0  0  0
  142.3990   79.3210  222.7130 C   0  0  0  0  0  0  0  0  0  0  0  0
  142.1540   80.7440  223.2440 C   0  0  0  0  0  0  0  0  0  0  0  0
  140.6620   81.0370  223.4750 C   0  0  0  0  0  0  0  0  0  0  0  0
  139.9290   79.8170  223.8280 N   0  0  0  0  0  0  0  0  0  0  0  0
  139.9110   78.8440  222.7190 C   0  0  0  0  0  0  0  0  0  0  0  0
  141.0080   76.3920  222.2280 C   0  0  0  0  0  0  0  0  0  0  0  0
  138.7910   75.2760  221.7010 C   0  0  0  0  0  0  0  0  0  0  0  0
  137.8690   76.3300  221.7470 C   0  0  0  0  0  0  0  0  0  0  0  0
  136.5370   76.0480  222.0890 C   0  0  0  0  0  0  0  0  0  0  0  0
  136.1480   74.7310  222.3920 C   0  0  0  0  0  0  0  0  0  0  0  0
  137.0860   73.6880  222.3440 C   0  0  0  0  0  0  0  0  0  0  0  0
  138.4010   73.9890  221.9710 C   0  0  0  0  0  0  0  0  0  0  0  0
  139.2744   68.9458  223.2080 H   0  0  0  0  0  0  0  0  0  0  0  0
  139.7531   67.6421  225.7333 H   0  0  0  0  0  0  0  0  0  0  0  0
  141.1068   70.4205  228.8052 H   0  0  0  0  0  0  0  0  0  0  0  0
  140.9711   72.3203  227.1542 H   0  0  0  0  0  0  0  0  0  0  0  0
  140.3410   72.8950  224.5480 H   0  0  0  0  0  0  0  0  0  0  0  0
  141.3524   73.8278  222.6018 H   0  0  0  0  0  0  0  0  0  0  0  0
  141.3263   73.4414  220.8748 H   0  0  0  0  0  0  0  0  0  0  0  0
  141.3750   75.1909  219.5279 H   0  0  0  0  0  0  0  0  0  0  0  0
  139.6605   75.5010  219.2920 H   0  0  0  0  0  0  0  0  0  0  0  0
  141.4622   77.5188  219.1988 H   0  0  0  0  0  0  0  0  0  0  0  0
  139.8709   77.8010  219.9417 H   0  0  0  0  0  0  0  0  0  0  0  0
  141.0927   79.5065  220.9965 H   0  0  0  0  0  0  0  0  0  0  0  0
  142.5322   78.6385  223.5654 H   0  0  0  0  0  0  0  0  0  0  0  0
  143.2999   79.3364  222.0820 H   0  0  0  0  0  0  0  0  0  0  0  0
  142.6886   80.8615  224.1982 H   0  0  0  0  0  0  0  0  0  0  0  0
  142.5204   81.4517  222.4857 H   0  0  0  0  0  0  0  0  0  0  0  0
  140.5621   81.7648  224.2937 H   0  0  0  0  0  0  0  0  0  0  0  0
  140.2384   81.4398  222.5431 H   0  0  0  0  0  0  0  0  0  0  0  0
  140.3850   79.3790  224.6640 H   0  0  0  0  0  0  0  0  0  0  0  0
  139.7687   77.8396  223.1444 H   0  0  0  0  0  0  0  0  0  0  0  0
  139.0918   79.1453  222.0495 H   0  0  0  0  0  0  0  0  0  0  0  0
  141.8766   75.9380  222.7274 H   0  0  0  0  0  0  0  0  0  0  0  0
  140.3362   76.8062  222.9943 H   0  0  0  0  0  0  0  0  0  0  0  0
  138.1830   77.3593  221.5193 H   0  0  0  0  0  0  0  0  0  0  0  0
  135.7953   76.8597  222.1201 H   0  0  0  0  0  0  0  0  0  0  0  0
  135.1047   74.5175  222.6676 H   0  0  0  0  0  0  0  0  0  0  0  0
  136.7942   72.6573  222.5939 H   0  0  0  0  0  0  0  0  0  0  0  0
  1  2  2  0
  2  3  1  0
  3  4  2  0
  4  5  1  0
  5  6  2  0
  6  7  1  0
  7  8  1  0
  7  9  2  0
  9 10  1  0
 10 11  2  0
 11 12  1  0
  2 13  1  0
 13 14  1  0
 15 14  1  6
 15 16  1  0
 16 17  1  0
 17 18  1  0
 18 19  1  0
 19 20  1  0
 20 21  1  0
 21 22  1  0
 22 23  1  0
 23 24  1  0
 18 25  1  0
 15 26  1  0
 26 27  2  0
 27 28  1  0
 28 29  2  0
 29 30  1  0
 30 31  2  0
 12  3  1  0
 31 13  1  0
 11  5  1  0
 25 15  1  0
 31 26  1  0
 24 19  1  0
  4 32  1  0
  6 33  1  0
  9 34  1  0
 10 35  1  0
 12 36  1  0
 14 37  1  0
 14 38  1  0
 16 39  1  0
 16 40  1  0
 17 41  1  0
 17 42  1  0
 19 43  1  6
 20 44  1  0
 20 45  1  0
 21 46  1  0
 21 47  1  0
 22 48  1  0
 22 49  1  0
 23 50  1  0
 24 51  1  0
 24 52  1  0
 25 53  1  0
 25 54  1  0
 27 55  1  0
 28 56  1  0
 29 57  1  0
 30 58  1  0
M  END
>  <UniqueID>  (36) 
23

>  <SMILES>  (36) 
O=C(c1cc2cc(F)ccc2[nH]1)N1C[C@@]2(CCN([C@@H]3CCCNC3)C2)c2ccccc21

>  <Energy>  (36) 
129.555333351433

>  <Genealogy>  (36) 
O=C(c1cc2cc(F)ccc2[nH]1)N1C[C@@]2(CCN([C@@H]3CCCNC3)C2)c2ccccc21 (chirality)
O=C(c1cc2cc(F)ccc2[nH]1)N1C[C@@]2(CCN([C@@H]3CCCNC3)C2)c2ccccc21 (3D coordinates assigned)
O=C(c1cc2cc(F)ccc2[nH]1)N1C[C@@]2(CCN([C@@H]3CCCNC3)C2)c2ccccc21 (nonaromatic ring conformer: 129.555333351433 kcal/mol)

>  <smiles>  (36) 
O=C(c1cc2cc(F)ccc2[nH]1)N1C[C@@]2(CCN(C3CCCNC3)C2)c2ccccc21

>  <score_type>  (36) 
oracle

>  <origin>  (36) 
autodockgpu

>  <m_score__min__energy>  (36) 
-8.2799999999999994

>  <m_primary>  (36) 
energy

>  <meeko>  (36) 
{"free_energy": -8.28, "intermolecular_energy": -9.17, "internal_energy": -1.21, "cluster_size": 8, "cluster_id": 1, "rank_in_cluster": 4}

>  <energy>  (36) 
-8.2

>  <cluster_rmsd>  (36) 
0.03

>  <rmsd>  (36) 
272.16

>  <cluster>  (36) 
3

$$$$
ABNVVKAVWJYHCL-CLOONOSVNA-N
     RDKit          3D

 58 63  0  0  0  0  0  0  0  0999 V2000
  139.0880   70.8910  221.3450 O   0  0  0  0  0  0  0  0  0  0  0  0
  139.7310   71.5910  222.1730 C   0  0  0  0  0  0  0  0  0  0  0  0
  139.8720   71.1170  223.5610 C   0  0  0  0  0  0  0  0  0  0  0  0
  139.6470   69.8120  223.9980 C   0  0  0  0  0  0  0  0  0  0  0  0
  139.9280   69.8350  225.3450 C   0  0  0  0  0  0  0  0  0  0  0  0
  139.8780   68.8200  226.2990 C   0  0  0  0  0  0  0  0  0  0  0  0
  140.2310   69.1450  227.6220 C   0  0  0  0  0  0  0  0  0  0  0  0
  140.1950   68.1900  228.5840 F   0  0  0  0  0  0  0  0  0  0  0  0
  140.6220   70.4620  227.9540 C   0  0  0  0  0  0  0  0  0  0  0  0
  140.6640   71.4640  226.9680 C   0  0  0  0  0  0  0  0  0  0  0  0
  140.3080   71.1120  225.6670 C   0  0  0  0  0  0  0  0  0  0  0  0
  140.2830   71.9060  224.5840 N   0  0  0  0  0  0  0  0  0  0  0  0
  140.2620   72.8570  221.7620 N   0  0  0  0  0  0  0  0  0  0  0  0
  139.4600   74.0700  221.6160 C   0  0  0  0  0  0  0  0  0  0  0  0
  140.4700   75.2070  221.2340 C   0  0  2  0  0  0  0  0  0  0  0  0
  140.6650   76.2240  222.3550 C   0  0  0  0  0  0  0  0  0  0  0  0
  140.9320   77.5250  221.6290 C   0  0  0  0  0  0  0  0  0  0  0  0
  140.1800   77.4770  220.3650 N   0  0  0  0  0  0  0  0  0  0  0  0
  140.8050   78.2770  219.2760 C   0  0  2  0  0  0  0  0  0  0  0  0
  142.1940   77.7170  218.8910 C   0  0  0  0  0  0  0  0  0  0  0  0
  142.8250   78.5250  217.7460 C   0  0  0  0  0  0  0  0  0  0  0  0
  142.3960   80.0020  217.7620 C   0  0  0  0  0  0  0  0  0  0  0  0
  142.1180   80.4610  219.1260 N   0  0  0  0  0  0  0  0  0  0  0  0
  140.9550   79.7680  219.7150 C   0  0  0  0  0  0  0  0  0  0  0  0
  140.0310   76.0480  220.0200 C   0  0  0  0  0  0  0  0  0  0  0  0
  141.7430   74.4380  220.9740 C   0  0  0  0  0  0  0  0  0  0  0  0
  142.9610   74.9040  220.4610 C   0  0  0  0  0  0  0  0  0  0  0  0
  144.0080   73.9900  220.2720 C   0  0  0  0  0  0  0  0  0  0  0  0
  143.8260   72.6300  220.5820 C   0  0  0  0  0  0  0  0  0  0  0  0
  142.5990   72.1800  221.0910 C   0  0  0  0  0  0  0  0  0  0  0  0
  141.5780   73.1160  221.3000 C   0  0  0  0  0  0  0  0  0  0  0  0
  139.3169   68.9518  223.3971 H   0  0  0  0  0  0  0  0  0  0  0  0
  139.5728   67.7988  226.0268 H   0  0  0  0  0  0  0  0  0  0  0  0
  140.8955   70.7051  228.9913 H   0  0  0  0  0  0  0  0  0  0  0  0
  140.9678   72.4919  227.2153 H   0  0  0  0  0  0  0  0  0  0  0  0
  140.5290   72.9200  224.5420 H   0  0  0  0  0  0  0  0  0  0  0  0
  138.7107   73.9404  220.8212 H   0  0  0  0  0  0  0  0  0  0  0  0
  138.9138   74.3078  222.5407 H   0  0  0  0  0  0  0  0  0  0  0  0
  139.7593   76.3010  222.9745 H   0  0  0  0  0  0  0  0  0  0  0  0
  141.4800   75.9471  223.0399 H   0  0  0  0  0  0  0  0  0  0  0  0
  140.5909   78.3745  222.2390 H   0  0  0  0  0  0  0  0  0  0  0  0
  142.0079   77.6544  221.4400 H   0  0  0  0  0  0  0  0  0  0  0  0
  140.1448   78.2134  218.3985 H   0  0  0  0  0  0  0  0  0  0  0  0
  142.8550   77.7638  219.7690 H   0  0  0  0  0  0  0  0  0  0  0  0
  142.0676   76.6777  218.5535 H   0  0  0  0  0  0  0  0  0  0  0  0
  143.9198   78.4745  217.8401 H   0  0  0  0  0  0  0  0  0  0  0  0
  142.4802   78.0868  216.7978 H   0  0  0  0  0  0  0  0  0  0  0  0
  143.2041   80.6145  217.3355 H   0  0  0  0  0  0  0  0  0  0  0  0
  141.4760   80.1028  217.1674 H   0  0  0  0  0  0  0  0  0  0  0  0
  142.9620   80.2830  219.7200 H   0  0  0  0  0  0  0  0  0  0  0  0
  141.0555   79.7962  220.8100 H   0  0  0  0  0  0  0  0  0  0  0  0
  140.0590   80.2942  219.3541 H   0  0  0  0  0  0  0  0  0  0  0  0
  138.9799   75.8316  219.7786 H   0  0  0  0  0  0  0  0  0  0  0  0
  140.6522   75.8032  219.1458 H   0  0  0  0  0  0  0  0  0  0  0  0
  143.0935   75.9670  220.2111 H   0  0  0  0  0  0  0  0  0  0  0  0
  144.9750   74.3380  219.8799 H   0  0  0  0  0  0  0  0  0  0  0  0
  144.6488   71.9171  220.4247 H   0  0  0  0  0  0  0  0  0  0  0  0
  142.4419   71.1158  221.3210 H   0  0  0  0  0  0  0  0  0  0  0  0
  1  2  2  0
  2  3  1  0
  3  4  2  0
  4  5  1  0
  5  6  2  0
  6  7  1  0
  7  8  1  0
  7  9  2  0
  9 10  1  0
 10 11  2  0
 11 12  1  0
  2 13  1  0
 13 14  1  0
 15 14  1  1
 15 16  1  0
 16 17  1  0
 17 18  1  0
 18 19  1  0
 19 20  1  0
 20 21  1  0
 21 22  1  0
 22 23  1  0
 23 24  1  0
 18 25  1  0
 15 26  1  0
 26 27  2  0
 27 28  1  0
 28 29  2  0
 29 30  1  0
 30 31  2  0
 12  3  1  0
 31 13  1  0
 11  5  1  0
 25 15  1  0
 31 26  1  0
 24 19  1  0
  4 32  1  0
  6 33  1  0
  9 34  1  0
 10 35  1  0
 12 36  1  0
 14 37  1  0
 14 38  1  0
 16 39  1  0
 16 40  1  0
 17 41  1  0
 17 42  1  0
 19 43  1  6
 20 44  1  0
 20 45  1  0
 21 46  1  0
 21 47  1  0
 22 48  1  0
 22 49  1  0
 23 50  1  0
 24 51  1  0
 24 52  1  0
 25 53  1  0
 25 54  1  0
 27 55  1  0
 28 56  1  0
 29 57  1  0
 30 58  1  0
M  END
>  <UniqueID>  (37) 
23

>  <SMILES>  (37) 
O=C(c1cc2cc(F)ccc2[nH]1)N1C[C@@]2(CCN([C@@H]3CCCNC3)C2)c2ccccc21

>  <Energy>  (37) 
129.555333351433

>  <Genealogy>  (37) 
O=C(c1cc2cc(F)ccc2[nH]1)N1C[C@@]2(CCN([C@@H]3CCCNC3)C2)c2ccccc21 (chirality)
O=C(c1cc2cc(F)ccc2[nH]1)N1C[C@@]2(CCN([C@@H]3CCCNC3)C2)c2ccccc21 (3D coordinates assigned)
O=C(c1cc2cc(F)ccc2[nH]1)N1C[C@@]2(CCN([C@@H]3CCCNC3)C2)c2ccccc21 (nonaromatic ring conformer: 129.555333351433 kcal/mol)

>  <smiles>  (37) 
O=C(c1cc2cc(F)ccc2[nH]1)N1C[C@@]2(CCN(C3CCCNC3)C2)c2ccccc21

>  <score_type>  (37) 
oracle

>  <origin>  (37) 
autodockgpu

>  <m_score__min__energy>  (37) 
-8.2799999999999994

>  <m_primary>  (37) 
energy

>  <meeko>  (37) 
{"free_energy": -8.19, "intermolecular_energy": -9.08, "internal_energy": -1.26, "cluster_size": 6, "cluster_id": 3, "rank_in_cluster": 6}

>  <energy>  (37) 
-8.2

>  <cluster_rmsd>  (37) 
0.03

>  <rmsd>  (37) 
272.17

>  <cluster>  (37) 
3

$$$$
ABNVVKAVWJYHCL-CLOONOSVNA-N
     RDKit          3D

 58 63  0  0  0  0  0  0  0  0999 V2000
  141.4380   76.6830  217.7470 O   0  0  0  0  0  0  0  0  0  0  0  0
  141.9160   76.4480  218.8900 C   0  0  0  0  0  0  0  0  0  0  0  0
  141.8800   77.5040  219.9170 C   0  0  0  0  0  0  0  0  0  0  0  0
  141.8660   78.8760  219.6680 C   0  0  0  0  0  0  0  0  0  0  0  0
  141.8030   79.4620  220.9120 C   0  0  0  0  0  0  0  0  0  0  0  0
  141.7640   80.8060  221.2800 C   0  0  0  0  0  0  0  0  0  0  0  0
  141.6960   81.1090  222.6530 C   0  0  0  0  0  0  0  0  0  0  0  0
  141.6580   82.4020  223.0570 F   0  0  0  0  0  0  0  0  0  0  0  0
  141.6690   80.0720  223.6120 C   0  0  0  0  0  0  0  0  0  0  0  0
  141.7080   78.7250  223.2090 C   0  0  0  0  0  0  0  0  0  0  0  0
  141.7760   78.4560  221.8430 C   0  0  0  0  0  0  0  0  0  0  0  0
  141.8170   77.2530  221.2480 N   0  0  0  0  0  0  0  0  0  0  0  0
  142.5320   75.1800  219.1470 N   0  0  0  0  0  0  0  0  0  0  0  0
  143.6910   74.6730  218.4160 C   0  0  0  0  0  0  0  0  0  0  0  0
  144.0580   73.3060  219.0920 C   0  0  2  0  0  0  0  0  0  0  0  0
  145.3670   73.3670  219.8740 C   0  0  0  0  0  0  0  0  0  0  0  0
  145.9410   71.9730  219.7420 C   0  0  0  0  0  0  0  0  0  0  0  0
  145.5170   71.4540  218.4320 N   0  0  0  0  0  0  0  0  0  0  0  0
  145.3880   69.9710  218.3990 C   0  0  2  0  0  0  0  0  0  0  0  0
  143.9720   69.5190  218.8230 C   0  0  0  0  0  0  0  0  0  0  0  0
  143.8310   67.9880  218.7590 C   0  0  0  0  0  0  0  0  0  0  0  0
  145.1570   67.2630  219.0440 C   0  0  0  0  0  0  0  0  0  0  0  0
  146.0050   68.0420  219.9520 N   0  0  0  0  0  0  0  0  0  0  0  0
  146.4420   69.3130  219.3440 C   0  0  0  0  0  0  0  0  0  0  0  0
  144.2580   72.1500  218.0920 C   0  0  0  0  0  0  0  0  0  0  0  0
  142.8860   73.0750  220.0160 C   0  0  0  0  0  0  0  0  0  0  0  0
  142.5850   71.9420  220.7840 C   0  0  0  0  0  0  0  0  0  0  0  0
  141.4110   71.9400  221.5520 C   0  0  0  0  0  0  0  0  0  0  0  0
  140.5510   73.0520  221.5340 C   0  0  0  0  0  0  0  0  0  0  0  0
  140.8660   74.1760  220.7560 C   0  0  0  0  0  0  0  0  0  0  0  0
  142.0580   74.1680  220.0220 C   0  0  0  0  0  0  0  0  0  0  0  0
  141.8983   79.3800  218.6908 H   0  0  0  0  0  0  0  0  0  0  0  0
  141.7857   81.6034  220.5225 H   0  0  0  0  0  0  0  0  0  0  0  0
  141.6171   80.3200  224.6824 H   0  0  0  0  0  0  0  0  0  0  0  0
  141.6855   77.9103  223.9478 H   0  0  0  0  0  0  0  0  0  0  0  0
  141.8050   76.3190  221.7160 H   0  0  0  0  0  0  0  0  0  0  0  0
  143.4388   74.5207  217.3562 H   0  0  0  0  0  0  0  0  0  0  0  0
  144.5326   75.3805  218.4503 H   0  0  0  0  0  0  0  0  0  0  0  0
  146.0480   74.1126  219.4379 H   0  0  0  0  0  0  0  0  0  0  0  0
  145.2190   73.6651  220.9224 H   0  0  0  0  0  0  0  0  0  0  0  0
  147.0390   72.0102  219.7959 H   0  0  0  0  0  0  0  0  0  0  0  0
  145.5843   71.3236  220.5551 H   0  0  0  0  0  0  0  0  0  0  0  0
  145.5653   69.6469  217.3629 H   0  0  0  0  0  0  0  0  0  0  0  0
  143.7828   69.8535  219.8537 H   0  0  0  0  0  0  0  0  0  0  0  0
  143.2434   69.9640  218.1294 H   0  0  0  0  0  0  0  0  0  0  0  0
  143.0877   67.6705  219.5051 H   0  0  0  0  0  0  0  0  0  0  0  0
  143.5174   67.7232  217.7384 H   0  0  0  0  0  0  0  0  0  0  0  0
  144.9405   66.2876  219.5041 H   0  0  0  0  0  0  0  0  0  0  0  0
  145.6937   67.1336  218.0926 H   0  0  0  0  0  0  0  0  0  0  0  0
  145.4640   68.2450  220.8260 H   0  0  0  0  0  0  0  0  0  0  0  0
  146.6682   70.0221  220.1539 H   0  0  0  0  0  0  0  0  0  0  0  0
  147.3187   69.0788  218.7222 H   0  0  0  0  0  0  0  0  0  0  0  0
  144.3186   72.5496  217.0689 H   0  0  0  0  0  0  0  0  0  0  0  0
  143.4113   71.4501  218.1479 H   0  0  0  0  0  0  0  0  0  0  0  0
  143.2566   71.0708  220.7846 H   0  0  0  0  0  0  0  0  0  0  0  0
  141.1624   71.0651  222.1706 H   0  0  0  0  0  0  0  0  0  0  0  0
  139.6279   73.0407  222.1321 H   0  0  0  0  0  0  0  0  0  0  0  0
  140.1914   75.0443  220.7234 H   0  0  0  0  0  0  0  0  0  0  0  0
  1  2  2  0
  2  3  1  0
  3  4  2  0
  4  5  1  0
  5  6  2  0
  6  7  1  0
  7  8  1  0
  7  9  2  0
  9 10  1  0
 10 11  2  0
 11 12  1  0
  2 13  1  0
 13 14  1  0
 15 14  1  6
 15 16  1  0
 16 17  1  0
 17 18  1  0
 18 19  1  0
 19 20  1  0
 20 21  1  0
 21 22  1  0
 22 23  1  0
 23 24  1  0
 18 25  1  0
 15 26  1  0
 26 27  2  0
 27 28  1  0
 28 29  2  0
 29 30  1  0
 30 31  2  0
 12  3  1  0
 31 13  1  0
 11  5  1  0
 25 15  1  0
 31 26  1  0
 24 19  1  0
  4 32  1  0
  6 33  1  0
  9 34  1  0
 10 35  1  0
 12 36  1  0
 14 37  1  0
 14 38  1  0
 16 39  1  0
 16 40  1  0
 17 41  1  0
 17 42  1  0
 19 43  1  6
 20 44  1  0
 20 45  1  0
 21 46  1  0
 21 47  1  0
 22 48  1  0
 22 49  1  0
 23 50  1  0
 24 51  1  0
 24 52  1  0
 25 53  1  0
 25 54  1  0
 27 55  1  0
 28 56  1  0
 29 57  1  0
 30 58  1  0
M  END
>  <UniqueID>  (38) 
23

>  <SMILES>  (38) 
O=C(c1cc2cc(F)ccc2[nH]1)N1C[C@@]2(CCN([C@@H]3CCCNC3)C2)c2ccccc21

>  <Energy>  (38) 
129.555333351433

>  <Genealogy>  (38) 
O=C(c1cc2cc(F)ccc2[nH]1)N1C[C@@]2(CCN([C@@H]3CCCNC3)C2)c2ccccc21 (chirality)
O=C(c1cc2cc(F)ccc2[nH]1)N1C[C@@]2(CCN([C@@H]3CCCNC3)C2)c2ccccc21 (3D coordinates assigned)
O=C(c1cc2cc(F)ccc2[nH]1)N1C[C@@]2(CCN([C@@H]3CCCNC3)C2)c2ccccc21 (nonaromatic ring conformer: 129.555333351433 kcal/mol)

>  <smiles>  (38) 
O=C(c1cc2cc(F)ccc2[nH]1)N1C[C@@]2(CCN(C3CCCNC3)C2)c2ccccc21

>  <score_type>  (38) 
oracle

>  <origin>  (38) 
autodockgpu

>  <m_score__min__energy>  (38) 
-8.2799999999999994

>  <m_primary>  (38) 
energy

>  <meeko>  (38) 
{"free_energy": -8.18, "intermolecular_energy": -9.07, "internal_energy": -1.33, "cluster_size": 6, "cluster_id": 2, "rank_in_cluster": 4}

>  <energy>  (38) 
-8.2

>  <cluster_rmsd>  (38) 
0.13

>  <rmsd>  (38) 
272.12

>  <cluster>  (38) 
3

$$$$
ABNVVKAVWJYHCL-CLOONOSVNA-N
     RDKit          3D

 58 63  0  0  0  0  0  0  0  0999 V2000
  139.1850   70.9010  221.1940 O   0  0  0  0  0  0  0  0  0  0  0  0
  139.4760   71.6830  222.1390 C   0  0  0  0  0  0  0  0  0  0  0  0
  139.7240   71.1300  223.4820 C   0  0  0  0  0  0  0  0  0  0  0  0
  139.5830   69.7900  223.8450 C   0  0  0  0  0  0  0  0  0  0  0  0
  139.9460   69.7420  225.1720 C   0  0  0  0  0  0  0  0  0  0  0  0
  139.9990   68.6680  226.0580 C   0  0  0  0  0  0  0  0  0  0  0  0
  140.4210   68.9250  227.3770 C   0  0  0  0  0  0  0  0  0  0  0  0
  140.4860   67.9110  228.2730 F   0  0  0  0  0  0  0  0  0  0  0  0
  140.7760   70.2350  227.7700 C   0  0  0  0  0  0  0  0  0  0  0  0
  140.7130   71.2980  226.8510 C   0  0  0  0  0  0  0  0  0  0  0  0
  140.2910   71.0120  225.5530 C   0  0  0  0  0  0  0  0  0  0  0  0
  140.1650   71.8710  224.5280 N   0  0  0  0  0  0  0  0  0  0  0  0
  139.5040   73.0960  221.9000 N   0  0  0  0  0  0  0  0  0  0  0  0
  140.7290   73.8630  221.6880 C   0  0  0  0  0  0  0  0  0  0  0  0
  140.2680   75.3310  221.3880 C   0  0  2  0  0  0  0  0  0  0  0  0
  140.5080   75.7400  219.9370 C   0  0  0  0  0  0  0  0  0  0  0  0
  140.7910   77.2250  220.0150 C   0  0  0  0  0  0  0  0  0  0  0  0
  141.4540   77.4720  221.3050 N   0  0  0  0  0  0  0  0  0  0  0  0
  141.2040   78.8360  221.8440 C   0  0  2  0  0  0  0  0  0  0  0  0
  142.3980   79.3360  222.6900 C   0  0  0  0  0  0  0  0  0  0  0  0
  142.1510   80.7580  223.2220 C   0  0  0  0  0  0  0  0  0  0  0  0
  140.6600   81.0430  223.4680 C   0  0  0  0  0  0  0  0  0  0  0  0
  139.9370   79.8200  223.8290 N   0  0  0  0  0  0  0  0  0  0  0  0
  139.9120   78.8460  222.7220 C   0  0  0  0  0  0  0  0  0  0  0  0
  141.0070   76.3990  222.2180 C   0  0  0  0  0  0  0  0  0  0  0  0
  138.7910   75.2780  221.6980 C   0  0  0  0  0  0  0  0  0  0  0  0
  137.8670   76.3300  221.7460 C   0  0  0  0  0  0  0  0  0  0  0  0
  136.5370   76.0450  222.0920 C   0  0  0  0  0  0  0  0  0  0  0  0
  136.1510   74.7270  222.3960 C   0  0  0  0  0  0  0  0  0  0  0  0
  137.0910   73.6870  222.3450 C   0  0  0  0  0  0  0  0  0  0  0  0
  138.4050   73.9900  221.9680 C   0  0  0  0  0  0  0  0  0  0  0  0
  139.2537   68.9546  223.2096 H   0  0  0  0  0  0  0  0  0  0  0  0
  139.7205   67.6531  225.7380 H   0  0  0  0  0  0  0  0  0  0  0  0
  141.1042   70.4250  228.8026 H   0  0  0  0  0  0  0  0  0  0  0  0
  140.9876   72.3214  227.1465 H   0  0  0  0  0  0  0  0  0  0  0  0
  140.3640   72.8960  224.5380 H   0  0  0  0  0  0  0  0  0  0  0  0
  141.3586   73.8360  222.5896 H   0  0  0  0  0  0  0  0  0  0  0  0
  141.3272   73.4500  220.8624 H   0  0  0  0  0  0  0  0  0  0  0  0
  141.3689   75.1998  219.5161 H   0  0  0  0  0  0  0  0  0  0  0  0
  139.6532   75.5064  219.2852 H   0  0  0  0  0  0  0  0  0  0  0  0
  141.4502   77.5274  219.1880 H   0  0  0  0  0  0  0  0  0  0  0  0
  139.8601   77.8056  219.9358 H   0  0  0  0  0  0  0  0  0  0  0  0
  141.0740   79.5110  220.9852 H   0  0  0  0  0  0  0  0  0  0  0  0
  142.5434   78.6552  223.5417 H   0  0  0  0  0  0  0  0  0  0  0  0
  143.2923   79.3558  222.0498 H   0  0  0  0  0  0  0  0  0  0  0  0
  142.6947   80.8794  224.1705 H   0  0  0  0  0  0  0  0  0  0  0  0
  142.5058   81.4669  222.4594 H   0  0  0  0  0  0  0  0  0  0  0  0
  140.5646   81.7708  224.2873 H   0  0  0  0  0  0  0  0  0  0  0  0
  140.2250   81.4427  222.5401 H   0  0  0  0  0  0  0  0  0  0  0  0
  140.4040   79.3860  224.6610 H   0  0  0  0  0  0  0  0  0  0  0  0
  139.7789   77.8415  223.1501 H   0  0  0  0  0  0  0  0  0  0  0  0
  139.0845   79.1425  222.0607 H   0  0  0  0  0  0  0  0  0  0  0  0
  141.8782   75.9466  222.7144 H   0  0  0  0  0  0  0  0  0  0  0  0
  140.3366   76.8113  222.9865 H   0  0  0  0  0  0  0  0  0  0  0  0
  138.1780   77.3599  221.5168 H   0  0  0  0  0  0  0  0  0  0  0  0
  135.7938   76.8553  222.1256 H   0  0  0  0  0  0  0  0  0  0  0  0
  135.1090   74.5112  222.6745 H   0  0  0  0  0  0  0  0  0  0  0  0
  136.8021   72.6557  222.5958 H   0  0  0  0  0  0  0  0  0  0  0  0
  1  2  2  0
  2  3  1  0
  3  4  2  0
  4  5  1  0
  5  6  2  0
  6  7  1  0
  7  8  1  0
  7  9  2  0
  9 10  1  0
 10 11  2  0
 11 12  1  0
  2 13  1  0
 13 14  1  0
 15 14  1  6
 15 16  1  0
 16 17  1  0
 17 18  1  0
 18 19  1  0
 19 20  1  0
 20 21  1  0
 21 22  1  0
 22 23  1  0
 23 24  1  0
 18 25  1  0
 15 26  1  0
 26 27  2  0
 27 28  1  0
 28 29  2  0
 29 30  1  0
 30 31  2  0
 12  3  1  0
 31 13  1  0
 11  5  1  0
 25 15  1  0
 31 26  1  0
 24 19  1  0
  4 32  1  0
  6 33  1  0
  9 34  1  0
 10 35  1  0
 12 36  1  0
 14 37  1  0
 14 38  1  0
 16 39  1  0
 16 40  1  0
 17 41  1  0
 17 42  1  0
 19 43  1  6
 20 44  1  0
 20 45  1  0
 21 46  1  0
 21 47  1  0
 22 48  1  0
 22 49  1  0
 23 50  1  0
 24 51  1  0
 24 52  1  0
 25 53  1  0
 25 54  1  0
 27 55  1  0
 28 56  1  0
 29 57  1  0
 30 58  1  0
M  END
>  <UniqueID>  (39) 
23

>  <SMILES>  (39) 
O=C(c1cc2cc(F)ccc2[nH]1)N1C[C@@]2(CCN([C@@H]3CCCNC3)C2)c2ccccc21

>  <Energy>  (39) 
129.555333351433

>  <Genealogy>  (39) 
O=C(c1cc2cc(F)ccc2[nH]1)N1C[C@@]2(CCN([C@@H]3CCCNC3)C2)c2ccccc21 (chirality)
O=C(c1cc2cc(F)ccc2[nH]1)N1C[C@@]2(CCN([C@@H]3CCCNC3)C2)c2ccccc21 (3D coordinates assigned)
O=C(c1cc2cc(F)ccc2[nH]1)N1C[C@@]2(CCN([C@@H]3CCCNC3)C2)c2ccccc21 (nonaromatic ring conformer: 129.555333351433 kcal/mol)

>  <smiles>  (39) 
O=C(c1cc2cc(F)ccc2[nH]1)N1C[C@@]2(CCN(C3CCCNC3)C2)c2ccccc21

>  <score_type>  (39) 
oracle

>  <origin>  (39) 
autodockgpu

>  <m_score__min__energy>  (39) 
-8.2799999999999994

>  <m_primary>  (39) 
energy

>  <meeko>  (39) 
{"free_energy": -8.28, "intermolecular_energy": -9.17, "internal_energy": -1.21, "cluster_size": 8, "cluster_id": 1, "rank_in_cluster": 3}

>  <energy>  (39) 
-8.19

>  <cluster_rmsd>  (39) 
0.11

>  <rmsd>  (39) 
272.12

>  <cluster>  (39) 
3

$$$$
ABNVVKAVWJYHCL-CLOONOSVNA-N
     RDKit          3D

 58 63  0  0  0  0  0  0  0  0999 V2000
  139.1230   70.9150  221.1880 O   0  0  0  0  0  0  0  0  0  0  0  0
  139.4320   71.6920  222.1310 C   0  0  0  0  0  0  0  0  0  0  0  0
  139.6910   71.1340  223.4700 C   0  0  0  0  0  0  0  0  0  0  0  0
  139.5480   69.7940  223.8300 C   0  0  0  0  0  0  0  0  0  0  0  0
  139.9240   69.7400  225.1540 C   0  0  0  0  0  0  0  0  0  0  0  0
  139.9810   68.6630  226.0360 C   0  0  0  0  0  0  0  0  0  0  0  0
  140.4160   68.9140  227.3510 C   0  0  0  0  0  0  0  0  0  0  0  0
  140.4860   67.8970  228.2440 F   0  0  0  0  0  0  0  0  0  0  0  0
  140.7800   70.2220  227.7450 C   0  0  0  0  0  0  0  0  0  0  0  0
  140.7120   71.2880  226.8300 C   0  0  0  0  0  0  0  0  0  0  0  0
  140.2770   71.0080  225.5360 C   0  0  0  0  0  0  0  0  0  0  0  0
  140.1450   71.8700  224.5140 N   0  0  0  0  0  0  0  0  0  0  0  0
  139.4720   73.1050  221.8940 N   0  0  0  0  0  0  0  0  0  0  0  0
  140.7030   73.8620  221.6820 C   0  0  0  0  0  0  0  0  0  0  0  0
  140.2530   75.3340  221.3840 C   0  0  2  0  0  0  0  0  0  0  0  0
  140.4940   75.7440  219.9340 C   0  0  0  0  0  0  0  0  0  0  0  0
  140.7890   77.2260  220.0140 C   0  0  0  0  0  0  0  0  0  0  0  0
  141.4560   77.4650  221.3030 N   0  0  0  0  0  0  0  0  0  0  0  0
  141.2180   78.8310  221.8450 C   0  0  2  0  0  0  0  0  0  0  0  0
  142.4090   79.3110  222.7070 C   0  0  0  0  0  0  0  0  0  0  0  0
  142.1750   80.7350  223.2410 C   0  0  0  0  0  0  0  0  0  0  0  0
  140.6850   81.0390  223.4710 C   0  0  0  0  0  0  0  0  0  0  0  0
  139.9420   79.8240  223.8200 N   0  0  0  0  0  0  0  0  0  0  0  0
  139.9170   78.8550  222.7080 C   0  0  0  0  0  0  0  0  0  0  0  0
  141.0020   76.3950  222.2150 C   0  0  0  0  0  0  0  0  0  0  0  0
  138.7760   75.2930  221.6970 C   0  0  0  0  0  0  0  0  0  0  0  0
  137.8610   76.3530  221.7490 C   0  0  0  0  0  0  0  0  0  0  0  0
  136.5290   76.0780  222.0960 C   0  0  0  0  0  0  0  0  0  0  0  0
  136.1330   74.7630  222.3990 C   0  0  0  0  0  0  0  0  0  0  0  0
  137.0650   73.7140  222.3450 C   0  0  0  0  0  0  0  0  0  0  0  0
  138.3800   74.0080  221.9660 C   0  0  0  0  0  0  0  0  0  0  0  0
  139.2090   68.9621  223.1952 H   0  0  0  0  0  0  0  0  0  0  0  0
  139.6956   67.6502  225.7154 H   0  0  0  0  0  0  0  0  0  0  0  0
  141.1189   70.4074  228.7749 H   0  0  0  0  0  0  0  0  0  0  0  0
  140.9930   72.3094  227.1261 H   0  0  0  0  0  0  0  0  0  0  0  0
  140.3480   72.8940  224.5260 H   0  0  0  0  0  0  0  0  0  0  0  0
  141.3330   73.8290  222.5831 H   0  0  0  0  0  0  0  0  0  0  0  0
  141.2975   73.4451  220.8557 H   0  0  0  0  0  0  0  0  0  0  0  0
  141.3498   75.1977  219.5108 H   0  0  0  0  0  0  0  0  0  0  0  0
  139.6362   75.5187  219.2833 H   0  0  0  0  0  0  0  0  0  0  0  0
  141.4492   77.5246  219.1864 H   0  0  0  0  0  0  0  0  0  0  0  0
  139.8628   77.8144  219.9373 H   0  0  0  0  0  0  0  0  0  0  0  0
  141.1069   79.5112  220.9877 H   0  0  0  0  0  0  0  0  0  0  0  0
  142.5346   78.6254  223.5580 H   0  0  0  0  0  0  0  0  0  0  0  0
  143.3113   79.3201  222.0779 H   0  0  0  0  0  0  0  0  0  0  0  0
  142.7094   80.8461  224.1960 H   0  0  0  0  0  0  0  0  0  0  0  0
  142.5480   81.4416  222.4849 H   0  0  0  0  0  0  0  0  0  0  0  0
  140.5898   81.7655  224.2914 H   0  0  0  0  0  0  0  0  0  0  0  0
  140.2657   81.4473  222.5396 H   0  0  0  0  0  0  0  0  0  0  0  0
  140.3930   79.3810  224.6550 H   0  0  0  0  0  0  0  0  0  0  0  0
  139.7654   77.8506  223.1301 H   0  0  0  0  0  0  0  0  0  0  0  0
  139.1015   79.1660  222.0385 H   0  0  0  0  0  0  0  0  0  0  0  0
  141.8702   75.9349  222.7095 H   0  0  0  0  0  0  0  0  0  0  0  0
  140.3363   76.8115  222.9853 H   0  0  0  0  0  0  0  0  0  0  0  0
  138.1804   77.3809  221.5222 H   0  0  0  0  0  0  0  0  0  0  0  0
  135.7922   76.8940  222.1311 H   0  0  0  0  0  0  0  0  0  0  0  0
  135.0897   74.5555  222.6792 H   0  0  0  0  0  0  0  0  0  0  0  0
  136.7684   72.6846  222.5949 H   0  0  0  0  0  0  0  0  0  0  0  0
  1  2  2  0
  2  3  1  0
  3  4  2  0
  4  5  1  0
  5  6  2  0
  6  7  1  0
  7  8  1  0
  7  9  2  0
  9 10  1  0
 10 11  2  0
 11 12  1  0
  2 13  1  0
 13 14  1  0
 15 14  1  6
 15 16  1  0
 16 17  1  0
 17 18  1  0
 18 19  1  0
 19 20  1  0
 20 21  1  0
 21 22  1  0
 22 23  1  0
 23 24  1  0
 18 25  1  0
 15 26  1  0
 26 27  2  0
 27 28  1  0
 28 29  2  0
 29 30  1  0
 30 31  2  0
 12  3  1  0
 31 13  1  0
 11  5  1  0
 25 15  1  0
 31 26  1  0
 24 19  1  0
  4 32  1  0
  6 33  1  0
  9 34  1  0
 10 35  1  0
 12 36  1  0
 14 37  1  0
 14 38  1  0
 16 39  1  0
 16 40  1  0
 17 41  1  0
 17 42  1  0
 19 43  1  6
 20 44  1  0
 20 45  1  0
 21 46  1  0
 21 47  1  0
 22 48  1  0
 22 49  1  0
 23 50  1  0
 24 51  1  0
 24 52  1  0
 25 53  1  0
 25 54  1  0
 27 55  1  0
 28 56  1  0
 29 57  1  0
 30 58  1  0
M  END
>  <UniqueID>  (40) 
23

>  <SMILES>  (40) 
O=C(c1cc2cc(F)ccc2[nH]1)N1C[C@@]2(CCN([C@@H]3CCCNC3)C2)c2ccccc21

>  <Energy>  (40) 
129.555333351433

>  <Genealogy>  (40) 
O=C(c1cc2cc(F)ccc2[nH]1)N1C[C@@]2(CCN([C@@H]3CCCNC3)C2)c2ccccc21 (chirality)
O=C(c1cc2cc(F)ccc2[nH]1)N1C[C@@]2(CCN([C@@H]3CCCNC3)C2)c2ccccc21 (3D coordinates assigned)
O=C(c1cc2cc(F)ccc2[nH]1)N1C[C@@]2(CCN([C@@H]3CCCNC3)C2)c2ccccc21 (nonaromatic ring conformer: 129.555333351433 kcal/mol)

>  <smiles>  (40) 
O=C(c1cc2cc(F)ccc2[nH]1)N1C[C@@]2(CCN(C3CCCNC3)C2)c2ccccc21

>  <score_type>  (40) 
oracle

>  <origin>  (40) 
autodockgpu

>  <m_score__min__energy>  (40) 
-8.2799999999999994

>  <m_primary>  (40) 
energy

>  <meeko>  (40) 
{"free_energy": -8.28, "intermolecular_energy": -9.17, "internal_energy": -1.21, "cluster_size": 8, "cluster_id": 1, "rank_in_cluster": 6}

>  <energy>  (40) 
-8.19

>  <cluster_rmsd>  (40) 
0.05

>  <rmsd>  (40) 
272.15

>  <cluster>  (40) 
3

$$$$
ABNVVKAVWJYHCL-DFBJGRDBNA-N
     RDKit          3D

 58 63  0  0  0  0  0  0  0  0999 V2000
  139.7070   76.0200  219.5450 O   0  0  0  0  0  0  0  0  0  0  0  0
  140.3270   75.9700  220.6410 C   0  0  0  0  0  0  0  0  0  0  0  0
  140.8230   77.2170  221.2460 C   0  0  0  0  0  0  0  0  0  0  0  0
  141.0700   77.4000  222.6070 C   0  0  0  0  0  0  0  0  0  0  0  0
  141.4800   78.7100  222.7220 C   0  0  0  0  0  0  0  0  0  0  0  0
  141.8550   79.4470  223.8420 C   0  0  0  0  0  0  0  0  0  0  0  0
  142.2180   80.7940  223.6500 C   0  0  0  0  0  0  0  0  0  0  0  0
  142.5900   81.5490  224.7120 F   0  0  0  0  0  0  0  0  0  0  0  0
  142.1930   81.3620  222.3570 C   0  0  0  0  0  0  0  0  0  0  0  0
  141.8070   80.5900  221.2450 C   0  0  0  0  0  0  0  0  0  0  0  0
  141.4580   79.2590  221.4660 C   0  0  0  0  0  0  0  0  0  0  0  0
  141.0540   78.3590  220.5550 N   0  0  0  0  0  0  0  0  0  0  0  0
  140.5160   74.7060  221.2950 N   0  0  0  0  0  0  0  0  0  0  0  0
  139.4280   73.9660  221.9420 C   0  0  0  0  0  0  0  0  0  0  0  0
  139.9530   72.5040  222.1390 C   0  0  2  0  0  0  0  0  0  0  0  0
  139.0680   71.4380  221.5030 C   0  0  0  0  0  0  0  0  0  0  0  0
  139.1510   70.2380  222.4430 C   0  0  0  0  0  0  0  0  0  0  0  0
  139.9810   70.6080  223.6110 N   0  0  0  0  0  0  0  0  0  0  0  0
  139.4580   70.0370  224.8840 C   0  0  1  0  0  0  0  0  0  0  0  0
  139.2650   68.4980  224.7420 C   0  0  0  0  0  0  0  0  0  0  0  0
  139.4510   67.7640  226.0720 C   0  0  0  0  0  0  0  0  0  0  0  0
  140.8590   68.0190  226.6490 C   0  0  0  0  0  0  0  0  0  0  0  0
  141.4320   69.3190  226.2500 N   0  0  0  0  0  0  0  0  0  0  0  0
  140.3950   70.3470  226.0920 C   0  0  0  0  0  0  0  0  0  0  0  0
  140.0300   72.0790  223.6020 C   0  0  0  0  0  0  0  0  0  0  0  0
  141.3180   72.5490  221.5050 C   0  0  0  0  0  0  0  0  0  0  0  0
  142.2590   71.5200  221.3790 C   0  0  0  0  0  0  0  0  0  0  0  0
  143.4920   71.8030  220.7720 C   0  0  0  0  0  0  0  0  0  0  0  0
  143.7710   73.1020  220.3100 C   0  0  0  0  0  0  0  0  0  0  0  0
  142.8180   74.1220  220.4490 C   0  0  0  0  0  0  0  0  0  0  0  0
  141.5890   73.8120  221.0440 C   0  0  0  0  0  0  0  0  0  0  0  0
  140.9610   76.6593  223.4129 H   0  0  0  0  0  0  0  0  0  0  0  0
  141.8673   78.9923  224.8435 H   0  0  0  0  0  0  0  0  0  0  0  0
  142.4773   82.4155  222.2180 H   0  0  0  0  0  0  0  0  0  0  0  0
  141.7817   81.0233  220.2342 H   0  0  0  0  0  0  0  0  0  0  0  0
  140.9090   78.5280  219.5350 H   0  0  0  0  0  0  0  0  0  0  0  0
  139.1845   74.4183  222.9147 H   0  0  0  0  0  0  0  0  0  0  0  0
  138.5120   73.9850  221.3333 H   0  0  0  0  0  0  0  0  0  0  0  0
  138.0305   71.7949  221.4233 H   0  0  0  0  0  0  0  0  0  0  0  0
  139.3952   71.1858  220.4835 H   0  0  0  0  0  0  0  0  0  0  0  0
  138.1411   69.9605  222.7793 H   0  0  0  0  0  0  0  0  0  0  0  0
  139.6007   69.3816  221.9193 H   0  0  0  0  0  0  0  0  0  0  0  0
  138.4870   70.5134  225.0847 H   0  0  0  0  0  0  0  0  0  0  0  0
  138.2490   68.3019  224.3688 H   0  0  0  0  0  0  0  0  0  0  0  0
  140.0286   68.1262  224.0429 H   0  0  0  0  0  0  0  0  0  0  0  0
  138.6976   68.1217  226.7893 H   0  0  0  0  0  0  0  0  0  0  0  0
  139.3329   66.6844  225.8973 H   0  0  0  0  0  0  0  0  0  0  0  0
  140.7962   67.9884  227.7468 H   0  0  0  0  0  0  0  0  0  0  0  0
  141.5199   67.2370  226.2470 H   0  0  0  0  0  0  0  0  0  0  0  0
  141.9360   69.2090  225.3390 H   0  0  0  0  0  0  0  0  0  0  0  0
  139.7912   70.3890  227.0105 H   0  0  0  0  0  0  0  0  0  0  0  0
  140.8916   71.3103  225.9037 H   0  0  0  0  0  0  0  0  0  0  0  0
  139.1785   72.4914  224.1632 H   0  0  0  0  0  0  0  0  0  0  0  0
  140.9502   72.4501  224.0770 H   0  0  0  0  0  0  0  0  0  0  0  0
  142.0358   70.5084  221.7490 H   0  0  0  0  0  0  0  0  0  0  0  0
  144.2424   71.0070  220.6571 H   0  0  0  0  0  0  0  0  0  0  0  0
  144.7405   73.3189  219.8377 H   0  0  0  0  0  0  0  0  0  0  0  0
  143.0314   75.1425  220.0984 H   0  0  0  0  0  0  0  0  0  0  0  0
  1  2  2  0
  2  3  1  0
  3  4  2  0
  4  5  1  0
  5  6  2  0
  6  7  1  0
  7  8  1  0
  7  9  2  0
  9 10  1  0
 10 11  2  0
 11 12  1  0
  2 13  1  0
 13 14  1  0
 15 14  1  1
 15 16  1  0
 16 17  1  0
 17 18  1  0
 18 19  1  0
 19 20  1  0
 20 21  1  0
 21 22  1  0
 22 23  1  0
 23 24  1  0
 18 25  1  0
 15 26  1  0
 26 27  2  0
 27 28  1  0
 28 29  2  0
 29 30  1  0
 30 31  2  0
 12  3  1  0
 31 13  1  0
 11  5  1  0
 25 15  1  0
 31 26  1  0
 24 19  1  0
  4 32  1  0
  6 33  1  0
  9 34  1  0
 10 35  1  0
 12 36  1  0
 14 37  1  0
 14 38  1  0
 16 39  1  0
 16 40  1  0
 17 41  1  0
 17 42  1  0
 19 43  1  1
 20 44  1  0
 20 45  1  0
 21 46  1  0
 21 47  1  0
 22 48  1  0
 22 49  1  0
 23 50  1  0
 24 51  1  0
 24 52  1  0
 25 53  1  0
 25 54  1  0
 27 55  1  0
 28 56  1  0
 29 57  1  0
 30 58  1  0
M  END
>  <UniqueID>  (41) 
24

>  <SMILES>  (41) 
O=C(c1cc2cc(F)ccc2[nH]1)N1C[C@@]2(CCN([C@H]3CCCNC3)C2)c2ccccc21

>  <Energy>  (41) 
130.46795265963146

>  <Genealogy>  (41) 
O=C(c1cc2cc(F)ccc2[nH]1)N1C[C@@]2(CCN([C@H]3CCCNC3)C2)c2ccccc21 (chirality)
O=C(c1cc2cc(F)ccc2[nH]1)N1C[C@@]2(CCN([C@H]3CCCNC3)C2)c2ccccc21 (3D coordinates assigned)
O=C(c1cc2cc(F)ccc2[nH]1)N1C[C@@]2(CCN([C@H]3CCCNC3)C2)c2ccccc21 (nonaromatic ring conformer: 130.46795265963146 kcal/mol)

>  <smiles>  (41) 
O=C(c1cc2cc(F)ccc2[nH]1)N1C[C@@]2(CCN(C3CCCNC3)C2)c2ccccc21

>  <score_type>  (41) 
oracle

>  <origin>  (41) 
autodockgpu

>  <m_score__min__energy>  (41) 
-8.3300000000000001

>  <m_primary>  (41) 
energy

>  <meeko>  (41) 
{"free_energy": -8.3, "intermolecular_energy": -9.19, "internal_energy": -1.18, "cluster_size": 15, "cluster_id": 1, "rank_in_cluster": 7}

>  <energy>  (41) 
-8.33

>  <cluster_rmsd>  (41) 
0.0

>  <rmsd>  (41) 
272.42

>  <cluster>  (41) 
1

$$$$
ABNVVKAVWJYHCL-DFBJGRDBNA-N
     RDKit          3D

 58 63  0  0  0  0  0  0  0  0999 V2000
  139.8070   70.9690  221.0630 O   0  0  0  0  0  0  0  0  0  0  0  0
  139.8330   71.6370  222.1320 C   0  0  0  0  0  0  0  0  0  0  0  0
  139.9170   70.9310  223.4210 C   0  0  0  0  0  0  0  0  0  0  0  0
  140.4410   71.4730  224.5950 C   0  0  0  0  0  0  0  0  0  0  0  0
  140.3520   70.4620  225.5250 C   0  0  0  0  0  0  0  0  0  0  0  0
  140.7280   70.4280  226.8660 C   0  0  0  0  0  0  0  0  0  0  0  0
  140.5250   69.2280  227.5740 C   0  0  0  0  0  0  0  0  0  0  0  0
  140.8750   69.1500  228.8810 F   0  0  0  0  0  0  0  0  0  0  0  0
  139.9620   68.1040  226.9290 C   0  0  0  0  0  0  0  0  0  0  0  0
  139.5940   68.1700  225.5720 C   0  0  0  0  0  0  0  0  0  0  0  0
  139.8020   69.3730  224.8980 C   0  0  0  0  0  0  0  0  0  0  0  0
  139.5350   69.6450  223.6110 N   0  0  0  0  0  0  0  0  0  0  0  0
  139.8090   73.0720  222.0760 N   0  0  0  0  0  0  0  0  0  0  0  0
  140.9560   73.8780  221.6490 C   0  0  0  0  0  0  0  0  0  0  0  0
  140.3920   75.3030  221.3300 C   0  0  2  0  0  0  0  0  0  0  0  0
  140.6940   75.7860  219.9160 C   0  0  0  0  0  0  0  0  0  0  0  0
  140.9090   77.2920  220.0460 C   0  0  0  0  0  0  0  0  0  0  0  0
  140.8150   77.6610  221.4760 N   0  0  0  0  0  0  0  0  0  0  0  0
  141.8030   78.7090  221.8600 C   0  0  1  0  0  0  0  0  0  0  0  0
  141.4540   80.0570  221.1630 C   0  0  0  0  0  0  0  0  0  0  0  0
  141.8880   81.2680  221.9910 C   0  0  0  0  0  0  0  0  0  0  0  0
  141.2140   81.2570  223.3790 C   0  0  0  0  0  0  0  0  0  0  0  0
  140.8930   79.9010  223.8660 N   0  0  0  0  0  0  0  0  0  0  0  0
  141.8720   78.9090  223.4050 C   0  0  0  0  0  0  0  0  0  0  0  0
  140.9770   76.4000  222.2150 C   0  0  0  0  0  0  0  0  0  0  0  0
  138.9130   75.1380  221.5610 C   0  0  0  0  0  0  0  0  0  0  0  0
  137.8940   76.0890  221.4240 C   0  0  0  0  0  0  0  0  0  0  0  0
  136.5760   75.7140  221.7270 C   0  0  0  0  0  0  0  0  0  0  0  0
  136.2950   74.4080  222.1680 C   0  0  0  0  0  0  0  0  0  0  0  0
  137.3300   73.4700  222.3030 C   0  0  0  0  0  0  0  0  0  0  0  0
  138.6340   73.8630  221.9800 C   0  0  0  0  0  0  0  0  0  0  0  0
  140.8387   72.4876  224.7449 H   0  0  0  0  0  0  0  0  0  0  0  0
  141.1687   71.3091  227.3553 H   0  0  0  0  0  0  0  0  0  0  0  0
  139.8102   67.1708  227.4913 H   0  0  0  0  0  0  0  0  0  0  0  0
  139.1564   67.3006  225.0596 H   0  0  0  0  0  0  0  0  0  0  0  0
  139.1550   68.9810  222.9000 H   0  0  0  0  0  0  0  0  0  0  0  0
  141.7033   73.9349  222.4542 H   0  0  0  0  0  0  0  0  0  0  0  0
  141.4522   73.4371  220.7719 H   0  0  0  0  0  0  0  0  0  0  0  0
  141.6004   75.2989  219.5271 H   0  0  0  0  0  0  0  0  0  0  0  0
  139.8801   75.5453  219.2162 H   0  0  0  0  0  0  0  0  0  0  0  0
  141.9034   77.5591  219.6590 H   0  0  0  0  0  0  0  0  0  0  0  0
  140.1447   77.8319  219.4677 H   0  0  0  0  0  0  0  0  0  0  0  0
  142.7932   78.3672  221.5245 H   0  0  0  0  0  0  0  0  0  0  0  0
  141.9633   80.0937  220.1887 H   0  0  0  0  0  0  0  0  0  0  0  0
  140.3611   80.1028  221.0469 H   0  0  0  0  0  0  0  0  0  0  0  0
  142.9800   81.2427  222.1208 H   0  0  0  0  0  0  0  0  0  0  0  0
  141.5849   82.1828  221.4607 H   0  0  0  0  0  0  0  0  0  0  0  0
  141.8938   81.7343  224.1001 H   0  0  0  0  0  0  0  0  0  0  0  0
  140.2623   81.7998  223.2813 H   0  0  0  0  0  0  0  0  0  0  0  0
  139.9460   79.6240  223.5150 H   0  0  0  0  0  0  0  0  0  0  0  0
  142.8817   79.2514  223.6758 H   0  0  0  0  0  0  0  0  0  0  0  0
  141.6405   77.9477  223.8869 H   0  0  0  0  0  0  0  0  0  0  0  0
  142.0426   76.2059  222.4070 H   0  0  0  0  0  0  0  0  0  0  0  0
  140.4672   76.4405  223.1889 H   0  0  0  0  0  0  0  0  0  0  0  0
  138.1224   77.1104  221.0854 H   0  0  0  0  0  0  0  0  0  0  0  0
  135.7599   76.4437  221.6193 H   0  0  0  0  0  0  0  0  0  0  0  0
  135.2605   74.1211  222.4078 H   0  0  0  0  0  0  0  0  0  0  0  0
  137.1212   72.4489  222.6547 H   0  0  0  0  0  0  0  0  0  0  0  0
  1  2  2  0
  2  3  1  0
  3  4  2  0
  4  5  1  0
  5  6  2  0
  6  7  1  0
  7  8  1  0
  7  9  2  0
  9 10  1  0
 10 11  2  0
 11 12  1  0
  2 13  1  0
 13 14  1  0
 15 14  1  1
 15 16  1  0
 16 17  1  0
 17 18  1  0
 18 19  1  0
 19 20  1  0
 20 21  1  0
 21 22  1  0
 22 23  1  0
 23 24  1  0
 18 25  1  0
 15 26  1  0
 26 27  2  0
 27 28  1  0
 28 29  2  0
 29 30  1  0
 30 31  2  0
 12  3  1  0
 31 13  1  0
 11  5  1  0
 25 15  1  0
 31 26  1  0
 24 19  1  0
  4 32  1  0
  6 33  1  0
  9 34  1  0
 10 35  1  0
 12 36  1  0
 14 37  1  0
 14 38  1  0
 16 39  1  0
 16 40  1  0
 17 41  1  0
 17 42  1  0
 19 43  1  6
 20 44  1  0
 20 45  1  0
 21 46  1  0
 21 47  1  0
 22 48  1  0
 22 49  1  0
 23 50  1  0
 24 51  1  0
 24 52  1  0
 25 53  1  0
 25 54  1  0
 27 55  1  0
 28 56  1  0
 29 57  1  0
 30 58  1  0
M  END
>  <UniqueID>  (42) 
24

>  <SMILES>  (42) 
O=C(c1cc2cc(F)ccc2[nH]1)N1C[C@@]2(CCN([C@H]3CCCNC3)C2)c2ccccc21

>  <Energy>  (42) 
130.46795265963146

>  <Genealogy>  (42) 
O=C(c1cc2cc(F)ccc2[nH]1)N1C[C@@]2(CCN([C@H]3CCCNC3)C2)c2ccccc21 (chirality)
O=C(c1cc2cc(F)ccc2[nH]1)N1C[C@@]2(CCN([C@H]3CCCNC3)C2)c2ccccc21 (3D coordinates assigned)
O=C(c1cc2cc(F)ccc2[nH]1)N1C[C@@]2(CCN([C@H]3CCCNC3)C2)c2ccccc21 (nonaromatic ring conformer: 130.46795265963146 kcal/mol)

>  <smiles>  (42) 
O=C(c1cc2cc(F)ccc2[nH]1)N1C[C@@]2(CCN(C3CCCNC3)C2)c2ccccc21

>  <score_type>  (42) 
oracle

>  <origin>  (42) 
autodockgpu

>  <m_score__min__energy>  (42) 
-8.3300000000000001

>  <m_primary>  (42) 
energy

>  <meeko>  (42) 
{"free_energy": -8.08, "intermolecular_energy": -8.97, "internal_energy": -1.18, "cluster_size": 5, "cluster_id": 2, "rank_in_cluster": 2}

>  <energy>  (42) 
-8.32

>  <cluster_rmsd>  (42) 
0.08

>  <rmsd>  (42) 
272.43

>  <cluster>  (42) 
1

$$$$
ABNVVKAVWJYHCL-DFBJGRDBNA-N
     RDKit          3D

 58 63  0  0  0  0  0  0  0  0999 V2000
  139.6830   76.0230  219.5640 O   0  0  0  0  0  0  0  0  0  0  0  0
  140.3090   75.9730  220.6570 C   0  0  0  0  0  0  0  0  0  0  0  0
  140.8100   77.2200  221.2590 C   0  0  0  0  0  0  0  0  0  0  0  0
  141.0610   77.4050  222.6180 C   0  0  0  0  0  0  0  0  0  0  0  0
  141.4750   78.7140  222.7290 C   0  0  0  0  0  0  0  0  0  0  0  0
  141.8540   79.4530  223.8470 C   0  0  0  0  0  0  0  0  0  0  0  0
  142.2200   80.7980  223.6510 C   0  0  0  0  0  0  0  0  0  0  0  0
  142.5970   81.5550  224.7110 F   0  0  0  0  0  0  0  0  0  0  0  0
  142.1930   81.3650  222.3570 C   0  0  0  0  0  0  0  0  0  0  0  0
  141.8020   80.5910  221.2480 C   0  0  0  0  0  0  0  0  0  0  0  0
  141.4500   79.2610  221.4730 C   0  0  0  0  0  0  0  0  0  0  0  0
  141.0420   78.3600  220.5650 N   0  0  0  0  0  0  0  0  0  0  0  0
  140.5010   74.7090  221.3120 N   0  0  0  0  0  0  0  0  0  0  0  0
  139.4150   73.9690  221.9610 C   0  0  0  0  0  0  0  0  0  0  0  0
  139.9410   72.5080  222.1570 C   0  0  2  0  0  0  0  0  0  0  0  0
  139.0550   71.4410  221.5240 C   0  0  0  0  0  0  0  0  0  0  0  0
  139.1410   70.2410  222.4640 C   0  0  0  0  0  0  0  0  0  0  0  0
  139.9730   70.6130  223.6300 N   0  0  0  0  0  0  0  0  0  0  0  0
  139.4540   70.0410  224.9050 C   0  0  1  0  0  0  0  0  0  0  0  0
  139.2630   68.5020  224.7650 C   0  0  0  0  0  0  0  0  0  0  0  0
  139.4520   67.7700  226.0940 C   0  0  0  0  0  0  0  0  0  0  0  0
  140.8610   68.0270  226.6690 C   0  0  0  0  0  0  0  0  0  0  0  0
  141.4320   69.3280  226.2680 N   0  0  0  0  0  0  0  0  0  0  0  0
  140.3930   70.3540  226.1110 C   0  0  0  0  0  0  0  0  0  0  0  0
  140.0220   72.0830  223.6210 C   0  0  0  0  0  0  0  0  0  0  0  0
  141.3040   72.5540  221.5200 C   0  0  0  0  0  0  0  0  0  0  0  0
  142.2460   71.5240  221.3920 C   0  0  0  0  0  0  0  0  0  0  0  0
  143.4770   71.8090  220.7830 C   0  0  0  0  0  0  0  0  0  0  0  0
  143.7550   73.1080  220.3200 C   0  0  0  0  0  0  0  0  0  0  0  0
  142.8000   74.1270  220.4600 C   0  0  0  0  0  0  0  0  0  0  0  0
  141.5740   73.8160  221.0580 C   0  0  0  0  0  0  0  0  0  0  0  0
  140.9521   76.6663  223.4257 H   0  0  0  0  0  0  0  0  0  0  0  0
  141.8669   79.0007  224.8496 H   0  0  0  0  0  0  0  0  0  0  0  0
  142.4792   82.4176  222.2153 H   0  0  0  0  0  0  0  0  0  0  0  0
  141.7751   81.0219  220.2363 H   0  0  0  0  0  0  0  0  0  0  0  0
  140.8930   78.5270  219.5450 H   0  0  0  0  0  0  0  0  0  0  0  0
  139.1732   74.4214  222.9341 H   0  0  0  0  0  0  0  0  0  0  0  0
  138.4977   73.9876  221.3542 H   0  0  0  0  0  0  0  0  0  0  0  0
  138.0171   71.7972  221.4470 H   0  0  0  0  0  0  0  0  0  0  0  0
  139.3799   71.1886  220.5038 H   0  0  0  0  0  0  0  0  0  0  0  0
  138.1321   69.9624  222.8025 H   0  0  0  0  0  0  0  0  0  0  0  0
  139.5903   69.3846  221.9398 H   0  0  0  0  0  0  0  0  0  0  0  0
  138.4824   70.5155  225.1072 H   0  0  0  0  0  0  0  0  0  0  0  0
  138.2467   68.3041  224.3937 H   0  0  0  0  0  0  0  0  0  0  0  0
  140.0261   68.1307  224.0651 H   0  0  0  0  0  0  0  0  0  0  0  0
  138.6993   68.1273  226.8121 H   0  0  0  0  0  0  0  0  0  0  0  0
  139.3351   66.6901  225.9201 H   0  0  0  0  0  0  0  0  0  0  0  0
  140.7998   67.9971  227.7669 H   0  0  0  0  0  0  0  0  0  0  0  0
  141.5223   67.2454  226.2667 H   0  0  0  0  0  0  0  0  0  0  0  0
  141.9340   69.2180  225.3550 H   0  0  0  0  0  0  0  0  0  0  0  0
  139.7909   70.3959  227.0306 H   0  0  0  0  0  0  0  0  0  0  0  0
  140.8875   71.3180  225.9207 H   0  0  0  0  0  0  0  0  0  0  0  0
  139.1721   72.4954  224.1845 H   0  0  0  0  0  0  0  0  0  0  0  0
  140.9433   72.4542  224.0936 H   0  0  0  0  0  0  0  0  0  0  0  0
  142.0242   70.5121  221.7619 H   0  0  0  0  0  0  0  0  0  0  0  0
  144.2280   71.0136  220.6670 H   0  0  0  0  0  0  0  0  0  0  0  0
  144.7238   73.3258  219.8468 H   0  0  0  0  0  0  0  0  0  0  0  0
  143.0108   75.1474  220.1074 H   0  0  0  0  0  0  0  0  0  0  0  0
  1  2  2  0
  2  3  1  0
  3  4  2  0
  4  5  1  0
  5  6  2  0
  6  7  1  0
  7  8  1  0
  7  9  2  0
  9 10  1  0
 10 11  2  0
 11 12  1  0
  2 13  1  0
 13 14  1  0
 15 14  1  1
 15 16  1  0
 16 17  1  0
 17 18  1  0
 18 19  1  0
 19 20  1  0
 20 21  1  0
 21 22  1  0
 22 23  1  0
 23 24  1  0
 18 25  1  0
 15 26  1  0
 26 27  2  0
 27 28  1  0
 28 29  2  0
 29 30  1  0
 30 31  2  0
 12  3  1  0
 31 13  1  0
 11  5  1  0
 25 15  1  0
 31 26  1  0
 24 19  1  0
  4 32  1  0
  6 33  1  0
  9 34  1  0
 10 35  1  0
 12 36  1  0
 14 37  1  0
 14 38  1  0
 16 39  1  0
 16 40  1  0
 17 41  1  0
 17 42  1  0
 19 43  1  1
 20 44  1  0
 20 45  1  0
 21 46  1  0
 21 47  1  0
 22 48  1  0
 22 49  1  0
 23 50  1  0
 24 51  1  0
 24 52  1  0
 25 53  1  0
 25 54  1  0
 27 55  1  0
 28 56  1  0
 29 57  1  0
 30 58  1  0
M  END
>  <UniqueID>  (43) 
24

>  <SMILES>  (43) 
O=C(c1cc2cc(F)ccc2[nH]1)N1C[C@@]2(CCN([C@H]3CCCNC3)C2)c2ccccc21

>  <Energy>  (43) 
130.46795265963146

>  <Genealogy>  (43) 
O=C(c1cc2cc(F)ccc2[nH]1)N1C[C@@]2(CCN([C@H]3CCCNC3)C2)c2ccccc21 (chirality)
O=C(c1cc2cc(F)ccc2[nH]1)N1C[C@@]2(CCN([C@H]3CCCNC3)C2)c2ccccc21 (3D coordinates assigned)
O=C(c1cc2cc(F)ccc2[nH]1)N1C[C@@]2(CCN([C@H]3CCCNC3)C2)c2ccccc21 (nonaromatic ring conformer: 130.46795265963146 kcal/mol)

>  <smiles>  (43) 
O=C(c1cc2cc(F)ccc2[nH]1)N1C[C@@]2(CCN(C3CCCNC3)C2)c2ccccc21

>  <score_type>  (43) 
oracle

>  <origin>  (43) 
autodockgpu

>  <m_score__min__energy>  (43) 
-8.3300000000000001

>  <m_primary>  (43) 
energy

>  <meeko>  (43) 
{"free_energy": -8.3, "intermolecular_energy": -9.19, "internal_energy": -1.18, "cluster_size": 15, "cluster_id": 1, "rank_in_cluster": 6}

>  <energy>  (43) 
-8.31

>  <cluster_rmsd>  (43) 
0.2

>  <rmsd>  (43) 
272.38

>  <cluster>  (43) 
1

$$$$
ABNVVKAVWJYHCL-DFBJGRDBNA-N
     RDKit          3D

 58 63  0  0  0  0  0  0  0  0999 V2000
  139.6960   76.0170  219.5670 O   0  0  0  0  0  0  0  0  0  0  0  0
  140.3210   75.9690  220.6600 C   0  0  0  0  0  0  0  0  0  0  0  0
  140.8180   77.2170  221.2620 C   0  0  0  0  0  0  0  0  0  0  0  0
  141.0600   77.4050  222.6230 C   0  0  0  0  0  0  0  0  0  0  0  0
  141.4740   78.7140  222.7330 C   0  0  0  0  0  0  0  0  0  0  0  0
  141.8470   79.4560  223.8520 C   0  0  0  0  0  0  0  0  0  0  0  0
  142.2150   80.8000  223.6550 C   0  0  0  0  0  0  0  0  0  0  0  0
  142.5860   81.5590  224.7150 F   0  0  0  0  0  0  0  0  0  0  0  0
  142.1980   81.3630  222.3590 C   0  0  0  0  0  0  0  0  0  0  0  0
  141.8150   80.5870  221.2490 C   0  0  0  0  0  0  0  0  0  0  0  0
  141.4600   79.2570  221.4750 C   0  0  0  0  0  0  0  0  0  0  0  0
  141.0570   78.3550  220.5660 N   0  0  0  0  0  0  0  0  0  0  0  0
  140.5140   74.7060  221.3150 N   0  0  0  0  0  0  0  0  0  0  0  0
  139.4290   73.9630  221.9630 C   0  0  0  0  0  0  0  0  0  0  0  0
  139.9570   72.5030  222.1600 C   0  0  2  0  0  0  0  0  0  0  0  0
  139.0750   71.4340  221.5250 C   0  0  0  0  0  0  0  0  0  0  0  0
  139.1620   70.2340  222.4660 C   0  0  0  0  0  0  0  0  0  0  0  0
  139.9910   70.6080  223.6330 N   0  0  0  0  0  0  0  0  0  0  0  0
  139.4720   70.0360  224.9080 C   0  0  1  0  0  0  0  0  0  0  0  0
  139.2880   68.4950  224.7680 C   0  0  0  0  0  0  0  0  0  0  0  0
  139.4770   67.7650  226.0990 C   0  0  0  0  0  0  0  0  0  0  0  0
  140.8830   68.0300  226.6780 C   0  0  0  0  0  0  0  0  0  0  0  0
  141.4490   69.3330  226.2770 N   0  0  0  0  0  0  0  0  0  0  0  0
  140.4060   70.3540  226.1160 C   0  0  0  0  0  0  0  0  0  0  0  0
  140.0370   72.0780  223.6240 C   0  0  0  0  0  0  0  0  0  0  0  0
  141.3220   72.5510  221.5260 C   0  0  0  0  0  0  0  0  0  0  0  0
  142.2660   71.5240  221.3990 C   0  0  0  0  0  0  0  0  0  0  0  0
  143.4980   71.8110  220.7920 C   0  0  0  0  0  0  0  0  0  0  0  0
  143.7730   73.1110  220.3290 C   0  0  0  0  0  0  0  0  0  0  0  0
  142.8170   74.1270  220.4680 C   0  0  0  0  0  0  0  0  0  0  0  0
  141.5900   73.8140  221.0630 C   0  0  0  0  0  0  0  0  0  0  0  0
  140.9452   76.6684  223.4319 H   0  0  0  0  0  0  0  0  0  0  0  0
  141.8536   79.0062  224.8558 H   0  0  0  0  0  0  0  0  0  0  0  0
  142.4861   82.4150  222.2167 H   0  0  0  0  0  0  0  0  0  0  0  0
  141.7962   81.0154  220.2360 H   0  0  0  0  0  0  0  0  0  0  0  0
  140.9170   78.5190  219.5450 H   0  0  0  0  0  0  0  0  0  0  0  0
  139.1852   74.4149  222.9358 H   0  0  0  0  0  0  0  0  0  0  0  0
  138.5127   73.9793  221.3546 H   0  0  0  0  0  0  0  0  0  0  0  0
  138.0364   71.7877  221.4456 H   0  0  0  0  0  0  0  0  0  0  0  0
  139.4026   71.1823  220.5055 H   0  0  0  0  0  0  0  0  0  0  0  0
  138.1531   69.9534  222.8028 H   0  0  0  0  0  0  0  0  0  0  0  0
  139.6140   69.3784  221.9429 H   0  0  0  0  0  0  0  0  0  0  0  0
  138.4985   70.5073  225.1084 H   0  0  0  0  0  0  0  0  0  0  0  0
  138.2735   68.2923  224.3942 H   0  0  0  0  0  0  0  0  0  0  0  0
  140.0541   68.1264  224.0700 H   0  0  0  0  0  0  0  0  0  0  0  0
  138.7203   68.1191  226.8145 H   0  0  0  0  0  0  0  0  0  0  0  0
  139.3663   66.6844  225.9258 H   0  0  0  0  0  0  0  0  0  0  0  0
  140.8185   68.0014  227.7757 H   0  0  0  0  0  0  0  0  0  0  0  0
  141.5493   67.2512  226.2788 H   0  0  0  0  0  0  0  0  0  0  0  0
  141.9540   69.2240  225.3650 H   0  0  0  0  0  0  0  0  0  0  0  0
  139.8011   70.3941  227.0339 H   0  0  0  0  0  0  0  0  0  0  0  0
  140.8968   71.3199  225.9261 H   0  0  0  0  0  0  0  0  0  0  0  0
  139.1855   72.4887  224.1864 H   0  0  0  0  0  0  0  0  0  0  0  0
  140.9570   72.4510  224.0977 H   0  0  0  0  0  0  0  0  0  0  0  0
  142.0456   70.5115  221.7682 H   0  0  0  0  0  0  0  0  0  0  0  0
  144.2511   71.0174  220.6777 H   0  0  0  0  0  0  0  0  0  0  0  0
  144.7416   73.3309  219.8563 H   0  0  0  0  0  0  0  0  0  0  0  0
  143.0270   75.1481  220.1169 H   0  0  0  0  0  0  0  0  0  0  0  0
  1  2  2  0
  2  3  1  0
  3  4  2  0
  4  5  1  0
  5  6  2  0
  6  7  1  0
  7  8  1  0
  7  9  2  0
  9 10  1  0
 10 11  2  0
 11 12  1  0
  2 13  1  0
 13 14  1  0
 15 14  1  1
 15 16  1  0
 16 17  1  0
 17 18  1  0
 18 19  1  0
 19 20  1  0
 20 21  1  0
 21 22  1  0
 22 23  1  0
 23 24  1  0
 18 25  1  0
 15 26  1  0
 26 27  2  0
 27 28  1  0
 28 29  2  0
 29 30  1  0
 30 31  2  0
 12  3  1  0
 31 13  1  0
 11  5  1  0
 25 15  1  0
 31 26  1  0
 24 19  1  0
  4 32  1  0
  6 33  1  0
  9 34  1  0
 10 35  1  0
 12 36  1  0
 14 37  1  0
 14 38  1  0
 16 39  1  0
 16 40  1  0
 17 41  1  0
 17 42  1  0
 19 43  1  1
 20 44  1  0
 20 45  1  0
 21 46  1  0
 21 47  1  0
 22 48  1  0
 22 49  1  0
 23 50  1  0
 24 51  1  0
 24 52  1  0
 25 53  1  0
 25 54  1  0
 27 55  1  0
 28 56  1  0
 29 57  1  0
 30 58  1  0
M  END
>  <UniqueID>  (44) 
24

>  <SMILES>  (44) 
O=C(c1cc2cc(F)ccc2[nH]1)N1C[C@@]2(CCN([C@H]3CCCNC3)C2)c2ccccc21

>  <Energy>  (44) 
130.46795265963146

>  <Genealogy>  (44) 
O=C(c1cc2cc(F)ccc2[nH]1)N1C[C@@]2(CCN([C@H]3CCCNC3)C2)c2ccccc21 (chirality)
O=C(c1cc2cc(F)ccc2[nH]1)N1C[C@@]2(CCN([C@H]3CCCNC3)C2)c2ccccc21 (3D coordinates assigned)
O=C(c1cc2cc(F)ccc2[nH]1)N1C[C@@]2(CCN([C@H]3CCCNC3)C2)c2ccccc21 (nonaromatic ring conformer: 130.46795265963146 kcal/mol)

>  <smiles>  (44) 
O=C(c1cc2cc(F)ccc2[nH]1)N1C[C@@]2(CCN(C3CCCNC3)C2)c2ccccc21

>  <score_type>  (44) 
oracle

>  <origin>  (44) 
autodockgpu

>  <m_score__min__energy>  (44) 
-8.3300000000000001

>  <m_primary>  (44) 
energy

>  <meeko>  (44) 
{"free_energy": -8.3, "intermolecular_energy": -9.2, "internal_energy": -1.18, "cluster_size": 15, "cluster_id": 1, "rank_in_cluster": 4}

>  <energy>  (44) 
-8.3

>  <cluster_rmsd>  (44) 
0.98

>  <rmsd>  (44) 
272.49

>  <cluster>  (44) 
1

$$$$
ABNVVKAVWJYHCL-DFBJGRDBNA-N
     RDKit          3D

 58 63  0  0  0  0  0  0  0  0999 V2000
  141.0560   71.5310  221.1940 O   0  0  0  0  0  0  0  0  0  0  0  0
  140.4790   72.0480  222.1890 C   0  0  0  0  0  0  0  0  0  0  0  0
  140.3340   71.2640  223.4260 C   0  0  0  0  0  0  0  0  0  0  0  0
  140.7030   71.7050  224.6970 C   0  0  0  0  0  0  0  0  0  0  0  0
  140.4260   70.6470  225.5350 C   0  0  0  0  0  0  0  0  0  0  0  0
  140.5950   70.5130  226.9110 C   0  0  0  0  0  0  0  0  0  0  0  0
  140.2290   69.2870  227.5000 C   0  0  0  0  0  0  0  0  0  0  0  0
  140.3760   69.1120  228.8370 F   0  0  0  0  0  0  0  0  0  0  0  0
  139.7140   68.2390  226.7060 C   0  0  0  0  0  0  0  0  0  0  0  0
  139.5580   68.4060  225.3170 C   0  0  0  0  0  0  0  0  0  0  0  0
  139.9230   69.6320  224.7640 C   0  0  0  0  0  0  0  0  0  0  0  0
  139.8660   69.9940  223.4720 N   0  0  0  0  0  0  0  0  0  0  0  0
  139.9980   73.3990  222.1100 N   0  0  0  0  0  0  0  0  0  0  0  0
  140.8370   74.5280  221.6960 C   0  0  0  0  0  0  0  0  0  0  0  0
  139.8550   75.6940  221.3420 C   0  0  2  0  0  0  0  0  0  0  0  0
  140.0230   76.2370  219.9270 C   0  0  0  0  0  0  0  0  0  0  0  0
  139.7410   77.7340  220.0390 C   0  0  0  0  0  0  0  0  0  0  0  0
  139.4960   78.0640  221.4600 N   0  0  0  0  0  0  0  0  0  0  0  0
  140.0860   79.3760  221.8500 C   0  0  1  0  0  0  0  0  0  0  0  0
  140.2360   79.4590  223.3980 C   0  0  0  0  0  0  0  0  0  0  0  0
  141.4130   80.3400  223.8210 C   0  0  0  0  0  0  0  0  0  0  0  0
  142.7380   79.8050  223.2390 C   0  0  0  0  0  0  0  0  0  0  0  0
  142.5710   79.0760  221.9670 N   0  0  0  0  0  0  0  0  0  0  0  0
  141.4670   79.6220  221.1660 C   0  0  0  0  0  0  0  0  0  0  0  0
  140.0340   76.9270  222.2230 C   0  0  0  0  0  0  0  0  0  0  0  0
  138.5010   75.0650  221.5430 C   0  0  0  0  0  0  0  0  0  0  0  0
  137.2350   75.6380  221.3680 C   0  0  0  0  0  0  0  0  0  0  0  0
  136.0990   74.8630  221.6480 C   0  0  0  0  0  0  0  0  0  0  0  0
  136.2400   73.5390  222.1020 C   0  0  0  0  0  0  0  0  0  0  0  0
  137.5170   72.9840  222.2750 C   0  0  0  0  0  0  0  0  0  0  0  0
  138.6350   73.7710  221.9750 C   0  0  0  0  0  0  0  0  0  0  0  0
  141.1235   72.6840  224.9705 H   0  0  0  0  0  0  0  0  0  0  0  0
  141.0005   71.3366  227.5171 H   0  0  0  0  0  0  0  0  0  0  0  0
  139.4327   67.2852  227.1763 H   0  0  0  0  0  0  0  0  0  0  0  0
  139.1609   67.5952  224.6886 H   0  0  0  0  0  0  0  0  0  0  0  0
  139.5640   69.3960  222.6700 H   0  0  0  0  0  0  0  0  0  0  0  0
  141.5051   74.8279  222.5168 H   0  0  0  0  0  0  0  0  0  0  0  0
  141.4711   74.2628  220.8371 H   0  0  0  0  0  0  0  0  0  0  0  0
  141.0473   76.0630  219.5657 H   0  0  0  0  0  0  0  0  0  0  0  0
  139.3477   75.7427  219.2131 H   0  0  0  0  0  0  0  0  0  0  0  0
  140.6076   78.3027  219.6707 H   0  0  0  0  0  0  0  0  0  0  0  0
  138.8596   77.9962  219.4354 H   0  0  0  0  0  0  0  0  0  0  0  0
  139.3985   80.1622  221.5047 H   0  0  0  0  0  0  0  0  0  0  0  0
  139.3109   79.8776  223.8211 H   0  0  0  0  0  0  0  0  0  0  0  0
  140.4251   78.4422  223.7727 H   0  0  0  0  0  0  0  0  0  0  0  0
  141.2463   81.3639  223.4551 H   0  0  0  0  0  0  0  0  0  0  0  0
  141.4822   80.3309  224.9188 H   0  0  0  0  0  0  0  0  0  0  0  0
  143.4114   80.6574  223.0658 H   0  0  0  0  0  0  0  0  0  0  0  0
  143.1471   79.0914  223.9693 H   0  0  0  0  0  0  0  0  0  0  0  0
  142.3700   78.0680  222.1700 H   0  0  0  0  0  0  0  0  0  0  0  0
  141.6167   80.7048  221.0427 H   0  0  0  0  0  0  0  0  0  0  0  0
  141.4641   79.1128  220.1910 H   0  0  0  0  0  0  0  0  0  0  0  0
  141.1001   77.0863  222.4424 H   0  0  0  0  0  0  0  0  0  0  0  0
  139.5127   76.8094  223.1844 H   0  0  0  0  0  0  0  0  0  0  0  0
  137.1331   76.6758  221.0177 H   0  0  0  0  0  0  0  0  0  0  0  0
  135.0953   75.2921  221.5120 H   0  0  0  0  0  0  0  0  0  0  0  0
  135.3462   72.9368  222.3221 H   0  0  0  0  0  0  0  0  0  0  0  0
  137.6370   71.9527  222.6385 H   0  0  0  0  0  0  0  0  0  0  0  0
  1  2  2  0
  2  3  1  0
  3  4  2  0
  4  5  1  0
  5  6  2  0
  6  7  1  0
  7  8  1  0
  7  9  2  0
  9 10  1  0
 10 11  2  0
 11 12  1  0
  2 13  1  0
 13 14  1  0
 15 14  1  1
 15 16  1  0
 16 17  1  0
 17 18  1  0
 18 19  1  0
 19 20  1  0
 20 21  1  0
 21 22  1  0
 22 23  1  0
 23 24  1  0
 18 25  1  0
 15 26  1  0
 26 27  2  0
 27 28  1  0
 28 29  2  0
 29 30  1  0
 30 31  2  0
 12  3  1  0
 31 13  1  0
 11  5  1  0
 25 15  1  0
 31 26  1  0
 24 19  1  0
  4 32  1  0
  6 33  1  0
  9 34  1  0
 10 35  1  0
 12 36  1  0
 14 37  1  0
 14 38  1  0
 16 39  1  0
 16 40  1  0
 17 41  1  0
 17 42  1  0
 19 43  1  6
 20 44  1  0
 20 45  1  0
 21 46  1  0
 21 47  1  0
 22 48  1  0
 22 49  1  0
 23 50  1  0
 24 51  1  0
 24 52  1  0
 25 53  1  0
 25 54  1  0
 27 55  1  0
 28 56  1  0
 29 57  1  0
 30 58  1  0
M  END
>  <UniqueID>  (45) 
24

>  <SMILES>  (45) 
O=C(c1cc2cc(F)ccc2[nH]1)N1C[C@@]2(CCN([C@H]3CCCNC3)C2)c2ccccc21

>  <Energy>  (45) 
130.46795265963146

>  <Genealogy>  (45) 
O=C(c1cc2cc(F)ccc2[nH]1)N1C[C@@]2(CCN([C@H]3CCCNC3)C2)c2ccccc21 (chirality)
O=C(c1cc2cc(F)ccc2[nH]1)N1C[C@@]2(CCN([C@H]3CCCNC3)C2)c2ccccc21 (3D coordinates assigned)
O=C(c1cc2cc(F)ccc2[nH]1)N1C[C@@]2(CCN([C@H]3CCCNC3)C2)c2ccccc21 (nonaromatic ring conformer: 130.46795265963146 kcal/mol)

>  <smiles>  (45) 
O=C(c1cc2cc(F)ccc2[nH]1)N1C[C@@]2(CCN(C3CCCNC3)C2)c2ccccc21

>  <score_type>  (45) 
oracle

>  <origin>  (45) 
autodockgpu

>  <m_score__min__energy>  (45) 
-8.3300000000000001

>  <m_primary>  (45) 
energy

>  <meeko>  (45) 
{"free_energy": -8.02, "intermolecular_energy": -8.91, "internal_energy": -1.28, "cluster_size": 5, "cluster_id": 2, "rank_in_cluster": 5}

>  <energy>  (45) 
-8.3

>  <cluster_rmsd>  (45) 
0.98

>  <rmsd>  (45) 
272.49

>  <cluster>  (45) 
1

$$$$
ABNVVKAVWJYHCL-DFBJGRDBNA-N
     RDKit          3D

 58 63  0  0  0  0  0  0  0  0999 V2000
  139.6940   76.2300  219.4580 O   0  0  0  0  0  0  0  0  0  0  0  0
  140.2860   76.1820  220.5700 C   0  0  0  0  0  0  0  0  0  0  0  0
  140.7310   77.4340  221.2050 C   0  0  0  0  0  0  0  0  0  0  0  0
  141.0730   77.5670  222.5500 C   0  0  0  0  0  0  0  0  0  0  0  0
  141.3870   78.8990  222.7070 C   0  0  0  0  0  0  0  0  0  0  0  0
  141.7940   79.6080  223.8350 C   0  0  0  0  0  0  0  0  0  0  0  0
  142.0330   80.9880  223.6920 C   0  0  0  0  0  0  0  0  0  0  0  0
  142.4310   81.7170  224.7630 F   0  0  0  0  0  0  0  0  0  0  0  0
  141.8570   81.6170  222.4390 C   0  0  0  0  0  0  0  0  0  0  0  0
  141.4430   80.8730  221.3190 C   0  0  0  0  0  0  0  0  0  0  0  0
  141.2190   79.5080  221.4900 C   0  0  0  0  0  0  0  0  0  0  0  0
  140.8140   78.6240  220.5630 N   0  0  0  0  0  0  0  0  0  0  0  0
  140.4930   74.9150  221.2120 N   0  0  0  0  0  0  0  0  0  0  0  0
  139.4160   74.1520  221.8510 C   0  0  0  0  0  0  0  0  0  0  0  0
  139.9620   72.6970  222.0340 C   0  0  2  0  0  0  0  0  0  0  0  0
  139.0930   71.6240  221.3870 C   0  0  0  0  0  0  0  0  0  0  0  0
  139.1930   70.4160  222.3160 C   0  0  0  0  0  0  0  0  0  0  0  0
  140.0160   70.7880  223.4880 N   0  0  0  0  0  0  0  0  0  0  0  0
  139.5020   70.1970  224.7560 C   0  0  1  0  0  0  0  0  0  0  0  0
  139.3070   68.6600  224.5910 C   0  0  0  0  0  0  0  0  0  0  0  0
  139.5010   67.9060  225.9080 C   0  0  0  0  0  0  0  0  0  0  0  0
  140.9120   68.1520  226.4810 C   0  0  0  0  0  0  0  0  0  0  0  0
  141.4830   69.4580  226.0990 N   0  0  0  0  0  0  0  0  0  0  0  0
  140.4460   70.4880  225.9620 C   0  0  0  0  0  0  0  0  0  0  0  0
  140.0440   72.2590  223.4930 C   0  0  0  0  0  0  0  0  0  0  0  0
  141.3260   72.7680  221.4020 C   0  0  0  0  0  0  0  0  0  0  0  0
  142.2820   71.7530  221.2660 C   0  0  0  0  0  0  0  0  0  0  0  0
  143.5120   72.0610  220.6640 C   0  0  0  0  0  0  0  0  0  0  0  0
  143.7720   73.3680  220.2140 C   0  0  0  0  0  0  0  0  0  0  0  0
  142.8040   74.3720  220.3620 C   0  0  0  0  0  0  0  0  0  0  0  0
  141.5800   74.0380  220.9530 C   0  0  0  0  0  0  0  0  0  0  0  0
  141.0887   76.7799  223.3183 H   0  0  0  0  0  0  0  0  0  0  0  0
  141.9243   79.1062  224.8052 H   0  0  0  0  0  0  0  0  0  0  0  0
  142.0450   82.6961  222.3385 H   0  0  0  0  0  0  0  0  0  0  0  0
  141.3006   81.3532  220.3397 H   0  0  0  0  0  0  0  0  0  0  0  0
  140.5720   78.8310  219.5690 H   0  0  0  0  0  0  0  0  0  0  0  0
  139.1652   74.5910  222.8279 H   0  0  0  0  0  0  0  0  0  0  0  0
  138.5003   74.1632  221.2416 H   0  0  0  0  0  0  0  0  0  0  0  0
  138.0505   71.9663  221.3098 H   0  0  0  0  0  0  0  0  0  0  0  0
  139.4246   71.3863  220.3654 H   0  0  0  0  0  0  0  0  0  0  0  0
  138.1871   70.1201  222.6486 H   0  0  0  0  0  0  0  0  0  0  0  0
  139.6558   69.5711  221.7850 H   0  0  0  0  0  0  0  0  0  0  0  0
  138.5327   70.6706  224.9710 H   0  0  0  0  0  0  0  0  0  0  0  0
  138.2885   68.4702  224.2213 H   0  0  0  0  0  0  0  0  0  0  0  0
  140.0656   68.2986  223.8811 H   0  0  0  0  0  0  0  0  0  0  0  0
  138.7517   68.2525  226.6350 H   0  0  0  0  0  0  0  0  0  0  0  0
  139.3822   66.8292  225.7171 H   0  0  0  0  0  0  0  0  0  0  0  0
  140.8553   68.1044  227.5785 H   0  0  0  0  0  0  0  0  0  0  0  0
  141.5706   67.3763  226.0633 H   0  0  0  0  0  0  0  0  0  0  0  0
  141.9820   69.3620  225.1820 H   0  0  0  0  0  0  0  0  0  0  0  0
  139.8476   70.5167  226.8846 H   0  0  0  0  0  0  0  0  0  0  0  0
  140.9422   71.4536  225.7846 H   0  0  0  0  0  0  0  0  0  0  0  0
  139.1863   72.6538  224.0574 H   0  0  0  0  0  0  0  0  0  0  0  0
  140.9585   72.6385  223.9722 H   0  0  0  0  0  0  0  0  0  0  0  0
  142.0727   70.7342  221.6241 H   0  0  0  0  0  0  0  0  0  0  0  0
  144.2750   71.2778  220.5438 H   0  0  0  0  0  0  0  0  0  0  0  0
  144.7383   73.6036  219.7442 H   0  0  0  0  0  0  0  0  0  0  0  0
  143.0023   75.3989  220.0212 H   0  0  0  0  0  0  0  0  0  0  0  0
  1  2  2  0
  2  3  1  0
  3  4  2  0
  4  5  1  0
  5  6  2  0
  6  7  1  0
  7  8  1  0
  7  9  2  0
  9 10  1  0
 10 11  2  0
 11 12  1  0
  2 13  1  0
 13 14  1  0
 15 14  1  1
 15 16  1  0
 16 17  1  0
 17 18  1  0
 18 19  1  0
 19 20  1  0
 20 21  1  0
 21 22  1  0
 22 23  1  0
 23 24  1  0
 18 25  1  0
 15 26  1  0
 26 27  2  0
 27 28  1  0
 28 29  2  0
 29 30  1  0
 30 31  2  0
 12  3  1  0
 31 13  1  0
 11  5  1  0
 25 15  1  0
 31 26  1  0
 24 19  1  0
  4 32  1  0
  6 33  1  0
  9 34  1  0
 10 35  1  0
 12 36  1  0
 14 37  1  0
 14 38  1  0
 16 39  1  0
 16 40  1  0
 17 41  1  0
 17 42  1  0
 19 43  1  1
 20 44  1  0
 20 45  1  0
 21 46  1  0
 21 47  1  0
 22 48  1  0
 22 49  1  0
 23 50  1  0
 24 51  1  0
 24 52  1  0
 25 53  1  0
 25 54  1  0
 27 55  1  0
 28 56  1  0
 29 57  1  0
 30 58  1  0
M  END
>  <UniqueID>  (46) 
24

>  <SMILES>  (46) 
O=C(c1cc2cc(F)ccc2[nH]1)N1C[C@@]2(CCN([C@H]3CCCNC3)C2)c2ccccc21

>  <Energy>  (46) 
130.46795265963146

>  <Genealogy>  (46) 
O=C(c1cc2cc(F)ccc2[nH]1)N1C[C@@]2(CCN([C@H]3CCCNC3)C2)c2ccccc21 (chirality)
O=C(c1cc2cc(F)ccc2[nH]1)N1C[C@@]2(CCN([C@H]3CCCNC3)C2)c2ccccc21 (3D coordinates assigned)
O=C(c1cc2cc(F)ccc2[nH]1)N1C[C@@]2(CCN([C@H]3CCCNC3)C2)c2ccccc21 (nonaromatic ring conformer: 130.46795265963146 kcal/mol)

>  <smiles>  (46) 
O=C(c1cc2cc(F)ccc2[nH]1)N1C[C@@]2(CCN(C3CCCNC3)C2)c2ccccc21

>  <score_type>  (46) 
oracle

>  <origin>  (46) 
autodockgpu

>  <m_score__min__energy>  (46) 
-8.3300000000000001

>  <m_primary>  (46) 
energy

>  <meeko>  (46) 
{"free_energy": -8.25, "intermolecular_energy": -9.15, "internal_energy": -1.19, "cluster_size": 15, "cluster_id": 1, "rank_in_cluster": 15}

>  <energy>  (46) 
-8.3

>  <cluster_rmsd>  (46) 
0.98

>  <rmsd>  (46) 
272.48

>  <cluster>  (46) 
1

$$$$
ABNVVKAVWJYHCL-DFBJGRDBNA-N
     RDKit          3D

 58 63  0  0  0  0  0  0  0  0999 V2000
  139.7020   76.0190  219.5570 O   0  0  0  0  0  0  0  0  0  0  0  0
  140.3250   75.9710  220.6520 C   0  0  0  0  0  0  0  0  0  0  0  0
  140.8210   77.2200  221.2540 C   0  0  0  0  0  0  0  0  0  0  0  0
  141.0660   77.4070  222.6140 C   0  0  0  0  0  0  0  0  0  0  0  0
  141.4770   78.7170  222.7250 C   0  0  0  0  0  0  0  0  0  0  0  0
  141.8510   79.4580  223.8430 C   0  0  0  0  0  0  0  0  0  0  0  0
  142.2150   80.8040  223.6470 C   0  0  0  0  0  0  0  0  0  0  0  0
  142.5860   81.5620  224.7080 F   0  0  0  0  0  0  0  0  0  0  0  0
  142.1920   81.3680  222.3520 C   0  0  0  0  0  0  0  0  0  0  0  0
  141.8080   80.5930  221.2430 C   0  0  0  0  0  0  0  0  0  0  0  0
  141.4570   79.2620  221.4680 C   0  0  0  0  0  0  0  0  0  0  0  0
  141.0540   78.3600  220.5590 N   0  0  0  0  0  0  0  0  0  0  0  0
  140.5180   74.7090  221.3080 N   0  0  0  0  0  0  0  0  0  0  0  0
  139.4310   73.9660  221.9550 C   0  0  0  0  0  0  0  0  0  0  0  0
  139.9600   72.5060  222.1540 C   0  0  2  0  0  0  0  0  0  0  0  0
  139.0780   71.4370  221.5180 C   0  0  0  0  0  0  0  0  0  0  0  0
  139.1650   70.2380  222.4610 C   0  0  0  0  0  0  0  0  0  0  0  0
  139.9920   70.6130  223.6280 N   0  0  0  0  0  0  0  0  0  0  0  0
  139.4710   70.0410  224.9020 C   0  0  1  0  0  0  0  0  0  0  0  0
  139.2930   68.5000  224.7660 C   0  0  0  0  0  0  0  0  0  0  0  0
  139.4810   67.7740  226.0990 C   0  0  0  0  0  0  0  0  0  0  0  0
  140.8840   68.0450  226.6810 C   0  0  0  0  0  0  0  0  0  0  0  0
  141.4460   69.3490  226.2790 N   0  0  0  0  0  0  0  0  0  0  0  0
  140.4000   70.3660  226.1120 C   0  0  0  0  0  0  0  0  0  0  0  0
  140.0370   72.0830  223.6180 C   0  0  0  0  0  0  0  0  0  0  0  0
  141.3250   72.5550  221.5210 C   0  0  0  0  0  0  0  0  0  0  0  0
  142.2690   71.5270  221.3960 C   0  0  0  0  0  0  0  0  0  0  0  0
  143.5020   71.8140  220.7900 C   0  0  0  0  0  0  0  0  0  0  0  0
  143.7780   73.1130  220.3270 C   0  0  0  0  0  0  0  0  0  0  0  0
  142.8210   74.1300  220.4640 C   0  0  0  0  0  0  0  0  0  0  0  0
  141.5930   73.8170  221.0580 C   0  0  0  0  0  0  0  0  0  0  0  0
  140.9552   76.6690  223.4222 H   0  0  0  0  0  0  0  0  0  0  0  0
  141.8617   79.0068  224.8461 H   0  0  0  0  0  0  0  0  0  0  0  0
  142.4765   82.4210  222.2100 H   0  0  0  0  0  0  0  0  0  0  0  0
  141.7852   81.0227  220.2307 H   0  0  0  0  0  0  0  0  0  0  0  0
  140.9100   78.5250  219.5380 H   0  0  0  0  0  0  0  0  0  0  0  0
  139.1852   74.4186  222.9270 H   0  0  0  0  0  0  0  0  0  0  0  0
  138.5156   73.9817  221.3453 H   0  0  0  0  0  0  0  0  0  0  0  0
  138.0395   71.7906  221.4374 H   0  0  0  0  0  0  0  0  0  0  0  0
  139.4055   71.1848  220.4986 H   0  0  0  0  0  0  0  0  0  0  0  0
  138.1559   69.9572  222.7971 H   0  0  0  0  0  0  0  0  0  0  0  0
  139.6184   69.3824  221.9392 H   0  0  0  0  0  0  0  0  0  0  0  0
  138.4945   70.5082  225.0974 H   0  0  0  0  0  0  0  0  0  0  0  0
  138.2802   68.2927  224.3901 H   0  0  0  0  0  0  0  0  0  0  0  0
  140.0625   68.1324  224.0712 H   0  0  0  0  0  0  0  0  0  0  0  0
  138.7212   68.1272  226.8117 H   0  0  0  0  0  0  0  0  0  0  0  0
  139.3745   66.6926  225.9281 H   0  0  0  0  0  0  0  0  0  0  0  0
  140.8168   68.0183  227.7786 H   0  0  0  0  0  0  0  0  0  0  0  0
  141.5543   67.2678  226.2851 H   0  0  0  0  0  0  0  0  0  0  0  0
  141.9550   69.2400  225.3690 H   0  0  0  0  0  0  0  0  0  0  0  0
  139.7921   70.4066  227.0279 H   0  0  0  0  0  0  0  0  0  0  0  0
  140.8879   71.3332  225.9210 H   0  0  0  0  0  0  0  0  0  0  0  0
  139.1839   72.4936  224.1781 H   0  0  0  0  0  0  0  0  0  0  0  0
  140.9556   72.4573  224.0936 H   0  0  0  0  0  0  0  0  0  0  0  0
  142.0480   70.5148  221.7656 H   0  0  0  0  0  0  0  0  0  0  0  0
  144.2551   71.0202  220.6768 H   0  0  0  0  0  0  0  0  0  0  0  0
  144.7474   73.3325  219.8558 H   0  0  0  0  0  0  0  0  0  0  0  0
  143.0313   75.1508  220.1123 H   0  0  0  0  0  0  0  0  0  0  0  0
  1  2  2  0
  2  3  1  0
  3  4  2  0
  4  5  1  0
  5  6  2  0
  6  7  1  0
  7  8  1  0
  7  9  2  0
  9 10  1  0
 10 11  2  0
 11 12  1  0
  2 13  1  0
 13 14  1  0
 15 14  1  1
 15 16  1  0
 16 17  1  0
 17 18  1  0
 18 19  1  0
 19 20  1  0
 20 21  1  0
 21 22  1  0
 22 23  1  0
 23 24  1  0
 18 25  1  0
 15 26  1  0
 26 27  2  0
 27 28  1  0
 28 29  2  0
 29 30  1  0
 30 31  2  0
 12  3  1  0
 31 13  1  0
 11  5  1  0
 25 15  1  0
 31 26  1  0
 24 19  1  0
  4 32  1  0
  6 33  1  0
  9 34  1  0
 10 35  1  0
 12 36  1  0
 14 37  1  0
 14 38  1  0
 16 39  1  0
 16 40  1  0
 17 41  1  0
 17 42  1  0
 19 43  1  1
 20 44  1  0
 20 45  1  0
 21 46  1  0
 21 47  1  0
 22 48  1  0
 22 49  1  0
 23 50  1  0
 24 51  1  0
 24 52  1  0
 25 53  1  0
 25 54  1  0
 27 55  1  0
 28 56  1  0
 29 57  1  0
 30 58  1  0
M  END
>  <UniqueID>  (47) 
24

>  <SMILES>  (47) 
O=C(c1cc2cc(F)ccc2[nH]1)N1C[C@@]2(CCN([C@H]3CCCNC3)C2)c2ccccc21

>  <Energy>  (47) 
130.46795265963146

>  <Genealogy>  (47) 
O=C(c1cc2cc(F)ccc2[nH]1)N1C[C@@]2(CCN([C@H]3CCCNC3)C2)c2ccccc21 (chirality)
O=C(c1cc2cc(F)ccc2[nH]1)N1C[C@@]2(CCN([C@H]3CCCNC3)C2)c2ccccc21 (3D coordinates assigned)
O=C(c1cc2cc(F)ccc2[nH]1)N1C[C@@]2(CCN([C@H]3CCCNC3)C2)c2ccccc21 (nonaromatic ring conformer: 130.46795265963146 kcal/mol)

>  <smiles>  (47) 
O=C(c1cc2cc(F)ccc2[nH]1)N1C[C@@]2(CCN(C3CCCNC3)C2)c2ccccc21

>  <score_type>  (47) 
oracle

>  <origin>  (47) 
autodockgpu

>  <m_score__min__energy>  (47) 
-8.3300000000000001

>  <m_primary>  (47) 
energy

>  <meeko>  (47) 
{"free_energy": -8.3, "intermolecular_energy": -9.19, "internal_energy": -1.18, "cluster_size": 15, "cluster_id": 1, "rank_in_cluster": 5}

>  <energy>  (47) 
-8.3

>  <cluster_rmsd>  (47) 
0.98

>  <rmsd>  (47) 
272.47

>  <cluster>  (47) 
1

$$$$
ABNVVKAVWJYHCL-DFBJGRDBNA-N
     RDKit          3D

 58 63  0  0  0  0  0  0  0  0999 V2000
  141.1020   71.4980  221.2080 O   0  0  0  0  0  0  0  0  0  0  0  0
  140.5000   72.0030  222.1940 C   0  0  0  0  0  0  0  0  0  0  0  0
  140.3300   71.2070  223.4200 C   0  0  0  0  0  0  0  0  0  0  0  0
  140.7020   71.6240  224.6990 C   0  0  0  0  0  0  0  0  0  0  0  0
  140.3970   70.5620  225.5210 C   0  0  0  0  0  0  0  0  0  0  0  0
  140.5550   70.4060  226.8960 C   0  0  0  0  0  0  0  0  0  0  0  0
  140.1590   69.1820  227.4680 C   0  0  0  0  0  0  0  0  0  0  0  0
  140.2940   68.9870  228.8030 F   0  0  0  0  0  0  0  0  0  0  0  0
  139.6250   68.1550  226.6580 C   0  0  0  0  0  0  0  0  0  0  0  0
  139.4800   68.3430  225.2710 C   0  0  0  0  0  0  0  0  0  0  0  0
  139.8760   69.5680  224.7340 C   0  0  0  0  0  0  0  0  0  0  0  0
  139.8330   69.9470  223.4470 N   0  0  0  0  0  0  0  0  0  0  0  0
  140.0140   73.3530  222.1160 N   0  0  0  0  0  0  0  0  0  0  0  0
  140.8500   74.4840  221.7030 C   0  0  0  0  0  0  0  0  0  0  0  0
  139.8650   75.6480  221.3510 C   0  0  2  0  0  0  0  0  0  0  0  0
  140.0310   76.1930  219.9370 C   0  0  0  0  0  0  0  0  0  0  0  0
  139.7440   77.6890  220.0500 C   0  0  0  0  0  0  0  0  0  0  0  0
  139.4980   78.0170  221.4720 N   0  0  0  0  0  0  0  0  0  0  0  0
  140.0850   79.3300  221.8630 C   0  0  1  0  0  0  0  0  0  0  0  0
  140.2310   79.4130  223.4110 C   0  0  0  0  0  0  0  0  0  0  0  0
  141.4040   80.2970  223.8370 C   0  0  0  0  0  0  0  0  0  0  0  0
  142.7320   79.7660  223.2580 C   0  0  0  0  0  0  0  0  0  0  0  0
  142.5700   79.0360  221.9850 N   0  0  0  0  0  0  0  0  0  0  0  0
  141.4660   79.5790  221.1820 C   0  0  0  0  0  0  0  0  0  0  0  0
  140.0400   76.8800  222.2330 C   0  0  0  0  0  0  0  0  0  0  0  0
  138.5130   75.0150  221.5510 C   0  0  0  0  0  0  0  0  0  0  0  0
  137.2450   75.5840  221.3770 C   0  0  0  0  0  0  0  0  0  0  0  0
  136.1120   74.8050  221.6550 C   0  0  0  0  0  0  0  0  0  0  0  0
  136.2570   73.4810  222.1080 C   0  0  0  0  0  0  0  0  0  0  0  0
  137.5350   72.9290  222.2800 C   0  0  0  0  0  0  0  0  0  0  0  0
  138.6500   73.7200  221.9810 C   0  0  0  0  0  0  0  0  0  0  0  0
  141.1425   72.5898  224.9874 H   0  0  0  0  0  0  0  0  0  0  0  0
  140.9753   71.2126  227.5147 H   0  0  0  0  0  0  0  0  0  0  0  0
  139.3205   67.2018  227.1148 H   0  0  0  0  0  0  0  0  0  0  0  0
  139.0675   67.5493  224.6307 H   0  0  0  0  0  0  0  0  0  0  0  0
  139.5220   69.3670  222.6370 H   0  0  0  0  0  0  0  0  0  0  0  0
  141.5179   74.7845  222.5238 H   0  0  0  0  0  0  0  0  0  0  0  0
  141.4843   74.2214  220.8435 H   0  0  0  0  0  0  0  0  0  0  0  0
  141.0559   76.0228  219.5755 H   0  0  0  0  0  0  0  0  0  0  0  0
  139.3571   75.6972  219.2228 H   0  0  0  0  0  0  0  0  0  0  0  0
  140.6086   78.2609  219.6821 H   0  0  0  0  0  0  0  0  0  0  0  0
  138.8617   77.9488  219.4466 H   0  0  0  0  0  0  0  0  0  0  0  0
  139.3971   80.1151  221.5160 H   0  0  0  0  0  0  0  0  0  0  0  0
  139.3037   79.8288  223.8319 H   0  0  0  0  0  0  0  0  0  0  0  0
  140.4222   78.3967  223.7858 H   0  0  0  0  0  0  0  0  0  0  0  0
  141.2352   81.3205  223.4710 H   0  0  0  0  0  0  0  0  0  0  0  0
  141.4706   80.2878  224.9350 H   0  0  0  0  0  0  0  0  0  0  0  0
  143.4032   80.6204  223.0863 H   0  0  0  0  0  0  0  0  0  0  0  0
  143.1416   79.0537  223.9893 H   0  0  0  0  0  0  0  0  0  0  0  0
  142.3710   78.0280  222.1880 H   0  0  0  0  0  0  0  0  0  0  0  0
  141.6132   80.6621  221.0587 H   0  0  0  0  0  0  0  0  0  0  0  0
  141.4661   79.0693  220.2072 H   0  0  0  0  0  0  0  0  0  0  0  0
  141.1056   77.0425  222.4523 H   0  0  0  0  0  0  0  0  0  0  0  0
  139.5190   76.7592  223.1942 H   0  0  0  0  0  0  0  0  0  0  0  0
  137.1396   76.6221  221.0289 H   0  0  0  0  0  0  0  0  0  0  0  0
  135.1070   75.2307  221.5184 H   0  0  0  0  0  0  0  0  0  0  0  0
  135.3648   72.8764  222.3281 H   0  0  0  0  0  0  0  0  0  0  0  0
  137.6580   71.8975  222.6418 H   0  0  0  0  0  0  0  0  0  0  0  0
  1  2  2  0
  2  3  1  0
  3  4  2  0
  4  5  1  0
  5  6  2  0
  6  7  1  0
  7  8  1  0
  7  9  2  0
  9 10  1  0
 10 11  2  0
 11 12  1  0
  2 13  1  0
 13 14  1  0
 15 14  1  1
 15 16  1  0
 16 17  1  0
 17 18  1  0
 18 19  1  0
 19 20  1  0
 20 21  1  0
 21 22  1  0
 22 23  1  0
 23 24  1  0
 18 25  1  0
 15 26  1  0
 26 27  2  0
 27 28  1  0
 28 29  2  0
 29 30  1  0
 30 31  2  0
 12  3  1  0
 31 13  1  0
 11  5  1  0
 25 15  1  0
 31 26  1  0
 24 19  1  0
  4 32  1  0
  6 33  1  0
  9 34  1  0
 10 35  1  0
 12 36  1  0
 14 37  1  0
 14 38  1  0
 16 39  1  0
 16 40  1  0
 17 41  1  0
 17 42  1  0
 19 43  1  6
 20 44  1  0
 20 45  1  0
 21 46  1  0
 21 47  1  0
 22 48  1  0
 22 49  1  0
 23 50  1  0
 24 51  1  0
 24 52  1  0
 25 53  1  0
 25 54  1  0
 27 55  1  0
 28 56  1  0
 29 57  1  0
 30 58  1  0
M  END
>  <UniqueID>  (48) 
24

>  <SMILES>  (48) 
O=C(c1cc2cc(F)ccc2[nH]1)N1C[C@@]2(CCN([C@H]3CCCNC3)C2)c2ccccc21

>  <Energy>  (48) 
130.46795265963146

>  <Genealogy>  (48) 
O=C(c1cc2cc(F)ccc2[nH]1)N1C[C@@]2(CCN([C@H]3CCCNC3)C2)c2ccccc21 (chirality)
O=C(c1cc2cc(F)ccc2[nH]1)N1C[C@@]2(CCN([C@H]3CCCNC3)C2)c2ccccc21 (3D coordinates assigned)
O=C(c1cc2cc(F)ccc2[nH]1)N1C[C@@]2(CCN([C@H]3CCCNC3)C2)c2ccccc21 (nonaromatic ring conformer: 130.46795265963146 kcal/mol)

>  <smiles>  (48) 
O=C(c1cc2cc(F)ccc2[nH]1)N1C[C@@]2(CCN(C3CCCNC3)C2)c2ccccc21

>  <score_type>  (48) 
oracle

>  <origin>  (48) 
autodockgpu

>  <m_score__min__energy>  (48) 
-8.3300000000000001

>  <m_primary>  (48) 
energy

>  <meeko>  (48) 
{"free_energy": -8.02, "intermolecular_energy": -8.92, "internal_energy": -1.27, "cluster_size": 5, "cluster_id": 2, "rank_in_cluster": 4}

>  <energy>  (48) 
-8.29

>  <cluster_rmsd>  (48) 
0.98

>  <rmsd>  (48) 
272.49

>  <cluster>  (48) 
1

$$$$
ABNVVKAVWJYHCL-DFBJGRDBNA-N
     RDKit          3D

 58 63  0  0  0  0  0  0  0  0999 V2000
  140.8460   71.9600  221.0400 O   0  0  0  0  0  0  0  0  0  0  0  0
  140.3510   72.4370  222.0970 C   0  0  0  0  0  0  0  0  0  0  0  0
  140.2190   71.5760  223.2840 C   0  0  0  0  0  0  0  0  0  0  0  0
  140.6900   71.8960  224.5580 C   0  0  0  0  0  0  0  0  0  0  0  0
  140.3840   70.8010  225.3350 C   0  0  0  0  0  0  0  0  0  0  0  0
  140.6190   70.5540  226.6860 C   0  0  0  0  0  0  0  0  0  0  0  0
  140.1990   69.3170  227.2100 C   0  0  0  0  0  0  0  0  0  0  0  0
  140.4070   69.0340  228.5190 F   0  0  0  0  0  0  0  0  0  0  0  0
  139.5650   68.3670  226.3780 C   0  0  0  0  0  0  0  0  0  0  0  0
  139.3440   68.6460  225.0160 C   0  0  0  0  0  0  0  0  0  0  0  0
  139.7660   69.8820  224.5280 C   0  0  0  0  0  0  0  0  0  0  0  0
  139.6620   70.3410  223.2700 N   0  0  0  0  0  0  0  0  0  0  0  0
  139.9500   73.8150  222.1370 N   0  0  0  0  0  0  0  0  0  0  0  0
  140.8860   74.9290  221.9510 C   0  0  0  0  0  0  0  0  0  0  0  0
  140.0080   76.1890  221.6460 C   0  0  2  0  0  0  0  0  0  0  0  0
  140.3540   76.8820  220.3330 C   0  0  0  0  0  0  0  0  0  0  0  0
  140.1380   78.3700  220.5990 C   0  0  0  0  0  0  0  0  0  0  0  0
  139.7590   78.5470  222.0180 N   0  0  0  0  0  0  0  0  0  0  0  0
  140.3710   79.7640  222.6230 C   0  0  1  0  0  0  0  0  0  0  0  0
  141.3010   79.3660  223.8070 C   0  0  0  0  0  0  0  0  0  0  0  0
  142.4590   80.3480  223.9910 C   0  0  0  0  0  0  0  0  0  0  0  0
  143.3190   80.4330  222.7120 C   0  0  0  0  0  0  0  0  0  0  0  0
  142.5640   80.1520  221.4760 N   0  0  0  0  0  0  0  0  0  0  0  0
  141.1680   80.6000  221.5750 C   0  0  0  0  0  0  0  0  0  0  0  0
  140.1540   77.2960  222.6860 C   0  0  0  0  0  0  0  0  0  0  0  0
  138.6100   75.6280  221.6320 C   0  0  0  0  0  0  0  0  0  0  0  0
  137.4010   76.2970  221.4030 C   0  0  0  0  0  0  0  0  0  0  0  0
  136.2040   75.5680  221.4700 C   0  0  0  0  0  0  0  0  0  0  0  0
  136.2280   74.1940  221.7700 C   0  0  0  0  0  0  0  0  0  0  0  0
  137.4480   73.5420  222.0000 C   0  0  0  0  0  0  0  0  0  0  0  0
  138.6300   74.2860  221.9130 C   0  0  0  0  0  0  0  0  0  0  0  0
  141.1954   72.8209  224.8728 H   0  0  0  0  0  0  0  0  0  0  0  0
  141.1163   71.3011  227.3221 H   0  0  0  0  0  0  0  0  0  0  0  0
  139.2419   67.4028  226.7975 H   0  0  0  0  0  0  0  0  0  0  0  0
  138.8543   67.9128  224.3582 H   0  0  0  0  0  0  0  0  0  0  0  0
  139.2730   69.8260  222.4490 H   0  0  0  0  0  0  0  0  0  0  0  0
  141.4767   75.0878  222.8653 H   0  0  0  0  0  0  0  0  0  0  0  0
  141.5944   74.7261  221.1343 H   0  0  0  0  0  0  0  0  0  0  0  0
  141.4010   76.6870  220.0577 H   0  0  0  0  0  0  0  0  0  0  0  0
  139.7349   76.5184  219.4996 H   0  0  0  0  0  0  0  0  0  0  0  0
  141.0668   78.9218  220.3922 H   0  0  0  0  0  0  0  0  0  0  0  0
  139.3407   78.7559  219.9467 H   0  0  0  0  0  0  0  0  0  0  0  0
  139.5506   80.3944  222.9965 H   0  0  0  0  0  0  0  0  0  0  0  0
  140.7061   79.3433  224.7320 H   0  0  0  0  0  0  0  0  0  0  0  0
  141.7298   78.3786  223.5809 H   0  0  0  0  0  0  0  0  0  0  0  0
  142.0530   81.3447  224.2187 H   0  0  0  0  0  0  0  0  0  0  0  0
  143.0926   79.9927  224.8170 H   0  0  0  0  0  0  0  0  0  0  0  0
  143.7382   81.4475  222.6410 H   0  0  0  0  0  0  0  0  0  0  0  0
  144.1008   79.6637  222.7958 H   0  0  0  0  0  0  0  0  0  0  0  0
  142.5720   79.1210  221.2930 H   0  0  0  0  0  0  0  0  0  0  0  0
  141.1529   81.6580  221.8758 H   0  0  0  0  0  0  0  0  0  0  0  0
  140.6922   80.4647  220.5925 H   0  0  0  0  0  0  0  0  0  0  0  0
  141.1971   77.3607  223.0292 H   0  0  0  0  0  0  0  0  0  0  0  0
  139.5276   77.0997  223.5687 H   0  0  0  0  0  0  0  0  0  0  0  0
  137.3901   77.3731  221.1750 H   0  0  0  0  0  0  0  0  0  0  0  0
  135.2438   76.0726  221.2873 H   0  0  0  0  0  0  0  0  0  0  0  0
  135.2860   73.6287  221.8244 H   0  0  0  0  0  0  0  0  0  0  0  0
  137.4753   72.4696  222.2434 H   0  0  0  0  0  0  0  0  0  0  0  0
  1  2  2  0
  2  3  1  0
  3  4  2  0
  4  5  1  0
  5  6  2  0
  6  7  1  0
  7  8  1  0
  7  9  2  0
  9 10  1  0
 10 11  2  0
 11 12  1  0
  2 13  1  0
 13 14  1  0
 15 14  1  1
 15 16  1  0
 16 17  1  0
 17 18  1  0
 18 19  1  0
 19 20  1  0
 20 21  1  0
 21 22  1  0
 22 23  1  0
 23 24  1  0
 18 25  1  0
 15 26  1  0
 26 27  2  0
 27 28  1  0
 28 29  2  0
 29 30  1  0
 30 31  2  0
 12  3  1  0
 31 13  1  0
 11  5  1  0
 25 15  1  0
 31 26  1  0
 24 19  1  0
  4 32  1  0
  6 33  1  0
  9 34  1  0
 10 35  1  0
 12 36  1  0
 14 37  1  0
 14 38  1  0
 16 39  1  0
 16 40  1  0
 17 41  1  0
 17 42  1  0
 19 43  1  1
 20 44  1  0
 20 45  1  0
 21 46  1  0
 21 47  1  0
 22 48  1  0
 22 49  1  0
 23 50  1  0
 24 51  1  0
 24 52  1  0
 25 53  1  0
 25 54  1  0
 27 55  1  0
 28 56  1  0
 29 57  1  0
 30 58  1  0
M  END
>  <UniqueID>  (49) 
24

>  <SMILES>  (49) 
O=C(c1cc2cc(F)ccc2[nH]1)N1C[C@@]2(CCN([C@H]3CCCNC3)C2)c2ccccc21

>  <Energy>  (49) 
130.46795265963146

>  <Genealogy>  (49) 
O=C(c1cc2cc(F)ccc2[nH]1)N1C[C@@]2(CCN([C@H]3CCCNC3)C2)c2ccccc21 (chirality)
O=C(c1cc2cc(F)ccc2[nH]1)N1C[C@@]2(CCN([C@H]3CCCNC3)C2)c2ccccc21 (3D coordinates assigned)
O=C(c1cc2cc(F)ccc2[nH]1)N1C[C@@]2(CCN([C@H]3CCCNC3)C2)c2ccccc21 (nonaromatic ring conformer: 130.46795265963146 kcal/mol)

>  <smiles>  (49) 
O=C(c1cc2cc(F)ccc2[nH]1)N1C[C@@]2(CCN(C3CCCNC3)C2)c2ccccc21

>  <score_type>  (49) 
oracle

>  <origin>  (49) 
autodockgpu

>  <m_score__min__energy>  (49) 
-8.3300000000000001

>  <m_primary>  (49) 
energy

>  <meeko>  (49) 
{"free_energy": -8.03, "intermolecular_energy": -8.93, "internal_energy": -1.25, "cluster_size": 5, "cluster_id": 2, "rank_in_cluster": 3}

>  <energy>  (49) 
-8.29

>  <cluster_rmsd>  (49) 
0.98

>  <rmsd>  (49) 
272.48

>  <cluster>  (49) 
1

$$$$
ABNVVKAVWJYHCL-DFBJGRDBNA-N
     RDKit          3D

 58 63  0  0  0  0  0  0  0  0999 V2000
  139.4500   70.9290  221.2090 O   0  0  0  0  0  0  0  0  0  0  0  0
  139.6380   71.6180  222.2480 C   0  0  0  0  0  0  0  0  0  0  0  0
  139.8660   70.9380  223.5330 C   0  0  0  0  0  0  0  0  0  0  0  0
  140.4860   71.5140  224.6420 C   0  0  0  0  0  0  0  0  0  0  0  0
  140.5150   70.5170  225.5920 C   0  0  0  0  0  0  0  0  0  0  0  0
  141.0200   70.5160  226.8900 C   0  0  0  0  0  0  0  0  0  0  0  0
  140.9200   69.3240  227.6320 C   0  0  0  0  0  0  0  0  0  0  0  0
  141.3970   69.2780  228.9000 F   0  0  0  0  0  0  0  0  0  0  0  0
  140.3280   68.1750  227.0620 C   0  0  0  0  0  0  0  0  0  0  0  0
  139.8300   68.2080  225.7460 C   0  0  0  0  0  0  0  0  0  0  0  0
  139.9380   69.4040  225.0380 C   0  0  0  0  0  0  0  0  0  0  0  0
  139.5400   69.6450  223.7780 N   0  0  0  0  0  0  0  0  0  0  0  0
  139.6550   73.0510  222.1590 N   0  0  0  0  0  0  0  0  0  0  0  0
  140.8480   73.8180  221.7830 C   0  0  0  0  0  0  0  0  0  0  0  0
  140.3420   75.2490  221.3980 C   0  0  2  0  0  0  0  0  0  0  0  0
  140.7410   75.6890  219.9940 C   0  0  0  0  0  0  0  0  0  0  0  0
  140.9880   77.1920  220.1040 C   0  0  0  0  0  0  0  0  0  0  0  0
  140.8180   77.5980  221.5160 N   0  0  0  0  0  0  0  0  0  0  0  0
  141.8100   78.6290  221.9350 C   0  0  1  0  0  0  0  0  0  0  0  0
  141.5200   79.9780  221.2120 C   0  0  0  0  0  0  0  0  0  0  0  0
  141.9410   81.1870  222.0480 C   0  0  0  0  0  0  0  0  0  0  0  0
  141.2060   81.2030  223.4050 C   0  0  0  0  0  0  0  0  0  0  0  0
  140.8350   79.8580  223.8880 N   0  0  0  0  0  0  0  0  0  0  0  0
  141.8140   78.8420  223.4800 C   0  0  0  0  0  0  0  0  0  0  0  0
  140.9020   76.3510  222.2920 C   0  0  0  0  0  0  0  0  0  0  0  0
  138.8480   75.1270  221.5430 C   0  0  0  0  0  0  0  0  0  0  0  0
  137.8650   76.1000  221.3240 C   0  0  0  0  0  0  0  0  0  0  0  0
  136.5220   75.7660  221.5550 C   0  0  0  0  0  0  0  0  0  0  0  0
  136.1800   74.4790  222.0080 C   0  0  0  0  0  0  0  0  0  0  0  0
  137.1790   73.5180  222.2260 C   0  0  0  0  0  0  0  0  0  0  0  0
  138.5100   73.8690  221.9730 C   0  0  0  0  0  0  0  0  0  0  0  0
  140.8685   72.5410  224.7371 H   0  0  0  0  0  0  0  0  0  0  0  0
  141.4816   71.4167  227.3209 H   0  0  0  0  0  0  0  0  0  0  0  0
  140.2558   67.2485  227.6505 H   0  0  0  0  0  0  0  0  0  0  0  0
  139.3702   67.3184  225.2907 H   0  0  0  0  0  0  0  0  0  0  0  0
  139.1110   68.9600  223.1180 H   0  0  0  0  0  0  0  0  0  0  0  0
  141.5473   73.8756  222.6302 H   0  0  0  0  0  0  0  0  0  0  0  0
  141.3837   73.3434  220.9477 H   0  0  0  0  0  0  0  0  0  0  0  0
  141.6556   75.1698  219.6718 H   0  0  0  0  0  0  0  0  0  0  0  0
  139.9650   75.4519  219.2513 H   0  0  0  0  0  0  0  0  0  0  0  0
  142.0108   77.4243  219.7726 H   0  0  0  0  0  0  0  0  0  0  0  0
  140.2742   77.7368  219.4687 H   0  0  0  0  0  0  0  0  0  0  0  0
  142.8068   78.2639  221.6468 H   0  0  0  0  0  0  0  0  0  0  0  0
  142.0729   79.9957  220.2612 H   0  0  0  0  0  0  0  0  0  0  0  0
  140.4345   80.0447  221.0470 H   0  0  0  0  0  0  0  0  0  0  0  0
  143.0254   81.1410  222.2266 H   0  0  0  0  0  0  0  0  0  0  0  0
  141.6801   82.1026  221.4969 H   0  0  0  0  0  0  0  0  0  0  0  0
  141.8632   81.6724  224.1518 H   0  0  0  0  0  0  0  0  0  0  0  0
  140.2714   81.7650  223.2610 H   0  0  0  0  0  0  0  0  0  0  0  0
  139.8990   79.5970  223.4980 H   0  0  0  0  0  0  0  0  0  0  0  0
  142.8172   79.1669  223.7930 H   0  0  0  0  0  0  0  0  0  0  0  0
  141.5421   77.8900  223.9594 H   0  0  0  0  0  0  0  0  0  0  0  0
  141.9486   76.1346  222.5523 H   0  0  0  0  0  0  0  0  0  0  0  0
  140.3365   76.4276  223.2324 H   0  0  0  0  0  0  0  0  0  0  0  0
  138.1405   77.1070  220.9775 H   0  0  0  0  0  0  0  0  0  0  0  0
  135.7337   76.5133  221.3812 H   0  0  0  0  0  0  0  0  0  0  0  0
  135.1257   74.2250  222.1920 H   0  0  0  0  0  0  0  0  0  0  0  0
  136.9218   72.5115  222.5876 H   0  0  0  0  0  0  0  0  0  0  0  0
  1  2  2  0
  2  3  1  0
  3  4  2  0
  4  5  1  0
  5  6  2  0
  6  7  1  0
  7  8  1  0
  7  9  2  0
  9 10  1  0
 10 11  2  0
 11 12  1  0
  2 13  1  0
 13 14  1  0
 15 14  1  1
 15 16  1  0
 16 17  1  0
 17 18  1  0
 18 19  1  0
 19 20  1  0
 20 21  1  0
 21 22  1  0
 22 23  1  0
 23 24  1  0
 18 25  1  0
 15 26  1  0
 26 27  2  0
 27 28  1  0
 28 29  2  0
 29 30  1  0
 30 31  2  0
 12  3  1  0
 31 13  1  0
 11  5  1  0
 25 15  1  0
 31 26  1  0
 24 19  1  0
  4 32  1  0
  6 33  1  0
  9 34  1  0
 10 35  1  0
 12 36  1  0
 14 37  1  0
 14 38  1  0
 16 39  1  0
 16 40  1  0
 17 41  1  0
 17 42  1  0
 19 43  1  6
 20 44  1  0
 20 45  1  0
 21 46  1  0
 21 47  1  0
 22 48  1  0
 22 49  1  0
 23 50  1  0
 24 51  1  0
 24 52  1  0
 25 53  1  0
 25 54  1  0
 27 55  1  0
 28 56  1  0
 29 57  1  0
 30 58  1  0
M  END
>  <UniqueID>  (50) 
24

>  <SMILES>  (50) 
O=C(c1cc2cc(F)ccc2[nH]1)N1C[C@@]2(CCN([C@H]3CCCNC3)C2)c2ccccc21

>  <Energy>  (50) 
130.46795265963146

>  <Genealogy>  (50) 
O=C(c1cc2cc(F)ccc2[nH]1)N1C[C@@]2(CCN([C@H]3CCCNC3)C2)c2ccccc21 (chirality)
O=C(c1cc2cc(F)ccc2[nH]1)N1C[C@@]2(CCN([C@H]3CCCNC3)C2)c2ccccc21 (3D coordinates assigned)
O=C(c1cc2cc(F)ccc2[nH]1)N1C[C@@]2(CCN([C@H]3CCCNC3)C2)c2ccccc21 (nonaromatic ring conformer: 130.46795265963146 kcal/mol)

>  <smiles>  (50) 
O=C(c1cc2cc(F)ccc2[nH]1)N1C[C@@]2(CCN(C3CCCNC3)C2)c2ccccc21

>  <score_type>  (50) 
oracle

>  <origin>  (50) 
autodockgpu

>  <m_score__min__energy>  (50) 
-8.3300000000000001

>  <m_primary>  (50) 
energy

>  <meeko>  (50) 
{"free_energy": -8.08, "intermolecular_energy": -8.97, "internal_energy": -1.17, "cluster_size": 5, "cluster_id": 2, "rank_in_cluster": 1}

>  <energy>  (50) 
-8.29

>  <cluster_rmsd>  (50) 
0.98

>  <rmsd>  (50) 
272.48

>  <cluster>  (50) 
1

$$$$
ABNVVKAVWJYHCL-DFBJGRDBNA-N
     RDKit          3D

 58 63  0  0  0  0  0  0  0  0999 V2000
  139.6700   76.0140  219.5730 O   0  0  0  0  0  0  0  0  0  0  0  0
  140.3030   75.9670  220.6630 C   0  0  0  0  0  0  0  0  0  0  0  0
  140.8050   77.2150  221.2600 C   0  0  0  0  0  0  0  0  0  0  0  0
  141.0720   77.3990  222.6170 C   0  0  0  0  0  0  0  0  0  0  0  0
  141.4810   78.7100  222.7250 C   0  0  0  0  0  0  0  0  0  0  0  0
  141.8710   79.4480  223.8390 C   0  0  0  0  0  0  0  0  0  0  0  0
  142.2280   80.7960  223.6410 C   0  0  0  0  0  0  0  0  0  0  0  0
  142.6150   81.5520  224.6970 F   0  0  0  0  0  0  0  0  0  0  0  0
  142.1820   81.3640  222.3490 C   0  0  0  0  0  0  0  0  0  0  0  0
  141.7810   80.5910  221.2430 C   0  0  0  0  0  0  0  0  0  0  0  0
  141.4390   79.2590  221.4700 C   0  0  0  0  0  0  0  0  0  0  0  0
  141.0230   78.3570  220.5650 N   0  0  0  0  0  0  0  0  0  0  0  0
  140.4990   74.7040  221.3180 N   0  0  0  0  0  0  0  0  0  0  0  0
  139.4160   73.9580  221.9650 C   0  0  0  0  0  0  0  0  0  0  0  0
  139.9490   72.4990  222.1620 C   0  0  2  0  0  0  0  0  0  0  0  0
  139.0700   71.4280  221.5270 C   0  0  0  0  0  0  0  0  0  0  0  0
  139.1610   70.2280  222.4670 C   0  0  0  0  0  0  0  0  0  0  0  0
  139.9880   70.6040  223.6350 N   0  0  0  0  0  0  0  0  0  0  0  0
  139.4700   70.0300  224.9090 C   0  0  1  0  0  0  0  0  0  0  0  0
  139.2800   68.4910  224.7650 C   0  0  0  0  0  0  0  0  0  0  0  0
  139.4700   67.7570  226.0940 C   0  0  0  0  0  0  0  0  0  0  0  0
  140.8790   68.0150  226.6690 C   0  0  0  0  0  0  0  0  0  0  0  0
  141.4480   69.3170  226.2700 N   0  0  0  0  0  0  0  0  0  0  0  0
  140.4080   70.3420  226.1150 C   0  0  0  0  0  0  0  0  0  0  0  0
  140.0290   72.0750  223.6260 C   0  0  0  0  0  0  0  0  0  0  0  0
  141.3140   72.5520  221.5280 C   0  0  0  0  0  0  0  0  0  0  0  0
  142.2600   71.5280  221.4010 C   0  0  0  0  0  0  0  0  0  0  0  0
  143.4920   71.8190  220.7940 C   0  0  0  0  0  0  0  0  0  0  0  0
  143.7630   73.1190  220.3320 C   0  0  0  0  0  0  0  0  0  0  0  0
  142.8040   74.1330  220.4710 C   0  0  0  0  0  0  0  0  0  0  0  0
  141.5770   73.8160  221.0660 C   0  0  0  0  0  0  0  0  0  0  0  0
  140.9767   76.6584  223.4248 H   0  0  0  0  0  0  0  0  0  0  0  0
  141.8994   78.9936  224.8404 H   0  0  0  0  0  0  0  0  0  0  0  0
  142.4616   82.4182  222.2058 H   0  0  0  0  0  0  0  0  0  0  0  0
  141.7389   81.0240  220.2327 H   0  0  0  0  0  0  0  0  0  0  0  0
  140.8610   78.5250  219.5470 H   0  0  0  0  0  0  0  0  0  0  0  0
  139.1702   74.4090  222.9377 H   0  0  0  0  0  0  0  0  0  0  0  0
  138.4999   73.9717  221.3563 H   0  0  0  0  0  0  0  0  0  0  0  0
  138.0304   71.7787  221.4483 H   0  0  0  0  0  0  0  0  0  0  0  0
  139.3978   71.1778  220.5072 H   0  0  0  0  0  0  0  0  0  0  0  0
  138.1530   69.9434  222.8030 H   0  0  0  0  0  0  0  0  0  0  0  0
  139.6166   69.3746  221.9434 H   0  0  0  0  0  0  0  0  0  0  0  0
  138.4983   70.5034  225.1134 H   0  0  0  0  0  0  0  0  0  0  0  0
  138.2638   68.2930  224.3934 H   0  0  0  0  0  0  0  0  0  0  0  0
  140.0426   68.1213  224.0637 H   0  0  0  0  0  0  0  0  0  0  0  0
  138.7170   68.1126  226.8127 H   0  0  0  0  0  0  0  0  0  0  0  0
  139.3541   66.6772  225.9189 H   0  0  0  0  0  0  0  0  0  0  0  0
  140.8183   67.9833  227.7669 H   0  0  0  0  0  0  0  0  0  0  0  0
  141.5412   67.2350  226.2653 H   0  0  0  0  0  0  0  0  0  0  0  0
  141.9500   69.2090  225.3580 H   0  0  0  0  0  0  0  0  0  0  0  0
  139.8059   70.3816  227.0347 H   0  0  0  0  0  0  0  0  0  0  0  0
  140.9013   71.3070  225.9267 H   0  0  0  0  0  0  0  0  0  0  0  0
  139.1755   72.4829  224.1875 H   0  0  0  0  0  0  0  0  0  0  0  0
  140.9471   72.4514  224.1007 H   0  0  0  0  0  0  0  0  0  0  0  0
  142.0422   70.5148  221.7697 H   0  0  0  0  0  0  0  0  0  0  0  0
  144.2475   71.0277  220.6795 H   0  0  0  0  0  0  0  0  0  0  0  0
  144.7311   73.3417  219.8596 H   0  0  0  0  0  0  0  0  0  0  0  0
  143.0114   75.1548  220.1203 H   0  0  0  0  0  0  0  0  0  0  0  0
  1  2  2  0
  2  3  1  0
  3  4  2  0
  4  5  1  0
  5  6  2  0
  6  7  1  0
  7  8  1  0
  7  9  2  0
  9 10  1  0
 10 11  2  0
 11 12  1  0
  2 13  1  0
 13 14  1  0
 15 14  1  1
 15 16  1  0
 16 17  1  0
 17 18  1  0
 18 19  1  0
 19 20  1  0
 20 21  1  0
 21 22  1  0
 22 23  1  0
 23 24  1  0
 18 25  1  0
 15 26  1  0
 26 27  2  0
 27 28  1  0
 28 29  2  0
 29 30  1  0
 30 31  2  0
 12  3  1  0
 31 13  1  0
 11  5  1  0
 25 15  1  0
 31 26  1  0
 24 19  1  0
  4 32  1  0
  6 33  1  0
  9 34  1  0
 10 35  1  0
 12 36  1  0
 14 37  1  0
 14 38  1  0
 16 39  1  0
 16 40  1  0
 17 41  1  0
 17 42  1  0
 19 43  1  1
 20 44  1  0
 20 45  1  0
 21 46  1  0
 21 47  1  0
 22 48  1  0
 22 49  1  0
 23 50  1  0
 24 51  1  0
 24 52  1  0
 25 53  1  0
 25 54  1  0
 27 55  1  0
 28 56  1  0
 29 57  1  0
 30 58  1  0
M  END
>  <UniqueID>  (51) 
24

>  <SMILES>  (51) 
O=C(c1cc2cc(F)ccc2[nH]1)N1C[C@@]2(CCN([C@H]3CCCNC3)C2)c2ccccc21

>  <Energy>  (51) 
130.46795265963146

>  <Genealogy>  (51) 
O=C(c1cc2cc(F)ccc2[nH]1)N1C[C@@]2(CCN([C@H]3CCCNC3)C2)c2ccccc21 (chirality)
O=C(c1cc2cc(F)ccc2[nH]1)N1C[C@@]2(CCN([C@H]3CCCNC3)C2)c2ccccc21 (3D coordinates assigned)
O=C(c1cc2cc(F)ccc2[nH]1)N1C[C@@]2(CCN([C@H]3CCCNC3)C2)c2ccccc21 (nonaromatic ring conformer: 130.46795265963146 kcal/mol)

>  <smiles>  (51) 
O=C(c1cc2cc(F)ccc2[nH]1)N1C[C@@]2(CCN(C3CCCNC3)C2)c2ccccc21

>  <score_type>  (51) 
oracle

>  <origin>  (51) 
autodockgpu

>  <m_score__min__energy>  (51) 
-8.3300000000000001

>  <m_primary>  (51) 
energy

>  <meeko>  (51) 
{"free_energy": -8.29, "intermolecular_energy": -9.19, "internal_energy": -1.18, "cluster_size": 15, "cluster_id": 1, "rank_in_cluster": 10}

>  <energy>  (51) 
-8.28

>  <cluster_rmsd>  (51) 
0.98

>  <rmsd>  (51) 
272.47

>  <cluster>  (51) 
1

$$$$
ABNVVKAVWJYHCL-DFBJGRDBNA-N
     RDKit          3D

 58 63  0  0  0  0  0  0  0  0999 V2000
  139.6840   76.0210  219.5650 O   0  0  0  0  0  0  0  0  0  0  0  0
  140.3090   75.9750  220.6590 C   0  0  0  0  0  0  0  0  0  0  0  0
  140.8040   77.2240  221.2600 C   0  0  0  0  0  0  0  0  0  0  0  0
  141.0620   77.4080  222.6180 C   0  0  0  0  0  0  0  0  0  0  0  0
  141.4660   78.7200  222.7290 C   0  0  0  0  0  0  0  0  0  0  0  0
  141.8470   79.4600  223.8460 C   0  0  0  0  0  0  0  0  0  0  0  0
  142.2010   80.8080  223.6510 C   0  0  0  0  0  0  0  0  0  0  0  0
  142.5790   81.5660  224.7100 F   0  0  0  0  0  0  0  0  0  0  0  0
  142.1620   81.3770  222.3590 C   0  0  0  0  0  0  0  0  0  0  0  0
  141.7700   80.6030  221.2500 C   0  0  0  0  0  0  0  0  0  0  0  0
  141.4300   79.2700  221.4740 C   0  0  0  0  0  0  0  0  0  0  0  0
  141.0230   78.3680  220.5660 N   0  0  0  0  0  0  0  0  0  0  0  0
  140.5050   74.7130  221.3140 N   0  0  0  0  0  0  0  0  0  0  0  0
  139.4210   73.9670  221.9610 C   0  0  0  0  0  0  0  0  0  0  0  0
  139.9540   72.5090  222.1600 C   0  0  2  0  0  0  0  0  0  0  0  0
  139.0750   71.4370  221.5240 C   0  0  0  0  0  0  0  0  0  0  0  0
  139.1650   70.2380  222.4660 C   0  0  0  0  0  0  0  0  0  0  0  0
  139.9920   70.6140  223.6330 N   0  0  0  0  0  0  0  0  0  0  0  0
  139.4730   70.0410  224.9070 C   0  0  1  0  0  0  0  0  0  0  0  0
  139.2870   68.5010  224.7660 C   0  0  0  0  0  0  0  0  0  0  0  0
  139.4770   67.7690  226.0960 C   0  0  0  0  0  0  0  0  0  0  0  0
  140.8840   68.0310  226.6730 C   0  0  0  0  0  0  0  0  0  0  0  0
  141.4510   69.3330  226.2730 N   0  0  0  0  0  0  0  0  0  0  0  0
  140.4090   70.3560  226.1150 C   0  0  0  0  0  0  0  0  0  0  0  0
  140.0340   72.0850  223.6230 C   0  0  0  0  0  0  0  0  0  0  0  0
  141.3190   72.5610  221.5260 C   0  0  0  0  0  0  0  0  0  0  0  0
  142.2660   71.5360  221.4010 C   0  0  0  0  0  0  0  0  0  0  0  0
  143.4970   71.8260  220.7940 C   0  0  0  0  0  0  0  0  0  0  0  0
  143.7690   73.1260  220.3310 C   0  0  0  0  0  0  0  0  0  0  0  0
  142.8100   74.1410  220.4690 C   0  0  0  0  0  0  0  0  0  0  0  0
  141.5830   73.8240  221.0630 C   0  0  0  0  0  0  0  0  0  0  0  0
  140.9642   76.6667  223.4248 H   0  0  0  0  0  0  0  0  0  0  0  0
  141.8704   79.0056  224.8475 H   0  0  0  0  0  0  0  0  0  0  0  0
  142.4397   82.4320  222.2181 H   0  0  0  0  0  0  0  0  0  0  0  0
  141.7333   81.0363  220.2396 H   0  0  0  0  0  0  0  0  0  0  0  0
  140.8670   78.5360  219.5480 H   0  0  0  0  0  0  0  0  0  0  0  0
  139.1741   74.4189  222.9330 H   0  0  0  0  0  0  0  0  0  0  0  0
  138.5055   73.9798  221.3514 H   0  0  0  0  0  0  0  0  0  0  0  0
  138.0355   71.7877  221.4435 H   0  0  0  0  0  0  0  0  0  0  0  0
  139.4037   71.1859  220.5047 H   0  0  0  0  0  0  0  0  0  0  0  0
  138.1567   69.9549  222.8025 H   0  0  0  0  0  0  0  0  0  0  0  0
  139.6199   69.3836  221.9434 H   0  0  0  0  0  0  0  0  0  0  0  0
  138.5001   70.5133  225.1080 H   0  0  0  0  0  0  0  0  0  0  0  0
  138.2717   68.3000  224.3935 H   0  0  0  0  0  0  0  0  0  0  0  0
  140.0519   68.1323  224.0667 H   0  0  0  0  0  0  0  0  0  0  0  0
  138.7220   68.1234  226.8132 H   0  0  0  0  0  0  0  0  0  0  0  0
  139.3643   66.6888  225.9217 H   0  0  0  0  0  0  0  0  0  0  0  0
  140.8212   68.0011  227.7708 H   0  0  0  0  0  0  0  0  0  0  0  0
  141.5486   67.2517  226.2717 H   0  0  0  0  0  0  0  0  0  0  0  0
  141.9550   69.2250  225.3610 H   0  0  0  0  0  0  0  0  0  0  0  0
  139.8052   70.3953  227.0336 H   0  0  0  0  0  0  0  0  0  0  0  0
  140.9008   71.3217  225.9264 H   0  0  0  0  0  0  0  0  0  0  0  0
  139.1810   72.4936  224.1846 H   0  0  0  0  0  0  0  0  0  0  0  0
  140.9528   72.4606  224.0970 H   0  0  0  0  0  0  0  0  0  0  0  0
  142.0484   70.5234  221.7717 H   0  0  0  0  0  0  0  0  0  0  0  0
  144.2520   71.0342  220.6798 H   0  0  0  0  0  0  0  0  0  0  0  0
  144.7374   73.3479  219.8588 H   0  0  0  0  0  0  0  0  0  0  0  0
  143.0179   75.1627  220.1183 H   0  0  0  0  0  0  0  0  0  0  0  0
  1  2  2  0
  2  3  1  0
  3  4  2  0
  4  5  1  0
  5  6  2  0
  6  7  1  0
  7  8  1  0
  7  9  2  0
  9 10  1  0
 10 11  2  0
 11 12  1  0
  2 13  1  0
 13 14  1  0
 15 14  1  1
 15 16  1  0
 16 17  1  0
 17 18  1  0
 18 19  1  0
 19 20  1  0
 20 21  1  0
 21 22  1  0
 22 23  1  0
 23 24  1  0
 18 25  1  0
 15 26  1  0
 26 27  2  0
 27 28  1  0
 28 29  2  0
 29 30  1  0
 30 31  2  0
 12  3  1  0
 31 13  1  0
 11  5  1  0
 25 15  1  0
 31 26  1  0
 24 19  1  0
  4 32  1  0
  6 33  1  0
  9 34  1  0
 10 35  1  0
 12 36  1  0
 14 37  1  0
 14 38  1  0
 16 39  1  0
 16 40  1  0
 17 41  1  0
 17 42  1  0
 19 43  1  1
 20 44  1  0
 20 45  1  0
 21 46  1  0
 21 47  1  0
 22 48  1  0
 22 49  1  0
 23 50  1  0
 24 51  1  0
 24 52  1  0
 25 53  1  0
 25 54  1  0
 27 55  1  0
 28 56  1  0
 29 57  1  0
 30 58  1  0
M  END
>  <UniqueID>  (52) 
24

>  <SMILES>  (52) 
O=C(c1cc2cc(F)ccc2[nH]1)N1C[C@@]2(CCN([C@H]3CCCNC3)C2)c2ccccc21

>  <Energy>  (52) 
130.46795265963146

>  <Genealogy>  (52) 
O=C(c1cc2cc(F)ccc2[nH]1)N1C[C@@]2(CCN([C@H]3CCCNC3)C2)c2ccccc21 (chirality)
O=C(c1cc2cc(F)ccc2[nH]1)N1C[C@@]2(CCN([C@H]3CCCNC3)C2)c2ccccc21 (3D coordinates assigned)
O=C(c1cc2cc(F)ccc2[nH]1)N1C[C@@]2(CCN([C@H]3CCCNC3)C2)c2ccccc21 (nonaromatic ring conformer: 130.46795265963146 kcal/mol)

>  <smiles>  (52) 
O=C(c1cc2cc(F)ccc2[nH]1)N1C[C@@]2(CCN(C3CCCNC3)C2)c2ccccc21

>  <score_type>  (52) 
oracle

>  <origin>  (52) 
autodockgpu

>  <m_score__min__energy>  (52) 
-8.3300000000000001

>  <m_primary>  (52) 
energy

>  <meeko>  (52) 
{"free_energy": -8.29, "intermolecular_energy": -9.19, "internal_energy": -1.18, "cluster_size": 15, "cluster_id": 1, "rank_in_cluster": 8}

>  <energy>  (52) 
-8.28

>  <cluster_rmsd>  (52) 
0.97

>  <rmsd>  (52) 
272.45

>  <cluster>  (52) 
1

$$$$
ABNVVKAVWJYHCL-DFBJGRDBNA-N
     RDKit          3D

 58 63  0  0  0  0  0  0  0  0999 V2000
  139.9110   76.0200  219.2080 O   0  0  0  0  0  0  0  0  0  0  0  0
  140.4310   76.0320  220.3570 C   0  0  0  0  0  0  0  0  0  0  0  0
  140.7850   77.3200  220.9750 C   0  0  0  0  0  0  0  0  0  0  0  0
  140.5410   78.5710  220.4080 C   0  0  0  0  0  0  0  0  0  0  0  0
  141.0640   79.4770  221.3040 C   0  0  0  0  0  0  0  0  0  0  0  0
  141.1130   80.8680  221.2630 C   0  0  0  0  0  0  0  0  0  0  0  0
  141.7350   81.5350  222.3350 C   0  0  0  0  0  0  0  0  0  0  0  0
  141.8050   82.8890  222.3360 F   0  0  0  0  0  0  0  0  0  0  0  0
  142.2890   80.8010  223.4080 C   0  0  0  0  0  0  0  0  0  0  0  0
  142.2250   79.3950  223.4190 C   0  0  0  0  0  0  0  0  0  0  0  0
  141.5980   78.7630  222.3460 C   0  0  0  0  0  0  0  0  0  0  0  0
  141.4390   77.4440  222.1560 N   0  0  0  0  0  0  0  0  0  0  0  0
  140.6430   74.7950  221.0560 N   0  0  0  0  0  0  0  0  0  0  0  0
  139.5690   74.0610  221.7330 C   0  0  0  0  0  0  0  0  0  0  0  0
  140.1180   72.6170  221.9800 C   0  0  2  0  0  0  0  0  0  0  0  0
  139.2490   71.5140  221.3860 C   0  0  0  0  0  0  0  0  0  0  0  0
  139.3560   70.3500  222.3680 C   0  0  0  0  0  0  0  0  0  0  0  0
  140.1830   70.7760  223.5190 N   0  0  0  0  0  0  0  0  0  0  0  0
  139.6740   70.2420  224.8140 C   0  0  1  0  0  0  0  0  0  0  0  0
  139.3460   68.7250  224.6770 C   0  0  0  0  0  0  0  0  0  0  0  0
  139.5310   67.9700  225.9950 C   0  0  0  0  0  0  0  0  0  0  0  0
  140.9810   68.1020  226.5060 C   0  0  0  0  0  0  0  0  0  0  0  0
  141.6420   69.3520  226.0840 N   0  0  0  0  0  0  0  0  0  0  0  0
  140.6900   70.4650  225.9770 C   0  0  0  0  0  0  0  0  0  0  0  0
  140.2080   72.2450  223.4570 C   0  0  0  0  0  0  0  0  0  0  0  0
  141.4810   72.6610  221.3390 C   0  0  0  0  0  0  0  0  0  0  0  0
  142.4380   71.6430  221.2460 C   0  0  0  0  0  0  0  0  0  0  0  0
  143.6640   71.9250  220.6250 C   0  0  0  0  0  0  0  0  0  0  0  0
  143.9210   73.2110  220.1160 C   0  0  0  0  0  0  0  0  0  0  0  0
  142.9510   74.2190  220.2220 C   0  0  0  0  0  0  0  0  0  0  0  0
  141.7300   73.9100  220.8320 C   0  0  0  0  0  0  0  0  0  0  0  0
  140.0398   78.7870  219.4529 H   0  0  0  0  0  0  0  0  0  0  0  0
  140.6799   81.4271  220.4205 H   0  0  0  0  0  0  0  0  0  0  0  0
  142.7736   81.3322  224.2404 H   0  0  0  0  0  0  0  0  0  0  0  0
  142.6558   78.8135  224.2475 H   0  0  0  0  0  0  0  0  0  0  0  0
  141.7890   76.6780  222.7730 H   0  0  0  0  0  0  0  0  0  0  0  0
  139.3210   74.5438  222.6898 H   0  0  0  0  0  0  0  0  0  0  0  0
  138.6510   74.0434  221.1273 H   0  0  0  0  0  0  0  0  0  0  0  0
  138.2053   71.8501  221.2980 H   0  0  0  0  0  0  0  0  0  0  0  0
  139.5767   71.2311  220.3748 H   0  0  0  0  0  0  0  0  0  0  0  0
  138.3522   70.0671  222.7178 H   0  0  0  0  0  0  0  0  0  0  0  0
  139.8191   69.4834  221.8736 H   0  0  0  0  0  0  0  0  0  0  0  0
  138.7567   70.7961  225.0620 H   0  0  0  0  0  0  0  0  0  0  0  0
  138.3010   68.6170  224.3510 H   0  0  0  0  0  0  0  0  0  0  0  0
  140.0423   68.2950  223.9420 H   0  0  0  0  0  0  0  0  0  0  0  0
  138.8447   68.3855  226.7475 H   0  0  0  0  0  0  0  0  0  0  0  0
  139.3142   66.9053  225.8237 H   0  0  0  0  0  0  0  0  0  0  0  0
  140.9671   68.0694  227.6054 H   0  0  0  0  0  0  0  0  0  0  0  0
  141.5544   67.2699  226.0714 H   0  0  0  0  0  0  0  0  0  0  0  0
  142.0920   69.2060  225.1490 H   0  0  0  0  0  0  0  0  0  0  0  0
  140.1359   70.5530  226.9232 H   0  0  0  0  0  0  0  0  0  0  0  0
  141.2571   71.3838  225.7670 H   0  0  0  0  0  0  0  0  0  0  0  0
  139.3523   72.6633  224.0072 H   0  0  0  0  0  0  0  0  0  0  0  0
  141.1243   72.6472  223.9138 H   0  0  0  0  0  0  0  0  0  0  0  0
  142.2325   70.6415  221.6520 H   0  0  0  0  0  0  0  0  0  0  0  0
  144.4270   71.1377  220.5358 H   0  0  0  0  0  0  0  0  0  0  0  0
  144.8856   73.4269  219.6333 H   0  0  0  0  0  0  0  0  0  0  0  0
  143.1459   75.2298  219.8342 H   0  0  0  0  0  0  0  0  0  0  0  0
  1  2  2  0
  2  3  1  0
  3  4  2  0
  4  5  1  0
  5  6  2  0
  6  7  1  0
  7  8  1  0
  7  9  2  0
  9 10  1  0
 10 11  2  0
 11 12  1  0
  2 13  1  0
 13 14  1  0
 15 14  1  1
 15 16  1  0
 16 17  1  0
 17 18  1  0
 18 19  1  0
 19 20  1  0
 20 21  1  0
 21 22  1  0
 22 23  1  0
 23 24  1  0
 18 25  1  0
 15 26  1  0
 26 27  2  0
 27 28  1  0
 28 29  2  0
 29 30  1  0
 30 31  2  0
 12  3  1  0
 31 13  1  0
 11  5  1  0
 25 15  1  0
 31 26  1  0
 24 19  1  0
  4 32  1  0
  6 33  1  0
  9 34  1  0
 10 35  1  0
 12 36  1  0
 14 37  1  0
 14 38  1  0
 16 39  1  0
 16 40  1  0
 17 41  1  0
 17 42  1  0
 19 43  1  1
 20 44  1  0
 20 45  1  0
 21 46  1  0
 21 47  1  0
 22 48  1  0
 22 49  1  0
 23 50  1  0
 24 51  1  0
 24 52  1  0
 25 53  1  0
 25 54  1  0
 27 55  1  0
 28 56  1  0
 29 57  1  0
 30 58  1  0
M  END
>  <UniqueID>  (53) 
24

>  <SMILES>  (53) 
O=C(c1cc2cc(F)ccc2[nH]1)N1C[C@@]2(CCN([C@H]3CCCNC3)C2)c2ccccc21

>  <Energy>  (53) 
130.46795265963146

>  <Genealogy>  (53) 
O=C(c1cc2cc(F)ccc2[nH]1)N1C[C@@]2(CCN([C@H]3CCCNC3)C2)c2ccccc21 (chirality)
O=C(c1cc2cc(F)ccc2[nH]1)N1C[C@@]2(CCN([C@H]3CCCNC3)C2)c2ccccc21 (3D coordinates assigned)
O=C(c1cc2cc(F)ccc2[nH]1)N1C[C@@]2(CCN([C@H]3CCCNC3)C2)c2ccccc21 (nonaromatic ring conformer: 130.46795265963146 kcal/mol)

>  <smiles>  (53) 
O=C(c1cc2cc(F)ccc2[nH]1)N1C[C@@]2(CCN(C3CCCNC3)C2)c2ccccc21

>  <score_type>  (53) 
oracle

>  <origin>  (53) 
autodockgpu

>  <m_score__min__energy>  (53) 
-8.3300000000000001

>  <m_primary>  (53) 
energy

>  <meeko>  (53) 
{"free_energy": -8.33, "intermolecular_energy": -9.23, "internal_energy": -1.07, "cluster_size": 15, "cluster_id": 1, "rank_in_cluster": 1}

>  <energy>  (53) 
-8.28

>  <cluster_rmsd>  (53) 
0.98

>  <rmsd>  (53) 
272.45

>  <cluster>  (53) 
1

$$$$
ABNVVKAVWJYHCL-DFBJGRDBNA-N
     RDKit          3D

 58 63  0  0  0  0  0  0  0  0999 V2000
  140.3210   75.9660  219.0140 O   0  0  0  0  0  0  0  0  0  0  0  0
  140.7060   75.9800  220.2150 C   0  0  0  0  0  0  0  0  0  0  0  0
  140.9750   77.2690  220.8710 C   0  0  0  0  0  0  0  0  0  0  0  0
  140.8200   78.5180  220.2700 C   0  0  0  0  0  0  0  0  0  0  0  0
  141.2140   79.4260  221.2280 C   0  0  0  0  0  0  0  0  0  0  0  0
  141.2760   80.8170  221.1870 C   0  0  0  0  0  0  0  0  0  0  0  0
  141.7410   81.4870  222.3340 C   0  0  0  0  0  0  0  0  0  0  0  0
  141.8170   82.8410  222.3400 F   0  0  0  0  0  0  0  0  0  0  0  0
  142.1330   80.7560  223.4780 C   0  0  0  0  0  0  0  0  0  0  0  0
  142.0610   79.3510  223.4860 C   0  0  0  0  0  0  0  0  0  0  0  0
  141.5910   78.7160  222.3380 C   0  0  0  0  0  0  0  0  0  0  0  0
  141.4540   77.3960  222.1330 N   0  0  0  0  0  0  0  0  0  0  0  0
  140.8500   74.7430  220.9310 N   0  0  0  0  0  0  0  0  0  0  0  0
  139.7260   74.0470  221.5660 C   0  0  0  0  0  0  0  0  0  0  0  0
  140.2190   72.5890  221.8470 C   0  0  2  0  0  0  0  0  0  0  0  0
  139.3430   71.5080  221.2230 C   0  0  0  0  0  0  0  0  0  0  0  0
  139.3710   70.3500  222.2180 C   0  0  0  0  0  0  0  0  0  0  0  0
  140.1600   70.7600  223.4000 N   0  0  0  0  0  0  0  0  0  0  0  0
  139.5800   70.2530  224.6760 C   0  0  1  0  0  0  0  0  0  0  0  0
  139.2520   68.7350  224.5500 C   0  0  0  0  0  0  0  0  0  0  0  0
  139.3620   68.0050  225.8890 C   0  0  0  0  0  0  0  0  0  0  0  0
  140.7830   68.1410  226.4760 C   0  0  0  0  0  0  0  0  0  0  0  0
  141.4720   69.3800  226.0670 N   0  0  0  0  0  0  0  0  0  0  0  0
  140.5320   70.4940  225.8880 C   0  0  0  0  0  0  0  0  0  0  0  0
  140.2330   72.2280  223.3290 C   0  0  0  0  0  0  0  0  0  0  0  0
  141.6090   72.5870  221.2660 C   0  0  0  0  0  0  0  0  0  0  0  0
  142.5380   71.5400  221.2220 C   0  0  0  0  0  0  0  0  0  0  0  0
  143.7980   71.7790  220.6530 C   0  0  0  0  0  0  0  0  0  0  0  0
  144.1150   73.0520  220.1460 C   0  0  0  0  0  0  0  0  0  0  0  0
  143.1730   74.0900  220.2030 C   0  0  0  0  0  0  0  0  0  0  0  0
  141.9180   73.8240  220.7610 C   0  0  0  0  0  0  0  0  0  0  0  0
  140.4612   78.7315  219.2523 H   0  0  0  0  0  0  0  0  0  0  0  0
  140.9717   81.3732  220.2881 H   0  0  0  0  0  0  0  0  0  0  0  0
  142.4970   81.2893  224.3686 H   0  0  0  0  0  0  0  0  0  0  0  0
  142.3660   78.7721  224.3702 H   0  0  0  0  0  0  0  0  0  0  0  0
  141.7090   76.6320  222.7970 H   0  0  0  0  0  0  0  0  0  0  0  0
  139.4518   74.5451  222.5077 H   0  0  0  0  0  0  0  0  0  0  0  0
  138.8351   74.0518  220.9208 H   0  0  0  0  0  0  0  0  0  0  0  0
  138.3151   71.8750  221.0864 H   0  0  0  0  0  0  0  0  0  0  0  0
  139.7055   71.2064  220.2292 H   0  0  0  0  0  0  0  0  0  0  0  0
  138.3446   70.1016  222.5260 H   0  0  0  0  0  0  0  0  0  0  0  0
  139.8278   69.4651  221.7508 H   0  0  0  0  0  0  0  0  0  0  0  0
  138.6539   70.8160  224.8638 H   0  0  0  0  0  0  0  0  0  0  0  0
  138.2254   68.6251  224.1704 H   0  0  0  0  0  0  0  0  0  0  0  0
  139.9845   68.2882  223.8617 H   0  0  0  0  0  0  0  0  0  0  0  0
  138.6378   68.4372  226.5953 H   0  0  0  0  0  0  0  0  0  0  0  0
  139.1501   66.9380  225.7258 H   0  0  0  0  0  0  0  0  0  0  0  0
  140.7091   68.1296  227.5735 H   0  0  0  0  0  0  0  0  0  0  0  0
  141.3751   67.2984  226.0893 H   0  0  0  0  0  0  0  0  0  0  0  0
  141.9710   69.2140  225.1600 H   0  0  0  0  0  0  0  0  0  0  0  0
  139.9276   70.6013  226.8008 H   0  0  0  0  0  0  0  0  0  0  0  0
  141.1137   71.4069  225.6924 H   0  0  0  0  0  0  0  0  0  0  0  0
  139.3674   72.6770  223.8381 H   0  0  0  0  0  0  0  0  0  0  0  0
  141.1401   72.6064  223.8229 H   0  0  0  0  0  0  0  0  0  0  0  0
  142.2846   70.5488  221.6260 H   0  0  0  0  0  0  0  0  0  0  0  0
  144.5400   70.9685  220.6033 H   0  0  0  0  0  0  0  0  0  0  0  0
  145.1052   73.2344  219.7031 H   0  0  0  0  0  0  0  0  0  0  0  0
  143.4159   75.0912  219.8174 H   0  0  0  0  0  0  0  0  0  0  0  0
  1  2  2  0
  2  3  1  0
  3  4  2  0
  4  5  1  0
  5  6  2  0
  6  7  1  0
  7  8  1  0
  7  9  2  0
  9 10  1  0
 10 11  2  0
 11 12  1  0
  2 13  1  0
 13 14  1  0
 15 14  1  1
 15 16  1  0
 16 17  1  0
 17 18  1  0
 18 19  1  0
 19 20  1  0
 20 21  1  0
 21 22  1  0
 22 23  1  0
 23 24  1  0
 18 25  1  0
 15 26  1  0
 26 27  2  0
 27 28  1  0
 28 29  2  0
 29 30  1  0
 30 31  2  0
 12  3  1  0
 31 13  1  0
 11  5  1  0
 25 15  1  0
 31 26  1  0
 24 19  1  0
  4 32  1  0
  6 33  1  0
  9 34  1  0
 10 35  1  0
 12 36  1  0
 14 37  1  0
 14 38  1  0
 16 39  1  0
 16 40  1  0
 17 41  1  0
 17 42  1  0
 19 43  1  1
 20 44  1  0
 20 45  1  0
 21 46  1  0
 21 47  1  0
 22 48  1  0
 22 49  1  0
 23 50  1  0
 24 51  1  0
 24 52  1  0
 25 53  1  0
 25 54  1  0
 27 55  1  0
 28 56  1  0
 29 57  1  0
 30 58  1  0
M  END
>  <UniqueID>  (54) 
24

>  <SMILES>  (54) 
O=C(c1cc2cc(F)ccc2[nH]1)N1C[C@@]2(CCN([C@H]3CCCNC3)C2)c2ccccc21

>  <Energy>  (54) 
130.46795265963146

>  <Genealogy>  (54) 
O=C(c1cc2cc(F)ccc2[nH]1)N1C[C@@]2(CCN([C@H]3CCCNC3)C2)c2ccccc21 (chirality)
O=C(c1cc2cc(F)ccc2[nH]1)N1C[C@@]2(CCN([C@H]3CCCNC3)C2)c2ccccc21 (3D coordinates assigned)
O=C(c1cc2cc(F)ccc2[nH]1)N1C[C@@]2(CCN([C@H]3CCCNC3)C2)c2ccccc21 (nonaromatic ring conformer: 130.46795265963146 kcal/mol)

>  <smiles>  (54) 
O=C(c1cc2cc(F)ccc2[nH]1)N1C[C@@]2(CCN(C3CCCNC3)C2)c2ccccc21

>  <score_type>  (54) 
oracle

>  <origin>  (54) 
autodockgpu

>  <m_score__min__energy>  (54) 
-8.3300000000000001

>  <m_primary>  (54) 
energy

>  <meeko>  (54) 
{"free_energy": -8.31, "intermolecular_energy": -9.21, "internal_energy": -1.06, "cluster_size": 15, "cluster_id": 1, "rank_in_cluster": 3}

>  <energy>  (54) 
-8.27

>  <cluster_rmsd>  (54) 
0.97

>  <rmsd>  (54) 
272.45

>  <cluster>  (54) 
1

$$$$
ABNVVKAVWJYHCL-DFBJGRDBNA-N
     RDKit          3D

 58 63  0  0  0  0  0  0  0  0999 V2000
  139.9350   76.1710  219.3710 O   0  0  0  0  0  0  0  0  0  0  0  0
  140.4770   76.1190  220.5090 C   0  0  0  0  0  0  0  0  0  0  0  0
  140.9070   77.3670  221.1600 C   0  0  0  0  0  0  0  0  0  0  0  0
  141.0800   77.5310  222.5350 C   0  0  0  0  0  0  0  0  0  0  0  0
  141.4490   78.8490  222.6920 C   0  0  0  0  0  0  0  0  0  0  0  0
  141.7460   79.5750  223.8430 C   0  0  0  0  0  0  0  0  0  0  0  0
  142.0830   80.9340  223.6930 C   0  0  0  0  0  0  0  0  0  0  0  0
  142.3800   81.6790  224.7850 F   0  0  0  0  0  0  0  0  0  0  0  0
  142.1080   81.5250  222.4100 C   0  0  0  0  0  0  0  0  0  0  0  0
  141.8000   80.7640  221.2670 C   0  0  0  0  0  0  0  0  0  0  0  0
  141.4760   79.4200  221.4470 C   0  0  0  0  0  0  0  0  0  0  0  0
  141.1430   78.5270  220.5010 N   0  0  0  0  0  0  0  0  0  0  0  0
  140.6400   74.8510  221.1620 N   0  0  0  0  0  0  0  0  0  0  0  0
  139.5380   74.1370  221.8170 C   0  0  0  0  0  0  0  0  0  0  0  0
  140.0290   72.6640  222.0110 C   0  0  2  0  0  0  0  0  0  0  0  0
  139.1150   71.6190  221.3810 C   0  0  0  0  0  0  0  0  0  0  0  0
  139.1750   70.4170  222.3220 C   0  0  0  0  0  0  0  0  0  0  0  0
  140.0210   70.7690  223.4840 N   0  0  0  0  0  0  0  0  0  0  0  0
  139.4940   70.2100  224.7610 C   0  0  1  0  0  0  0  0  0  0  0  0
  139.2300   68.6830  224.6110 C   0  0  0  0  0  0  0  0  0  0  0  0
  139.4040   67.9310  225.9310 C   0  0  0  0  0  0  0  0  0  0  0  0
  140.8310   68.1180  226.4890 C   0  0  0  0  0  0  0  0  0  0  0  0
  141.4550   69.3950  226.0900 N   0  0  0  0  0  0  0  0  0  0  0  0
  140.4620   70.4690  225.9560 C   0  0  0  0  0  0  0  0  0  0  0  0
  140.1060   72.2370  223.4740 C   0  0  0  0  0  0  0  0  0  0  0  0
  141.3910   72.6760  221.3680 C   0  0  0  0  0  0  0  0  0  0  0  0
  142.3060   71.6240  221.2360 C   0  0  0  0  0  0  0  0  0  0  0  0
  143.5410   71.8780  220.6210 C   0  0  0  0  0  0  0  0  0  0  0  0
  143.8490   73.1690  220.1570 C   0  0  0  0  0  0  0  0  0  0  0  0
  142.9210   74.2120  220.3010 C   0  0  0  0  0  0  0  0  0  0  0  0
  141.6890   73.9310  220.9040 C   0  0  0  0  0  0  0  0  0  0  0  0
  140.9501   76.7733  223.3218 H   0  0  0  0  0  0  0  0  0  0  0  0
  141.7182   79.1025  224.8360 H   0  0  0  0  0  0  0  0  0  0  0  0
  142.3702   82.5880  222.3037 H   0  0  0  0  0  0  0  0  0  0  0  0
  141.8144   81.2151  220.2638 H   0  0  0  0  0  0  0  0  0  0  0  0
  141.0450   78.7110  219.4780 H   0  0  0  0  0  0  0  0  0  0  0  0
  139.3118   74.5953  222.7911 H   0  0  0  0  0  0  0  0  0  0  0  0
  138.6186   74.1778  221.2144 H   0  0  0  0  0  0  0  0  0  0  0  0
  138.0859   72.0005  221.3072 H   0  0  0  0  0  0  0  0  0  0  0  0
  139.4300   71.3585  220.3598 H   0  0  0  0  0  0  0  0  0  0  0  0
  138.1610   70.1639  222.6650 H   0  0  0  0  0  0  0  0  0  0  0  0
  139.6003   69.5492  221.7966 H   0  0  0  0  0  0  0  0  0  0  0  0
  138.5481   70.7267  224.9808 H   0  0  0  0  0  0  0  0  0  0  0  0
  138.2003   68.5356  224.2531 H   0  0  0  0  0  0  0  0  0  0  0  0
  139.9649   68.2832  223.8968 H   0  0  0  0  0  0  0  0  0  0  0  0
  138.6782   68.3155  226.6627 H   0  0  0  0  0  0  0  0  0  0  0  0
  139.2360   66.8592  225.7490 H   0  0  0  0  0  0  0  0  0  0  0  0
  140.7832   68.0817  227.5874 H   0  0  0  0  0  0  0  0  0  0  0  0
  141.4505   67.3102  226.0723 H   0  0  0  0  0  0  0  0  0  0  0  0
  141.9390   69.2700  225.1700 H   0  0  0  0  0  0  0  0  0  0  0  0
  139.8749   70.5302  226.8842 H   0  0  0  0  0  0  0  0  0  0  0  0
  140.9975   71.4111  225.7671 H   0  0  0  0  0  0  0  0  0  0  0  0
  139.2690   72.6702  224.0411 H   0  0  0  0  0  0  0  0  0  0  0  0
  141.0385   72.5853  223.9421 H   0  0  0  0  0  0  0  0  0  0  0  0
  142.0610   70.6180  221.6074 H   0  0  0  0  0  0  0  0  0  0  0  0
  144.2712   71.0641  220.5013 H   0  0  0  0  0  0  0  0  0  0  0  0
  144.8209   73.3623  219.6794 H   0  0  0  0  0  0  0  0  0  0  0  0
  143.1562   75.2270  219.9482 H   0  0  0  0  0  0  0  0  0  0  0  0
  1  2  2  0
  2  3  1  0
  3  4  2  0
  4  5  1  0
  5  6  2  0
  6  7  1  0
  7  8  1  0
  7  9  2  0
  9 10  1  0
 10 11  2  0
 11 12  1  0
  2 13  1  0
 13 14  1  0
 15 14  1  1
 15 16  1  0
 16 17  1  0
 17 18  1  0
 18 19  1  0
 19 20  1  0
 20 21  1  0
 21 22  1  0
 22 23  1  0
 23 24  1  0
 18 25  1  0
 15 26  1  0
 26 27  2  0
 27 28  1  0
 28 29  2  0
 29 30  1  0
 30 31  2  0
 12  3  1  0
 31 13  1  0
 11  5  1  0
 25 15  1  0
 31 26  1  0
 24 19  1  0
  4 32  1  0
  6 33  1  0
  9 34  1  0
 10 35  1  0
 12 36  1  0
 14 37  1  0
 14 38  1  0
 16 39  1  0
 16 40  1  0
 17 41  1  0
 17 42  1  0
 19 43  1  1
 20 44  1  0
 20 45  1  0
 21 46  1  0
 21 47  1  0
 22 48  1  0
 22 49  1  0
 23 50  1  0
 24 51  1  0
 24 52  1  0
 25 53  1  0
 25 54  1  0
 27 55  1  0
 28 56  1  0
 29 57  1  0
 30 58  1  0
M  END
>  <UniqueID>  (55) 
24

>  <SMILES>  (55) 
O=C(c1cc2cc(F)ccc2[nH]1)N1C[C@@]2(CCN([C@H]3CCCNC3)C2)c2ccccc21

>  <Energy>  (55) 
130.46795265963146

>  <Genealogy>  (55) 
O=C(c1cc2cc(F)ccc2[nH]1)N1C[C@@]2(CCN([C@H]3CCCNC3)C2)c2ccccc21 (chirality)
O=C(c1cc2cc(F)ccc2[nH]1)N1C[C@@]2(CCN([C@H]3CCCNC3)C2)c2ccccc21 (3D coordinates assigned)
O=C(c1cc2cc(F)ccc2[nH]1)N1C[C@@]2(CCN([C@H]3CCCNC3)C2)c2ccccc21 (nonaromatic ring conformer: 130.46795265963146 kcal/mol)

>  <smiles>  (55) 
O=C(c1cc2cc(F)ccc2[nH]1)N1C[C@@]2(CCN(C3CCCNC3)C2)c2ccccc21

>  <score_type>  (55) 
oracle

>  <origin>  (55) 
autodockgpu

>  <m_score__min__energy>  (55) 
-8.3300000000000001

>  <m_primary>  (55) 
energy

>  <meeko>  (55) 
{"free_energy": -8.28, "intermolecular_energy": -9.17, "internal_energy": -1.17, "cluster_size": 15, "cluster_id": 1, "rank_in_cluster": 12}

>  <energy>  (55) 
-8.25

>  <cluster_rmsd>  (55) 
0.99

>  <rmsd>  (55) 
272.44

>  <cluster>  (55) 
1

$$$$
ABNVVKAVWJYHCL-DFBJGRDBNA-N
     RDKit          3D

 58 63  0  0  0  0  0  0  0  0999 V2000
  139.8450   76.1930  219.4070 O   0  0  0  0  0  0  0  0  0  0  0  0
  140.4150   76.1390  220.5300 C   0  0  0  0  0  0  0  0  0  0  0  0
  140.8650   77.3850  221.1710 C   0  0  0  0  0  0  0  0  0  0  0  0
  141.0840   77.5450  222.5400 C   0  0  0  0  0  0  0  0  0  0  0  0
  141.4550   78.8630  222.6900 C   0  0  0  0  0  0  0  0  0  0  0  0
  141.7900   79.5850  223.8320 C   0  0  0  0  0  0  0  0  0  0  0  0
  142.1180   80.9450  223.6760 C   0  0  0  0  0  0  0  0  0  0  0  0
  142.4510   81.6870  224.7610 F   0  0  0  0  0  0  0  0  0  0  0  0
  142.0990   81.5420  222.3960 C   0  0  0  0  0  0  0  0  0  0  0  0
  141.7530   80.7840  221.2610 C   0  0  0  0  0  0  0  0  0  0  0  0
  141.4390   79.4390  221.4470 C   0  0  0  0  0  0  0  0  0  0  0  0
  141.0760   78.5490  220.5090 N   0  0  0  0  0  0  0  0  0  0  0  0
  140.5910   74.8700  221.1790 N   0  0  0  0  0  0  0  0  0  0  0  0
  139.4970   74.1400  221.8260 C   0  0  0  0  0  0  0  0  0  0  0  0
  140.0050   72.6720  222.0160 C   0  0  2  0  0  0  0  0  0  0  0  0
  139.1060   71.6180  221.3780 C   0  0  0  0  0  0  0  0  0  0  0  0
  139.1780   70.4130  222.3130 C   0  0  0  0  0  0  0  0  0  0  0  0
  140.0150   70.7700  223.4800 N   0  0  0  0  0  0  0  0  0  0  0  0
  139.4900   70.1990  224.7530 C   0  0  1  0  0  0  0  0  0  0  0  0
  139.2590   68.6670  224.5990 C   0  0  0  0  0  0  0  0  0  0  0  0
  139.4380   67.9170  225.9200 C   0  0  0  0  0  0  0  0  0  0  0  0
  140.8560   68.1330  226.4880 C   0  0  0  0  0  0  0  0  0  0  0  0
  141.4570   69.4230  226.0960 N   0  0  0  0  0  0  0  0  0  0  0  0
  140.4430   70.4770  225.9560 C   0  0  0  0  0  0  0  0  0  0  0  0
  140.0810   72.2400  223.4770 C   0  0  0  0  0  0  0  0  0  0  0  0
  141.3690   72.7040  221.3780 C   0  0  0  0  0  0  0  0  0  0  0  0
  142.2980   71.6640  221.2450 C   0  0  0  0  0  0  0  0  0  0  0  0
  143.5320   71.9360  220.6370 C   0  0  0  0  0  0  0  0  0  0  0  0
  143.8250   73.2330  220.1790 C   0  0  0  0  0  0  0  0  0  0  0  0
  142.8840   74.2630  220.3250 C   0  0  0  0  0  0  0  0  0  0  0  0
  141.6530   73.9640  220.9210 C   0  0  0  0  0  0  0  0  0  0  0  0
  140.9824   76.7841  223.3278 H   0  0  0  0  0  0  0  0  0  0  0  0
  141.7981   79.1086  224.8235 H   0  0  0  0  0  0  0  0  0  0  0  0
  142.3561   82.6058  222.2852 H   0  0  0  0  0  0  0  0  0  0  0  0
  141.7313   81.2388  220.2597 H   0  0  0  0  0  0  0  0  0  0  0  0
  140.9420   78.7360  219.4910 H   0  0  0  0  0  0  0  0  0  0  0  0
  139.2614   74.5913  222.8011 H   0  0  0  0  0  0  0  0  0  0  0  0
  138.5798   74.1718  221.2197 H   0  0  0  0  0  0  0  0  0  0  0  0
  138.0724   71.9868  221.3026 H   0  0  0  0  0  0  0  0  0  0  0  0
  139.4277   71.3663  220.3567 H   0  0  0  0  0  0  0  0  0  0  0  0
  138.1660   70.1452  222.6509 H   0  0  0  0  0  0  0  0  0  0  0  0
  139.6166   69.5534  221.7850 H   0  0  0  0  0  0  0  0  0  0  0  0
  138.5321   70.6959  224.9665 H   0  0  0  0  0  0  0  0  0  0  0  0
  138.2356   68.4987  224.2326 H   0  0  0  0  0  0  0  0  0  0  0  0
  140.0077   68.2835  223.8903 H   0  0  0  0  0  0  0  0  0  0  0  0
  138.6990   68.2858  226.6465 H   0  0  0  0  0  0  0  0  0  0  0  0
  139.2930   66.8422  225.7363 H   0  0  0  0  0  0  0  0  0  0  0  0
  140.8010   68.0938  227.5859 H   0  0  0  0  0  0  0  0  0  0  0  0
  141.4949   67.3392  226.0738 H   0  0  0  0  0  0  0  0  0  0  0  0
  141.9500   69.3090  225.1790 H   0  0  0  0  0  0  0  0  0  0  0  0
  139.8476   70.5248  226.8797 H   0  0  0  0  0  0  0  0  0  0  0  0
  140.9601   71.4305  225.7728 H   0  0  0  0  0  0  0  0  0  0  0  0
  139.2359   72.6598  224.0422 H   0  0  0  0  0  0  0  0  0  0  0  0
  141.0067   72.5984  223.9510 H   0  0  0  0  0  0  0  0  0  0  0  0
  142.0640   70.6532  221.6105 H   0  0  0  0  0  0  0  0  0  0  0  0
  144.2734   71.1321  220.5179 H   0  0  0  0  0  0  0  0  0  0  0  0
  144.7955   73.4405  219.7046 H   0  0  0  0  0  0  0  0  0  0  0  0
  143.1083   75.2828  219.9789 H   0  0  0  0  0  0  0  0  0  0  0  0
  1  2  2  0
  2  3  1  0
  3  4  2  0
  4  5  1  0
  5  6  2  0
  6  7  1  0
  7  8  1  0
  7  9  2  0
  9 10  1  0
 10 11  2  0
 11 12  1  0
  2 13  1  0
 13 14  1  0
 15 14  1  1
 15 16  1  0
 16 17  1  0
 17 18  1  0
 18 19  1  0
 19 20  1  0
 20 21  1  0
 21 22  1  0
 22 23  1  0
 23 24  1  0
 18 25  1  0
 15 26  1  0
 26 27  2  0
 27 28  1  0
 28 29  2  0
 29 30  1  0
 30 31  2  0
 12  3  1  0
 31 13  1  0
 11  5  1  0
 25 15  1  0
 31 26  1  0
 24 19  1  0
  4 32  1  0
  6 33  1  0
  9 34  1  0
 10 35  1  0
 12 36  1  0
 14 37  1  0
 14 38  1  0
 16 39  1  0
 16 40  1  0
 17 41  1  0
 17 42  1  0
 19 43  1  1
 20 44  1  0
 20 45  1  0
 21 46  1  0
 21 47  1  0
 22 48  1  0
 22 49  1  0
 23 50  1  0
 24 51  1  0
 24 52  1  0
 25 53  1  0
 25 54  1  0
 27 55  1  0
 28 56  1  0
 29 57  1  0
 30 58  1  0
M  END
>  <UniqueID>  (56) 
24

>  <SMILES>  (56) 
O=C(c1cc2cc(F)ccc2[nH]1)N1C[C@@]2(CCN([C@H]3CCCNC3)C2)c2ccccc21

>  <Energy>  (56) 
130.46795265963146

>  <Genealogy>  (56) 
O=C(c1cc2cc(F)ccc2[nH]1)N1C[C@@]2(CCN([C@H]3CCCNC3)C2)c2ccccc21 (chirality)
O=C(c1cc2cc(F)ccc2[nH]1)N1C[C@@]2(CCN([C@H]3CCCNC3)C2)c2ccccc21 (3D coordinates assigned)
O=C(c1cc2cc(F)ccc2[nH]1)N1C[C@@]2(CCN([C@H]3CCCNC3)C2)c2ccccc21 (nonaromatic ring conformer: 130.46795265963146 kcal/mol)

>  <smiles>  (56) 
O=C(c1cc2cc(F)ccc2[nH]1)N1C[C@@]2(CCN(C3CCCNC3)C2)c2ccccc21

>  <score_type>  (56) 
oracle

>  <origin>  (56) 
autodockgpu

>  <m_score__min__energy>  (56) 
-8.3300000000000001

>  <m_primary>  (56) 
energy

>  <meeko>  (56) 
{"free_energy": -8.27, "intermolecular_energy": -9.17, "internal_energy": -1.18, "cluster_size": 15, "cluster_id": 1, "rank_in_cluster": 14}

>  <energy>  (56) 
-8.08

>  <cluster_rmsd>  (56) 
0.0

>  <rmsd>  (56) 
272.39

>  <cluster>  (56) 
2

$$$$
ABNVVKAVWJYHCL-DFBJGRDBNA-N
     RDKit          3D

 58 63  0  0  0  0  0  0  0  0999 V2000
  139.7020   76.0530  219.5250 O   0  0  0  0  0  0  0  0  0  0  0  0
  140.3180   76.0070  220.6240 C   0  0  0  0  0  0  0  0  0  0  0  0
  140.8060   77.2560  221.2310 C   0  0  0  0  0  0  0  0  0  0  0  0
  141.0640   77.4350  222.5900 C   0  0  0  0  0  0  0  0  0  0  0  0
  141.4610   78.7490  222.7060 C   0  0  0  0  0  0  0  0  0  0  0  0
  141.8390   79.4850  223.8270 C   0  0  0  0  0  0  0  0  0  0  0  0
  142.1850   80.8370  223.6370 C   0  0  0  0  0  0  0  0  0  0  0  0
  142.5600   81.5910  224.7000 F   0  0  0  0  0  0  0  0  0  0  0  0
  142.1420   81.4110  222.3480 C   0  0  0  0  0  0  0  0  0  0  0  0
  141.7540   80.6400  221.2360 C   0  0  0  0  0  0  0  0  0  0  0  0
  141.4210   79.3040  221.4540 C   0  0  0  0  0  0  0  0  0  0  0  0
  141.0180   78.4040  220.5420 N   0  0  0  0  0  0  0  0  0  0  0  0
  140.5110   74.7440  221.2800 N   0  0  0  0  0  0  0  0  0  0  0  0
  139.4280   74.0100  221.9430 C   0  0  0  0  0  0  0  0  0  0  0  0
  139.9490   72.5470  222.1380 C   0  0  2  0  0  0  0  0  0  0  0  0
  139.0510   71.4830  221.5170 C   0  0  0  0  0  0  0  0  0  0  0  0
  139.1420   70.2850  222.4600 C   0  0  0  0  0  0  0  0  0  0  0  0
  139.9880   70.6560  223.6150 N   0  0  0  0  0  0  0  0  0  0  0  0
  139.4800   70.0900  224.8970 C   0  0  1  0  0  0  0  0  0  0  0  0
  139.2740   68.5530  224.7610 C   0  0  0  0  0  0  0  0  0  0  0  0
  139.4730   67.8210  226.0900 C   0  0  0  0  0  0  0  0  0  0  0  0
  140.8910   68.0670  226.6460 C   0  0  0  0  0  0  0  0  0  0  0  0
  141.4680   69.3620  226.2370 N   0  0  0  0  0  0  0  0  0  0  0  0
  140.4360   70.3970  226.0910 C   0  0  0  0  0  0  0  0  0  0  0  0
  140.0430   72.1260  223.6010 C   0  0  0  0  0  0  0  0  0  0  0  0
  141.3060   72.5840  221.4860 C   0  0  0  0  0  0  0  0  0  0  0  0
  142.2400   71.5500  221.3510 C   0  0  0  0  0  0  0  0  0  0  0  0
  143.4670   71.8270  220.7270 C   0  0  0  0  0  0  0  0  0  0  0  0
  143.7460   73.1230  220.2580 C   0  0  0  0  0  0  0  0  0  0  0  0
  142.7980   74.1470  220.4060 C   0  0  0  0  0  0  0  0  0  0  0  0
  141.5760   73.8440  221.0170 C   0  0  0  0  0  0  0  0  0  0  0  0
  140.9708   76.6897  223.3936 H   0  0  0  0  0  0  0  0  0  0  0  0
  141.8663   79.0259  224.8262 H   0  0  0  0  0  0  0  0  0  0  0  0
  142.4136   82.4682  222.2116 H   0  0  0  0  0  0  0  0  0  0  0  0
  141.7148   81.0776  220.2275 H   0  0  0  0  0  0  0  0  0  0  0  0
  140.8610   78.5750  219.5250 H   0  0  0  0  0  0  0  0  0  0  0  0
  139.1985   74.4663  222.9172 H   0  0  0  0  0  0  0  0  0  0  0  0
  138.5047   74.0308  221.3455 H   0  0  0  0  0  0  0  0  0  0  0  0
  138.0140   71.8439  221.4503 H   0  0  0  0  0  0  0  0  0  0  0  0
  139.3631   71.2265  220.4938 H   0  0  0  0  0  0  0  0  0  0  0  0
  138.1357   70.0121  222.8104 H   0  0  0  0  0  0  0  0  0  0  0  0
  139.5816   69.4251  221.9334 H   0  0  0  0  0  0  0  0  0  0  0  0
  138.5150   70.5727  225.1109 H   0  0  0  0  0  0  0  0  0  0  0  0
  138.2516   68.3634  224.4023 H   0  0  0  0  0  0  0  0  0  0  0  0
  140.0249   68.1741  224.0521 H   0  0  0  0  0  0  0  0  0  0  0  0
  138.7326   68.1862  226.8169 H   0  0  0  0  0  0  0  0  0  0  0  0
  139.3440   66.7419  225.9201 H   0  0  0  0  0  0  0  0  0  0  0  0
  140.8438   68.0385  227.7446 H   0  0  0  0  0  0  0  0  0  0  0  0
  141.5403   67.2798  226.2352 H   0  0  0  0  0  0  0  0  0  0  0  0
  141.9580   69.2460  225.3180 H   0  0  0  0  0  0  0  0  0  0  0  0
  139.8455   70.4456  227.0178 H   0  0  0  0  0  0  0  0  0  0  0  0
  140.9364   71.3565  225.8934 H   0  0  0  0  0  0  0  0  0  0  0  0
  139.2005   72.5436  224.1718 H   0  0  0  0  0  0  0  0  0  0  0  0
  140.9707   72.4946  224.0630 H   0  0  0  0  0  0  0  0  0  0  0  0
  142.0171   70.5404  221.7264 H   0  0  0  0  0  0  0  0  0  0  0  0
  144.2125   71.0275  220.6046 H   0  0  0  0  0  0  0  0  0  0  0  0
  144.7106   73.3348  219.7735 H   0  0  0  0  0  0  0  0  0  0  0  0
  143.0108   75.1657  220.0495 H   0  0  0  0  0  0  0  0  0  0  0  0
  1  2  2  0
  2  3  1  0
  3  4  2  0
  4  5  1  0
  5  6  2  0
  6  7  1  0
  7  8  1  0
  7  9  2  0
  9 10  1  0
 10 11  2  0
 11 12  1  0
  2 13  1  0
 13 14  1  0
 15 14  1  1
 15 16  1  0
 16 17  1  0
 17 18  1  0
 18 19  1  0
 19 20  1  0
 20 21  1  0
 21 22  1  0
 22 23  1  0
 23 24  1  0
 18 25  1  0
 15 26  1  0
 26 27  2  0
 27 28  1  0
 28 29  2  0
 29 30  1  0
 30 31  2  0
 12  3  1  0
 31 13  1  0
 11  5  1  0
 25 15  1  0
 31 26  1  0
 24 19  1  0
  4 32  1  0
  6 33  1  0
  9 34  1  0
 10 35  1  0
 12 36  1  0
 14 37  1  0
 14 38  1  0
 16 39  1  0
 16 40  1  0
 17 41  1  0
 17 42  1  0
 19 43  1  1
 20 44  1  0
 20 45  1  0
 21 46  1  0
 21 47  1  0
 22 48  1  0
 22 49  1  0
 23 50  1  0
 24 51  1  0
 24 52  1  0
 25 53  1  0
 25 54  1  0
 27 55  1  0
 28 56  1  0
 29 57  1  0
 30 58  1  0
M  END
>  <UniqueID>  (57) 
24

>  <SMILES>  (57) 
O=C(c1cc2cc(F)ccc2[nH]1)N1C[C@@]2(CCN([C@H]3CCCNC3)C2)c2ccccc21

>  <Energy>  (57) 
130.46795265963146

>  <Genealogy>  (57) 
O=C(c1cc2cc(F)ccc2[nH]1)N1C[C@@]2(CCN([C@H]3CCCNC3)C2)c2ccccc21 (chirality)
O=C(c1cc2cc(F)ccc2[nH]1)N1C[C@@]2(CCN([C@H]3CCCNC3)C2)c2ccccc21 (3D coordinates assigned)
O=C(c1cc2cc(F)ccc2[nH]1)N1C[C@@]2(CCN([C@H]3CCCNC3)C2)c2ccccc21 (nonaromatic ring conformer: 130.46795265963146 kcal/mol)

>  <smiles>  (57) 
O=C(c1cc2cc(F)ccc2[nH]1)N1C[C@@]2(CCN(C3CCCNC3)C2)c2ccccc21

>  <score_type>  (57) 
oracle

>  <origin>  (57) 
autodockgpu

>  <m_score__min__energy>  (57) 
-8.3300000000000001

>  <m_primary>  (57) 
energy

>  <meeko>  (57) 
{"free_energy": -8.28, "intermolecular_energy": -9.18, "internal_energy": -1.17, "cluster_size": 15, "cluster_id": 1, "rank_in_cluster": 11}

>  <energy>  (57) 
-8.08

>  <cluster_rmsd>  (57) 
0.21

>  <rmsd>  (57) 
272.34

>  <cluster>  (57) 
2

$$$$
ABNVVKAVWJYHCL-DFBJGRDBNA-N
     RDKit          3D

 58 63  0  0  0  0  0  0  0  0999 V2000
  139.6660   76.0070  219.5770 O   0  0  0  0  0  0  0  0  0  0  0  0
  140.3010   75.9590  220.6650 C   0  0  0  0  0  0  0  0  0  0  0  0
  140.8070   77.2060  221.2600 C   0  0  0  0  0  0  0  0  0  0  0  0
  141.0710   77.3920  222.6170 C   0  0  0  0  0  0  0  0  0  0  0  0
  141.4850   78.7020  222.7230 C   0  0  0  0  0  0  0  0  0  0  0  0
  141.8750   79.4420  223.8370 C   0  0  0  0  0  0  0  0  0  0  0  0
  142.2390   80.7870  223.6360 C   0  0  0  0  0  0  0  0  0  0  0  0
  142.6250   81.5450  224.6910 F   0  0  0  0  0  0  0  0  0  0  0  0
  142.1990   81.3520  222.3420 C   0  0  0  0  0  0  0  0  0  0  0  0
  141.7980   80.5780  221.2370 C   0  0  0  0  0  0  0  0  0  0  0  0
  141.4490   79.2470  221.4660 C   0  0  0  0  0  0  0  0  0  0  0  0
  141.0320   78.3460  220.5630 N   0  0  0  0  0  0  0  0  0  0  0  0
  140.4980   74.6950  221.3190 N   0  0  0  0  0  0  0  0  0  0  0  0
  139.4150   73.9490  221.9660 C   0  0  0  0  0  0  0  0  0  0  0  0
  139.9480   72.4910  222.1630 C   0  0  2  0  0  0  0  0  0  0  0  0
  139.0690   71.4190  221.5270 C   0  0  0  0  0  0  0  0  0  0  0  0
  139.1610   70.2190  222.4680 C   0  0  0  0  0  0  0  0  0  0  0  0
  139.9880   70.5950  223.6350 N   0  0  0  0  0  0  0  0  0  0  0  0
  139.4700   70.0210  224.9090 C   0  0  1  0  0  0  0  0  0  0  0  0
  139.2960   68.4790  224.7710 C   0  0  0  0  0  0  0  0  0  0  0  0
  139.4880   67.7510  226.1020 C   0  0  0  0  0  0  0  0  0  0  0  0
  140.8920   68.0250  226.6830 C   0  0  0  0  0  0  0  0  0  0  0  0
  141.4500   69.3310  226.2810 N   0  0  0  0  0  0  0  0  0  0  0  0
  140.4010   70.3460  226.1180 C   0  0  0  0  0  0  0  0  0  0  0  0
  140.0290   72.0660  223.6260 C   0  0  0  0  0  0  0  0  0  0  0  0
  141.3130   72.5440  221.5280 C   0  0  0  0  0  0  0  0  0  0  0  0
  142.2600   71.5190  221.4020 C   0  0  0  0  0  0  0  0  0  0  0  0
  143.4910   71.8110  220.7940 C   0  0  0  0  0  0  0  0  0  0  0  0
  143.7620   73.1110  220.3320 C   0  0  0  0  0  0  0  0  0  0  0  0
  142.8030   74.1250  220.4710 C   0  0  0  0  0  0  0  0  0  0  0  0
  141.5760   73.8070  221.0670 C   0  0  0  0  0  0  0  0  0  0  0  0
  140.9706   76.6537  223.4262 H   0  0  0  0  0  0  0  0  0  0  0  0
  141.8978   78.9906  224.8399 H   0  0  0  0  0  0  0  0  0  0  0  0
  142.4834   82.4046  222.1969 H   0  0  0  0  0  0  0  0  0  0  0  0
  141.7610   81.0087  220.2255 H   0  0  0  0  0  0  0  0  0  0  0  0
  140.8740   78.5110  219.5440 H   0  0  0  0  0  0  0  0  0  0  0  0
  139.1691   74.4000  222.9387 H   0  0  0  0  0  0  0  0  0  0  0  0
  138.4988   73.9626  221.3573 H   0  0  0  0  0  0  0  0  0  0  0  0
  138.0292   71.7690  221.4481 H   0  0  0  0  0  0  0  0  0  0  0  0
  139.3966   71.1690  220.5071 H   0  0  0  0  0  0  0  0  0  0  0  0
  138.1532   69.9343  222.8046 H   0  0  0  0  0  0  0  0  0  0  0  0
  139.6168   69.3657  221.9444 H   0  0  0  0  0  0  0  0  0  0  0  0
  138.4930   70.4860  225.1068 H   0  0  0  0  0  0  0  0  0  0  0  0
  138.2832   68.2696  224.3963 H   0  0  0  0  0  0  0  0  0  0  0  0
  140.0657   68.1149  224.0746 H   0  0  0  0  0  0  0  0  0  0  0  0
  138.7282   68.1006  226.8165 H   0  0  0  0  0  0  0  0  0  0  0  0
  139.3844   66.6696  225.9290 H   0  0  0  0  0  0  0  0  0  0  0  0
  140.8262   67.9973  227.7807 H   0  0  0  0  0  0  0  0  0  0  0  0
  141.5638   67.2497  226.2861 H   0  0  0  0  0  0  0  0  0  0  0  0
  141.9570   69.2250  225.3710 H   0  0  0  0  0  0  0  0  0  0  0  0
  139.7950   70.3835  227.0352 H   0  0  0  0  0  0  0  0  0  0  0  0
  140.8863   71.3147  225.9278 H   0  0  0  0  0  0  0  0  0  0  0  0
  139.1760   72.4737  224.1882 H   0  0  0  0  0  0  0  0  0  0  0  0
  140.9478   72.4419  224.0999 H   0  0  0  0  0  0  0  0  0  0  0  0
  142.0431   70.5061  221.7720 H   0  0  0  0  0  0  0  0  0  0  0  0
  144.2465   71.0198  220.6786 H   0  0  0  0  0  0  0  0  0  0  0  0
  144.7301   73.3337  219.8596 H   0  0  0  0  0  0  0  0  0  0  0  0
  143.0098   75.1468  220.1199 H   0  0  0  0  0  0  0  0  0  0  0  0
  1  2  2  0
  2  3  1  0
  3  4  2  0
  4  5  1  0
  5  6  2  0
  6  7  1  0
  7  8  1  0
  7  9  2  0
  9 10  1  0
 10 11  2  0
 11 12  1  0
  2 13  1  0
 13 14  1  0
 15 14  1  1
 15 16  1  0
 16 17  1  0
 17 18  1  0
 18 19  1  0
 19 20  1  0
 20 21  1  0
 21 22  1  0
 22 23  1  0
 23 24  1  0
 18 25  1  0
 15 26  1  0
 26 27  2  0
 27 28  1  0
 28 29  2  0
 29 30  1  0
 30 31  2  0
 12  3  1  0
 31 13  1  0
 11  5  1  0
 25 15  1  0
 31 26  1  0
 24 19  1  0
  4 32  1  0
  6 33  1  0
  9 34  1  0
 10 35  1  0
 12 36  1  0
 14 37  1  0
 14 38  1  0
 16 39  1  0
 16 40  1  0
 17 41  1  0
 17 42  1  0
 19 43  1  1
 20 44  1  0
 20 45  1  0
 21 46  1  0
 21 47  1  0
 22 48  1  0
 22 49  1  0
 23 50  1  0
 24 51  1  0
 24 52  1  0
 25 53  1  0
 25 54  1  0
 27 55  1  0
 28 56  1  0
 29 57  1  0
 30 58  1  0
M  END
>  <UniqueID>  (58) 
24

>  <SMILES>  (58) 
O=C(c1cc2cc(F)ccc2[nH]1)N1C[C@@]2(CCN([C@H]3CCCNC3)C2)c2ccccc21

>  <Energy>  (58) 
130.46795265963146

>  <Genealogy>  (58) 
O=C(c1cc2cc(F)ccc2[nH]1)N1C[C@@]2(CCN([C@H]3CCCNC3)C2)c2ccccc21 (chirality)
O=C(c1cc2cc(F)ccc2[nH]1)N1C[C@@]2(CCN([C@H]3CCCNC3)C2)c2ccccc21 (3D coordinates assigned)
O=C(c1cc2cc(F)ccc2[nH]1)N1C[C@@]2(CCN([C@H]3CCCNC3)C2)c2ccccc21 (nonaromatic ring conformer: 130.46795265963146 kcal/mol)

>  <smiles>  (58) 
O=C(c1cc2cc(F)ccc2[nH]1)N1C[C@@]2(CCN(C3CCCNC3)C2)c2ccccc21

>  <score_type>  (58) 
oracle

>  <origin>  (58) 
autodockgpu

>  <m_score__min__energy>  (58) 
-8.3300000000000001

>  <m_primary>  (58) 
energy

>  <meeko>  (58) 
{"free_energy": -8.29, "intermolecular_energy": -9.19, "internal_energy": -1.18, "cluster_size": 15, "cluster_id": 1, "rank_in_cluster": 9}

>  <energy>  (58) 
-8.03

>  <cluster_rmsd>  (58) 
1.27

>  <rmsd>  (58) 
272.38

>  <cluster>  (58) 
2

$$$$
ABNVVKAVWJYHCL-DFBJGRDBNA-N
     RDKit          3D

 58 63  0  0  0  0  0  0  0  0999 V2000
  139.8270   76.1650  219.4330 O   0  0  0  0  0  0  0  0  0  0  0  0
  140.4030   76.1080  220.5530 C   0  0  0  0  0  0  0  0  0  0  0  0
  140.8630   77.3510  221.1920 C   0  0  0  0  0  0  0  0  0  0  0  0
  141.0810   77.5110  222.5600 C   0  0  0  0  0  0  0  0  0  0  0  0
  141.4630   78.8270  222.7090 C   0  0  0  0  0  0  0  0  0  0  0  0
  141.8020   79.5480  223.8500 C   0  0  0  0  0  0  0  0  0  0  0  0
  142.1420   80.9050  223.6920 C   0  0  0  0  0  0  0  0  0  0  0  0
  142.4790   81.6470  224.7760 F   0  0  0  0  0  0  0  0  0  0  0  0
  142.1290   81.5000  222.4100 C   0  0  0  0  0  0  0  0  0  0  0  0
  141.7790   80.7430  221.2760 C   0  0  0  0  0  0  0  0  0  0  0  0
  141.4530   79.4010  221.4640 C   0  0  0  0  0  0  0  0  0  0  0  0
  141.0840   78.5120  220.5280 N   0  0  0  0  0  0  0  0  0  0  0  0
  140.5780   74.8370  221.1990 N   0  0  0  0  0  0  0  0  0  0  0  0
  139.4830   74.1100  221.8490 C   0  0  0  0  0  0  0  0  0  0  0  0
  139.9870   72.6400  222.0350 C   0  0  2  0  0  0  0  0  0  0  0  0
  139.0830   71.5900  221.3990 C   0  0  0  0  0  0  0  0  0  0  0  0
  139.1540   70.3840  222.3330 C   0  0  0  0  0  0  0  0  0  0  0  0
  139.9960   70.7360  223.4970 N   0  0  0  0  0  0  0  0  0  0  0  0
  139.4730   70.1660  224.7710 C   0  0  1  0  0  0  0  0  0  0  0  0
  139.2330   68.6350  224.6150 C   0  0  0  0  0  0  0  0  0  0  0  0
  139.4140   67.8810  225.9330 C   0  0  0  0  0  0  0  0  0  0  0  0
  140.8360   68.0880  226.4960 C   0  0  0  0  0  0  0  0  0  0  0  0
  141.4420   69.3760  226.1040 N   0  0  0  0  0  0  0  0  0  0  0  0
  140.4340   70.4350  225.9700 C   0  0  0  0  0  0  0  0  0  0  0  0
  140.0670   72.2060  223.4960 C   0  0  0  0  0  0  0  0  0  0  0  0
  141.3490   72.6680  221.3930 C   0  0  0  0  0  0  0  0  0  0  0  0
  142.2740   71.6250  221.2550 C   0  0  0  0  0  0  0  0  0  0  0  0
  143.5070   71.8940  220.6430 C   0  0  0  0  0  0  0  0  0  0  0  0
  143.8030   73.1910  220.1860 C   0  0  0  0  0  0  0  0  0  0  0  0
  142.8650   74.2240  220.3360 C   0  0  0  0  0  0  0  0  0  0  0  0
  141.6360   73.9290  220.9360 C   0  0  0  0  0  0  0  0  0  0  0  0
  140.9718   76.7520  223.3487 H   0  0  0  0  0  0  0  0  0  0  0  0
  141.8042   79.0734  224.8424 H   0  0  0  0  0  0  0  0  0  0  0  0
  142.3941   82.5616  222.2977 H   0  0  0  0  0  0  0  0  0  0  0  0
  141.7633   81.1960  220.2737 H   0  0  0  0  0  0  0  0  0  0  0  0
  140.9540   78.6980  219.5090 H   0  0  0  0  0  0  0  0  0  0  0  0
  139.2524   74.5608  222.8255 H   0  0  0  0  0  0  0  0  0  0  0  0
  138.5636   74.1460  221.2462 H   0  0  0  0  0  0  0  0  0  0  0  0
  138.0504   71.9622  221.3270 H   0  0  0  0  0  0  0  0  0  0  0  0
  139.4006   71.3381  220.3764 H   0  0  0  0  0  0  0  0  0  0  0  0
  138.1422   70.1197  222.6742 H   0  0  0  0  0  0  0  0  0  0  0  0
  139.5879   69.5236  221.8025 H   0  0  0  0  0  0  0  0  0  0  0  0
  138.5192   70.6684  224.9896 H   0  0  0  0  0  0  0  0  0  0  0  0
  138.2070   68.4730  224.2530 H   0  0  0  0  0  0  0  0  0  0  0  0
  139.9766   68.2491  223.9022 H   0  0  0  0  0  0  0  0  0  0  0  0
  138.6800   68.2518  226.6636 H   0  0  0  0  0  0  0  0  0  0  0  0
  139.2628   66.8074  225.7470 H   0  0  0  0  0  0  0  0  0  0  0  0
  140.7853   68.0467  227.5941 H   0  0  0  0  0  0  0  0  0  0  0  0
  141.4691   67.2915  226.0778 H   0  0  0  0  0  0  0  0  0  0  0  0
  141.9310   69.2610  225.1840 H   0  0  0  0  0  0  0  0  0  0  0  0
  139.8432   70.4846  226.8966 H   0  0  0  0  0  0  0  0  0  0  0  0
  140.9564   71.3853  225.7852 H   0  0  0  0  0  0  0  0  0  0  0  0
  139.2254   72.6280  224.0649 H   0  0  0  0  0  0  0  0  0  0  0  0
  140.9955   72.5608  223.9673 H   0  0  0  0  0  0  0  0  0  0  0  0
  142.0378   70.6144  221.6196 H   0  0  0  0  0  0  0  0  0  0  0  0
  144.2452   71.0878  220.5200 H   0  0  0  0  0  0  0  0  0  0  0  0
  144.7729   73.3962  219.7095 H   0  0  0  0  0  0  0  0  0  0  0  0
  143.0911   75.2432  219.9895 H   0  0  0  0  0  0  0  0  0  0  0  0
  1  2  2  0
  2  3  1  0
  3  4  2  0
  4  5  1  0
  5  6  2  0
  6  7  1  0
  7  8  1  0
  7  9  2  0
  9 10  1  0
 10 11  2  0
 11 12  1  0
  2 13  1  0
 13 14  1  0
 15 14  1  1
 15 16  1  0
 16 17  1  0
 17 18  1  0
 18 19  1  0
 19 20  1  0
 20 21  1  0
 21 22  1  0
 22 23  1  0
 23 24  1  0
 18 25  1  0
 15 26  1  0
 26 27  2  0
 27 28  1  0
 28 29  2  0
 29 30  1  0
 30 31  2  0
 12  3  1  0
 31 13  1  0
 11  5  1  0
 25 15  1  0
 31 26  1  0
 24 19  1  0
  4 32  1  0
  6 33  1  0
  9 34  1  0
 10 35  1  0
 12 36  1  0
 14 37  1  0
 14 38  1  0
 16 39  1  0
 16 40  1  0
 17 41  1  0
 17 42  1  0
 19 43  1  1
 20 44  1  0
 20 45  1  0
 21 46  1  0
 21 47  1  0
 22 48  1  0
 22 49  1  0
 23 50  1  0
 24 51  1  0
 24 52  1  0
 25 53  1  0
 25 54  1  0
 27 55  1  0
 28 56  1  0
 29 57  1  0
 30 58  1  0
M  END
>  <UniqueID>  (59) 
24

>  <SMILES>  (59) 
O=C(c1cc2cc(F)ccc2[nH]1)N1C[C@@]2(CCN([C@H]3CCCNC3)C2)c2ccccc21

>  <Energy>  (59) 
130.46795265963146

>  <Genealogy>  (59) 
O=C(c1cc2cc(F)ccc2[nH]1)N1C[C@@]2(CCN([C@H]3CCCNC3)C2)c2ccccc21 (chirality)
O=C(c1cc2cc(F)ccc2[nH]1)N1C[C@@]2(CCN([C@H]3CCCNC3)C2)c2ccccc21 (3D coordinates assigned)
O=C(c1cc2cc(F)ccc2[nH]1)N1C[C@@]2(CCN([C@H]3CCCNC3)C2)c2ccccc21 (nonaromatic ring conformer: 130.46795265963146 kcal/mol)

>  <smiles>  (59) 
O=C(c1cc2cc(F)ccc2[nH]1)N1C[C@@]2(CCN(C3CCCNC3)C2)c2ccccc21

>  <score_type>  (59) 
oracle

>  <origin>  (59) 
autodockgpu

>  <m_score__min__energy>  (59) 
-8.3300000000000001

>  <m_primary>  (59) 
energy

>  <meeko>  (59) 
{"free_energy": -8.28, "intermolecular_energy": -9.17, "internal_energy": -1.18, "cluster_size": 15, "cluster_id": 1, "rank_in_cluster": 13}

>  <energy>  (59) 
-8.02

>  <cluster_rmsd>  (59) 
1.12

>  <rmsd>  (59) 
272.22

>  <cluster>  (59) 
2

$$$$
ABNVVKAVWJYHCL-DFBJGRDBNA-N
     RDKit          3D

 58 63  0  0  0  0  0  0  0  0999 V2000
  139.9260   76.0310  219.2240 O   0  0  0  0  0  0  0  0  0  0  0  0
  140.4300   76.0430  220.3790 C   0  0  0  0  0  0  0  0  0  0  0  0
  140.7850   77.3300  220.9990 C   0  0  0  0  0  0  0  0  0  0  0  0
  140.5410   78.5810  220.4330 C   0  0  0  0  0  0  0  0  0  0  0  0
  141.0660   79.4860  221.3300 C   0  0  0  0  0  0  0  0  0  0  0  0
  141.1170   80.8770  221.2900 C   0  0  0  0  0  0  0  0  0  0  0  0
  141.7400   81.5420  222.3620 C   0  0  0  0  0  0  0  0  0  0  0  0
  141.8120   82.8960  222.3650 F   0  0  0  0  0  0  0  0  0  0  0  0
  142.2950   80.8070  223.4330 C   0  0  0  0  0  0  0  0  0  0  0  0
  142.2300   79.4010  223.4430 C   0  0  0  0  0  0  0  0  0  0  0  0
  141.6010   78.7710  222.3700 C   0  0  0  0  0  0  0  0  0  0  0  0
  141.4410   77.4510  222.1780 N   0  0  0  0  0  0  0  0  0  0  0  0
  140.6230   74.8060  221.0840 N   0  0  0  0  0  0  0  0  0  0  0  0
  139.5320   74.0740  221.7350 C   0  0  0  0  0  0  0  0  0  0  0  0
  140.0730   72.6290  221.9970 C   0  0  2  0  0  0  0  0  0  0  0  0
  139.2180   71.5270  221.3820 C   0  0  0  0  0  0  0  0  0  0  0  0
  139.2980   70.3630  222.3680 C   0  0  0  0  0  0  0  0  0  0  0  0
  140.0970   70.7890  223.5380 N   0  0  0  0  0  0  0  0  0  0  0  0
  139.5550   70.2570  224.8210 C   0  0  1  0  0  0  0  0  0  0  0  0
  139.2540   68.7350  224.6850 C   0  0  0  0  0  0  0  0  0  0  0  0
  139.4080   67.9920  226.0140 C   0  0  0  0  0  0  0  0  0  0  0  0
  140.8390   68.1490  226.5700 C   0  0  0  0  0  0  0  0  0  0  0  0
  141.4950   69.4060  226.1590 N   0  0  0  0  0  0  0  0  0  0  0  0
  140.5300   70.5030  226.0140 C   0  0  0  0  0  0  0  0  0  0  0  0
  140.1250   72.2590  223.4760 C   0  0  0  0  0  0  0  0  0  0  0  0
  141.4510   72.6710  221.3900 C   0  0  0  0  0  0  0  0  0  0  0  0
  142.4090   71.6520  221.3220 C   0  0  0  0  0  0  0  0  0  0  0  0
  143.6510   71.9320  220.7320 C   0  0  0  0  0  0  0  0  0  0  0  0
  143.9220   73.2180  220.2280 C   0  0  0  0  0  0  0  0  0  0  0  0
  142.9500   74.2270  220.3090 C   0  0  0  0  0  0  0  0  0  0  0  0
  141.7140   73.9200  220.8880 C   0  0  0  0  0  0  0  0  0  0  0  0
  140.0389   78.7981  219.4786 H   0  0  0  0  0  0  0  0  0  0  0  0
  140.6845   81.4374  220.4480 H   0  0  0  0  0  0  0  0  0  0  0  0
  142.7814   81.3372  224.2651 H   0  0  0  0  0  0  0  0  0  0  0  0
  142.6613   78.8183  224.2703 H   0  0  0  0  0  0  0  0  0  0  0  0
  141.7920   76.6850  222.7950 H   0  0  0  0  0  0  0  0  0  0  0  0
  139.2612   74.5581  222.6849 H   0  0  0  0  0  0  0  0  0  0  0  0
  138.6292   74.0568  221.1068 H   0  0  0  0  0  0  0  0  0  0  0  0
  138.1774   71.8646  221.2669 H   0  0  0  0  0  0  0  0  0  0  0  0
  139.5711   71.2427  220.3798 H   0  0  0  0  0  0  0  0  0  0  0  0
  138.2853   70.0826  222.6932 H   0  0  0  0  0  0  0  0  0  0  0  0
  139.7710   69.4945  221.8863 H   0  0  0  0  0  0  0  0  0  0  0  0
  138.6226   70.7996  225.0359 H   0  0  0  0  0  0  0  0  0  0  0  0
  138.2216   68.6091  224.3268 H   0  0  0  0  0  0  0  0  0  0  0  0
  139.9796   68.3103  223.9757 H   0  0  0  0  0  0  0  0  0  0  0  0
  138.6920   68.4025  226.7412 H   0  0  0  0  0  0  0  0  0  0  0  0
  139.2124   66.9230  225.8438 H   0  0  0  0  0  0  0  0  0  0  0  0
  140.7905   68.1245  227.6687 H   0  0  0  0  0  0  0  0  0  0  0  0
  141.4380   67.3222  226.1607 H   0  0  0  0  0  0  0  0  0  0  0  0
  141.9760   69.2600  225.2400 H   0  0  0  0  0  0  0  0  0  0  0  0
  139.9447   70.5884  226.9415 H   0  0  0  0  0  0  0  0  0  0  0  0
  141.0894   71.4291  225.8155 H   0  0  0  0  0  0  0  0  0  0  0  0
  139.2559   72.6786  224.0039 H   0  0  0  0  0  0  0  0  0  0  0  0
  141.0294   72.6611  223.9560 H   0  0  0  0  0  0  0  0  0  0  0  0
  142.1921   70.6511  221.7234 H   0  0  0  0  0  0  0  0  0  0  0  0
  144.4153   71.1439  220.6631 H   0  0  0  0  0  0  0  0  0  0  0  0
  144.8985   73.4327  219.7693 H   0  0  0  0  0  0  0  0  0  0  0  0
  143.1555   75.2373  219.9256 H   0  0  0  0  0  0  0  0  0  0  0  0
  1  2  2  0
  2  3  1  0
  3  4  2  0
  4  5  1  0
  5  6  2  0
  6  7  1  0
  7  8  1  0
  7  9  2  0
  9 10  1  0
 10 11  2  0
 11 12  1  0
  2 13  1  0
 13 14  1  0
 15 14  1  1
 15 16  1  0
 16 17  1  0
 17 18  1  0
 18 19  1  0
 19 20  1  0
 20 21  1  0
 21 22  1  0
 22 23  1  0
 23 24  1  0
 18 25  1  0
 15 26  1  0
 26 27  2  0
 27 28  1  0
 28 29  2  0
 29 30  1  0
 30 31  2  0
 12  3  1  0
 31 13  1  0
 11  5  1  0
 25 15  1  0
 31 26  1  0
 24 19  1  0
  4 32  1  0
  6 33  1  0
  9 34  1  0
 10 35  1  0
 12 36  1  0
 14 37  1  0
 14 38  1  0
 16 39  1  0
 16 40  1  0
 17 41  1  0
 17 42  1  0
 19 43  1  1
 20 44  1  0
 20 45  1  0
 21 46  1  0
 21 47  1  0
 22 48  1  0
 22 49  1  0
 23 50  1  0
 24 51  1  0
 24 52  1  0
 25 53  1  0
 25 54  1  0
 27 55  1  0
 28 56  1  0
 29 57  1  0
 30 58  1  0
M  END
>  <UniqueID>  (60) 
24

>  <SMILES>  (60) 
O=C(c1cc2cc(F)ccc2[nH]1)N1C[C@@]2(CCN([C@H]3CCCNC3)C2)c2ccccc21

>  <Energy>  (60) 
130.46795265963146

>  <Genealogy>  (60) 
O=C(c1cc2cc(F)ccc2[nH]1)N1C[C@@]2(CCN([C@H]3CCCNC3)C2)c2ccccc21 (chirality)
O=C(c1cc2cc(F)ccc2[nH]1)N1C[C@@]2(CCN([C@H]3CCCNC3)C2)c2ccccc21 (3D coordinates assigned)
O=C(c1cc2cc(F)ccc2[nH]1)N1C[C@@]2(CCN([C@H]3CCCNC3)C2)c2ccccc21 (nonaromatic ring conformer: 130.46795265963146 kcal/mol)

>  <smiles>  (60) 
O=C(c1cc2cc(F)ccc2[nH]1)N1C[C@@]2(CCN(C3CCCNC3)C2)c2ccccc21

>  <score_type>  (60) 
oracle

>  <origin>  (60) 
autodockgpu

>  <m_score__min__energy>  (60) 
-8.3300000000000001

>  <m_primary>  (60) 
energy

>  <meeko>  (60) 
{"free_energy": -8.32, "intermolecular_energy": -9.21, "internal_energy": -1.07, "cluster_size": 15, "cluster_id": 1, "rank_in_cluster": 2}

>  <energy>  (60) 
-8.02

>  <cluster_rmsd>  (60) 
1.12

>  <rmsd>  (60) 
272.24

>  <cluster>  (60) 
2

$$$$
ABNVVKAVWJYHCL-MBCOAKJTNA-O
     RDKit          3D

 59 64  0  0  0  0  0  0  0  0999 V2000
  139.7530   74.2980  222.2960 O   0  0  0  0  0  0  0  0  0  0  0  0
  140.5530   74.9470  221.5690 C   0  0  0  0  0  0  0  0  0  0  0  0
  141.7650   74.2900  221.0510 C   0  0  0  0  0  0  0  0  0  0  0  0
  141.8860   72.9270  220.7810 C   0  0  0  0  0  0  0  0  0  0  0  0
  143.1980   72.7580  220.3900 C   0  0  0  0  0  0  0  0  0  0  0  0
  143.8990   71.6030  220.0460 C   0  0  0  0  0  0  0  0  0  0  0  0
  145.2650   71.7380  219.7300 C   0  0  0  0  0  0  0  0  0  0  0  0
  145.9880   70.6410  219.3950 F   0  0  0  0  0  0  0  0  0  0  0  0
  145.8900   73.0040  219.7840 C   0  0  0  0  0  0  0  0  0  0  0  0
  145.1550   74.1490  220.1460 C   0  0  0  0  0  0  0  0  0  0  0  0
  143.8030   73.9890  220.4340 C   0  0  0  0  0  0  0  0  0  0  0  0
  142.9360   74.9340  220.8380 N   0  0  0  0  0  0  0  0  0  0  0  0
  140.2420   76.2990  221.2150 N   0  0  0  0  0  0  0  0  0  0  0  0
  139.6170   76.6770  219.9510 C   0  0  0  0  0  0  0  0  0  0  0  0
  139.7730   78.2360  219.8410 C   0  0  2  0  0  0  0  0  0  0  0  0
  138.4310   78.9550  219.7270 C   0  0  0  0  0  0  0  0  0  0  0  0
  138.7210   80.1510  218.8440 C   0  0  0  0  0  0  0  0  0  0  0  0
  139.7990   79.7630  217.9200 N   0  0  0  0  0  0  0  0  0  0  0  0
  140.6400   80.9170  217.5010 C   0  0  1  0  0  0  0  0  0  0  0  0
  141.3960   81.5260  218.7050 C   0  0  0  0  0  0  0  0  0  0  0  0
  142.1970   82.7720  218.2820 C   0  0  0  0  0  0  0  0  0  0  0  0
  142.6950   82.6820  216.8280 C   0  0  0  0  0  0  0  0  0  0  0  0
  142.9280   81.2850  216.4370 N   0  0  0  0  0  0  0  0  0  0  0  0
  141.6800   80.4930  216.4150 C   0  0  0  0  0  0  0  0  0  0  0  0
  140.5700   78.7010  218.6040 C   0  0  0  0  0  0  0  0  0  0  0  0
  140.4890   78.5890  221.1240 C   0  0  0  0  0  0  0  0  0  0  0  0
  140.9200   79.8450  221.5740 C   0  0  0  0  0  0  0  0  0  0  0  0
  141.5930   79.9260  222.8030 C   0  0  0  0  0  0  0  0  0  0  0  0
  141.8310   78.7640  223.5590 C   0  0  0  0  0  0  0  0  0  0  0  0
  141.4010   77.5150  223.0890 C   0  0  0  0  0  0  0  0  0  0  0  0
  140.7400   77.4590  221.8570 C   0  0  0  0  0  0  0  0  0  0  0  0
  141.1060   72.1557  220.8621 H   0  0  0  0  0  0  0  0  0  0  0  0
  143.4031   70.6214  220.0222 H   0  0  0  0  0  0  0  0  0  0  0  0
  146.9590   73.0958  219.5414 H   0  0  0  0  0  0  0  0  0  0  0  0
  145.6339   75.1378  220.1994 H   0  0  0  0  0  0  0  0  0  0  0  0
  143.1400   75.9480  220.9820 H   0  0  0  0  0  0  0  0  0  0  0  0
  140.1247   76.1817  219.1102 H   0  0  0  0  0  0  0  0  0  0  0  0
  138.5600   76.3742  219.9174 H   0  0  0  0  0  0  0  0  0  0  0  0
  137.6772   78.3019  219.2632 H   0  0  0  0  0  0  0  0  0  0  0  0
  138.0250   79.2450  220.7073 H   0  0  0  0  0  0  0  0  0  0  0  0
  137.8200   80.4269  218.2764 H   0  0  0  0  0  0  0  0  0  0  0  0
  139.0216   81.0183  219.4502 H   0  0  0  0  0  0  0  0  0  0  0  0
  139.9593   81.6713  217.0796 H   0  0  0  0  0  0  0  0  0  0  0  0
  140.6686   81.8119  219.4790 H   0  0  0  0  0  0  0  0  0  0  0  0
  142.0981   80.7740  219.0943 H   0  0  0  0  0  0  0  0  0  0  0  0
  141.5517   83.6574  218.3805 H   0  0  0  0  0  0  0  0  0  0  0  0
  143.0790   82.8423  218.9355 H   0  0  0  0  0  0  0  0  0  0  0  0
  141.9386   83.1210  216.1608 H   0  0  0  0  0  0  0  0  0  0  0  0
  143.6446   83.2314  216.7481 H   0  0  0  0  0  0  0  0  0  0  0  0
  143.3630   81.2640  215.4840 H   0  0  0  0  0  0  0  0  0  0  0  0
  143.6080   80.8480  217.1050 H   0  0  0  0  0  0  0  0  0  0  0  0
  141.2138   80.6092  215.4254 H   0  0  0  0  0  0  0  0  0  0  0  0
  141.9598   79.4514  216.6313 H   0  0  0  0  0  0  0  0  0  0  0  0
  140.7211   77.8530  217.9198 H   0  0  0  0  0  0  0  0  0  0  0  0
  141.5524   79.0880  218.9125 H   0  0  0  0  0  0  0  0  0  0  0  0
  140.7343   80.7491  220.9756 H   0  0  0  0  0  0  0  0  0  0  0  0
  141.9357   80.9022  223.1765 H   0  0  0  0  0  0  0  0  0  0  0  0
  142.3565   78.8354  224.5227 H   0  0  0  0  0  0  0  0  0  0  0  0
  141.5790   76.6011  223.6747 H   0  0  0  0  0  0  0  0  0  0  0  0
  1  2  2  0
  2  3  1  0
  3  4  2  0
  4  5  1  0
  5  6  2  0
  6  7  1  0
  7  8  1  0
  7  9  2  0
  9 10  1  0
 10 11  2  0
 11 12  1  0
  2 13  1  0
 13 14  1  0
 15 14  1  6
 15 16  1  0
 16 17  1  0
 17 18  1  0
 18 19  1  0
 19 20  1  0
 20 21  1  0
 21 22  1  0
 22 23  1  0
 23 24  1  0
 18 25  1  0
 15 26  1  0
 26 27  2  0
 27 28  1  0
 28 29  2  0
 29 30  1  0
 30 31  2  0
 12  3  1  0
 31 13  1  0
 11  5  1  0
 25 15  1  0
 31 26  1  0
 24 19  1  0
  4 32  1  0
  6 33  1  0
  9 34  1  0
 10 35  1  0
 12 36  1  0
 14 37  1  0
 14 38  1  0
 16 39  1  0
 16 40  1  0
 17 41  1  0
 17 42  1  0
 19 43  1  6
 20 44  1  0
 20 45  1  0
 21 46  1  0
 21 47  1  0
 22 48  1  0
 22 49  1  0
 23 50  1  0
 23 51  1  0
 24 52  1  0
 24 53  1  0
 25 54  1  0
 25 55  1  0
 27 56  1  0
 28 57  1  0
 29 58  1  0
 30 59  1  0
M  CHG  1  23   1
M  END
>  <UniqueID>  (61) 
25

>  <SMILES>  (61) 
O=C(c1cc2cc(F)ccc2[nH]1)N1C[C@@]2(CCN([C@H]3CCC[NH2+]C3)C2)c2ccccc21

>  <Energy>  (61) 
131.17729598973577

>  <Genealogy>  (61) 
O=C(c1cc2cc(F)ccc2[nH]1)N1C[C@@]2(CCN(C3CCC[NH2+]C3)C2)c2ccccc21 (protonated)
O=C(c1cc2cc(F)ccc2[nH]1)N1C[C@@]2(CCN([C@H]3CCC[NH2+]C3)C2)c2ccccc21 (chirality)
O=C(c1cc2cc(F)ccc2[nH]1)N1C[C@@]2(CCN([C@H]3CCC[NH2+]C3)C2)c2ccccc21 (3D coordinates assigned)
O=C(c1cc2cc(F)ccc2[nH]1)N1C[C@@]2(CCN([C@H]3CCC[NH2+]C3)C2)c2ccccc21 (nonaromatic ring conformer: 131.17729598973577 kcal/mol)

>  <smiles>  (61) 
O=C(c1cc2cc(F)ccc2[nH]1)N1C[C@@]2(CCN(C3CCCNC3)C2)c2ccccc21

>  <score_type>  (61) 
oracle

>  <origin>  (61) 
autodockgpu

>  <m_score__min__energy>  (61) 
-8.9900000000000002

>  <m_primary>  (61) 
energy

>  <meeko>  (61) 
{"free_energy": -8.97, "intermolecular_energy": -9.87, "internal_energy": -1.09, "cluster_size": 9, "cluster_id": 1, "rank_in_cluster": 3}

>  <energy>  (61) 
-8.99

>  <cluster_rmsd>  (61) 
0.0

>  <rmsd>  (61) 
269.79

>  <cluster>  (61) 
1

$$$$
ABNVVKAVWJYHCL-MBCOAKJTNA-O
     RDKit          3D

 59 64  0  0  0  0  0  0  0  0999 V2000
  139.4900   74.5760  222.3240 O   0  0  0  0  0  0  0  0  0  0  0  0
  140.3290   75.1750  221.6010 C   0  0  0  0  0  0  0  0  0  0  0  0
  141.5030   74.4470  221.0890 C   0  0  0  0  0  0  0  0  0  0  0  0
  141.5740   73.0650  220.9060 C   0  0  0  0  0  0  0  0  0  0  0  0
  142.8660   72.8290  220.4860 C   0  0  0  0  0  0  0  0  0  0  0  0
  143.5200   71.6330  220.1960 C   0  0  0  0  0  0  0  0  0  0  0  0
  144.8770   71.7020  219.8280 C   0  0  0  0  0  0  0  0  0  0  0  0
  145.5560   70.5630  219.5440 F   0  0  0  0  0  0  0  0  0  0  0  0
  145.5420   72.9480  219.7780 C   0  0  0  0  0  0  0  0  0  0  0  0
  144.8540   74.1370  220.0870 C   0  0  0  0  0  0  0  0  0  0  0  0
  143.5090   74.0410  220.4280 C   0  0  0  0  0  0  0  0  0  0  0  0
  142.6850   75.0380  220.7950 N   0  0  0  0  0  0  0  0  0  0  0  0
  140.1010   76.5420  221.2440 N   0  0  0  0  0  0  0  0  0  0  0  0
  139.4400   76.9530  220.0080 C   0  0  0  0  0  0  0  0  0  0  0  0
  139.7040   78.4950  219.8690 C   0  0  2  0  0  0  0  0  0  0  0  0
  138.4150   79.3100  219.8130 C   0  0  0  0  0  0  0  0  0  0  0  0
  138.7460   80.4720  218.9000 C   0  0  0  0  0  0  0  0  0  0  0  0
  139.7420   79.9950  217.9280 N   0  0  0  0  0  0  0  0  0  0  0  0
  140.6430   81.0800  217.4490 C   0  0  1  0  0  0  0  0  0  0  0  0
  141.4210   81.7200  218.6220 C   0  0  0  0  0  0  0  0  0  0  0  0
  142.2860   82.8970  218.1350 C   0  0  0  0  0  0  0  0  0  0  0  0
  142.7880   82.6980  216.6930 C   0  0  0  0  0  0  0  0  0  0  0  0
  142.9530   81.2700  216.3860 N   0  0  0  0  0  0  0  0  0  0  0  0
  141.6660   80.5410  216.3990 C   0  0  0  0  0  0  0  0  0  0  0  0
  140.4670   78.8860  218.5850 C   0  0  0  0  0  0  0  0  0  0  0  0
  140.5110   78.8070  221.1080 C   0  0  0  0  0  0  0  0  0  0  0  0
  141.0560   80.0320  221.5170 C   0  0  0  0  0  0  0  0  0  0  0  0
  141.7960   80.0750  222.7080 C   0  0  0  0  0  0  0  0  0  0  0  0
  141.9870   78.9070  223.4680 C   0  0  0  0  0  0  0  0  0  0  0  0
  141.4430   77.6880  223.0390 C   0  0  0  0  0  0  0  0  0  0  0  0
  140.7160   77.6690  221.8430 C   0  0  0  0  0  0  0  0  0  0  0  0
  140.7744   72.3260  221.0626 H   0  0  0  0  0  0  0  0  0  0  0  0
  142.9941   70.6685  220.2527 H   0  0  0  0  0  0  0  0  0  0  0  0
  146.6044   72.9892  219.4957 H   0  0  0  0  0  0  0  0  0  0  0  0
  145.3642   75.1112  220.0596 H   0  0  0  0  0  0  0  0  0  0  0  0
  142.9240   76.0520  220.8660 H   0  0  0  0  0  0  0  0  0  0  0  0
  139.8655   76.4133  219.1491 H   0  0  0  0  0  0  0  0  0  0  0  0
  138.3634   76.7288  220.0327 H   0  0  0  0  0  0  0  0  0  0  0  0
  137.5923   78.7098  219.3971 H   0  0  0  0  0  0  0  0  0  0  0  0
  138.0825   79.6393  220.8085 H   0  0  0  0  0  0  0  0  0  0  0  0
  137.8396   80.8087  218.3756 H   0  0  0  0  0  0  0  0  0  0  0  0
  139.1411   81.3207  219.4776 H   0  0  0  0  0  0  0  0  0  0  0  0
  140.0042   81.8417  216.9780 H   0  0  0  0  0  0  0  0  0  0  0  0
  140.7041   82.0867  219.3714 H   0  0  0  0  0  0  0  0  0  0  0  0
  142.0820   80.9580  219.0607 H   0  0  0  0  0  0  0  0  0  0  0  0
  141.6855   83.8177  218.1763 H   0  0  0  0  0  0  0  0  0  0  0  0
  143.1665   82.9608  218.7913 H   0  0  0  0  0  0  0  0  0  0  0  0
  142.0587   83.1343  215.9946 H   0  0  0  0  0  0  0  0  0  0  0  0
  143.7643   83.1942  216.5897 H   0  0  0  0  0  0  0  0  0  0  0  0
  143.3920   81.1720  215.4400 H   0  0  0  0  0  0  0  0  0  0  0  0
  143.6050   80.8400  217.0850 H   0  0  0  0  0  0  0  0  0  0  0  0
  141.2121   80.6220  215.4003 H   0  0  0  0  0  0  0  0  0  0  0  0
  141.8913   79.5011  216.6779 H   0  0  0  0  0  0  0  0  0  0  0  0
  140.5179   78.0221  217.9060 H   0  0  0  0  0  0  0  0  0  0  0  0
  141.4906   79.2010  218.8359 H   0  0  0  0  0  0  0  0  0  0  0  0
  140.9064   80.9412  220.9162 H   0  0  0  0  0  0  0  0  0  0  0  0
  142.2290   81.0269  223.0492 H   0  0  0  0  0  0  0  0  0  0  0  0
  142.5654   78.9500  224.4026 H   0  0  0  0  0  0  0  0  0  0  0  0
  141.5840   76.7695  223.6276 H   0  0  0  0  0  0  0  0  0  0  0  0
  1  2  2  0
  2  3  1  0
  3  4  2  0
  4  5  1  0
  5  6  2  0
  6  7  1  0
  7  8  1  0
  7  9  2  0
  9 10  1  0
 10 11  2  0
 11 12  1  0
  2 13  1  0
 13 14  1  0
 15 14  1  6
 15 16  1  0
 16 17  1  0
 17 18  1  0
 18 19  1  0
 19 20  1  0
 20 21  1  0
 21 22  1  0
 22 23  1  0
 23 24  1  0
 18 25  1  0
 15 26  1  0
 26 27  2  0
 27 28  1  0
 28 29  2  0
 29 30  1  0
 30 31  2  0
 12  3  1  0
 31 13  1  0
 11  5  1  0
 25 15  1  0
 31 26  1  0
 24 19  1  0
  4 32  1  0
  6 33  1  0
  9 34  1  0
 10 35  1  0
 12 36  1  0
 14 37  1  0
 14 38  1  0
 16 39  1  0
 16 40  1  0
 17 41  1  0
 17 42  1  0
 19 43  1  6
 20 44  1  0
 20 45  1  0
 21 46  1  0
 21 47  1  0
 22 48  1  0
 22 49  1  0
 23 50  1  0
 23 51  1  0
 24 52  1  0
 24 53  1  0
 25 54  1  0
 25 55  1  0
 27 56  1  0
 28 57  1  0
 29 58  1  0
 30 59  1  0
M  CHG  1  23   1
M  END
>  <UniqueID>  (62) 
25

>  <SMILES>  (62) 
O=C(c1cc2cc(F)ccc2[nH]1)N1C[C@@]2(CCN([C@H]3CCC[NH2+]C3)C2)c2ccccc21

>  <Energy>  (62) 
131.17729598973577

>  <Genealogy>  (62) 
O=C(c1cc2cc(F)ccc2[nH]1)N1C[C@@]2(CCN(C3CCC[NH2+]C3)C2)c2ccccc21 (protonated)
O=C(c1cc2cc(F)ccc2[nH]1)N1C[C@@]2(CCN([C@H]3CCC[NH2+]C3)C2)c2ccccc21 (chirality)
O=C(c1cc2cc(F)ccc2[nH]1)N1C[C@@]2(CCN([C@H]3CCC[NH2+]C3)C2)c2ccccc21 (3D coordinates assigned)
O=C(c1cc2cc(F)ccc2[nH]1)N1C[C@@]2(CCN([C@H]3CCC[NH2+]C3)C2)c2ccccc21 (nonaromatic ring conformer: 131.17729598973577 kcal/mol)

>  <smiles>  (62) 
O=C(c1cc2cc(F)ccc2[nH]1)N1C[C@@]2(CCN(C3CCCNC3)C2)c2ccccc21

>  <score_type>  (62) 
oracle

>  <origin>  (62) 
autodockgpu

>  <m_score__min__energy>  (62) 
-8.9900000000000002

>  <m_primary>  (62) 
energy

>  <meeko>  (62) 
{"free_energy": -8.88, "intermolecular_energy": -9.77, "internal_energy": -1.1, "cluster_size": 9, "cluster_id": 1, "rank_in_cluster": 8}

>  <energy>  (62) 
-8.97

>  <cluster_rmsd>  (62) 
0.03

>  <rmsd>  (62) 
269.8

>  <cluster>  (62) 
1

$$$$
ABNVVKAVWJYHCL-MBCOAKJTNA-O
     RDKit          3D

 59 64  0  0  0  0  0  0  0  0999 V2000
  139.4600   71.5190  220.7990 O   0  0  0  0  0  0  0  0  0  0  0  0
  139.9690   72.1060  221.7910 C   0  0  0  0  0  0  0  0  0  0  0  0
  139.9930   71.4330  223.1010 C   0  0  0  0  0  0  0  0  0  0  0  0
  140.6840   71.8880  224.2250 C   0  0  0  0  0  0  0  0  0  0  0  0
  140.4810   70.9170  225.1830 C   0  0  0  0  0  0  0  0  0  0  0  0
  140.9710   70.8120  226.4840 C   0  0  0  0  0  0  0  0  0  0  0  0
  140.6240   69.6630  227.2220 C   0  0  0  0  0  0  0  0  0  0  0  0
  141.0820   69.5150  228.4890 F   0  0  0  0  0  0  0  0  0  0  0  0
  139.8230   68.6550  226.6410 C   0  0  0  0  0  0  0  0  0  0  0  0
  139.3540   68.7870  225.3200 C   0  0  0  0  0  0  0  0  0  0  0  0
  139.6950   69.9410  224.6210 C   0  0  0  0  0  0  0  0  0  0  0  0
  139.3910   70.2460  223.3480 N   0  0  0  0  0  0  0  0  0  0  0  0
  140.5640   73.3960  221.6160 N   0  0  0  0  0  0  0  0  0  0  0  0
  139.8220   74.6480  221.7380 C   0  0  0  0  0  0  0  0  0  0  0  0
  140.7570   75.7630  221.1440 C   0  0  2  0  0  0  0  0  0  0  0  0
  141.0820   76.8580  222.1560 C   0  0  0  0  0  0  0  0  0  0  0  0
  141.1980   78.1160  221.3210 C   0  0  0  0  0  0  0  0  0  0  0  0
  140.2880   77.9670  220.1740 N   0  0  0  0  0  0  0  0  0  0  0  0
  140.7520   78.7120  218.9720 C   0  0  1  0  0  0  0  0  0  0  0  0
  140.9350   80.2160  219.2820 C   0  0  0  0  0  0  0  0  0  0  0  0
  141.3320   80.9970  218.0150 C   0  0  0  0  0  0  0  0  0  0  0  0
  142.1670   80.1470  217.0400 C   0  0  0  0  0  0  0  0  0  0  0  0
  142.9560   79.1410  217.7630 N   0  0  0  0  0  0  0  0  0  0  0  0
  142.1040   78.1390  218.4400 C   0  0  0  0  0  0  0  0  0  0  0  0
  140.1500   76.5130  219.9400 C   0  0  0  0  0  0  0  0  0  0  0  0
  141.9900   74.9850  220.7460 C   0  0  0  0  0  0  0  0  0  0  0  0
  143.1630   75.4490  220.1370 C   0  0  0  0  0  0  0  0  0  0  0  0
  144.1780   74.5260  219.8370 C   0  0  0  0  0  0  0  0  0  0  0  0
  144.0090   73.1640  220.1410 C   0  0  0  0  0  0  0  0  0  0  0  0
  142.8240   72.7150  220.7420 C   0  0  0  0  0  0  0  0  0  0  0  0
  141.8240   73.6530  221.0230 C   0  0  0  0  0  0  0  0  0  0  0  0
  141.2636   72.8176  224.3249 H   0  0  0  0  0  0  0  0  0  0  0  0
  141.6058   71.5981  226.9188 H   0  0  0  0  0  0  0  0  0  0  0  0
  139.5636   67.7598  227.2252 H   0  0  0  0  0  0  0  0  0  0  0  0
  138.7378   68.0031  224.8554 H   0  0  0  0  0  0  0  0  0  0  0  0
  138.8300   69.6680  222.6840 H   0  0  0  0  0  0  0  0  0  0  0  0
  138.8826   74.5930  221.1684 H   0  0  0  0  0  0  0  0  0  0  0  0
  139.5561   74.8593  222.7842 H   0  0  0  0  0  0  0  0  0  0  0  0
  140.2753   76.9554  222.8975 H   0  0  0  0  0  0  0  0  0  0  0  0
  141.9987   76.6454  222.7257 H   0  0  0  0  0  0  0  0  0  0  0  0
  140.9088   78.9926  221.9193 H   0  0  0  0  0  0  0  0  0  0  0  0
  142.2334   78.2620  220.9795 H   0  0  0  0  0  0  0  0  0  0  0  0
  139.9762   78.5907  218.2017 H   0  0  0  0  0  0  0  0  0  0  0  0
  139.9894   80.6204  219.6722 H   0  0  0  0  0  0  0  0  0  0  0  0
  141.7374   80.3250  220.0265 H   0  0  0  0  0  0  0  0  0  0  0  0
  140.4166   81.3266  217.5017 H   0  0  0  0  0  0  0  0  0  0  0  0
  141.9488   81.8525  218.3275 H   0  0  0  0  0  0  0  0  0  0  0  0
  141.4913   79.6375  216.3372 H   0  0  0  0  0  0  0  0  0  0  0  0
  142.8568   80.8107  216.4981 H   0  0  0  0  0  0  0  0  0  0  0  0
  143.5880   78.6500  217.0870 H   0  0  0  0  0  0  0  0  0  0  0  0
  143.5610   79.6210  218.4730 H   0  0  0  0  0  0  0  0  0  0  0  0
  141.8810   77.3340  217.7243 H   0  0  0  0  0  0  0  0  0  0  0  0
  142.6658   77.7825  219.3159 H   0  0  0  0  0  0  0  0  0  0  0  0
  139.0860   76.2529  219.8390 H   0  0  0  0  0  0  0  0  0  0  0  0
  140.6745   76.2288  219.0158 H   0  0  0  0  0  0  0  0  0  0  0  0
  143.2867   76.5156  219.8984 H   0  0  0  0  0  0  0  0  0  0  0  0
  145.1088   74.8701  219.3624 H   0  0  0  0  0  0  0  0  0  0  0  0
  144.8097   72.4472  219.9065 H   0  0  0  0  0  0  0  0  0  0  0  0
  142.6840   71.6517  220.9865 H   0  0  0  0  0  0  0  0  0  0  0  0
  1  2  2  0
  2  3  1  0
  3  4  2  0
  4  5  1  0
  5  6  2  0
  6  7  1  0
  7  8  1  0
  7  9  2  0
  9 10  1  0
 10 11  2  0
 11 12  1  0
  2 13  1  0
 13 14  1  0
 15 14  1  1
 15 16  1  0
 16 17  1  0
 17 18  1  0
 18 19  1  0
 19 20  1  0
 20 21  1  0
 21 22  1  0
 22 23  1  0
 23 24  1  0
 18 25  1  0
 15 26  1  0
 26 27  2  0
 27 28  1  0
 28 29  2  0
 29 30  1  0
 30 31  2  0
 12  3  1  0
 31 13  1  0
 11  5  1  0
 25 15  1  0
 31 26  1  0
 24 19  1  0
  4 32  1  0
  6 33  1  0
  9 34  1  0
 10 35  1  0
 12 36  1  0
 14 37  1  0
 14 38  1  0
 16 39  1  0
 16 40  1  0
 17 41  1  0
 17 42  1  0
 19 43  1  6
 20 44  1  0
 20 45  1  0
 21 46  1  0
 21 47  1  0
 22 48  1  0
 22 49  1  0
 23 50  1  0
 23 51  1  0
 24 52  1  0
 24 53  1  0
 25 54  1  0
 25 55  1  0
 27 56  1  0
 28 57  1  0
 29 58  1  0
 30 59  1  0
M  CHG  1  23   1
M  END
>  <UniqueID>  (63) 
25

>  <SMILES>  (63) 
O=C(c1cc2cc(F)ccc2[nH]1)N1C[C@@]2(CCN([C@H]3CCC[NH2+]C3)C2)c2ccccc21

>  <Energy>  (63) 
131.17729598973577

>  <Genealogy>  (63) 
O=C(c1cc2cc(F)ccc2[nH]1)N1C[C@@]2(CCN(C3CCC[NH2+]C3)C2)c2ccccc21 (protonated)
O=C(c1cc2cc(F)ccc2[nH]1)N1C[C@@]2(CCN([C@H]3CCC[NH2+]C3)C2)c2ccccc21 (chirality)
O=C(c1cc2cc(F)ccc2[nH]1)N1C[C@@]2(CCN([C@H]3CCC[NH2+]C3)C2)c2ccccc21 (3D coordinates assigned)
O=C(c1cc2cc(F)ccc2[nH]1)N1C[C@@]2(CCN([C@H]3CCC[NH2+]C3)C2)c2ccccc21 (nonaromatic ring conformer: 131.17729598973577 kcal/mol)

>  <smiles>  (63) 
O=C(c1cc2cc(F)ccc2[nH]1)N1C[C@@]2(CCN(C3CCCNC3)C2)c2ccccc21

>  <score_type>  (63) 
oracle

>  <origin>  (63) 
autodockgpu

>  <m_score__min__energy>  (63) 
-8.9900000000000002

>  <m_primary>  (63) 
energy

>  <meeko>  (63) 
{"free_energy": -8.79, "intermolecular_energy": -9.68, "internal_energy": -1.08, "cluster_size": 11, "cluster_id": 2, "rank_in_cluster": 8}

>  <energy>  (63) 
-8.97

>  <cluster_rmsd>  (63) 
0.03

>  <rmsd>  (63) 
269.79

>  <cluster>  (63) 
1

$$$$
ABNVVKAVWJYHCL-MBCOAKJTNA-O
     RDKit          3D

 59 64  0  0  0  0  0  0  0  0999 V2000
  139.6920   74.2870  222.3220 O   0  0  0  0  0  0  0  0  0  0  0  0
  140.5060   74.9340  221.6100 C   0  0  0  0  0  0  0  0  0  0  0  0
  141.7220   74.2710  221.1070 C   0  0  0  0  0  0  0  0  0  0  0  0
  141.8510   72.9020  220.8710 C   0  0  0  0  0  0  0  0  0  0  0  0
  143.1630   72.7320  220.4830 C   0  0  0  0  0  0  0  0  0  0  0  0
  143.8720   71.5740  220.1670 C   0  0  0  0  0  0  0  0  0  0  0  0
  145.2360   71.7090  219.8460 C   0  0  0  0  0  0  0  0  0  0  0  0
  145.9670   70.6100  219.5380 F   0  0  0  0  0  0  0  0  0  0  0  0
  145.8540   72.9810  219.8670 C   0  0  0  0  0  0  0  0  0  0  0  0
  145.1110   74.1290  220.2010 C   0  0  0  0  0  0  0  0  0  0  0  0
  143.7610   73.9690  220.4950 C   0  0  0  0  0  0  0  0  0  0  0  0
  142.8890   74.9180  220.8760 N   0  0  0  0  0  0  0  0  0  0  0  0
  140.2070   76.2880  221.2570 N   0  0  0  0  0  0  0  0  0  0  0  0
  139.5720   76.6720  219.9980 C   0  0  0  0  0  0  0  0  0  0  0  0
  139.7460   78.2280  219.8830 C   0  0  2  0  0  0  0  0  0  0  0  0
  138.4130   78.9640  219.7840 C   0  0  0  0  0  0  0  0  0  0  0  0
  138.7070   80.1540  218.8950 C   0  0  0  0  0  0  0  0  0  0  0  0
  139.7690   79.7500  217.9590 N   0  0  0  0  0  0  0  0  0  0  0  0
  140.6190   80.8930  217.5260 C   0  0  1  0  0  0  0  0  0  0  0  0
  141.3590   81.5250  218.7280 C   0  0  0  0  0  0  0  0  0  0  0  0
  142.1710   82.7600  218.2900 C   0  0  0  0  0  0  0  0  0  0  0  0
  142.6890   82.6380  216.8460 C   0  0  0  0  0  0  0  0  0  0  0  0
  142.9230   81.2320  216.4880 N   0  0  0  0  0  0  0  0  0  0  0  0
  141.6730   80.4420  216.4650 C   0  0  0  0  0  0  0  0  0  0  0  0
  140.5340   78.6800  218.6350 C   0  0  0  0  0  0  0  0  0  0  0  0
  140.4830   78.5750  221.1570 C   0  0  0  0  0  0  0  0  0  0  0  0
  140.9350   79.8260  221.5980 C   0  0  0  0  0  0  0  0  0  0  0  0
  141.6230   79.9010  222.8190 C   0  0  0  0  0  0  0  0  0  0  0  0
  141.8560   78.7390  223.5750 C   0  0  0  0  0  0  0  0  0  0  0  0
  141.4050   77.4930  223.1130 C   0  0  0  0  0  0  0  0  0  0  0  0
  140.7280   77.4430  221.8890 C   0  0  0  0  0  0  0  0  0  0  0  0
  141.0759   72.1280  220.9723 H   0  0  0  0  0  0  0  0  0  0  0  0
  143.3826   70.5889  220.1685 H   0  0  0  0  0  0  0  0  0  0  0  0
  146.9221   73.0738  219.6208 H   0  0  0  0  0  0  0  0  0  0  0  0
  145.5835   75.1220  220.2286 H   0  0  0  0  0  0  0  0  0  0  0  0
  143.0850   75.9360  220.9940 H   0  0  0  0  0  0  0  0  0  0  0  0
  140.0641   76.1688  219.1526 H   0  0  0  0  0  0  0  0  0  0  0  0
  138.5110   76.3824  219.9769 H   0  0  0  0  0  0  0  0  0  0  0  0
  137.6450   78.3197  219.3311 H   0  0  0  0  0  0  0  0  0  0  0  0
  138.0233   79.2615  220.7687 H   0  0  0  0  0  0  0  0  0  0  0  0
  137.8028   80.4399  218.3376 H   0  0  0  0  0  0  0  0  0  0  0  0
  139.0255   81.0190  219.4953 H   0  0  0  0  0  0  0  0  0  0  0  0
  139.9475   81.6400  217.0776 H   0  0  0  0  0  0  0  0  0  0  0  0
  140.6211   81.8296  219.4848 H   0  0  0  0  0  0  0  0  0  0  0  0
  142.0525   80.7793  219.1439 H   0  0  0  0  0  0  0  0  0  0  0  0
  141.5276   83.6494  218.3608 H   0  0  0  0  0  0  0  0  0  0  0  0
  143.0440   82.8410  218.9543 H   0  0  0  0  0  0  0  0  0  0  0  0
  141.9435   83.0649  216.1590 H   0  0  0  0  0  0  0  0  0  0  0  0
  143.6413   83.1830  216.7678 H   0  0  0  0  0  0  0  0  0  0  0  0
  143.3720   81.1890  215.5420 H   0  0  0  0  0  0  0  0  0  0  0  0
  143.5920   80.8070  217.1750 H   0  0  0  0  0  0  0  0  0  0  0  0
  141.2216   80.5371  215.4664 H   0  0  0  0  0  0  0  0  0  0  0  0
  141.9466   79.4047  216.7080 H   0  0  0  0  0  0  0  0  0  0  0  0
  140.6654   77.8288  217.9507 H   0  0  0  0  0  0  0  0  0  0  0  0
  141.5252   79.0544  218.9304 H   0  0  0  0  0  0  0  0  0  0  0  0
  140.7542   80.7309  220.9993 H   0  0  0  0  0  0  0  0  0  0  0  0
  141.9817   80.8739  223.1862 H   0  0  0  0  0  0  0  0  0  0  0  0
  142.3938   78.8066  224.5322 H   0  0  0  0  0  0  0  0  0  0  0  0
  141.5793   76.5782  223.6984 H   0  0  0  0  0  0  0  0  0  0  0  0
  1  2  2  0
  2  3  1  0
  3  4  2  0
  4  5  1  0
  5  6  2  0
  6  7  1  0
  7  8  1  0
  7  9  2  0
  9 10  1  0
 10 11  2  0
 11 12  1  0
  2 13  1  0
 13 14  1  0
 15 14  1  6
 15 16  1  0
 16 17  1  0
 17 18  1  0
 18 19  1  0
 19 20  1  0
 20 21  1  0
 21 22  1  0
 22 23  1  0
 23 24  1  0
 18 25  1  0
 15 26  1  0
 26 27  2  0
 27 28  1  0
 28 29  2  0
 29 30  1  0
 30 31  2  0
 12  3  1  0
 31 13  1  0
 11  5  1  0
 25 15  1  0
 31 26  1  0
 24 19  1  0
  4 32  1  0
  6 33  1  0
  9 34  1  0
 10 35  1  0
 12 36  1  0
 14 37  1  0
 14 38  1  0
 16 39  1  0
 16 40  1  0
 17 41  1  0
 17 42  1  0
 19 43  1  6
 20 44  1  0
 20 45  1  0
 21 46  1  0
 21 47  1  0
 22 48  1  0
 22 49  1  0
 23 50  1  0
 23 51  1  0
 24 52  1  0
 24 53  1  0
 25 54  1  0
 25 55  1  0
 27 56  1  0
 28 57  1  0
 29 58  1  0
 30 59  1  0
M  CHG  1  23   1
M  END
>  <UniqueID>  (64) 
25

>  <SMILES>  (64) 
O=C(c1cc2cc(F)ccc2[nH]1)N1C[C@@]2(CCN([C@H]3CCC[NH2+]C3)C2)c2ccccc21

>  <Energy>  (64) 
131.17729598973577

>  <Genealogy>  (64) 
O=C(c1cc2cc(F)ccc2[nH]1)N1C[C@@]2(CCN(C3CCC[NH2+]C3)C2)c2ccccc21 (protonated)
O=C(c1cc2cc(F)ccc2[nH]1)N1C[C@@]2(CCN([C@H]3CCC[NH2+]C3)C2)c2ccccc21 (chirality)
O=C(c1cc2cc(F)ccc2[nH]1)N1C[C@@]2(CCN([C@H]3CCC[NH2+]C3)C2)c2ccccc21 (3D coordinates assigned)
O=C(c1cc2cc(F)ccc2[nH]1)N1C[C@@]2(CCN([C@H]3CCC[NH2+]C3)C2)c2ccccc21 (nonaromatic ring conformer: 131.17729598973577 kcal/mol)

>  <smiles>  (64) 
O=C(c1cc2cc(F)ccc2[nH]1)N1C[C@@]2(CCN(C3CCCNC3)C2)c2ccccc21

>  <score_type>  (64) 
oracle

>  <origin>  (64) 
autodockgpu

>  <m_score__min__energy>  (64) 
-8.9900000000000002

>  <m_primary>  (64) 
energy

>  <meeko>  (64) 
{"free_energy": -8.88, "intermolecular_energy": -9.78, "internal_energy": -1.09, "cluster_size": 9, "cluster_id": 1, "rank_in_cluster": 7}

>  <energy>  (64) 
-8.97

>  <cluster_rmsd>  (64) 
0.02

>  <rmsd>  (64) 
269.8

>  <cluster>  (64) 
1

$$$$
ABNVVKAVWJYHCL-MBCOAKJTNA-O
     RDKit          3D

 59 64  0  0  0  0  0  0  0  0999 V2000
  139.3720   71.4980  220.8890 O   0  0  0  0  0  0  0  0  0  0  0  0
  139.9250   72.0810  221.8600 C   0  0  0  0  0  0  0  0  0  0  0  0
  139.9910   71.4120  223.1710 C   0  0  0  0  0  0  0  0  0  0  0  0
  140.6750   71.8970  224.2860 C   0  0  0  0  0  0  0  0  0  0  0  0
  140.5230   70.9190  225.2470 C   0  0  0  0  0  0  0  0  0  0  0  0
  141.0300   70.8360  226.5430 C   0  0  0  0  0  0  0  0  0  0  0  0
  140.7390   69.6760  227.2860 C   0  0  0  0  0  0  0  0  0  0  0  0
  141.2170   69.5480  228.5480 F   0  0  0  0  0  0  0  0  0  0  0  0
  139.9740   68.6340  226.7140 C   0  0  0  0  0  0  0  0  0  0  0  0
  139.4850   68.7450  225.3990 C   0  0  0  0  0  0  0  0  0  0  0  0
  139.7710   69.9110  224.6950 C   0  0  0  0  0  0  0  0  0  0  0  0
  139.4410   70.2010  223.4250 N   0  0  0  0  0  0  0  0  0  0  0  0
  140.5270   73.3640  221.6590 N   0  0  0  0  0  0  0  0  0  0  0  0
  139.7930   74.6230  221.7570 C   0  0  0  0  0  0  0  0  0  0  0  0
  140.7320   75.7200  221.1400 C   0  0  2  0  0  0  0  0  0  0  0  0
  141.0650   76.8340  222.1300 C   0  0  0  0  0  0  0  0  0  0  0  0
  141.1870   78.0750  221.2700 C   0  0  0  0  0  0  0  0  0  0  0  0
  140.2740   77.9080  220.1270 N   0  0  0  0  0  0  0  0  0  0  0  0
  140.7400   78.6260  218.9100 C   0  0  1  0  0  0  0  0  0  0  0  0
  140.8450   80.1480  219.1640 C   0  0  0  0  0  0  0  0  0  0  0  0
  141.2450   80.8970  217.8790 C   0  0  0  0  0  0  0  0  0  0  0  0
  142.1470   80.0490  216.9640 C   0  0  0  0  0  0  0  0  0  0  0  0
  142.9590   79.1090  217.7490 N   0  0  0  0  0  0  0  0  0  0  0  0
  142.1330   78.0960  218.4410 C   0  0  0  0  0  0  0  0  0  0  0  0
  140.1270   76.4500  219.9220 C   0  0  0  0  0  0  0  0  0  0  0  0
  141.9600   74.9280  220.7550 C   0  0  0  0  0  0  0  0  0  0  0  0
  143.1350   75.3730  220.1360 C   0  0  0  0  0  0  0  0  0  0  0  0
  144.1440   74.4390  219.8530 C   0  0  0  0  0  0  0  0  0  0  0  0
  143.9680   73.0840  220.1840 C   0  0  0  0  0  0  0  0  0  0  0  0
  142.7810   72.6540  220.7950 C   0  0  0  0  0  0  0  0  0  0  0  0
  141.7870   73.6030  221.0590 C   0  0  0  0  0  0  0  0  0  0  0  0
  141.2166   72.8500  224.3785 H   0  0  0  0  0  0  0  0  0  0  0  0
  141.6362   71.6484  226.9702 H   0  0  0  0  0  0  0  0  0  0  0  0
  139.7592   67.7291  227.3014 H   0  0  0  0  0  0  0  0  0  0  0  0
  138.8957   67.9362  224.9423 H   0  0  0  0  0  0  0  0  0  0  0  0
  138.8970   69.6000  222.7680 H   0  0  0  0  0  0  0  0  0  0  0  0
  138.8523   74.5622  221.1902 H   0  0  0  0  0  0  0  0  0  0  0  0
  139.5309   74.8567  222.7994 H   0  0  0  0  0  0  0  0  0  0  0  0
  140.2600   76.9507  222.8705 H   0  0  0  0  0  0  0  0  0  0  0  0
  141.9815   76.6275  222.7023 H   0  0  0  0  0  0  0  0  0  0  0  0
  140.9035   78.9649  221.8511 H   0  0  0  0  0  0  0  0  0  0  0  0
  142.2227   78.2087  220.9244 H   0  0  0  0  0  0  0  0  0  0  0  0
  139.9945   78.4387  218.1232 H   0  0  0  0  0  0  0  0  0  0  0  0
  139.8704   80.5228  219.5100 H   0  0  0  0  0  0  0  0  0  0  0  0
  141.6186   80.3230  219.9262 H   0  0  0  0  0  0  0  0  0  0  0  0
  140.3320   81.1638  217.3265 H   0  0  0  0  0  0  0  0  0  0  0  0
  141.8124   81.7919  218.1744 H   0  0  0  0  0  0  0  0  0  0  0  0
  141.5167   79.4817  216.2634 H   0  0  0  0  0  0  0  0  0  0  0  0
  142.8225   80.7226  216.4163 H   0  0  0  0  0  0  0  0  0  0  0  0
  143.6330   78.6230  217.1110 H   0  0  0  0  0  0  0  0  0  0  0  0
  143.5200   79.6440  218.4550 H   0  0  0  0  0  0  0  0  0  0  0  0
  141.9690   77.2540  217.7524 H   0  0  0  0  0  0  0  0  0  0  0  0
  142.6831   77.8008  219.3467 H   0  0  0  0  0  0  0  0  0  0  0  0
  139.0613   76.1942  219.8280 H   0  0  0  0  0  0  0  0  0  0  0  0
  140.6482   76.1445  219.0028 H   0  0  0  0  0  0  0  0  0  0  0  0
  143.2646   76.4341  219.8766 H   0  0  0  0  0  0  0  0  0  0  0  0
  145.0759   74.7685  219.3704 H   0  0  0  0  0  0  0  0  0  0  0  0
  144.7644   72.3582  219.9629 H   0  0  0  0  0  0  0  0  0  0  0  0
  142.6349   71.5965  221.0602 H   0  0  0  0  0  0  0  0  0  0  0  0
  1  2  2  0
  2  3  1  0
  3  4  2  0
  4  5  1  0
  5  6  2  0
  6  7  1  0
  7  8  1  0
  7  9  2  0
  9 10  1  0
 10 11  2  0
 11 12  1  0
  2 13  1  0
 13 14  1  0
 15 14  1  1
 15 16  1  0
 16 17  1  0
 17 18  1  0
 18 19  1  0
 19 20  1  0
 20 21  1  0
 21 22  1  0
 22 23  1  0
 23 24  1  0
 18 25  1  0
 15 26  1  0
 26 27  2  0
 27 28  1  0
 28 29  2  0
 29 30  1  0
 30 31  2  0
 12  3  1  0
 31 13  1  0
 11  5  1  0
 25 15  1  0
 31 26  1  0
 24 19  1  0
  4 32  1  0
  6 33  1  0
  9 34  1  0
 10 35  1  0
 12 36  1  0
 14 37  1  0
 14 38  1  0
 16 39  1  0
 16 40  1  0
 17 41  1  0
 17 42  1  0
 19 43  1  6
 20 44  1  0
 20 45  1  0
 21 46  1  0
 21 47  1  0
 22 48  1  0
 22 49  1  0
 23 50  1  0
 23 51  1  0
 24 52  1  0
 24 53  1  0
 25 54  1  0
 25 55  1  0
 27 56  1  0
 28 57  1  0
 29 58  1  0
 30 59  1  0
M  CHG  1  23   1
M  END
>  <UniqueID>  (65) 
25

>  <SMILES>  (65) 
O=C(c1cc2cc(F)ccc2[nH]1)N1C[C@@]2(CCN([C@H]3CCC[NH2+]C3)C2)c2ccccc21

>  <Energy>  (65) 
131.17729598973577

>  <Genealogy>  (65) 
O=C(c1cc2cc(F)ccc2[nH]1)N1C[C@@]2(CCN(C3CCC[NH2+]C3)C2)c2ccccc21 (protonated)
O=C(c1cc2cc(F)ccc2[nH]1)N1C[C@@]2(CCN([C@H]3CCC[NH2+]C3)C2)c2ccccc21 (chirality)
O=C(c1cc2cc(F)ccc2[nH]1)N1C[C@@]2(CCN([C@H]3CCC[NH2+]C3)C2)c2ccccc21 (3D coordinates assigned)
O=C(c1cc2cc(F)ccc2[nH]1)N1C[C@@]2(CCN([C@H]3CCC[NH2+]C3)C2)c2ccccc21 (nonaromatic ring conformer: 131.17729598973577 kcal/mol)

>  <smiles>  (65) 
O=C(c1cc2cc(F)ccc2[nH]1)N1C[C@@]2(CCN(C3CCCNC3)C2)c2ccccc21

>  <score_type>  (65) 
oracle

>  <origin>  (65) 
autodockgpu

>  <m_score__min__energy>  (65) 
-8.9900000000000002

>  <m_primary>  (65) 
energy

>  <meeko>  (65) 
{"free_energy": -8.8, "intermolecular_energy": -9.69, "internal_energy": -1.09, "cluster_size": 11, "cluster_id": 2, "rank_in_cluster": 4}

>  <energy>  (65) 
-8.97

>  <cluster_rmsd>  (65) 
0.04

>  <rmsd>  (65) 
269.81

>  <cluster>  (65) 
1

$$$$
ABNVVKAVWJYHCL-MBCOAKJTNA-O
     RDKit          3D

 59 64  0  0  0  0  0  0  0  0999 V2000
  139.7870   74.2730  222.3110 O   0  0  0  0  0  0  0  0  0  0  0  0
  140.5810   74.9250  221.5810 C   0  0  0  0  0  0  0  0  0  0  0  0
  141.7940   74.2710  221.0590 C   0  0  0  0  0  0  0  0  0  0  0  0
  141.9090   72.9130  220.7600 C   0  0  0  0  0  0  0  0  0  0  0  0
  143.2230   72.7440  220.3770 C   0  0  0  0  0  0  0  0  0  0  0  0
  143.9200   71.5930  220.0140 C   0  0  0  0  0  0  0  0  0  0  0  0
  145.2890   71.7250  219.7120 C   0  0  0  0  0  0  0  0  0  0  0  0
  146.0090   70.6320  219.3600 F   0  0  0  0  0  0  0  0  0  0  0  0
  145.9220   72.9860  219.8000 C   0  0  0  0  0  0  0  0  0  0  0  0
  145.1910   74.1280  220.1810 C   0  0  0  0  0  0  0  0  0  0  0  0
  143.8360   73.9710  220.4530 C   0  0  0  0  0  0  0  0  0  0  0  0
  142.9710   74.9120  220.8700 N   0  0  0  0  0  0  0  0  0  0  0  0
  140.2640   76.2750  221.2270 N   0  0  0  0  0  0  0  0  0  0  0  0
  139.6390   76.6510  219.9620 C   0  0  0  0  0  0  0  0  0  0  0  0
  139.7880   78.2100  219.8530 C   0  0  2  0  0  0  0  0  0  0  0  0
  138.4430   78.9230  219.7370 C   0  0  0  0  0  0  0  0  0  0  0  0
  138.7290   80.1210  218.8560 C   0  0  0  0  0  0  0  0  0  0  0  0
  139.8100   79.7380  217.9330 N   0  0  0  0  0  0  0  0  0  0  0  0
  140.6460   80.8960  217.5140 C   0  0  1  0  0  0  0  0  0  0  0  0
  141.3830   81.5190  218.7220 C   0  0  0  0  0  0  0  0  0  0  0  0
  142.1780   82.7690  218.3000 C   0  0  0  0  0  0  0  0  0  0  0  0
  142.6940   82.6730  216.8530 C   0  0  0  0  0  0  0  0  0  0  0  0
  142.9430   81.2750  216.4740 N   0  0  0  0  0  0  0  0  0  0  0  0
  141.7020   80.4720  216.4440 C   0  0  0  0  0  0  0  0  0  0  0  0
  140.5850   78.6790  218.6160 C   0  0  0  0  0  0  0  0  0  0  0  0
  140.5020   78.5660  221.1370 C   0  0  0  0  0  0  0  0  0  0  0  0
  140.9260   79.8230  221.5870 C   0  0  0  0  0  0  0  0  0  0  0  0
  141.5980   79.9070  222.8170 C   0  0  0  0  0  0  0  0  0  0  0  0
  141.8400   78.7470  223.5730 C   0  0  0  0  0  0  0  0  0  0  0  0
  141.4170   77.4950  223.1030 C   0  0  0  0  0  0  0  0  0  0  0  0
  140.7570   77.4370  221.8700 C   0  0  0  0  0  0  0  0  0  0  0  0
  141.1234   72.1452  220.8172 H   0  0  0  0  0  0  0  0  0  0  0  0
  143.4181   70.6154  219.9651 H   0  0  0  0  0  0  0  0  0  0  0  0
  146.9937   73.0760  219.5691 H   0  0  0  0  0  0  0  0  0  0  0  0
  145.6759   75.1121  220.2609 H   0  0  0  0  0  0  0  0  0  0  0  0
  143.1790   75.9210  221.0380 H   0  0  0  0  0  0  0  0  0  0  0  0
  140.1502   76.1584  219.1217 H   0  0  0  0  0  0  0  0  0  0  0  0
  138.5835   76.3435  219.9267 H   0  0  0  0  0  0  0  0  0  0  0  0
  137.6931   78.2669  219.2710 H   0  0  0  0  0  0  0  0  0  0  0  0
  138.0338   79.2102  220.7168 H   0  0  0  0  0  0  0  0  0  0  0  0
  137.8277   80.3938  218.2875 H   0  0  0  0  0  0  0  0  0  0  0  0
  139.0250   80.9890  219.4634 H   0  0  0  0  0  0  0  0  0  0  0  0
  139.9645   81.6415  217.0784 H   0  0  0  0  0  0  0  0  0  0  0  0
  140.6445   81.8035  219.4860 H   0  0  0  0  0  0  0  0  0  0  0  0
  142.0871   80.7755  219.1239 H   0  0  0  0  0  0  0  0  0  0  0  0
  141.5238   83.6493  218.3845 H   0  0  0  0  0  0  0  0  0  0  0  0
  143.0514   82.8519  218.9636 H   0  0  0  0  0  0  0  0  0  0  0  0
  141.9421   83.1013  216.1739 H   0  0  0  0  0  0  0  0  0  0  0  0
  143.6402   83.2294  216.7808 H   0  0  0  0  0  0  0  0  0  0  0  0
  143.3890   81.2510  215.5270 H   0  0  0  0  0  0  0  0  0  0  0  0
  143.6180   80.8490  217.1540 H   0  0  0  0  0  0  0  0  0  0  0  0
  141.2465   80.5759  215.4481 H   0  0  0  0  0  0  0  0  0  0  0  0
  141.9881   79.4347  216.6722 H   0  0  0  0  0  0  0  0  0  0  0  0
  140.7399   77.8322  217.9312 H   0  0  0  0  0  0  0  0  0  0  0  0
  141.5659   79.0692  218.9250 H   0  0  0  0  0  0  0  0  0  0  0  0
  140.7362   80.7263  220.9887 H   0  0  0  0  0  0  0  0  0  0  0  0
  141.9365   80.8847  223.1905 H   0  0  0  0  0  0  0  0  0  0  0  0
  142.3635   78.8214  224.5376 H   0  0  0  0  0  0  0  0  0  0  0  0
  141.5993   76.5818  223.6885 H   0  0  0  0  0  0  0  0  0  0  0  0
  1  2  2  0
  2  3  1  0
  3  4  2  0
  4  5  1  0
  5  6  2  0
  6  7  1  0
  7  8  1  0
  7  9  2  0
  9 10  1  0
 10 11  2  0
 11 12  1  0
  2 13  1  0
 13 14  1  0
 15 14  1  6
 15 16  1  0
 16 17  1  0
 17 18  1  0
 18 19  1  0
 19 20  1  0
 20 21  1  0
 21 22  1  0
 22 23  1  0
 23 24  1  0
 18 25  1  0
 15 26  1  0
 26 27  2  0
 27 28  1  0
 28 29  2  0
 29 30  1  0
 30 31  2  0
 12  3  1  0
 31 13  1  0
 11  5  1  0
 25 15  1  0
 31 26  1  0
 24 19  1  0
  4 32  1  0
  6 33  1  0
  9 34  1  0
 10 35  1  0
 12 36  1  0
 14 37  1  0
 14 38  1  0
 16 39  1  0
 16 40  1  0
 17 41  1  0
 17 42  1  0
 19 43  1  6
 20 44  1  0
 20 45  1  0
 21 46  1  0
 21 47  1  0
 22 48  1  0
 22 49  1  0
 23 50  1  0
 23 51  1  0
 24 52  1  0
 24 53  1  0
 25 54  1  0
 25 55  1  0
 27 56  1  0
 28 57  1  0
 29 58  1  0
 30 59  1  0
M  CHG  1  23   1
M  END
>  <UniqueID>  (66) 
25

>  <SMILES>  (66) 
O=C(c1cc2cc(F)ccc2[nH]1)N1C[C@@]2(CCN([C@H]3CCC[NH2+]C3)C2)c2ccccc21

>  <Energy>  (66) 
131.17729598973577

>  <Genealogy>  (66) 
O=C(c1cc2cc(F)ccc2[nH]1)N1C[C@@]2(CCN(C3CCC[NH2+]C3)C2)c2ccccc21 (protonated)
O=C(c1cc2cc(F)ccc2[nH]1)N1C[C@@]2(CCN([C@H]3CCC[NH2+]C3)C2)c2ccccc21 (chirality)
O=C(c1cc2cc(F)ccc2[nH]1)N1C[C@@]2(CCN([C@H]3CCC[NH2+]C3)C2)c2ccccc21 (3D coordinates assigned)
O=C(c1cc2cc(F)ccc2[nH]1)N1C[C@@]2(CCN([C@H]3CCC[NH2+]C3)C2)c2ccccc21 (nonaromatic ring conformer: 131.17729598973577 kcal/mol)

>  <smiles>  (66) 
O=C(c1cc2cc(F)ccc2[nH]1)N1C[C@@]2(CCN(C3CCCNC3)C2)c2ccccc21

>  <score_type>  (66) 
oracle

>  <origin>  (66) 
autodockgpu

>  <m_score__min__energy>  (66) 
-8.9900000000000002

>  <m_primary>  (66) 
energy

>  <meeko>  (66) 
{"free_energy": -8.97, "intermolecular_energy": -9.86, "internal_energy": -1.09, "cluster_size": 9, "cluster_id": 1, "rank_in_cluster": 5}

>  <energy>  (66) 
-8.94

>  <cluster_rmsd>  (66) 
0.08

>  <rmsd>  (66) 
269.84

>  <cluster>  (66) 
1

$$$$
ABNVVKAVWJYHCL-MBCOAKJTNA-O
     RDKit          3D

 59 64  0  0  0  0  0  0  0  0999 V2000
  137.9940   76.8330  223.0690 O   0  0  0  0  0  0  0  0  0  0  0  0
  139.0310   77.0380  222.3820 C   0  0  0  0  0  0  0  0  0  0  0  0
  139.9050   75.9070  222.0250 C   0  0  0  0  0  0  0  0  0  0  0  0
  141.1130   76.0110  221.3350 C   0  0  0  0  0  0  0  0  0  0  0  0
  141.5380   74.7110  221.1660 C   0  0  0  0  0  0  0  0  0  0  0  0
  142.6550   74.2020  220.5060 C   0  0  0  0  0  0  0  0  0  0  0  0
  142.8050   72.8020  220.4580 C   0  0  0  0  0  0  0  0  0  0  0  0
  143.8730   72.2620  219.8220 F   0  0  0  0  0  0  0  0  0  0  0  0
  141.8360   71.9590  221.0470 C   0  0  0  0  0  0  0  0  0  0  0  0
  140.7130   72.5060  221.6960 C   0  0  0  0  0  0  0  0  0  0  0  0
  140.6010   73.8910  221.7460 C   0  0  0  0  0  0  0  0  0  0  0  0
  139.5970   74.6120  222.2750 N   0  0  0  0  0  0  0  0  0  0  0  0
  139.3140   78.3610  221.9150 N   0  0  0  0  0  0  0  0  0  0  0  0
  138.6260   78.9820  220.7860 C   0  0  0  0  0  0  0  0  0  0  0  0
  139.4650   80.2570  220.4170 C   0  0  2  0  0  0  0  0  0  0  0  0
  138.6500   81.5440  220.5090 C   0  0  0  0  0  0  0  0  0  0  0  0
  139.2200   82.4270  219.4180 C   0  0  0  0  0  0  0  0  0  0  0  0
  139.6880   81.5430  218.3390 N   0  0  0  0  0  0  0  0  0  0  0  0
  140.8250   82.1230  217.5730 C   0  0  1  0  0  0  0  0  0  0  0  0
  141.8850   82.7310  218.5200 C   0  0  0  0  0  0  0  0  0  0  0  0
  143.0170   83.4060  217.7230 C   0  0  0  0  0  0  0  0  0  0  0  0
  143.2740   82.7150  216.3720 C   0  0  0  0  0  0  0  0  0  0  0  0
  142.9510   81.2830  216.4430 N   0  0  0  0  0  0  0  0  0  0  0  0
  141.5100   81.0430  216.6760 C   0  0  0  0  0  0  0  0  0  0  0  0
  140.0160   80.2480  218.9750 C   0  0  0  0  0  0  0  0  0  0  0  0
  140.5810   80.2260  221.4350 C   0  0  0  0  0  0  0  0  0  0  0  0
  141.6590   81.1100  221.5850 C   0  0  0  0  0  0  0  0  0  0  0  0
  142.5950   80.8640  222.6010 C   0  0  0  0  0  0  0  0  0  0  0  0
  142.4500   79.7480  223.4450 C   0  0  0  0  0  0  0  0  0  0  0  0
  141.3710   78.8690  223.2740 C   0  0  0  0  0  0  0  0  0  0  0  0
  140.4550   79.1310  222.2480 C   0  0  0  0  0  0  0  0  0  0  0  0
  141.6162   76.9297  220.9993 H   0  0  0  0  0  0  0  0  0  0  0  0
  143.3937   74.8700  220.0389 H   0  0  0  0  0  0  0  0  0  0  0  0
  141.9601   70.8671  220.9980 H   0  0  0  0  0  0  0  0  0  0  0  0
  139.9482   71.8582  222.1493 H   0  0  0  0  0  0  0  0  0  0  0  0
  138.7450   74.2420  222.7510 H   0  0  0  0  0  0  0  0  0  0  0  0
  138.5887   78.2888  219.9328 H   0  0  0  0  0  0  0  0  0  0  0  0
  137.5878   79.2421  221.0401 H   0  0  0  0  0  0  0  0  0  0  0  0
  137.5833   81.3433  220.3303 H   0  0  0  0  0  0  0  0  0  0  0  0
  138.7126   82.0109  221.5030 H   0  0  0  0  0  0  0  0  0  0  0  0
  138.4419   83.1054  219.0379 H   0  0  0  0  0  0  0  0  0  0  0  0
  140.0472   83.0397  219.8056 H   0  0  0  0  0  0  0  0  0  0  0  0
  140.4091   82.9167  216.9349 H   0  0  0  0  0  0  0  0  0  0  0  0
  141.4031   83.4805  219.1650 H   0  0  0  0  0  0  0  0  0  0  0  0
  142.3182   81.9215  219.1259 H   0  0  0  0  0  0  0  0  0  0  0  0
  142.7418   84.4547  217.5371 H   0  0  0  0  0  0  0  0  0  0  0  0
  143.9384   83.3315  218.3192 H   0  0  0  0  0  0  0  0  0  0  0  0
  142.6471   83.1874  215.6013 H   0  0  0  0  0  0  0  0  0  0  0  0
  144.3396   82.8219  216.1208 H   0  0  0  0  0  0  0  0  0  0  0  0
  143.2330   80.8230  215.5450 H   0  0  0  0  0  0  0  0  0  0  0  0
  143.5070   80.8420  217.2150 H   0  0  0  0  0  0  0  0  0  0  0  0
  140.9995   81.0276  215.7017 H   0  0  0  0  0  0  0  0  0  0  0  0
  141.4284   80.0853  217.2110 H   0  0  0  0  0  0  0  0  0  0  0  0
  139.5538   79.4277  218.4063 H   0  0  0  0  0  0  0  0  0  0  0  0
  141.1060   80.1003  218.9889 H   0  0  0  0  0  0  0  0  0  0  0  0
  141.7687   81.9790  220.9195 H   0  0  0  0  0  0  0  0  0  0  0  0
  143.4462   81.5471  222.7381 H   0  0  0  0  0  0  0  0  0  0  0  0
  143.1856   79.5643  224.2419 H   0  0  0  0  0  0  0  0  0  0  0  0
  141.2472   77.9948  223.9300 H   0  0  0  0  0  0  0  0  0  0  0  0
  1  2  2  0
  2  3  1  0
  3  4  2  0
  4  5  1  0
  5  6  2  0
  6  7  1  0
  7  8  1  0
  7  9  2  0
  9 10  1  0
 10 11  2  0
 11 12  1  0
  2 13  1  0
 13 14  1  0
 15 14  1  6
 15 16  1  0
 16 17  1  0
 17 18  1  0
 18 19  1  0
 19 20  1  0
 20 21  1  0
 21 22  1  0
 22 23  1  0
 23 24  1  0
 18 25  1  0
 15 26  1  0
 26 27  2  0
 27 28  1  0
 28 29  2  0
 29 30  1  0
 30 31  2  0
 12  3  1  0
 31 13  1  0
 11  5  1  0
 25 15  1  0
 31 26  1  0
 24 19  1  0
  4 32  1  0
  6 33  1  0
  9 34  1  0
 10 35  1  0
 12 36  1  0
 14 37  1  0
 14 38  1  0
 16 39  1  0
 16 40  1  0
 17 41  1  0
 17 42  1  0
 19 43  1  6
 20 44  1  0
 20 45  1  0
 21 46  1  0
 21 47  1  0
 22 48  1  0
 22 49  1  0
 23 50  1  0
 23 51  1  0
 24 52  1  0
 24 53  1  0
 25 54  1  0
 25 55  1  0
 27 56  1  0
 28 57  1  0
 29 58  1  0
 30 59  1  0
M  CHG  1  23   1
M  END
>  <UniqueID>  (67) 
25

>  <SMILES>  (67) 
O=C(c1cc2cc(F)ccc2[nH]1)N1C[C@@]2(CCN([C@H]3CCC[NH2+]C3)C2)c2ccccc21

>  <Energy>  (67) 
131.17729598973577

>  <Genealogy>  (67) 
O=C(c1cc2cc(F)ccc2[nH]1)N1C[C@@]2(CCN(C3CCC[NH2+]C3)C2)c2ccccc21 (protonated)
O=C(c1cc2cc(F)ccc2[nH]1)N1C[C@@]2(CCN([C@H]3CCC[NH2+]C3)C2)c2ccccc21 (chirality)
O=C(c1cc2cc(F)ccc2[nH]1)N1C[C@@]2(CCN([C@H]3CCC[NH2+]C3)C2)c2ccccc21 (3D coordinates assigned)
O=C(c1cc2cc(F)ccc2[nH]1)N1C[C@@]2(CCN([C@H]3CCC[NH2+]C3)C2)c2ccccc21 (nonaromatic ring conformer: 131.17729598973577 kcal/mol)

>  <smiles>  (67) 
O=C(c1cc2cc(F)ccc2[nH]1)N1C[C@@]2(CCN(C3CCCNC3)C2)c2ccccc21

>  <score_type>  (67) 
oracle

>  <origin>  (67) 
autodockgpu

>  <m_score__min__energy>  (67) 
-8.9900000000000002

>  <m_primary>  (67) 
energy

>  <meeko>  (67) 
{"free_energy": -8.57, "intermolecular_energy": -9.47, "internal_energy": -1.25, "cluster_size": 9, "cluster_id": 1, "rank_in_cluster": 9}

>  <energy>  (67) 
-8.88

>  <cluster_rmsd>  (67) 
0.09

>  <rmsd>  (67) 
269.82

>  <cluster>  (67) 
1

$$$$
ABNVVKAVWJYHCL-MBCOAKJTNA-O
     RDKit          3D

 59 64  0  0  0  0  0  0  0  0999 V2000
  139.3910   71.4580  220.9320 O   0  0  0  0  0  0  0  0  0  0  0  0
  139.9460   72.0470  221.8990 C   0  0  0  0  0  0  0  0  0  0  0  0
  140.0170   71.3840  223.2120 C   0  0  0  0  0  0  0  0  0  0  0  0
  140.6730   71.8910  224.3340 C   0  0  0  0  0  0  0  0  0  0  0  0
  140.5380   70.9130  225.2960 C   0  0  0  0  0  0  0  0  0  0  0  0
  141.0330   70.8490  226.5980 C   0  0  0  0  0  0  0  0  0  0  0  0
  140.7670   69.6820  227.3410 C   0  0  0  0  0  0  0  0  0  0  0  0
  141.2330   69.5720  228.6100 F   0  0  0  0  0  0  0  0  0  0  0  0
  140.0390   68.6170  226.7650 C   0  0  0  0  0  0  0  0  0  0  0  0
  139.5630   68.7100  225.4430 C   0  0  0  0  0  0  0  0  0  0  0  0
  139.8230   69.8820  224.7390 C   0  0  0  0  0  0  0  0  0  0  0  0
  139.4990   70.1580  223.4640 N   0  0  0  0  0  0  0  0  0  0  0  0
  140.5460   73.3290  221.6900 N   0  0  0  0  0  0  0  0  0  0  0  0
  139.8080   74.5870  221.7690 C   0  0  0  0  0  0  0  0  0  0  0  0
  140.7500   75.6810  221.1500 C   0  0  2  0  0  0  0  0  0  0  0  0
  141.0720   76.8050  222.1310 C   0  0  0  0  0  0  0  0  0  0  0  0
  141.1980   78.0370  221.2600 C   0  0  0  0  0  0  0  0  0  0  0  0
  140.2950   77.8570  220.1110 N   0  0  0  0  0  0  0  0  0  0  0  0
  140.7700   78.5640  218.8910 C   0  0  1  0  0  0  0  0  0  0  0  0
  140.8090   80.0950  219.1110 C   0  0  0  0  0  0  0  0  0  0  0  0
  141.2180   80.8290  217.8200 C   0  0  0  0  0  0  0  0  0  0  0  0
  142.1780   79.9960  216.9520 C   0  0  0  0  0  0  0  0  0  0  0  0
  143.0020   79.1070  217.7830 N   0  0  0  0  0  0  0  0  0  0  0  0
  142.1950   78.0790  218.4750 C   0  0  0  0  0  0  0  0  0  0  0  0
  140.1540   76.3970  219.9190 C   0  0  0  0  0  0  0  0  0  0  0  0
  141.9840   74.8880  220.7830 C   0  0  0  0  0  0  0  0  0  0  0  0
  143.1630   75.3300  220.1690 C   0  0  0  0  0  0  0  0  0  0  0  0
  144.1760   74.3960  219.9040 C   0  0  0  0  0  0  0  0  0  0  0  0
  144.0010   73.0430  220.2460 C   0  0  0  0  0  0  0  0  0  0  0  0
  142.8100   72.6160  220.8520 C   0  0  0  0  0  0  0  0  0  0  0  0
  141.8120   73.5650  221.0990 C   0  0  0  0  0  0  0  0  0  0  0  0
  141.1858   72.8594  224.4300 H   0  0  0  0  0  0  0  0  0  0  0  0
  141.6105   71.6799  227.0295 H   0  0  0  0  0  0  0  0  0  0  0  0
  139.8426   67.7086  227.3534 H   0  0  0  0  0  0  0  0  0  0  0  0
  139.0036   67.8828  224.9816 H   0  0  0  0  0  0  0  0  0  0  0  0
  138.9800   69.5390  222.8030 H   0  0  0  0  0  0  0  0  0  0  0  0
  138.8727   74.5182  221.1941 H   0  0  0  0  0  0  0  0  0  0  0  0
  139.5357   74.8300  222.8067 H   0  0  0  0  0  0  0  0  0  0  0  0
  140.2607   76.9271  222.8637 H   0  0  0  0  0  0  0  0  0  0  0  0
  141.9842   76.6066  222.7128 H   0  0  0  0  0  0  0  0  0  0  0  0
  140.9077   78.9319  221.8300 H   0  0  0  0  0  0  0  0  0  0  0  0
  142.2362   78.1693  220.9215 H   0  0  0  0  0  0  0  0  0  0  0  0
  140.0561   78.3288  218.0879 H   0  0  0  0  0  0  0  0  0  0  0  0
  139.8109   80.4394  219.4196 H   0  0  0  0  0  0  0  0  0  0  0  0
  141.5523   80.3177  219.8907 H   0  0  0  0  0  0  0  0  0  0  0  0
  140.3122   81.0474  217.2354 H   0  0  0  0  0  0  0  0  0  0  0  0
  141.7421   81.7517  218.1098 H   0  0  0  0  0  0  0  0  0  0  0  0
  141.5908   79.3883  216.2479 H   0  0  0  0  0  0  0  0  0  0  0  0
  142.8428   80.6823  216.4070 H   0  0  0  0  0  0  0  0  0  0  0  0
  143.7130   78.6330  217.1770 H   0  0  0  0  0  0  0  0  0  0  0  0
  143.5200   79.6800  218.4920 H   0  0  0  0  0  0  0  0  0  0  0  0
  142.0839   77.2158  217.8023 H   0  0  0  0  0  0  0  0  0  0  0  0
  142.7289   77.8268  219.4031 H   0  0  0  0  0  0  0  0  0  0  0  0
  139.0899   76.1372  219.8178 H   0  0  0  0  0  0  0  0  0  0  0  0
  140.6843   76.0839  219.0076 H   0  0  0  0  0  0  0  0  0  0  0  0
  143.2921   76.3887  219.8999 H   0  0  0  0  0  0  0  0  0  0  0  0
  145.1113   74.7235  219.4266 H   0  0  0  0  0  0  0  0  0  0  0  0
  144.8008   72.3171  220.0376 H   0  0  0  0  0  0  0  0  0  0  0  0
  142.6643   71.5608  221.1263 H   0  0  0  0  0  0  0  0  0  0  0  0
  1  2  2  0
  2  3  1  0
  3  4  2  0
  4  5  1  0
  5  6  2  0
  6  7  1  0
  7  8  1  0
  7  9  2  0
  9 10  1  0
 10 11  2  0
 11 12  1  0
  2 13  1  0
 13 14  1  0
 15 14  1  1
 15 16  1  0
 16 17  1  0
 17 18  1  0
 18 19  1  0
 19 20  1  0
 20 21  1  0
 21 22  1  0
 22 23  1  0
 23 24  1  0
 18 25  1  0
 15 26  1  0
 26 27  2  0
 27 28  1  0
 28 29  2  0
 29 30  1  0
 30 31  2  0
 12  3  1  0
 31 13  1  0
 11  5  1  0
 25 15  1  0
 31 26  1  0
 24 19  1  0
  4 32  1  0
  6 33  1  0
  9 34  1  0
 10 35  1  0
 12 36  1  0
 14 37  1  0
 14 38  1  0
 16 39  1  0
 16 40  1  0
 17 41  1  0
 17 42  1  0
 19 43  1  6
 20 44  1  0
 20 45  1  0
 21 46  1  0
 21 47  1  0
 22 48  1  0
 22 49  1  0
 23 50  1  0
 23 51  1  0
 24 52  1  0
 24 53  1  0
 25 54  1  0
 25 55  1  0
 27 56  1  0
 28 57  1  0
 29 58  1  0
 30 59  1  0
M  CHG  1  23   1
M  END
>  <UniqueID>  (68) 
25

>  <SMILES>  (68) 
O=C(c1cc2cc(F)ccc2[nH]1)N1C[C@@]2(CCN([C@H]3CCC[NH2+]C3)C2)c2ccccc21

>  <Energy>  (68) 
131.17729598973577

>  <Genealogy>  (68) 
O=C(c1cc2cc(F)ccc2[nH]1)N1C[C@@]2(CCN(C3CCC[NH2+]C3)C2)c2ccccc21 (protonated)
O=C(c1cc2cc(F)ccc2[nH]1)N1C[C@@]2(CCN([C@H]3CCC[NH2+]C3)C2)c2ccccc21 (chirality)
O=C(c1cc2cc(F)ccc2[nH]1)N1C[C@@]2(CCN([C@H]3CCC[NH2+]C3)C2)c2ccccc21 (3D coordinates assigned)
O=C(c1cc2cc(F)ccc2[nH]1)N1C[C@@]2(CCN([C@H]3CCC[NH2+]C3)C2)c2ccccc21 (nonaromatic ring conformer: 131.17729598973577 kcal/mol)

>  <smiles>  (68) 
O=C(c1cc2cc(F)ccc2[nH]1)N1C[C@@]2(CCN(C3CCCNC3)C2)c2ccccc21

>  <score_type>  (68) 
oracle

>  <origin>  (68) 
autodockgpu

>  <m_score__min__energy>  (68) 
-8.9900000000000002

>  <m_primary>  (68) 
energy

>  <meeko>  (68) 
{"free_energy": -8.8, "intermolecular_energy": -9.7, "internal_energy": -1.09, "cluster_size": 11, "cluster_id": 2, "rank_in_cluster": 1}

>  <energy>  (68) 
-8.88

>  <cluster_rmsd>  (68) 
0.29

>  <rmsd>  (68) 
269.77

>  <cluster>  (68) 
1

$$$$
ABNVVKAVWJYHCL-MBCOAKJTNA-O
     RDKit          3D

 59 64  0  0  0  0  0  0  0  0999 V2000
  139.7880   74.3050  222.3090 O   0  0  0  0  0  0  0  0  0  0  0  0
  140.5830   74.9540  221.5780 C   0  0  0  0  0  0  0  0  0  0  0  0
  141.7950   74.2970  221.0580 C   0  0  0  0  0  0  0  0  0  0  0  0
  141.9210   72.9320  220.7970 C   0  0  0  0  0  0  0  0  0  0  0  0
  143.2310   72.7660  220.4000 C   0  0  0  0  0  0  0  0  0  0  0  0
  143.9340   71.6120  220.0600 C   0  0  0  0  0  0  0  0  0  0  0  0
  145.2980   71.7490  219.7360 C   0  0  0  0  0  0  0  0  0  0  0  0
  146.0240   70.6530  219.4050 F   0  0  0  0  0  0  0  0  0  0  0  0
  145.9190   73.0180  219.7790 C   0  0  0  0  0  0  0  0  0  0  0  0
  145.1810   74.1630  220.1370 C   0  0  0  0  0  0  0  0  0  0  0  0
  143.8320   74.0000  220.4330 C   0  0  0  0  0  0  0  0  0  0  0  0
  142.9630   74.9450  220.8340 N   0  0  0  0  0  0  0  0  0  0  0  0
  140.2680   76.3030  221.2210 N   0  0  0  0  0  0  0  0  0  0  0  0
  139.6420   76.6760  219.9550 C   0  0  0  0  0  0  0  0  0  0  0  0
  139.7930   78.2360  219.8410 C   0  0  2  0  0  0  0  0  0  0  0  0
  138.4490   78.9500  219.7260 C   0  0  0  0  0  0  0  0  0  0  0  0
  138.7360   80.1450  218.8400 C   0  0  0  0  0  0  0  0  0  0  0  0
  139.8150   79.7570  217.9170 N   0  0  0  0  0  0  0  0  0  0  0  0
  140.6520   80.9130  217.4940 C   0  0  1  0  0  0  0  0  0  0  0  0
  141.4130   81.5210  218.6950 C   0  0  0  0  0  0  0  0  0  0  0  0
  142.2110   82.7690  218.2700 C   0  0  0  0  0  0  0  0  0  0  0  0
  142.7020   82.6820  216.8140 C   0  0  0  0  0  0  0  0  0  0  0  0
  142.9340   81.2850  216.4200 N   0  0  0  0  0  0  0  0  0  0  0  0
  141.6870   80.4910  216.4030 C   0  0  0  0  0  0  0  0  0  0  0  0
  140.5890   78.6990  218.6030 C   0  0  0  0  0  0  0  0  0  0  0  0
  140.5090   78.5940  221.1230 C   0  0  0  0  0  0  0  0  0  0  0  0
  140.9360   79.8520  221.5700 C   0  0  0  0  0  0  0  0  0  0  0  0
  141.6080   79.9380  222.7990 C   0  0  0  0  0  0  0  0  0  0  0  0
  141.8500   78.7790  223.5580 C   0  0  0  0  0  0  0  0  0  0  0  0
  141.4240   77.5270  223.0910 C   0  0  0  0  0  0  0  0  0  0  0  0
  140.7630   77.4660  221.8600 C   0  0  0  0  0  0  0  0  0  0  0  0
  141.1450   72.1577  220.8881 H   0  0  0  0  0  0  0  0  0  0  0  0
  143.4412   70.6287  220.0451 H   0  0  0  0  0  0  0  0  0  0  0  0
  146.9866   73.1121  219.5311 H   0  0  0  0  0  0  0  0  0  0  0  0
  145.6563   75.1541  220.1810 H   0  0  0  0  0  0  0  0  0  0  0  0
  143.1630   75.9600  220.9710 H   0  0  0  0  0  0  0  0  0  0  0  0
  140.1517   76.1802  219.1157 H   0  0  0  0  0  0  0  0  0  0  0  0
  138.5860   76.3696  219.9217 H   0  0  0  0  0  0  0  0  0  0  0  0
  137.6971   78.2935  219.2637 H   0  0  0  0  0  0  0  0  0  0  0  0
  138.0418   79.2407  220.7056 H   0  0  0  0  0  0  0  0  0  0  0  0
  137.8344   80.4173  218.2717 H   0  0  0  0  0  0  0  0  0  0  0  0
  139.0343   81.0146  219.4439 H   0  0  0  0  0  0  0  0  0  0  0  0
  139.9686   81.6669  217.0761 H   0  0  0  0  0  0  0  0  0  0  0  0
  140.6890   81.8049  219.4729 H   0  0  0  0  0  0  0  0  0  0  0  0
  142.1178   80.7691  219.0797 H   0  0  0  0  0  0  0  0  0  0  0  0
  141.5653   83.6535  218.3731 H   0  0  0  0  0  0  0  0  0  0  0  0
  143.0961   82.8391  218.9194 H   0  0  0  0  0  0  0  0  0  0  0  0
  141.9421   83.1215  216.1511 H   0  0  0  0  0  0  0  0  0  0  0  0
  143.6507   83.2324  216.7301 H   0  0  0  0  0  0  0  0  0  0  0  0
  143.3640   81.2660  215.4640 H   0  0  0  0  0  0  0  0  0  0  0  0
  143.6180   80.8480  217.0840 H   0  0  0  0  0  0  0  0  0  0  0  0
  141.2161   80.6072  215.4157 H   0  0  0  0  0  0  0  0  0  0  0  0
  141.9691   79.4495  216.6170 H   0  0  0  0  0  0  0  0  0  0  0  0
  140.7419   77.8496  217.9210 H   0  0  0  0  0  0  0  0  0  0  0  0
  141.5708   79.0887  218.9098 H   0  0  0  0  0  0  0  0  0  0  0  0
  140.7481   80.7541  220.9693 H   0  0  0  0  0  0  0  0  0  0  0  0
  141.9470   80.9164  223.1704 H   0  0  0  0  0  0  0  0  0  0  0  0
  142.3753   78.8547  224.5215 H   0  0  0  0  0  0  0  0  0  0  0  0
  141.6054   76.6151  223.6788 H   0  0  0  0  0  0  0  0  0  0  0  0
  1  2  2  0
  2  3  1  0
  3  4  2  0
  4  5  1  0
  5  6  2  0
  6  7  1  0
  7  8  1  0
  7  9  2  0
  9 10  1  0
 10 11  2  0
 11 12  1  0
  2 13  1  0
 13 14  1  0
 15 14  1  6
 15 16  1  0
 16 17  1  0
 17 18  1  0
 18 19  1  0
 19 20  1  0
 20 21  1  0
 21 22  1  0
 22 23  1  0
 23 24  1  0
 18 25  1  0
 15 26  1  0
 26 27  2  0
 27 28  1  0
 28 29  2  0
 29 30  1  0
 30 31  2  0
 12  3  1  0
 31 13  1  0
 11  5  1  0
 25 15  1  0
 31 26  1  0
 24 19  1  0
  4 32  1  0
  6 33  1  0
  9 34  1  0
 10 35  1  0
 12 36  1  0
 14 37  1  0
 14 38  1  0
 16 39  1  0
 16 40  1  0
 17 41  1  0
 17 42  1  0
 19 43  1  6
 20 44  1  0
 20 45  1  0
 21 46  1  0
 21 47  1  0
 22 48  1  0
 22 49  1  0
 23 50  1  0
 23 51  1  0
 24 52  1  0
 24 53  1  0
 25 54  1  0
 25 55  1  0
 27 56  1  0
 28 57  1  0
 29 58  1  0
 30 59  1  0
M  CHG  1  23   1
M  END
>  <UniqueID>  (69) 
25

>  <SMILES>  (69) 
O=C(c1cc2cc(F)ccc2[nH]1)N1C[C@@]2(CCN([C@H]3CCC[NH2+]C3)C2)c2ccccc21

>  <Energy>  (69) 
131.17729598973577

>  <Genealogy>  (69) 
O=C(c1cc2cc(F)ccc2[nH]1)N1C[C@@]2(CCN(C3CCC[NH2+]C3)C2)c2ccccc21 (protonated)
O=C(c1cc2cc(F)ccc2[nH]1)N1C[C@@]2(CCN([C@H]3CCC[NH2+]C3)C2)c2ccccc21 (chirality)
O=C(c1cc2cc(F)ccc2[nH]1)N1C[C@@]2(CCN([C@H]3CCC[NH2+]C3)C2)c2ccccc21 (3D coordinates assigned)
O=C(c1cc2cc(F)ccc2[nH]1)N1C[C@@]2(CCN([C@H]3CCC[NH2+]C3)C2)c2ccccc21 (nonaromatic ring conformer: 131.17729598973577 kcal/mol)

>  <smiles>  (69) 
O=C(c1cc2cc(F)ccc2[nH]1)N1C[C@@]2(CCN(C3CCCNC3)C2)c2ccccc21

>  <score_type>  (69) 
oracle

>  <origin>  (69) 
autodockgpu

>  <m_score__min__energy>  (69) 
-8.9900000000000002

>  <m_primary>  (69) 
energy

>  <meeko>  (69) 
{"free_energy": -8.97, "intermolecular_energy": -9.87, "internal_energy": -1.09, "cluster_size": 9, "cluster_id": 1, "rank_in_cluster": 2}

>  <energy>  (69) 
-8.57

>  <cluster_rmsd>  (69) 
1.74

>  <rmsd>  (69) 
270.03

>  <cluster>  (69) 
1

$$$$
ABNVVKAVWJYHCL-MBCOAKJTNA-O
     RDKit          3D

 59 64  0  0  0  0  0  0  0  0999 V2000
  139.7830   74.2860  222.3270 O   0  0  0  0  0  0  0  0  0  0  0  0
  140.5770   74.9320  221.5910 C   0  0  0  0  0  0  0  0  0  0  0  0
  141.7870   74.2740  221.0710 C   0  0  0  0  0  0  0  0  0  0  0  0
  141.9020   72.9130  220.7860 C   0  0  0  0  0  0  0  0  0  0  0  0
  143.2150   72.7420  220.3990 C   0  0  0  0  0  0  0  0  0  0  0  0
  143.9110   71.5870  220.0440 C   0  0  0  0  0  0  0  0  0  0  0  0
  145.2790   71.7180  219.7350 C   0  0  0  0  0  0  0  0  0  0  0  0
  145.9980   70.6210  219.3910 F   0  0  0  0  0  0  0  0  0  0  0  0
  145.9110   72.9800  219.8060 C   0  0  0  0  0  0  0  0  0  0  0  0
  145.1800   74.1250  220.1780 C   0  0  0  0  0  0  0  0  0  0  0  0
  143.8270   73.9690  220.4580 C   0  0  0  0  0  0  0  0  0  0  0  0
  142.9630   74.9150  220.8690 N   0  0  0  0  0  0  0  0  0  0  0  0
  140.2610   76.2800  221.2300 N   0  0  0  0  0  0  0  0  0  0  0  0
  139.6430   76.6510  219.9600 C   0  0  0  0  0  0  0  0  0  0  0  0
  139.7910   78.2100  219.8460 C   0  0  2  0  0  0  0  0  0  0  0  0
  138.4460   78.9210  219.7190 C   0  0  0  0  0  0  0  0  0  0  0  0
  138.7360   80.1160  218.8340 C   0  0  0  0  0  0  0  0  0  0  0  0
  139.8230   79.7300  217.9200 N   0  0  0  0  0  0  0  0  0  0  0  0
  140.6600   80.8880  217.5020 C   0  0  1  0  0  0  0  0  0  0  0  0
  141.4340   81.4810  218.7030 C   0  0  0  0  0  0  0  0  0  0  0  0
  142.2320   82.7300  218.2840 C   0  0  0  0  0  0  0  0  0  0  0  0
  142.7100   82.6570  216.8230 C   0  0  0  0  0  0  0  0  0  0  0  0
  142.9350   81.2640  216.4120 N   0  0  0  0  0  0  0  0  0  0  0  0
  141.6850   80.4740  216.3970 C   0  0  0  0  0  0  0  0  0  0  0  0
  140.5950   78.6750  218.6130 C   0  0  0  0  0  0  0  0  0  0  0  0
  140.4960   78.5720  221.1320 C   0  0  0  0  0  0  0  0  0  0  0  0
  140.9160   79.8320  221.5810 C   0  0  0  0  0  0  0  0  0  0  0  0
  141.5790   79.9210  222.8150 C   0  0  0  0  0  0  0  0  0  0  0  0
  141.8180   78.7630  223.5770 C   0  0  0  0  0  0  0  0  0  0  0  0
  141.3990   77.5100  223.1080 C   0  0  0  0  0  0  0  0  0  0  0  0
  140.7470   77.4460  221.8720 C   0  0  0  0  0  0  0  0  0  0  0  0
  141.1177   72.1448  220.8548 H   0  0  0  0  0  0  0  0  0  0  0  0
  143.4097   70.6086  220.0066 H   0  0  0  0  0  0  0  0  0  0  0  0
  146.9815   73.0687  219.5690 H   0  0  0  0  0  0  0  0  0  0  0  0
  145.6638   75.1107  220.2448 H   0  0  0  0  0  0  0  0  0  0  0  0
  143.1710   75.9250  221.0260 H   0  0  0  0  0  0  0  0  0  0  0  0
  140.1595   76.1559  219.1245 H   0  0  0  0  0  0  0  0  0  0  0  0
  138.5880   76.3424  219.9199 H   0  0  0  0  0  0  0  0  0  0  0  0
  137.6995   78.2620  219.2515 H   0  0  0  0  0  0  0  0  0  0  0  0
  138.0308   79.2120  220.6952 H   0  0  0  0  0  0  0  0  0  0  0  0
  137.8380   80.3850  218.2585 H   0  0  0  0  0  0  0  0  0  0  0  0
  139.0269   80.9873  219.4391 H   0  0  0  0  0  0  0  0  0  0  0  0
  139.9752   81.6483  217.0982 H   0  0  0  0  0  0  0  0  0  0  0  0
  140.7179   81.7592  219.4903 H   0  0  0  0  0  0  0  0  0  0  0  0
  142.1395   80.7228  219.0737 H   0  0  0  0  0  0  0  0  0  0  0  0
  141.5901   83.6155  218.4020 H   0  0  0  0  0  0  0  0  0  0  0  0
  143.1231   82.7901  218.9262 H   0  0  0  0  0  0  0  0  0  0  0  0
  141.9455   83.1054  216.1715 H   0  0  0  0  0  0  0  0  0  0  0  0
  143.6594   83.2058  216.7368 H   0  0  0  0  0  0  0  0  0  0  0  0
  143.3560   81.2540  215.4530 H   0  0  0  0  0  0  0  0  0  0  0  0
  143.6220   80.8180  217.0660 H   0  0  0  0  0  0  0  0  0  0  0  0
  141.2061   80.6023  215.4150 H   0  0  0  0  0  0  0  0  0  0  0  0
  141.9654   79.4294  216.5973 H   0  0  0  0  0  0  0  0  0  0  0  0
  140.7559   77.8255  217.9329 H   0  0  0  0  0  0  0  0  0  0  0  0
  141.5731   79.0683  218.9271 H   0  0  0  0  0  0  0  0  0  0  0  0
  140.7296   80.7330  220.9781 H   0  0  0  0  0  0  0  0  0  0  0  0
  141.9131   80.9005  223.1878 H   0  0  0  0  0  0  0  0  0  0  0  0
  142.3356   78.8409  224.5445 H   0  0  0  0  0  0  0  0  0  0  0  0
  141.5786   76.5990  223.6978 H   0  0  0  0  0  0  0  0  0  0  0  0
  1  2  2  0
  2  3  1  0
  3  4  2  0
  4  5  1  0
  5  6  2  0
  6  7  1  0
  7  8  1  0
  7  9  2  0
  9 10  1  0
 10 11  2  0
 11 12  1  0
  2 13  1  0
 13 14  1  0
 15 14  1  6
 15 16  1  0
 16 17  1  0
 17 18  1  0
 18 19  1  0
 19 20  1  0
 20 21  1  0
 21 22  1  0
 22 23  1  0
 23 24  1  0
 18 25  1  0
 15 26  1  0
 26 27  2  0
 27 28  1  0
 28 29  2  0
 29 30  1  0
 30 31  2  0
 12  3  1  0
 31 13  1  0
 11  5  1  0
 25 15  1  0
 31 26  1  0
 24 19  1  0
  4 32  1  0
  6 33  1  0
  9 34  1  0
 10 35  1  0
 12 36  1  0
 14 37  1  0
 14 38  1  0
 16 39  1  0
 16 40  1  0
 17 41  1  0
 17 42  1  0
 19 43  1  6
 20 44  1  0
 20 45  1  0
 21 46  1  0
 21 47  1  0
 22 48  1  0
 22 49  1  0
 23 50  1  0
 23 51  1  0
 24 52  1  0
 24 53  1  0
 25 54  1  0
 25 55  1  0
 27 56  1  0
 28 57  1  0
 29 58  1  0
 30 59  1  0
M  CHG  1  23   1
M  END
>  <UniqueID>  (70) 
25

>  <SMILES>  (70) 
O=C(c1cc2cc(F)ccc2[nH]1)N1C[C@@]2(CCN([C@H]3CCC[NH2+]C3)C2)c2ccccc21

>  <Energy>  (70) 
131.17729598973577

>  <Genealogy>  (70) 
O=C(c1cc2cc(F)ccc2[nH]1)N1C[C@@]2(CCN(C3CCC[NH2+]C3)C2)c2ccccc21 (protonated)
O=C(c1cc2cc(F)ccc2[nH]1)N1C[C@@]2(CCN([C@H]3CCC[NH2+]C3)C2)c2ccccc21 (chirality)
O=C(c1cc2cc(F)ccc2[nH]1)N1C[C@@]2(CCN([C@H]3CCC[NH2+]C3)C2)c2ccccc21 (3D coordinates assigned)
O=C(c1cc2cc(F)ccc2[nH]1)N1C[C@@]2(CCN([C@H]3CCC[NH2+]C3)C2)c2ccccc21 (nonaromatic ring conformer: 131.17729598973577 kcal/mol)

>  <smiles>  (70) 
O=C(c1cc2cc(F)ccc2[nH]1)N1C[C@@]2(CCN(C3CCCNC3)C2)c2ccccc21

>  <score_type>  (70) 
oracle

>  <origin>  (70) 
autodockgpu

>  <m_score__min__energy>  (70) 
-8.9900000000000002

>  <m_primary>  (70) 
energy

>  <meeko>  (70) 
{"free_energy": -8.97, "intermolecular_energy": -9.86, "internal_energy": -1.09, "cluster_size": 9, "cluster_id": 1, "rank_in_cluster": 4}

>  <energy>  (70) 
-8.8

>  <cluster_rmsd>  (70) 
0.0

>  <rmsd>  (70) 
270.08

>  <cluster>  (70) 
2

$$$$
ABNVVKAVWJYHCL-MBCOAKJTNA-O
     RDKit          3D

 59 64  0  0  0  0  0  0  0  0999 V2000
  139.2990   71.4930  220.9620 O   0  0  0  0  0  0  0  0  0  0  0  0
  139.8780   72.0600  221.9270 C   0  0  0  0  0  0  0  0  0  0  0  0
  139.9630   71.3770  223.2290 C   0  0  0  0  0  0  0  0  0  0  0  0
  140.5910   71.8890  224.3650 C   0  0  0  0  0  0  0  0  0  0  0  0
  140.4850   70.8900  225.3090 C   0  0  0  0  0  0  0  0  0  0  0  0
  140.9720   70.8200  226.6140 C   0  0  0  0  0  0  0  0  0  0  0  0
  140.7430   69.6330  227.3350 C   0  0  0  0  0  0  0  0  0  0  0  0
  141.2030   69.5180  228.6050 F   0  0  0  0  0  0  0  0  0  0  0  0
  140.0590   68.5520  226.7340 C   0  0  0  0  0  0  0  0  0  0  0  0
  139.5900   68.6500  225.4100 C   0  0  0  0  0  0  0  0  0  0  0  0
  139.8120   69.8430  224.7290 C   0  0  0  0  0  0  0  0  0  0  0  0
  139.4880   70.1290  223.4560 N   0  0  0  0  0  0  0  0  0  0  0  0
  140.4920   73.3370  221.7250 N   0  0  0  0  0  0  0  0  0  0  0  0
  139.7710   74.6030  221.8320 C   0  0  0  0  0  0  0  0  0  0  0  0
  140.7180   75.6930  221.2120 C   0  0  2  0  0  0  0  0  0  0  0  0
  141.0680   76.8000  222.2030 C   0  0  0  0  0  0  0  0  0  0  0  0
  141.1970   78.0420  221.3460 C   0  0  0  0  0  0  0  0  0  0  0  0
  140.2760   77.8880  220.2090 N   0  0  0  0  0  0  0  0  0  0  0  0
  140.7420   78.6050  218.9900 C   0  0  1  0  0  0  0  0  0  0  0  0
  140.8330   80.1280  219.2390 C   0  0  0  0  0  0  0  0  0  0  0  0
  141.2330   80.8760  217.9530 C   0  0  0  0  0  0  0  0  0  0  0  0
  142.1460   80.0320  217.0450 C   0  0  0  0  0  0  0  0  0  0  0  0
  142.9620   79.1020  217.8380 N   0  0  0  0  0  0  0  0  0  0  0  0
  142.1410   78.0850  218.5300 C   0  0  0  0  0  0  0  0  0  0  0  0
  140.1130   76.4320  220.0000 C   0  0  0  0  0  0  0  0  0  0  0  0
  141.9350   74.8890  220.8180 C   0  0  0  0  0  0  0  0  0  0  0  0
  143.1110   75.3250  220.1920 C   0  0  0  0  0  0  0  0  0  0  0  0
  144.1090   74.3810  219.9010 C   0  0  0  0  0  0  0  0  0  0  0  0
  143.9210   73.0260  220.2290 C   0  0  0  0  0  0  0  0  0  0  0  0
  142.7340   72.6060  220.8460 C   0  0  0  0  0  0  0  0  0  0  0  0
  141.7510   73.5650  221.1190 C   0  0  0  0  0  0  0  0  0  0  0  0
  141.0665   72.8740  224.4817 H   0  0  0  0  0  0  0  0  0  0  0  0
  141.5162   71.6632  227.0642 H   0  0  0  0  0  0  0  0  0  0  0  0
  139.8918   67.6269  227.3051 H   0  0  0  0  0  0  0  0  0  0  0  0
  139.0653   67.8110  224.9297 H   0  0  0  0  0  0  0  0  0  0  0  0
  138.9980   69.5040  222.7800 H   0  0  0  0  0  0  0  0  0  0  0  0
  138.8261   74.5535  221.2710 H   0  0  0  0  0  0  0  0  0  0  0  0
  139.5176   74.8359  222.8768 H   0  0  0  0  0  0  0  0  0  0  0  0
  140.2687   76.9224  222.9488 H   0  0  0  0  0  0  0  0  0  0  0  0
  141.9857   76.5827  222.7691 H   0  0  0  0  0  0  0  0  0  0  0  0
  140.9262   78.9329  221.9315 H   0  0  0  0  0  0  0  0  0  0  0  0
  142.2318   78.1661  220.9943 H   0  0  0  0  0  0  0  0  0  0  0  0
  140.0022   78.4082  218.2001 H   0  0  0  0  0  0  0  0  0  0  0  0
  139.8536   80.4958  219.5790 H   0  0  0  0  0  0  0  0  0  0  0  0
  141.6014   80.3122  220.0043 H   0  0  0  0  0  0  0  0  0  0  0  0
  140.3204   81.1336  217.3955 H   0  0  0  0  0  0  0  0  0  0  0  0
  141.7919   81.7764  218.2479 H   0  0  0  0  0  0  0  0  0  0  0  0
  141.5236   79.4566  216.3439 H   0  0  0  0  0  0  0  0  0  0  0  0
  142.8181   80.7088  216.4971 H   0  0  0  0  0  0  0  0  0  0  0  0
  143.6430   78.6180  217.2050 H   0  0  0  0  0  0  0  0  0  0  0  0
  143.5150   79.6440  218.5450 H   0  0  0  0  0  0  0  0  0  0  0  0
  141.9873   77.2390  217.8439 H   0  0  0  0  0  0  0  0  0  0  0  0
  142.6891   77.7980  219.4395 H   0  0  0  0  0  0  0  0  0  0  0  0
  139.0443   76.1871  219.9117 H   0  0  0  0  0  0  0  0  0  0  0  0
  140.6252   76.1240  219.0765 H   0  0  0  0  0  0  0  0  0  0  0  0
  143.2493   76.3853  219.9339 H   0  0  0  0  0  0  0  0  0  0  0  0
  145.0417   74.7024  219.4145 H   0  0  0  0  0  0  0  0  0  0  0  0
  144.7086   72.2928  220.0005 H   0  0  0  0  0  0  0  0  0  0  0  0
  142.5789   71.5492  221.1090 H   0  0  0  0  0  0  0  0  0  0  0  0
  1  2  2  0
  2  3  1  0
  3  4  2  0
  4  5  1  0
  5  6  2  0
  6  7  1  0
  7  8  1  0
  7  9  2  0
  9 10  1  0
 10 11  2  0
 11 12  1  0
  2 13  1  0
 13 14  1  0
 15 14  1  1
 15 16  1  0
 16 17  1  0
 17 18  1  0
 18 19  1  0
 19 20  1  0
 20 21  1  0
 21 22  1  0
 22 23  1  0
 23 24  1  0
 18 25  1  0
 15 26  1  0
 26 27  2  0
 27 28  1  0
 28 29  2  0
 29 30  1  0
 30 31  2  0
 12  3  1  0
 31 13  1  0
 11  5  1  0
 25 15  1  0
 31 26  1  0
 24 19  1  0
  4 32  1  0
  6 33  1  0
  9 34  1  0
 10 35  1  0
 12 36  1  0
 14 37  1  0
 14 38  1  0
 16 39  1  0
 16 40  1  0
 17 41  1  0
 17 42  1  0
 19 43  1  6
 20 44  1  0
 20 45  1  0
 21 46  1  0
 21 47  1  0
 22 48  1  0
 22 49  1  0
 23 50  1  0
 23 51  1  0
 24 52  1  0
 24 53  1  0
 25 54  1  0
 25 55  1  0
 27 56  1  0
 28 57  1  0
 29 58  1  0
 30 59  1  0
M  CHG  1  23   1
M  END
>  <UniqueID>  (71) 
25

>  <SMILES>  (71) 
O=C(c1cc2cc(F)ccc2[nH]1)N1C[C@@]2(CCN([C@H]3CCC[NH2+]C3)C2)c2ccccc21

>  <Energy>  (71) 
131.17729598973577

>  <Genealogy>  (71) 
O=C(c1cc2cc(F)ccc2[nH]1)N1C[C@@]2(CCN(C3CCC[NH2+]C3)C2)c2ccccc21 (protonated)
O=C(c1cc2cc(F)ccc2[nH]1)N1C[C@@]2(CCN([C@H]3CCC[NH2+]C3)C2)c2ccccc21 (chirality)
O=C(c1cc2cc(F)ccc2[nH]1)N1C[C@@]2(CCN([C@H]3CCC[NH2+]C3)C2)c2ccccc21 (3D coordinates assigned)
O=C(c1cc2cc(F)ccc2[nH]1)N1C[C@@]2(CCN([C@H]3CCC[NH2+]C3)C2)c2ccccc21 (nonaromatic ring conformer: 131.17729598973577 kcal/mol)

>  <smiles>  (71) 
O=C(c1cc2cc(F)ccc2[nH]1)N1C[C@@]2(CCN(C3CCCNC3)C2)c2ccccc21

>  <score_type>  (71) 
oracle

>  <origin>  (71) 
autodockgpu

>  <m_score__min__energy>  (71) 
-8.9900000000000002

>  <m_primary>  (71) 
energy

>  <meeko>  (71) 
{"free_energy": -8.8, "intermolecular_energy": -9.69, "internal_energy": -1.09, "cluster_size": 11, "cluster_id": 2, "rank_in_cluster": 2}

>  <energy>  (71) 
-8.8

>  <cluster_rmsd>  (71) 
0.08

>  <rmsd>  (71) 
270.09

>  <cluster>  (71) 
2

$$$$
ABNVVKAVWJYHCL-MBCOAKJTNA-O
     RDKit          3D

 59 64  0  0  0  0  0  0  0  0999 V2000
  139.7790   74.3030  222.3190 O   0  0  0  0  0  0  0  0  0  0  0  0
  140.5710   74.9470  221.5810 C   0  0  0  0  0  0  0  0  0  0  0  0
  141.7780   74.2860  221.0560 C   0  0  0  0  0  0  0  0  0  0  0  0
  141.8910   72.9240  220.7750 C   0  0  0  0  0  0  0  0  0  0  0  0
  143.2000   72.7500  220.3810 C   0  0  0  0  0  0  0  0  0  0  0  0
  143.8940   71.5940  220.0270 C   0  0  0  0  0  0  0  0  0  0  0  0
  145.2600   71.7220  219.7090 C   0  0  0  0  0  0  0  0  0  0  0  0
  145.9760   70.6230  219.3650 F   0  0  0  0  0  0  0  0  0  0  0  0
  145.8930   72.9840  219.7710 C   0  0  0  0  0  0  0  0  0  0  0  0
  145.1660   74.1300  220.1430 C   0  0  0  0  0  0  0  0  0  0  0  0
  143.8130   73.9770  220.4320 C   0  0  0  0  0  0  0  0  0  0  0  0
  142.9530   74.9250  220.8440 N   0  0  0  0  0  0  0  0  0  0  0  0
  140.2560   76.2960  221.2200 N   0  0  0  0  0  0  0  0  0  0  0  0
  139.6390   76.6670  219.9500 C   0  0  0  0  0  0  0  0  0  0  0  0
  139.7890   78.2270  219.8360 C   0  0  2  0  0  0  0  0  0  0  0  0
  138.4450   78.9390  219.7100 C   0  0  0  0  0  0  0  0  0  0  0  0
  138.7360   80.1340  218.8260 C   0  0  0  0  0  0  0  0  0  0  0  0
  139.8230   79.7470  217.9110 N   0  0  0  0  0  0  0  0  0  0  0  0
  140.6610   80.9040  217.4940 C   0  0  1  0  0  0  0  0  0  0  0  0
  141.4330   81.4970  218.6960 C   0  0  0  0  0  0  0  0  0  0  0  0
  142.2330   82.7460  218.2770 C   0  0  0  0  0  0  0  0  0  0  0  0
  142.7130   82.6720  216.8160 C   0  0  0  0  0  0  0  0  0  0  0  0
  142.9370   81.2780  216.4070 N   0  0  0  0  0  0  0  0  0  0  0  0
  141.6860   80.4890  216.3910 C   0  0  0  0  0  0  0  0  0  0  0  0
  140.5930   78.6910  218.6040 C   0  0  0  0  0  0  0  0  0  0  0  0
  140.4950   78.5870  221.1230 C   0  0  0  0  0  0  0  0  0  0  0  0
  140.9160   79.8460  221.5730 C   0  0  0  0  0  0  0  0  0  0  0  0
  141.5800   79.9340  222.8060 C   0  0  0  0  0  0  0  0  0  0  0  0
  141.8170   78.7760  223.5680 C   0  0  0  0  0  0  0  0  0  0  0  0
  141.3970   77.5230  223.0990 C   0  0  0  0  0  0  0  0  0  0  0  0
  140.7450   77.4600  221.8620 C   0  0  0  0  0  0  0  0  0  0  0  0
  141.1065   72.1567  220.8513 H   0  0  0  0  0  0  0  0  0  0  0  0
  143.3921   70.6157  219.9971 H   0  0  0  0  0  0  0  0  0  0  0  0
  146.9620   73.0711  219.5266 H   0  0  0  0  0  0  0  0  0  0  0  0
  145.6514   75.1152  220.2035 H   0  0  0  0  0  0  0  0  0  0  0  0
  143.1630   75.9360  220.9960 H   0  0  0  0  0  0  0  0  0  0  0  0
  140.1553   76.1712  219.1148 H   0  0  0  0  0  0  0  0  0  0  0  0
  138.5837   76.3593  219.9093 H   0  0  0  0  0  0  0  0  0  0  0  0
  137.6978   78.2810  219.2423 H   0  0  0  0  0  0  0  0  0  0  0  0
  138.0302   79.2297  220.6865 H   0  0  0  0  0  0  0  0  0  0  0  0
  137.8381   80.4044  218.2509 H   0  0  0  0  0  0  0  0  0  0  0  0
  139.0279   81.0047  219.4316 H   0  0  0  0  0  0  0  0  0  0  0  0
  139.9778   81.6650  217.0890 H   0  0  0  0  0  0  0  0  0  0  0  0
  140.7157   81.7762  219.4818 H   0  0  0  0  0  0  0  0  0  0  0  0
  142.1372   80.7386  219.0687 H   0  0  0  0  0  0  0  0  0  0  0  0
  141.5917   83.6320  218.3938 H   0  0  0  0  0  0  0  0  0  0  0  0
  143.1234   82.8057  218.9202 H   0  0  0  0  0  0  0  0  0  0  0  0
  141.9498   83.1206  216.1631 H   0  0  0  0  0  0  0  0  0  0  0  0
  143.6628   83.2202  216.7301 H   0  0  0  0  0  0  0  0  0  0  0  0
  143.3600   81.2670  215.4480 H   0  0  0  0  0  0  0  0  0  0  0  0
  143.6240   80.8320  217.0620 H   0  0  0  0  0  0  0  0  0  0  0  0
  141.2083   80.6174  215.4085 H   0  0  0  0  0  0  0  0  0  0  0  0
  141.9653   79.4442  216.5920 H   0  0  0  0  0  0  0  0  0  0  0  0
  140.7528   77.8414  217.9238 H   0  0  0  0  0  0  0  0  0  0  0  0
  141.5714   79.0831  218.9185 H   0  0  0  0  0  0  0  0  0  0  0  0
  140.7294   80.7476  220.9711 H   0  0  0  0  0  0  0  0  0  0  0  0
  141.9166   80.9129  223.1781 H   0  0  0  0  0  0  0  0  0  0  0  0
  142.3340   78.8535  224.5359 H   0  0  0  0  0  0  0  0  0  0  0  0
  141.5756   76.6118  223.6888 H   0  0  0  0  0  0  0  0  0  0  0  0
  1  2  2  0
  2  3  1  0
  3  4  2  0
  4  5  1  0
  5  6  2  0
  6  7  1  0
  7  8  1  0
  7  9  2  0
  9 10  1  0
 10 11  2  0
 11 12  1  0
  2 13  1  0
 13 14  1  0
 15 14  1  6
 15 16  1  0
 16 17  1  0
 17 18  1  0
 18 19  1  0
 19 20  1  0
 20 21  1  0
 21 22  1  0
 22 23  1  0
 23 24  1  0
 18 25  1  0
 15 26  1  0
 26 27  2  0
 27 28  1  0
 28 29  2  0
 29 30  1  0
 30 31  2  0
 12  3  1  0
 31 13  1  0
 11  5  1  0
 25 15  1  0
 31 26  1  0
 24 19  1  0
  4 32  1  0
  6 33  1  0
  9 34  1  0
 10 35  1  0
 12 36  1  0
 14 37  1  0
 14 38  1  0
 16 39  1  0
 16 40  1  0
 17 41  1  0
 17 42  1  0
 19 43  1  6
 20 44  1  0
 20 45  1  0
 21 46  1  0
 21 47  1  0
 22 48  1  0
 22 49  1  0
 23 50  1  0
 23 51  1  0
 24 52  1  0
 24 53  1  0
 25 54  1  0
 25 55  1  0
 27 56  1  0
 28 57  1  0
 29 58  1  0
 30 59  1  0
M  CHG  1  23   1
M  END
>  <UniqueID>  (72) 
25

>  <SMILES>  (72) 
O=C(c1cc2cc(F)ccc2[nH]1)N1C[C@@]2(CCN([C@H]3CCC[NH2+]C3)C2)c2ccccc21

>  <Energy>  (72) 
131.17729598973577

>  <Genealogy>  (72) 
O=C(c1cc2cc(F)ccc2[nH]1)N1C[C@@]2(CCN(C3CCC[NH2+]C3)C2)c2ccccc21 (protonated)
O=C(c1cc2cc(F)ccc2[nH]1)N1C[C@@]2(CCN([C@H]3CCC[NH2+]C3)C2)c2ccccc21 (chirality)
O=C(c1cc2cc(F)ccc2[nH]1)N1C[C@@]2(CCN([C@H]3CCC[NH2+]C3)C2)c2ccccc21 (3D coordinates assigned)
O=C(c1cc2cc(F)ccc2[nH]1)N1C[C@@]2(CCN([C@H]3CCC[NH2+]C3)C2)c2ccccc21 (nonaromatic ring conformer: 131.17729598973577 kcal/mol)

>  <smiles>  (72) 
O=C(c1cc2cc(F)ccc2[nH]1)N1C[C@@]2(CCN(C3CCCNC3)C2)c2ccccc21

>  <score_type>  (72) 
oracle

>  <origin>  (72) 
autodockgpu

>  <m_score__min__energy>  (72) 
-8.9900000000000002

>  <m_primary>  (72) 
energy

>  <meeko>  (72) 
{"free_energy": -8.99, "intermolecular_energy": -9.88, "internal_energy": -1.09, "cluster_size": 9, "cluster_id": 1, "rank_in_cluster": 1}

>  <energy>  (72) 
-8.8

>  <cluster_rmsd>  (72) 
0.15

>  <rmsd>  (72) 
270.09

>  <cluster>  (72) 
2

$$$$
ABNVVKAVWJYHCL-MBCOAKJTNA-O
     RDKit          3D

 59 64  0  0  0  0  0  0  0  0999 V2000
  139.2050   71.6020  220.9840 O   0  0  0  0  0  0  0  0  0  0  0  0
  139.8100   72.1520  221.9430 C   0  0  0  0  0  0  0  0  0  0  0  0
  139.9060   71.4570  223.2380 C   0  0  0  0  0  0  0  0  0  0  0  0
  140.6590   71.8920  224.3300 C   0  0  0  0  0  0  0  0  0  0  0  0
  140.5090   70.9050  225.2800 C   0  0  0  0  0  0  0  0  0  0  0  0
  141.0700   70.7780  226.5500 C   0  0  0  0  0  0  0  0  0  0  0  0
  140.7640   69.6170  227.2860 C   0  0  0  0  0  0  0  0  0  0  0  0
  141.2920   69.4470  228.5240 F   0  0  0  0  0  0  0  0  0  0  0  0
  139.9320   68.6170  226.7330 C   0  0  0  0  0  0  0  0  0  0  0  0
  139.3900   68.7730  225.4430 C   0  0  0  0  0  0  0  0  0  0  0  0
  139.6930   69.9380  224.7470 C   0  0  0  0  0  0  0  0  0  0  0  0
  139.3190   70.2650  223.4970 N   0  0  0  0  0  0  0  0  0  0  0  0
  140.4400   73.4210  221.7420 N   0  0  0  0  0  0  0  0  0  0  0  0
  139.7370   74.6970  221.8540 C   0  0  0  0  0  0  0  0  0  0  0  0
  140.6950   75.7740  221.2320 C   0  0  2  0  0  0  0  0  0  0  0  0
  141.0650   76.8750  222.2240 C   0  0  0  0  0  0  0  0  0  0  0  0
  141.2070   78.1160  221.3680 C   0  0  0  0  0  0  0  0  0  0  0  0
  140.2790   77.9770  220.2350 N   0  0  0  0  0  0  0  0  0  0  0  0
  140.7490   78.6900  219.0160 C   0  0  1  0  0  0  0  0  0  0  0  0
  140.8840   80.2090  219.2740 C   0  0  0  0  0  0  0  0  0  0  0  0
  141.2880   80.9550  217.9880 C   0  0  0  0  0  0  0  0  0  0  0  0
  142.1670   80.0930  217.0630 C   0  0  0  0  0  0  0  0  0  0  0  0
  142.9670   79.1360  217.8390 N   0  0  0  0  0  0  0  0  0  0  0  0
  142.1280   78.1360  218.5350 C   0  0  0  0  0  0  0  0  0  0  0  0
  140.0950   76.5240  220.0240 C   0  0  0  0  0  0  0  0  0  0  0  0
  141.9000   74.9550  220.8310 C   0  0  0  0  0  0  0  0  0  0  0  0
  143.0790   75.3760  220.2010 C   0  0  0  0  0  0  0  0  0  0  0  0
  144.0620   74.4190  219.9030 C   0  0  0  0  0  0  0  0  0  0  0  0
  143.8580   73.0670  220.2290 C   0  0  0  0  0  0  0  0  0  0  0  0
  142.6680   72.6620  220.8510 C   0  0  0  0  0  0  0  0  0  0  0  0
  141.6990   73.6330  221.1300 C   0  0  0  0  0  0  0  0  0  0  0  0
  141.2441   72.8197  224.4139 H   0  0  0  0  0  0  0  0  0  0  0  0
  141.7282   71.5569  226.9624 H   0  0  0  0  0  0  0  0  0  0  0  0
  139.7065   67.7109  227.3144 H   0  0  0  0  0  0  0  0  0  0  0  0
  138.7473   67.9980  224.9999 H   0  0  0  0  0  0  0  0  0  0  0  0
  138.7220   69.6980  222.8560 H   0  0  0  0  0  0  0  0  0  0  0  0
  138.7890   74.6614  221.2972 H   0  0  0  0  0  0  0  0  0  0  0  0
  139.4917   74.9317  222.9003 H   0  0  0  0  0  0  0  0  0  0  0  0
  140.2710   77.0073  222.9737 H   0  0  0  0  0  0  0  0  0  0  0  0
  141.9821   76.6443  222.7859 H   0  0  0  0  0  0  0  0  0  0  0  0
  140.9513   79.0097  221.9561 H   0  0  0  0  0  0  0  0  0  0  0  0
  142.2418   78.2258  221.0115 H   0  0  0  0  0  0  0  0  0  0  0  0
  139.9943   78.5189  218.2342 H   0  0  0  0  0  0  0  0  0  0  0  0
  139.9192   80.6005  219.6287 H   0  0  0  0  0  0  0  0  0  0  0  0
  141.6665   80.3672  220.0308 H   0  0  0  0  0  0  0  0  0  0  0  0
  140.3759   81.2407  217.4436 H   0  0  0  0  0  0  0  0  0  0  0  0
  141.8743   81.8382  218.2818 H   0  0  0  0  0  0  0  0  0  0  0  0
  141.5208   79.5396  216.3657 H   0  0  0  0  0  0  0  0  0  0  0  0
  142.8505   80.7554  216.5117 H   0  0  0  0  0  0  0  0  0  0  0  0
  143.6270   78.6390  217.1950 H   0  0  0  0  0  0  0  0  0  0  0  0
  143.5440   79.6580  218.5430 H   0  0  0  0  0  0  0  0  0  0  0  0
  141.9434   77.2990  217.8456 H   0  0  0  0  0  0  0  0  0  0  0  0
  142.6797   77.8283  219.4355 H   0  0  0  0  0  0  0  0  0  0  0  0
  139.0226   76.2941  219.9399 H   0  0  0  0  0  0  0  0  0  0  0  0
  140.5989   76.2108  219.0977 H   0  0  0  0  0  0  0  0  0  0  0  0
  143.2311   76.4350  219.9452 H   0  0  0  0  0  0  0  0  0  0  0  0
  144.9964   74.7287  219.4120 H   0  0  0  0  0  0  0  0  0  0  0  0
  144.6346   72.3238  219.9954 H   0  0  0  0  0  0  0  0  0  0  0  0
  142.5002   71.6070  221.1132 H   0  0  0  0  0  0  0  0  0  0  0  0
  1  2  2  0
  2  3  1  0
  3  4  2  0
  4  5  1  0
  5  6  2  0
  6  7  1  0
  7  8  1  0
  7  9  2  0
  9 10  1  0
 10 11  2  0
 11 12  1  0
  2 13  1  0
 13 14  1  0
 15 14  1  1
 15 16  1  0
 16 17  1  0
 17 18  1  0
 18 19  1  0
 19 20  1  0
 20 21  1  0
 21 22  1  0
 22 23  1  0
 23 24  1  0
 18 25  1  0
 15 26  1  0
 26 27  2  0
 27 28  1  0
 28 29  2  0
 29 30  1  0
 30 31  2  0
 12  3  1  0
 31 13  1  0
 11  5  1  0
 25 15  1  0
 31 26  1  0
 24 19  1  0
  4 32  1  0
  6 33  1  0
  9 34  1  0
 10 35  1  0
 12 36  1  0
 14 37  1  0
 14 38  1  0
 16 39  1  0
 16 40  1  0
 17 41  1  0
 17 42  1  0
 19 43  1  6
 20 44  1  0
 20 45  1  0
 21 46  1  0
 21 47  1  0
 22 48  1  0
 22 49  1  0
 23 50  1  0
 23 51  1  0
 24 52  1  0
 24 53  1  0
 25 54  1  0
 25 55  1  0
 27 56  1  0
 28 57  1  0
 29 58  1  0
 30 59  1  0
M  CHG  1  23   1
M  END
>  <UniqueID>  (73) 
25

>  <SMILES>  (73) 
O=C(c1cc2cc(F)ccc2[nH]1)N1C[C@@]2(CCN([C@H]3CCC[NH2+]C3)C2)c2ccccc21

>  <Energy>  (73) 
131.17729598973577

>  <Genealogy>  (73) 
O=C(c1cc2cc(F)ccc2[nH]1)N1C[C@@]2(CCN(C3CCC[NH2+]C3)C2)c2ccccc21 (protonated)
O=C(c1cc2cc(F)ccc2[nH]1)N1C[C@@]2(CCN([C@H]3CCC[NH2+]C3)C2)c2ccccc21 (chirality)
O=C(c1cc2cc(F)ccc2[nH]1)N1C[C@@]2(CCN([C@H]3CCC[NH2+]C3)C2)c2ccccc21 (3D coordinates assigned)
O=C(c1cc2cc(F)ccc2[nH]1)N1C[C@@]2(CCN([C@H]3CCC[NH2+]C3)C2)c2ccccc21 (nonaromatic ring conformer: 131.17729598973577 kcal/mol)

>  <smiles>  (73) 
O=C(c1cc2cc(F)ccc2[nH]1)N1C[C@@]2(CCN(C3CCCNC3)C2)c2ccccc21

>  <score_type>  (73) 
oracle

>  <origin>  (73) 
autodockgpu

>  <m_score__min__energy>  (73) 
-8.9900000000000002

>  <m_primary>  (73) 
energy

>  <meeko>  (73) 
{"free_energy": -8.8, "intermolecular_energy": -9.69, "internal_energy": -1.09, "cluster_size": 11, "cluster_id": 2, "rank_in_cluster": 3}

>  <energy>  (73) 
-8.8

>  <cluster_rmsd>  (73) 
0.07

>  <rmsd>  (73) 
270.05

>  <cluster>  (73) 
2

$$$$
ABNVVKAVWJYHCL-MBCOAKJTNA-O
     RDKit          3D

 59 64  0  0  0  0  0  0  0  0999 V2000
  139.2090   71.6230  220.9290 O   0  0  0  0  0  0  0  0  0  0  0  0
  139.8160   72.1660  221.8910 C   0  0  0  0  0  0  0  0  0  0  0  0
  139.9140   71.4610  223.1810 C   0  0  0  0  0  0  0  0  0  0  0  0
  140.6780   71.8810  224.2700 C   0  0  0  0  0  0  0  0  0  0  0  0
  140.5240   70.8890  225.2150 C   0  0  0  0  0  0  0  0  0  0  0  0
  141.0920   70.7470  226.4800 C   0  0  0  0  0  0  0  0  0  0  0  0
  140.7800   69.5840  227.2110 C   0  0  0  0  0  0  0  0  0  0  0  0
  141.3140   69.4010  228.4430 F   0  0  0  0  0  0  0  0  0  0  0  0
  139.9340   68.5970  226.6560 C   0  0  0  0  0  0  0  0  0  0  0  0
  139.3860   68.7660  225.3700 C   0  0  0  0  0  0  0  0  0  0  0  0
  139.6950   69.9340  224.6800 C   0  0  0  0  0  0  0  0  0  0  0  0
  139.3160   70.2730  223.4360 N   0  0  0  0  0  0  0  0  0  0  0  0
  140.4460   73.4360  221.6980 N   0  0  0  0  0  0  0  0  0  0  0  0
  139.7440   74.7110  221.8190 C   0  0  0  0  0  0  0  0  0  0  0  0
  140.7020   75.7920  221.2050 C   0  0  2  0  0  0  0  0  0  0  0  0
  141.0720   76.8860  222.2040 C   0  0  0  0  0  0  0  0  0  0  0  0
  141.2150   78.1330  221.3570 C   0  0  0  0  0  0  0  0  0  0  0  0
  140.2870   78.0020  220.2230 N   0  0  0  0  0  0  0  0  0  0  0  0
  140.7570   78.7240  219.0080 C   0  0  1  0  0  0  0  0  0  0  0  0
  140.9650   80.2280  219.2980 C   0  0  0  0  0  0  0  0  0  0  0  0
  141.3690   80.9860  218.0190 C   0  0  0  0  0  0  0  0  0  0  0  0
  142.1850   80.1100  217.0520 C   0  0  0  0  0  0  0  0  0  0  0  0
  142.9620   79.1010  217.7850 N   0  0  0  0  0  0  0  0  0  0  0  0
  142.0980   78.1220  218.4790 C   0  0  0  0  0  0  0  0  0  0  0  0
  140.1030   76.5510  220.0020 C   0  0  0  0  0  0  0  0  0  0  0  0
  141.9070   74.9760  220.7980 C   0  0  0  0  0  0  0  0  0  0  0  0
  143.0860   75.4000  220.1700 C   0  0  0  0  0  0  0  0  0  0  0  0
  144.0690   74.4450  219.8650 C   0  0  0  0  0  0  0  0  0  0  0  0
  143.8640   73.0910  220.1820 C   0  0  0  0  0  0  0  0  0  0  0  0
  142.6740   72.6820  220.8020 C   0  0  0  0  0  0  0  0  0  0  0  0
  141.7060   73.6510  221.0880 C   0  0  0  0  0  0  0  0  0  0  0  0
  141.2731   72.8021  224.3559 H   0  0  0  0  0  0  0  0  0  0  0  0
  141.7607   71.5165  226.8931 H   0  0  0  0  0  0  0  0  0  0  0  0
  139.7019   67.6898  227.2332 H   0  0  0  0  0  0  0  0  0  0  0  0
  138.7346   67.9993  224.9252 H   0  0  0  0  0  0  0  0  0  0  0  0
  138.7090   69.7160  222.7940 H   0  0  0  0  0  0  0  0  0  0  0  0
  138.7960   74.6798  221.2620 H   0  0  0  0  0  0  0  0  0  0  0  0
  139.4990   74.9383  222.8670 H   0  0  0  0  0  0  0  0  0  0  0  0
  140.2777   77.0135  222.9543 H   0  0  0  0  0  0  0  0  0  0  0  0
  141.9890   76.6510  222.7643 H   0  0  0  0  0  0  0  0  0  0  0  0
  140.9596   79.0227  221.9513 H   0  0  0  0  0  0  0  0  0  0  0  0
  142.2499   78.2451  221.0016 H   0  0  0  0  0  0  0  0  0  0  0  0
  139.9765   78.6054  218.2420 H   0  0  0  0  0  0  0  0  0  0  0  0
  140.0276   80.6524  219.6868 H   0  0  0  0  0  0  0  0  0  0  0  0
  141.7720   80.3340  220.0380 H   0  0  0  0  0  0  0  0  0  0  0  0
  140.4568   81.3241  217.5055 H   0  0  0  0  0  0  0  0  0  0  0  0
  142.0012   81.8352  218.3175 H   0  0  0  0  0  0  0  0  0  0  0  0
  141.4977   79.6018  216.3596 H   0  0  0  0  0  0  0  0  0  0  0  0
  142.8824   80.7552  216.4977 H   0  0  0  0  0  0  0  0  0  0  0  0
  143.5830   78.5920  217.1120 H   0  0  0  0  0  0  0  0  0  0  0  0
  143.5780   79.5800  218.4850 H   0  0  0  0  0  0  0  0  0  0  0  0
  141.8597   77.3106  217.7756 H   0  0  0  0  0  0  0  0  0  0  0  0
  142.6578   77.7687  219.3575 H   0  0  0  0  0  0  0  0  0  0  0  0
  139.0306   76.3220  219.9156 H   0  0  0  0  0  0  0  0  0  0  0  0
  140.6077   76.2444  219.0740 H   0  0  0  0  0  0  0  0  0  0  0  0
  143.2383   76.4605  219.9208 H   0  0  0  0  0  0  0  0  0  0  0  0
  145.0034   74.7577  219.3760 H   0  0  0  0  0  0  0  0  0  0  0  0
  144.6400   72.3490  219.9429 H   0  0  0  0  0  0  0  0  0  0  0  0
  142.5059   71.6253  221.0571 H   0  0  0  0  0  0  0  0  0  0  0  0
  1  2  2  0
  2  3  1  0
  3  4  2  0
  4  5  1  0
  5  6  2  0
  6  7  1  0
  7  8  1  0
  7  9  2  0
  9 10  1  0
 10 11  2  0
 11 12  1  0
  2 13  1  0
 13 14  1  0
 15 14  1  1
 15 16  1  0
 16 17  1  0
 17 18  1  0
 18 19  1  0
 19 20  1  0
 20 21  1  0
 21 22  1  0
 22 23  1  0
 23 24  1  0
 18 25  1  0
 15 26  1  0
 26 27  2  0
 27 28  1  0
 28 29  2  0
 29 30  1  0
 30 31  2  0
 12  3  1  0
 31 13  1  0
 11  5  1  0
 25 15  1  0
 31 26  1  0
 24 19  1  0
  4 32  1  0
  6 33  1  0
  9 34  1  0
 10 35  1  0
 12 36  1  0
 14 37  1  0
 14 38  1  0
 16 39  1  0
 16 40  1  0
 17 41  1  0
 17 42  1  0
 19 43  1  6
 20 44  1  0
 20 45  1  0
 21 46  1  0
 21 47  1  0
 22 48  1  0
 22 49  1  0
 23 50  1  0
 23 51  1  0
 24 52  1  0
 24 53  1  0
 25 54  1  0
 25 55  1  0
 27 56  1  0
 28 57  1  0
 29 58  1  0
 30 59  1  0
M  CHG  1  23   1
M  END
>  <UniqueID>  (74) 
25

>  <SMILES>  (74) 
O=C(c1cc2cc(F)ccc2[nH]1)N1C[C@@]2(CCN([C@H]3CCC[NH2+]C3)C2)c2ccccc21

>  <Energy>  (74) 
131.17729598973577

>  <Genealogy>  (74) 
O=C(c1cc2cc(F)ccc2[nH]1)N1C[C@@]2(CCN(C3CCC[NH2+]C3)C2)c2ccccc21 (protonated)
O=C(c1cc2cc(F)ccc2[nH]1)N1C[C@@]2(CCN([C@H]3CCC[NH2+]C3)C2)c2ccccc21 (chirality)
O=C(c1cc2cc(F)ccc2[nH]1)N1C[C@@]2(CCN([C@H]3CCC[NH2+]C3)C2)c2ccccc21 (3D coordinates assigned)
O=C(c1cc2cc(F)ccc2[nH]1)N1C[C@@]2(CCN([C@H]3CCC[NH2+]C3)C2)c2ccccc21 (nonaromatic ring conformer: 131.17729598973577 kcal/mol)

>  <smiles>  (74) 
O=C(c1cc2cc(F)ccc2[nH]1)N1C[C@@]2(CCN(C3CCCNC3)C2)c2ccccc21

>  <score_type>  (74) 
oracle

>  <origin>  (74) 
autodockgpu

>  <m_score__min__energy>  (74) 
-8.9900000000000002

>  <m_primary>  (74) 
energy

>  <meeko>  (74) 
{"free_energy": -8.79, "intermolecular_energy": -9.68, "internal_energy": -1.09, "cluster_size": 11, "cluster_id": 2, "rank_in_cluster": 5}

>  <energy>  (74) 
-8.79

>  <cluster_rmsd>  (74) 
0.17

>  <rmsd>  (74) 
270.06

>  <cluster>  (74) 
2

$$$$
ABNVVKAVWJYHCL-MBCOAKJTNA-O
     RDKit          3D

 59 64  0  0  0  0  0  0  0  0999 V2000
  139.6240   71.3260  220.8570 O   0  0  0  0  0  0  0  0  0  0  0  0
  140.0840   71.9620  221.8430 C   0  0  0  0  0  0  0  0  0  0  0  0
  140.0810   71.3380  223.1770 C   0  0  0  0  0  0  0  0  0  0  0  0
  140.6620   71.8860  224.3210 C   0  0  0  0  0  0  0  0  0  0  0  0
  140.4800   70.9340  225.3020 C   0  0  0  0  0  0  0  0  0  0  0  0
  140.8950   70.9130  226.6330 C   0  0  0  0  0  0  0  0  0  0  0  0
  140.5970   69.7660  227.3930 C   0  0  0  0  0  0  0  0  0  0  0  0
  140.9860   69.6990  228.6900 F   0  0  0  0  0  0  0  0  0  0  0  0
  139.9170   68.6750  226.8050 C   0  0  0  0  0  0  0  0  0  0  0  0
  139.5210   68.7240  225.4550 C   0  0  0  0  0  0  0  0  0  0  0  0
  139.8110   69.8780  224.7340 C   0  0  0  0  0  0  0  0  0  0  0  0
  139.5620   70.1140  223.4340 N   0  0  0  0  0  0  0  0  0  0  0  0
  140.6490   73.2610  221.6400 N   0  0  0  0  0  0  0  0  0  0  0  0
  139.8750   74.4970  221.7100 C   0  0  0  0  0  0  0  0  0  0  0  0
  140.7920   75.6170  221.1010 C   0  0  2  0  0  0  0  0  0  0  0  0
  141.0700   76.7500  222.0850 C   0  0  0  0  0  0  0  0  0  0  0  0
  141.1720   77.9850  221.2150 C   0  0  0  0  0  0  0  0  0  0  0  0
  140.2880   77.7790  220.0560 N   0  0  0  0  0  0  0  0  0  0  0  0
  140.7560   78.4990  218.8400 C   0  0  1  0  0  0  0  0  0  0  0  0
  140.7610   80.0290  219.0650 C   0  0  0  0  0  0  0  0  0  0  0  0
  141.1650   80.7750  217.7780 C   0  0  0  0  0  0  0  0  0  0  0  0
  142.1490   79.9640  216.9160 C   0  0  0  0  0  0  0  0  0  0  0  0
  142.9850   79.0910  217.7510 N   0  0  0  0  0  0  0  0  0  0  0  0
  142.1950   78.0440  218.4340 C   0  0  0  0  0  0  0  0  0  0  0  0
  140.1910   76.3150  219.8630 C   0  0  0  0  0  0  0  0  0  0  0  0
  142.0520   74.8590  220.7490 C   0  0  0  0  0  0  0  0  0  0  0  0
  143.2250   75.3350  220.1490 C   0  0  0  0  0  0  0  0  0  0  0  0
  144.2680   74.4300  219.8960 C   0  0  0  0  0  0  0  0  0  0  0  0
  144.1270   73.0730  220.2380 C   0  0  0  0  0  0  0  0  0  0  0  0
  142.9420   72.6120  220.8300 C   0  0  0  0  0  0  0  0  0  0  0  0
  141.9140   73.5320  221.0640 C   0  0  0  0  0  0  0  0  0  0  0  0
  141.1569   72.8635  224.4190 H   0  0  0  0  0  0  0  0  0  0  0  0
  141.4364   71.7630  227.0738 H   0  0  0  0  0  0  0  0  0  0  0  0
  139.6957   67.7812  227.4068 H   0  0  0  0  0  0  0  0  0  0  0  0
  138.9991   67.8772  224.9853 H   0  0  0  0  0  0  0  0  0  0  0  0
  139.0920   69.4690  222.7610 H   0  0  0  0  0  0  0  0  0  0  0  0
  138.9485   74.4014  221.1248 H   0  0  0  0  0  0  0  0  0  0  0  0
  139.5845   74.7324  222.7445 H   0  0  0  0  0  0  0  0  0  0  0  0
  140.2466   76.8493  222.8075 H   0  0  0  0  0  0  0  0  0  0  0  0
  141.9803   76.5775  222.6780 H   0  0  0  0  0  0  0  0  0  0  0  0
  140.8501   78.8716  221.7809 H   0  0  0  0  0  0  0  0  0  0  0  0
  142.2100   78.1466  220.8888 H   0  0  0  0  0  0  0  0  0  0  0  0
  140.0535   78.2518  218.0304 H   0  0  0  0  0  0  0  0  0  0  0  0
  139.7536   80.3516  219.3666 H   0  0  0  0  0  0  0  0  0  0  0  0
  141.4928   80.2653  219.8516 H   0  0  0  0  0  0  0  0  0  0  0  0
  140.2594   80.9758  217.1867 H   0  0  0  0  0  0  0  0  0  0  0  0
  141.6673   81.7078  218.0738 H   0  0  0  0  0  0  0  0  0  0  0  0
  141.5801   79.3455  216.2062 H   0  0  0  0  0  0  0  0  0  0  0  0
  142.8035   80.6654  216.3777 H   0  0  0  0  0  0  0  0  0  0  0  0
  143.7100   78.6330  217.1490 H   0  0  0  0  0  0  0  0  0  0  0  0
  143.4860   79.6730  218.4650 H   0  0  0  0  0  0  0  0  0  0  0  0
  142.1073   77.1804  217.7583 H   0  0  0  0  0  0  0  0  0  0  0  0
  142.7269   77.7998  219.3654 H   0  0  0  0  0  0  0  0  0  0  0  0
  139.1361   76.0249  219.7491 H   0  0  0  0  0  0  0  0  0  0  0  0
  140.7410   76.0169  218.9582 H   0  0  0  0  0  0  0  0  0  0  0  0
  143.3268   76.3971  219.8814 H   0  0  0  0  0  0  0  0  0  0  0  0
  145.1989   74.7835  219.4286 H   0  0  0  0  0  0  0  0  0  0  0  0
  144.9498   72.3701  220.0403 H   0  0  0  0  0  0  0  0  0  0  0  0
  142.8237   71.5532  221.1036 H   0  0  0  0  0  0  0  0  0  0  0  0
  1  2  2  0
  2  3  1  0
  3  4  2  0
  4  5  1  0
  5  6  2  0
  6  7  1  0
  7  8  1  0
  7  9  2  0
  9 10  1  0
 10 11  2  0
 11 12  1  0
  2 13  1  0
 13 14  1  0
 15 14  1  1
 15 16  1  0
 16 17  1  0
 17 18  1  0
 18 19  1  0
 19 20  1  0
 20 21  1  0
 21 22  1  0
 22 23  1  0
 23 24  1  0
 18 25  1  0
 15 26  1  0
 26 27  2  0
 27 28  1  0
 28 29  2  0
 29 30  1  0
 30 31  2  0
 12  3  1  0
 31 13  1  0
 11  5  1  0
 25 15  1  0
 31 26  1  0
 24 19  1  0
  4 32  1  0
  6 33  1  0
  9 34  1  0
 10 35  1  0
 12 36  1  0
 14 37  1  0
 14 38  1  0
 16 39  1  0
 16 40  1  0
 17 41  1  0
 17 42  1  0
 19 43  1  6
 20 44  1  0
 20 45  1  0
 21 46  1  0
 21 47  1  0
 22 48  1  0
 22 49  1  0
 23 50  1  0
 23 51  1  0
 24 52  1  0
 24 53  1  0
 25 54  1  0
 25 55  1  0
 27 56  1  0
 28 57  1  0
 29 58  1  0
 30 59  1  0
M  CHG  1  23   1
M  END
>  <UniqueID>  (75) 
25

>  <SMILES>  (75) 
O=C(c1cc2cc(F)ccc2[nH]1)N1C[C@@]2(CCN([C@H]3CCC[NH2+]C3)C2)c2ccccc21

>  <Energy>  (75) 
131.17729598973577

>  <Genealogy>  (75) 
O=C(c1cc2cc(F)ccc2[nH]1)N1C[C@@]2(CCN(C3CCC[NH2+]C3)C2)c2ccccc21 (protonated)
O=C(c1cc2cc(F)ccc2[nH]1)N1C[C@@]2(CCN([C@H]3CCC[NH2+]C3)C2)c2ccccc21 (chirality)
O=C(c1cc2cc(F)ccc2[nH]1)N1C[C@@]2(CCN([C@H]3CCC[NH2+]C3)C2)c2ccccc21 (3D coordinates assigned)
O=C(c1cc2cc(F)ccc2[nH]1)N1C[C@@]2(CCN([C@H]3CCC[NH2+]C3)C2)c2ccccc21 (nonaromatic ring conformer: 131.17729598973577 kcal/mol)

>  <smiles>  (75) 
O=C(c1cc2cc(F)ccc2[nH]1)N1C[C@@]2(CCN(C3CCCNC3)C2)c2ccccc21

>  <score_type>  (75) 
oracle

>  <origin>  (75) 
autodockgpu

>  <m_score__min__energy>  (75) 
-8.9900000000000002

>  <m_primary>  (75) 
energy

>  <meeko>  (75) 
{"free_energy": -8.79, "intermolecular_energy": -9.68, "internal_energy": -1.08, "cluster_size": 11, "cluster_id": 2, "rank_in_cluster": 6}

>  <energy>  (75) 
-8.79

>  <cluster_rmsd>  (75) 
0.12

>  <rmsd>  (75) 
270.06

>  <cluster>  (75) 
2

$$$$
ABNVVKAVWJYHCL-MBCOAKJTNA-O
     RDKit          3D

 59 64  0  0  0  0  0  0  0  0999 V2000
  139.7580   74.2540  222.3040 O   0  0  0  0  0  0  0  0  0  0  0  0
  140.5670   74.9120  221.5950 C   0  0  0  0  0  0  0  0  0  0  0  0
  141.7850   74.2600  221.0840 C   0  0  0  0  0  0  0  0  0  0  0  0
  141.9180   72.8960  220.8250 C   0  0  0  0  0  0  0  0  0  0  0  0
  143.2320   72.7350  220.4370 C   0  0  0  0  0  0  0  0  0  0  0  0
  143.9430   71.5840  220.1030 C   0  0  0  0  0  0  0  0  0  0  0  0
  145.3080   71.7270  219.7890 C   0  0  0  0  0  0  0  0  0  0  0  0
  146.0420   70.6340  219.4640 F   0  0  0  0  0  0  0  0  0  0  0  0
  145.9230   72.9990  219.8340 C   0  0  0  0  0  0  0  0  0  0  0  0
  145.1780   74.1400  220.1860 C   0  0  0  0  0  0  0  0  0  0  0  0
  143.8270   73.9720  220.4720 C   0  0  0  0  0  0  0  0  0  0  0  0
  142.9520   74.9130  220.8670 N   0  0  0  0  0  0  0  0  0  0  0  0
  140.2600   76.2670  221.2530 N   0  0  0  0  0  0  0  0  0  0  0  0
  139.6250   76.6580  219.9960 C   0  0  0  0  0  0  0  0  0  0  0  0
  139.7890   78.2170  219.8960 C   0  0  2  0  0  0  0  0  0  0  0  0
  138.4500   78.9440  219.7990 C   0  0  0  0  0  0  0  0  0  0  0  0
  138.7390   80.1440  218.9220 C   0  0  0  0  0  0  0  0  0  0  0  0
  139.8060   79.7560  217.9850 N   0  0  0  0  0  0  0  0  0  0  0  0
  140.6490   80.9090  217.5650 C   0  0  1  0  0  0  0  0  0  0  0  0
  141.3920   81.5270  218.7720 C   0  0  0  0  0  0  0  0  0  0  0  0
  142.1960   82.7710  218.3480 C   0  0  0  0  0  0  0  0  0  0  0  0
  142.7090   82.6710  216.9000 C   0  0  0  0  0  0  0  0  0  0  0  0
  142.9470   81.2720  216.5210 N   0  0  0  0  0  0  0  0  0  0  0  0
  141.7000   80.4770  216.4930 C   0  0  0  0  0  0  0  0  0  0  0  0
  140.5770   78.6850  218.6540 C   0  0  0  0  0  0  0  0  0  0  0  0
  140.5200   78.5570  221.1740 C   0  0  0  0  0  0  0  0  0  0  0  0
  140.9610   79.8070  221.6280 C   0  0  0  0  0  0  0  0  0  0  0  0
  141.6460   79.8760  222.8510 C   0  0  0  0  0  0  0  0  0  0  0  0
  141.8850   78.7080  223.5980 C   0  0  0  0  0  0  0  0  0  0  0  0
  141.4440   77.4640  223.1240 C   0  0  0  0  0  0  0  0  0  0  0  0
  140.7710   77.4200  221.8970 C   0  0  0  0  0  0  0  0  0  0  0  0
  141.1444   72.1187  220.9112 H   0  0  0  0  0  0  0  0  0  0  0  0
  143.4549   70.5984  220.0853 H   0  0  0  0  0  0  0  0  0  0  0  0
  146.9915   73.0978  219.5922 H   0  0  0  0  0  0  0  0  0  0  0  0
  145.6490   75.1329  220.2335 H   0  0  0  0  0  0  0  0  0  0  0  0
  143.1460   75.9290  221.0040 H   0  0  0  0  0  0  0  0  0  0  0  0
  140.1223   76.1659  219.1471 H   0  0  0  0  0  0  0  0  0  0  0  0
  138.5661   76.3613  219.9696 H   0  0  0  0  0  0  0  0  0  0  0  0
  137.6885   78.2983  219.3374 H   0  0  0  0  0  0  0  0  0  0  0  0
  138.0541   79.2293  220.7848 H   0  0  0  0  0  0  0  0  0  0  0  0
  137.8345   80.4294  218.3649 H   0  0  0  0  0  0  0  0  0  0  0  0
  139.0507   81.0051  219.5314 H   0  0  0  0  0  0  0  0  0  0  0  0
  139.9723   81.6598  217.1310 H   0  0  0  0  0  0  0  0  0  0  0  0
  140.6566   81.8175  219.5367 H   0  0  0  0  0  0  0  0  0  0  0  0
  142.0908   80.7785  219.1738 H   0  0  0  0  0  0  0  0  0  0  0  0
  141.5487   83.6563  218.4334 H   0  0  0  0  0  0  0  0  0  0  0  0
  143.0712   82.8471  219.0100 H   0  0  0  0  0  0  0  0  0  0  0  0
  141.9592   83.1047  216.2220 H   0  0  0  0  0  0  0  0  0  0  0  0
  143.6591   83.2204  216.8262 H   0  0  0  0  0  0  0  0  0  0  0  0
  143.3910   81.2450  215.5730 H   0  0  0  0  0  0  0  0  0  0  0  0
  143.6210   80.8400  217.2000 H   0  0  0  0  0  0  0  0  0  0  0  0
  141.2435   80.5838  215.4979 H   0  0  0  0  0  0  0  0  0  0  0  0
  141.9791   79.4376  216.7206 H   0  0  0  0  0  0  0  0  0  0  0  0
  140.7159   77.8406  217.9628 H   0  0  0  0  0  0  0  0  0  0  0  0
  141.5649   79.0636  218.9551 H   0  0  0  0  0  0  0  0  0  0  0  0
  140.7741   80.7161  221.0377 H   0  0  0  0  0  0  0  0  0  0  0  0
  141.9977   80.8480  223.2273 H   0  0  0  0  0  0  0  0  0  0  0  0
  142.4197   78.7708  224.5573 H   0  0  0  0  0  0  0  0  0  0  0  0
  141.6225   76.5453  223.7020 H   0  0  0  0  0  0  0  0  0  0  0  0
  1  2  2  0
  2  3  1  0
  3  4  2  0
  4  5  1  0
  5  6  2  0
  6  7  1  0
  7  8  1  0
  7  9  2  0
  9 10  1  0
 10 11  2  0
 11 12  1  0
  2 13  1  0
 13 14  1  0
 15 14  1  6
 15 16  1  0
 16 17  1  0
 17 18  1  0
 18 19  1  0
 19 20  1  0
 20 21  1  0
 21 22  1  0
 22 23  1  0
 23 24  1  0
 18 25  1  0
 15 26  1  0
 26 27  2  0
 27 28  1  0
 28 29  2  0
 29 30  1  0
 30 31  2  0
 12  3  1  0
 31 13  1  0
 11  5  1  0
 25 15  1  0
 31 26  1  0
 24 19  1  0
  4 32  1  0
  6 33  1  0
  9 34  1  0
 10 35  1  0
 12 36  1  0
 14 37  1  0
 14 38  1  0
 16 39  1  0
 16 40  1  0
 17 41  1  0
 17 42  1  0
 19 43  1  6
 20 44  1  0
 20 45  1  0
 21 46  1  0
 21 47  1  0
 22 48  1  0
 22 49  1  0
 23 50  1  0
 23 51  1  0
 24 52  1  0
 24 53  1  0
 25 54  1  0
 25 55  1  0
 27 56  1  0
 28 57  1  0
 29 58  1  0
 30 59  1  0
M  CHG  1  23   1
M  END
>  <UniqueID>  (76) 
25

>  <SMILES>  (76) 
O=C(c1cc2cc(F)ccc2[nH]1)N1C[C@@]2(CCN([C@H]3CCC[NH2+]C3)C2)c2ccccc21

>  <Energy>  (76) 
131.17729598973577

>  <Genealogy>  (76) 
O=C(c1cc2cc(F)ccc2[nH]1)N1C[C@@]2(CCN(C3CCC[NH2+]C3)C2)c2ccccc21 (protonated)
O=C(c1cc2cc(F)ccc2[nH]1)N1C[C@@]2(CCN([C@H]3CCC[NH2+]C3)C2)c2ccccc21 (chirality)
O=C(c1cc2cc(F)ccc2[nH]1)N1C[C@@]2(CCN([C@H]3CCC[NH2+]C3)C2)c2ccccc21 (3D coordinates assigned)
O=C(c1cc2cc(F)ccc2[nH]1)N1C[C@@]2(CCN([C@H]3CCC[NH2+]C3)C2)c2ccccc21 (nonaromatic ring conformer: 131.17729598973577 kcal/mol)

>  <smiles>  (76) 
O=C(c1cc2cc(F)ccc2[nH]1)N1C[C@@]2(CCN(C3CCCNC3)C2)c2ccccc21

>  <score_type>  (76) 
oracle

>  <origin>  (76) 
autodockgpu

>  <m_score__min__energy>  (76) 
-8.9900000000000002

>  <m_primary>  (76) 
energy

>  <meeko>  (76) 
{"free_energy": -8.94, "intermolecular_energy": -9.84, "internal_energy": -1.09, "cluster_size": 9, "cluster_id": 1, "rank_in_cluster": 6}

>  <energy>  (76) 
-8.79

>  <cluster_rmsd>  (76) 
0.23

>  <rmsd>  (76) 
270.08

>  <cluster>  (76) 
2

$$$$
ABNVVKAVWJYHCL-MBCOAKJTNA-O
     RDKit          3D

 59 64  0  0  0  0  0  0  0  0999 V2000
  139.2280   71.6640  220.8870 O   0  0  0  0  0  0  0  0  0  0  0  0
  139.8270   72.1960  221.8600 C   0  0  0  0  0  0  0  0  0  0  0  0
  139.9170   71.4770  223.1430 C   0  0  0  0  0  0  0  0  0  0  0  0
  140.6600   71.8930  224.2470 C   0  0  0  0  0  0  0  0  0  0  0  0
  140.5070   70.8870  225.1780 C   0  0  0  0  0  0  0  0  0  0  0  0
  141.0590   70.7370  226.4490 C   0  0  0  0  0  0  0  0  0  0  0  0
  140.7520   69.5610  227.1600 C   0  0  0  0  0  0  0  0  0  0  0  0
  141.2710   69.3690  228.3980 F   0  0  0  0  0  0  0  0  0  0  0  0
  139.9260   68.5700  226.5820 C   0  0  0  0  0  0  0  0  0  0  0  0
  139.3930   68.7490  225.2910 C   0  0  0  0  0  0  0  0  0  0  0  0
  139.6970   69.9290  224.6200 C   0  0  0  0  0  0  0  0  0  0  0  0
  139.3300   70.2780  223.3740 N   0  0  0  0  0  0  0  0  0  0  0  0
  140.4560   73.4700  221.6870 N   0  0  0  0  0  0  0  0  0  0  0  0
  139.7530   74.7420  221.8280 C   0  0  0  0  0  0  0  0  0  0  0  0
  140.7110   75.8340  221.2300 C   0  0  2  0  0  0  0  0  0  0  0  0
  141.0800   76.9120  222.2460 C   0  0  0  0  0  0  0  0  0  0  0  0
  141.2220   78.1730  221.4190 C   0  0  0  0  0  0  0  0  0  0  0  0
  140.2930   78.0580  220.2830 N   0  0  0  0  0  0  0  0  0  0  0  0
  140.7620   78.7990  219.0800 C   0  0  1  0  0  0  0  0  0  0  0  0
  141.0690   80.2760  219.4170 C   0  0  0  0  0  0  0  0  0  0  0  0
  141.4720   81.0600  218.1540 C   0  0  0  0  0  0  0  0  0  0  0  0
  142.2010   80.1770  217.1250 C   0  0  0  0  0  0  0  0  0  0  0  0
  142.9420   79.0960  217.7900 N   0  0  0  0  0  0  0  0  0  0  0  0
  142.0460   78.1420  218.4780 C   0  0  0  0  0  0  0  0  0  0  0  0
  140.1100   76.6100  220.0390 C   0  0  0  0  0  0  0  0  0  0  0  0
  141.9160   75.0250  220.8100 C   0  0  0  0  0  0  0  0  0  0  0  0
  143.0940   75.4600  220.1890 C   0  0  0  0  0  0  0  0  0  0  0  0
  144.0780   74.5100  219.8690 C   0  0  0  0  0  0  0  0  0  0  0  0
  143.8740   73.1510  220.1650 C   0  0  0  0  0  0  0  0  0  0  0  0
  142.6840   72.7320  220.7780 C   0  0  0  0  0  0  0  0  0  0  0  0
  141.7160   73.6960  221.0800 C   0  0  0  0  0  0  0  0  0  0  0  0
  141.2413   72.8209  224.3524 H   0  0  0  0  0  0  0  0  0  0  0  0
  141.7114   71.5099  226.8814 H   0  0  0  0  0  0  0  0  0  0  0  0
  139.6980   67.6527  227.1447 H   0  0  0  0  0  0  0  0  0  0  0  0
  138.7567   67.9804  224.8280 H   0  0  0  0  0  0  0  0  0  0  0  0
  138.7390   69.7220  222.7180 H   0  0  0  0  0  0  0  0  0  0  0  0
  138.8049   74.7186  221.2708 H   0  0  0  0  0  0  0  0  0  0  0  0
  139.5079   74.9528  222.8794 H   0  0  0  0  0  0  0  0  0  0  0  0
  140.2856   77.0268  222.9982 H   0  0  0  0  0  0  0  0  0  0  0  0
  141.9973   76.6688  222.8023 H   0  0  0  0  0  0  0  0  0  0  0  0
  140.9658   79.0530  222.0273 H   0  0  0  0  0  0  0  0  0  0  0  0
  142.2568   78.2926  221.0655 H   0  0  0  0  0  0  0  0  0  0  0  0
  139.9486   78.7559  218.3407 H   0  0  0  0  0  0  0  0  0  0  0  0
  140.1726   80.7382  219.8562 H   0  0  0  0  0  0  0  0  0  0  0  0
  141.9070   80.3053  220.1290 H   0  0  0  0  0  0  0  0  0  0  0  0
  140.5641   81.4702  217.6878 H   0  0  0  0  0  0  0  0  0  0  0  0
  142.1629   81.8592  218.4606 H   0  0  0  0  0  0  0  0  0  0  0  0
  141.4612   79.7375  216.4398 H   0  0  0  0  0  0  0  0  0  0  0  0
  142.9160   80.8025  216.5703 H   0  0  0  0  0  0  0  0  0  0  0  0
  143.5080   78.5790  217.0760 H   0  0  0  0  0  0  0  0  0  0  0  0
  143.6090   79.5110  218.4840 H   0  0  0  0  0  0  0  0  0  0  0  0
  141.7352   77.3749  217.7535 H   0  0  0  0  0  0  0  0  0  0  0  0
  142.6144   77.7219  219.3209 H   0  0  0  0  0  0  0  0  0  0  0  0
  139.0378   76.3811  219.9499 H   0  0  0  0  0  0  0  0  0  0  0  0
  140.6136   76.3180  219.1057 H   0  0  0  0  0  0  0  0  0  0  0  0
  143.2454   76.5244  219.9566 H   0  0  0  0  0  0  0  0  0  0  0  0
  145.0121   74.8308  219.3848 H   0  0  0  0  0  0  0  0  0  0  0  0
  144.6506   72.4133  219.9149 H   0  0  0  0  0  0  0  0  0  0  0  0
  142.5159   71.6712  221.0156 H   0  0  0  0  0  0  0  0  0  0  0  0
  1  2  2  0
  2  3  1  0
  3  4  2  0
  4  5  1  0
  5  6  2  0
  6  7  1  0
  7  8  1  0
  7  9  2  0
  9 10  1  0
 10 11  2  0
 11 12  1  0
  2 13  1  0
 13 14  1  0
 15 14  1  1
 15 16  1  0
 16 17  1  0
 17 18  1  0
 18 19  1  0
 19 20  1  0
 20 21  1  0
 21 22  1  0
 22 23  1  0
 23 24  1  0
 18 25  1  0
 15 26  1  0
 26 27  2  0
 27 28  1  0
 28 29  2  0
 29 30  1  0
 30 31  2  0
 12  3  1  0
 31 13  1  0
 11  5  1  0
 25 15  1  0
 31 26  1  0
 24 19  1  0
  4 32  1  0
  6 33  1  0
  9 34  1  0
 10 35  1  0
 12 36  1  0
 14 37  1  0
 14 38  1  0
 16 39  1  0
 16 40  1  0
 17 41  1  0
 17 42  1  0
 19 43  1  6
 20 44  1  0
 20 45  1  0
 21 46  1  0
 21 47  1  0
 22 48  1  0
 22 49  1  0
 23 50  1  0
 23 51  1  0
 24 52  1  0
 24 53  1  0
 25 54  1  0
 25 55  1  0
 27 56  1  0
 28 57  1  0
 29 58  1  0
 30 59  1  0
M  CHG  1  23   1
M  END
>  <UniqueID>  (77) 
25

>  <SMILES>  (77) 
O=C(c1cc2cc(F)ccc2[nH]1)N1C[C@@]2(CCN([C@H]3CCC[NH2+]C3)C2)c2ccccc21

>  <Energy>  (77) 
131.17729598973577

>  <Genealogy>  (77) 
O=C(c1cc2cc(F)ccc2[nH]1)N1C[C@@]2(CCN(C3CCC[NH2+]C3)C2)c2ccccc21 (protonated)
O=C(c1cc2cc(F)ccc2[nH]1)N1C[C@@]2(CCN([C@H]3CCC[NH2+]C3)C2)c2ccccc21 (chirality)
O=C(c1cc2cc(F)ccc2[nH]1)N1C[C@@]2(CCN([C@H]3CCC[NH2+]C3)C2)c2ccccc21 (3D coordinates assigned)
O=C(c1cc2cc(F)ccc2[nH]1)N1C[C@@]2(CCN([C@H]3CCC[NH2+]C3)C2)c2ccccc21 (nonaromatic ring conformer: 131.17729598973577 kcal/mol)

>  <smiles>  (77) 
O=C(c1cc2cc(F)ccc2[nH]1)N1C[C@@]2(CCN(C3CCCNC3)C2)c2ccccc21

>  <score_type>  (77) 
oracle

>  <origin>  (77) 
autodockgpu

>  <m_score__min__energy>  (77) 
-8.9900000000000002

>  <m_primary>  (77) 
energy

>  <meeko>  (77) 
{"free_energy": -8.77, "intermolecular_energy": -9.67, "internal_energy": -1.1, "cluster_size": 11, "cluster_id": 2, "rank_in_cluster": 9}

>  <energy>  (77) 
-8.79

>  <cluster_rmsd>  (77) 
0.16

>  <rmsd>  (77) 
270.04

>  <cluster>  (77) 
2

$$$$
ABNVVKAVWJYHCL-MBCOAKJTNA-O
     RDKit          3D

 59 64  0  0  0  0  0  0  0  0999 V2000
  139.3360   71.4200  220.9800 O   0  0  0  0  0  0  0  0  0  0  0  0
  139.9210   72.0130  221.9250 C   0  0  0  0  0  0  0  0  0  0  0  0
  140.0230   71.3620  223.2420 C   0  0  0  0  0  0  0  0  0  0  0  0
  140.6940   71.8850  224.3480 C   0  0  0  0  0  0  0  0  0  0  0  0
  140.5880   70.9140  225.3200 C   0  0  0  0  0  0  0  0  0  0  0  0
  141.1070   70.8650  226.6130 C   0  0  0  0  0  0  0  0  0  0  0  0
  140.8690   69.7020  227.3700 C   0  0  0  0  0  0  0  0  0  0  0  0
  141.3600   69.6080  228.6300 F   0  0  0  0  0  0  0  0  0  0  0  0
  140.1430   68.6240  226.8150 C   0  0  0  0  0  0  0  0  0  0  0  0
  139.6410   68.7010  225.5020 C   0  0  0  0  0  0  0  0  0  0  0  0
  139.8750   69.8700  224.7840 C   0  0  0  0  0  0  0  0  0  0  0  0
  139.5250   70.1320  223.5130 N   0  0  0  0  0  0  0  0  0  0  0  0
  140.5240   73.2890  221.6880 N   0  0  0  0  0  0  0  0  0  0  0  0
  139.7930   74.5520  221.7570 C   0  0  0  0  0  0  0  0  0  0  0  0
  140.7310   75.6310  221.1070 C   0  0  2  0  0  0  0  0  0  0  0  0
  141.0710   76.7690  222.0660 C   0  0  0  0  0  0  0  0  0  0  0  0
  141.1920   77.9870  221.1740 C   0  0  0  0  0  0  0  0  0  0  0  0
  140.2730   77.7920  220.0410 N   0  0  0  0  0  0  0  0  0  0  0  0
  140.7340   78.4780  218.8030 C   0  0  1  0  0  0  0  0  0  0  0  0
  140.4760   80.0010  218.8780 C   0  0  0  0  0  0  0  0  0  0  0  0
  140.8760   80.6950  217.5620 C   0  0  0  0  0  0  0  0  0  0  0  0
  142.0530   79.9910  216.8630 C   0  0  0  0  0  0  0  0  0  0  0  0
  142.9330   79.3400  217.8420 N   0  0  0  0  0  0  0  0  0  0  0  0
  142.2580   78.2370  218.5590 C   0  0  0  0  0  0  0  0  0  0  0  0
  140.1220   76.3300  219.8740 C   0  0  0  0  0  0  0  0  0  0  0  0
  141.9560   74.8260  220.7370 C   0  0  0  0  0  0  0  0  0  0  0  0
  143.1290   75.2530  220.1000 C   0  0  0  0  0  0  0  0  0  0  0  0
  144.1350   74.3100  219.8370 C   0  0  0  0  0  0  0  0  0  0  0  0
  143.9580   72.9640  220.2030 C   0  0  0  0  0  0  0  0  0  0  0  0
  142.7730   72.5520  220.8320 C   0  0  0  0  0  0  0  0  0  0  0  0
  141.7830   73.5100  221.0760 C   0  0  0  0  0  0  0  0  0  0  0  0
  141.1977   72.8597  224.4268 H   0  0  0  0  0  0  0  0  0  0  0  0
  141.6825   71.7059  227.0274 H   0  0  0  0  0  0  0  0  0  0  0  0
  139.9688   67.7177  227.4136 H   0  0  0  0  0  0  0  0  0  0  0  0
  139.0819   67.8642  225.0579 H   0  0  0  0  0  0  0  0  0  0  0  0
  139.0010   69.5020  222.8660 H   0  0  0  0  0  0  0  0  0  0  0  0
  138.8493   74.4785  221.1967 H   0  0  0  0  0  0  0  0  0  0  0  0
  139.5368   74.8131  222.7944 H   0  0  0  0  0  0  0  0  0  0  0  0
  140.2696   76.9067  222.8069 H   0  0  0  0  0  0  0  0  0  0  0  0
  141.9896   76.5751  222.6392 H   0  0  0  0  0  0  0  0  0  0  0  0
  140.9135   78.8924  221.7332 H   0  0  0  0  0  0  0  0  0  0  0  0
  142.2263   78.1097  220.8202 H   0  0  0  0  0  0  0  0  0  0  0  0
  140.1585   78.0517  217.9681 H   0  0  0  0  0  0  0  0  0  0  0  0
  139.4063   80.1757  219.0659 H   0  0  0  0  0  0  0  0  0  0  0  0
  141.0843   80.4194  219.6934 H   0  0  0  0  0  0  0  0  0  0  0  0
  140.0099   80.6931  216.8839 H   0  0  0  0  0  0  0  0  0  0  0  0
  141.1941   81.7194  217.8057 H   0  0  0  0  0  0  0  0  0  0  0  0
  141.6588   79.2310  216.1723 H   0  0  0  0  0  0  0  0  0  0  0  0
  142.6364   80.7449  216.3141 H   0  0  0  0  0  0  0  0  0  0  0  0
  143.7760   78.9610  217.3480 H   0  0  0  0  0  0  0  0  0  0  0  0
  143.2670   80.0540  218.5350 H   0  0  0  0  0  0  0  0  0  0  0  0
  142.3724   77.3176  217.9661 H   0  0  0  0  0  0  0  0  0  0  0  0
  142.7316   78.1635  219.5491 H   0  0  0  0  0  0  0  0  0  0  0  0
  139.0553   76.0742  219.7916 H   0  0  0  0  0  0  0  0  0  0  0  0
  140.6380   75.9997  218.9604 H   0  0  0  0  0  0  0  0  0  0  0  0
  143.2588   76.3066  219.8117 H   0  0  0  0  0  0  0  0  0  0  0  0
  145.0656   74.6253  219.3425 H   0  0  0  0  0  0  0  0  0  0  0  0
  144.7515   72.2310  219.9955 H   0  0  0  0  0  0  0  0  0  0  0  0
  142.6262   71.5022  221.1258 H   0  0  0  0  0  0  0  0  0  0  0  0
  1  2  2  0
  2  3  1  0
  3  4  2  0
  4  5  1  0
  5  6  2  0
  6  7  1  0
  7  8  1  0
  7  9  2  0
  9 10  1  0
 10 11  2  0
 11 12  1  0
  2 13  1  0
 13 14  1  0
 15 14  1  1
 15 16  1  0
 16 17  1  0
 17 18  1  0
 18 19  1  0
 19 20  1  0
 20 21  1  0
 21 22  1  0
 22 23  1  0
 23 24  1  0
 18 25  1  0
 15 26  1  0
 26 27  2  0
 27 28  1  0
 28 29  2  0
 29 30  1  0
 30 31  2  0
 12  3  1  0
 31 13  1  0
 11  5  1  0
 25 15  1  0
 31 26  1  0
 24 19  1  0
  4 32  1  0
  6 33  1  0
  9 34  1  0
 10 35  1  0
 12 36  1  0
 14 37  1  0
 14 38  1  0
 16 39  1  0
 16 40  1  0
 17 41  1  0
 17 42  1  0
 19 43  1  6
 20 44  1  0
 20 45  1  0
 21 46  1  0
 21 47  1  0
 22 48  1  0
 22 49  1  0
 23 50  1  0
 23 51  1  0
 24 52  1  0
 24 53  1  0
 25 54  1  0
 25 55  1  0
 27 56  1  0
 28 57  1  0
 29 58  1  0
 30 59  1  0
M  CHG  1  23   1
M  END
>  <UniqueID>  (78) 
25

>  <SMILES>  (78) 
O=C(c1cc2cc(F)ccc2[nH]1)N1C[C@@]2(CCN([C@H]3CCC[NH2+]C3)C2)c2ccccc21

>  <Energy>  (78) 
131.17729598973577

>  <Genealogy>  (78) 
O=C(c1cc2cc(F)ccc2[nH]1)N1C[C@@]2(CCN(C3CCC[NH2+]C3)C2)c2ccccc21 (protonated)
O=C(c1cc2cc(F)ccc2[nH]1)N1C[C@@]2(CCN([C@H]3CCC[NH2+]C3)C2)c2ccccc21 (chirality)
O=C(c1cc2cc(F)ccc2[nH]1)N1C[C@@]2(CCN([C@H]3CCC[NH2+]C3)C2)c2ccccc21 (3D coordinates assigned)
O=C(c1cc2cc(F)ccc2[nH]1)N1C[C@@]2(CCN([C@H]3CCC[NH2+]C3)C2)c2ccccc21 (nonaromatic ring conformer: 131.17729598973577 kcal/mol)

>  <smiles>  (78) 
O=C(c1cc2cc(F)ccc2[nH]1)N1C[C@@]2(CCN(C3CCCNC3)C2)c2ccccc21

>  <score_type>  (78) 
oracle

>  <origin>  (78) 
autodockgpu

>  <m_score__min__energy>  (78) 
-8.9900000000000002

>  <m_primary>  (78) 
energy

>  <meeko>  (78) 
{"free_energy": -8.77, "intermolecular_energy": -9.67, "internal_energy": -1.08, "cluster_size": 11, "cluster_id": 2, "rank_in_cluster": 10}

>  <energy>  (78) 
-8.77

>  <cluster_rmsd>  (78) 
0.23

>  <rmsd>  (78) 
270.07

>  <cluster>  (78) 
2

$$$$
ABNVVKAVWJYHCL-MBCOAKJTNA-O
     RDKit          3D

 59 64  0  0  0  0  0  0  0  0999 V2000
  139.2980   71.5220  220.9070 O   0  0  0  0  0  0  0  0  0  0  0  0
  139.8640   72.0770  221.8880 C   0  0  0  0  0  0  0  0  0  0  0  0
  139.9280   71.3780  223.1830 C   0  0  0  0  0  0  0  0  0  0  0  0
  140.5290   71.8790  224.3380 C   0  0  0  0  0  0  0  0  0  0  0  0
  140.4120   70.8670  225.2670 C   0  0  0  0  0  0  0  0  0  0  0  0
  140.8730   70.7860  226.5800 C   0  0  0  0  0  0  0  0  0  0  0  0
  140.6400   69.5860  227.2810 C   0  0  0  0  0  0  0  0  0  0  0  0
  141.0750   69.4590  228.5580 F   0  0  0  0  0  0  0  0  0  0  0  0
  139.9780   68.5070  226.6520 C   0  0  0  0  0  0  0  0  0  0  0  0
  139.5350   68.6190  225.3200 C   0  0  0  0  0  0  0  0  0  0  0  0
  139.7610   69.8220  224.6590 C   0  0  0  0  0  0  0  0  0  0  0  0
  139.4600   70.1230  223.3840 N   0  0  0  0  0  0  0  0  0  0  0  0
  140.4810   73.3550  221.7110 N   0  0  0  0  0  0  0  0  0  0  0  0
  139.7640   74.6210  221.8370 C   0  0  0  0  0  0  0  0  0  0  0  0
  140.7160   75.7190  221.2410 C   0  0  2  0  0  0  0  0  0  0  0  0
  141.0650   76.8080  222.2530 C   0  0  0  0  0  0  0  0  0  0  0  0
  141.2010   78.0640  221.4190 C   0  0  0  0  0  0  0  0  0  0  0  0
  140.2840   77.9320  220.2750 N   0  0  0  0  0  0  0  0  0  0  0  0
  140.7570   78.6700  219.0710 C   0  0  1  0  0  0  0  0  0  0  0  0
  141.0670   80.1470  219.4070 C   0  0  0  0  0  0  0  0  0  0  0  0
  141.4730   80.9280  218.1430 C   0  0  0  0  0  0  0  0  0  0  0  0
  142.2020   80.0410  217.1160 C   0  0  0  0  0  0  0  0  0  0  0  0
  142.9390   78.9600  217.7840 N   0  0  0  0  0  0  0  0  0  0  0  0
  142.0400   78.0090  218.4730 C   0  0  0  0  0  0  0  0  0  0  0  0
  140.1180   76.4810  220.0400 C   0  0  0  0  0  0  0  0  0  0  0  0
  141.9330   74.9190  220.8370 C   0  0  0  0  0  0  0  0  0  0  0  0
  143.1130   75.3620  220.2240 C   0  0  0  0  0  0  0  0  0  0  0  0
  144.1090   74.4210  219.9200 C   0  0  0  0  0  0  0  0  0  0  0  0
  143.9160   73.0610  220.2230 C   0  0  0  0  0  0  0  0  0  0  0  0
  142.7250   72.6340  220.8280 C   0  0  0  0  0  0  0  0  0  0  0  0
  141.7440   73.5900  221.1140 C   0  0  0  0  0  0  0  0  0  0  0  0
  140.9946   72.8659  224.4771 H   0  0  0  0  0  0  0  0  0  0  0  0
  141.3997   71.6285  227.0519 H   0  0  0  0  0  0  0  0  0  0  0  0
  139.8076   67.5728  227.2072 H   0  0  0  0  0  0  0  0  0  0  0  0
  139.0267   67.7823  224.8184 H   0  0  0  0  0  0  0  0  0  0  0  0
  138.9890   69.5020  222.6890 H   0  0  0  0  0  0  0  0  0  0  0  0
  138.8214   74.5844  221.2712 H   0  0  0  0  0  0  0  0  0  0  0  0
  139.5073   74.8360  222.8848 H   0  0  0  0  0  0  0  0  0  0  0  0
  140.2630   76.9196  222.9975 H   0  0  0  0  0  0  0  0  0  0  0  0
  141.9798   76.5782  222.8189 H   0  0  0  0  0  0  0  0  0  0  0  0
  140.9299   78.9453  222.0189 H   0  0  0  0  0  0  0  0  0  0  0  0
  142.2377   78.1918  221.0741 H   0  0  0  0  0  0  0  0  0  0  0  0
  139.9453   78.6278  218.3298 H   0  0  0  0  0  0  0  0  0  0  0  0
  140.1712   80.6118  219.8447 H   0  0  0  0  0  0  0  0  0  0  0  0
  141.9040   80.1756  220.1202 H   0  0  0  0  0  0  0  0  0  0  0  0
  140.5664   81.3391  217.6749 H   0  0  0  0  0  0  0  0  0  0  0  0
  142.1650   81.7265  218.4489 H   0  0  0  0  0  0  0  0  0  0  0  0
  141.4623   79.6020  216.4304 H   0  0  0  0  0  0  0  0  0  0  0  0
  142.9192   80.6637  216.5612 H   0  0  0  0  0  0  0  0  0  0  0  0
  143.5050   78.4400  217.0720 H   0  0  0  0  0  0  0  0  0  0  0  0
  143.6070   79.3750  218.4790 H   0  0  0  0  0  0  0  0  0  0  0  0
  141.7288   77.2408  217.7498 H   0  0  0  0  0  0  0  0  0  0  0  0
  142.6061   77.5895  219.3177 H   0  0  0  0  0  0  0  0  0  0  0  0
  139.0489   76.2407  219.9431 H   0  0  0  0  0  0  0  0  0  0  0  0
  140.6331   76.1879  219.1133 H   0  0  0  0  0  0  0  0  0  0  0  0
  143.2557   76.4264  219.9858 H   0  0  0  0  0  0  0  0  0  0  0  0
  145.0444   74.7484  219.4428 H   0  0  0  0  0  0  0  0  0  0  0  0
  144.7022   72.3296  219.9845 H   0  0  0  0  0  0  0  0  0  0  0  0
  142.5659   71.5732  221.0718 H   0  0  0  0  0  0  0  0  0  0  0  0
  1  2  2  0
  2  3  1  0
  3  4  2  0
  4  5  1  0
  5  6  2  0
  6  7  1  0
  7  8  1  0
  7  9  2  0
  9 10  1  0
 10 11  2  0
 11 12  1  0
  2 13  1  0
 13 14  1  0
 15 14  1  1
 15 16  1  0
 16 17  1  0
 17 18  1  0
 18 19  1  0
 19 20  1  0
 20 21  1  0
 21 22  1  0
 22 23  1  0
 23 24  1  0
 18 25  1  0
 15 26  1  0
 26 27  2  0
 27 28  1  0
 28 29  2  0
 29 30  1  0
 30 31  2  0
 12  3  1  0
 31 13  1  0
 11  5  1  0
 25 15  1  0
 31 26  1  0
 24 19  1  0
  4 32  1  0
  6 33  1  0
  9 34  1  0
 10 35  1  0
 12 36  1  0
 14 37  1  0
 14 38  1  0
 16 39  1  0
 16 40  1  0
 17 41  1  0
 17 42  1  0
 19 43  1  6
 20 44  1  0
 20 45  1  0
 21 46  1  0
 21 47  1  0
 22 48  1  0
 22 49  1  0
 23 50  1  0
 23 51  1  0
 24 52  1  0
 24 53  1  0
 25 54  1  0
 25 55  1  0
 27 56  1  0
 28 57  1  0
 29 58  1  0
 30 59  1  0
M  CHG  1  23   1
M  END
>  <UniqueID>  (79) 
25

>  <SMILES>  (79) 
O=C(c1cc2cc(F)ccc2[nH]1)N1C[C@@]2(CCN([C@H]3CCC[NH2+]C3)C2)c2ccccc21

>  <Energy>  (79) 
131.17729598973577

>  <Genealogy>  (79) 
O=C(c1cc2cc(F)ccc2[nH]1)N1C[C@@]2(CCN(C3CCC[NH2+]C3)C2)c2ccccc21 (protonated)
O=C(c1cc2cc(F)ccc2[nH]1)N1C[C@@]2(CCN([C@H]3CCC[NH2+]C3)C2)c2ccccc21 (chirality)
O=C(c1cc2cc(F)ccc2[nH]1)N1C[C@@]2(CCN([C@H]3CCC[NH2+]C3)C2)c2ccccc21 (3D coordinates assigned)
O=C(c1cc2cc(F)ccc2[nH]1)N1C[C@@]2(CCN([C@H]3CCC[NH2+]C3)C2)c2ccccc21 (nonaromatic ring conformer: 131.17729598973577 kcal/mol)

>  <smiles>  (79) 
O=C(c1cc2cc(F)ccc2[nH]1)N1C[C@@]2(CCN(C3CCCNC3)C2)c2ccccc21

>  <score_type>  (79) 
oracle

>  <origin>  (79) 
autodockgpu

>  <m_score__min__energy>  (79) 
-8.9900000000000002

>  <m_primary>  (79) 
energy

>  <meeko>  (79) 
{"free_energy": -8.75, "intermolecular_energy": -9.65, "internal_energy": -1.1, "cluster_size": 11, "cluster_id": 2, "rank_in_cluster": 11}

>  <energy>  (79) 
-8.77

>  <cluster_rmsd>  (79) 
0.18

>  <rmsd>  (79) 
270.05

>  <cluster>  (79) 
2

$$$$
ABNVVKAVWJYHCL-MBCOAKJTNA-O
     RDKit          3D

 59 64  0  0  0  0  0  0  0  0999 V2000
  139.2220   71.6760  220.8980 O   0  0  0  0  0  0  0  0  0  0  0  0
  139.8220   72.2100  221.8690 C   0  0  0  0  0  0  0  0  0  0  0  0
  139.9120   71.4920  223.1530 C   0  0  0  0  0  0  0  0  0  0  0  0
  140.6830   71.8930  224.2440 C   0  0  0  0  0  0  0  0  0  0  0  0
  140.5180   70.8950  225.1810 C   0  0  0  0  0  0  0  0  0  0  0  0
  141.0860   70.7340  226.4440 C   0  0  0  0  0  0  0  0  0  0  0  0
  140.7590   69.5690  227.1640 C   0  0  0  0  0  0  0  0  0  0  0  0
  141.2930   69.3680  228.3940 F   0  0  0  0  0  0  0  0  0  0  0  0
  139.8990   68.5980  226.6030 C   0  0  0  0  0  0  0  0  0  0  0  0
  139.3510   68.7860  225.3190 C   0  0  0  0  0  0  0  0  0  0  0  0
  139.6750   69.9560  224.6390 C   0  0  0  0  0  0  0  0  0  0  0  0
  139.2990   70.3100  223.3980 N   0  0  0  0  0  0  0  0  0  0  0  0
  140.4510   73.4830  221.6930 N   0  0  0  0  0  0  0  0  0  0  0  0
  139.7470   74.7550  221.8320 C   0  0  0  0  0  0  0  0  0  0  0  0
  140.7050   75.8460  221.2320 C   0  0  2  0  0  0  0  0  0  0  0  0
  141.0750   76.9260  222.2450 C   0  0  0  0  0  0  0  0  0  0  0  0
  141.2160   78.1850  221.4150 C   0  0  0  0  0  0  0  0  0  0  0  0
  140.2870   78.0690  220.2800 N   0  0  0  0  0  0  0  0  0  0  0  0
  140.7550   78.8070  219.0760 C   0  0  1  0  0  0  0  0  0  0  0  0
  141.0400   80.2910  219.4050 C   0  0  0  0  0  0  0  0  0  0  0  0
  141.4420   81.0710  218.1390 C   0  0  0  0  0  0  0  0  0  0  0  0
  142.1900   80.1900  217.1220 C   0  0  0  0  0  0  0  0  0  0  0  0
  142.9400   79.1240  217.8000 N   0  0  0  0  0  0  0  0  0  0  0  0
  142.0520   78.1630  218.4880 C   0  0  0  0  0  0  0  0  0  0  0  0
  140.1030   76.6200  220.0400 C   0  0  0  0  0  0  0  0  0  0  0  0
  141.9100   75.0360  220.8120 C   0  0  0  0  0  0  0  0  0  0  0  0
  143.0880   75.4700  220.1900 C   0  0  0  0  0  0  0  0  0  0  0  0
  144.0710   74.5200  219.8710 C   0  0  0  0  0  0  0  0  0  0  0  0
  143.8670   73.1610  220.1700 C   0  0  0  0  0  0  0  0  0  0  0  0
  142.6780   72.7430  220.7840 C   0  0  0  0  0  0  0  0  0  0  0  0
  141.7100   73.7080  221.0850 C   0  0  0  0  0  0  0  0  0  0  0  0
  141.2899   72.8057  224.3366 H   0  0  0  0  0  0  0  0  0  0  0  0
  141.7657   71.4905  226.8633 H   0  0  0  0  0  0  0  0  0  0  0  0
  139.6559   67.6891  227.1729 H   0  0  0  0  0  0  0  0  0  0  0  0
  138.6884   68.0323  224.8685 H   0  0  0  0  0  0  0  0  0  0  0  0
  138.6840   69.7670  222.7520 H   0  0  0  0  0  0  0  0  0  0  0  0
  138.7989   74.7303  221.2748 H   0  0  0  0  0  0  0  0  0  0  0  0
  139.5013   74.9675  222.8829 H   0  0  0  0  0  0  0  0  0  0  0  0
  140.2815   77.0424  222.9978 H   0  0  0  0  0  0  0  0  0  0  0  0
  141.9929   76.6841  222.8009 H   0  0  0  0  0  0  0  0  0  0  0  0
  140.9603   79.0662  222.0218 H   0  0  0  0  0  0  0  0  0  0  0  0
  142.2505   78.3029  221.0602 H   0  0  0  0  0  0  0  0  0  0  0  0
  139.9479   78.7476  218.3309 H   0  0  0  0  0  0  0  0  0  0  0  0
  140.1343   80.7444  219.8342 H   0  0  0  0  0  0  0  0  0  0  0  0
  141.8720   80.3367  220.1231 H   0  0  0  0  0  0  0  0  0  0  0  0
  140.5322   81.4658  217.6631 H   0  0  0  0  0  0  0  0  0  0  0  0
  142.1201   81.8815  218.4446 H   0  0  0  0  0  0  0  0  0  0  0  0
  141.4610   79.7358  216.4348 H   0  0  0  0  0  0  0  0  0  0  0  0
  142.9008   80.8207  216.5680 H   0  0  0  0  0  0  0  0  0  0  0  0
  143.5190   78.6090  217.0940 H   0  0  0  0  0  0  0  0  0  0  0  0
  143.5970   79.5530  218.4960 H   0  0  0  0  0  0  0  0  0  0  0  0
  141.7567   77.3868  217.7666 H   0  0  0  0  0  0  0  0  0  0  0  0
  142.6197   77.7563  219.3379 H   0  0  0  0  0  0  0  0  0  0  0  0
  139.0305   76.3916  219.9528 H   0  0  0  0  0  0  0  0  0  0  0  0
  140.6056   76.3256  219.1069 H   0  0  0  0  0  0  0  0  0  0  0  0
  143.2396   76.5341  219.9562 H   0  0  0  0  0  0  0  0  0  0  0  0
  145.0046   74.8398  219.3852 H   0  0  0  0  0  0  0  0  0  0  0  0
  144.6437   72.4229  219.9210 H   0  0  0  0  0  0  0  0  0  0  0  0
  142.5100   71.6826  221.0233 H   0  0  0  0  0  0  0  0  0  0  0  0
  1  2  2  0
  2  3  1  0
  3  4  2  0
  4  5  1  0
  5  6  2  0
  6  7  1  0
  7  8  1  0
  7  9  2  0
  9 10  1  0
 10 11  2  0
 11 12  1  0
  2 13  1  0
 13 14  1  0
 15 14  1  1
 15 16  1  0
 16 17  1  0
 17 18  1  0
 18 19  1  0
 19 20  1  0
 20 21  1  0
 21 22  1  0
 22 23  1  0
 23 24  1  0
 18 25  1  0
 15 26  1  0
 26 27  2  0
 27 28  1  0
 28 29  2  0
 29 30  1  0
 30 31  2  0
 12  3  1  0
 31 13  1  0
 11  5  1  0
 25 15  1  0
 31 26  1  0
 24 19  1  0
  4 32  1  0
  6 33  1  0
  9 34  1  0
 10 35  1  0
 12 36  1  0
 14 37  1  0
 14 38  1  0
 16 39  1  0
 16 40  1  0
 17 41  1  0
 17 42  1  0
 19 43  1  6
 20 44  1  0
 20 45  1  0
 21 46  1  0
 21 47  1  0
 22 48  1  0
 22 49  1  0
 23 50  1  0
 23 51  1  0
 24 52  1  0
 24 53  1  0
 25 54  1  0
 25 55  1  0
 27 56  1  0
 28 57  1  0
 29 58  1  0
 30 59  1  0
M  CHG  1  23   1
M  END
>  <UniqueID>  (80) 
25

>  <SMILES>  (80) 
O=C(c1cc2cc(F)ccc2[nH]1)N1C[C@@]2(CCN([C@H]3CCC[NH2+]C3)C2)c2ccccc21

>  <Energy>  (80) 
131.17729598973577

>  <Genealogy>  (80) 
O=C(c1cc2cc(F)ccc2[nH]1)N1C[C@@]2(CCN(C3CCC[NH2+]C3)C2)c2ccccc21 (protonated)
O=C(c1cc2cc(F)ccc2[nH]1)N1C[C@@]2(CCN([C@H]3CCC[NH2+]C3)C2)c2ccccc21 (chirality)
O=C(c1cc2cc(F)ccc2[nH]1)N1C[C@@]2(CCN([C@H]3CCC[NH2+]C3)C2)c2ccccc21 (3D coordinates assigned)
O=C(c1cc2cc(F)ccc2[nH]1)N1C[C@@]2(CCN([C@H]3CCC[NH2+]C3)C2)c2ccccc21 (nonaromatic ring conformer: 131.17729598973577 kcal/mol)

>  <smiles>  (80) 
O=C(c1cc2cc(F)ccc2[nH]1)N1C[C@@]2(CCN(C3CCCNC3)C2)c2ccccc21

>  <score_type>  (80) 
oracle

>  <origin>  (80) 
autodockgpu

>  <m_score__min__energy>  (80) 
-8.9900000000000002

>  <m_primary>  (80) 
energy

>  <meeko>  (80) 
{"free_energy": -8.79, "intermolecular_energy": -9.68, "internal_energy": -1.09, "cluster_size": 11, "cluster_id": 2, "rank_in_cluster": 7}

>  <energy>  (80) 
-8.75

>  <cluster_rmsd>  (80) 
0.18

>  <rmsd>  (80) 
270.07

>  <cluster>  (80) 
2

$$$$
