CBUCDBLHFQUVQW-OAXGSVGCNA-N
     RDKit          3D

 51 53  0  0  0  0  0  0  0  0999 V2000
  140.2870   69.6820  222.7810 H   0  0  0  0  0  0  0  0  0  0  0  0
  140.3320   70.6190  223.1640 O   0  0  0  0  0  0  0  0  0  0  0  0
  139.4730   71.0220  224.1820 C   0  0  0  0  0  0  0  0  0  0  0  0
  138.3100   71.5180  223.8690 N   0  0  0  0  0  0  0  0  0  0  0  0
  137.7410   71.5970  222.5230 C   0  0  0  0  0  0  0  0  0  0  0  0
  136.7837   71.0554  222.5080 H   0  0  0  0  0  0  0  0  0  0  0  0
  138.4582   71.1481  221.8201 H   0  0  0  0  0  0  0  0  0  0  0  0
  137.4950   73.0630  222.0920 C   0  0  2  0  0  0  0  0  0  0  0  0
  137.0895   73.5487  222.9918 H   0  0  0  0  0  0  0  0  0  0  0  0
  136.4630   73.1400  220.9530 C   0  0  0  0  0  0  0  0  0  0  0  0
  135.4517   73.2155  221.3790 H   0  0  0  0  0  0  0  0  0  0  0  0
  136.6667   74.0254  220.3329 H   0  0  0  0  0  0  0  0  0  0  0  0
  136.5330   72.2341  220.3329 H   0  0  0  0  0  0  0  0  0  0  0  0
  138.7780   73.8900  221.7450 C   0  0  1  0  0  0  0  0  0  0  0  0
  138.7459   73.9157  220.6458 H   0  0  0  0  0  0  0  0  0  0  0  0
  138.7840   75.3770  222.0930 C   0  0  0  0  0  0  0  0  0  0  0  0
  137.5500   76.0280  222.2830 C   0  0  0  0  0  0  0  0  0  0  0  0
  136.6143   75.4630  222.1594 H   0  0  0  0  0  0  0  0  0  0  0  0
  137.4970   77.3800  222.6260 C   0  0  0  0  0  0  0  0  0  0  0  0
  136.5230   77.8754  222.7518 H   0  0  0  0  0  0  0  0  0  0  0  0
  138.6750   78.1060  222.8100 C   0  0  0  0  0  0  0  0  0  0  0  0
  138.5690   79.8090  223.2380 Cl  0  0  0  0  0  0  0  0  0  0  0  0
  139.9160   77.4680  222.6640 C   0  0  0  0  0  0  0  0  0  0  0  0
  141.4220   78.3420  222.9080 Cl  0  0  0  0  0  0  0  0  0  0  0  0
  139.9690   76.1110  222.3220 C   0  0  0  0  0  0  0  0  0  0  0  0
  140.9445   75.6110  222.2307 H   0  0  0  0  0  0  0  0  0  0  0  0
  140.0140   73.2070  222.1750 N   0  0  0  0  0  0  0  0  0  0  0  0
  139.9810   72.7870  223.1320 H   0  0  0  0  0  0  0  0  0  0  0  0
  141.2830   73.1410  221.4850 C   0  0  0  0  0  0  0  0  0  0  0  0
  141.9880   71.9360  221.2880 C   0  0  0  0  0  0  0  0  0  0  0  0
  141.5813   70.9944  221.6854 H   0  0  0  0  0  0  0  0  0  0  0  0
  143.1990   71.9290  220.5920 C   0  0  0  0  0  0  0  0  0  0  0  0
  143.7369   70.9814  220.4411 H   0  0  0  0  0  0  0  0  0  0  0  0
  143.7320   73.1180  220.0860 C   0  0  0  0  0  0  0  0  0  0  0  0
  144.9760   73.0790  219.3570 C   0  0  0  0  0  0  0  0  0  0  0  0
  145.9740   73.0480  218.7730 N   0  0  0  0  0  0  0  0  0  0  0  0
  143.0500   74.3290  220.2900 C   0  0  0  0  0  0  0  0  0  0  0  0
  143.6770   75.8520  219.6710 Cl  0  0  0  0  0  0  0  0  0  0  0  0
  141.8380   74.3330  220.9920 C   0  0  0  0  0  0  0  0  0  0  0  0
  141.3127   75.2848  221.1598 H   0  0  0  0  0  0  0  0  0  0  0  0
  139.9100   70.8410  225.5800 C   0  0  0  0  0  0  0  0  0  0  0  0
  139.5160   69.7130  226.3200 C   0  0  0  0  0  0  0  0  0  0  0  0
  138.8897   68.9398  225.8510 H   0  0  0  0  0  0  0  0  0  0  0  0
  139.9190   69.5720  227.6520 C   0  0  0  0  0  0  0  0  0  0  0  0
  139.6191   68.6819  228.2245 H   0  0  0  0  0  0  0  0  0  0  0  0
  140.7010   70.5580  228.2570 C   0  0  0  0  0  0  0  0  0  0  0  0
  141.0218   70.4415  229.3027 H   0  0  0  0  0  0  0  0  0  0  0  0
  141.0760   71.6940  227.5320 C   0  0  0  0  0  0  0  0  0  0  0  0
  141.6879   72.4733  228.0097 H   0  0  0  0  0  0  0  0  0  0  0  0
  140.6740   71.8400  226.2010 C   0  0  0  0  0  0  0  0  0  0  0  0
  140.9579   72.7417  225.6386 H   0  0  0  0  0  0  0  0  0  0  0  0
  1  2  1  0
  2  3  1  0
  3  4  2  0
  4  5  1  0
  5  6  1  0
  5  7  1  0
  5  8  1  0
  8  9  1  1
  8 10  1  0
 10 11  1  0
 10 12  1  0
 10 13  1  0
  8 14  1  0
 14 15  1  6
 14 16  1  0
 16 17  2  0
 17 18  1  0
 17 19  1  0
 19 20  1  0
 19 21  2  0
 21 22  1  0
 21 23  1  0
 23 24  1  0
 23 25  2  0
 25 26  1  0
 14 27  1  0
 27 28  1  0
 27 29  1  0
 29 30  2  0
 30 31  1  0
 30 32  1  0
 32 33  1  0
 32 34  2  0
 34 35  1  0
 35 36  3  0
 34 37  1  0
 37 38  1  0
 37 39  2  0
 39 40  1  0
  3 41  1  0
 41 42  2  0
 42 43  1  0
 42 44  1  0
 44 45  1  0
 44 46  2  0
 46 47  1  0
 46 48  1  0
 48 49  1  0
 48 50  2  0
 50 51  1  0
 25 16  1  0
 39 29  1  0
 50 41  1  0
M  END
>  <UniqueID>  (1) 
28

>  <SMILES>  (1) 
C[C@@H](C/N=C(/O)c1ccccc1)[C@H](Nc1ccc(C#N)c(Cl)c1)c1ccc(Cl)c(Cl)c1

>  <Energy>  (1) 
65.59900975368825

>  <Genealogy>  (1) 
CC(CN=C(O)c1ccccc1)C(Nc1ccc(C#N)c(Cl)c1)c1ccc(Cl)c(Cl)c1 (tautomer)
C[C@@H](CN=C(O)c1ccccc1)[C@H](Nc1ccc(C#N)c(Cl)c1)c1ccc(Cl)c(Cl)c1 (chirality)
C[C@@H](C/N=C(/O)c1ccccc1)[C@H](Nc1ccc(C#N)c(Cl)c1)c1ccc(Cl)c(Cl)c1 (cis-trans isomerization)
C[C@@H](C/N=C(/O)c1ccccc1)[C@H](Nc1ccc(C#N)c(Cl)c1)c1ccc(Cl)c(Cl)c1 (3D coordinates assigned)
C[C@@H](C/N=C(/O)c1ccccc1)[C@H](Nc1ccc(C#N)c(Cl)c1)c1ccc(Cl)c(Cl)c1 (optimized conformer: 65.59900975368825 kcal/mol)

>  <smiles>  (1) 
CC(CNC(=O)c1ccccc1)C(Nc1ccc(C#N)c(Cl)c1)c1ccc(Cl)c(Cl)c1

>  <score_type>  (1) 
oracle

>  <origin>  (1) 
autodockgpu

>  <m_score__min__energy>  (1) 
-8.6699999999999999

>  <m_primary>  (1) 
energy

>  <meeko>  (1) 
{"free_energy": -7.63, "intermolecular_energy": -10.61, "internal_energy": -2.38, "cluster_size": 1, "cluster_id": 4, "rank_in_cluster": 1}

>  <energy>  (1) 
-8.67

>  <cluster_rmsd>  (1) 
0.0

>  <rmsd>  (1) 
271.74

>  <cluster>  (1) 
1

$$$$
CBUCDBLHFQUVQW-OAXGSVGCNA-N
     RDKit          3D

 51 53  0  0  0  0  0  0  0  0999 V2000
  142.1890   75.9400  222.1810 H   0  0  0  0  0  0  0  0  0  0  0  0
  141.2540   75.5830  222.3390 O   0  0  0  0  0  0  0  0  0  0  0  0
  140.1600   76.4390  222.4140 C   0  0  0  0  0  0  0  0  0  0  0  0
  138.9670   75.9600  222.2090 N   0  0  0  0  0  0  0  0  0  0  0  0
  138.5040   75.2940  220.9900 C   0  0  0  0  0  0  0  0  0  0  0  0
  138.0604   76.0448  220.3195 H   0  0  0  0  0  0  0  0  0  0  0  0
  137.7617   74.5336  221.2742 H   0  0  0  0  0  0  0  0  0  0  0  0
  139.6650   74.5850  220.2520 C   0  0  2  0  0  0  0  0  0  0  0  0
  140.5323   75.2423  220.4121 H   0  0  0  0  0  0  0  0  0  0  0  0
  139.3750   74.4680  218.7450 C   0  0  0  0  0  0  0  0  0  0  0  0
  138.3642   74.0602  218.5967 H   0  0  0  0  0  0  0  0  0  0  0  0
  139.4407   75.4630  218.2806 H   0  0  0  0  0  0  0  0  0  0  0  0
  140.1128   73.7972  218.2806 H   0  0  0  0  0  0  0  0  0  0  0  0
  140.1030   73.2050  220.8480 C   0  0  1  0  0  0  0  0  0  0  0  0
  139.4634   72.5008  220.2958 H   0  0  0  0  0  0  0  0  0  0  0  0
  141.5010   72.6920  220.5070 C   0  0  0  0  0  0  0  0  0  0  0  0
  141.6170   71.4800  219.8000 C   0  0  0  0  0  0  0  0  0  0  0  0
  140.7092   70.9223  219.5265 H   0  0  0  0  0  0  0  0  0  0  0  0
  142.8700   70.9760  219.4410 C   0  0  0  0  0  0  0  0  0  0  0  0
  142.9421   70.0182  218.9048 H   0  0  0  0  0  0  0  0  0  0  0  0
  144.0300   71.6830  219.7600 C   0  0  0  0  0  0  0  0  0  0  0  0
  145.5890   71.0160  219.2950 Cl  0  0  0  0  0  0  0  0  0  0  0  0
  143.9350   72.9120  220.4290 C   0  0  0  0  0  0  0  0  0  0  0  0
  145.3720   73.8440  220.8300 Cl  0  0  0  0  0  0  0  0  0  0  0  0
  142.6790   73.4180  220.7870 C   0  0  0  0  0  0  0  0  0  0  0  0
  142.6096   74.3926  221.2923 H   0  0  0  0  0  0  0  0  0  0  0  0
  139.8020   73.1010  222.2900 N   0  0  0  0  0  0  0  0  0  0  0  0
  139.7830   74.0090  222.8070 H   0  0  0  0  0  0  0  0  0  0  0  0
  139.6380   71.9030  223.0830 C   0  0  0  0  0  0  0  0  0  0  0  0
  138.8550   70.8080  222.6660 C   0  0  0  0  0  0  0  0  0  0  0  0
  138.3209   70.8532  221.7054 H   0  0  0  0  0  0  0  0  0  0  0  0
  138.7520   69.6660  223.4630 C   0  0  0  0  0  0  0  0  0  0  0  0
  138.1411   68.8165  223.1238 H   0  0  0  0  0  0  0  0  0  0  0  0
  139.4200   69.5950  224.6890 C   0  0  0  0  0  0  0  0  0  0  0  0
  139.3090   68.3970  225.4840 C   0  0  0  0  0  0  0  0  0  0  0  0
  139.2200   67.4360  226.1230 N   0  0  0  0  0  0  0  0  0  0  0  0
  140.1890   70.6860  225.1260 C   0  0  0  0  0  0  0  0  0  0  0  0
  141.0520   70.6450  226.6590 Cl  0  0  0  0  0  0  0  0  0  0  0  0
  140.2880   71.8310  224.3260 C   0  0  0  0  0  0  0  0  0  0  0  0
  140.8837   72.6868  224.6763 H   0  0  0  0  0  0  0  0  0  0  0  0
  140.4010   77.8550  222.7540 C   0  0  0  0  0  0  0  0  0  0  0  0
  141.7060   78.3720  222.8140 C   0  0  0  0  0  0  0  0  0  0  0  0
  142.5644   77.7231  222.5860 H   0  0  0  0  0  0  0  0  0  0  0  0
  141.9160   79.7100  223.1630 C   0  0  0  0  0  0  0  0  0  0  0  0
  142.9382   80.1150  223.1950 H   0  0  0  0  0  0  0  0  0  0  0  0
  140.8300   80.5330  223.4710 C   0  0  0  0  0  0  0  0  0  0  0  0
  140.9968   81.5864  223.7401 H   0  0  0  0  0  0  0  0  0  0  0  0
  139.5310   80.0170  223.4370 C   0  0  0  0  0  0  0  0  0  0  0  0
  138.6764   80.6636  223.6851 H   0  0  0  0  0  0  0  0  0  0  0  0
  139.3170   78.6800  223.0880 C   0  0  0  0  0  0  0  0  0  0  0  0
  138.2948   78.2738  223.0753 H   0  0  0  0  0  0  0  0  0  0  0  0
  1  2  1  0
  2  3  1  0
  3  4  2  0
  4  5  1  0
  5  6  1  0
  5  7  1  0
  5  8  1  0
  8  9  1  6
  8 10  1  0
 10 11  1  0
 10 12  1  0
 10 13  1  0
  8 14  1  0
 14 15  1  6
 14 16  1  0
 16 17  2  0
 17 18  1  0
 17 19  1  0
 19 20  1  0
 19 21  2  0
 21 22  1  0
 21 23  1  0
 23 24  1  0
 23 25  2  0
 25 26  1  0
 14 27  1  0
 27 28  1  0
 27 29  1  0
 29 30  2  0
 30 31  1  0
 30 32  1  0
 32 33  1  0
 32 34  2  0
 34 35  1  0
 35 36  3  0
 34 37  1  0
 37 38  1  0
 37 39  2  0
 39 40  1  0
  3 41  1  0
 41 42  2  0
 42 43  1  0
 42 44  1  0
 44 45  1  0
 44 46  2  0
 46 47  1  0
 46 48  1  0
 48 49  1  0
 48 50  2  0
 50 51  1  0
 25 16  1  0
 39 29  1  0
 50 41  1  0
M  END
>  <UniqueID>  (2) 
28

>  <SMILES>  (2) 
C[C@@H](C/N=C(/O)c1ccccc1)[C@H](Nc1ccc(C#N)c(Cl)c1)c1ccc(Cl)c(Cl)c1

>  <Energy>  (2) 
65.59900975368825

>  <Genealogy>  (2) 
CC(CN=C(O)c1ccccc1)C(Nc1ccc(C#N)c(Cl)c1)c1ccc(Cl)c(Cl)c1 (tautomer)
C[C@@H](CN=C(O)c1ccccc1)[C@H](Nc1ccc(C#N)c(Cl)c1)c1ccc(Cl)c(Cl)c1 (chirality)
C[C@@H](C/N=C(/O)c1ccccc1)[C@H](Nc1ccc(C#N)c(Cl)c1)c1ccc(Cl)c(Cl)c1 (cis-trans isomerization)
C[C@@H](C/N=C(/O)c1ccccc1)[C@H](Nc1ccc(C#N)c(Cl)c1)c1ccc(Cl)c(Cl)c1 (3D coordinates assigned)
C[C@@H](C/N=C(/O)c1ccccc1)[C@H](Nc1ccc(C#N)c(Cl)c1)c1ccc(Cl)c(Cl)c1 (optimized conformer: 65.59900975368825 kcal/mol)

>  <smiles>  (2) 
CC(CNC(=O)c1ccccc1)C(Nc1ccc(C#N)c(Cl)c1)c1ccc(Cl)c(Cl)c1

>  <score_type>  (2) 
oracle

>  <origin>  (2) 
autodockgpu

>  <m_score__min__energy>  (2) 
-8.6699999999999999

>  <m_primary>  (2) 
energy

>  <meeko>  (2) 
{"free_energy": -8.19, "intermolecular_energy": -11.17, "internal_energy": -2.65, "cluster_size": 4, "cluster_id": 2, "rank_in_cluster": 3}

>  <energy>  (2) 
-8.17

>  <cluster_rmsd>  (2) 
1.48

>  <rmsd>  (2) 
271.58

>  <cluster>  (2) 
1

$$$$
CBUCDBLHFQUVQW-OAXGSVGCNA-N
     RDKit          3D

 51 53  0  0  0  0  0  0  0  0999 V2000
  142.4170   76.0070  221.5110 H   0  0  0  0  0  0  0  0  0  0  0  0
  141.5630   75.4710  221.4130 O   0  0  0  0  0  0  0  0  0  0  0  0
  140.3780   75.8900  222.0110 C   0  0  0  0  0  0  0  0  0  0  0  0
  139.3920   75.0460  222.1200 N   0  0  0  0  0  0  0  0  0  0  0  0
  139.3550   73.6890  221.5730 C   0  0  0  0  0  0  0  0  0  0  0  0
  139.8193   73.6934  220.5758 H   0  0  0  0  0  0  0  0  0  0  0  0
  138.3039   73.3698  221.5157 H   0  0  0  0  0  0  0  0  0  0  0  0
  140.1160   72.6890  222.4770 C   0  0  2  0  0  0  0  0  0  0  0  0
  140.2912   73.2427  223.4112 H   0  0  0  0  0  0  0  0  0  0  0  0
  141.4640   72.2910  221.8500 C   0  0  0  0  0  0  0  0  0  0  0  0
  142.1904   72.0765  222.6478 H   0  0  0  0  0  0  0  0  0  0  0  0
  141.3282   71.3946  221.2271 H   0  0  0  0  0  0  0  0  0  0  0  0
  141.8369   73.1174  221.2271 H   0  0  0  0  0  0  0  0  0  0  0  0
  139.3060   71.4240  222.9180 C   0  0  1  0  0  0  0  0  0  0  0  0
  139.6610   70.6635  222.2069 H   0  0  0  0  0  0  0  0  0  0  0  0
  139.6550   70.7850  224.2600 C   0  0  0  0  0  0  0  0  0  0  0  0
  139.5570   69.3860  224.3850 C   0  0  0  0  0  0  0  0  0  0  0  0
  139.2149   68.7877  223.5277 H   0  0  0  0  0  0  0  0  0  0  0  0
  139.8880   68.7470  225.5820 C   0  0  0  0  0  0  0  0  0  0  0  0
  139.7874   67.6548  225.6661 H   0  0  0  0  0  0  0  0  0  0  0  0
  140.3460   69.4890  226.6720 C   0  0  0  0  0  0  0  0  0  0  0  0
  140.7480   68.6500  228.1640 Cl  0  0  0  0  0  0  0  0  0  0  0  0
  140.4890   70.8800  226.5580 C   0  0  0  0  0  0  0  0  0  0  0  0
  141.0830   71.8470  227.9010 Cl  0  0  0  0  0  0  0  0  0  0  0  0
  140.1600   71.5200  225.3560 C   0  0  0  0  0  0  0  0  0  0  0  0
  140.2965   72.6076  225.2644 H   0  0  0  0  0  0  0  0  0  0  0  0
  137.8510   71.6060  222.7440 N   0  0  0  0  0  0  0  0  0  0  0  0
  137.5730   72.3910  222.1110 H   0  0  0  0  0  0  0  0  0  0  0  0
  136.7780   70.9080  223.4150 C   0  0  0  0  0  0  0  0  0  0  0  0
  136.5260   69.5330  223.2360 C   0  0  0  0  0  0  0  0  0  0  0  0
  137.1510   68.9491  222.5443 H   0  0  0  0  0  0  0  0  0  0  0  0
  135.4890   68.9060  223.9300 C   0  0  0  0  0  0  0  0  0  0  0  0
  135.3051   67.8315  223.7831 H   0  0  0  0  0  0  0  0  0  0  0  0
  134.6830   69.6340  224.8100 C   0  0  0  0  0  0  0  0  0  0  0  0
  133.6300   68.9580  225.5270 C   0  0  0  0  0  0  0  0  0  0  0  0
  132.7850   68.4150  226.1020 N   0  0  0  0  0  0  0  0  0  0  0  0
  134.9110   71.0090  224.9850 C   0  0  0  0  0  0  0  0  0  0  0  0
  133.9270   71.9700  226.0830 Cl  0  0  0  0  0  0  0  0  0  0  0  0
  135.9480   71.6360  224.2850 C   0  0  0  0  0  0  0  0  0  0  0  0
  136.1161   72.7150  224.4177 H   0  0  0  0  0  0  0  0  0  0  0  0
  140.3030   77.2710  222.5230 C   0  0  0  0  0  0  0  0  0  0  0  0
  141.4500   77.9300  222.9990 C   0  0  0  0  0  0  0  0  0  0  0  0
  142.4252   77.4218  222.9733 H   0  0  0  0  0  0  0  0  0  0  0  0
  141.3540   79.2300  223.5050 C   0  0  0  0  0  0  0  0  0  0  0  0
  142.2562   79.7470  223.8638 H   0  0  0  0  0  0  0  0  0  0  0  0
  140.1150   79.8740  223.5560 C   0  0  0  0  0  0  0  0  0  0  0  0
  140.0428   80.8989  223.9489 H   0  0  0  0  0  0  0  0  0  0  0  0
  138.9670   79.2140  223.1070 C   0  0  0  0  0  0  0  0  0  0  0  0
  137.9906   79.7186  223.1520 H   0  0  0  0  0  0  0  0  0  0  0  0
  139.0580   77.9140  222.6010 C   0  0  0  0  0  0  0  0  0  0  0  0
  138.1502   77.3930  222.2627 H   0  0  0  0  0  0  0  0  0  0  0  0
  1  2  1  0
  2  3  1  0
  3  4  2  0
  4  5  1  0
  5  6  1  0
  5  7  1  0
  5  8  1  0
  8  9  1  1
  8 10  1  0
 10 11  1  0
 10 12  1  0
 10 13  1  0
  8 14  1  0
 14 15  1  6
 14 16  1  0
 16 17  2  0
 17 18  1  0
 17 19  1  0
 19 20  1  0
 19 21  2  0
 21 22  1  0
 21 23  1  0
 23 24  1  0
 23 25  2  0
 25 26  1  0
 14 27  1  0
 27 28  1  0
 27 29  1  0
 29 30  2  0
 30 31  1  0
 30 32  1  0
 32 33  1  0
 32 34  2  0
 34 35  1  0
 35 36  3  0
 34 37  1  0
 37 38  1  0
 37 39  2  0
 39 40  1  0
  3 41  1  0
 41 42  2  0
 42 43  1  0
 42 44  1  0
 44 45  1  0
 44 46  2  0
 46 47  1  0
 46 48  1  0
 48 49  1  0
 48 50  2  0
 50 51  1  0
 25 16  1  0
 39 29  1  0
 50 41  1  0
M  END
>  <UniqueID>  (3) 
28

>  <SMILES>  (3) 
C[C@@H](C/N=C(/O)c1ccccc1)[C@H](Nc1ccc(C#N)c(Cl)c1)c1ccc(Cl)c(Cl)c1

>  <Energy>  (3) 
65.59900975368825

>  <Genealogy>  (3) 
CC(CN=C(O)c1ccccc1)C(Nc1ccc(C#N)c(Cl)c1)c1ccc(Cl)c(Cl)c1 (tautomer)
C[C@@H](CN=C(O)c1ccccc1)[C@H](Nc1ccc(C#N)c(Cl)c1)c1ccc(Cl)c(Cl)c1 (chirality)
C[C@@H](C/N=C(/O)c1ccccc1)[C@H](Nc1ccc(C#N)c(Cl)c1)c1ccc(Cl)c(Cl)c1 (cis-trans isomerization)
C[C@@H](C/N=C(/O)c1ccccc1)[C@H](Nc1ccc(C#N)c(Cl)c1)c1ccc(Cl)c(Cl)c1 (3D coordinates assigned)
C[C@@H](C/N=C(/O)c1ccccc1)[C@H](Nc1ccc(C#N)c(Cl)c1)c1ccc(Cl)c(Cl)c1 (optimized conformer: 65.59900975368825 kcal/mol)

>  <smiles>  (3) 
CC(CNC(=O)c1ccccc1)C(Nc1ccc(C#N)c(Cl)c1)c1ccc(Cl)c(Cl)c1

>  <score_type>  (3) 
oracle

>  <origin>  (3) 
autodockgpu

>  <m_score__min__energy>  (3) 
-8.6699999999999999

>  <m_primary>  (3) 
energy

>  <meeko>  (3) 
{"free_energy": -8.67, "intermolecular_energy": -11.66, "internal_energy": -1.35, "cluster_size": 9, "cluster_id": 1, "rank_in_cluster": 1}

>  <energy>  (3) 
-8.16

>  <cluster_rmsd>  (3) 
1.67

>  <rmsd>  (3) 
271.53

>  <cluster>  (3) 
1

$$$$
CBUCDBLHFQUVQW-OAXGSVGCNA-N
     RDKit          3D

 51 53  0  0  0  0  0  0  0  0999 V2000
  137.5710   74.5680  223.1270 H   0  0  0  0  0  0  0  0  0  0  0  0
  138.0240   74.9770  222.3180 O   0  0  0  0  0  0  0  0  0  0  0  0
  139.3980   74.8660  222.1300 C   0  0  0  0  0  0  0  0  0  0  0  0
  139.9530   73.6890  222.1990 N   0  0  0  0  0  0  0  0  0  0  0  0
  139.6830   72.5570  221.3110 C   0  0  0  0  0  0  0  0  0  0  0  0
  140.3677   72.6064  220.4515 H   0  0  0  0  0  0  0  0  0  0  0  0
  138.6350   72.6198  220.9829 H   0  0  0  0  0  0  0  0  0  0  0  0
  139.8830   71.2040  222.0350 C   0  0  2  0  0  0  0  0  0  0  0  0
  140.8105   71.3355  222.6116 H   0  0  0  0  0  0  0  0  0  0  0  0
  140.0600   70.0560  221.0250 C   0  0  0  0  0  0  0  0  0  0  0  0
  140.2059   69.1100  221.5670 H   0  0  0  0  0  0  0  0  0  0  0  0
  139.1627   69.9819  220.3931 H   0  0  0  0  0  0  0  0  0  0  0  0
  140.9380   70.2557  220.3931 H   0  0  0  0  0  0  0  0  0  0  0  0
  138.8000   70.8460  223.1080 C   0  0  1  0  0  0  0  0  0  0  0  0
  138.3289   69.9530  222.6714 H   0  0  0  0  0  0  0  0  0  0  0  0
  139.2820   70.3200  224.4590 C   0  0  0  0  0  0  0  0  0  0  0  0
  139.2120   68.9350  224.7050 C   0  0  0  0  0  0  0  0  0  0  0  0
  138.7985   68.2677  223.9345 H   0  0  0  0  0  0  0  0  0  0  0  0
  139.6600   68.3970  225.9130 C   0  0  0  0  0  0  0  0  0  0  0  0
  139.5776   67.3153  226.0948 H   0  0  0  0  0  0  0  0  0  0  0  0
  140.2120   69.2260  226.8910 C   0  0  0  0  0  0  0  0  0  0  0  0
  140.7620   68.5130  228.4010 Cl  0  0  0  0  0  0  0  0  0  0  0  0
  140.3280   70.6040  226.6510 C   0  0  0  0  0  0  0  0  0  0  0  0
  141.0360   71.6790  227.8490 Cl  0  0  0  0  0  0  0  0  0  0  0  0
  139.8800   71.1430  225.4390 C   0  0  0  0  0  0  0  0  0  0  0  0
  139.9951   72.2201  225.2476 H   0  0  0  0  0  0  0  0  0  0  0  0
  137.7830   71.9060  223.2490 N   0  0  0  0  0  0  0  0  0  0  0  0
  138.0460   72.8320  222.8410 H   0  0  0  0  0  0  0  0  0  0  0  0
  136.5280   71.8490  223.9650 C   0  0  0  0  0  0  0  0  0  0  0  0
  135.9560   70.6430  224.4160 C   0  0  0  0  0  0  0  0  0  0  0  0
  136.4613   69.6881  224.2090 H   0  0  0  0  0  0  0  0  0  0  0  0
  134.7520   70.6510  225.1240 C   0  0  0  0  0  0  0  0  0  0  0  0
  134.3175   69.7027  225.4732 H   0  0  0  0  0  0  0  0  0  0  0  0
  134.0950   71.8560  225.3920 C   0  0  0  0  0  0  0  0  0  0  0  0
  132.8630   71.8360  226.1400 C   0  0  0  0  0  0  0  0  0  0  0  0
  131.8730   71.8210  226.7410 N   0  0  0  0  0  0  0  0  0  0  0  0
  134.6450   73.0640  224.9330 C   0  0  0  0  0  0  0  0  0  0  0  0
  133.8590   74.6070  225.2460 Cl  0  0  0  0  0  0  0  0  0  0  0  0
  135.8490   73.0530  224.2200 C   0  0  0  0  0  0  0  0  0  0  0  0
  136.2704   74.0007  223.8536 H   0  0  0  0  0  0  0  0  0  0  0  0
  140.1660   76.0900  221.8320 C   0  0  0  0  0  0  0  0  0  0  0  0
  141.0360   76.1480  220.7300 C   0  0  0  0  0  0  0  0  0  0  0  0
  141.1367   75.2786  220.0636 H   0  0  0  0  0  0  0  0  0  0  0  0
  141.7740   77.3090  220.4790 C   0  0  0  0  0  0  0  0  0  0  0  0
  142.4440   77.3552  219.6078 H   0  0  0  0  0  0  0  0  0  0  0  0
  141.6630   78.4100  221.3310 C   0  0  0  0  0  0  0  0  0  0  0  0
  142.2402   79.3240  221.1277 H   0  0  0  0  0  0  0  0  0  0  0  0
  140.8170   78.3490  222.4430 C   0  0  0  0  0  0  0  0  0  0  0  0
  140.7335   79.2136  223.1178 H   0  0  0  0  0  0  0  0  0  0  0  0
  140.0770   77.1900  222.6980 C   0  0  0  0  0  0  0  0  0  0  0  0
  139.4227   77.1408  223.5809 H   0  0  0  0  0  0  0  0  0  0  0  0
  1  2  1  0
  2  3  1  0
  3  4  2  0
  4  5  1  0
  5  6  1  0
  5  7  1  0
  5  8  1  0
  8  9  1  1
  8 10  1  0
 10 11  1  0
 10 12  1  0
 10 13  1  0
  8 14  1  0
 14 15  1  6
 14 16  1  0
 16 17  2  0
 17 18  1  0
 17 19  1  0
 19 20  1  0
 19 21  2  0
 21 22  1  0
 21 23  1  0
 23 24  1  0
 23 25  2  0
 25 26  1  0
 14 27  1  0
 27 28  1  0
 27 29  1  0
 29 30  2  0
 30 31  1  0
 30 32  1  0
 32 33  1  0
 32 34  2  0
 34 35  1  0
 35 36  3  0
 34 37  1  0
 37 38  1  0
 37 39  2  0
 39 40  1  0
  3 41  1  0
 41 42  2  0
 42 43  1  0
 42 44  1  0
 44 45  1  0
 44 46  2  0
 46 47  1  0
 46 48  1  0
 48 49  1  0
 48 50  2  0
 50 51  1  0
 25 16  1  0
 39 29  1  0
 50 41  1  0
M  END
>  <UniqueID>  (4) 
28

>  <SMILES>  (4) 
C[C@@H](C/N=C(/O)c1ccccc1)[C@H](Nc1ccc(C#N)c(Cl)c1)c1ccc(Cl)c(Cl)c1

>  <Energy>  (4) 
65.59900975368825

>  <Genealogy>  (4) 
CC(CN=C(O)c1ccccc1)C(Nc1ccc(C#N)c(Cl)c1)c1ccc(Cl)c(Cl)c1 (tautomer)
C[C@@H](CN=C(O)c1ccccc1)[C@H](Nc1ccc(C#N)c(Cl)c1)c1ccc(Cl)c(Cl)c1 (chirality)
C[C@@H](C/N=C(/O)c1ccccc1)[C@H](Nc1ccc(C#N)c(Cl)c1)c1ccc(Cl)c(Cl)c1 (cis-trans isomerization)
C[C@@H](C/N=C(/O)c1ccccc1)[C@H](Nc1ccc(C#N)c(Cl)c1)c1ccc(Cl)c(Cl)c1 (3D coordinates assigned)
C[C@@H](C/N=C(/O)c1ccccc1)[C@H](Nc1ccc(C#N)c(Cl)c1)c1ccc(Cl)c(Cl)c1 (optimized conformer: 65.59900975368825 kcal/mol)

>  <smiles>  (4) 
CC(CNC(=O)c1ccccc1)C(Nc1ccc(C#N)c(Cl)c1)c1ccc(Cl)c(Cl)c1

>  <score_type>  (4) 
oracle

>  <origin>  (4) 
autodockgpu

>  <m_score__min__energy>  (4) 
-8.6699999999999999

>  <m_primary>  (4) 
energy

>  <meeko>  (4) 
{"free_energy": -8.16, "intermolecular_energy": -11.14, "internal_energy": -2.54, "cluster_size": 9, "cluster_id": 1, "rank_in_cluster": 3}

>  <energy>  (4) 
-8.16

>  <cluster_rmsd>  (4) 
1.5

>  <rmsd>  (4) 
271.58

>  <cluster>  (4) 
1

$$$$
CBUCDBLHFQUVQW-OAXGSVGCNA-N
     RDKit          3D

 51 53  0  0  0  0  0  0  0  0999 V2000
  138.4610   74.2170  220.0180 H   0  0  0  0  0  0  0  0  0  0  0  0
  138.3660   73.8990  220.9760 O   0  0  0  0  0  0  0  0  0  0  0  0
  139.2870   74.2700  221.9510 C   0  0  0  0  0  0  0  0  0  0  0  0
  139.9020   73.3420  222.6260 N   0  0  0  0  0  0  0  0  0  0  0  0
  140.5700   72.1670  222.0630 C   0  0  0  0  0  0  0  0  0  0  0  0
  141.3758   71.8545  222.7435 H   0  0  0  0  0  0  0  0  0  0  0  0
  140.9721   72.4404  221.0763 H   0  0  0  0  0  0  0  0  0  0  0  0
  139.5870   70.9870  221.8740 C   0  0  2  0  0  0  0  0  0  0  0  0
  140.2307   70.0952  221.8563 H   0  0  0  0  0  0  0  0  0  0  0  0
  138.8290   71.1040  220.5400 C   0  0  0  0  0  0  0  0  0  0  0  0
  137.7598   71.2690  220.7391 H   0  0  0  0  0  0  0  0  0  0  0  0
  139.2297   71.9509  219.9637 H   0  0  0  0  0  0  0  0  0  0  0  0
  138.9556   70.1757  219.9637 H   0  0  0  0  0  0  0  0  0  0  0  0
  138.5970   70.7350  223.0620 C   0  0  1  0  0  0  0  0  0  0  0  0
  138.0681   69.8280  222.7339 H   0  0  0  0  0  0  0  0  0  0  0  0
  139.1850   70.2880  224.3980 C   0  0  0  0  0  0  0  0  0  0  0  0
  139.1960   68.9130  224.7020 C   0  0  0  0  0  0  0  0  0  0  0  0
  138.7669   68.1960  223.9866 H   0  0  0  0  0  0  0  0  0  0  0  0
  139.7440   68.4470  225.8990 C   0  0  0  0  0  0  0  0  0  0  0  0
  139.7262   67.3710  226.1270 H   0  0  0  0  0  0  0  0  0  0  0  0
  140.3140   69.3400  226.8070 C   0  0  0  0  0  0  0  0  0  0  0  0
  140.9890   68.7160  228.3060 Cl  0  0  0  0  0  0  0  0  0  0  0  0
  140.3490   70.7100  226.5080 C   0  0  0  0  0  0  0  0  0  0  0  0
  141.0770   71.8650  227.6160 Cl  0  0  0  0  0  0  0  0  0  0  0  0
  139.8020   71.1780  225.3060 C   0  0  0  0  0  0  0  0  0  0  0  0
  139.8534   72.2503  225.0663 H   0  0  0  0  0  0  0  0  0  0  0  0
  137.6220   71.8330  223.2160 N   0  0  0  0  0  0  0  0  0  0  0  0
  137.8800   72.7280  222.7400 H   0  0  0  0  0  0  0  0  0  0  0  0
  136.4220   71.8540  224.0210 C   0  0  0  0  0  0  0  0  0  0  0  0
  135.8230   70.6870  224.5360 C   0  0  0  0  0  0  0  0  0  0  0  0
  136.2622   69.7037  224.3117 H   0  0  0  0  0  0  0  0  0  0  0  0
  134.6760   70.7690  225.3290 C   0  0  0  0  0  0  0  0  0  0  0  0
  134.2205   69.8503  225.7272 H   0  0  0  0  0  0  0  0  0  0  0  0
  134.1030   72.0100  225.6200 C   0  0  0  0  0  0  0  0  0  0  0  0
  132.9280   72.0670  226.4550 C   0  0  0  0  0  0  0  0  0  0  0  0
  131.9860   72.1130  227.1250 N   0  0  0  0  0  0  0  0  0  0  0  0
  134.6780   73.1810  225.0990 C   0  0  0  0  0  0  0  0  0  0  0  0
  133.9970   74.7680  225.4370 Cl  0  0  0  0  0  0  0  0  0  0  0  0
  135.8250   73.0950  224.3010 C   0  0  0  0  0  0  0  0  0  0  0  0
  136.2660   74.0135  223.8865 H   0  0  0  0  0  0  0  0  0  0  0  0
  139.5470   75.7080  222.1580 C   0  0  0  0  0  0  0  0  0  0  0  0
  140.8490   76.2280  222.0680 C   0  0  0  0  0  0  0  0  0  0  0  0
  141.6895   75.5631  221.8200 H   0  0  0  0  0  0  0  0  0  0  0  0
  141.0790   77.5890  222.2930 C   0  0  0  0  0  0  0  0  0  0  0  0
  142.0980   77.9946  222.2090 H   0  0  0  0  0  0  0  0  0  0  0  0
  140.0180   78.4340  222.6240 C   0  0  0  0  0  0  0  0  0  0  0  0
  140.2005   79.5052  222.7950 H   0  0  0  0  0  0  0  0  0  0  0  0
  138.7230   77.9180  222.7380 C   0  0  0  0  0  0  0  0  0  0  0  0
  137.8879   78.5830  223.0033 H   0  0  0  0  0  0  0  0  0  0  0  0
  138.4890   76.5570  222.5150 C   0  0  0  0  0  0  0  0  0  0  0  0
  137.4720   76.1512  222.6199 H   0  0  0  0  0  0  0  0  0  0  0  0
  1  2  1  0
  2  3  1  0
  3  4  2  0
  4  5  1  0
  5  6  1  0
  5  7  1  0
  5  8  1  0
  8  9  1  6
  8 10  1  0
 10 11  1  0
 10 12  1  0
 10 13  1  0
  8 14  1  0
 14 15  1  6
 14 16  1  0
 16 17  2  0
 17 18  1  0
 17 19  1  0
 19 20  1  0
 19 21  2  0
 21 22  1  0
 21 23  1  0
 23 24  1  0
 23 25  2  0
 25 26  1  0
 14 27  1  0
 27 28  1  0
 27 29  1  0
 29 30  2  0
 30 31  1  0
 30 32  1  0
 32 33  1  0
 32 34  2  0
 34 35  1  0
 35 36  3  0
 34 37  1  0
 37 38  1  0
 37 39  2  0
 39 40  1  0
  3 41  1  0
 41 42  2  0
 42 43  1  0
 42 44  1  0
 44 45  1  0
 44 46  2  0
 46 47  1  0
 46 48  1  0
 48 49  1  0
 48 50  2  0
 50 51  1  0
 25 16  1  0
 39 29  1  0
 50 41  1  0
M  END
>  <UniqueID>  (5) 
28

>  <SMILES>  (5) 
C[C@@H](C/N=C(/O)c1ccccc1)[C@H](Nc1ccc(C#N)c(Cl)c1)c1ccc(Cl)c(Cl)c1

>  <Energy>  (5) 
65.59900975368825

>  <Genealogy>  (5) 
CC(CN=C(O)c1ccccc1)C(Nc1ccc(C#N)c(Cl)c1)c1ccc(Cl)c(Cl)c1 (tautomer)
C[C@@H](CN=C(O)c1ccccc1)[C@H](Nc1ccc(C#N)c(Cl)c1)c1ccc(Cl)c(Cl)c1 (chirality)
C[C@@H](C/N=C(/O)c1ccccc1)[C@H](Nc1ccc(C#N)c(Cl)c1)c1ccc(Cl)c(Cl)c1 (cis-trans isomerization)
C[C@@H](C/N=C(/O)c1ccccc1)[C@H](Nc1ccc(C#N)c(Cl)c1)c1ccc(Cl)c(Cl)c1 (3D coordinates assigned)
C[C@@H](C/N=C(/O)c1ccccc1)[C@H](Nc1ccc(C#N)c(Cl)c1)c1ccc(Cl)c(Cl)c1 (optimized conformer: 65.59900975368825 kcal/mol)

>  <smiles>  (5) 
CC(CNC(=O)c1ccccc1)C(Nc1ccc(C#N)c(Cl)c1)c1ccc(Cl)c(Cl)c1

>  <score_type>  (5) 
oracle

>  <origin>  (5) 
autodockgpu

>  <m_score__min__energy>  (5) 
-8.6699999999999999

>  <m_primary>  (5) 
energy

>  <meeko>  (5) 
{"free_energy": -7.63, "intermolecular_energy": -10.61, "internal_energy": -2.83, "cluster_size": 9, "cluster_id": 1, "rank_in_cluster": 8}

>  <energy>  (5) 
-8.15

>  <cluster_rmsd>  (5) 
1.45

>  <rmsd>  (5) 
271.62

>  <cluster>  (5) 
1

$$$$
CBUCDBLHFQUVQW-OAXGSVGCNA-N
     RDKit          3D

 51 53  0  0  0  0  0  0  0  0999 V2000
  137.2680   74.5600  223.1130 H   0  0  0  0  0  0  0  0  0  0  0  0
  137.7500   74.9390  222.3060 O   0  0  0  0  0  0  0  0  0  0  0  0
  139.1240   75.1580  222.3260 C   0  0  0  0  0  0  0  0  0  0  0  0
  139.9280   74.1420  222.2000 N   0  0  0  0  0  0  0  0  0  0  0  0
  139.7540   73.0150  221.2820 C   0  0  0  0  0  0  0  0  0  0  0  0
  140.4603   73.1237  220.4458 H   0  0  0  0  0  0  0  0  0  0  0  0
  138.7145   73.0221  220.9224 H   0  0  0  0  0  0  0  0  0  0  0  0
  140.0130   71.6610  221.9850 C   0  0  2  0  0  0  0  0  0  0  0  0
  140.8955   71.8447  222.6154 H   0  0  0  0  0  0  0  0  0  0  0  0
  140.3300   70.5550  220.9620 C   0  0  0  0  0  0  0  0  0  0  0  0
  140.5954   69.6291  221.4934 H   0  0  0  0  0  0  0  0  0  0  0  0
  139.4472   70.3754  220.3308 H   0  0  0  0  0  0  0  0  0  0  0  0
  141.1739   70.8703  220.3308 H   0  0  0  0  0  0  0  0  0  0  0  0
  138.9020   71.1970  222.9870 C   0  0  1  0  0  0  0  0  0  0  0  0
  138.4989   70.3035  222.4879 H   0  0  0  0  0  0  0  0  0  0  0  0
  139.3480   70.6300  224.3340 C   0  0  0  0  0  0  0  0  0  0  0  0
  139.2400   69.2420  224.5480 C   0  0  0  0  0  0  0  0  0  0  0  0
  138.8231   68.6018  223.7566 H   0  0  0  0  0  0  0  0  0  0  0  0
  139.6550   68.6680  225.7510 C   0  0  0  0  0  0  0  0  0  0  0  0
  139.5441   67.5849  225.9077 H   0  0  0  0  0  0  0  0  0  0  0  0
  140.2100   69.4620  226.7560 C   0  0  0  0  0  0  0  0  0  0  0  0
  140.7170   68.7030  228.2590 Cl  0  0  0  0  0  0  0  0  0  0  0  0
  140.3640   70.8410  226.5490 C   0  0  0  0  0  0  0  0  0  0  0  0
  141.0770   71.8720  227.7810 Cl  0  0  0  0  0  0  0  0  0  0  0  0
  139.9500   71.4170  225.3410 C   0  0  0  0  0  0  0  0  0  0  0  0
  140.0953   72.4946  225.1746 H   0  0  0  0  0  0  0  0  0  0  0  0
  137.8260   72.1970  223.1270 N   0  0  0  0  0  0  0  0  0  0  0  0
  138.0330   73.1350  222.7160 H   0  0  0  0  0  0  0  0  0  0  0  0
  136.5780   72.0700  223.8470 C   0  0  0  0  0  0  0  0  0  0  0  0
  135.7740   73.1750  224.1900 C   0  0  0  0  0  0  0  0  0  0  0  0
  136.1002   74.1911  223.9233 H   0  0  0  0  0  0  0  0  0  0  0  0
  134.5660   72.9900  224.8660 C   0  0  0  0  0  0  0  0  0  0  0  0
  133.9463   73.8609  225.1256 H   0  0  0  0  0  0  0  0  0  0  0  0
  134.1390   71.7050  225.2150 C   0  0  0  0  0  0  0  0  0  0  0  0
  132.8790   71.5410  225.8970 C   0  0  0  0  0  0  0  0  0  0  0  0
  131.8670   71.4110  226.4450 N   0  0  0  0  0  0  0  0  0  0  0  0
  134.9380   70.5960  224.8950 C   0  0  0  0  0  0  0  0  0  0  0  0
  134.4450   68.9580  225.3100 Cl  0  0  0  0  0  0  0  0  0  0  0  0
  136.1510   70.7850  224.2220 C   0  0  0  0  0  0  0  0  0  0  0  0
  136.7793   69.9143  223.9832 H   0  0  0  0  0  0  0  0  0  0  0  0
  139.6110   76.5450  222.4610 C   0  0  0  0  0  0  0  0  0  0  0  0
  140.9830   76.8390  222.3990 C   0  0  0  0  0  0  0  0  0  0  0  0
  141.7100   76.0317  222.2266 H   0  0  0  0  0  0  0  0  0  0  0  0
  141.4270   78.1560  222.5560 C   0  0  0  0  0  0  0  0  0  0  0  0
  142.5014   78.3840  222.4950 H   0  0  0  0  0  0  0  0  0  0  0  0
  140.5090   79.1820  222.7900 C   0  0  0  0  0  0  0  0  0  0  0  0
  140.8597   80.2180  222.9066 H   0  0  0  0  0  0  0  0  0  0  0  0
  139.1440   78.8920  222.8760 C   0  0  0  0  0  0  0  0  0  0  0  0
  138.4216   79.6996  223.0658 H   0  0  0  0  0  0  0  0  0  0  0  0
  138.6960   77.5760  222.7210 C   0  0  0  0  0  0  0  0  0  0  0  0
  137.6229   77.3489  222.8032 H   0  0  0  0  0  0  0  0  0  0  0  0
  1  2  1  0
  2  3  1  0
  3  4  2  0
  4  5  1  0
  5  6  1  0
  5  7  1  0
  5  8  1  0
  8  9  1  1
  8 10  1  0
 10 11  1  0
 10 12  1  0
 10 13  1  0
  8 14  1  0
 14 15  1  6
 14 16  1  0
 16 17  2  0
 17 18  1  0
 17 19  1  0
 19 20  1  0
 19 21  2  0
 21 22  1  0
 21 23  1  0
 23 24  1  0
 23 25  2  0
 25 26  1  0
 14 27  1  0
 27 28  1  0
 27 29  1  0
 29 30  2  0
 30 31  1  0
 30 32  1  0
 32 33  1  0
 32 34  2  0
 34 35  1  0
 35 36  3  0
 34 37  1  0
 37 38  1  0
 37 39  2  0
 39 40  1  0
  3 41  1  0
 41 42  2  0
 42 43  1  0
 42 44  1  0
 44 45  1  0
 44 46  2  0
 46 47  1  0
 46 48  1  0
 48 49  1  0
 48 50  2  0
 50 51  1  0
 25 16  1  0
 39 29  1  0
 50 41  1  0
M  END
>  <UniqueID>  (6) 
28

>  <SMILES>  (6) 
C[C@@H](C/N=C(/O)c1ccccc1)[C@H](Nc1ccc(C#N)c(Cl)c1)c1ccc(Cl)c(Cl)c1

>  <Energy>  (6) 
65.59900975368825

>  <Genealogy>  (6) 
CC(CN=C(O)c1ccccc1)C(Nc1ccc(C#N)c(Cl)c1)c1ccc(Cl)c(Cl)c1 (tautomer)
C[C@@H](CN=C(O)c1ccccc1)[C@H](Nc1ccc(C#N)c(Cl)c1)c1ccc(Cl)c(Cl)c1 (chirality)
C[C@@H](C/N=C(/O)c1ccccc1)[C@H](Nc1ccc(C#N)c(Cl)c1)c1ccc(Cl)c(Cl)c1 (cis-trans isomerization)
C[C@@H](C/N=C(/O)c1ccccc1)[C@H](Nc1ccc(C#N)c(Cl)c1)c1ccc(Cl)c(Cl)c1 (3D coordinates assigned)
C[C@@H](C/N=C(/O)c1ccccc1)[C@H](Nc1ccc(C#N)c(Cl)c1)c1ccc(Cl)c(Cl)c1 (optimized conformer: 65.59900975368825 kcal/mol)

>  <smiles>  (6) 
CC(CNC(=O)c1ccccc1)C(Nc1ccc(C#N)c(Cl)c1)c1ccc(Cl)c(Cl)c1

>  <score_type>  (6) 
oracle

>  <origin>  (6) 
autodockgpu

>  <m_score__min__energy>  (6) 
-8.6699999999999999

>  <m_primary>  (6) 
energy

>  <meeko>  (6) 
{"free_energy": -8.16, "intermolecular_energy": -11.14, "internal_energy": -2.65, "cluster_size": 9, "cluster_id": 1, "rank_in_cluster": 4}

>  <energy>  (6) 
-7.71

>  <cluster_rmsd>  (6) 
1.55

>  <rmsd>  (6) 
271.54

>  <cluster>  (6) 
1

$$$$
CBUCDBLHFQUVQW-OAXGSVGCNA-N
     RDKit          3D

 51 53  0  0  0  0  0  0  0  0999 V2000
  138.7670   73.7320  223.0640 H   0  0  0  0  0  0  0  0  0  0  0  0
  138.7820   73.0020  222.3610 O   0  0  0  0  0  0  0  0  0  0  0  0
  139.9300   72.2510  222.1290 C   0  0  0  0  0  0  0  0  0  0  0  0
  139.9280   70.9840  222.4310 N   0  0  0  0  0  0  0  0  0  0  0  0
  139.6170   69.8820  221.5190 C   0  0  0  0  0  0  0  0  0  0  0  0
  140.5575   69.4639  221.1309 H   0  0  0  0  0  0  0  0  0  0  0  0
  138.9954   70.2772  220.7020 H   0  0  0  0  0  0  0  0  0  0  0  0
  138.8240   68.7590  222.2300 C   0  0  2  0  0  0  0  0  0  0  0  0
  139.5933   68.0415  222.5515 H   0  0  0  0  0  0  0  0  0  0  0  0
  137.8470   68.0700  221.2600 C   0  0  0  0  0  0  0  0  0  0  0  0
  137.0803   67.5293  221.8343 H   0  0  0  0  0  0  0  0  0  0  0  0
  137.3637   68.8282  220.6263 H   0  0  0  0  0  0  0  0  0  0  0  0
  138.3989   67.3602  220.6263 H   0  0  0  0  0  0  0  0  0  0  0  0
  138.0980   69.1790  223.5540 C   0  0  1  0  0  0  0  0  0  0  0  0
  137.3533   68.3784  223.6744 H   0  0  0  0  0  0  0  0  0  0  0  0
  138.8830   69.0760  224.8600 C   0  0  0  0  0  0  0  0  0  0  0  0
  139.1980   67.7970  225.3560 C   0  0  0  0  0  0  0  0  0  0  0  0
  138.8601   66.9047  224.8087 H   0  0  0  0  0  0  0  0  0  0  0  0
  139.9340   67.6450  226.5340 C   0  0  0  0  0  0  0  0  0  0  0  0
  140.1540   66.6374  226.9165 H   0  0  0  0  0  0  0  0  0  0  0  0
  140.3910   68.7670  227.2270 C   0  0  0  0  0  0  0  0  0  0  0  0
  141.3110   68.5360  228.7080 Cl  0  0  0  0  0  0  0  0  0  0  0  0
  140.1230   70.0510  226.7290 C   0  0  0  0  0  0  0  0  0  0  0  0
  140.6990   71.4880  227.5620 Cl  0  0  0  0  0  0  0  0  0  0  0  0
  139.3870   70.2020  225.5470 C   0  0  0  0  0  0  0  0  0  0  0  0
  139.1993   71.2101  225.1490 H   0  0  0  0  0  0  0  0  0  0  0  0
  137.3970   70.4700  223.4190 N   0  0  0  0  0  0  0  0  0  0  0  0
  137.7990   71.1240  222.7080 H   0  0  0  0  0  0  0  0  0  0  0  0
  136.3000   70.9770  224.2130 C   0  0  0  0  0  0  0  0  0  0  0  0
  135.4860   70.1510  225.0130 C   0  0  0  0  0  0  0  0  0  0  0  0
  135.6637   69.0657  225.0345 H   0  0  0  0  0  0  0  0  0  0  0  0
  134.4550   70.7000  225.7790 C   0  0  0  0  0  0  0  0  0  0  0  0
  133.8289   70.0442  226.4019 H   0  0  0  0  0  0  0  0  0  0  0  0
  134.2130   72.0760  225.7600 C   0  0  0  0  0  0  0  0  0  0  0  0
  133.1530   72.6180  226.5740 C   0  0  0  0  0  0  0  0  0  0  0  0
  132.3030   73.0530  227.2270 N   0  0  0  0  0  0  0  0  0  0  0  0
  135.0060   72.9100  224.9540 C   0  0  0  0  0  0  0  0  0  0  0  0
  134.7440   74.6490  224.8960 Cl  0  0  0  0  0  0  0  0  0  0  0  0
  136.0350   72.3570  224.1840 C   0  0  0  0  0  0  0  0  0  0  0  0
  136.6461   73.0124  223.5461 H   0  0  0  0  0  0  0  0  0  0  0  0
  141.0950   72.9210  221.5220 C   0  0  0  0  0  0  0  0  0  0  0  0
  142.2570   72.2000  221.1960 C   0  0  0  0  0  0  0  0  0  0  0  0
  142.2981   71.1154  221.3746 H   0  0  0  0  0  0  0  0  0  0  0  0
  143.3610   72.8590  220.6450 C   0  0  0  0  0  0  0  0  0  0  0  0
  144.2638   72.2893  220.3796 H   0  0  0  0  0  0  0  0  0  0  0  0
  143.3200   74.2380  220.4310 C   0  0  0  0  0  0  0  0  0  0  0  0
  144.1874   74.7526  219.9919 H   0  0  0  0  0  0  0  0  0  0  0  0
  142.1760   74.9650  220.7750 C   0  0  0  0  0  0  0  0  0  0  0  0
  142.1458   76.0524  220.6115 H   0  0  0  0  0  0  0  0  0  0  0  0
  141.0700   74.3100  221.3270 C   0  0  0  0  0  0  0  0  0  0  0  0
  140.1768   74.8866  221.6094 H   0  0  0  0  0  0  0  0  0  0  0  0
  1  2  1  0
  2  3  1  0
  3  4  2  0
  4  5  1  0
  5  6  1  0
  5  7  1  0
  5  8  1  0
  8  9  1  1
  8 10  1  0
 10 11  1  0
 10 12  1  0
 10 13  1  0
  8 14  1  0
 14 15  1  1
 14 16  1  0
 16 17  2  0
 17 18  1  0
 17 19  1  0
 19 20  1  0
 19 21  2  0
 21 22  1  0
 21 23  1  0
 23 24  1  0
 23 25  2  0
 25 26  1  0
 14 27  1  0
 27 28  1  0
 27 29  1  0
 29 30  2  0
 30 31  1  0
 30 32  1  0
 32 33  1  0
 32 34  2  0
 34 35  1  0
 35 36  3  0
 34 37  1  0
 37 38  1  0
 37 39  2  0
 39 40  1  0
  3 41  1  0
 41 42  2  0
 42 43  1  0
 42 44  1  0
 44 45  1  0
 44 46  2  0
 46 47  1  0
 46 48  1  0
 48 49  1  0
 48 50  2  0
 50 51  1  0
 25 16  1  0
 39 29  1  0
 50 41  1  0
M  END
>  <UniqueID>  (7) 
28

>  <SMILES>  (7) 
C[C@@H](C/N=C(/O)c1ccccc1)[C@H](Nc1ccc(C#N)c(Cl)c1)c1ccc(Cl)c(Cl)c1

>  <Energy>  (7) 
65.59900975368825

>  <Genealogy>  (7) 
CC(CN=C(O)c1ccccc1)C(Nc1ccc(C#N)c(Cl)c1)c1ccc(Cl)c(Cl)c1 (tautomer)
C[C@@H](CN=C(O)c1ccccc1)[C@H](Nc1ccc(C#N)c(Cl)c1)c1ccc(Cl)c(Cl)c1 (chirality)
C[C@@H](C/N=C(/O)c1ccccc1)[C@H](Nc1ccc(C#N)c(Cl)c1)c1ccc(Cl)c(Cl)c1 (cis-trans isomerization)
C[C@@H](C/N=C(/O)c1ccccc1)[C@H](Nc1ccc(C#N)c(Cl)c1)c1ccc(Cl)c(Cl)c1 (3D coordinates assigned)
C[C@@H](C/N=C(/O)c1ccccc1)[C@H](Nc1ccc(C#N)c(Cl)c1)c1ccc(Cl)c(Cl)c1 (optimized conformer: 65.59900975368825 kcal/mol)

>  <smiles>  (7) 
CC(CNC(=O)c1ccccc1)C(Nc1ccc(C#N)c(Cl)c1)c1ccc(Cl)c(Cl)c1

>  <score_type>  (7) 
oracle

>  <origin>  (7) 
autodockgpu

>  <m_score__min__energy>  (7) 
-8.6699999999999999

>  <m_primary>  (7) 
energy

>  <meeko>  (7) 
{"free_energy": -7.39, "intermolecular_energy": -10.37, "internal_energy": -2.85, "cluster_size": 2, "cluster_id": 3, "rank_in_cluster": 2}

>  <energy>  (7) 
-7.63

>  <cluster_rmsd>  (7) 
1.66

>  <rmsd>  (7) 
271.46

>  <cluster>  (7) 
1

$$$$
CBUCDBLHFQUVQW-OAXGSVGCNA-N
     RDKit          3D

 51 53  0  0  0  0  0  0  0  0999 V2000
  141.8880   75.9190  222.6460 H   0  0  0  0  0  0  0  0  0  0  0  0
  140.8750   75.9000  222.6840 O   0  0  0  0  0  0  0  0  0  0  0  0
  140.1190   76.9970  222.2820 C   0  0  0  0  0  0  0  0  0  0  0  0
  139.0780   76.8050  221.5250 N   0  0  0  0  0  0  0  0  0  0  0  0
  138.4060   75.5250  221.2930 C   0  0  0  0  0  0  0  0  0  0  0  0
  137.4008   75.7176  220.8898 H   0  0  0  0  0  0  0  0  0  0  0  0
  138.3490   74.9880  222.2513 H   0  0  0  0  0  0  0  0  0  0  0  0
  139.1890   74.6430  220.2900 C   0  0  2  0  0  0  0  0  0  0  0  0
  139.9869   75.2997  219.9129 H   0  0  0  0  0  0  0  0  0  0  0  0
  138.2910   74.1990  219.1220 C   0  0  0  0  0  0  0  0  0  0  0  0
  137.3714   73.7443  219.5188 H   0  0  0  0  0  0  0  0  0  0  0  0
  138.0318   75.0728  218.5061 H   0  0  0  0  0  0  0  0  0  0  0  0
  138.8279   73.4625  218.5061 H   0  0  0  0  0  0  0  0  0  0  0  0
  139.9460   73.4210  220.9130 C   0  0  1  0  0  0  0  0  0  0  0  0
  139.5258   72.5763  220.3475 H   0  0  0  0  0  0  0  0  0  0  0  0
  141.4390   73.2820  220.6210 C   0  0  0  0  0  0  0  0  0  0  0  0
  142.2540   74.4250  220.7300 C   0  0  0  0  0  0  0  0  0  0  0  0
  141.8013   75.3898  221.0025 H   0  0  0  0  0  0  0  0  0  0  0  0
  143.6290   74.3510  220.4970 C   0  0  0  0  0  0  0  0  0  0  0  0
  144.2463   75.2587  220.5674 H   0  0  0  0  0  0  0  0  0  0  0  0
  144.2230   73.1290  220.1750 C   0  0  0  0  0  0  0  0  0  0  0  0
  145.9570   73.0750  219.8840 Cl  0  0  0  0  0  0  0  0  0  0  0  0
  143.4360   71.9700  220.1000 C   0  0  0  0  0  0  0  0  0  0  0  0
  144.1500   70.4100  219.7170 Cl  0  0  0  0  0  0  0  0  0  0  0  0
  142.0570   72.0450  220.3350 C   0  0  0  0  0  0  0  0  0  0  0  0
  141.4485   71.1295  220.2963 H   0  0  0  0  0  0  0  0  0  0  0  0
  139.6350   73.2450  222.3450 N   0  0  0  0  0  0  0  0  0  0  0  0
  139.5850   74.1280  222.9030 H   0  0  0  0  0  0  0  0  0  0  0  0
  139.4970   72.0090  223.0820 C   0  0  0  0  0  0  0  0  0  0  0  0
  138.6630   70.9530  222.6620 C   0  0  0  0  0  0  0  0  0  0  0  0
  138.0671   71.0608  221.7437 H   0  0  0  0  0  0  0  0  0  0  0  0
  138.5870   69.7710  223.4020 C   0  0  0  0  0  0  0  0  0  0  0  0
  137.9351   68.9535  223.0604 H   0  0  0  0  0  0  0  0  0  0  0  0
  139.3340   69.6200  224.5740 C   0  0  0  0  0  0  0  0  0  0  0  0
  139.2500   68.3830  225.3100 C   0  0  0  0  0  0  0  0  0  0  0  0
  139.1820   67.3900  225.9010 N   0  0  0  0  0  0  0  0  0  0  0  0
  140.1560   70.6700  225.0150 C   0  0  0  0  0  0  0  0  0  0  0  0
  141.1180   70.5290  226.4820 Cl  0  0  0  0  0  0  0  0  0  0  0  0
  140.2260   71.8550  224.2730 C   0  0  0  0  0  0  0  0  0  0  0  0
  140.8622   72.6790  224.6283 H   0  0  0  0  0  0  0  0  0  0  0  0
  140.5180   78.3350  222.7600 C   0  0  0  0  0  0  0  0  0  0  0  0
  141.8680   78.6430  223.0040 C   0  0  0  0  0  0  0  0  0  0  0  0
  142.6457   77.8877  222.8178 H   0  0  0  0  0  0  0  0  0  0  0  0
  142.2240   79.9080  223.4830 C   0  0  0  0  0  0  0  0  0  0  0  0
  143.2821   80.1492  223.6625 H   0  0  0  0  0  0  0  0  0  0  0  0
  141.2380   80.8660  223.7340 C   0  0  0  0  0  0  0  0  0  0  0  0
  141.5208   81.8629  224.1030 H   0  0  0  0  0  0  0  0  0  0  0  0
  139.8920   80.5570  223.5160 C   0  0  0  0  0  0  0  0  0  0  0  0
  139.1155   81.3090  223.7200 H   0  0  0  0  0  0  0  0  0  0  0  0
  139.5320   79.2930  223.0390 C   0  0  0  0  0  0  0  0  0  0  0  0
  138.4710   79.0487  222.8818 H   0  0  0  0  0  0  0  0  0  0  0  0
  1  2  1  0
  2  3  1  0
  3  4  2  0
  4  5  1  0
  5  6  1  0
  5  7  1  0
  5  8  1  0
  8  9  1  6
  8 10  1  0
 10 11  1  0
 10 12  1  0
 10 13  1  0
  8 14  1  0
 14 15  1  6
 14 16  1  0
 16 17  2  0
 17 18  1  0
 17 19  1  0
 19 20  1  0
 19 21  2  0
 21 22  1  0
 21 23  1  0
 23 24  1  0
 23 25  2  0
 25 26  1  0
 14 27  1  0
 27 28  1  0
 27 29  1  0
 29 30  2  0
 30 31  1  0
 30 32  1  0
 32 33  1  0
 32 34  2  0
 34 35  1  0
 35 36  3  0
 34 37  1  0
 37 38  1  0
 37 39  2  0
 39 40  1  0
  3 41  1  0
 41 42  2  0
 42 43  1  0
 42 44  1  0
 44 45  1  0
 44 46  2  0
 46 47  1  0
 46 48  1  0
 48 49  1  0
 48 50  2  0
 50 51  1  0
 25 16  1  0
 39 29  1  0
 50 41  1  0
M  END
>  <UniqueID>  (8) 
28

>  <SMILES>  (8) 
C[C@@H](C/N=C(/O)c1ccccc1)[C@H](Nc1ccc(C#N)c(Cl)c1)c1ccc(Cl)c(Cl)c1

>  <Energy>  (8) 
65.59900975368825

>  <Genealogy>  (8) 
CC(CN=C(O)c1ccccc1)C(Nc1ccc(C#N)c(Cl)c1)c1ccc(Cl)c(Cl)c1 (tautomer)
C[C@@H](CN=C(O)c1ccccc1)[C@H](Nc1ccc(C#N)c(Cl)c1)c1ccc(Cl)c(Cl)c1 (chirality)
C[C@@H](C/N=C(/O)c1ccccc1)[C@H](Nc1ccc(C#N)c(Cl)c1)c1ccc(Cl)c(Cl)c1 (cis-trans isomerization)
C[C@@H](C/N=C(/O)c1ccccc1)[C@H](Nc1ccc(C#N)c(Cl)c1)c1ccc(Cl)c(Cl)c1 (3D coordinates assigned)
C[C@@H](C/N=C(/O)c1ccccc1)[C@H](Nc1ccc(C#N)c(Cl)c1)c1ccc(Cl)c(Cl)c1 (optimized conformer: 65.59900975368825 kcal/mol)

>  <smiles>  (8) 
CC(CNC(=O)c1ccccc1)C(Nc1ccc(C#N)c(Cl)c1)c1ccc(Cl)c(Cl)c1

>  <score_type>  (8) 
oracle

>  <origin>  (8) 
autodockgpu

>  <m_score__min__energy>  (8) 
-8.6699999999999999

>  <m_primary>  (8) 
energy

>  <meeko>  (8) 
{"free_energy": -8.38, "intermolecular_energy": -11.36, "internal_energy": -2.08, "cluster_size": 4, "cluster_id": 2, "rank_in_cluster": 2}

>  <energy>  (8) 
-7.63

>  <cluster_rmsd>  (8) 
1.66

>  <rmsd>  (8) 
271.46

>  <cluster>  (8) 
1

$$$$
CBUCDBLHFQUVQW-OAXGSVGCNA-N
     RDKit          3D

 51 53  0  0  0  0  0  0  0  0999 V2000
  142.5710   76.2790  221.2080 H   0  0  0  0  0  0  0  0  0  0  0  0
  141.8370   75.5840  221.1320 O   0  0  0  0  0  0  0  0  0  0  0  0
  140.6590   75.6990  221.8640 C   0  0  0  0  0  0  0  0  0  0  0  0
  139.8970   74.6520  222.0030 N   0  0  0  0  0  0  0  0  0  0  0  0
  138.9620   74.1280  221.0060 C   0  0  0  0  0  0  0  0  0  0  0  0
  139.3874   74.2801  220.0031 H   0  0  0  0  0  0  0  0  0  0  0  0
  138.0079   74.6647  221.1138 H   0  0  0  0  0  0  0  0  0  0  0  0
  138.6940   72.6180  221.2140 C   0  0  2  0  0  0  0  0  0  0  0  0
  138.6787   72.2005  220.1964 H   0  0  0  0  0  0  0  0  0  0  0  0
  137.3310   72.3840  221.8890 C   0  0  0  0  0  0  0  0  0  0  0  0
  137.4546   72.4052  222.9818 H   0  0  0  0  0  0  0  0  0  0  0  0
  136.6301   73.1750  221.5838 H   0  0  0  0  0  0  0  0  0  0  0  0
  136.9340   71.4046  221.5838 H   0  0  0  0  0  0  0  0  0  0  0  0
  139.8280   71.8240  221.9460 C   0  0  1  0  0  0  0  0  0  0  0  0
  139.4374   70.7958  221.9327 H   0  0  0  0  0  0  0  0  0  0  0  0
  141.1630   71.6600  221.2250 C   0  0  0  0  0  0  0  0  0  0  0  0
  141.3660   70.5080  220.4400 C   0  0  0  0  0  0  0  0  0  0  0  0
  140.5736   69.7476  220.3777 H   0  0  0  0  0  0  0  0  0  0  0  0
  142.5590   70.3180  219.7400 C   0  0  0  0  0  0  0  0  0  0  0  0
  142.7063   69.4028  219.1478 H   0  0  0  0  0  0  0  0  0  0  0  0
  143.5660   71.2840  219.7880 C   0  0  0  0  0  0  0  0  0  0  0  0
  145.0560   71.0080  218.8970 Cl  0  0  0  0  0  0  0  0  0  0  0  0
  143.3700   72.4570  220.5330 C   0  0  0  0  0  0  0  0  0  0  0  0
  144.6040   73.7070  220.6030 Cl  0  0  0  0  0  0  0  0  0  0  0  0
  142.1720   72.6490  221.2330 C   0  0  0  0  0  0  0  0  0  0  0  0
  142.0149   73.5810  221.7957 H   0  0  0  0  0  0  0  0  0  0  0  0
  139.9950   72.2590  223.3470 N   0  0  0  0  0  0  0  0  0  0  0  0
  139.9740   73.2930  223.4990 H   0  0  0  0  0  0  0  0  0  0  0  0
  140.2860   71.4430  224.5050 C   0  0  0  0  0  0  0  0  0  0  0  0
  141.0690   71.8960  225.5850 C   0  0  0  0  0  0  0  0  0  0  0  0
  141.5035   72.9062  225.5582 H   0  0  0  0  0  0  0  0  0  0  0  0
  141.2980   71.0720  226.6900 C   0  0  0  0  0  0  0  0  0  0  0  0
  141.9086   71.4389  227.5282 H   0  0  0  0  0  0  0  0  0  0  0  0
  140.7560   69.7840  226.7370 C   0  0  0  0  0  0  0  0  0  0  0  0
  140.9940   68.9610  227.8970 C   0  0  0  0  0  0  0  0  0  0  0  0
  141.1850   68.3000  228.8280 N   0  0  0  0  0  0  0  0  0  0  0  0
  139.9870   69.3130  225.6600 C   0  0  0  0  0  0  0  0  0  0  0  0
  139.2810   67.7010  225.6720 Cl  0  0  0  0  0  0  0  0  0  0  0  0
  139.7640   70.1400  224.5530 C   0  0  0  0  0  0  0  0  0  0  0  0
  139.1704   69.7634  223.7070 H   0  0  0  0  0  0  0  0  0  0  0  0
  140.3390   77.0020  222.4760 C   0  0  0  0  0  0  0  0  0  0  0  0
  139.0120   77.4580  222.5560 C   0  0  0  0  0  0  0  0  0  0  0  0
  138.1921   76.8301  222.1772 H   0  0  0  0  0  0  0  0  0  0  0  0
  138.7320   78.7080  223.1160 C   0  0  0  0  0  0  0  0  0  0  0  0
  137.6911   79.0563  223.1876 H   0  0  0  0  0  0  0  0  0  0  0  0
  139.7710   79.5160  223.5850 C   0  0  0  0  0  0  0  0  0  0  0  0
  139.5474   80.4960  224.0318 H   0  0  0  0  0  0  0  0  0  0  0  0
  141.0950   79.0780  223.4860 C   0  0  0  0  0  0  0  0  0  0  0  0
  141.9135   79.7165  223.8498 H   0  0  0  0  0  0  0  0  0  0  0  0
  141.3800   77.8290  222.9250 C   0  0  0  0  0  0  0  0  0  0  0  0
  142.4238   77.4937  222.8354 H   0  0  0  0  0  0  0  0  0  0  0  0
  1  2  1  0
  2  3  1  0
  3  4  2  0
  4  5  1  0
  5  6  1  0
  5  7  1  0
  5  8  1  0
  8  9  1  6
  8 10  1  0
 10 11  1  0
 10 12  1  0
 10 13  1  0
  8 14  1  0
 14 15  1  1
 14 16  1  0
 16 17  2  0
 17 18  1  0
 17 19  1  0
 19 20  1  0
 19 21  2  0
 21 22  1  0
 21 23  1  0
 23 24  1  0
 23 25  2  0
 25 26  1  0
 14 27  1  0
 27 28  1  0
 27 29  1  0
 29 30  2  0
 30 31  1  0
 30 32  1  0
 32 33  1  0
 32 34  2  0
 34 35  1  0
 35 36  3  0
 34 37  1  0
 37 38  1  0
 37 39  2  0
 39 40  1  0
  3 41  1  0
 41 42  2  0
 42 43  1  0
 42 44  1  0
 44 45  1  0
 44 46  2  0
 46 47  1  0
 46 48  1  0
 48 49  1  0
 48 50  2  0
 50 51  1  0
 25 16  1  0
 39 29  1  0
 50 41  1  0
M  END
>  <UniqueID>  (9) 
28

>  <SMILES>  (9) 
C[C@@H](C/N=C(/O)c1ccccc1)[C@H](Nc1ccc(C#N)c(Cl)c1)c1ccc(Cl)c(Cl)c1

>  <Energy>  (9) 
65.59900975368825

>  <Genealogy>  (9) 
CC(CN=C(O)c1ccccc1)C(Nc1ccc(C#N)c(Cl)c1)c1ccc(Cl)c(Cl)c1 (tautomer)
C[C@@H](CN=C(O)c1ccccc1)[C@H](Nc1ccc(C#N)c(Cl)c1)c1ccc(Cl)c(Cl)c1 (chirality)
C[C@@H](C/N=C(/O)c1ccccc1)[C@H](Nc1ccc(C#N)c(Cl)c1)c1ccc(Cl)c(Cl)c1 (cis-trans isomerization)
C[C@@H](C/N=C(/O)c1ccccc1)[C@H](Nc1ccc(C#N)c(Cl)c1)c1ccc(Cl)c(Cl)c1 (3D coordinates assigned)
C[C@@H](C/N=C(/O)c1ccccc1)[C@H](Nc1ccc(C#N)c(Cl)c1)c1ccc(Cl)c(Cl)c1 (optimized conformer: 65.59900975368825 kcal/mol)

>  <smiles>  (9) 
CC(CNC(=O)c1ccccc1)C(Nc1ccc(C#N)c(Cl)c1)c1ccc(Cl)c(Cl)c1

>  <score_type>  (9) 
oracle

>  <origin>  (9) 
autodockgpu

>  <m_score__min__energy>  (9) 
-8.6699999999999999

>  <m_primary>  (9) 
energy

>  <meeko>  (9) 
{"free_energy": -8.4, "intermolecular_energy": -11.39, "internal_energy": -2.17, "cluster_size": 4, "cluster_id": 2, "rank_in_cluster": 1}

>  <energy>  (9) 
-7.45

>  <cluster_rmsd>  (9) 
1.96

>  <rmsd>  (9) 
271.42

>  <cluster>  (9) 
1

$$$$
CBUCDBLHFQUVQW-OAXGSVGCNA-N
     RDKit          3D

 51 53  0  0  0  0  0  0  0  0999 V2000
  138.4980   74.0670  220.0140 H   0  0  0  0  0  0  0  0  0  0  0  0
  138.3060   73.9590  221.0030 O   0  0  0  0  0  0  0  0  0  0  0  0
  139.2460   74.3240  221.9630 C   0  0  0  0  0  0  0  0  0  0  0  0
  139.8610   73.3910  222.6320 N   0  0  0  0  0  0  0  0  0  0  0  0
  140.5430   72.2290  222.0610 C   0  0  0  0  0  0  0  0  0  0  0  0
  141.3669   71.9353  222.7281 H   0  0  0  0  0  0  0  0  0  0  0  0
  140.9225   72.5072  221.0667 H   0  0  0  0  0  0  0  0  0  0  0  0
  139.5800   71.0280  221.8930 C   0  0  2  0  0  0  0  0  0  0  0  0
  140.2381   70.1465  221.8934 H   0  0  0  0  0  0  0  0  0  0  0  0
  138.8230   71.1070  220.5550 C   0  0  0  0  0  0  0  0  0  0  0  0
  137.7461   71.2194  220.7491 H   0  0  0  0  0  0  0  0  0  0  0  0
  139.1842   71.9723  219.9799 H   0  0  0  0  0  0  0  0  0  0  0  0
  138.9977   70.1857  219.9799 H   0  0  0  0  0  0  0  0  0  0  0  0
  138.5930   70.7820  223.0840 C   0  0  1  0  0  0  0  0  0  0  0  0
  138.0557   69.8796  222.7571 H   0  0  0  0  0  0  0  0  0  0  0  0
  139.1840   70.3290  224.4170 C   0  0  0  0  0  0  0  0  0  0  0  0
  139.2020   68.9520  224.7120 C   0  0  0  0  0  0  0  0  0  0  0  0
  138.7774   68.2375  223.9914 H   0  0  0  0  0  0  0  0  0  0  0  0
  139.7510   68.4810  225.9060 C   0  0  0  0  0  0  0  0  0  0  0  0
  139.7383   67.4035  226.1268 H   0  0  0  0  0  0  0  0  0  0  0  0
  140.3160   69.3710  226.8210 C   0  0  0  0  0  0  0  0  0  0  0  0
  140.9950   68.7410  228.3160 Cl  0  0  0  0  0  0  0  0  0  0  0  0
  140.3450   70.7440  226.5300 C   0  0  0  0  0  0  0  0  0  0  0  0
  141.0660   71.8950  227.6460 Cl  0  0  0  0  0  0  0  0  0  0  0  0
  139.7960   71.2160  225.3310 C   0  0  0  0  0  0  0  0  0  0  0  0
  139.8418   72.2901  225.0981 H   0  0  0  0  0  0  0  0  0  0  0  0
  137.6260   71.8860  223.2430 N   0  0  0  0  0  0  0  0  0  0  0  0
  137.8980   72.7860  222.7850 H   0  0  0  0  0  0  0  0  0  0  0  0
  136.4150   71.9040  224.0320 C   0  0  0  0  0  0  0  0  0  0  0  0
  135.8130   70.7360  224.5410 C   0  0  0  0  0  0  0  0  0  0  0  0
  136.2584   69.7539  224.3241 H   0  0  0  0  0  0  0  0  0  0  0  0
  134.6550   70.8150  225.3190 C   0  0  0  0  0  0  0  0  0  0  0  0
  134.1970   69.8956  225.7127 H   0  0  0  0  0  0  0  0  0  0  0  0
  134.0750   72.0560  225.6000 C   0  0  0  0  0  0  0  0  0  0  0  0
  132.8900   72.1100  226.4190 C   0  0  0  0  0  0  0  0  0  0  0  0
  131.9380   72.1540  227.0770 N   0  0  0  0  0  0  0  0  0  0  0  0
  134.6540   73.2270  225.0850 C   0  0  0  0  0  0  0  0  0  0  0  0
  133.9640   74.8130  225.4120 Cl  0  0  0  0  0  0  0  0  0  0  0  0
  135.8110   73.1430  224.3020 C   0  0  0  0  0  0  0  0  0  0  0  0
  136.2545   74.0621  223.8914 H   0  0  0  0  0  0  0  0  0  0  0  0
  139.5240   75.7590  222.1590 C   0  0  0  0  0  0  0  0  0  0  0  0
  140.8340   76.2610  222.0690 C   0  0  0  0  0  0  0  0  0  0  0  0
  141.6660   75.5830  221.8281 H   0  0  0  0  0  0  0  0  0  0  0  0
  141.0820   77.6200  222.2850 C   0  0  0  0  0  0  0  0  0  0  0  0
  142.1069   78.0107  222.2020 H   0  0  0  0  0  0  0  0  0  0  0  0
  140.0310   78.4830  222.6060 C   0  0  0  0  0  0  0  0  0  0  0  0
  140.2274   79.5531  222.7681 H   0  0  0  0  0  0  0  0  0  0  0  0
  138.7290   77.9850  222.7210 C   0  0  0  0  0  0  0  0  0  0  0  0
  137.9021   78.6627  222.9799 H   0  0  0  0  0  0  0  0  0  0  0  0
  138.4780   76.6260  222.5070 C   0  0  0  0  0  0  0  0  0  0  0  0
  137.4552   76.2351  222.6121 H   0  0  0  0  0  0  0  0  0  0  0  0
  1  2  1  0
  2  3  1  0
  3  4  2  0
  4  5  1  0
  5  6  1  0
  5  7  1  0
  5  8  1  0
  8  9  1  6
  8 10  1  0
 10 11  1  0
 10 12  1  0
 10 13  1  0
  8 14  1  0
 14 15  1  6
 14 16  1  0
 16 17  2  0
 17 18  1  0
 17 19  1  0
 19 20  1  0
 19 21  2  0
 21 22  1  0
 21 23  1  0
 23 24  1  0
 23 25  2  0
 25 26  1  0
 14 27  1  0
 27 28  1  0
 27 29  1  0
 29 30  2  0
 30 31  1  0
 30 32  1  0
 32 33  1  0
 32 34  2  0
 34 35  1  0
 35 36  3  0
 34 37  1  0
 37 38  1  0
 37 39  2  0
 39 40  1  0
  3 41  1  0
 41 42  2  0
 42 43  1  0
 42 44  1  0
 44 45  1  0
 44 46  2  0
 46 47  1  0
 46 48  1  0
 48 49  1  0
 48 50  2  0
 50 51  1  0
 25 16  1  0
 39 29  1  0
 50 41  1  0
M  END
>  <UniqueID>  (10) 
28

>  <SMILES>  (10) 
C[C@@H](C/N=C(/O)c1ccccc1)[C@H](Nc1ccc(C#N)c(Cl)c1)c1ccc(Cl)c(Cl)c1

>  <Energy>  (10) 
65.59900975368825

>  <Genealogy>  (10) 
CC(CN=C(O)c1ccccc1)C(Nc1ccc(C#N)c(Cl)c1)c1ccc(Cl)c(Cl)c1 (tautomer)
C[C@@H](CN=C(O)c1ccccc1)[C@H](Nc1ccc(C#N)c(Cl)c1)c1ccc(Cl)c(Cl)c1 (chirality)
C[C@@H](C/N=C(/O)c1ccccc1)[C@H](Nc1ccc(C#N)c(Cl)c1)c1ccc(Cl)c(Cl)c1 (cis-trans isomerization)
C[C@@H](C/N=C(/O)c1ccccc1)[C@H](Nc1ccc(C#N)c(Cl)c1)c1ccc(Cl)c(Cl)c1 (3D coordinates assigned)
C[C@@H](C/N=C(/O)c1ccccc1)[C@H](Nc1ccc(C#N)c(Cl)c1)c1ccc(Cl)c(Cl)c1 (optimized conformer: 65.59900975368825 kcal/mol)

>  <smiles>  (10) 
CC(CNC(=O)c1ccccc1)C(Nc1ccc(C#N)c(Cl)c1)c1ccc(Cl)c(Cl)c1

>  <score_type>  (10) 
oracle

>  <origin>  (10) 
autodockgpu

>  <m_score__min__energy>  (10) 
-8.6699999999999999

>  <m_primary>  (10) 
energy

>  <meeko>  (10) 
{"free_energy": -7.63, "intermolecular_energy": -10.62, "internal_energy": -2.81, "cluster_size": 9, "cluster_id": 1, "rank_in_cluster": 7}

>  <energy>  (10) 
-8.4

>  <cluster_rmsd>  (10) 
0.0

>  <rmsd>  (10) 
272.07

>  <cluster>  (10) 
2

$$$$
CBUCDBLHFQUVQW-OAXGSVGCNA-N
     RDKit          3D

 51 53  0  0  0  0  0  0  0  0999 V2000
  142.1850   75.9220  222.0850 H   0  0  0  0  0  0  0  0  0  0  0  0
  141.2750   75.5520  222.3340 O   0  0  0  0  0  0  0  0  0  0  0  0
  140.1680   76.3860  222.4560 C   0  0  0  0  0  0  0  0  0  0  0  0
  138.9770   75.8820  222.3100 N   0  0  0  0  0  0  0  0  0  0  0  0
  138.4560   75.2400  221.1010 C   0  0  0  0  0  0  0  0  0  0  0  0
  137.9950   76.0063  220.4605 H   0  0  0  0  0  0  0  0  0  0  0  0
  137.7166   74.4843  221.4047 H   0  0  0  0  0  0  0  0  0  0  0  0
  139.5760   74.5280  220.3050 C   0  0  2  0  0  0  0  0  0  0  0  0
  140.4448   75.1963  220.3975 H   0  0  0  0  0  0  0  0  0  0  0  0
  139.1940   74.3790  218.8220 C   0  0  0  0  0  0  0  0  0  0  0  0
  138.1717   73.9803  218.7450 H   0  0  0  0  0  0  0  0  0  0  0  0
  139.2422   75.3619  218.3304 H   0  0  0  0  0  0  0  0  0  0  0  0
  139.8950   73.6884  218.3304 H   0  0  0  0  0  0  0  0  0  0  0  0
  140.0640   73.1630  220.8990 C   0  0  1  0  0  0  0  0  0  0  0  0
  139.4287   72.4389  220.3680 H   0  0  0  0  0  0  0  0  0  0  0  0
  141.4650   72.6840  220.5260 C   0  0  0  0  0  0  0  0  0  0  0  0
  141.5930   71.4980  219.7770 C   0  0  0  0  0  0  0  0  0  0  0  0
  140.6912   70.9349  219.4945 H   0  0  0  0  0  0  0  0  0  0  0  0
  142.8490   71.0270  219.3880 C   0  0  0  0  0  0  0  0  0  0  0  0
  142.9298   70.0887  218.8196 H   0  0  0  0  0  0  0  0  0  0  0  0
  144.0020   71.7410  219.7170 C   0  0  0  0  0  0  0  0  0  0  0  0
  145.5650   71.1140  219.2140 Cl  0  0  0  0  0  0  0  0  0  0  0  0
  143.8950   72.9460  220.4290 C   0  0  0  0  0  0  0  0  0  0  0  0
  145.3220   73.8860  220.8440 Cl  0  0  0  0  0  0  0  0  0  0  0  0
  142.6350   73.4200  220.8170 C   0  0  0  0  0  0  0  0  0  0  0  0
  142.5559   74.3765  221.3545 H   0  0  0  0  0  0  0  0  0  0  0  0
  139.8020   73.0610  222.3480 N   0  0  0  0  0  0  0  0  0  0  0  0
  139.8180   73.9680  222.8690 H   0  0  0  0  0  0  0  0  0  0  0  0
  139.6330   71.8650  223.1420 C   0  0  0  0  0  0  0  0  0  0  0  0
  138.8430   70.7740  222.7280 C   0  0  0  0  0  0  0  0  0  0  0  0
  138.3071   70.8215  221.7685 H   0  0  0  0  0  0  0  0  0  0  0  0
  138.7350   69.6330  223.5260 C   0  0  0  0  0  0  0  0  0  0  0  0
  138.1168   68.7876  223.1896 H   0  0  0  0  0  0  0  0  0  0  0  0
  139.4070   69.5580  224.7490 C   0  0  0  0  0  0  0  0  0  0  0  0
  139.2920   68.3610  225.5450 C   0  0  0  0  0  0  0  0  0  0  0  0
  139.2000   67.4000  226.1850 N   0  0  0  0  0  0  0  0  0  0  0  0
  140.1840   70.6440  225.1830 C   0  0  0  0  0  0  0  0  0  0  0  0
  141.0510   70.6000  226.7140 Cl  0  0  0  0  0  0  0  0  0  0  0  0
  140.2860   71.7890  224.3840 C   0  0  0  0  0  0  0  0  0  0  0  0
  140.8862   72.6419  224.7336 H   0  0  0  0  0  0  0  0  0  0  0  0
  140.3950   77.8080  222.7770 C   0  0  0  0  0  0  0  0  0  0  0  0
  141.6750   78.2770  223.1200 C   0  0  0  0  0  0  0  0  0  0  0  0
  142.5286   77.5833  223.1314 H   0  0  0  0  0  0  0  0  0  0  0  0
  141.8660   79.6240  223.4470 C   0  0  0  0  0  0  0  0  0  0  0  0
  142.8712   79.9897  223.7037 H   0  0  0  0  0  0  0  0  0  0  0  0
  140.7820   80.5050  223.4480 C   0  0  0  0  0  0  0  0  0  0  0  0
  140.9351   81.5652  223.6981 H   0  0  0  0  0  0  0  0  0  0  0  0
  139.5020   80.0390  223.1310 C   0  0  0  0  0  0  0  0  0  0  0  0
  138.6475   80.7316  223.1383 H   0  0  0  0  0  0  0  0  0  0  0  0
  139.3080   78.6940  222.8050 C   0  0  0  0  0  0  0  0  0  0  0  0
  138.2977   78.3283  222.5692 H   0  0  0  0  0  0  0  0  0  0  0  0
  1  2  1  0
  2  3  1  0
  3  4  2  0
  4  5  1  0
  5  6  1  0
  5  7  1  0
  5  8  1  0
  8  9  1  6
  8 10  1  0
 10 11  1  0
 10 12  1  0
 10 13  1  0
  8 14  1  0
 14 15  1  6
 14 16  1  0
 16 17  2  0
 17 18  1  0
 17 19  1  0
 19 20  1  0
 19 21  2  0
 21 22  1  0
 21 23  1  0
 23 24  1  0
 23 25  2  0
 25 26  1  0
 14 27  1  0
 27 28  1  0
 27 29  1  0
 29 30  2  0
 30 31  1  0
 30 32  1  0
 32 33  1  0
 32 34  2  0
 34 35  1  0
 35 36  3  0
 34 37  1  0
 37 38  1  0
 37 39  2  0
 39 40  1  0
  3 41  1  0
 41 42  2  0
 42 43  1  0
 42 44  1  0
 44 45  1  0
 44 46  2  0
 46 47  1  0
 46 48  1  0
 48 49  1  0
 48 50  2  0
 50 51  1  0
 25 16  1  0
 39 29  1  0
 50 41  1  0
M  END
>  <UniqueID>  (11) 
28

>  <SMILES>  (11) 
C[C@@H](C/N=C(/O)c1ccccc1)[C@H](Nc1ccc(C#N)c(Cl)c1)c1ccc(Cl)c(Cl)c1

>  <Energy>  (11) 
65.59900975368825

>  <Genealogy>  (11) 
CC(CN=C(O)c1ccccc1)C(Nc1ccc(C#N)c(Cl)c1)c1ccc(Cl)c(Cl)c1 (tautomer)
C[C@@H](CN=C(O)c1ccccc1)[C@H](Nc1ccc(C#N)c(Cl)c1)c1ccc(Cl)c(Cl)c1 (chirality)
C[C@@H](C/N=C(/O)c1ccccc1)[C@H](Nc1ccc(C#N)c(Cl)c1)c1ccc(Cl)c(Cl)c1 (cis-trans isomerization)
C[C@@H](C/N=C(/O)c1ccccc1)[C@H](Nc1ccc(C#N)c(Cl)c1)c1ccc(Cl)c(Cl)c1 (3D coordinates assigned)
C[C@@H](C/N=C(/O)c1ccccc1)[C@H](Nc1ccc(C#N)c(Cl)c1)c1ccc(Cl)c(Cl)c1 (optimized conformer: 65.59900975368825 kcal/mol)

>  <smiles>  (11) 
CC(CNC(=O)c1ccccc1)C(Nc1ccc(C#N)c(Cl)c1)c1ccc(Cl)c(Cl)c1

>  <score_type>  (11) 
oracle

>  <origin>  (11) 
autodockgpu

>  <m_score__min__energy>  (11) 
-8.6699999999999999

>  <m_primary>  (11) 
energy

>  <meeko>  (11) 
{"free_energy": -8.15, "intermolecular_energy": -11.13, "internal_energy": -2.65, "cluster_size": 4, "cluster_id": 2, "rank_in_cluster": 4}

>  <energy>  (11) 
-8.38

>  <cluster_rmsd>  (11) 
1.73

>  <rmsd>  (11) 
271.86

>  <cluster>  (11) 
2

$$$$
CBUCDBLHFQUVQW-OAXGSVGCNA-N
     RDKit          3D

 51 53  0  0  0  0  0  0  0  0999 V2000
  137.2290   74.6270  223.1190 H   0  0  0  0  0  0  0  0  0  0  0  0
  137.6980   75.0650  222.3340 O   0  0  0  0  0  0  0  0  0  0  0  0
  139.0770   75.2470  222.3310 C   0  0  0  0  0  0  0  0  0  0  0  0
  139.8530   74.2010  222.3160 N   0  0  0  0  0  0  0  0  0  0  0  0
  139.7860   73.0920  221.3630 C   0  0  0  0  0  0  0  0  0  0  0  0
  140.5103   73.2718  220.5549 H   0  0  0  0  0  0  0  0  0  0  0  0
  138.7607   73.0399  220.9680 H   0  0  0  0  0  0  0  0  0  0  0  0
  140.1130   71.7390  222.0380 C   0  0  2  0  0  0  0  0  0  0  0  0
  140.9636   71.9620  222.6988 H   0  0  0  0  0  0  0  0  0  0  0  0
  140.5290   70.6850  220.9960 C   0  0  0  0  0  0  0  0  0  0  0  0
  140.8858   69.7810  221.5112 H   0  0  0  0  0  0  0  0  0  0  0  0
  139.6638   70.4307  220.3661 H   0  0  0  0  0  0  0  0  0  0  0  0
  141.3347   71.0902  220.3661 H   0  0  0  0  0  0  0  0  0  0  0  0
  139.0080   71.1760  222.9950 C   0  0  1  0  0  0  0  0  0  0  0  0
  138.6753   70.2741  222.4603 H   0  0  0  0  0  0  0  0  0  0  0  0
  139.4540   70.5980  224.3370 C   0  0  0  0  0  0  0  0  0  0  0  0
  139.4090   69.2020  224.5150 C   0  0  0  0  0  0  0  0  0  0  0  0
  139.0398   68.5624  223.6998 H   0  0  0  0  0  0  0  0  0  0  0  0
  139.8270   68.6190  225.7130 C   0  0  0  0  0  0  0  0  0  0  0  0
  139.7666   67.5281  225.8409 H   0  0  0  0  0  0  0  0  0  0  0  0
  140.3210   69.4130  226.7490 C   0  0  0  0  0  0  0  0  0  0  0  0
  140.8340   68.6430  228.2440 Cl  0  0  0  0  0  0  0  0  0  0  0  0
  140.4110   70.8030  226.5780 C   0  0  0  0  0  0  0  0  0  0  0  0
  141.0470   71.8360  227.8500 Cl  0  0  0  0  0  0  0  0  0  0  0  0
  139.9940   71.3880  225.3750 C   0  0  0  0  0  0  0  0  0  0  0  0
  140.0885   72.4753  225.2378 H   0  0  0  0  0  0  0  0  0  0  0  0
  137.8670   72.1030  223.1330 N   0  0  0  0  0  0  0  0  0  0  0  0
  138.0110   73.0520  222.7170 H   0  0  0  0  0  0  0  0  0  0  0  0
  136.6320   71.8960  223.8550 C   0  0  0  0  0  0  0  0  0  0  0  0
  136.1670   70.6190  224.2300 C   0  0  0  0  0  0  0  0  0  0  0  0
  136.7451   69.7248  223.9541 H   0  0  0  0  0  0  0  0  0  0  0  0
  134.9780   70.4810  224.9490 C   0  0  0  0  0  0  0  0  0  0  0  0
  134.6280   69.4791  225.2383 H   0  0  0  0  0  0  0  0  0  0  0  0
  134.2290   71.6070  225.3040 C   0  0  0  0  0  0  0  0  0  0  0  0
  133.0140   71.4370  226.0610 C   0  0  0  0  0  0  0  0  0  0  0  0
  132.0380   71.3000  226.6680 N   0  0  0  0  0  0  0  0  0  0  0  0
  134.6710   72.8840  224.9220 C   0  0  0  0  0  0  0  0  0  0  0  0
  133.7670   74.3340  225.3450 Cl  0  0  0  0  0  0  0  0  0  0  0  0
  135.8610   73.0200  224.1970 C   0  0  0  0  0  0  0  0  0  0  0  0
  136.1974   74.0215  223.8906 H   0  0  0  0  0  0  0  0  0  0  0  0
  139.6020   76.6260  222.3130 C   0  0  0  0  0  0  0  0  0  0  0  0
  140.9290   76.8910  221.9350 C   0  0  0  0  0  0  0  0  0  0  0  0
  141.5867   76.0651  221.6264 H   0  0  0  0  0  0  0  0  0  0  0  0
  141.4160   78.2020  221.9500 C   0  0  0  0  0  0  0  0  0  0  0  0
  142.4516   78.4065  221.6406 H   0  0  0  0  0  0  0  0  0  0  0  0
  140.5900   79.2520  222.3570 C   0  0  0  0  0  0  0  0  0  0  0  0
  140.9726   80.2833  222.3621 H   0  0  0  0  0  0  0  0  0  0  0  0
  139.2760   78.9910  222.7580 C   0  0  0  0  0  0  0  0  0  0  0  0
  138.6270   79.8171  223.0842 H   0  0  0  0  0  0  0  0  0  0  0  0
  138.7860   77.6820  222.7450 C   0  0  0  0  0  0  0  0  0  0  0  0
  137.7564   77.4792  223.0748 H   0  0  0  0  0  0  0  0  0  0  0  0
  1  2  1  0
  2  3  1  0
  3  4  2  0
  4  5  1  0
  5  6  1  0
  5  7  1  0
  5  8  1  0
  8  9  1  1
  8 10  1  0
 10 11  1  0
 10 12  1  0
 10 13  1  0
  8 14  1  0
 14 15  1  6
 14 16  1  0
 16 17  2  0
 17 18  1  0
 17 19  1  0
 19 20  1  0
 19 21  2  0
 21 22  1  0
 21 23  1  0
 23 24  1  0
 23 25  2  0
 25 26  1  0
 14 27  1  0
 27 28  1  0
 27 29  1  0
 29 30  2  0
 30 31  1  0
 30 32  1  0
 32 33  1  0
 32 34  2  0
 34 35  1  0
 35 36  3  0
 34 37  1  0
 37 38  1  0
 37 39  2  0
 39 40  1  0
  3 41  1  0
 41 42  2  0
 42 43  1  0
 42 44  1  0
 44 45  1  0
 44 46  2  0
 46 47  1  0
 46 48  1  0
 48 49  1  0
 48 50  2  0
 50 51  1  0
 25 16  1  0
 39 29  1  0
 50 41  1  0
M  END
>  <UniqueID>  (12) 
28

>  <SMILES>  (12) 
C[C@@H](C/N=C(/O)c1ccccc1)[C@H](Nc1ccc(C#N)c(Cl)c1)c1ccc(Cl)c(Cl)c1

>  <Energy>  (12) 
65.59900975368825

>  <Genealogy>  (12) 
CC(CN=C(O)c1ccccc1)C(Nc1ccc(C#N)c(Cl)c1)c1ccc(Cl)c(Cl)c1 (tautomer)
C[C@@H](CN=C(O)c1ccccc1)[C@H](Nc1ccc(C#N)c(Cl)c1)c1ccc(Cl)c(Cl)c1 (chirality)
C[C@@H](C/N=C(/O)c1ccccc1)[C@H](Nc1ccc(C#N)c(Cl)c1)c1ccc(Cl)c(Cl)c1 (cis-trans isomerization)
C[C@@H](C/N=C(/O)c1ccccc1)[C@H](Nc1ccc(C#N)c(Cl)c1)c1ccc(Cl)c(Cl)c1 (3D coordinates assigned)
C[C@@H](C/N=C(/O)c1ccccc1)[C@H](Nc1ccc(C#N)c(Cl)c1)c1ccc(Cl)c(Cl)c1 (optimized conformer: 65.59900975368825 kcal/mol)

>  <smiles>  (12) 
CC(CNC(=O)c1ccccc1)C(Nc1ccc(C#N)c(Cl)c1)c1ccc(Cl)c(Cl)c1

>  <score_type>  (12) 
oracle

>  <origin>  (12) 
autodockgpu

>  <m_score__min__energy>  (12) 
-8.6699999999999999

>  <m_primary>  (12) 
energy

>  <meeko>  (12) 
{"free_energy": -8.15, "intermolecular_energy": -11.14, "internal_energy": -2.59, "cluster_size": 9, "cluster_id": 1, "rank_in_cluster": 5}

>  <energy>  (12) 
-8.19

>  <cluster_rmsd>  (12) 
1.52

>  <rmsd>  (12) 
271.76

>  <cluster>  (12) 
2

$$$$
CBUCDBLHFQUVQW-OAXGSVGCNA-N
     RDKit          3D

 51 53  0  0  0  0  0  0  0  0999 V2000
  137.7830   73.0210  223.2950 H   0  0  0  0  0  0  0  0  0  0  0  0
  138.4150   72.4770  222.7180 O   0  0  0  0  0  0  0  0  0  0  0  0
  139.7410   72.2820  223.0900 C   0  0  0  0  0  0  0  0  0  0  0  0
  140.6790   72.9190  222.4490 N   0  0  0  0  0  0  0  0  0  0  0  0
  140.6670   73.2630  221.0260 C   0  0  0  0  0  0  0  0  0  0  0  0
  139.6600   73.0800  220.6229 H   0  0  0  0  0  0  0  0  0  0  0  0
  141.4142   72.6384  220.5146 H   0  0  0  0  0  0  0  0  0  0  0  0
  141.0380   74.7480  220.7960 C   0  0  2  0  0  0  0  0  0  0  0  0
  140.3831   75.0692  219.9727 H   0  0  0  0  0  0  0  0  0  0  0  0
  142.5100   74.8930  220.3720 C   0  0  0  0  0  0  0  0  0  0  0  0
  143.1452   74.9556  221.2679 H   0  0  0  0  0  0  0  0  0  0  0  0
  142.8066   74.0197  219.7725 H   0  0  0  0  0  0  0  0  0  0  0  0
  142.6305   75.8074  219.7725 H   0  0  0  0  0  0  0  0  0  0  0  0
  140.6940   75.7210  221.9740 C   0  0  1  0  0  0  0  0  0  0  0  0
  141.4634   75.4653  222.7174 H   0  0  0  0  0  0  0  0  0  0  0  0
  140.9450   77.2130  221.7630 C   0  0  0  0  0  0  0  0  0  0  0  0
  140.5770   77.7890  220.5320 C   0  0  0  0  0  0  0  0  0  0  0  0
  140.1377   77.1561  219.7468 H   0  0  0  0  0  0  0  0  0  0  0  0
  140.7620   79.1530  220.2940 C   0  0  0  0  0  0  0  0  0  0  0  0
  140.4864   79.5811  219.3189 H   0  0  0  0  0  0  0  0  0  0  0  0
  141.2950   79.9750  221.2880 C   0  0  0  0  0  0  0  0  0  0  0  0
  141.5170   81.6860  220.9510 Cl  0  0  0  0  0  0  0  0  0  0  0  0
  141.6320   79.4290  222.5360 C   0  0  0  0  0  0  0  0  0  0  0  0
  142.2870   80.4350  223.8220 Cl  0  0  0  0  0  0  0  0  0  0  0  0
  141.4440   78.0620  222.7750 C   0  0  0  0  0  0  0  0  0  0  0  0
  141.6880   77.6446  223.7630 H   0  0  0  0  0  0  0  0  0  0  0  0
  139.3610   75.4510  222.5480 N   0  0  0  0  0  0  0  0  0  0  0  0
  139.2240   74.4820  222.9180 H   0  0  0  0  0  0  0  0  0  0  0  0
  138.2050   76.3180  222.5650 C   0  0  0  0  0  0  0  0  0  0  0  0
  136.9200   75.8920  222.1730 C   0  0  0  0  0  0  0  0  0  0  0  0
  136.7716   74.8618  221.8170 H   0  0  0  0  0  0  0  0  0  0  0  0
  135.8330   76.7680  222.2330 C   0  0  0  0  0  0  0  0  0  0  0  0
  134.8345   76.4214  221.9281 H   0  0  0  0  0  0  0  0  0  0  0  0
  136.0060   78.0820  222.6780 C   0  0  0  0  0  0  0  0  0  0  0  0
  134.8640   78.9590  222.7460 C   0  0  0  0  0  0  0  0  0  0  0  0
  133.9470   79.6640  222.8000 N   0  0  0  0  0  0  0  0  0  0  0  0
  137.2840   78.5250  223.0550 C   0  0  0  0  0  0  0  0  0  0  0  0
  137.5540   80.1680  223.6250 Cl  0  0  0  0  0  0  0  0  0  0  0  0
  138.3720   77.6470  222.9900 C   0  0  0  0  0  0  0  0  0  0  0  0
  139.3729   78.0026  223.2759 H   0  0  0  0  0  0  0  0  0  0  0  0
  140.0250   71.3780  224.2210 C   0  0  0  0  0  0  0  0  0  0  0  0
  139.5030   70.0730  224.2540 C   0  0  0  0  0  0  0  0  0  0  0  0
  138.8899   69.7062  223.4176 H   0  0  0  0  0  0  0  0  0  0  0  0
  139.7610   69.2400  225.3470 C   0  0  0  0  0  0  0  0  0  0  0  0
  139.3607   68.2155  225.3628 H   0  0  0  0  0  0  0  0  0  0  0  0
  140.5260   69.7060  226.4190 C   0  0  0  0  0  0  0  0  0  0  0  0
  140.7326   69.0470  227.2752 H   0  0  0  0  0  0  0  0  0  0  0  0
  141.0290   71.0110  226.4030 C   0  0  0  0  0  0  0  0  0  0  0  0
  141.6274   71.3796  227.2492 H   0  0  0  0  0  0  0  0  0  0  0  0
  140.7720   71.8480  225.3120 C   0  0  0  0  0  0  0  0  0  0  0  0
  141.1569   72.8785  225.3093 H   0  0  0  0  0  0  0  0  0  0  0  0
  1  2  1  0
  2  3  1  0
  3  4  2  0
  4  5  1  0
  5  6  1  0
  5  7  1  0
  5  8  1  0
  8  9  1  6
  8 10  1  0
 10 11  1  0
 10 12  1  0
 10 13  1  0
  8 14  1  0
 14 15  1  1
 14 16  1  0
 16 17  2  0
 17 18  1  0
 17 19  1  0
 19 20  1  0
 19 21  2  0
 21 22  1  0
 21 23  1  0
 23 24  1  0
 23 25  2  0
 25 26  1  0
 14 27  1  0
 27 28  1  0
 27 29  1  0
 29 30  2  0
 30 31  1  0
 30 32  1  0
 32 33  1  0
 32 34  2  0
 34 35  1  0
 35 36  3  0
 34 37  1  0
 37 38  1  0
 37 39  2  0
 39 40  1  0
  3 41  1  0
 41 42  2  0
 42 43  1  0
 42 44  1  0
 44 45  1  0
 44 46  2  0
 46 47  1  0
 46 48  1  0
 48 49  1  0
 48 50  2  0
 50 51  1  0
 25 16  1  0
 39 29  1  0
 50 41  1  0
M  END
>  <UniqueID>  (13) 
28

>  <SMILES>  (13) 
C[C@@H](C/N=C(/O)c1ccccc1)[C@H](Nc1ccc(C#N)c(Cl)c1)c1ccc(Cl)c(Cl)c1

>  <Energy>  (13) 
65.59900975368825

>  <Genealogy>  (13) 
CC(CN=C(O)c1ccccc1)C(Nc1ccc(C#N)c(Cl)c1)c1ccc(Cl)c(Cl)c1 (tautomer)
C[C@@H](CN=C(O)c1ccccc1)[C@H](Nc1ccc(C#N)c(Cl)c1)c1ccc(Cl)c(Cl)c1 (chirality)
C[C@@H](C/N=C(/O)c1ccccc1)[C@H](Nc1ccc(C#N)c(Cl)c1)c1ccc(Cl)c(Cl)c1 (cis-trans isomerization)
C[C@@H](C/N=C(/O)c1ccccc1)[C@H](Nc1ccc(C#N)c(Cl)c1)c1ccc(Cl)c(Cl)c1 (3D coordinates assigned)
C[C@@H](C/N=C(/O)c1ccccc1)[C@H](Nc1ccc(C#N)c(Cl)c1)c1ccc(Cl)c(Cl)c1 (optimized conformer: 65.59900975368825 kcal/mol)

>  <smiles>  (13) 
CC(CNC(=O)c1ccccc1)C(Nc1ccc(C#N)c(Cl)c1)c1ccc(Cl)c(Cl)c1

>  <score_type>  (13) 
oracle

>  <origin>  (13) 
autodockgpu

>  <m_score__min__energy>  (13) 
-8.6699999999999999

>  <m_primary>  (13) 
energy

>  <meeko>  (13) 
{"free_energy": -7.54, "intermolecular_energy": -10.53, "internal_energy": -2.69, "cluster_size": 1, "cluster_id": 5, "rank_in_cluster": 1}

>  <energy>  (13) 
-8.15

>  <cluster_rmsd>  (13) 
1.49

>  <rmsd>  (13) 
271.77

>  <cluster>  (13) 
2

$$$$
CBUCDBLHFQUVQW-OAXGSVGCNA-N
     RDKit          3D

 51 53  0  0  0  0  0  0  0  0999 V2000
  137.1680   75.8960  221.5070 H   0  0  0  0  0  0  0  0  0  0  0  0
  137.7280   75.1020  221.7970 O   0  0  0  0  0  0  0  0  0  0  0  0
  139.0720   75.2510  222.1230 C   0  0  0  0  0  0  0  0  0  0  0  0
  139.8410   74.2000  222.1310 N   0  0  0  0  0  0  0  0  0  0  0  0
  139.7360   73.0490  221.2320 C   0  0  0  0  0  0  0  0  0  0  0  0
  140.4597   73.1691  220.4124 H   0  0  0  0  0  0  0  0  0  0  0  0
  138.7072   73.0076  220.8449 H   0  0  0  0  0  0  0  0  0  0  0  0
  140.0290   71.7210  221.9700 C   0  0  2  0  0  0  0  0  0  0  0  0
  140.8895   71.9517  222.6152 H   0  0  0  0  0  0  0  0  0  0  0  0
  140.4090   70.6070  220.9780 C   0  0  0  0  0  0  0  0  0  0  0  0
  140.7153   69.7091  221.5347 H   0  0  0  0  0  0  0  0  0  0  0  0
  139.5416   70.3680  220.3452 H   0  0  0  0  0  0  0  0  0  0  0  0
  141.2417   70.9479  220.3452 H   0  0  0  0  0  0  0  0  0  0  0  0
  138.9160   71.2360  222.9590 C   0  0  1  0  0  0  0  0  0  0  0  0
  138.5236   70.3450  222.4470 H   0  0  0  0  0  0  0  0  0  0  0  0
  139.3580   70.6570  224.3020 C   0  0  0  0  0  0  0  0  0  0  0  0
  139.2520   69.2670  224.5020 C   0  0  0  0  0  0  0  0  0  0  0  0
  138.8396   68.6340  223.7025 H   0  0  0  0  0  0  0  0  0  0  0  0
  139.6630   68.6810  225.7010 C   0  0  0  0  0  0  0  0  0  0  0  0
  139.5545   67.5960  225.8462 H   0  0  0  0  0  0  0  0  0  0  0  0
  140.2110   69.4670  226.7160 C   0  0  0  0  0  0  0  0  0  0  0  0
  140.7130   68.6940  228.2140 Cl  0  0  0  0  0  0  0  0  0  0  0  0
  140.3630   70.8480  226.5230 C   0  0  0  0  0  0  0  0  0  0  0  0
  141.0680   71.8680  227.7700 Cl  0  0  0  0  0  0  0  0  0  0  0  0
  139.9520   71.4350  225.3200 C   0  0  0  0  0  0  0  0  0  0  0  0
  140.0935   72.5149  225.1661 H   0  0  0  0  0  0  0  0  0  0  0  0
  137.8310   72.2260  223.1040 N   0  0  0  0  0  0  0  0  0  0  0  0
  138.0280   73.1670  222.6920 H   0  0  0  0  0  0  0  0  0  0  0  0
  136.5870   72.0880  223.8290 C   0  0  0  0  0  0  0  0  0  0  0  0
  135.7730   73.1850  224.1740 C   0  0  0  0  0  0  0  0  0  0  0  0
  136.0883   74.2041  223.9056 H   0  0  0  0  0  0  0  0  0  0  0  0
  134.5690   72.9890  224.8540 C   0  0  0  0  0  0  0  0  0  0  0  0
  133.9408   73.8539  225.1136 H   0  0  0  0  0  0  0  0  0  0  0  0
  134.1570   71.7000  225.2070 C   0  0  0  0  0  0  0  0  0  0  0  0
  132.9020   71.5250  225.8950 C   0  0  0  0  0  0  0  0  0  0  0  0
  131.8940   71.3840  226.4460 N   0  0  0  0  0  0  0  0  0  0  0  0
  134.9670   70.5990  224.8860 C   0  0  0  0  0  0  0  0  0  0  0  0
  134.4920   68.9570  225.3060 Cl  0  0  0  0  0  0  0  0  0  0  0  0
  136.1750   70.7990  224.2080 C   0  0  0  0  0  0  0  0  0  0  0  0
  136.8114   69.9344  223.9682 H   0  0  0  0  0  0  0  0  0  0  0  0
  139.5750   76.6060  222.4190 C   0  0  0  0  0  0  0  0  0  0  0  0
  140.9540   76.8700  222.4760 C   0  0  0  0  0  0  0  0  0  0  0  0
  141.6754   76.0636  222.2778 H   0  0  0  0  0  0  0  0  0  0  0  0
  141.4120   78.1550  222.7840 C   0  0  0  0  0  0  0  0  0  0  0  0
  142.4923   78.3599  222.8153 H   0  0  0  0  0  0  0  0  0  0  0  0
  140.5000   79.1790  223.0520 C   0  0  0  0  0  0  0  0  0  0  0  0
  140.8619   80.1904  223.2888 H   0  0  0  0  0  0  0  0  0  0  0  0
  139.1260   78.9170  223.0190 C   0  0  0  0  0  0  0  0  0  0  0  0
  138.4078   79.7220  223.2340 H   0  0  0  0  0  0  0  0  0  0  0  0
  138.6650   77.6330  222.7130 C   0  0  0  0  0  0  0  0  0  0  0  0
  137.5845   77.4270  222.7027 H   0  0  0  0  0  0  0  0  0  0  0  0
  1  2  1  0
  2  3  1  0
  3  4  2  0
  4  5  1  0
  5  6  1  0
  5  7  1  0
  5  8  1  0
  8  9  1  1
  8 10  1  0
 10 11  1  0
 10 12  1  0
 10 13  1  0
  8 14  1  0
 14 15  1  6
 14 16  1  0
 16 17  2  0
 17 18  1  0
 17 19  1  0
 19 20  1  0
 19 21  2  0
 21 22  1  0
 21 23  1  0
 23 24  1  0
 23 25  2  0
 25 26  1  0
 14 27  1  0
 27 28  1  0
 27 29  1  0
 29 30  2  0
 30 31  1  0
 30 32  1  0
 32 33  1  0
 32 34  2  0
 34 35  1  0
 35 36  3  0
 34 37  1  0
 37 38  1  0
 37 39  2  0
 39 40  1  0
  3 41  1  0
 41 42  2  0
 42 43  1  0
 42 44  1  0
 44 45  1  0
 44 46  2  0
 46 47  1  0
 46 48  1  0
 48 49  1  0
 48 50  2  0
 50 51  1  0
 25 16  1  0
 39 29  1  0
 50 41  1  0
M  END
>  <UniqueID>  (14) 
28

>  <SMILES>  (14) 
C[C@@H](C/N=C(/O)c1ccccc1)[C@H](Nc1ccc(C#N)c(Cl)c1)c1ccc(Cl)c(Cl)c1

>  <Energy>  (14) 
65.59900975368825

>  <Genealogy>  (14) 
CC(CN=C(O)c1ccccc1)C(Nc1ccc(C#N)c(Cl)c1)c1ccc(Cl)c(Cl)c1 (tautomer)
C[C@@H](CN=C(O)c1ccccc1)[C@H](Nc1ccc(C#N)c(Cl)c1)c1ccc(Cl)c(Cl)c1 (chirality)
C[C@@H](C/N=C(/O)c1ccccc1)[C@H](Nc1ccc(C#N)c(Cl)c1)c1ccc(Cl)c(Cl)c1 (cis-trans isomerization)
C[C@@H](C/N=C(/O)c1ccccc1)[C@H](Nc1ccc(C#N)c(Cl)c1)c1ccc(Cl)c(Cl)c1 (3D coordinates assigned)
C[C@@H](C/N=C(/O)c1ccccc1)[C@H](Nc1ccc(C#N)c(Cl)c1)c1ccc(Cl)c(Cl)c1 (optimized conformer: 65.59900975368825 kcal/mol)

>  <smiles>  (14) 
CC(CNC(=O)c1ccccc1)C(Nc1ccc(C#N)c(Cl)c1)c1ccc(Cl)c(Cl)c1

>  <score_type>  (14) 
oracle

>  <origin>  (14) 
autodockgpu

>  <m_score__min__energy>  (14) 
-8.6699999999999999

>  <m_primary>  (14) 
energy

>  <meeko>  (14) 
{"free_energy": -7.71, "intermolecular_energy": -10.69, "internal_energy": -2.74, "cluster_size": 9, "cluster_id": 1, "rank_in_cluster": 6}

>  <energy>  (14) 
-7.67

>  <cluster_rmsd>  (14) 
0.0

>  <rmsd>  (14) 
271.28

>  <cluster>  (14) 
3

$$$$
CBUCDBLHFQUVQW-OAXGSVGCNA-N
     RDKit          3D

 51 53  0  0  0  0  0  0  0  0999 V2000
  138.8040   73.8210  223.0180 H   0  0  0  0  0  0  0  0  0  0  0  0
  139.5650   73.6830  222.3630 O   0  0  0  0  0  0  0  0  0  0  0  0
  140.4470   72.6150  222.5000 C   0  0  0  0  0  0  0  0  0  0  0  0
  141.4900   72.5530  221.7230 N   0  0  0  0  0  0  0  0  0  0  0  0
  141.5370   72.9420  220.3120 C   0  0  0  0  0  0  0  0  0  0  0  0
  140.5695   73.3837  220.0312 H   0  0  0  0  0  0  0  0  0  0  0  0
  141.7469   72.0427  219.7143 H   0  0  0  0  0  0  0  0  0  0  0  0
  142.6580   73.9750  220.0420 C   0  0  2  0  0  0  0  0  0  0  0  0
  142.7382   74.0121  218.9456 H   0  0  0  0  0  0  0  0  0  0  0  0
  143.9970   73.5100  220.6440 C   0  0  0  0  0  0  0  0  0  0  0  0
  143.9328   73.5323  221.7419 H   0  0  0  0  0  0  0  0  0  0  0  0
  144.2127   72.4843  220.3100 H   0  0  0  0  0  0  0  0  0  0  0  0
  144.8019   74.1812  220.3100 H   0  0  0  0  0  0  0  0  0  0  0  0
  142.3350   75.4480  220.4620 C   0  0  1  0  0  0  0  0  0  0  0  0
  143.2611   75.7508  220.9726 H   0  0  0  0  0  0  0  0  0  0  0  0
  142.2280   76.4970  219.3570 C   0  0  0  0  0  0  0  0  0  0  0  0
  142.0190   76.0610  218.0350 C   0  0  0  0  0  0  0  0  0  0  0  0
  141.9572   74.9835  217.8226 H   0  0  0  0  0  0  0  0  0  0  0  0
  141.8890   76.9780  216.9890 C   0  0  0  0  0  0  0  0  0  0  0  0
  141.7459   76.6179  215.9595 H   0  0  0  0  0  0  0  0  0  0  0  0
  141.9400   78.3490  217.2450 C   0  0  0  0  0  0  0  0  0  0  0  0
  141.7770   79.4730  215.9020 Cl  0  0  0  0  0  0  0  0  0  0  0  0
  142.1080   78.8070  218.5600 C   0  0  0  0  0  0  0  0  0  0  0  0
  142.1570   80.5260  218.9270 Cl  0  0  0  0  0  0  0  0  0  0  0  0
  142.2360   77.8870  219.6090 C   0  0  0  0  0  0  0  0  0  0  0  0
  142.3440   78.2515  220.6412 H   0  0  0  0  0  0  0  0  0  0  0  0
  141.2130   75.5220  221.4180 N   0  0  0  0  0  0  0  0  0  0  0  0
  140.7650   74.6060  221.6500 H   0  0  0  0  0  0  0  0  0  0  0  0
  140.5990   76.7020  221.9840 C   0  0  0  0  0  0  0  0  0  0  0  0
  139.2040   76.8960  222.0260 C   0  0  0  0  0  0  0  0  0  0  0  0
  138.5341   76.1356  221.5982 H   0  0  0  0  0  0  0  0  0  0  0  0
  138.6650   78.0470  222.6070 C   0  0  0  0  0  0  0  0  0  0  0  0
  137.5741   78.1848  222.6363 H   0  0  0  0  0  0  0  0  0  0  0  0
  139.5030   79.0240  223.1510 C   0  0  0  0  0  0  0  0  0  0  0  0
  138.9200   80.1940  223.7600 C   0  0  0  0  0  0  0  0  0  0  0  0
  138.4510   81.1340  224.2480 N   0  0  0  0  0  0  0  0  0  0  0  0
  140.8960   78.8530  223.1010 C   0  0  0  0  0  0  0  0  0  0  0  0
  141.9940   80.0520  223.7730 Cl  0  0  0  0  0  0  0  0  0  0  0  0
  141.4330   77.7010  222.5140 C   0  0  0  0  0  0  0  0  0  0  0  0
  142.5249   77.5760  222.4670 H   0  0  0  0  0  0  0  0  0  0  0  0
  140.1740   71.6110  223.5460 C   0  0  0  0  0  0  0  0  0  0  0  0
  140.7060   71.7520  224.8400 C   0  0  0  0  0  0  0  0  0  0  0  0
  141.3182   72.6313  225.0891 H   0  0  0  0  0  0  0  0  0  0  0  0
  140.4580   70.7760  225.8110 C   0  0  0  0  0  0  0  0  0  0  0  0
  140.8647   70.8956  226.8260 H   0  0  0  0  0  0  0  0  0  0  0  0
  139.6950   69.6500  225.4940 C   0  0  0  0  0  0  0  0  0  0  0  0
  139.4967   68.8865  226.2606 H   0  0  0  0  0  0  0  0  0  0  0  0
  139.1830   69.4930  224.2020 C   0  0  0  0  0  0  0  0  0  0  0  0
  138.5859   68.6038  223.9514 H   0  0  0  0  0  0  0  0  0  0  0  0
  139.4300   70.4660  223.2290 C   0  0  0  0  0  0  0  0  0  0  0  0
  139.0386   70.3325  222.2097 H   0  0  0  0  0  0  0  0  0  0  0  0
  1  2  1  0
  2  3  1  0
  3  4  2  0
  4  5  1  0
  5  6  1  0
  5  7  1  0
  5  8  1  0
  8  9  1  6
  8 10  1  0
 10 11  1  0
 10 12  1  0
 10 13  1  0
  8 14  1  0
 14 15  1  1
 14 16  1  0
 16 17  2  0
 17 18  1  0
 17 19  1  0
 19 20  1  0
 19 21  2  0
 21 22  1  0
 21 23  1  0
 23 24  1  0
 23 25  2  0
 25 26  1  0
 14 27  1  0
 27 28  1  0
 27 29  1  0
 29 30  2  0
 30 31  1  0
 30 32  1  0
 32 33  1  0
 32 34  2  0
 34 35  1  0
 35 36  3  0
 34 37  1  0
 37 38  1  0
 37 39  2  0
 39 40  1  0
  3 41  1  0
 41 42  2  0
 42 43  1  0
 42 44  1  0
 44 45  1  0
 44 46  2  0
 46 47  1  0
 46 48  1  0
 48 49  1  0
 48 50  2  0
 50 51  1  0
 25 16  1  0
 39 29  1  0
 50 41  1  0
M  END
>  <UniqueID>  (15) 
28

>  <SMILES>  (15) 
C[C@@H](C/N=C(/O)c1ccccc1)[C@H](Nc1ccc(C#N)c(Cl)c1)c1ccc(Cl)c(Cl)c1

>  <Energy>  (15) 
65.59900975368825

>  <Genealogy>  (15) 
CC(CN=C(O)c1ccccc1)C(Nc1ccc(C#N)c(Cl)c1)c1ccc(Cl)c(Cl)c1 (tautomer)
C[C@@H](CN=C(O)c1ccccc1)[C@H](Nc1ccc(C#N)c(Cl)c1)c1ccc(Cl)c(Cl)c1 (chirality)
C[C@@H](C/N=C(/O)c1ccccc1)[C@H](Nc1ccc(C#N)c(Cl)c1)c1ccc(Cl)c(Cl)c1 (cis-trans isomerization)
C[C@@H](C/N=C(/O)c1ccccc1)[C@H](Nc1ccc(C#N)c(Cl)c1)c1ccc(Cl)c(Cl)c1 (3D coordinates assigned)
C[C@@H](C/N=C(/O)c1ccccc1)[C@H](Nc1ccc(C#N)c(Cl)c1)c1ccc(Cl)c(Cl)c1 (optimized conformer: 65.59900975368825 kcal/mol)

>  <smiles>  (15) 
CC(CNC(=O)c1ccccc1)C(Nc1ccc(C#N)c(Cl)c1)c1ccc(Cl)c(Cl)c1

>  <score_type>  (15) 
oracle

>  <origin>  (15) 
autodockgpu

>  <m_score__min__energy>  (15) 
-8.6699999999999999

>  <m_primary>  (15) 
energy

>  <meeko>  (15) 
{"free_energy": -7.41, "intermolecular_energy": -10.39, "internal_energy": -2.66, "cluster_size": 1, "cluster_id": 7, "rank_in_cluster": 1}

>  <energy>  (15) 
-7.39

>  <cluster_rmsd>  (15) 
1.2

>  <rmsd>  (15) 
271.3

>  <cluster>  (15) 
3

$$$$
CBUCDBLHFQUVQW-OAXGSVGCNA-N
     RDKit          3D

 51 53  0  0  0  0  0  0  0  0999 V2000
  137.8750   75.2180  221.0410 H   0  0  0  0  0  0  0  0  0  0  0  0
  138.2140   74.6170  221.7830 O   0  0  0  0  0  0  0  0  0  0  0  0
  139.5770   74.4140  221.9790 C   0  0  0  0  0  0  0  0  0  0  0  0
  139.9690   73.4070  222.7060 N   0  0  0  0  0  0  0  0  0  0  0  0
  140.6410   72.2020  222.2170 C   0  0  0  0  0  0  0  0  0  0  0  0
  141.3923   71.8874  222.9563 H   0  0  0  0  0  0  0  0  0  0  0  0
  141.1140   72.4393  221.2526 H   0  0  0  0  0  0  0  0  0  0  0  0
  139.6400   71.0420  221.9930 C   0  0  2  0  0  0  0  0  0  0  0  0
  140.2686   70.1401  221.9566 H   0  0  0  0  0  0  0  0  0  0  0  0
  138.8930   71.2040  220.6580 C   0  0  0  0  0  0  0  0  0  0  0  0
  137.8354   71.4334  220.8551 H   0  0  0  0  0  0  0  0  0  0  0  0
  139.3451   72.0250  220.0821 H   0  0  0  0  0  0  0  0  0  0  0  0
  138.9644   70.2695  220.0821 H   0  0  0  0  0  0  0  0  0  0  0  0
  138.6400   70.7770  223.1690 C   0  0  1  0  0  0  0  0  0  0  0  0
  138.0928   69.8917  222.8129 H   0  0  0  0  0  0  0  0  0  0  0  0
  139.2120   70.2770  224.4930 C   0  0  0  0  0  0  0  0  0  0  0  0
  139.2110   68.8920  224.7460 C   0  0  0  0  0  0  0  0  0  0  0  0
  138.7849   68.2050  224.0000 H   0  0  0  0  0  0  0  0  0  0  0  0
  139.7430   68.3780  225.9300 C   0  0  0  0  0  0  0  0  0  0  0  0
  139.7162   67.2944  226.1176 H   0  0  0  0  0  0  0  0  0  0  0  0
  140.3090   69.2340  226.8770 C   0  0  0  0  0  0  0  0  0  0  0  0
  140.9660   68.5500  228.3580 Cl  0  0  0  0  0  0  0  0  0  0  0  0
  140.3560   70.6140  226.6280 C   0  0  0  0  0  0  0  0  0  0  0  0
  141.0790   71.7220  227.7860 Cl  0  0  0  0  0  0  0  0  0  0  0  0
  139.8240   71.1280  225.4390 C   0  0  0  0  0  0  0  0  0  0  0  0
  139.8836   72.2081  225.2395 H   0  0  0  0  0  0  0  0  0  0  0  0
  137.6880   71.8910  223.3510 N   0  0  0  0  0  0  0  0  0  0  0  0
  137.9890   72.8060  222.9440 H   0  0  0  0  0  0  0  0  0  0  0  0
  136.4560   71.8960  224.1070 C   0  0  0  0  0  0  0  0  0  0  0  0
  135.8450   70.7210  224.5890 C   0  0  0  0  0  0  0  0  0  0  0  0
  136.3009   69.7427  224.3765 H   0  0  0  0  0  0  0  0  0  0  0  0
  134.6660   70.7880  225.3340 C   0  0  0  0  0  0  0  0  0  0  0  0
  134.2015   69.8629  225.7062 H   0  0  0  0  0  0  0  0  0  0  0  0
  134.0720   72.0230  225.6100 C   0  0  0  0  0  0  0  0  0  0  0  0
  132.8640   72.0650  226.3960 C   0  0  0  0  0  0  0  0  0  0  0  0
  131.8940   72.0980  227.0270 N   0  0  0  0  0  0  0  0  0  0  0  0
  134.6590   73.2020  225.1210 C   0  0  0  0  0  0  0  0  0  0  0  0
  133.9520   74.7810  225.4420 Cl  0  0  0  0  0  0  0  0  0  0  0  0
  135.8380   73.1310  224.3700 C   0  0  0  0  0  0  0  0  0  0  0  0
  136.2879   74.0557  223.9796 H   0  0  0  0  0  0  0  0  0  0  0  0
  140.5230   75.3390  221.3260 C   0  0  0  0  0  0  0  0  0  0  0  0
  141.4760   74.8700  220.4050 C   0  0  0  0  0  0  0  0  0  0  0  0
  141.5097   73.8012  220.1470 H   0  0  0  0  0  0  0  0  0  0  0  0
  142.3810   75.7580  219.8160 C   0  0  0  0  0  0  0  0  0  0  0  0
  143.1164   75.3887  219.0860 H   0  0  0  0  0  0  0  0  0  0  0  0
  142.3530   77.1140  220.1530 C   0  0  0  0  0  0  0  0  0  0  0  0
  143.0616   77.8122  219.6836 H   0  0  0  0  0  0  0  0  0  0  0  0
  141.4240   77.5830  221.0870 C   0  0  0  0  0  0  0  0  0  0  0  0
  141.4064   78.6492  221.3572 H   0  0  0  0  0  0  0  0  0  0  0  0
  140.5170   76.6970  221.6780 C   0  0  0  0  0  0  0  0  0  0  0  0
  139.7960   77.0667  222.4219 H   0  0  0  0  0  0  0  0  0  0  0  0
  1  2  1  0
  2  3  1  0
  3  4  2  0
  4  5  1  0
  5  6  1  0
  5  7  1  0
  5  8  1  0
  8  9  1  6
  8 10  1  0
 10 11  1  0
 10 12  1  0
 10 13  1  0
  8 14  1  0
 14 15  1  6
 14 16  1  0
 16 17  2  0
 17 18  1  0
 17 19  1  0
 19 20  1  0
 19 21  2  0
 21 22  1  0
 21 23  1  0
 23 24  1  0
 23 25  2  0
 25 26  1  0
 14 27  1  0
 27 28  1  0
 27 29  1  0
 29 30  2  0
 30 31  1  0
 30 32  1  0
 32 33  1  0
 32 34  2  0
 34 35  1  0
 35 36  3  0
 34 37  1  0
 37 38  1  0
 37 39  2  0
 39 40  1  0
  3 41  1  0
 41 42  2  0
 42 43  1  0
 42 44  1  0
 44 45  1  0
 44 46  2  0
 46 47  1  0
 46 48  1  0
 48 49  1  0
 48 50  2  0
 50 51  1  0
 25 16  1  0
 39 29  1  0
 50 41  1  0
M  END
>  <UniqueID>  (16) 
28

>  <SMILES>  (16) 
C[C@@H](C/N=C(/O)c1ccccc1)[C@H](Nc1ccc(C#N)c(Cl)c1)c1ccc(Cl)c(Cl)c1

>  <Energy>  (16) 
65.59900975368825

>  <Genealogy>  (16) 
CC(CN=C(O)c1ccccc1)C(Nc1ccc(C#N)c(Cl)c1)c1ccc(Cl)c(Cl)c1 (tautomer)
C[C@@H](CN=C(O)c1ccccc1)[C@H](Nc1ccc(C#N)c(Cl)c1)c1ccc(Cl)c(Cl)c1 (chirality)
C[C@@H](C/N=C(/O)c1ccccc1)[C@H](Nc1ccc(C#N)c(Cl)c1)c1ccc(Cl)c(Cl)c1 (cis-trans isomerization)
C[C@@H](C/N=C(/O)c1ccccc1)[C@H](Nc1ccc(C#N)c(Cl)c1)c1ccc(Cl)c(Cl)c1 (3D coordinates assigned)
C[C@@H](C/N=C(/O)c1ccccc1)[C@H](Nc1ccc(C#N)c(Cl)c1)c1ccc(Cl)c(Cl)c1 (optimized conformer: 65.59900975368825 kcal/mol)

>  <smiles>  (16) 
CC(CNC(=O)c1ccccc1)C(Nc1ccc(C#N)c(Cl)c1)c1ccc(Cl)c(Cl)c1

>  <score_type>  (16) 
oracle

>  <origin>  (16) 
autodockgpu

>  <m_score__min__energy>  (16) 
-8.6699999999999999

>  <m_primary>  (16) 
energy

>  <meeko>  (16) 
{"free_energy": -7.45, "intermolecular_energy": -10.44, "internal_energy": -2.82, "cluster_size": 9, "cluster_id": 1, "rank_in_cluster": 9}

>  <energy>  (16) 
-7.63

>  <cluster_rmsd>  (16) 
0.0

>  <rmsd>  (16) 
271.85

>  <cluster>  (16) 
4

$$$$
CBUCDBLHFQUVQW-OAXGSVGCNA-N
     RDKit          3D

 51 53  0  0  0  0  0  0  0  0999 V2000
  138.8890   73.6840  223.0930 H   0  0  0  0  0  0  0  0  0  0  0  0
  139.4960   74.0310  222.3590 O   0  0  0  0  0  0  0  0  0  0  0  0
  140.5270   73.2490  221.8470 C   0  0  0  0  0  0  0  0  0  0  0  0
  140.4800   71.9570  222.0080 N   0  0  0  0  0  0  0  0  0  0  0  0
  139.8480   70.9990  221.1010 C   0  0  0  0  0  0  0  0  0  0  0  0
  140.5862   70.6762  220.3521 H   0  0  0  0  0  0  0  0  0  0  0  0
  138.9912   71.4942  220.6207 H   0  0  0  0  0  0  0  0  0  0  0  0
  139.3250   69.7550  221.8590 C   0  0  2  0  0  0  0  0  0  0  0  0
  140.2340   69.2579  222.2286 H   0  0  0  0  0  0  0  0  0  0  0  0
  138.5650   68.8070  220.9130 C   0  0  0  0  0  0  0  0  0  0  0  0
  137.9855   68.0842  221.5061 H   0  0  0  0  0  0  0  0  0  0  0  0
  137.8825   69.3916  220.2786 H   0  0  0  0  0  0  0  0  0  0  0  0
  139.2841   68.2680  220.2786 H   0  0  0  0  0  0  0  0  0  0  0  0
  138.4870   70.0520  223.1480 C   0  0  1  0  0  0  0  0  0  0  0  0
  137.6975   69.2882  223.0913 H   0  0  0  0  0  0  0  0  0  0  0  0
  139.1250   69.7430  224.5010 C   0  0  0  0  0  0  0  0  0  0  0  0
  139.1830   68.4010  224.9250 C   0  0  0  0  0  0  0  0  0  0  0  0
  138.7549   67.6120  224.2893 H   0  0  0  0  0  0  0  0  0  0  0  0
  139.7770   68.0590  226.1420 C   0  0  0  0  0  0  0  0  0  0  0  0
  139.7959   67.0078  226.4655 H   0  0  0  0  0  0  0  0  0  0  0  0
  140.3470   69.0450  226.9500 C   0  0  0  0  0  0  0  0  0  0  0  0
  141.0810   68.5770  228.4770 Cl  0  0  0  0  0  0  0  0  0  0  0  0
  140.3350   70.3830  226.5280 C   0  0  0  0  0  0  0  0  0  0  0  0
  141.0600   71.6520  227.5060 Cl  0  0  0  0  0  0  0  0  0  0  0  0
  139.7410   70.7260  225.3060 C   0  0  0  0  0  0  0  0  0  0  0  0
  139.7548   71.7733  224.9700 H   0  0  0  0  0  0  0  0  0  0  0  0
  137.8660   71.3910  223.1120 N   0  0  0  0  0  0  0  0  0  0  0  0
  138.4160   72.1230  222.6080 H   0  0  0  0  0  0  0  0  0  0  0  0
  136.6570   71.8320  223.7720 C   0  0  0  0  0  0  0  0  0  0  0  0
  136.1390   73.1350  223.6330 C   0  0  0  0  0  0  0  0  0  0  0  0
  136.6726   73.8716  223.0144 H   0  0  0  0  0  0  0  0  0  0  0  0
  134.9530   73.4980  224.2750 C   0  0  0  0  0  0  0  0  0  0  0  0
  134.5572   74.5173  224.1552 H   0  0  0  0  0  0  0  0  0  0  0  0
  134.2650   72.5750  225.0690 C   0  0  0  0  0  0  0  0  0  0  0  0
  133.0350   72.9720  225.7070 C   0  0  0  0  0  0  0  0  0  0  0  0
  132.0460   73.2900  226.2190 N   0  0  0  0  0  0  0  0  0  0  0  0
  134.7800   71.2780  225.2310 C   0  0  0  0  0  0  0  0  0  0  0  0
  133.9520   70.0790  226.2170 Cl  0  0  0  0  0  0  0  0  0  0  0  0
  135.9710   70.9180  224.5890 C   0  0  0  0  0  0  0  0  0  0  0  0
  136.3756   69.9044  224.7264 H   0  0  0  0  0  0  0  0  0  0  0  0
  141.6180   73.9200  221.1160 C   0  0  0  0  0  0  0  0  0  0  0  0
  142.8150   73.2440  220.8230 C   0  0  0  0  0  0  0  0  0  0  0  0
  142.9394   72.1929  221.1224 H   0  0  0  0  0  0  0  0  0  0  0  0
  143.8490   73.9060  220.1510 C   0  0  0  0  0  0  0  0  0  0  0  0
  144.7798   73.3706  219.9123 H   0  0  0  0  0  0  0  0  0  0  0  0
  143.7010   75.2450  219.7830 C   0  0  0  0  0  0  0  0  0  0  0  0
  144.5123   75.7615  219.2491 H   0  0  0  0  0  0  0  0  0  0  0  0
  142.5220   75.9290  220.0930 C   0  0  0  0  0  0  0  0  0  0  0  0
  142.4085   76.9853  219.8079 H   0  0  0  0  0  0  0  0  0  0  0  0
  141.4870   75.2720  220.7650 C   0  0  0  0  0  0  0  0  0  0  0  0
  140.5662   75.8173  221.0196 H   0  0  0  0  0  0  0  0  0  0  0  0
  1  2  1  0
  2  3  1  0
  3  4  2  0
  4  5  1  0
  5  6  1  0
  5  7  1  0
  5  8  1  0
  8  9  1  1
  8 10  1  0
 10 11  1  0
 10 12  1  0
 10 13  1  0
  8 14  1  0
 14 15  1  6
 14 16  1  0
 16 17  2  0
 17 18  1  0
 17 19  1  0
 19 20  1  0
 19 21  2  0
 21 22  1  0
 21 23  1  0
 23 24  1  0
 23 25  2  0
 25 26  1  0
 14 27  1  0
 27 28  1  0
 27 29  1  0
 29 30  2  0
 30 31  1  0
 30 32  1  0
 32 33  1  0
 32 34  2  0
 34 35  1  0
 35 36  3  0
 34 37  1  0
 37 38  1  0
 37 39  2  0
 39 40  1  0
  3 41  1  0
 41 42  2  0
 42 43  1  0
 42 44  1  0
 44 45  1  0
 44 46  2  0
 46 47  1  0
 46 48  1  0
 48 49  1  0
 48 50  2  0
 50 51  1  0
 25 16  1  0
 39 29  1  0
 50 41  1  0
M  END
>  <UniqueID>  (17) 
28

>  <SMILES>  (17) 
C[C@@H](C/N=C(/O)c1ccccc1)[C@H](Nc1ccc(C#N)c(Cl)c1)c1ccc(Cl)c(Cl)c1

>  <Energy>  (17) 
65.59900975368825

>  <Genealogy>  (17) 
CC(CN=C(O)c1ccccc1)C(Nc1ccc(C#N)c(Cl)c1)c1ccc(Cl)c(Cl)c1 (tautomer)
C[C@@H](CN=C(O)c1ccccc1)[C@H](Nc1ccc(C#N)c(Cl)c1)c1ccc(Cl)c(Cl)c1 (chirality)
C[C@@H](C/N=C(/O)c1ccccc1)[C@H](Nc1ccc(C#N)c(Cl)c1)c1ccc(Cl)c(Cl)c1 (cis-trans isomerization)
C[C@@H](C/N=C(/O)c1ccccc1)[C@H](Nc1ccc(C#N)c(Cl)c1)c1ccc(Cl)c(Cl)c1 (3D coordinates assigned)
C[C@@H](C/N=C(/O)c1ccccc1)[C@H](Nc1ccc(C#N)c(Cl)c1)c1ccc(Cl)c(Cl)c1 (optimized conformer: 65.59900975368825 kcal/mol)

>  <smiles>  (17) 
CC(CNC(=O)c1ccccc1)C(Nc1ccc(C#N)c(Cl)c1)c1ccc(Cl)c(Cl)c1

>  <score_type>  (17) 
oracle

>  <origin>  (17) 
autodockgpu

>  <m_score__min__energy>  (17) 
-8.6699999999999999

>  <m_primary>  (17) 
energy

>  <meeko>  (17) 
{"free_energy": -7.67, "intermolecular_energy": -10.65, "internal_energy": -2.67, "cluster_size": 2, "cluster_id": 3, "rank_in_cluster": 1}

>  <energy>  (17) 
-7.54

>  <cluster_rmsd>  (17) 
0.0

>  <rmsd>  (17) 
272.0

>  <cluster>  (17) 
5

$$$$
CBUCDBLHFQUVQW-OAXGSVGCNA-N
     RDKit          3D

 51 53  0  0  0  0  0  0  0  0999 V2000
  137.2940   74.5880  223.1170 H   0  0  0  0  0  0  0  0  0  0  0  0
  137.7670   74.9920  222.3180 O   0  0  0  0  0  0  0  0  0  0  0  0
  139.1410   75.2150  222.3320 C   0  0  0  0  0  0  0  0  0  0  0  0
  139.9470   74.2010  222.1970 N   0  0  0  0  0  0  0  0  0  0  0  0
  139.7690   73.0760  221.2780 C   0  0  0  0  0  0  0  0  0  0  0  0
  140.4650   73.1913  220.4340 H   0  0  0  0  0  0  0  0  0  0  0  0
  138.7253   73.0781  220.9305 H   0  0  0  0  0  0  0  0  0  0  0  0
  140.0440   71.7210  221.9740 C   0  0  2  0  0  0  0  0  0  0  0  0
  140.9169   71.9145  222.6148 H   0  0  0  0  0  0  0  0  0  0  0  0
  140.3900   70.6290  220.9460 C   0  0  0  0  0  0  0  0  0  0  0  0
  140.6816   69.7085  221.4730 H   0  0  0  0  0  0  0  0  0  0  0  0
  139.5116   70.4277  220.3152 H   0  0  0  0  0  0  0  0  0  0  0  0
  141.2240   70.9703  220.3152 H   0  0  0  0  0  0  0  0  0  0  0  0
  138.9320   71.2310  222.9620 C   0  0  1  0  0  0  0  0  0  0  0  0
  138.5356   70.3456  222.4433 H   0  0  0  0  0  0  0  0  0  0  0  0
  139.3750   70.6380  224.2980 C   0  0  0  0  0  0  0  0  0  0  0  0
  139.2860   69.2440  224.4770 C   0  0  0  0  0  0  0  0  0  0  0  0
  138.8859   68.6171  223.6665 H   0  0  0  0  0  0  0  0  0  0  0  0
  139.6990   68.6470  225.6700 C   0  0  0  0  0  0  0  0  0  0  0  0
  139.6023   67.5589  225.7995 H   0  0  0  0  0  0  0  0  0  0  0  0
  140.2340   69.4240  226.6990 C   0  0  0  0  0  0  0  0  0  0  0  0
  140.7400   68.6370  228.1870 Cl  0  0  0  0  0  0  0  0  0  0  0  0
  140.3690   70.8100  226.5260 C   0  0  0  0  0  0  0  0  0  0  0  0
  141.0570   71.8210  227.7890 Cl  0  0  0  0  0  0  0  0  0  0  0  0
  139.9560   71.4090  225.3290 C   0  0  0  0  0  0  0  0  0  0  0  0
  140.0857   72.4925  225.1903 H   0  0  0  0  0  0  0  0  0  0  0  0
  137.8500   72.2230  223.1180 N   0  0  0  0  0  0  0  0  0  0  0  0
  138.0510   73.1680  222.7200 H   0  0  0  0  0  0  0  0  0  0  0  0
  136.6050   72.0780  223.8380 C   0  0  0  0  0  0  0  0  0  0  0  0
  135.7800   73.1710  224.1720 C   0  0  0  0  0  0  0  0  0  0  0  0
  136.0877   74.1908  223.8977 H   0  0  0  0  0  0  0  0  0  0  0  0
  134.5740   72.9690  224.8490 C   0  0  0  0  0  0  0  0  0  0  0  0
  133.9372   73.8301  225.1001 H   0  0  0  0  0  0  0  0  0  0  0  0
  134.1720   71.6790  225.2090 C   0  0  0  0  0  0  0  0  0  0  0  0
  132.9150   71.4980  225.8920 C   0  0  0  0  0  0  0  0  0  0  0  0
  131.9060   71.3520  226.4410 N   0  0  0  0  0  0  0  0  0  0  0  0
  134.9920   70.5830  224.8980 C   0  0  0  0  0  0  0  0  0  0  0  0
  134.5300   68.9400  225.3270 Cl  0  0  0  0  0  0  0  0  0  0  0  0
  136.2020   70.7890  224.2240 C   0  0  0  0  0  0  0  0  0  0  0  0
  136.8468   69.9282  223.9933 H   0  0  0  0  0  0  0  0  0  0  0  0
  139.6240   76.6020  222.4710 C   0  0  0  0  0  0  0  0  0  0  0  0
  140.9970   76.8980  222.4200 C   0  0  0  0  0  0  0  0  0  0  0  0
  141.7264   76.0916  222.2539 H   0  0  0  0  0  0  0  0  0  0  0  0
  141.4380   78.2160  222.5800 C   0  0  0  0  0  0  0  0  0  0  0  0
  142.5124   78.4458  222.5262 H   0  0  0  0  0  0  0  0  0  0  0  0
  140.5160   79.2410  222.8080 C   0  0  0  0  0  0  0  0  0  0  0  0
  140.8639   80.2776  222.9284 H   0  0  0  0  0  0  0  0  0  0  0  0
  139.1510   78.9480  222.8830 C   0  0  0  0  0  0  0  0  0  0  0  0
  138.4255   79.7540  223.0673 H   0  0  0  0  0  0  0  0  0  0  0  0
  138.7070   77.6320  222.7240 C   0  0  0  0  0  0  0  0  0  0  0  0
  137.6335   77.4036  222.7977 H   0  0  0  0  0  0  0  0  0  0  0  0
  1  2  1  0
  2  3  1  0
  3  4  2  0
  4  5  1  0
  5  6  1  0
  5  7  1  0
  5  8  1  0
  8  9  1  1
  8 10  1  0
 10 11  1  0
 10 12  1  0
 10 13  1  0
  8 14  1  0
 14 15  1  6
 14 16  1  0
 16 17  2  0
 17 18  1  0
 17 19  1  0
 19 20  1  0
 19 21  2  0
 21 22  1  0
 21 23  1  0
 23 24  1  0
 23 25  2  0
 25 26  1  0
 14 27  1  0
 27 28  1  0
 27 29  1  0
 29 30  2  0
 30 31  1  0
 30 32  1  0
 32 33  1  0
 32 34  2  0
 34 35  1  0
 35 36  3  0
 34 37  1  0
 37 38  1  0
 37 39  2  0
 39 40  1  0
  3 41  1  0
 41 42  2  0
 42 43  1  0
 42 44  1  0
 44 45  1  0
 44 46  2  0
 46 47  1  0
 46 48  1  0
 48 49  1  0
 48 50  2  0
 50 51  1  0
 25 16  1  0
 39 29  1  0
 50 41  1  0
M  END
>  <UniqueID>  (18) 
28

>  <SMILES>  (18) 
C[C@@H](C/N=C(/O)c1ccccc1)[C@H](Nc1ccc(C#N)c(Cl)c1)c1ccc(Cl)c(Cl)c1

>  <Energy>  (18) 
65.59900975368825

>  <Genealogy>  (18) 
CC(CN=C(O)c1ccccc1)C(Nc1ccc(C#N)c(Cl)c1)c1ccc(Cl)c(Cl)c1 (tautomer)
C[C@@H](CN=C(O)c1ccccc1)[C@H](Nc1ccc(C#N)c(Cl)c1)c1ccc(Cl)c(Cl)c1 (chirality)
C[C@@H](C/N=C(/O)c1ccccc1)[C@H](Nc1ccc(C#N)c(Cl)c1)c1ccc(Cl)c(Cl)c1 (cis-trans isomerization)
C[C@@H](C/N=C(/O)c1ccccc1)[C@H](Nc1ccc(C#N)c(Cl)c1)c1ccc(Cl)c(Cl)c1 (3D coordinates assigned)
C[C@@H](C/N=C(/O)c1ccccc1)[C@H](Nc1ccc(C#N)c(Cl)c1)c1ccc(Cl)c(Cl)c1 (optimized conformer: 65.59900975368825 kcal/mol)

>  <smiles>  (18) 
CC(CNC(=O)c1ccccc1)C(Nc1ccc(C#N)c(Cl)c1)c1ccc(Cl)c(Cl)c1

>  <score_type>  (18) 
oracle

>  <origin>  (18) 
autodockgpu

>  <m_score__min__energy>  (18) 
-8.6699999999999999

>  <m_primary>  (18) 
energy

>  <meeko>  (18) 
{"free_energy": -8.17, "intermolecular_energy": -11.15, "internal_energy": -2.64, "cluster_size": 9, "cluster_id": 1, "rank_in_cluster": 2}

>  <energy>  (18) 
-7.43

>  <cluster_rmsd>  (18) 
0.0

>  <rmsd>  (18) 
271.26

>  <cluster>  (18) 
6

$$$$
CBUCDBLHFQUVQW-OAXGSVGCNA-N
     RDKit          3D

 51 53  0  0  0  0  0  0  0  0999 V2000
  138.9060   73.7770  223.0750 H   0  0  0  0  0  0  0  0  0  0  0  0
  139.7740   73.5400  222.6080 O   0  0  0  0  0  0  0  0  0  0  0  0
  139.8440   73.4510  221.2210 C   0  0  0  0  0  0  0  0  0  0  0  0
  139.1480   74.2800  220.4990 N   0  0  0  0  0  0  0  0  0  0  0  0
  139.5490   75.6350  220.1150 C   0  0  0  0  0  0  0  0  0  0  0  0
  138.7940   76.3474  220.4791 H   0  0  0  0  0  0  0  0  0  0  0  0
  139.6281   75.6726  219.0185 H   0  0  0  0  0  0  0  0  0  0  0  0
  140.9260   76.0130  220.7130 C   0  0  2  0  0  0  0  0  0  0  0  0
  141.5348   75.1045  220.5948 H   0  0  0  0  0  0  0  0  0  0  0  0
  140.8040   76.3640  222.2070 C   0  0  0  0  0  0  0  0  0  0  0  0
  141.1054   75.4969  222.8131 H   0  0  0  0  0  0  0  0  0  0  0  0
  141.4581   77.2178  222.4377 H   0  0  0  0  0  0  0  0  0  0  0  0
  139.7614   76.6281  222.4377 H   0  0  0  0  0  0  0  0  0  0  0  0
  141.7180   77.1200  219.9390 C   0  0  1  0  0  0  0  0  0  0  0  0
  141.2090   77.1293  218.9639 H   0  0  0  0  0  0  0  0  0  0  0  0
  141.5490   78.5680  220.3920 C   0  0  0  0  0  0  0  0  0  0  0  0
  140.8530   79.4580  219.5520 C   0  0  0  0  0  0  0  0  0  0  0  0
  140.4654   79.1015  218.5863 H   0  0  0  0  0  0  0  0  0  0  0  0
  140.6480   80.7870  219.9280 C   0  0  0  0  0  0  0  0  0  0  0  0
  140.1191   81.4725  219.2494 H   0  0  0  0  0  0  0  0  0  0  0  0
  141.1110   81.2500  221.1610 C   0  0  0  0  0  0  0  0  0  0  0  0
  140.8380   82.9310  221.5980 Cl  0  0  0  0  0  0  0  0  0  0  0  0
  141.7720   80.3700  222.0310 C   0  0  0  0  0  0  0  0  0  0  0  0
  142.3530   80.9080  223.6010 Cl  0  0  0  0  0  0  0  0  0  0  0  0
  141.9760   79.0360  221.6540 C   0  0  0  0  0  0  0  0  0  0  0  0
  142.4748   78.3450  222.3495 H   0  0  0  0  0  0  0  0  0  0  0  0
  143.1350   76.7540  219.7410 N   0  0  0  0  0  0  0  0  0  0  0  0
  143.7990   77.5600  219.6850 H   0  0  0  0  0  0  0  0  0  0  0  0
  143.6940   75.4410  219.5130 C   0  0  0  0  0  0  0  0  0  0  0  0
  143.3890   74.6630  218.3780 C   0  0  0  0  0  0  0  0  0  0  0  0
  142.6813   75.0460  217.6281 H   0  0  0  0  0  0  0  0  0  0  0  0
  143.9780   73.4100  218.1980 C   0  0  0  0  0  0  0  0  0  0  0  0
  143.7339   72.8150  217.3056 H   0  0  0  0  0  0  0  0  0  0  0  0
  144.8760   72.9060  219.1440 C   0  0  0  0  0  0  0  0  0  0  0  0
  145.4820   71.6160  218.9250 C   0  0  0  0  0  0  0  0  0  0  0  0
  145.9690   70.5810  218.7490 N   0  0  0  0  0  0  0  0  0  0  0  0
  145.1750   73.6620  220.2900 C   0  0  0  0  0  0  0  0  0  0  0  0
  146.2990   73.0740  221.5090 Cl  0  0  0  0  0  0  0  0  0  0  0  0
  144.5800   74.9160  220.4690 C   0  0  0  0  0  0  0  0  0  0  0  0
  144.8096   75.5000  221.3725 H   0  0  0  0  0  0  0  0  0  0  0  0
  140.7320   72.4320  220.6290 C   0  0  0  0  0  0  0  0  0  0  0  0
  140.3500   71.7200  219.4790 C   0  0  0  0  0  0  0  0  0  0  0  0
  139.3850   71.9341  218.9963 H   0  0  0  0  0  0  0  0  0  0  0  0
  141.1940   70.7400  218.9470 C   0  0  0  0  0  0  0  0  0  0  0  0
  140.8978   70.1947  218.0387 H   0  0  0  0  0  0  0  0  0  0  0  0
  142.4130   70.4520  219.5670 C   0  0  0  0  0  0  0  0  0  0  0  0
  143.0783   69.6850  219.1438 H   0  0  0  0  0  0  0  0  0  0  0  0
  142.7860   71.1400  220.7260 C   0  0  0  0  0  0  0  0  0  0  0  0
  143.7428   70.9096  221.2174 H   0  0  0  0  0  0  0  0  0  0  0  0
  141.9450   72.1200  221.2610 C   0  0  0  0  0  0  0  0  0  0  0  0
  142.2354   72.6485  222.1810 H   0  0  0  0  0  0  0  0  0  0  0  0
  1  2  1  0
  2  3  1  0
  3  4  2  0
  4  5  1  0
  5  6  1  0
  5  7  1  0
  5  8  1  0
  8  9  1  1
  8 10  1  0
 10 11  1  0
 10 12  1  0
 10 13  1  0
  8 14  1  0
 14 15  1  6
 14 16  1  0
 16 17  2  0
 17 18  1  0
 17 19  1  0
 19 20  1  0
 19 21  2  0
 21 22  1  0
 21 23  1  0
 23 24  1  0
 23 25  2  0
 25 26  1  0
 14 27  1  0
 27 28  1  0
 27 29  1  0
 29 30  2  0
 30 31  1  0
 30 32  1  0
 32 33  1  0
 32 34  2  0
 34 35  1  0
 35 36  3  0
 34 37  1  0
 37 38  1  0
 37 39  2  0
 39 40  1  0
  3 41  1  0
 41 42  2  0
 42 43  1  0
 42 44  1  0
 44 45  1  0
 44 46  2  0
 46 47  1  0
 46 48  1  0
 48 49  1  0
 48 50  2  0
 50 51  1  0
 25 16  1  0
 39 29  1  0
 50 41  1  0
M  END
>  <UniqueID>  (19) 
28

>  <SMILES>  (19) 
C[C@@H](C/N=C(/O)c1ccccc1)[C@H](Nc1ccc(C#N)c(Cl)c1)c1ccc(Cl)c(Cl)c1

>  <Energy>  (19) 
65.59900975368825

>  <Genealogy>  (19) 
CC(CN=C(O)c1ccccc1)C(Nc1ccc(C#N)c(Cl)c1)c1ccc(Cl)c(Cl)c1 (tautomer)
C[C@@H](CN=C(O)c1ccccc1)[C@H](Nc1ccc(C#N)c(Cl)c1)c1ccc(Cl)c(Cl)c1 (chirality)
C[C@@H](C/N=C(/O)c1ccccc1)[C@H](Nc1ccc(C#N)c(Cl)c1)c1ccc(Cl)c(Cl)c1 (cis-trans isomerization)
C[C@@H](C/N=C(/O)c1ccccc1)[C@H](Nc1ccc(C#N)c(Cl)c1)c1ccc(Cl)c(Cl)c1 (3D coordinates assigned)
C[C@@H](C/N=C(/O)c1ccccc1)[C@H](Nc1ccc(C#N)c(Cl)c1)c1ccc(Cl)c(Cl)c1 (optimized conformer: 65.59900975368825 kcal/mol)

>  <smiles>  (19) 
CC(CNC(=O)c1ccccc1)C(Nc1ccc(C#N)c(Cl)c1)c1ccc(Cl)c(Cl)c1

>  <score_type>  (19) 
oracle

>  <origin>  (19) 
autodockgpu

>  <m_score__min__energy>  (19) 
-8.6699999999999999

>  <m_primary>  (19) 
energy

>  <meeko>  (19) 
{"free_energy": -6.95, "intermolecular_energy": -9.93, "internal_energy": -2.2, "cluster_size": 1, "cluster_id": 8, "rank_in_cluster": 1}

>  <energy>  (19) 
-7.41

>  <cluster_rmsd>  (19) 
0.0

>  <rmsd>  (19) 
271.74

>  <cluster>  (19) 
7

$$$$
CBUCDBLHFQUVQW-OAXGSVGCNA-N
     RDKit          3D

 51 53  0  0  0  0  0  0  0  0999 V2000
  139.1690   73.9100  222.7670 H   0  0  0  0  0  0  0  0  0  0  0  0
  140.0600   74.0980  222.3210 O   0  0  0  0  0  0  0  0  0  0  0  0
  140.6980   73.1290  221.5520 C   0  0  0  0  0  0  0  0  0  0  0  0
  140.1010   71.9900  221.3480 N   0  0  0  0  0  0  0  0  0  0  0  0
  138.9030   71.7790  220.5340 C   0  0  0  0  0  0  0  0  0  0  0  0
  139.1887   71.2638  219.6050 H   0  0  0  0  0  0  0  0  0  0  0  0
  138.4568   72.7608  220.3173 H   0  0  0  0  0  0  0  0  0  0  0  0
  137.8510   70.9230  221.2800 C   0  0  2  0  0  0  0  0  0  0  0  0
  138.3399   69.9471  221.4163 H   0  0  0  0  0  0  0  0  0  0  0  0
  136.5760   70.7500  220.4350 C   0  0  0  0  0  0  0  0  0  0  0  0
  135.7082   70.6322  221.1006 H   0  0  0  0  0  0  0  0  0  0  0  0
  136.4336   71.6371  219.8003 H   0  0  0  0  0  0  0  0  0  0  0  0
  136.6751   69.8571  219.8003 H   0  0  0  0  0  0  0  0  0  0  0  0
  137.5020   71.3940  222.7330 C   0  0  1  0  0  0  0  0  0  0  0  0
  137.0077   72.3598  222.5514 H   0  0  0  0  0  0  0  0  0  0  0  0
  136.4200   70.6280  223.4910 C   0  0  0  0  0  0  0  0  0  0  0  0
  136.1640   69.2920  223.1280 C   0  0  0  0  0  0  0  0  0  0  0  0
  136.7288   68.8365  222.3013 H   0  0  0  0  0  0  0  0  0  0  0  0
  135.2020   68.5370  223.8040 C   0  0  0  0  0  0  0  0  0  0  0  0
  135.0026   67.5003  223.4948 H   0  0  0  0  0  0  0  0  0  0  0  0
  134.4930   69.0930  224.8700 C   0  0  0  0  0  0  0  0  0  0  0  0
  133.2860   68.1130  225.6930 Cl  0  0  0  0  0  0  0  0  0  0  0  0
  134.7600   70.4100  225.2740 C   0  0  0  0  0  0  0  0  0  0  0  0
  133.9040   71.1380  226.6260 Cl  0  0  0  0  0  0  0  0  0  0  0  0
  135.7270   71.1650  224.5980 C   0  0  0  0  0  0  0  0  0  0  0  0
  135.9493   72.1887  224.9336 H   0  0  0  0  0  0  0  0  0  0  0  0
  138.7110   71.6170  223.5500 N   0  0  0  0  0  0  0  0  0  0  0  0
  139.3060   72.4240  223.2560 H   0  0  0  0  0  0  0  0  0  0  0  0
  139.2210   70.8000  224.6300 C   0  0  0  0  0  0  0  0  0  0  0  0
  139.1440   69.3930  224.6300 C   0  0  0  0  0  0  0  0  0  0  0  0
  138.6622   68.8726  223.7891 H   0  0  0  0  0  0  0  0  0  0  0  0
  139.6750   68.6540  225.6900 C   0  0  0  0  0  0  0  0  0  0  0  0
  139.6113   67.5559  225.6765 H   0  0  0  0  0  0  0  0  0  0  0  0
  140.2870   69.3010  226.7680 C   0  0  0  0  0  0  0  0  0  0  0  0
  140.8420   68.5130  227.8400 C   0  0  0  0  0  0  0  0  0  0  0  0
  141.2870   67.8800  228.7010 N   0  0  0  0  0  0  0  0  0  0  0  0
  140.3550   70.7030  226.7890 C   0  0  0  0  0  0  0  0  0  0  0  0
  141.1170   71.5650  228.1210 Cl  0  0  0  0  0  0  0  0  0  0  0  0
  139.8180   71.4410  225.7280 C   0  0  0  0  0  0  0  0  0  0  0  0
  139.8642   72.5397  225.7544 H   0  0  0  0  0  0  0  0  0  0  0  0
  142.0170   73.4510  220.9750 C   0  0  0  0  0  0  0  0  0  0  0  0
  143.0140   72.4660  220.8550 C   0  0  0  0  0  0  0  0  0  0  0  0
  142.8077   71.4339  221.1746 H   0  0  0  0  0  0  0  0  0  0  0  0
  144.2670   72.7970  220.3300 C   0  0  0  0  0  0  0  0  0  0  0  0
  145.0398   72.0213  220.2248 H   0  0  0  0  0  0  0  0  0  0  0  0
  144.5400   74.1090  219.9390 C   0  0  0  0  0  0  0  0  0  0  0  0
  145.5247   74.3649  219.5209 H   0  0  0  0  0  0  0  0  0  0  0  0
  143.5610   75.0980  220.0790 C   0  0  0  0  0  0  0  0  0  0  0  0
  143.7779   76.1329  219.7758 H   0  0  0  0  0  0  0  0  0  0  0  0
  142.3070   74.7720  220.6040 C   0  0  0  0  0  0  0  0  0  0  0  0
  141.5444   75.5552  220.7267 H   0  0  0  0  0  0  0  0  0  0  0  0
  1  2  1  0
  2  3  1  0
  3  4  2  0
  4  5  1  0
  5  6  1  0
  5  7  1  0
  5  8  1  0
  8  9  1  1
  8 10  1  0
 10 11  1  0
 10 12  1  0
 10 13  1  0
  8 14  1  0
 14 15  1  6
 14 16  1  0
 16 17  2  0
 17 18  1  0
 17 19  1  0
 19 20  1  0
 19 21  2  0
 21 22  1  0
 21 23  1  0
 23 24  1  0
 23 25  2  0
 25 26  1  0
 14 27  1  0
 27 28  1  0
 27 29  1  0
 29 30  2  0
 30 31  1  0
 30 32  1  0
 32 33  1  0
 32 34  2  0
 34 35  1  0
 35 36  3  0
 34 37  1  0
 37 38  1  0
 37 39  2  0
 39 40  1  0
  3 41  1  0
 41 42  2  0
 42 43  1  0
 42 44  1  0
 44 45  1  0
 44 46  2  0
 46 47  1  0
 46 48  1  0
 48 49  1  0
 48 50  2  0
 50 51  1  0
 25 16  1  0
 39 29  1  0
 50 41  1  0
M  END
>  <UniqueID>  (20) 
28

>  <SMILES>  (20) 
C[C@@H](C/N=C(/O)c1ccccc1)[C@H](Nc1ccc(C#N)c(Cl)c1)c1ccc(Cl)c(Cl)c1

>  <Energy>  (20) 
65.59900975368825

>  <Genealogy>  (20) 
CC(CN=C(O)c1ccccc1)C(Nc1ccc(C#N)c(Cl)c1)c1ccc(Cl)c(Cl)c1 (tautomer)
C[C@@H](CN=C(O)c1ccccc1)[C@H](Nc1ccc(C#N)c(Cl)c1)c1ccc(Cl)c(Cl)c1 (chirality)
C[C@@H](C/N=C(/O)c1ccccc1)[C@H](Nc1ccc(C#N)c(Cl)c1)c1ccc(Cl)c(Cl)c1 (cis-trans isomerization)
C[C@@H](C/N=C(/O)c1ccccc1)[C@H](Nc1ccc(C#N)c(Cl)c1)c1ccc(Cl)c(Cl)c1 (3D coordinates assigned)
C[C@@H](C/N=C(/O)c1ccccc1)[C@H](Nc1ccc(C#N)c(Cl)c1)c1ccc(Cl)c(Cl)c1 (optimized conformer: 65.59900975368825 kcal/mol)

>  <smiles>  (20) 
CC(CNC(=O)c1ccccc1)C(Nc1ccc(C#N)c(Cl)c1)c1ccc(Cl)c(Cl)c1

>  <score_type>  (20) 
oracle

>  <origin>  (20) 
autodockgpu

>  <m_score__min__energy>  (20) 
-8.6699999999999999

>  <m_primary>  (20) 
energy

>  <meeko>  (20) 
{"free_energy": -7.43, "intermolecular_energy": -10.42, "internal_energy": -2.52, "cluster_size": 1, "cluster_id": 6, "rank_in_cluster": 1}

>  <energy>  (20) 
-6.95

>  <cluster_rmsd>  (20) 
0.0

>  <rmsd>  (20) 
271.41

>  <cluster>  (20) 
8

$$$$
CBUCDBLHFQUVQW-JFARMPSENA-N
     RDKit          3D

 51 53  0  0  0  0  0  0  0  0999 V2000
  138.2720   76.0330  222.7310 C   0  0  0  0  0  0  0  0  0  0  0  0
  138.5360   75.7570  221.2400 C   0  0  2  0  0  0  0  0  0  0  0  0
  138.8430   74.2600  220.9850 C   0  0  0  0  0  0  0  0  0  0  0  0
  138.7880   73.4790  222.2220 N   0  0  0  0  0  0  0  0  0  0  0  0
  139.9320   72.7600  222.7100 C   0  0  0  0  0  0  0  0  0  0  0  0
  141.0760   73.0480  222.2600 O   0  0  0  0  0  0  0  0  0  0  0  0
  139.7970   71.6560  223.6990 C   0  0  0  0  0  0  0  0  0  0  0  0
  138.7390   70.7330  223.5790 C   0  0  0  0  0  0  0  0  0  0  0  0
  138.5610   69.7250  224.5310 C   0  0  0  0  0  0  0  0  0  0  0  0
  139.4330   69.6240  225.6150 C   0  0  0  0  0  0  0  0  0  0  0  0
  140.4860   70.5300  225.7500 C   0  0  0  0  0  0  0  0  0  0  0  0
  140.6700   71.5400  224.8010 C   0  0  0  0  0  0  0  0  0  0  0  0
  139.5250   76.7910  220.6020 C   0  0  2  0  0  0  0  0  0  0  0  0
  140.3260   76.1720  219.5320 N   0  0  0  0  0  0  0  0  0  0  0  0
  141.5630   75.4420  219.6680 C   0  0  0  0  0  0  0  0  0  0  0  0
  142.7670   76.1590  219.7470 C   0  0  0  0  0  0  0  0  0  0  0  0
  143.9930   75.4920  219.7960 C   0  0  0  0  0  0  0  0  0  0  0  0
  144.0360   74.0950  219.7590 C   0  0  0  0  0  0  0  0  0  0  0  0
  145.3140   73.4270  219.7810 C   0  0  0  0  0  0  0  0  0  0  0  0
  146.3390   72.8900  219.8010 N   0  0  0  0  0  0  0  0  0  0  0  0
  142.8390   73.3640  219.6840 C   0  0  0  0  0  0  0  0  0  0  0  0
  142.8400   71.6050  219.6020 Cl  0  0  0  0  0  0  0  0  0  0  0  0
  141.6120   74.0370  219.6410 C   0  0  0  0  0  0  0  0  0  0  0  0
  140.3540   77.7310  221.4830 C   0  0  0  0  0  0  0  0  0  0  0  0
  141.0090   77.3450  222.6700 C   0  0  0  0  0  0  0  0  0  0  0  0
  141.7720   78.2650  223.3960 C   0  0  0  0  0  0  0  0  0  0  0  0
  141.8980   79.5850  222.9570 C   0  0  0  0  0  0  0  0  0  0  0  0
  142.8730   80.7070  223.8960 Cl  0  0  0  0  0  0  0  0  0  0  0  0
  141.2540   79.9880  221.7790 C   0  0  0  0  0  0  0  0  0  0  0  0
  141.3900   81.6360  221.1840 Cl  0  0  0  0  0  0  0  0  0  0  0  0
  140.4890   79.0670  221.0550 C   0  0  0  0  0  0  0  0  0  0  0  0
  138.9036   75.3727  223.3435 H   0  0  0  0  0  0  0  0  0  0  0  0
  138.5109   77.0826  222.9575 H   0  0  0  0  0  0  0  0  0  0  0  0
  137.2129   75.8409  222.9575 H   0  0  0  0  0  0  0  0  0  0  0  0
  137.6067   75.9363  220.6794 H   0  0  0  0  0  0  0  0  0  0  0  0
  138.1025   73.8595  220.2770 H   0  0  0  0  0  0  0  0  0  0  0  0
  139.8609   74.1831  220.5752 H   0  0  0  0  0  0  0  0  0  0  0  0
  137.9690   73.6180  222.8540 H   0  0  0  0  0  0  0  0  0  0  0  0
  138.0463   70.8064  222.7277 H   0  0  0  0  0  0  0  0  0  0  0  0
  137.7317   69.0101  224.4251 H   0  0  0  0  0  0  0  0  0  0  0  0
  139.2908   68.8304  226.3633 H   0  0  0  0  0  0  0  0  0  0  0  0
  141.1729   70.4492  226.6053 H   0  0  0  0  0  0  0  0  0  0  0  0
  141.5024   72.2501  224.9146 H   0  0  0  0  0  0  0  0  0  0  0  0
  138.8114   77.5251  220.1995 H   0  0  0  0  0  0  0  0  0  0  0  0
  139.9850   76.3440  218.5570 H   0  0  0  0  0  0  0  0  0  0  0  0
  142.7447   77.2585  219.7706 H   0  0  0  0  0  0  0  0  0  0  0  0
  144.9279   76.0676  219.8639 H   0  0  0  0  0  0  0  0  0  0  0  0
  140.6767   73.4607  219.5855 H   0  0  0  0  0  0  0  0  0  0  0  0
  140.9190   76.3091  223.0290 H   0  0  0  0  0  0  0  0  0  0  0  0
  142.2769   77.9466  224.3200 H   0  0  0  0  0  0  0  0  0  0  0  0
  139.9831   79.3920  220.1339 H   0  0  0  0  0  0  0  0  0  0  0  0
  1  2  1  0
  2  3  1  0
  3  4  1  0
  4  5  1  0
  5  6  2  0
  5  7  1  0
  7  8  2  0
  8  9  1  0
  9 10  2  0
 10 11  1  0
 11 12  2  0
  2 13  1  0
 13 14  1  0
 14 15  1  0
 15 16  2  0
 16 17  1  0
 17 18  2  0
 18 19  1  0
 19 20  3  0
 18 21  1  0
 21 22  1  0
 21 23  2  0
 13 24  1  0
 24 25  2  0
 25 26  1  0
 26 27  2  0
 27 28  1  0
 27 29  1  0
 29 30  1  0
 29 31  2  0
 12  7  1  0
 23 15  1  0
 31 24  1  0
  1 32  1  0
  1 33  1  0
  1 34  1  0
  2 35  1  6
  3 36  1  0
  3 37  1  0
  4 38  1  0
  8 39  1  0
  9 40  1  0
 10 41  1  0
 11 42  1  0
 12 43  1  0
 13 44  1  6
 14 45  1  0
 16 46  1  0
 17 47  1  0
 23 48  1  0
 25 49  1  0
 26 50  1  0
 31 51  1  0
M  END
>  <UniqueID>  (21) 
29

>  <SMILES>  (21) 
C[C@H](CNC(=O)c1ccccc1)[C@H](Nc1ccc(C#N)c(Cl)c1)c1ccc(Cl)c(Cl)c1

>  <Energy>  (21) 
63.1851930228045

>  <Genealogy>  (21) 
C[C@H](CNC(=O)c1ccccc1)[C@H](Nc1ccc(C#N)c(Cl)c1)c1ccc(Cl)c(Cl)c1 (chirality)
C[C@H](CNC(=O)c1ccccc1)[C@H](Nc1ccc(C#N)c(Cl)c1)c1ccc(Cl)c(Cl)c1 (3D coordinates assigned)
C[C@H](CNC(=O)c1ccccc1)[C@H](Nc1ccc(C#N)c(Cl)c1)c1ccc(Cl)c(Cl)c1 (optimized conformer: 63.1851930228045 kcal/mol)

>  <smiles>  (21) 
CC(CNC(=O)c1ccccc1)C(Nc1ccc(C#N)c(Cl)c1)c1ccc(Cl)c(Cl)c1

>  <score_type>  (21) 
oracle

>  <origin>  (21) 
autodockgpu

>  <m_score__min__energy>  (21) 
-9.3100000000000005

>  <m_primary>  (21) 
energy

>  <meeko>  (21) 
{"free_energy": -8.49, "intermolecular_energy": -10.87, "internal_energy": -1.81, "cluster_size": 2, "cluster_id": 3, "rank_in_cluster": 1}

>  <energy>  (21) 
-9.31

>  <cluster_rmsd>  (21) 
0.0

>  <rmsd>  (21) 
272.65

>  <cluster>  (21) 
1

$$$$
CBUCDBLHFQUVQW-JFARMPSENA-N
     RDKit          3D

 51 53  0  0  0  0  0  0  0  0999 V2000
  139.5750   74.7930  218.8110 C   0  0  0  0  0  0  0  0  0  0  0  0
  139.0560   74.3040  220.1750 C   0  0  2  0  0  0  0  0  0  0  0  0
  138.5190   75.4760  221.0340 C   0  0  0  0  0  0  0  0  0  0  0  0
  139.4340   76.6200  221.0170 N   0  0  0  0  0  0  0  0  0  0  0  0
  140.4560   76.7800  222.0140 C   0  0  0  0  0  0  0  0  0  0  0  0
  140.7870   75.7870  222.7200 O   0  0  0  0  0  0  0  0  0  0  0  0
  141.1030   78.0970  222.2640 C   0  0  0  0  0  0  0  0  0  0  0  0
  141.4500   78.4700  223.5790 C   0  0  0  0  0  0  0  0  0  0  0  0
  142.0040   79.7260  223.8400 C   0  0  0  0  0  0  0  0  0  0  0  0
  142.2190   80.6270  222.7970 C   0  0  0  0  0  0  0  0  0  0  0  0
  141.8820   80.2740  221.4900 C   0  0  0  0  0  0  0  0  0  0  0  0
  141.3280   79.0190  221.2210 C   0  0  0  0  0  0  0  0  0  0  0  0
  140.0510   73.3210  220.8800 C   0  0  2  0  0  0  0  0  0  0  0  0
  139.7390   73.1840  222.3130 N   0  0  0  0  0  0  0  0  0  0  0  0
  139.7160   71.9730  223.0980 C   0  0  0  0  0  0  0  0  0  0  0  0
  139.0040   70.8650  222.6110 C   0  0  0  0  0  0  0  0  0  0  0  0
  138.8860   69.7020  223.3740 C   0  0  0  0  0  0  0  0  0  0  0  0
  139.4720   69.6290  224.6420 C   0  0  0  0  0  0  0  0  0  0  0  0
  139.3140   68.4290  225.4250 C   0  0  0  0  0  0  0  0  0  0  0  0
  139.1880   67.4660  226.0550 N   0  0  0  0  0  0  0  0  0  0  0  0
  140.1910   70.7290  225.1400 C   0  0  0  0  0  0  0  0  0  0  0  0
  140.9200   70.7000  226.7420 Cl  0  0  0  0  0  0  0  0  0  0  0  0
  140.3110   71.8910  224.3690 C   0  0  0  0  0  0  0  0  0  0  0  0
  141.5570   73.4040  220.6150 C   0  0  0  0  0  0  0  0  0  0  0  0
  142.3200   74.5870  220.6960 C   0  0  0  0  0  0  0  0  0  0  0  0
  143.6990   74.5640  220.4680 C   0  0  0  0  0  0  0  0  0  0  0  0
  144.3460   73.3670  220.1550 C   0  0  0  0  0  0  0  0  0  0  0  0
  146.0830   73.3820  219.8820 Cl  0  0  0  0  0  0  0  0  0  0  0  0
  143.6050   72.1800  220.0690 C   0  0  0  0  0  0  0  0  0  0  0  0
  144.3780   70.6490  219.6860 Cl  0  0  0  0  0  0  0  0  0  0  0  0
  142.2250   72.2040  220.2950 C   0  0  0  0  0  0  0  0  0  0  0  0
  140.3676   75.5398  218.9665 H   0  0  0  0  0  0  0  0  0  0  0  0
  139.9801   73.9407  218.2458 H   0  0  0  0  0  0  0  0  0  0  0  0
  138.7483   75.2481  218.2458 H   0  0  0  0  0  0  0  0  0  0  0  0
  138.1711   73.6724  220.0076 H   0  0  0  0  0  0  0  0  0  0  0  0
  137.5437   75.7929  220.6359 H   0  0  0  0  0  0  0  0  0  0  0  0
  138.4243   75.1264  222.0726 H   0  0  0  0  0  0  0  0  0  0  0  0
  139.4680   77.2090  220.1560 H   0  0  0  0  0  0  0  0  0  0  0  0
  141.2830   77.7655  224.4071 H   0  0  0  0  0  0  0  0  0  0  0  0
  142.2711   80.0048  224.8700 H   0  0  0  0  0  0  0  0  0  0  0  0
  142.6541   81.6156  223.0050 H   0  0  0  0  0  0  0  0  0  0  0  0
  142.0528   80.9854  220.6686 H   0  0  0  0  0  0  0  0  0  0  0  0
  141.0655   78.7486  220.1876 H   0  0  0  0  0  0  0  0  0  0  0  0
  139.8362   72.3935  220.3291 H   0  0  0  0  0  0  0  0  0  0  0  0
  139.4360   74.0630  222.7950 H   0  0  0  0  0  0  0  0  0  0  0  0
  138.5342   70.9140  221.6176 H   0  0  0  0  0  0  0  0  0  0  0  0
  138.3302   68.8399  222.9767 H   0  0  0  0  0  0  0  0  0  0  0  0
  140.8767   72.7488  224.7616 H   0  0  0  0  0  0  0  0  0  0  0  0
  141.8248   75.5381  220.9412 H   0  0  0  0  0  0  0  0  0  0  0  0
  144.2789   75.4963  220.5357 H   0  0  0  0  0  0  0  0  0  0  0  0
  141.6499   71.2692  220.2217 H   0  0  0  0  0  0  0  0  0  0  0  0
  1  2  1  0
  2  3  1  0
  3  4  1  0
  4  5  1  0
  5  6  2  0
  5  7  1  0
  7  8  2  0
  8  9  1  0
  9 10  2  0
 10 11  1  0
 11 12  2  0
  2 13  1  0
 13 14  1  0
 14 15  1  0
 15 16  2  0
 16 17  1  0
 17 18  2  0
 18 19  1  0
 19 20  3  0
 18 21  1  0
 21 22  1  0
 21 23  2  0
 13 24  1  0
 24 25  2  0
 25 26  1  0
 26 27  2  0
 27 28  1  0
 27 29  1  0
 29 30  1  0
 29 31  2  0
 12  7  1  0
 23 15  1  0
 31 24  1  0
  1 32  1  0
  1 33  1  0
  1 34  1  0
  2 35  1  6
  3 36  1  0
  3 37  1  0
  4 38  1  0
  8 39  1  0
  9 40  1  0
 10 41  1  0
 11 42  1  0
 12 43  1  0
 13 44  1  6
 14 45  1  0
 16 46  1  0
 17 47  1  0
 23 48  1  0
 25 49  1  0
 26 50  1  0
 31 51  1  0
M  END
>  <UniqueID>  (22) 
29

>  <SMILES>  (22) 
C[C@H](CNC(=O)c1ccccc1)[C@H](Nc1ccc(C#N)c(Cl)c1)c1ccc(Cl)c(Cl)c1

>  <Energy>  (22) 
63.1851930228045

>  <Genealogy>  (22) 
C[C@H](CNC(=O)c1ccccc1)[C@H](Nc1ccc(C#N)c(Cl)c1)c1ccc(Cl)c(Cl)c1 (chirality)
C[C@H](CNC(=O)c1ccccc1)[C@H](Nc1ccc(C#N)c(Cl)c1)c1ccc(Cl)c(Cl)c1 (3D coordinates assigned)
C[C@H](CNC(=O)c1ccccc1)[C@H](Nc1ccc(C#N)c(Cl)c1)c1ccc(Cl)c(Cl)c1 (optimized conformer: 63.1851930228045 kcal/mol)

>  <smiles>  (22) 
CC(CNC(=O)c1ccccc1)C(Nc1ccc(C#N)c(Cl)c1)c1ccc(Cl)c(Cl)c1

>  <score_type>  (22) 
oracle

>  <origin>  (22) 
autodockgpu

>  <m_score__min__energy>  (22) 
-9.3100000000000005

>  <m_primary>  (22) 
energy

>  <meeko>  (22) 
{"free_energy": -8.67, "intermolecular_energy": -11.05, "internal_energy": -2.29, "cluster_size": 9, "cluster_id": 1, "rank_in_cluster": 2}

>  <energy>  (22) 
-8.67

>  <cluster_rmsd>  (22) 
1.22

>  <rmsd>  (22) 
272.39

>  <cluster>  (22) 
1

$$$$
CBUCDBLHFQUVQW-JFARMPSENA-N
     RDKit          3D

 51 53  0  0  0  0  0  0  0  0999 V2000
  139.4110   75.7560  218.7960 C   0  0  0  0  0  0  0  0  0  0  0  0
  140.7170   75.7920  219.6080 C   0  0  2  0  0  0  0  0  0  0  0  0
  140.4530   75.5950  221.1220 C   0  0  0  0  0  0  0  0  0  0  0  0
  141.1250   76.6200  221.9240 N   0  0  0  0  0  0  0  0  0  0  0  0
  140.3840   77.6380  222.6170 C   0  0  0  0  0  0  0  0  0  0  0  0
  139.1460   77.4760  222.8070 O   0  0  0  0  0  0  0  0  0  0  0  0
  141.0310   78.8970  223.0770 C   0  0  0  0  0  0  0  0  0  0  0  0
  140.2350   79.9930  223.4680 C   0  0  0  0  0  0  0  0  0  0  0  0
  140.8240   81.2030  223.8460 C   0  0  0  0  0  0  0  0  0  0  0  0
  142.2120   81.3380  223.8390 C   0  0  0  0  0  0  0  0  0  0  0  0
  143.0150   80.2640  223.4550 C   0  0  0  0  0  0  0  0  0  0  0  0
  142.4330   79.0500  223.0760 C   0  0  0  0  0  0  0  0  0  0  0  0
  141.6390   76.9940  219.2110 C   0  0  2  0  0  0  0  0  0  0  0  0
  143.0490   76.7170  219.5380 N   0  0  0  0  0  0  0  0  0  0  0  0
  143.7340   75.4480  219.4730 C   0  0  0  0  0  0  0  0  0  0  0  0
  143.4170   74.5610  218.4330 C   0  0  0  0  0  0  0  0  0  0  0  0
  143.9940   73.2900  218.3780 C   0  0  0  0  0  0  0  0  0  0  0  0
  144.8950   72.8840  219.3670 C   0  0  0  0  0  0  0  0  0  0  0  0
  145.4580   71.5580  219.3080 C   0  0  0  0  0  0  0  0  0  0  0  0
  145.9120   70.4940  219.2610 N   0  0  0  0  0  0  0  0  0  0  0  0
  145.2250   73.7630  220.4120 C   0  0  0  0  0  0  0  0  0  0  0  0
  146.3290   73.2890  221.6980 Cl  0  0  0  0  0  0  0  0  0  0  0  0
  144.6480   75.0380  220.4590 C   0  0  0  0  0  0  0  0  0  0  0  0
  141.2360   78.4350  219.5410 C   0  0  0  0  0  0  0  0  0  0  0  0
  142.1340   79.5200  219.6180 C   0  0  0  0  0  0  0  0  0  0  0  0
  141.6730   80.8100  219.8950 C   0  0  0  0  0  0  0  0  0  0  0  0
  140.3120   81.0470  220.1020 C   0  0  0  0  0  0  0  0  0  0  0  0
  139.7740   82.6860  220.4410 Cl  0  0  0  0  0  0  0  0  0  0  0  0
  139.4030   79.9820  220.0310 C   0  0  0  0  0  0  0  0  0  0  0  0
  137.6820   80.2350  220.2780 Cl  0  0  0  0  0  0  0  0  0  0  0  0
  139.8670   78.6910  219.7560 C   0  0  0  0  0  0  0  0  0  0  0  0
  138.5525   75.7323  219.4833 H   0  0  0  0  0  0  0  0  0  0  0  0
  139.3486   76.6528  218.1620 H   0  0  0  0  0  0  0  0  0  0  0  0
  139.3981   74.8572  218.1620 H   0  0  0  0  0  0  0  0  0  0  0  0
  141.3263   74.9191  219.3310 H   0  0  0  0  0  0  0  0  0  0  0  0
  139.3699   75.6510  221.3058 H   0  0  0  0  0  0  0  0  0  0  0  0
  140.8508   74.6124  221.4158 H   0  0  0  0  0  0  0  0  0  0  0  0
  142.1330   76.4810  222.1550 H   0  0  0  0  0  0  0  0  0  0  0  0
  139.1394   79.8949  223.4757 H   0  0  0  0  0  0  0  0  0  0  0  0
  140.1915   82.0503  224.1495 H   0  0  0  0  0  0  0  0  0  0  0  0
  142.6735   82.2912  224.1363 H   0  0  0  0  0  0  0  0  0  0  0  0
  144.1097   80.3722  223.4502 H   0  0  0  0  0  0  0  0  0  0  0  0
  143.0737   78.2081  222.7748 H   0  0  0  0  0  0  0  0  0  0  0  0
  141.4737   77.0177  218.1237 H   0  0  0  0  0  0  0  0  0  0  0  0
  143.5900   77.5250  219.9240 H   0  0  0  0  0  0  0  0  0  0  0  0
  142.7063   74.8699  217.6523 H   0  0  0  0  0  0  0  0  0  0  0  0
  143.7388   72.6068  217.5545 H   0  0  0  0  0  0  0  0  0  0  0  0
  144.9127   75.7256  221.2758 H   0  0  0  0  0  0  0  0  0  0  0  0
  143.2088   79.3490  219.4583 H   0  0  0  0  0  0  0  0  0  0  0  0
  142.3872   81.6448  219.9504 H   0  0  0  0  0  0  0  0  0  0  0  0
  139.1489   77.8592  219.7066 H   0  0  0  0  0  0  0  0  0  0  0  0
  1  2  1  0
  2  3  1  0
  3  4  1  0
  4  5  1  0
  5  6  2  0
  5  7  1  0
  7  8  2  0
  8  9  1  0
  9 10  2  0
 10 11  1  0
 11 12  2  0
  2 13  1  0
 13 14  1  0
 14 15  1  0
 15 16  2  0
 16 17  1  0
 17 18  2  0
 18 19  1  0
 19 20  3  0
 18 21  1  0
 21 22  1  0
 21 23  2  0
 13 24  1  0
 24 25  2  0
 25 26  1  0
 26 27  2  0
 27 28  1  0
 27 29  1  0
 29 30  1  0
 29 31  2  0
 12  7  1  0
 23 15  1  0
 31 24  1  0
  1 32  1  0
  1 33  1  0
  1 34  1  0
  2 35  1  6
  3 36  1  0
  3 37  1  0
  4 38  1  0
  8 39  1  0
  9 40  1  0
 10 41  1  0
 11 42  1  0
 12 43  1  0
 13 44  1  6
 14 45  1  0
 16 46  1  0
 17 47  1  0
 23 48  1  0
 25 49  1  0
 26 50  1  0
 31 51  1  0
M  END
>  <UniqueID>  (23) 
29

>  <SMILES>  (23) 
C[C@H](CNC(=O)c1ccccc1)[C@H](Nc1ccc(C#N)c(Cl)c1)c1ccc(Cl)c(Cl)c1

>  <Energy>  (23) 
63.1851930228045

>  <Genealogy>  (23) 
C[C@H](CNC(=O)c1ccccc1)[C@H](Nc1ccc(C#N)c(Cl)c1)c1ccc(Cl)c(Cl)c1 (chirality)
C[C@H](CNC(=O)c1ccccc1)[C@H](Nc1ccc(C#N)c(Cl)c1)c1ccc(Cl)c(Cl)c1 (3D coordinates assigned)
C[C@H](CNC(=O)c1ccccc1)[C@H](Nc1ccc(C#N)c(Cl)c1)c1ccc(Cl)c(Cl)c1 (optimized conformer: 63.1851930228045 kcal/mol)

>  <smiles>  (23) 
CC(CNC(=O)c1ccccc1)C(Nc1ccc(C#N)c(Cl)c1)c1ccc(Cl)c(Cl)c1

>  <score_type>  (23) 
oracle

>  <origin>  (23) 
autodockgpu

>  <m_score__min__energy>  (23) 
-9.3100000000000005

>  <m_primary>  (23) 
energy

>  <meeko>  (23) 
{"free_energy": -7.83, "intermolecular_energy": -10.22, "internal_energy": -2.67, "cluster_size": 3, "cluster_id": 5, "rank_in_cluster": 3}

>  <energy>  (23) 
-8.58

>  <cluster_rmsd>  (23) 
1.21

>  <rmsd>  (23) 
272.34

>  <cluster>  (23) 
1

$$$$
CBUCDBLHFQUVQW-JFARMPSENA-N
     RDKit          3D

 51 53  0  0  0  0  0  0  0  0999 V2000
  139.5540   74.6110  218.6630 C   0  0  0  0  0  0  0  0  0  0  0  0
  139.0270   74.2000  220.0490 C   0  0  2  0  0  0  0  0  0  0  0  0
  138.5000   75.4210  220.8430 C   0  0  0  0  0  0  0  0  0  0  0  0
  139.4700   76.5190  220.8510 N   0  0  0  0  0  0  0  0  0  0  0  0
  140.4040   76.6890  221.9300 C   0  0  0  0  0  0  0  0  0  0  0  0
  140.6180   75.7240  222.7160 O   0  0  0  0  0  0  0  0  0  0  0  0
  141.0930   77.9860  222.1690 C   0  0  0  0  0  0  0  0  0  0  0  0
  141.4890   78.3400  223.4740 C   0  0  0  0  0  0  0  0  0  0  0  0
  142.0830   79.5800  223.7270 C   0  0  0  0  0  0  0  0  0  0  0  0
  142.2900   80.4830  222.6840 C   0  0  0  0  0  0  0  0  0  0  0  0
  141.9040   80.1490  221.3860 C   0  0  0  0  0  0  0  0  0  0  0  0
  141.3090   78.9100  221.1260 C   0  0  0  0  0  0  0  0  0  0  0  0
  140.0110   73.2460  220.8090 C   0  0  2  0  0  0  0  0  0  0  0  0
  139.6480   73.1300  222.2320 N   0  0  0  0  0  0  0  0  0  0  0  0
  139.6550   71.9400  223.0480 C   0  0  0  0  0  0  0  0  0  0  0  0
  138.8980   70.8330  222.6360 C   0  0  0  0  0  0  0  0  0  0  0  0
  138.8090   69.6910  223.4350 C   0  0  0  0  0  0  0  0  0  0  0  0
  139.4720   69.6410  224.6660 C   0  0  0  0  0  0  0  0  0  0  0  0
  139.3440   68.4640  225.4890 C   0  0  0  0  0  0  0  0  0  0  0  0
  139.2430   67.5190  226.1490 N   0  0  0  0  0  0  0  0  0  0  0  0
  140.2380   70.7400  225.0890 C   0  0  0  0  0  0  0  0  0  0  0  0
  141.0650   70.7400  226.6430 Cl  0  0  0  0  0  0  0  0  0  0  0  0
  140.3270   71.8800  224.2810 C   0  0  0  0  0  0  0  0  0  0  0  0
  141.5250   73.3490  220.5970 C   0  0  0  0  0  0  0  0  0  0  0  0
  142.2710   74.5390  220.7230 C   0  0  0  0  0  0  0  0  0  0  0  0
  143.6570   74.5340  220.5420 C   0  0  0  0  0  0  0  0  0  0  0  0
  144.3280   73.3490  220.2340 C   0  0  0  0  0  0  0  0  0  0  0  0
  146.0730   73.3870  220.0220 Cl  0  0  0  0  0  0  0  0  0  0  0  0
  143.6030   72.1550  220.1040 C   0  0  0  0  0  0  0  0  0  0  0  0
  144.4060   70.6390  219.7240 Cl  0  0  0  0  0  0  0  0  0  0  0  0
  142.2160   72.1620  220.2830 C   0  0  0  0  0  0  0  0  0  0  0  0
  140.4162   75.2834  218.7832 H   0  0  0  0  0  0  0  0  0  0  0  0
  139.8636   73.7135  218.1075 H   0  0  0  0  0  0  0  0  0  0  0  0
  138.7589   75.1299  218.1075 H   0  0  0  0  0  0  0  0  0  0  0  0
  138.1366   73.5688  219.9121 H   0  0  0  0  0  0  0  0  0  0  0  0
  137.5667   75.7726  220.3790 H   0  0  0  0  0  0  0  0  0  0  0  0
  138.3278   75.1067  221.8830 H   0  0  0  0  0  0  0  0  0  0  0  0
  139.6130   77.0540  219.9670 H   0  0  0  0  0  0  0  0  0  0  0  0
  141.3292   77.6337  224.3020 H   0  0  0  0  0  0  0  0  0  0  0  0
  142.3877   79.8441  224.7504 H   0  0  0  0  0  0  0  0  0  0  0  0
  142.7575   81.4582  222.8852 H   0  0  0  0  0  0  0  0  0  0  0  0
  142.0679   80.8619  220.5645 H   0  0  0  0  0  0  0  0  0  0  0  0
  141.0072   78.6544  220.0996 H   0  0  0  0  0  0  0  0  0  0  0  0
  139.8316   72.3046  220.2689 H   0  0  0  0  0  0  0  0  0  0  0  0
  139.2820   74.0040  222.6770 H   0  0  0  0  0  0  0  0  0  0  0  0
  138.3684   70.8649  221.6724 H   0  0  0  0  0  0  0  0  0  0  0  0
  138.2162   68.8288  223.0956 H   0  0  0  0  0  0  0  0  0  0  0  0
  140.9293   72.7378  224.6148 H   0  0  0  0  0  0  0  0  0  0  0  0
  141.7570   75.4807  220.9662 H   0  0  0  0  0  0  0  0  0  0  0  0
  144.2237   75.4713  220.6431 H   0  0  0  0  0  0  0  0  0  0  0  0
  141.6537   71.2226  220.1766 H   0  0  0  0  0  0  0  0  0  0  0  0
  1  2  1  0
  2  3  1  0
  3  4  1  0
  4  5  1  0
  5  6  2  0
  5  7  1  0
  7  8  2  0
  8  9  1  0
  9 10  2  0
 10 11  1  0
 11 12  2  0
  2 13  1  0
 13 14  1  0
 14 15  1  0
 15 16  2  0
 16 17  1  0
 17 18  2  0
 18 19  1  0
 19 20  3  0
 18 21  1  0
 21 22  1  0
 21 23  2  0
 13 24  1  0
 24 25  2  0
 25 26  1  0
 26 27  2  0
 27 28  1  0
 27 29  1  0
 29 30  1  0
 29 31  2  0
 12  7  1  0
 23 15  1  0
 31 24  1  0
  1 32  1  0
  1 33  1  0
  1 34  1  0
  2 35  1  6
  3 36  1  0
  3 37  1  0
  4 38  1  0
  8 39  1  0
  9 40  1  0
 10 41  1  0
 11 42  1  0
 12 43  1  0
 13 44  1  6
 14 45  1  0
 16 46  1  0
 17 47  1  0
 23 48  1  0
 25 49  1  0
 26 50  1  0
 31 51  1  0
M  END
>  <UniqueID>  (24) 
29

>  <SMILES>  (24) 
C[C@H](CNC(=O)c1ccccc1)[C@H](Nc1ccc(C#N)c(Cl)c1)c1ccc(Cl)c(Cl)c1

>  <Energy>  (24) 
63.1851930228045

>  <Genealogy>  (24) 
C[C@H](CNC(=O)c1ccccc1)[C@H](Nc1ccc(C#N)c(Cl)c1)c1ccc(Cl)c(Cl)c1 (chirality)
C[C@H](CNC(=O)c1ccccc1)[C@H](Nc1ccc(C#N)c(Cl)c1)c1ccc(Cl)c(Cl)c1 (3D coordinates assigned)
C[C@H](CNC(=O)c1ccccc1)[C@H](Nc1ccc(C#N)c(Cl)c1)c1ccc(Cl)c(Cl)c1 (optimized conformer: 63.1851930228045 kcal/mol)

>  <smiles>  (24) 
CC(CNC(=O)c1ccccc1)C(Nc1ccc(C#N)c(Cl)c1)c1ccc(Cl)c(Cl)c1

>  <score_type>  (24) 
oracle

>  <origin>  (24) 
autodockgpu

>  <m_score__min__energy>  (24) 
-9.3100000000000005

>  <m_primary>  (24) 
energy

>  <meeko>  (24) 
{"free_energy": -8.58, "intermolecular_energy": -10.97, "internal_energy": -2.32, "cluster_size": 9, "cluster_id": 1, "rank_in_cluster": 3}

>  <energy>  (24) 
-8.42

>  <cluster_rmsd>  (24) 
1.55

>  <rmsd>  (24) 
272.31

>  <cluster>  (24) 
1

$$$$
CBUCDBLHFQUVQW-JFARMPSENA-N
     RDKit          3D

 51 53  0  0  0  0  0  0  0  0999 V2000
  139.5730   72.8290  218.5800 C   0  0  0  0  0  0  0  0  0  0  0  0
  139.0820   72.8850  220.0370 C   0  0  2  0  0  0  0  0  0  0  0  0
  138.4780   74.2700  220.3810 C   0  0  0  0  0  0  0  0  0  0  0  0
  139.5090   75.3080  220.4460 N   0  0  0  0  0  0  0  0  0  0  0  0
  139.9010   75.9010  221.6940 C   0  0  0  0  0  0  0  0  0  0  0  0
  139.6000   75.3190  222.7730 O   0  0  0  0  0  0  0  0  0  0  0  0
  140.6150   77.2060  221.7480 C   0  0  0  0  0  0  0  0  0  0  0  0
  140.8920   77.9030  220.5540 C   0  0  0  0  0  0  0  0  0  0  0  0
  141.6130   79.1000  220.5790 C   0  0  0  0  0  0  0  0  0  0  0  0
  142.0680   79.6190  221.7920 C   0  0  0  0  0  0  0  0  0  0  0  0
  141.8030   78.9410  222.9830 C   0  0  0  0  0  0  0  0  0  0  0  0
  141.0820   77.7440  222.9650 C   0  0  0  0  0  0  0  0  0  0  0  0
  140.1310   72.3120  221.0490 C   0  0  2  0  0  0  0  0  0  0  0  0
  139.6740   72.4740  222.4400 N   0  0  0  0  0  0  0  0  0  0  0  0
  139.8050   71.5320  223.5250 C   0  0  0  0  0  0  0  0  0  0  0  0
  139.2730   70.2420  223.3680 C   0  0  0  0  0  0  0  0  0  0  0  0
  139.3030   69.3250  224.4210 C   0  0  0  0  0  0  0  0  0  0  0  0
  139.8600   69.6860  225.6530 C   0  0  0  0  0  0  0  0  0  0  0  0
  139.8550   68.7340  226.7360 C   0  0  0  0  0  0  0  0  0  0  0  0
  139.8510   67.9720  227.6070 N   0  0  0  0  0  0  0  0  0  0  0  0
  140.4000   70.9720  225.8220 C   0  0  0  0  0  0  0  0  0  0  0  0
  141.0830   71.4860  227.3610 Cl  0  0  0  0  0  0  0  0  0  0  0  0
  140.3720   71.8850  224.7620 C   0  0  0  0  0  0  0  0  0  0  0  0
  141.6250   72.6110  220.8850 C   0  0  0  0  0  0  0  0  0  0  0  0
  142.6560   71.6750  221.1020 C   0  0  0  0  0  0  0  0  0  0  0  0
  143.9940   72.0270  220.8980 C   0  0  0  0  0  0  0  0  0  0  0  0
  144.3320   73.3140  220.4760 C   0  0  0  0  0  0  0  0  0  0  0  0
  146.0260   73.7130  220.2260 Cl  0  0  0  0  0  0  0  0  0  0  0  0
  143.3200   74.2600  220.2570 C   0  0  0  0  0  0  0  0  0  0  0  0
  143.6980   75.8900  219.7180 Cl  0  0  0  0  0  0  0  0  0  0  0  0
  141.9820   73.9070  220.4630 C   0  0  0  0  0  0  0  0  0  0  0  0
  140.6658   72.7044  218.5659 H   0  0  0  0  0  0  0  0  0  0  0  0
  139.1003   71.9789  218.0662 H   0  0  0  0  0  0  0  0  0  0  0  0
  139.3039   73.7637  218.0662 H   0  0  0  0  0  0  0  0  0  0  0  0
  138.2359   72.1909  220.1484 H   0  0  0  0  0  0  0  0  0  0  0  0
  137.7460   74.5423  219.6064 H   0  0  0  0  0  0  0  0  0  0  0  0
  137.9984   74.1999  221.3684 H   0  0  0  0  0  0  0  0  0  0  0  0
  140.1020   75.4640  219.6010 H   0  0  0  0  0  0  0  0  0  0  0  0
  140.5372   77.5008  219.5936 H   0  0  0  0  0  0  0  0  0  0  0  0
  141.8223   79.6342  219.6405 H   0  0  0  0  0  0  0  0  0  0  0  0
  142.6349   80.5615  221.8095 H   0  0  0  0  0  0  0  0  0  0  0  0
  142.1628   79.3501  223.9386 H   0  0  0  0  0  0  0  0  0  0  0  0
  140.8770   77.2168  223.9084 H   0  0  0  0  0  0  0  0  0  0  0  0
  140.1390   71.2541  220.7477 H   0  0  0  0  0  0  0  0  0  0  0  0
  139.1360   73.3490  222.6390 H   0  0  0  0  0  0  0  0  0  0  0  0
  138.8278   69.9505  222.4053 H   0  0  0  0  0  0  0  0  0  0  0  0
  138.8876   68.3160  224.2816 H   0  0  0  0  0  0  0  0  0  0  0  0
  140.7983   72.8899  224.8981 H   0  0  0  0  0  0  0  0  0  0  0  0
  142.4057   70.6570  221.4353 H   0  0  0  0  0  0  0  0  0  0  0  0
  144.7863   71.2839  221.0714 H   0  0  0  0  0  0  0  0  0  0  0  0
  141.1940   74.6552  220.2923 H   0  0  0  0  0  0  0  0  0  0  0  0
  1  2  1  0
  2  3  1  0
  3  4  1  0
  4  5  1  0
  5  6  2  0
  5  7  1  0
  7  8  2  0
  8  9  1  0
  9 10  2  0
 10 11  1  0
 11 12  2  0
  2 13  1  0
 13 14  1  0
 14 15  1  0
 15 16  2  0
 16 17  1  0
 17 18  2  0
 18 19  1  0
 19 20  3  0
 18 21  1  0
 21 22  1  0
 21 23  2  0
 13 24  1  0
 24 25  2  0
 25 26  1  0
 26 27  2  0
 27 28  1  0
 27 29  1  0
 29 30  1  0
 29 31  2  0
 12  7  1  0
 23 15  1  0
 31 24  1  0
  1 32  1  0
  1 33  1  0
  1 34  1  0
  2 35  1  6
  3 36  1  0
  3 37  1  0
  4 38  1  0
  8 39  1  0
  9 40  1  0
 10 41  1  0
 11 42  1  0
 12 43  1  0
 13 44  1  6
 14 45  1  0
 16 46  1  0
 17 47  1  0
 23 48  1  0
 25 49  1  0
 26 50  1  0
 31 51  1  0
M  END
>  <UniqueID>  (25) 
29

>  <SMILES>  (25) 
C[C@H](CNC(=O)c1ccccc1)[C@H](Nc1ccc(C#N)c(Cl)c1)c1ccc(Cl)c(Cl)c1

>  <Energy>  (25) 
63.1851930228045

>  <Genealogy>  (25) 
C[C@H](CNC(=O)c1ccccc1)[C@H](Nc1ccc(C#N)c(Cl)c1)c1ccc(Cl)c(Cl)c1 (chirality)
C[C@H](CNC(=O)c1ccccc1)[C@H](Nc1ccc(C#N)c(Cl)c1)c1ccc(Cl)c(Cl)c1 (3D coordinates assigned)
C[C@H](CNC(=O)c1ccccc1)[C@H](Nc1ccc(C#N)c(Cl)c1)c1ccc(Cl)c(Cl)c1 (optimized conformer: 63.1851930228045 kcal/mol)

>  <smiles>  (25) 
CC(CNC(=O)c1ccccc1)C(Nc1ccc(C#N)c(Cl)c1)c1ccc(Cl)c(Cl)c1

>  <score_type>  (25) 
oracle

>  <origin>  (25) 
autodockgpu

>  <m_score__min__energy>  (25) 
-9.3100000000000005

>  <m_primary>  (25) 
energy

>  <meeko>  (25) 
{"free_energy": -8.35, "intermolecular_energy": -10.73, "internal_energy": -2.64, "cluster_size": 9, "cluster_id": 1, "rank_in_cluster": 8}

>  <energy>  (25) 
-8.4

>  <cluster_rmsd>  (25) 
1.49

>  <rmsd>  (25) 
272.43

>  <cluster>  (25) 
1

$$$$
CBUCDBLHFQUVQW-JFARMPSENA-N
     RDKit          3D

 51 53  0  0  0  0  0  0  0  0999 V2000
  140.5050   70.4220  219.9640 C   0  0  0  0  0  0  0  0  0  0  0  0
  139.5920   70.9010  221.1070 C   0  0  2  0  0  0  0  0  0  0  0  0
  138.2070   71.3530  220.5790 C   0  0  0  0  0  0  0  0  0  0  0  0
  137.1300   70.9690  221.4940 N   0  0  0  0  0  0  0  0  0  0  0  0
  136.6970   71.8390  222.5530 C   0  0  0  0  0  0  0  0  0  0  0  0
  137.0110   73.0610  222.5110 O   0  0  0  0  0  0  0  0  0  0  0  0
  135.9250   71.3250  223.7170 C   0  0  0  0  0  0  0  0  0  0  0  0
  135.0130   72.1700  224.3810 C   0  0  0  0  0  0  0  0  0  0  0  0
  134.3230   71.7250  225.5120 C   0  0  0  0  0  0  0  0  0  0  0  0
  134.5330   70.4340  225.9970 C   0  0  0  0  0  0  0  0  0  0  0  0
  135.4320   69.5850  225.3530 C   0  0  0  0  0  0  0  0  0  0  0  0
  136.1260   70.0240  224.2200 C   0  0  0  0  0  0  0  0  0  0  0  0
  140.3190   71.8820  222.0870 C   0  0  2  0  0  0  0  0  0  0  0  0
  139.6470   71.9230  223.3980 N   0  0  0  0  0  0  0  0  0  0  0  0
  139.9540   71.1390  224.5690 C   0  0  0  0  0  0  0  0  0  0  0  0
  139.6440   69.7700  224.5670 C   0  0  0  0  0  0  0  0  0  0  0  0
  139.8470   68.9910  225.7080 C   0  0  0  0  0  0  0  0  0  0  0  0
  140.3580   69.5700  226.8740 C   0  0  0  0  0  0  0  0  0  0  0  0
  140.5340   68.7540  228.0500 C   0  0  0  0  0  0  0  0  0  0  0  0
  140.6740   68.1000  228.9950 N   0  0  0  0  0  0  0  0  0  0  0  0
  140.6770   70.9380  226.8890 C   0  0  0  0  0  0  0  0  0  0  0  0
  141.2930   71.7220  228.3400 Cl  0  0  0  0  0  0  0  0  0  0  0  0
  140.4770   71.7130  225.7410 C   0  0  0  0  0  0  0  0  0  0  0  0
  140.7690   73.2700  221.6180 C   0  0  0  0  0  0  0  0  0  0  0  0
  141.9190   73.5170  220.8410 C   0  0  0  0  0  0  0  0  0  0  0  0
  142.2380   74.8150  220.4310 C   0  0  0  0  0  0  0  0  0  0  0  0
  141.4210   75.8910  220.7860 C   0  0  0  0  0  0  0  0  0  0  0  0
  141.8550   77.5060  220.2430 Cl  0  0  0  0  0  0  0  0  0  0  0  0
  140.2740   75.6660  221.5600 C   0  0  0  0  0  0  0  0  0  0  0  0
  139.2130   76.9880  222.0240 Cl  0  0  0  0  0  0  0  0  0  0  0  0
  139.9580   74.3670  221.9710 C   0  0  0  0  0  0  0  0  0  0  0  0
  141.4044   69.9501  220.3864 H   0  0  0  0  0  0  0  0  0  0  0  0
  139.9643   69.6914  219.3444 H   0  0  0  0  0  0  0  0  0  0  0  0
  140.7988   71.2821  219.3444 H   0  0  0  0  0  0  0  0  0  0  0  0
  139.3604   70.0421  221.7540 H   0  0  0  0  0  0  0  0  0  0  0  0
  138.2073   72.4473  220.4672 H   0  0  0  0  0  0  0  0  0  0  0  0
  138.0295   70.8595  219.6121 H   0  0  0  0  0  0  0  0  0  0  0  0
  136.5410   70.1450  221.2410 H   0  0  0  0  0  0  0  0  0  0  0  0
  134.8427   73.1897  224.0053 H   0  0  0  0  0  0  0  0  0  0  0  0
  133.6131   72.3939  226.0206 H   0  0  0  0  0  0  0  0  0  0  0  0
  133.9893   70.0858  226.8876 H   0  0  0  0  0  0  0  0  0  0  0  0
  135.5962   68.5672  225.7366 H   0  0  0  0  0  0  0  0  0  0  0  0
  136.8341   69.3483  223.7180 H   0  0  0  0  0  0  0  0  0  0  0  0
  141.3051   71.3992  222.1537 H   0  0  0  0  0  0  0  0  0  0  0  0
  138.8090   72.5480  223.4560 H   0  0  0  0  0  0  0  0  0  0  0  0
  139.2367   69.3058  223.6567 H   0  0  0  0  0  0  0  0  0  0  0  0
  139.6042   67.9183  225.6896 H   0  0  0  0  0  0  0  0  0  0  0  0
  140.7318   72.7830  225.7558 H   0  0  0  0  0  0  0  0  0  0  0  0
  142.5722   72.6797  220.5543 H   0  0  0  0  0  0  0  0  0  0  0  0
  143.1388   74.9902  219.8245 H   0  0  0  0  0  0  0  0  0  0  0  0
  139.0588   74.1984  222.5817 H   0  0  0  0  0  0  0  0  0  0  0  0
  1  2  1  0
  2  3  1  0
  3  4  1  0
  4  5  1  0
  5  6  2  0
  5  7  1  0
  7  8  2  0
  8  9  1  0
  9 10  2  0
 10 11  1  0
 11 12  2  0
  2 13  1  0
 13 14  1  0
 14 15  1  0
 15 16  2  0
 16 17  1  0
 17 18  2  0
 18 19  1  0
 19 20  3  0
 18 21  1  0
 21 22  1  0
 21 23  2  0
 13 24  1  0
 24 25  2  0
 25 26  1  0
 26 27  2  0
 27 28  1  0
 27 29  1  0
 29 30  1  0
 29 31  2  0
 12  7  1  0
 23 15  1  0
 31 24  1  0
  1 32  1  0
  1 33  1  0
  1 34  1  0
  2 35  1  1
  3 36  1  0
  3 37  1  0
  4 38  1  0
  8 39  1  0
  9 40  1  0
 10 41  1  0
 11 42  1  0
 12 43  1  0
 13 44  1  1
 14 45  1  0
 16 46  1  0
 17 47  1  0
 23 48  1  0
 25 49  1  0
 26 50  1  0
 31 51  1  0
M  END
>  <UniqueID>  (26) 
29

>  <SMILES>  (26) 
C[C@H](CNC(=O)c1ccccc1)[C@H](Nc1ccc(C#N)c(Cl)c1)c1ccc(Cl)c(Cl)c1

>  <Energy>  (26) 
63.1851930228045

>  <Genealogy>  (26) 
C[C@H](CNC(=O)c1ccccc1)[C@H](Nc1ccc(C#N)c(Cl)c1)c1ccc(Cl)c(Cl)c1 (chirality)
C[C@H](CNC(=O)c1ccccc1)[C@H](Nc1ccc(C#N)c(Cl)c1)c1ccc(Cl)c(Cl)c1 (3D coordinates assigned)
C[C@H](CNC(=O)c1ccccc1)[C@H](Nc1ccc(C#N)c(Cl)c1)c1ccc(Cl)c(Cl)c1 (optimized conformer: 63.1851930228045 kcal/mol)

>  <smiles>  (26) 
CC(CNC(=O)c1ccccc1)C(Nc1ccc(C#N)c(Cl)c1)c1ccc(Cl)c(Cl)c1

>  <score_type>  (26) 
oracle

>  <origin>  (26) 
autodockgpu

>  <m_score__min__energy>  (26) 
-9.3100000000000005

>  <m_primary>  (26) 
energy

>  <meeko>  (26) 
{"free_energy": -7.11, "intermolecular_energy": -9.5, "internal_energy": -2.75, "cluster_size": 1, "cluster_id": 7, "rank_in_cluster": 1}

>  <energy>  (26) 
-8.4

>  <cluster_rmsd>  (26) 
1.47

>  <rmsd>  (26) 
272.37

>  <cluster>  (26) 
1

$$$$
CBUCDBLHFQUVQW-JFARMPSENA-N
     RDKit          3D

 51 53  0  0  0  0  0  0  0  0999 V2000
  135.4260   74.4530  220.5960 C   0  0  0  0  0  0  0  0  0  0  0  0
  136.8630   74.8570  220.9720 C   0  0  2  0  0  0  0  0  0  0  0  0
  137.8110   73.6310  220.9960 C   0  0  0  0  0  0  0  0  0  0  0  0
  139.0950   73.9310  220.3600 N   0  0  0  0  0  0  0  0  0  0  0  0
  140.2890   74.1330  221.1350 C   0  0  0  0  0  0  0  0  0  0  0  0
  140.3170   73.7420  222.3350 O   0  0  0  0  0  0  0  0  0  0  0  0
  141.4770   74.8300  220.5700 C   0  0  0  0  0  0  0  0  0  0  0  0
  141.3100   76.0360  219.8590 C   0  0  0  0  0  0  0  0  0  0  0  0
  142.4060   76.6740  219.2710 C   0  0  0  0  0  0  0  0  0  0  0  0
  143.6810   76.1200  219.3830 C   0  0  0  0  0  0  0  0  0  0  0  0
  143.8640   74.9270  220.0820 C   0  0  0  0  0  0  0  0  0  0  0  0
  142.7720   74.2840  220.6730 C   0  0  0  0  0  0  0  0  0  0  0  0
  136.9160   75.8040  222.2180 C   0  0  2  0  0  0  0  0  0  0  0  0
  138.2950   75.9580  222.7130 N   0  0  0  0  0  0  0  0  0  0  0  0
  139.0640   77.1760  222.8110 C   0  0  0  0  0  0  0  0  0  0  0  0
  140.4620   77.1020  222.7170 C   0  0  0  0  0  0  0  0  0  0  0  0
  141.2500   78.2420  222.8890 C   0  0  0  0  0  0  0  0  0  0  0  0
  140.6520   79.4760  223.1650 C   0  0  0  0  0  0  0  0  0  0  0  0
  141.4850   80.6350  223.3670 C   0  0  0  0  0  0  0  0  0  0  0  0
  142.1530   81.5660  223.5280 N   0  0  0  0  0  0  0  0  0  0  0  0
  139.2530   79.5650  223.2570 C   0  0  0  0  0  0  0  0  0  0  0  0
  138.4530   81.0870  223.6340 Cl  0  0  0  0  0  0  0  0  0  0  0  0
  138.4670   78.4200  223.0780 C   0  0  0  0  0  0  0  0  0  0  0  0
  135.9000   75.6610  223.3560 C   0  0  0  0  0  0  0  0  0  0  0  0
  135.2160   76.7380  223.9570 C   0  0  0  0  0  0  0  0  0  0  0  0
  134.2800   76.5120  224.9710 C   0  0  0  0  0  0  0  0  0  0  0  0
  134.0060   75.2140  225.4070 C   0  0  0  0  0  0  0  0  0  0  0  0
  132.8170   74.9750  226.6790 Cl  0  0  0  0  0  0  0  0  0  0  0  0
  134.6770   74.1300  224.8220 C   0  0  0  0  0  0  0  0  0  0  0  0
  134.3590   72.4790  225.3340 Cl  0  0  0  0  0  0  0  0  0  0  0  0
  135.6140   74.3580  223.8090 C   0  0  0  0  0  0  0  0  0  0  0  0
  134.8398   74.2882  221.5121 H   0  0  0  0  0  0  0  0  0  0  0  0
  134.9626   75.2557  220.0036 H   0  0  0  0  0  0  0  0  0  0  0  0
  135.4487   73.5264  220.0036 H   0  0  0  0  0  0  0  0  0  0  0  0
  137.2701   75.4912  220.1707 H   0  0  0  0  0  0  0  0  0  0  0  0
  137.9899   73.3383  222.0411 H   0  0  0  0  0  0  0  0  0  0  0  0
  137.3319   72.8142  220.4362 H   0  0  0  0  0  0  0  0  0  0  0  0
  139.1770   73.7920  219.3290 H   0  0  0  0  0  0  0  0  0  0  0  0
  140.3075   76.4792  219.7661 H   0  0  0  0  0  0  0  0  0  0  0  0
  142.2626   77.6146  218.7190 H   0  0  0  0  0  0  0  0  0  0  0  0
  144.5423   76.6239  218.9201 H   0  0  0  0  0  0  0  0  0  0  0  0
  144.8701   74.4908  220.1686 H   0  0  0  0  0  0  0  0  0  0  0  0
  142.9252   73.3438  221.2231 H   0  0  0  0  0  0  0  0  0  0  0  0
  136.5401   76.7371  221.7731 H   0  0  0  0  0  0  0  0  0  0  0  0
  138.7890   75.0680  222.9570 H   0  0  0  0  0  0  0  0  0  0  0  0
  140.9426   76.1354  222.5055 H   0  0  0  0  0  0  0  0  0  0  0  0
  142.3445   78.1693  222.8072 H   0  0  0  0  0  0  0  0  0  0  0  0
  137.3717   78.4949  223.1470 H   0  0  0  0  0  0  0  0  0  0  0  0
  135.4209   77.7664  223.6247 H   0  0  0  0  0  0  0  0  0  0  0  0
  133.7553   77.3635  225.4289 H   0  0  0  0  0  0  0  0  0  0  0  0
  136.1380   73.5030  223.3570 H   0  0  0  0  0  0  0  0  0  0  0  0
  1  2  1  0
  2  3  1  0
  3  4  1  0
  4  5  1  0
  5  6  2  0
  5  7  1  0
  7  8  2  0
  8  9  1  0
  9 10  2  0
 10 11  1  0
 11 12  2  0
  2 13  1  0
 13 14  1  0
 14 15  1  0
 15 16  2  0
 16 17  1  0
 17 18  2  0
 18 19  1  0
 19 20  3  0
 18 21  1  0
 21 22  1  0
 21 23  2  0
 13 24  1  0
 24 25  2  0
 25 26  1  0
 26 27  2  0
 27 28  1  0
 27 29  1  0
 29 30  1  0
 29 31  2  0
 12  7  1  0
 23 15  1  0
 31 24  1  0
  1 32  1  0
  1 33  1  0
  1 34  1  0
  2 35  1  6
  3 36  1  0
  3 37  1  0
  4 38  1  0
  8 39  1  0
  9 40  1  0
 10 41  1  0
 11 42  1  0
 12 43  1  0
 13 44  1  6
 14 45  1  0
 16 46  1  0
 17 47  1  0
 23 48  1  0
 25 49  1  0
 26 50  1  0
 31 51  1  0
M  END
>  <UniqueID>  (27) 
29

>  <SMILES>  (27) 
C[C@H](CNC(=O)c1ccccc1)[C@H](Nc1ccc(C#N)c(Cl)c1)c1ccc(Cl)c(Cl)c1

>  <Energy>  (27) 
63.1851930228045

>  <Genealogy>  (27) 
C[C@H](CNC(=O)c1ccccc1)[C@H](Nc1ccc(C#N)c(Cl)c1)c1ccc(Cl)c(Cl)c1 (chirality)
C[C@H](CNC(=O)c1ccccc1)[C@H](Nc1ccc(C#N)c(Cl)c1)c1ccc(Cl)c(Cl)c1 (3D coordinates assigned)
C[C@H](CNC(=O)c1ccccc1)[C@H](Nc1ccc(C#N)c(Cl)c1)c1ccc(Cl)c(Cl)c1 (optimized conformer: 63.1851930228045 kcal/mol)

>  <smiles>  (27) 
CC(CNC(=O)c1ccccc1)C(Nc1ccc(C#N)c(Cl)c1)c1ccc(Cl)c(Cl)c1

>  <score_type>  (27) 
oracle

>  <origin>  (27) 
autodockgpu

>  <m_score__min__energy>  (27) 
-9.3100000000000005

>  <m_primary>  (27) 
energy

>  <meeko>  (27) 
{"free_energy": -7.16, "intermolecular_energy": -9.55, "internal_energy": -2.57, "cluster_size": 3, "cluster_id": 6, "rank_in_cluster": 3}

>  <energy>  (27) 
-8.39

>  <cluster_rmsd>  (27) 
1.48

>  <rmsd>  (27) 
272.38

>  <cluster>  (27) 
1

$$$$
CBUCDBLHFQUVQW-JFARMPSENA-N
     RDKit          3D

 51 53  0  0  0  0  0  0  0  0999 V2000
  139.2630   76.2450  218.6740 C   0  0  0  0  0  0  0  0  0  0  0  0
  140.6110   76.0160  219.3780 C   0  0  2  0  0  0  0  0  0  0  0  0
  140.4240   75.7470  220.8930 C   0  0  0  0  0  0  0  0  0  0  0  0
  141.1570   76.7190  221.7080 N   0  0  0  0  0  0  0  0  0  0  0  0
  140.4740   77.7090  222.4940 C   0  0  0  0  0  0  0  0  0  0  0  0
  139.2470   77.5540  222.7460 O   0  0  0  0  0  0  0  0  0  0  0  0
  141.1670   78.9330  222.9810 C   0  0  0  0  0  0  0  0  0  0  0  0
  140.4120   80.0260  223.4510 C   0  0  0  0  0  0  0  0  0  0  0  0
  141.0440   81.2060  223.8570 C   0  0  0  0  0  0  0  0  0  0  0  0
  142.4330   81.3120  223.8000 C   0  0  0  0  0  0  0  0  0  0  0  0
  143.1960   80.2390  223.3370 C   0  0  0  0  0  0  0  0  0  0  0  0
  142.5710   79.0560  222.9290 C   0  0  0  0  0  0  0  0  0  0  0  0
  141.6850   77.0880  218.9880 C   0  0  2  0  0  0  0  0  0  0  0  0
  143.0010   76.7570  219.5610 N   0  0  0  0  0  0  0  0  0  0  0  0
  143.7050   75.5000  219.4830 C   0  0  0  0  0  0  0  0  0  0  0  0
  143.4050   74.6210  218.4300 C   0  0  0  0  0  0  0  0  0  0  0  0
  144.0000   73.3600  218.3620 C   0  0  0  0  0  0  0  0  0  0  0  0
  144.9030   72.9530  219.3510 C   0  0  0  0  0  0  0  0  0  0  0  0
  145.4850   71.6360  219.2770 C   0  0  0  0  0  0  0  0  0  0  0  0
  145.9520   70.5790  219.2200 N   0  0  0  0  0  0  0  0  0  0  0  0
  145.2160   73.8250  220.4070 C   0  0  0  0  0  0  0  0  0  0  0  0
  146.3200   73.3490  221.6930 Cl  0  0  0  0  0  0  0  0  0  0  0  0
  144.6200   75.0900  220.4680 C   0  0  0  0  0  0  0  0  0  0  0  0
  141.3680   78.5840  219.0760 C   0  0  0  0  0  0  0  0  0  0  0  0
  140.3230   79.1370  219.8430 C   0  0  0  0  0  0  0  0  0  0  0  0
  140.1260   80.5210  219.8890 C   0  0  0  0  0  0  0  0  0  0  0  0
  140.9630   81.3800  219.1730 C   0  0  0  0  0  0  0  0  0  0  0  0
  140.6840   83.1130  219.2650 Cl  0  0  0  0  0  0  0  0  0  0  0  0
  142.0070   80.8490  218.4030 C   0  0  0  0  0  0  0  0  0  0  0  0
  143.0890   81.8930  217.4920 Cl  0  0  0  0  0  0  0  0  0  0  0  0
  142.2010   79.4650  218.3560 C   0  0  0  0  0  0  0  0  0  0  0  0
  138.4736   76.3791  219.4282 H   0  0  0  0  0  0  0  0  0  0  0  0
  139.3261   77.1453  218.0451 H   0  0  0  0  0  0  0  0  0  0  0  0
  139.0252   75.3744  218.0451 H   0  0  0  0  0  0  0  0  0  0  0  0
  141.0516   75.0836  218.9953 H   0  0  0  0  0  0  0  0  0  0  0  0
  139.3534   75.8113  221.1375 H   0  0  0  0  0  0  0  0  0  0  0  0
  140.8183   74.7445  221.1156 H   0  0  0  0  0  0  0  0  0  0  0  0
  142.1740   76.5530  221.8730 H   0  0  0  0  0  0  0  0  0  0  0  0
  139.3156   79.9506  223.4991 H   0  0  0  0  0  0  0  0  0  0  0  0
  140.4437   82.0523  224.2221 H   0  0  0  0  0  0  0  0  0  0  0  0
  142.9274   82.2411  224.1199 H   0  0  0  0  0  0  0  0  0  0  0  0
  144.2918   80.3238  223.2928 H   0  0  0  0  0  0  0  0  0  0  0  0
  143.1793   78.2150  222.5647 H   0  0  0  0  0  0  0  0  0  0  0  0
  141.6835   76.9813  217.8932 H   0  0  0  0  0  0  0  0  0  0  0  0
  143.4390   77.5070  220.1460 H   0  0  0  0  0  0  0  0  0  0  0  0
  142.6933   74.9294  217.6500 H   0  0  0  0  0  0  0  0  0  0  0  0
  143.7584   72.6840  217.5285 H   0  0  0  0  0  0  0  0  0  0  0  0
  144.8703   75.7703  221.2954 H   0  0  0  0  0  0  0  0  0  0  0  0
  139.6551   78.4731  220.4115 H   0  0  0  0  0  0  0  0  0  0  0  0
  139.3060   80.9360  220.4934 H   0  0  0  0  0  0  0  0  0  0  0  0
  143.0193   79.0555  217.7455 H   0  0  0  0  0  0  0  0  0  0  0  0
  1  2  1  0
  2  3  1  0
  3  4  1  0
  4  5  1  0
  5  6  2  0
  5  7  1  0
  7  8  2  0
  8  9  1  0
  9 10  2  0
 10 11  1  0
 11 12  2  0
  2 13  1  0
 13 14  1  0
 14 15  1  0
 15 16  2  0
 16 17  1  0
 17 18  2  0
 18 19  1  0
 19 20  3  0
 18 21  1  0
 21 22  1  0
 21 23  2  0
 13 24  1  0
 24 25  2  0
 25 26  1  0
 26 27  2  0
 27 28  1  0
 27 29  1  0
 29 30  1  0
 29 31  2  0
 12  7  1  0
 23 15  1  0
 31 24  1  0
  1 32  1  0
  1 33  1  0
  1 34  1  0
  2 35  1  6
  3 36  1  0
  3 37  1  0
  4 38  1  0
  8 39  1  0
  9 40  1  0
 10 41  1  0
 11 42  1  0
 12 43  1  0
 13 44  1  6
 14 45  1  0
 16 46  1  0
 17 47  1  0
 23 48  1  0
 25 49  1  0
 26 50  1  0
 31 51  1  0
M  END
>  <UniqueID>  (28) 
29

>  <SMILES>  (28) 
C[C@H](CNC(=O)c1ccccc1)[C@H](Nc1ccc(C#N)c(Cl)c1)c1ccc(Cl)c(Cl)c1

>  <Energy>  (28) 
63.1851930228045

>  <Genealogy>  (28) 
C[C@H](CNC(=O)c1ccccc1)[C@H](Nc1ccc(C#N)c(Cl)c1)c1ccc(Cl)c(Cl)c1 (chirality)
C[C@H](CNC(=O)c1ccccc1)[C@H](Nc1ccc(C#N)c(Cl)c1)c1ccc(Cl)c(Cl)c1 (3D coordinates assigned)
C[C@H](CNC(=O)c1ccccc1)[C@H](Nc1ccc(C#N)c(Cl)c1)c1ccc(Cl)c(Cl)c1 (optimized conformer: 63.1851930228045 kcal/mol)

>  <smiles>  (28) 
CC(CNC(=O)c1ccccc1)C(Nc1ccc(C#N)c(Cl)c1)c1ccc(Cl)c(Cl)c1

>  <score_type>  (28) 
oracle

>  <origin>  (28) 
autodockgpu

>  <m_score__min__energy>  (28) 
-9.3100000000000005

>  <m_primary>  (28) 
energy

>  <meeko>  (28) 
{"free_energy": -8.29, "intermolecular_energy": -10.68, "internal_energy": -2.21, "cluster_size": 3, "cluster_id": 5, "rank_in_cluster": 2}

>  <energy>  (28) 
-8.35

>  <cluster_rmsd>  (28) 
1.53

>  <rmsd>  (28) 
272.34

>  <cluster>  (28) 
1

$$$$
CBUCDBLHFQUVQW-JFARMPSENA-N
     RDKit          3D

 51 53  0  0  0  0  0  0  0  0999 V2000
  139.1950   76.3840  218.8040 C   0  0  0  0  0  0  0  0  0  0  0  0
  140.5660   76.0700  219.4270 C   0  0  2  0  0  0  0  0  0  0  0  0
  140.4440   75.7390  220.9360 C   0  0  0  0  0  0  0  0  0  0  0  0
  141.1600   76.7130  221.7610 N   0  0  0  0  0  0  0  0  0  0  0  0
  140.4630   77.7310  222.4990 C   0  0  0  0  0  0  0  0  0  0  0  0
  139.2240   77.6030  222.7020 O   0  0  0  0  0  0  0  0  0  0  0  0
  141.1580   78.9520  222.9910 C   0  0  0  0  0  0  0  0  0  0  0  0
  140.4040   80.0480  223.4560 C   0  0  0  0  0  0  0  0  0  0  0  0
  141.0360   81.2260  223.8660 C   0  0  0  0  0  0  0  0  0  0  0  0
  142.4270   81.3270  223.8180 C   0  0  0  0  0  0  0  0  0  0  0  0
  143.1880   80.2510  223.3600 C   0  0  0  0  0  0  0  0  0  0  0  0
  142.5620   79.0710  222.9480 C   0  0  0  0  0  0  0  0  0  0  0  0
  141.6620   77.1160  219.0290 C   0  0  2  0  0  0  0  0  0  0  0  0
  142.9680   76.7690  219.6170 N   0  0  0  0  0  0  0  0  0  0  0  0
  143.6850   75.5230  219.4980 C   0  0  0  0  0  0  0  0  0  0  0  0
  143.3870   74.6710  218.4220 C   0  0  0  0  0  0  0  0  0  0  0  0
  143.9950   73.4190  218.3140 C   0  0  0  0  0  0  0  0  0  0  0  0
  144.9090   72.9940  219.2840 C   0  0  0  0  0  0  0  0  0  0  0  0
  145.5040   71.6860  219.1680 C   0  0  0  0  0  0  0  0  0  0  0  0
  145.9810   70.6350  219.0760 N   0  0  0  0  0  0  0  0  0  0  0  0
  145.2200   73.8380  220.3630 C   0  0  0  0  0  0  0  0  0  0  0  0
  146.3380   73.3370  221.6270 Cl  0  0  0  0  0  0  0  0  0  0  0  0
  144.6110   75.0940  220.4640 C   0  0  0  0  0  0  0  0  0  0  0  0
  141.3730   78.6190  219.0920 C   0  0  0  0  0  0  0  0  0  0  0  0
  140.3340   79.2030  219.8450 C   0  0  0  0  0  0  0  0  0  0  0  0
  140.1630   80.5900  219.8690 C   0  0  0  0  0  0  0  0  0  0  0  0
  141.0190   81.4230  219.1460 C   0  0  0  0  0  0  0  0  0  0  0  0
  140.7720   83.1620  219.2090 Cl  0  0  0  0  0  0  0  0  0  0  0  0
  142.0580   80.8610  218.3900 C   0  0  0  0  0  0  0  0  0  0  0  0
  143.1650   81.8710  217.4700 Cl  0  0  0  0  0  0  0  0  0  0  0  0
  142.2270   79.4730  218.3650 C   0  0  0  0  0  0  0  0  0  0  0  0
  138.4588   76.5526  219.6037 H   0  0  0  0  0  0  0  0  0  0  0  0
  139.2734   77.2874  218.1814 H   0  0  0  0  0  0  0  0  0  0  0  0
  138.8724   75.5365  218.1814 H   0  0  0  0  0  0  0  0  0  0  0  0
  140.9481   75.1394  218.9821 H   0  0  0  0  0  0  0  0  0  0  0  0
  139.3808   75.7454  221.2180 H   0  0  0  0  0  0  0  0  0  0  0  0
  140.8902   74.7484  221.1080 H   0  0  0  0  0  0  0  0  0  0  0  0
  142.1660   76.5330  221.9720 H   0  0  0  0  0  0  0  0  0  0  0  0
  139.3071   79.9761  223.4968 H   0  0  0  0  0  0  0  0  0  0  0  0
  140.4359   82.0743  224.2269 H   0  0  0  0  0  0  0  0  0  0  0  0
  142.9231   82.2542  224.1410 H   0  0  0  0  0  0  0  0  0  0  0  0
  144.2844   80.3315  223.3230 H   0  0  0  0  0  0  0  0  0  0  0  0
  143.1700   78.2283  222.5872 H   0  0  0  0  0  0  0  0  0  0  0  0
  141.6654   76.9932  217.9359 H   0  0  0  0  0  0  0  0  0  0  0  0
  143.3860   77.4940  220.2470 H   0  0  0  0  0  0  0  0  0  0  0  0
  142.6666   74.9938  217.6559 H   0  0  0  0  0  0  0  0  0  0  0  0
  143.7546   72.7644  217.4633 H   0  0  0  0  0  0  0  0  0  0  0  0
  144.8600   75.7528  221.3090 H   0  0  0  0  0  0  0  0  0  0  0  0
  139.6508   78.5604  220.4196 H   0  0  0  0  0  0  0  0  0  0  0  0
  139.3473   81.0289  220.4624 H   0  0  0  0  0  0  0  0  0  0  0  0
  143.0419   79.0394  217.7667 H   0  0  0  0  0  0  0  0  0  0  0  0
  1  2  1  0
  2  3  1  0
  3  4  1  0
  4  5  1  0
  5  6  2  0
  5  7  1  0
  7  8  2  0
  8  9  1  0
  9 10  2  0
 10 11  1  0
 11 12  2  0
  2 13  1  0
 13 14  1  0
 14 15  1  0
 15 16  2  0
 16 17  1  0
 17 18  2  0
 18 19  1  0
 19 20  3  0
 18 21  1  0
 21 22  1  0
 21 23  2  0
 13 24  1  0
 24 25  2  0
 25 26  1  0
 26 27  2  0
 27 28  1  0
 27 29  1  0
 29 30  1  0
 29 31  2  0
 12  7  1  0
 23 15  1  0
 31 24  1  0
  1 32  1  0
  1 33  1  0
  1 34  1  0
  2 35  1  6
  3 36  1  0
  3 37  1  0
  4 38  1  0
  8 39  1  0
  9 40  1  0
 10 41  1  0
 11 42  1  0
 12 43  1  0
 13 44  1  6
 14 45  1  0
 16 46  1  0
 17 47  1  0
 23 48  1  0
 25 49  1  0
 26 50  1  0
 31 51  1  0
M  END
>  <UniqueID>  (29) 
29

>  <SMILES>  (29) 
C[C@H](CNC(=O)c1ccccc1)[C@H](Nc1ccc(C#N)c(Cl)c1)c1ccc(Cl)c(Cl)c1

>  <Energy>  (29) 
63.1851930228045

>  <Genealogy>  (29) 
C[C@H](CNC(=O)c1ccccc1)[C@H](Nc1ccc(C#N)c(Cl)c1)c1ccc(Cl)c(Cl)c1 (chirality)
C[C@H](CNC(=O)c1ccccc1)[C@H](Nc1ccc(C#N)c(Cl)c1)c1ccc(Cl)c(Cl)c1 (3D coordinates assigned)
C[C@H](CNC(=O)c1ccccc1)[C@H](Nc1ccc(C#N)c(Cl)c1)c1ccc(Cl)c(Cl)c1 (optimized conformer: 63.1851930228045 kcal/mol)

>  <smiles>  (29) 
CC(CNC(=O)c1ccccc1)C(Nc1ccc(C#N)c(Cl)c1)c1ccc(Cl)c(Cl)c1

>  <score_type>  (29) 
oracle

>  <origin>  (29) 
autodockgpu

>  <m_score__min__energy>  (29) 
-9.3100000000000005

>  <m_primary>  (29) 
energy

>  <meeko>  (29) 
{"free_energy": -8.3, "intermolecular_energy": -10.68, "internal_energy": -2.22, "cluster_size": 3, "cluster_id": 5, "rank_in_cluster": 1}

>  <energy>  (29) 
-8.21

>  <cluster_rmsd>  (29) 
1.45

>  <rmsd>  (29) 
272.37

>  <cluster>  (29) 
1

$$$$
CBUCDBLHFQUVQW-JFARMPSENA-N
     RDKit          3D

 51 53  0  0  0  0  0  0  0  0999 V2000
  138.6590   76.0090  222.6820 C   0  0  0  0  0  0  0  0  0  0  0  0
  138.9980   75.6250  221.2320 C   0  0  2  0  0  0  0  0  0  0  0  0
  138.8160   74.1050  220.9880 C   0  0  0  0  0  0  0  0  0  0  0  0
  138.7890   73.3570  222.2470 N   0  0  0  0  0  0  0  0  0  0  0  0
  139.9580   72.6890  222.7500 C   0  0  0  0  0  0  0  0  0  0  0  0
  141.0910   73.0010  222.2890 O   0  0  0  0  0  0  0  0  0  0  0  0
  139.8610   71.6080  223.7690 C   0  0  0  0  0  0  0  0  0  0  0  0
  138.8530   70.6300  223.6590 C   0  0  0  0  0  0  0  0  0  0  0  0
  138.7090   69.6420  224.6390 C   0  0  0  0  0  0  0  0  0  0  0  0
  139.5660   69.6170  225.7390 C   0  0  0  0  0  0  0  0  0  0  0  0
  140.5690   70.5780  225.8630 C   0  0  0  0  0  0  0  0  0  0  0  0
  140.7190   71.5690  224.8880 C   0  0  0  0  0  0  0  0  0  0  0  0
  140.3450   76.2540  220.7410 C   0  0  2  0  0  0  0  0  0  0  0  0
  141.4980   75.4300  221.1460 N   0  0  0  0  0  0  0  0  0  0  0  0
  142.5540   74.9200  220.3060 C   0  0  0  0  0  0  0  0  0  0  0  0
  142.3650   74.9060  218.9150 C   0  0  0  0  0  0  0  0  0  0  0  0
  143.3260   74.3460  218.0700 C   0  0  0  0  0  0  0  0  0  0  0  0
  144.4910   73.7850  218.6030 C   0  0  0  0  0  0  0  0  0  0  0  0
  145.4570   73.1860  217.7160 C   0  0  0  0  0  0  0  0  0  0  0  0
  146.2330   72.7050  217.0050 N   0  0  0  0  0  0  0  0  0  0  0  0
  144.6950   73.7960  219.9930 C   0  0  0  0  0  0  0  0  0  0  0  0
  146.1290   73.0750  220.7170 Cl  0  0  0  0  0  0  0  0  0  0  0  0
  143.7320   74.3640  220.8350 C   0  0  0  0  0  0  0  0  0  0  0  0
  140.6160   77.7540  220.8990 C   0  0  0  0  0  0  0  0  0  0  0  0
  140.2450   78.7370  219.9590 C   0  0  0  0  0  0  0  0  0  0  0  0
  140.5040   80.0890  220.2000 C   0  0  0  0  0  0  0  0  0  0  0  0
  141.1370   80.4900  221.3790 C   0  0  0  0  0  0  0  0  0  0  0  0
  141.4380   82.2020  221.6450 Cl  0  0  0  0  0  0  0  0  0  0  0  0
  141.5150   79.5270  222.3260 C   0  0  0  0  0  0  0  0  0  0  0  0
  142.3060   79.9870  223.8260 Cl  0  0  0  0  0  0  0  0  0  0  0  0
  141.2560   78.1740  222.0820 C   0  0  0  0  0  0  0  0  0  0  0  0
  139.2253   75.3675  223.3732 H   0  0  0  0  0  0  0  0  0  0  0  0
  138.9279   77.0615  222.8550 H   0  0  0  0  0  0  0  0  0  0  0  0
  137.5813   75.8727  222.8550 H   0  0  0  0  0  0  0  0  0  0  0  0
  138.2584   76.0908  220.5641 H   0  0  0  0  0  0  0  0  0  0  0  0
  137.8685   73.9399  220.4542 H   0  0  0  0  0  0  0  0  0  0  0  0
  139.6692   73.7471  220.3930 H   0  0  0  0  0  0  0  0  0  0  0  0
  137.9680   73.4860  222.8780 H   0  0  0  0  0  0  0  0  0  0  0  0
  138.1729   70.6433  222.7946 H   0  0  0  0  0  0  0  0  0  0  0  0
  137.9183   68.8835  224.5418 H   0  0  0  0  0  0  0  0  0  0  0  0
  139.4508   68.8395  226.5086 H   0  0  0  0  0  0  0  0  0  0  0  0
  141.2445   70.5563  226.7309 H   0  0  0  0  0  0  0  0  0  0  0  0
  141.5120   72.3239  224.9944 H   0  0  0  0  0  0  0  0  0  0  0  0
  140.1896   76.2256  219.6524 H   0  0  0  0  0  0  0  0  0  0  0  0
  141.5070   75.1290  222.1490 H   0  0  0  0  0  0  0  0  0  0  0  0
  141.4502   75.3407  218.4858 H   0  0  0  0  0  0  0  0  0  0  0  0
  143.1660   74.3462  216.9817 H   0  0  0  0  0  0  0  0  0  0  0  0
  143.8986   74.3755  221.9223 H   0  0  0  0  0  0  0  0  0  0  0  0
  139.7462   78.4366  219.0257 H   0  0  0  0  0  0  0  0  0  0  0  0
  140.2073   80.8429  219.4559 H   0  0  0  0  0  0  0  0  0  0  0  0
  141.5577   77.4238  222.8278 H   0  0  0  0  0  0  0  0  0  0  0  0
  1  2  1  0
  2  3  1  0
  3  4  1  0
  4  5  1  0
  5  6  2  0
  5  7  1  0
  7  8  2  0
  8  9  1  0
  9 10  2  0
 10 11  1  0
 11 12  2  0
  2 13  1  0
 13 14  1  0
 14 15  1  0
 15 16  2  0
 16 17  1  0
 17 18  2  0
 18 19  1  0
 19 20  3  0
 18 21  1  0
 21 22  1  0
 21 23  2  0
 13 24  1  0
 24 25  2  0
 25 26  1  0
 26 27  2  0
 27 28  1  0
 27 29  1  0
 29 30  1  0
 29 31  2  0
 12  7  1  0
 23 15  1  0
 31 24  1  0
  1 32  1  0
  1 33  1  0
  1 34  1  0
  2 35  1  6
  3 36  1  0
  3 37  1  0
  4 38  1  0
  8 39  1  0
  9 40  1  0
 10 41  1  0
 11 42  1  0
 12 43  1  0
 13 44  1  6
 14 45  1  0
 16 46  1  0
 17 47  1  0
 23 48  1  0
 25 49  1  0
 26 50  1  0
 31 51  1  0
M  END
>  <UniqueID>  (30) 
29

>  <SMILES>  (30) 
C[C@H](CNC(=O)c1ccccc1)[C@H](Nc1ccc(C#N)c(Cl)c1)c1ccc(Cl)c(Cl)c1

>  <Energy>  (30) 
63.1851930228045

>  <Genealogy>  (30) 
C[C@H](CNC(=O)c1ccccc1)[C@H](Nc1ccc(C#N)c(Cl)c1)c1ccc(Cl)c(Cl)c1 (chirality)
C[C@H](CNC(=O)c1ccccc1)[C@H](Nc1ccc(C#N)c(Cl)c1)c1ccc(Cl)c(Cl)c1 (3D coordinates assigned)
C[C@H](CNC(=O)c1ccccc1)[C@H](Nc1ccc(C#N)c(Cl)c1)c1ccc(Cl)c(Cl)c1 (optimized conformer: 63.1851930228045 kcal/mol)

>  <smiles>  (30) 
CC(CNC(=O)c1ccccc1)C(Nc1ccc(C#N)c(Cl)c1)c1ccc(Cl)c(Cl)c1

>  <score_type>  (30) 
oracle

>  <origin>  (30) 
autodockgpu

>  <m_score__min__energy>  (30) 
-9.3100000000000005

>  <m_primary>  (30) 
energy

>  <meeko>  (30) 
{"free_energy": -8.03, "intermolecular_energy": -10.42, "internal_energy": -2.16, "cluster_size": 2, "cluster_id": 3, "rank_in_cluster": 2}

>  <energy>  (30) 
-9.16

>  <cluster_rmsd>  (30) 
0.0

>  <rmsd>  (30) 
272.71

>  <cluster>  (30) 
2

$$$$
CBUCDBLHFQUVQW-JFARMPSENA-N
     RDKit          3D

 51 53  0  0  0  0  0  0  0  0999 V2000
  139.4870   73.0800  218.6380 C   0  0  0  0  0  0  0  0  0  0  0  0
  139.0140   73.0800  220.1020 C   0  0  2  0  0  0  0  0  0  0  0  0
  138.4470   74.4610  220.5170 C   0  0  0  0  0  0  0  0  0  0  0  0
  139.4970   75.4790  220.5780 N   0  0  0  0  0  0  0  0  0  0  0  0
  139.8980   76.0730  221.8240 C   0  0  0  0  0  0  0  0  0  0  0  0
  139.5830   75.5030  222.9060 O   0  0  0  0  0  0  0  0  0  0  0  0
  140.6360   77.3640  221.8710 C   0  0  0  0  0  0  0  0  0  0  0  0
  140.9390   78.0430  220.6740 C   0  0  0  0  0  0  0  0  0  0  0  0
  141.6830   79.2260  220.6940 C   0  0  0  0  0  0  0  0  0  0  0  0
  142.1350   79.7490  221.9060 C   0  0  0  0  0  0  0  0  0  0  0  0
  141.8440   79.0900  223.1010 C   0  0  0  0  0  0  0  0  0  0  0  0
  141.1000   77.9060  223.0880 C   0  0  0  0  0  0  0  0  0  0  0  0
  140.0600   72.4350  221.0730 C   0  0  2  0  0  0  0  0  0  0  0  0
  139.6210   72.5400  222.4750 N   0  0  0  0  0  0  0  0  0  0  0  0
  139.7620   71.5530  223.5190 C   0  0  0  0  0  0  0  0  0  0  0  0
  139.2310   70.2700  223.3120 C   0  0  0  0  0  0  0  0  0  0  0  0
  139.2710   69.3100  224.3250 C   0  0  0  0  0  0  0  0  0  0  0  0
  139.8380   69.6190  225.5660 C   0  0  0  0  0  0  0  0  0  0  0  0
  139.8440   68.6230  226.6080 C   0  0  0  0  0  0  0  0  0  0  0  0
  139.8500   67.8210  227.4430 N   0  0  0  0  0  0  0  0  0  0  0  0
  140.3780   70.8980  225.7850 C   0  0  0  0  0  0  0  0  0  0  0  0
  141.0740   71.3480  227.3380 Cl  0  0  0  0  0  0  0  0  0  0  0  0
  140.3400   71.8550  224.7640 C   0  0  0  0  0  0  0  0  0  0  0  0
  141.5580   72.7080  220.9070 C   0  0  0  0  0  0  0  0  0  0  0  0
  142.5740   71.7570  221.1310 C   0  0  0  0  0  0  0  0  0  0  0  0
  143.9180   72.0850  220.9240 C   0  0  0  0  0  0  0  0  0  0  0  0
  144.2760   73.3640  220.4920 C   0  0  0  0  0  0  0  0  0  0  0  0
  145.9760   73.7320  220.2380 Cl  0  0  0  0  0  0  0  0  0  0  0  0
  143.2800   74.3240  220.2650 C   0  0  0  0  0  0  0  0  0  0  0  0
  143.6850   75.9430  219.7130 Cl  0  0  0  0  0  0  0  0  0  0  0  0
  141.9370   73.9950  220.4740 C   0  0  0  0  0  0  0  0  0  0  0  0
  139.5997   72.0429  218.2891 H   0  0  0  0  0  0  0  0  0  0  0  0
  138.7451   73.5985  218.0130 H   0  0  0  0  0  0  0  0  0  0  0  0
  140.4544   73.5985  218.5652 H   0  0  0  0  0  0  0  0  0  0  0  0
  138.1524   72.4021  220.1922 H   0  0  0  0  0  0  0  0  0  0  0  0
  137.6908   74.7720  219.7812 H   0  0  0  0  0  0  0  0  0  0  0  0
  138.0039   74.3637  221.5191 H   0  0  0  0  0  0  0  0  0  0  0  0
  140.0950   75.6190  219.7340 H   0  0  0  0  0  0  0  0  0  0  0  0
  140.5864   77.6378  219.7140 H   0  0  0  0  0  0  0  0  0  0  0  0
  141.9127   79.7459  219.7522 H   0  0  0  0  0  0  0  0  0  0  0  0
  142.7204   80.6802  221.9195 H   0  0  0  0  0  0  0  0  0  0  0  0
  142.2008   79.5030  224.0560 H   0  0  0  0  0  0  0  0  0  0  0  0
  140.8747   77.3930  224.0346 H   0  0  0  0  0  0  0  0  0  0  0  0
  140.0409   71.3931  220.7208 H   0  0  0  0  0  0  0  0  0  0  0  0
  139.0880   73.4080  222.7180 H   0  0  0  0  0  0  0  0  0  0  0  0
  138.7786   70.0184  222.3414 H   0  0  0  0  0  0  0  0  0  0  0  0
  138.8553   68.3073  224.1467 H   0  0  0  0  0  0  0  0  0  0  0  0
  140.7669   72.8537  224.9380 H   0  0  0  0  0  0  0  0  0  0  0  0
  142.3071   70.7459  221.4723 H   0  0  0  0  0  0  0  0  0  0  0  0
  144.6982   71.3305  221.1027 H   0  0  0  0  0  0  0  0  0  0  0  0
  141.1615   74.7549  220.2972 H   0  0  0  0  0  0  0  0  0  0  0  0
  1  2  1  0
  2  3  1  0
  3  4  1  0
  4  5  1  0
  5  6  2  0
  5  7  1  0
  7  8  2  0
  8  9  1  0
  9 10  2  0
 10 11  1  0
 11 12  2  0
  2 13  1  0
 13 14  1  0
 14 15  1  0
 15 16  2  0
 16 17  1  0
 17 18  2  0
 18 19  1  0
 19 20  3  0
 18 21  1  0
 21 22  1  0
 21 23  2  0
 13 24  1  0
 24 25  2  0
 25 26  1  0
 26 27  2  0
 27 28  1  0
 27 29  1  0
 29 30  1  0
 29 31  2  0
 12  7  1  0
 23 15  1  0
 31 24  1  0
  1 32  1  0
  1 33  1  0
  1 34  1  0
  2 35  1  6
  3 36  1  0
  3 37  1  0
  4 38  1  0
  8 39  1  0
  9 40  1  0
 10 41  1  0
 11 42  1  0
 12 43  1  0
 13 44  1  6
 14 45  1  0
 16 46  1  0
 17 47  1  0
 23 48  1  0
 25 49  1  0
 26 50  1  0
 31 51  1  0
M  END
>  <UniqueID>  (31) 
29

>  <SMILES>  (31) 
C[C@H](CNC(=O)c1ccccc1)[C@H](Nc1ccc(C#N)c(Cl)c1)c1ccc(Cl)c(Cl)c1

>  <Energy>  (31) 
63.1851930228045

>  <Genealogy>  (31) 
C[C@H](CNC(=O)c1ccccc1)[C@H](Nc1ccc(C#N)c(Cl)c1)c1ccc(Cl)c(Cl)c1 (chirality)
C[C@H](CNC(=O)c1ccccc1)[C@H](Nc1ccc(C#N)c(Cl)c1)c1ccc(Cl)c(Cl)c1 (3D coordinates assigned)
C[C@H](CNC(=O)c1ccccc1)[C@H](Nc1ccc(C#N)c(Cl)c1)c1ccc(Cl)c(Cl)c1 (optimized conformer: 63.1851930228045 kcal/mol)

>  <smiles>  (31) 
CC(CNC(=O)c1ccccc1)C(Nc1ccc(C#N)c(Cl)c1)c1ccc(Cl)c(Cl)c1

>  <score_type>  (31) 
oracle

>  <origin>  (31) 
autodockgpu

>  <m_score__min__energy>  (31) 
-9.3100000000000005

>  <m_primary>  (31) 
energy

>  <meeko>  (31) 
{"free_energy": -8.4, "intermolecular_energy": -10.79, "internal_energy": -2.63, "cluster_size": 9, "cluster_id": 1, "rank_in_cluster": 6}

>  <energy>  (31) 
-8.49

>  <cluster_rmsd>  (31) 
0.0

>  <rmsd>  (31) 
272.33

>  <cluster>  (31) 
3

$$$$
CBUCDBLHFQUVQW-JFARMPSENA-N
     RDKit          3D

 51 53  0  0  0  0  0  0  0  0999 V2000
  139.5230   73.0150  218.6240 C   0  0  0  0  0  0  0  0  0  0  0  0
  139.0490   73.0370  220.0880 C   0  0  2  0  0  0  0  0  0  0  0  0
  138.4790   74.4240  220.4810 C   0  0  0  0  0  0  0  0  0  0  0  0
  139.5330   75.4370  220.5600 N   0  0  0  0  0  0  0  0  0  0  0  0
  139.9100   76.0340  221.8120 C   0  0  0  0  0  0  0  0  0  0  0  0
  139.5700   75.4700  222.8890 O   0  0  0  0  0  0  0  0  0  0  0  0
  140.6540   77.3220  221.8700 C   0  0  0  0  0  0  0  0  0  0  0  0
  140.9800   77.9970  220.6760 C   0  0  0  0  0  0  0  0  0  0  0  0
  141.7300   79.1770  220.7080 C   0  0  0  0  0  0  0  0  0  0  0  0
  142.1630   79.6990  221.9260 C   0  0  0  0  0  0  0  0  0  0  0  0
  141.8490   79.0430  223.1170 C   0  0  0  0  0  0  0  0  0  0  0  0
  141.1000   77.8630  223.0930 C   0  0  0  0  0  0  0  0  0  0  0  0
  140.0950   72.4090  221.0700 C   0  0  2  0  0  0  0  0  0  0  0  0
  139.6540   72.5340  222.4700 N   0  0  0  0  0  0  0  0  0  0  0  0
  139.7840   71.5580  223.5250 C   0  0  0  0  0  0  0  0  0  0  0  0
  139.2570   70.2720  223.3250 C   0  0  0  0  0  0  0  0  0  0  0  0
  139.2870   69.3220  224.3480 C   0  0  0  0  0  0  0  0  0  0  0  0
  139.8400   69.6450  225.5920 C   0  0  0  0  0  0  0  0  0  0  0  0
  139.8350   68.6590  226.6440 C   0  0  0  0  0  0  0  0  0  0  0  0
  139.8290   67.8660  227.4870 N   0  0  0  0  0  0  0  0  0  0  0  0
  140.3750   70.9260  225.8040 C   0  0  0  0  0  0  0  0  0  0  0  0
  141.0530   71.3920  227.3610 Cl  0  0  0  0  0  0  0  0  0  0  0  0
  140.3470   71.8730  224.7740 C   0  0  0  0  0  0  0  0  0  0  0  0
  141.5930   72.6840  220.9020 C   0  0  0  0  0  0  0  0  0  0  0  0
  142.6100   71.7320  221.1190 C   0  0  0  0  0  0  0  0  0  0  0  0
  143.9520   72.0620  220.9110 C   0  0  0  0  0  0  0  0  0  0  0  0
  144.3100   73.3430  220.4850 C   0  0  0  0  0  0  0  0  0  0  0  0
  146.0090   73.7140  220.2300 Cl  0  0  0  0  0  0  0  0  0  0  0  0
  143.3130   74.3050  220.2650 C   0  0  0  0  0  0  0  0  0  0  0  0
  143.7150   75.9270  219.7220 Cl  0  0  0  0  0  0  0  0  0  0  0  0
  141.9700   73.9730  220.4760 C   0  0  0  0  0  0  0  0  0  0  0  0
  140.6214   72.9640  218.5950 H   0  0  0  0  0  0  0  0  0  0  0  0
  139.1015   72.1355  218.1153 H   0  0  0  0  0  0  0  0  0  0  0  0
  139.1848   73.9298  218.1153 H   0  0  0  0  0  0  0  0  0  0  0  0
  138.1887   72.3588  220.1881 H   0  0  0  0  0  0  0  0  0  0  0  0
  137.7418   74.7340  219.7258 H   0  0  0  0  0  0  0  0  0  0  0  0
  138.0118   74.3355  221.4729 H   0  0  0  0  0  0  0  0  0  0  0  0
  140.1490   75.5710  219.7280 H   0  0  0  0  0  0  0  0  0  0  0  0
  140.6415   77.5921  219.7109 H   0  0  0  0  0  0  0  0  0  0  0  0
  141.9789   79.6945  219.7698 H   0  0  0  0  0  0  0  0  0  0  0  0
  142.7520   80.6277  221.9482 H   0  0  0  0  0  0  0  0  0  0  0  0
  142.1918   79.4556  224.0773 H   0  0  0  0  0  0  0  0  0  0  0  0
  140.8566   77.3523  224.0363 H   0  0  0  0  0  0  0  0  0  0  0  0
  140.0786   71.3618  220.7337 H   0  0  0  0  0  0  0  0  0  0  0  0
  139.1270   73.4090  222.7010 H   0  0  0  0  0  0  0  0  0  0  0  0
  138.8158   70.0101  222.3520 H   0  0  0  0  0  0  0  0  0  0  0  0
  138.8747   68.3169  224.1754 H   0  0  0  0  0  0  0  0  0  0  0  0
  140.7699   72.8742  224.9435 H   0  0  0  0  0  0  0  0  0  0  0  0
  142.3444   70.7190  221.4555 H   0  0  0  0  0  0  0  0  0  0  0  0
  144.7327   71.3067  221.0842 H   0  0  0  0  0  0  0  0  0  0  0  0
  141.1935   74.7333  220.3059 H   0  0  0  0  0  0  0  0  0  0  0  0
  1  2  1  0
  2  3  1  0
  3  4  1  0
  4  5  1  0
  5  6  2  0
  5  7  1  0
  7  8  2  0
  8  9  1  0
  9 10  2  0
 10 11  1  0
 11 12  2  0
  2 13  1  0
 13 14  1  0
 14 15  1  0
 15 16  2  0
 16 17  1  0
 17 18  2  0
 18 19  1  0
 19 20  3  0
 18 21  1  0
 21 22  1  0
 21 23  2  0
 13 24  1  0
 24 25  2  0
 25 26  1  0
 26 27  2  0
 27 28  1  0
 27 29  1  0
 29 30  1  0
 29 31  2  0
 12  7  1  0
 23 15  1  0
 31 24  1  0
  1 32  1  0
  1 33  1  0
  1 34  1  0
  2 35  1  6
  3 36  1  0
  3 37  1  0
  4 38  1  0
  8 39  1  0
  9 40  1  0
 10 41  1  0
 11 42  1  0
 12 43  1  0
 13 44  1  6
 14 45  1  0
 16 46  1  0
 17 47  1  0
 23 48  1  0
 25 49  1  0
 26 50  1  0
 31 51  1  0
M  END
>  <UniqueID>  (32) 
29

>  <SMILES>  (32) 
C[C@H](CNC(=O)c1ccccc1)[C@H](Nc1ccc(C#N)c(Cl)c1)c1ccc(Cl)c(Cl)c1

>  <Energy>  (32) 
63.1851930228045

>  <Genealogy>  (32) 
C[C@H](CNC(=O)c1ccccc1)[C@H](Nc1ccc(C#N)c(Cl)c1)c1ccc(Cl)c(Cl)c1 (chirality)
C[C@H](CNC(=O)c1ccccc1)[C@H](Nc1ccc(C#N)c(Cl)c1)c1ccc(Cl)c(Cl)c1 (3D coordinates assigned)
C[C@H](CNC(=O)c1ccccc1)[C@H](Nc1ccc(C#N)c(Cl)c1)c1ccc(Cl)c(Cl)c1 (optimized conformer: 63.1851930228045 kcal/mol)

>  <smiles>  (32) 
CC(CNC(=O)c1ccccc1)C(Nc1ccc(C#N)c(Cl)c1)c1ccc(Cl)c(Cl)c1

>  <score_type>  (32) 
oracle

>  <origin>  (32) 
autodockgpu

>  <m_score__min__energy>  (32) 
-9.3100000000000005

>  <m_primary>  (32) 
energy

>  <meeko>  (32) 
{"free_energy": -8.39, "intermolecular_energy": -10.78, "internal_energy": -2.63, "cluster_size": 9, "cluster_id": 1, "rank_in_cluster": 7}

>  <energy>  (32) 
-8.03

>  <cluster_rmsd>  (32) 
1.4

>  <rmsd>  (32) 
272.35

>  <cluster>  (32) 
3

$$$$
CBUCDBLHFQUVQW-JFARMPSENA-N
     RDKit          3D

 51 53  0  0  0  0  0  0  0  0999 V2000
  138.6570   74.8050  219.6210 C   0  0  0  0  0  0  0  0  0  0  0  0
  139.7920   74.7840  220.6600 C   0  0  2  0  0  0  0  0  0  0  0  0
  140.9800   75.6770  220.2220 C   0  0  0  0  0  0  0  0  0  0  0  0
  141.4060   76.5730  221.2990 N   0  0  0  0  0  0  0  0  0  0  0  0
  140.6050   77.6950  221.7060 C   0  0  0  0  0  0  0  0  0  0  0  0
  139.3900   77.7370  221.3670 O   0  0  0  0  0  0  0  0  0  0  0  0
  141.1840   78.8280  222.4780 C   0  0  0  0  0  0  0  0  0  0  0  0
  140.3310   79.7300  223.1460 C   0  0  0  0  0  0  0  0  0  0  0  0
  140.8540   80.8340  223.8260 C   0  0  0  0  0  0  0  0  0  0  0  0
  142.2310   81.0540  223.8500 C   0  0  0  0  0  0  0  0  0  0  0  0
  143.0900   80.1710  223.1940 C   0  0  0  0  0  0  0  0  0  0  0  0
  142.5740   79.0650  222.5120 C   0  0  0  0  0  0  0  0  0  0  0  0
  140.1460   73.3350  221.1360 C   0  0  2  0  0  0  0  0  0  0  0  0
  139.8970   73.1710  222.5780 N   0  0  0  0  0  0  0  0  0  0  0  0
  139.8450   71.9390  223.3290 C   0  0  0  0  0  0  0  0  0  0  0  0
  139.2030   70.8280  222.7610 C   0  0  0  0  0  0  0  0  0  0  0  0
  139.0560   69.6420  223.4840 C   0  0  0  0  0  0  0  0  0  0  0  0
  139.5460   69.5500  224.7910 C   0  0  0  0  0  0  0  0  0  0  0  0
  139.3590   68.3260  225.5300 C   0  0  0  0  0  0  0  0  0  0  0  0
  139.2100   67.3430  226.1220 N   0  0  0  0  0  0  0  0  0  0  0  0
  140.1950   70.6530  225.3700 C   0  0  0  0  0  0  0  0  0  0  0  0
  140.8000   70.6000  227.0230 Cl  0  0  0  0  0  0  0  0  0  0  0  0
  140.3440   71.8380  224.6390 C   0  0  0  0  0  0  0  0  0  0  0  0
  141.4450   72.6570  220.6870 C   0  0  0  0  0  0  0  0  0  0  0  0
  141.5110   71.4110  220.0310 C   0  0  0  0  0  0  0  0  0  0  0  0
  142.7410   70.8800  219.6290 C   0  0  0  0  0  0  0  0  0  0  0  0
  143.9270   71.5770  219.8700 C   0  0  0  0  0  0  0  0  0  0  0  0
  145.4500   70.8780  219.3410 Cl  0  0  0  0  0  0  0  0  0  0  0  0
  143.8820   72.8180  220.5220 C   0  0  0  0  0  0  0  0  0  0  0  0
  145.3480   73.7340  220.8410 Cl  0  0  0  0  0  0  0  0  0  0  0  0
  142.6510   73.3460  220.9260 C   0  0  0  0  0  0  0  0  0  0  0  0
  137.6865   74.8230  220.1385 H   0  0  0  0  0  0  0  0  0  0  0  0
  138.7532   75.7015  218.9909 H   0  0  0  0  0  0  0  0  0  0  0  0
  138.7200   73.9055  218.9909 H   0  0  0  0  0  0  0  0  0  0  0  0
  139.4310   75.2583  221.5845 H   0  0  0  0  0  0  0  0  0  0  0  0
  141.8252   75.0328  219.9381 H   0  0  0  0  0  0  0  0  0  0  0  0
  140.6525   76.2927  219.3713 H   0  0  0  0  0  0  0  0  0  0  0  0
  142.1980   76.2690  221.9070 H   0  0  0  0  0  0  0  0  0  0  0  0
  139.2437   79.5637  223.1321 H   0  0  0  0  0  0  0  0  0  0  0  0
  140.1779   81.5307  224.3433 H   0  0  0  0  0  0  0  0  0  0  0  0
  142.6400   81.9233  224.3859 H   0  0  0  0  0  0  0  0  0  0  0  0
  144.1759   80.3457  223.2136 H   0  0  0  0  0  0  0  0  0  0  0  0
  143.2578   78.3738  221.9976 H   0  0  0  0  0  0  0  0  0  0  0  0
  139.4343   72.7503  220.5346 H   0  0  0  0  0  0  0  0  0  0  0  0
  139.6650   74.0500  223.0990 H   0  0  0  0  0  0  0  0  0  0  0  0
  138.8112   70.8918  221.7351 H   0  0  0  0  0  0  0  0  0  0  0  0
  138.5536   68.7781  223.0244 H   0  0  0  0  0  0  0  0  0  0  0  0
  140.8565   72.6981  225.0945 H   0  0  0  0  0  0  0  0  0  0  0  0
  140.5855   70.8504  219.8332 H   0  0  0  0  0  0  0  0  0  0  0  0
  142.7744   69.9059  219.1191 H   0  0  0  0  0  0  0  0  0  0  0  0
  142.6239   74.3180  221.4403 H   0  0  0  0  0  0  0  0  0  0  0  0
  1  2  1  0
  2  3  1  0
  3  4  1  0
  4  5  1  0
  5  6  2  0
  5  7  1  0
  7  8  2  0
  8  9  1  0
  9 10  2  0
 10 11  1  0
 11 12  2  0
  2 13  1  0
 13 14  1  0
 14 15  1  0
 15 16  2  0
 16 17  1  0
 17 18  2  0
 18 19  1  0
 19 20  3  0
 18 21  1  0
 21 22  1  0
 21 23  2  0
 13 24  1  0
 24 25  2  0
 25 26  1  0
 26 27  2  0
 27 28  1  0
 27 29  1  0
 29 30  1  0
 29 31  2  0
 12  7  1  0
 23 15  1  0
 31 24  1  0
  1 32  1  0
  1 33  1  0
  1 34  1  0
  2 35  1  1
  3 36  1  0
  3 37  1  0
  4 38  1  0
  8 39  1  0
  9 40  1  0
 10 41  1  0
 11 42  1  0
 12 43  1  0
 13 44  1  6
 14 45  1  0
 16 46  1  0
 17 47  1  0
 23 48  1  0
 25 49  1  0
 26 50  1  0
 31 51  1  0
M  END
>  <UniqueID>  (33) 
29

>  <SMILES>  (33) 
C[C@H](CNC(=O)c1ccccc1)[C@H](Nc1ccc(C#N)c(Cl)c1)c1ccc(Cl)c(Cl)c1

>  <Energy>  (33) 
63.1851930228045

>  <Genealogy>  (33) 
C[C@H](CNC(=O)c1ccccc1)[C@H](Nc1ccc(C#N)c(Cl)c1)c1ccc(Cl)c(Cl)c1 (chirality)
C[C@H](CNC(=O)c1ccccc1)[C@H](Nc1ccc(C#N)c(Cl)c1)c1ccc(Cl)c(Cl)c1 (3D coordinates assigned)
C[C@H](CNC(=O)c1ccccc1)[C@H](Nc1ccc(C#N)c(Cl)c1)c1ccc(Cl)c(Cl)c1 (optimized conformer: 63.1851930228045 kcal/mol)

>  <smiles>  (33) 
CC(CNC(=O)c1ccccc1)C(Nc1ccc(C#N)c(Cl)c1)c1ccc(Cl)c(Cl)c1

>  <score_type>  (33) 
oracle

>  <origin>  (33) 
autodockgpu

>  <m_score__min__energy>  (33) 
-9.3100000000000005

>  <m_primary>  (33) 
energy

>  <meeko>  (33) 
{"free_energy": -9.31, "intermolecular_energy": -11.69, "internal_energy": -1.29, "cluster_size": 9, "cluster_id": 1, "rank_in_cluster": 1}

>  <energy>  (33) 
-8.37

>  <cluster_rmsd>  (33) 
0.0

>  <rmsd>  (33) 
272.4

>  <cluster>  (33) 
4

$$$$
CBUCDBLHFQUVQW-JFARMPSENA-N
     RDKit          3D

 51 53  0  0  0  0  0  0  0  0999 V2000
  138.2620   73.0340  221.9540 C   0  0  0  0  0  0  0  0  0  0  0  0
  139.6840   73.5470  222.2450 C   0  0  2  0  0  0  0  0  0  0  0  0
  140.1640   74.5410  221.1570 C   0  0  0  0  0  0  0  0  0  0  0  0
  140.9620   75.6260  221.7320 N   0  0  0  0  0  0  0  0  0  0  0  0
  140.3490   76.8200  222.2450 C   0  0  0  0  0  0  0  0  0  0  0  0
  139.1120   76.8160  222.4990 O   0  0  0  0  0  0  0  0  0  0  0  0
  141.1270   78.0740  222.4410 C   0  0  0  0  0  0  0  0  0  0  0  0
  141.4990   78.4710  223.7410 C   0  0  0  0  0  0  0  0  0  0  0  0
  142.1780   79.6750  223.9500 C   0  0  0  0  0  0  0  0  0  0  0  0
  142.4940   80.4980  222.8700 C   0  0  0  0  0  0  0  0  0  0  0  0
  142.1330   80.1200  221.5760 C   0  0  0  0  0  0  0  0  0  0  0  0
  141.4530   78.9170  221.3590 C   0  0  0  0  0  0  0  0  0  0  0  0
  140.6740   72.3940  222.6230 C   0  0  2  0  0  0  0  0  0  0  0  0
  141.1510   71.6860  221.4220 N   0  0  0  0  0  0  0  0  0  0  0  0
  142.2260   72.0720  220.5400 C   0  0  0  0  0  0  0  0  0  0  0  0
  142.1330   71.7470  219.1780 C   0  0  0  0  0  0  0  0  0  0  0  0
  143.1860   72.0270  218.3040 C   0  0  0  0  0  0  0  0  0  0  0  0
  144.3530   72.6330  218.7800 C   0  0  0  0  0  0  0  0  0  0  0  0
  145.4390   72.8870  217.8670 C   0  0  0  0  0  0  0  0  0  0  0  0
  146.3110   73.0940  217.1340 N   0  0  0  0  0  0  0  0  0  0  0  0
  144.4580   72.9680  220.1410 C   0  0  0  0  0  0  0  0  0  0  0  0
  145.9180   73.7010  220.7960 Cl  0  0  0  0  0  0  0  0  0  0  0  0
  143.3980   72.6890  221.0110 C   0  0  0  0  0  0  0  0  0  0  0  0
  140.3640   71.4400  223.7800 C   0  0  0  0  0  0  0  0  0  0  0  0
  139.7650   70.1720  223.6330 C   0  0  0  0  0  0  0  0  0  0  0  0
  139.5460   69.3520  224.7440 C   0  0  0  0  0  0  0  0  0  0  0  0
  139.9180   69.7760  226.0210 C   0  0  0  0  0  0  0  0  0  0  0  0
  139.6320   68.7110  227.3900 Cl  0  0  0  0  0  0  0  0  0  0  0  0
  140.5140   71.0340  226.1890 C   0  0  0  0  0  0  0  0  0  0  0  0
  141.0050   71.6060  227.7770 Cl  0  0  0  0  0  0  0  0  0  0  0  0
  140.7300   71.8540  225.0760 C   0  0  0  0  0  0  0  0  0  0  0  0
  137.7389   72.8453  222.9031 H   0  0  0  0  0  0  0  0  0  0  0  0
  137.7107   73.7899  221.3755 H   0  0  0  0  0  0  0  0  0  0  0  0
  138.3203   72.1002  221.3755 H   0  0  0  0  0  0  0  0  0  0  0  0
  139.6583   74.1522  223.1632 H   0  0  0  0  0  0  0  0  0  0  0  0
  140.7768   73.9978  220.4226 H   0  0  0  0  0  0  0  0  0  0  0  0
  139.2770   74.9824  220.6790 H   0  0  0  0  0  0  0  0  0  0  0  0
  141.9630   75.4340  221.9550 H   0  0  0  0  0  0  0  0  0  0  0  0
  141.2529   77.8279  224.5988 H   0  0  0  0  0  0  0  0  0  0  0  0
  142.4637   79.9738  224.9694 H   0  0  0  0  0  0  0  0  0  0  0  0
  143.0278   81.4451  223.0377 H   0  0  0  0  0  0  0  0  0  0  0  0
  142.3838   80.7697  220.7246 H   0  0  0  0  0  0  0  0  0  0  0  0
  141.1705   78.6265  220.3364 H   0  0  0  0  0  0  0  0  0  0  0  0
  141.4798   72.9732  223.0976 H   0  0  0  0  0  0  0  0  0  0  0  0
  140.5980   70.8400  221.1480 H   0  0  0  0  0  0  0  0  0  0  0  0
  141.2209   71.2665  218.7945 H   0  0  0  0  0  0  0  0  0  0  0  0
  143.0971   71.7701  217.2381 H   0  0  0  0  0  0  0  0  0  0  0  0
  143.4828   72.9554  222.0749 H   0  0  0  0  0  0  0  0  0  0  0  0
  139.4667   69.8241  222.6330 H   0  0  0  0  0  0  0  0  0  0  0  0
  139.0773   68.3658  224.6110 H   0  0  0  0  0  0  0  0  0  0  0  0
  141.1947   72.8412  225.2156 H   0  0  0  0  0  0  0  0  0  0  0  0
  1  2  1  0
  2  3  1  0
  3  4  1  0
  4  5  1  0
  5  6  2  0
  5  7  1  0
  7  8  2  0
  8  9  1  0
  9 10  2  0
 10 11  1  0
 11 12  2  0
  2 13  1  0
 13 14  1  0
 14 15  1  0
 15 16  2  0
 16 17  1  0
 17 18  2  0
 18 19  1  0
 19 20  3  0
 18 21  1  0
 21 22  1  0
 21 23  2  0
 13 24  1  0
 24 25  2  0
 25 26  1  0
 26 27  2  0
 27 28  1  0
 27 29  1  0
 29 30  1  0
 29 31  2  0
 12  7  1  0
 23 15  1  0
 31 24  1  0
  1 32  1  0
  1 33  1  0
  1 34  1  0
  2 35  1  1
  3 36  1  0
  3 37  1  0
  4 38  1  0
  8 39  1  0
  9 40  1  0
 10 41  1  0
 11 42  1  0
 12 43  1  0
 13 44  1  1
 14 45  1  0
 16 46  1  0
 17 47  1  0
 23 48  1  0
 25 49  1  0
 26 50  1  0
 31 51  1  0
M  END
>  <UniqueID>  (34) 
29

>  <SMILES>  (34) 
C[C@H](CNC(=O)c1ccccc1)[C@H](Nc1ccc(C#N)c(Cl)c1)c1ccc(Cl)c(Cl)c1

>  <Energy>  (34) 
63.1851930228045

>  <Genealogy>  (34) 
C[C@H](CNC(=O)c1ccccc1)[C@H](Nc1ccc(C#N)c(Cl)c1)c1ccc(Cl)c(Cl)c1 (chirality)
C[C@H](CNC(=O)c1ccccc1)[C@H](Nc1ccc(C#N)c(Cl)c1)c1ccc(Cl)c(Cl)c1 (3D coordinates assigned)
C[C@H](CNC(=O)c1ccccc1)[C@H](Nc1ccc(C#N)c(Cl)c1)c1ccc(Cl)c(Cl)c1 (optimized conformer: 63.1851930228045 kcal/mol)

>  <smiles>  (34) 
CC(CNC(=O)c1ccccc1)C(Nc1ccc(C#N)c(Cl)c1)c1ccc(Cl)c(Cl)c1

>  <score_type>  (34) 
oracle

>  <origin>  (34) 
autodockgpu

>  <m_score__min__energy>  (34) 
-9.3100000000000005

>  <m_primary>  (34) 
energy

>  <meeko>  (34) 
{"free_energy": -9.16, "intermolecular_energy": -11.54, "internal_energy": -1.32, "cluster_size": 1, "cluster_id": 2, "rank_in_cluster": 1}

>  <energy>  (34) 
-8.3

>  <cluster_rmsd>  (34) 
0.0

>  <rmsd>  (34) 
272.65

>  <cluster>  (34) 
5

$$$$
CBUCDBLHFQUVQW-JFARMPSENA-N
     RDKit          3D

 51 53  0  0  0  0  0  0  0  0999 V2000
  139.4180   72.8950  218.7460 C   0  0  0  0  0  0  0  0  0  0  0  0
  139.0020   72.9680  220.2250 C   0  0  2  0  0  0  0  0  0  0  0  0
  138.4720   74.3750  220.5990 C   0  0  0  0  0  0  0  0  0  0  0  0
  139.5530   75.3620  220.6520 N   0  0  0  0  0  0  0  0  0  0  0  0
  139.9110   76.0210  221.8770 C   0  0  0  0  0  0  0  0  0  0  0  0
  139.5230   75.5320  222.9740 O   0  0  0  0  0  0  0  0  0  0  0  0
  140.6910   77.2890  221.8820 C   0  0  0  0  0  0  0  0  0  0  0  0
  141.0930   77.8600  223.1070 C   0  0  0  0  0  0  0  0  0  0  0  0
  141.7740   79.0810  223.1340 C   0  0  0  0  0  0  0  0  0  0  0  0
  142.0630   79.7480  221.9430 C   0  0  0  0  0  0  0  0  0  0  0  0
  141.6710   79.1980  220.7230 C   0  0  0  0  0  0  0  0  0  0  0  0
  140.9900   77.9770  220.6880 C   0  0  0  0  0  0  0  0  0  0  0  0
  140.0740   72.3490  221.1840 C   0  0  2  0  0  0  0  0  0  0  0  0
  139.6850   72.5110  222.5960 N   0  0  0  0  0  0  0  0  0  0  0  0
  139.8190   71.5470  223.6620 C   0  0  0  0  0  0  0  0  0  0  0  0
  139.3150   70.2510  223.4700 C   0  0  0  0  0  0  0  0  0  0  0  0
  139.3480   69.3130  224.5030 C   0  0  0  0  0  0  0  0  0  0  0  0
  139.8800   69.6570  225.7500 C   0  0  0  0  0  0  0  0  0  0  0  0
  139.8790   68.6810  226.8110 C   0  0  0  0  0  0  0  0  0  0  0  0
  139.8800   67.8990  227.6640 N   0  0  0  0  0  0  0  0  0  0  0  0
  140.3930   70.9490  225.9550 C   0  0  0  0  0  0  0  0  0  0  0  0
  141.0440   71.4420  227.5140 Cl  0  0  0  0  0  0  0  0  0  0  0  0
  140.3620   71.8840  224.9140 C   0  0  0  0  0  0  0  0  0  0  0  0
  141.5690   72.6010  220.9580 C   0  0  0  0  0  0  0  0  0  0  0  0
  142.5770   71.6300  221.1220 C   0  0  0  0  0  0  0  0  0  0  0  0
  143.9160   71.9400  220.8630 C   0  0  0  0  0  0  0  0  0  0  0  0
  144.2770   73.2200  220.4370 C   0  0  0  0  0  0  0  0  0  0  0  0
  145.9700   73.5660  220.1150 Cl  0  0  0  0  0  0  0  0  0  0  0  0
  143.2880   74.2000  220.2690 C   0  0  0  0  0  0  0  0  0  0  0  0
  143.6960   75.8220  219.7270 Cl  0  0  0  0  0  0  0  0  0  0  0  0
  141.9500   73.8890  220.5310 C   0  0  0  0  0  0  0  0  0  0  0  0
  140.4994   72.7052  218.6782 H   0  0  0  0  0  0  0  0  0  0  0  0
  138.8708   72.0792  218.2510 H   0  0  0  0  0  0  0  0  0  0  0  0
  139.1813   73.8484  218.2510 H   0  0  0  0  0  0  0  0  0  0  0  0
  138.1343   72.3093  220.3775 H   0  0  0  0  0  0  0  0  0  0  0  0
  137.7364   74.6914  219.8448 H   0  0  0  0  0  0  0  0  0  0  0  0
  138.0115   74.3153  221.5962 H   0  0  0  0  0  0  0  0  0  0  0  0
  140.1970   75.4290  219.8330 H   0  0  0  0  0  0  0  0  0  0  0  0
  140.8688   77.3401  224.0501 H   0  0  0  0  0  0  0  0  0  0  0  0
  142.0824   79.5165  224.0959 H   0  0  0  0  0  0  0  0  0  0  0  0
  142.6001   80.7077  221.9664 H   0  0  0  0  0  0  0  0  0  0  0  0
  141.8981   79.7262  219.7852 H   0  0  0  0  0  0  0  0  0  0  0  0
  140.6852   77.5499  219.7212 H   0  0  0  0  0  0  0  0  0  0  0  0
  140.0320   71.2951  220.8718 H   0  0  0  0  0  0  0  0  0  0  0  0
  139.1950   73.4060  222.8290 H   0  0  0  0  0  0  0  0  0  0  0  0
  138.8894   69.9717  222.4949 H   0  0  0  0  0  0  0  0  0  0  0  0
  138.9542   68.2996  224.3359 H   0  0  0  0  0  0  0  0  0  0  0  0
  140.7670   72.8936  225.0774 H   0  0  0  0  0  0  0  0  0  0  0  0
  142.3079   70.6175  221.4573 H   0  0  0  0  0  0  0  0  0  0  0  0
  144.6903   71.1701  220.9958 H   0  0  0  0  0  0  0  0  0  0  0  0
  141.1804   74.6642  220.4014 H   0  0  0  0  0  0  0  0  0  0  0  0
  1  2  1  0
  2  3  1  0
  3  4  1  0
  4  5  1  0
  5  6  2  0
  5  7  1  0
  7  8  2  0
  8  9  1  0
  9 10  2  0
 10 11  1  0
 11 12  2  0
  2 13  1  0
 13 14  1  0
 14 15  1  0
 15 16  2  0
 16 17  1  0
 17 18  2  0
 18 19  1  0
 19 20  3  0
 18 21  1  0
 21 22  1  0
 21 23  2  0
 13 24  1  0
 24 25  2  0
 25 26  1  0
 26 27  2  0
 27 28  1  0
 27 29  1  0
 29 30  1  0
 29 31  2  0
 12  7  1  0
 23 15  1  0
 31 24  1  0
  1 32  1  0
  1 33  1  0
  1 34  1  0
  2 35  1  6
  3 36  1  0
  3 37  1  0
  4 38  1  0
  8 39  1  0
  9 40  1  0
 10 41  1  0
 11 42  1  0
 12 43  1  0
 13 44  1  6
 14 45  1  0
 16 46  1  0
 17 47  1  0
 23 48  1  0
 25 49  1  0
 26 50  1  0
 31 51  1  0
M  END
>  <UniqueID>  (35) 
29

>  <SMILES>  (35) 
C[C@H](CNC(=O)c1ccccc1)[C@H](Nc1ccc(C#N)c(Cl)c1)c1ccc(Cl)c(Cl)c1

>  <Energy>  (35) 
63.1851930228045

>  <Genealogy>  (35) 
C[C@H](CNC(=O)c1ccccc1)[C@H](Nc1ccc(C#N)c(Cl)c1)c1ccc(Cl)c(Cl)c1 (chirality)
C[C@H](CNC(=O)c1ccccc1)[C@H](Nc1ccc(C#N)c(Cl)c1)c1ccc(Cl)c(Cl)c1 (3D coordinates assigned)
C[C@H](CNC(=O)c1ccccc1)[C@H](Nc1ccc(C#N)c(Cl)c1)c1ccc(Cl)c(Cl)c1 (optimized conformer: 63.1851930228045 kcal/mol)

>  <smiles>  (35) 
CC(CNC(=O)c1ccccc1)C(Nc1ccc(C#N)c(Cl)c1)c1ccc(Cl)c(Cl)c1

>  <score_type>  (35) 
oracle

>  <origin>  (35) 
autodockgpu

>  <m_score__min__energy>  (35) 
-9.3100000000000005

>  <m_primary>  (35) 
energy

>  <meeko>  (35) 
{"free_energy": -8.4, "intermolecular_energy": -10.79, "internal_energy": -2.57, "cluster_size": 9, "cluster_id": 1, "rank_in_cluster": 5}

>  <energy>  (35) 
-8.29

>  <cluster_rmsd>  (35) 
0.08

>  <rmsd>  (35) 
272.64

>  <cluster>  (35) 
5

$$$$
CBUCDBLHFQUVQW-JFARMPSENA-N
     RDKit          3D

 51 53  0  0  0  0  0  0  0  0999 V2000
  139.3590   73.2740  218.6530 C   0  0  0  0  0  0  0  0  0  0  0  0
  138.8780   73.2080  220.1140 C   0  0  2  0  0  0  0  0  0  0  0  0
  138.3750   74.5880  220.6100 C   0  0  0  0  0  0  0  0  0  0  0  0
  139.4600   75.5690  220.6650 N   0  0  0  0  0  0  0  0  0  0  0  0
  139.9150   76.1180  221.9130 C   0  0  0  0  0  0  0  0  0  0  0  0
  139.6130   75.5310  222.9890 O   0  0  0  0  0  0  0  0  0  0  0  0
  140.6970   77.3830  221.9700 C   0  0  0  0  0  0  0  0  0  0  0  0
  141.1160   77.8930  223.2160 C   0  0  0  0  0  0  0  0  0  0  0  0
  141.7990   79.1100  223.2940 C   0  0  0  0  0  0  0  0  0  0  0  0
  142.0730   79.8350  222.1340 C   0  0  0  0  0  0  0  0  0  0  0  0
  141.6660   79.3450  220.8930 C   0  0  0  0  0  0  0  0  0  0  0  0
  140.9820   78.1290  220.8070 C   0  0  0  0  0  0  0  0  0  0  0  0
  139.8870   72.4580  221.0470 C   0  0  2  0  0  0  0  0  0  0  0  0
  139.4570   72.5160  222.4550 N   0  0  0  0  0  0  0  0  0  0  0  0
  139.6740   71.5280  223.4830 C   0  0  0  0  0  0  0  0  0  0  0  0
  139.1610   70.2340  223.2970 C   0  0  0  0  0  0  0  0  0  0  0  0
  139.2750   69.2700  224.3010 C   0  0  0  0  0  0  0  0  0  0  0  0
  139.8970   69.5860  225.5130 C   0  0  0  0  0  0  0  0  0  0  0  0
  139.9790   68.5850  226.5470 C   0  0  0  0  0  0  0  0  0  0  0  0
  140.0460   67.7820  227.3780 N   0  0  0  0  0  0  0  0  0  0  0  0
  140.4190   70.8760  225.7110 C   0  0  0  0  0  0  0  0  0  0  0  0
  141.1830   71.3330  227.2300 Cl  0  0  0  0  0  0  0  0  0  0  0  0
  140.3070   71.8360  224.7000 C   0  0  0  0  0  0  0  0  0  0  0  0
  141.3990   72.6540  220.8890 C   0  0  0  0  0  0  0  0  0  0  0  0
  142.3630   71.6490  221.1030 C   0  0  0  0  0  0  0  0  0  0  0  0
  143.7220   71.9090  220.9050 C   0  0  0  0  0  0  0  0  0  0  0  0
  144.1490   73.1730  220.4910 C   0  0  0  0  0  0  0  0  0  0  0  0
  145.8670   73.4550  220.2470 Cl  0  0  0  0  0  0  0  0  0  0  0  0
  143.2050   74.1870  220.2730 C   0  0  0  0  0  0  0  0  0  0  0  0
  143.6950   75.7890  219.7440 Cl  0  0  0  0  0  0  0  0  0  0  0  0
  141.8460   73.9250  220.4740 C   0  0  0  0  0  0  0  0  0  0  0  0
  140.4486   73.4235  218.6321 H   0  0  0  0  0  0  0  0  0  0  0  0
  139.1081   72.3330  218.1415 H   0  0  0  0  0  0  0  0  0  0  0  0
  138.8639   74.1126  218.1415 H   0  0  0  0  0  0  0  0  0  0  0  0
  137.9852   72.5671  220.1607 H   0  0  0  0  0  0  0  0  0  0  0  0
  137.5981   74.9531  219.9221 H   0  0  0  0  0  0  0  0  0  0  0  0
  137.9726   74.4627  221.6261 H   0  0  0  0  0  0  0  0  0  0  0  0
  140.0370   75.7120  219.8070 H   0  0  0  0  0  0  0  0  0  0  0  0
  140.9033   77.3277  224.1354 H   0  0  0  0  0  0  0  0  0  0  0  0
  142.1211   79.4969  224.2720 H   0  0  0  0  0  0  0  0  0  0  0  0
  142.6099   80.7929  222.1980 H   0  0  0  0  0  0  0  0  0  0  0  0
  141.8840   79.9173  219.9792 H   0  0  0  0  0  0  0  0  0  0  0  0
  140.6633   77.7507  219.8245 H   0  0  0  0  0  0  0  0  0  0  0  0
  139.8080   71.4383  220.6421 H   0  0  0  0  0  0  0  0  0  0  0  0
  138.8710   73.3440  222.7130 H   0  0  0  0  0  0  0  0  0  0  0  0
  138.6639   69.9769  222.3500 H   0  0  0  0  0  0  0  0  0  0  0  0
  138.8742   68.2587  224.1379 H   0  0  0  0  0  0  0  0  0  0  0  0
  140.7189   72.8435  224.8589 H   0  0  0  0  0  0  0  0  0  0  0  0
  142.0426   70.6487  221.4295 H   0  0  0  0  0  0  0  0  0  0  0  0
  144.4608   71.1123  221.0765 H   0  0  0  0  0  0  0  0  0  0  0  0
  141.1116   74.7263  220.3050 H   0  0  0  0  0  0  0  0  0  0  0  0
  1  2  1  0
  2  3  1  0
  3  4  1  0
  4  5  1  0
  5  6  2  0
  5  7  1  0
  7  8  2  0
  8  9  1  0
  9 10  2  0
 10 11  1  0
 11 12  2  0
  2 13  1  0
 13 14  1  0
 14 15  1  0
 15 16  2  0
 16 17  1  0
 17 18  2  0
 18 19  1  0
 19 20  3  0
 18 21  1  0
 21 22  1  0
 21 23  2  0
 13 24  1  0
 24 25  2  0
 25 26  1  0
 26 27  2  0
 27 28  1  0
 27 29  1  0
 29 30  1  0
 29 31  2  0
 12  7  1  0
 23 15  1  0
 31 24  1  0
  1 32  1  0
  1 33  1  0
  1 34  1  0
  2 35  1  6
  3 36  1  0
  3 37  1  0
  4 38  1  0
  8 39  1  0
  9 40  1  0
 10 41  1  0
 11 42  1  0
 12 43  1  0
 13 44  1  6
 14 45  1  0
 16 46  1  0
 17 47  1  0
 23 48  1  0
 25 49  1  0
 26 50  1  0
 31 51  1  0
M  END
>  <UniqueID>  (36) 
29

>  <SMILES>  (36) 
C[C@H](CNC(=O)c1ccccc1)[C@H](Nc1ccc(C#N)c(Cl)c1)c1ccc(Cl)c(Cl)c1

>  <Energy>  (36) 
63.1851930228045

>  <Genealogy>  (36) 
C[C@H](CNC(=O)c1ccccc1)[C@H](Nc1ccc(C#N)c(Cl)c1)c1ccc(Cl)c(Cl)c1 (chirality)
C[C@H](CNC(=O)c1ccccc1)[C@H](Nc1ccc(C#N)c(Cl)c1)c1ccc(Cl)c(Cl)c1 (3D coordinates assigned)
C[C@H](CNC(=O)c1ccccc1)[C@H](Nc1ccc(C#N)c(Cl)c1)c1ccc(Cl)c(Cl)c1 (optimized conformer: 63.1851930228045 kcal/mol)

>  <smiles>  (36) 
CC(CNC(=O)c1ccccc1)C(Nc1ccc(C#N)c(Cl)c1)c1ccc(Cl)c(Cl)c1

>  <score_type>  (36) 
oracle

>  <origin>  (36) 
autodockgpu

>  <m_score__min__energy>  (36) 
-9.3100000000000005

>  <m_primary>  (36) 
energy

>  <meeko>  (36) 
{"free_energy": -8.21, "intermolecular_energy": -10.6, "internal_energy": -2.46, "cluster_size": 9, "cluster_id": 1, "rank_in_cluster": 9}

>  <energy>  (36) 
-7.83

>  <cluster_rmsd>  (36) 
0.93

>  <rmsd>  (36) 
272.69

>  <cluster>  (36) 
5

$$$$
CBUCDBLHFQUVQW-JFARMPSENA-N
     RDKit          3D

 51 53  0  0  0  0  0  0  0  0999 V2000
  138.7720   75.1720  219.6890 C   0  0  0  0  0  0  0  0  0  0  0  0
  139.0720   74.5910  221.0820 C   0  0  2  0  0  0  0  0  0  0  0  0
  138.6150   73.1150  221.1940 C   0  0  0  0  0  0  0  0  0  0  0  0
  138.7120   72.6230  222.5700 N   0  0  0  0  0  0  0  0  0  0  0  0
  139.9750   72.2540  223.1490 C   0  0  0  0  0  0  0  0  0  0  0  0
  141.0410   72.6470  222.6000 O   0  0  0  0  0  0  0  0  0  0  0  0
  140.0560   71.3840  224.3540 C   0  0  0  0  0  0  0  0  0  0  0  0
  139.1480   70.3160  224.5100 C   0  0  0  0  0  0  0  0  0  0  0  0
  139.1710   69.5260  225.6630 C   0  0  0  0  0  0  0  0  0  0  0  0
  140.0960   69.7870  226.6740 C   0  0  0  0  0  0  0  0  0  0  0  0
  141.0010   70.8400  226.5350 C   0  0  0  0  0  0  0  0  0  0  0  0
  140.9840   71.6340  225.3850 C   0  0  0  0  0  0  0  0  0  0  0  0
  138.6310   75.5480  222.2410 C   0  0  2  0  0  0  0  0  0  0  0  0
  137.1770   75.7790  222.2180 N   0  0  0  0  0  0  0  0  0  0  0  0
  136.2080   75.3880  223.2130 C   0  0  0  0  0  0  0  0  0  0  0  0
  135.6050   76.3840  223.9980 C   0  0  0  0  0  0  0  0  0  0  0  0
  134.7250   76.0460  225.0280 C   0  0  0  0  0  0  0  0  0  0  0  0
  134.4370   74.7040  225.2950 C   0  0  0  0  0  0  0  0  0  0  0  0
  133.5480   74.3750  226.3810 C   0  0  0  0  0  0  0  0  0  0  0  0
  132.8350   74.1130  227.2550 N   0  0  0  0  0  0  0  0  0  0  0  0
  135.0290   73.6970  224.5150 C   0  0  0  0  0  0  0  0  0  0  0  0
  134.7260   71.9920  224.8310 Cl  0  0  0  0  0  0  0  0  0  0  0  0
  135.9070   74.0410  223.4810 C   0  0  0  0  0  0  0  0  0  0  0  0
  139.4210   76.8240  222.5490 C   0  0  0  0  0  0  0  0  0  0  0  0
  140.8110   76.9680  222.3670 C   0  0  0  0  0  0  0  0  0  0  0  0
  141.4460   78.1820  222.6450 C   0  0  0  0  0  0  0  0  0  0  0  0
  140.7110   79.2760  223.1100 C   0  0  0  0  0  0  0  0  0  0  0  0
  141.5480   80.7860  223.4410 Cl  0  0  0  0  0  0  0  0  0  0  0  0
  139.3270   79.1520  223.2980 C   0  0  0  0  0  0  0  0  0  0  0  0
  138.3620   80.5030  223.8730 Cl  0  0  0  0  0  0  0  0  0  0  0  0
  138.6940   77.9360  223.0210 C   0  0  0  0  0  0  0  0  0  0  0  0
  138.2698   76.1446  219.7978 H   0  0  0  0  0  0  0  0  0  0  0  0
  139.7139   75.3054  219.1367 H   0  0  0  0  0  0  0  0  0  0  0  0
  138.1179   74.4813  219.1367 H   0  0  0  0  0  0  0  0  0  0  0  0
  140.1629   74.5405  221.2135 H   0  0  0  0  0  0  0  0  0  0  0  0
  137.5695   73.0388  220.8606 H   0  0  0  0  0  0  0  0  0  0  0  0
  139.2747   72.5019  220.5623 H   0  0  0  0  0  0  0  0  0  0  0  0
  137.8830   72.7390  223.1930 H   0  0  0  0  0  0  0  0  0  0  0  0
  138.4155   70.1029  223.7175 H   0  0  0  0  0  0  0  0  0  0  0  0
  138.4576   68.6960  225.7734 H   0  0  0  0  0  0  0  0  0  0  0  0
  140.1120   69.1633  227.5800 H   0  0  0  0  0  0  0  0  0  0  0  0
  141.7299   71.0457  227.3328 H   0  0  0  0  0  0  0  0  0  0  0  0
  141.7014   72.4616  225.2835 H   0  0  0  0  0  0  0  0  0  0  0  0
  138.9309   74.9510  223.1149 H   0  0  0  0  0  0  0  0  0  0  0  0
  136.8030   76.2190  221.3440 H   0  0  0  0  0  0  0  0  0  0  0  0
  135.8285   77.4426  223.7992 H   0  0  0  0  0  0  0  0  0  0  0  0
  134.2569   76.8378  225.6312 H   0  0  0  0  0  0  0  0  0  0  0  0
  136.3666   73.2491  222.8714 H   0  0  0  0  0  0  0  0  0  0  0  0
  141.4029   76.1157  222.0021 H   0  0  0  0  0  0  0  0  0  0  0  0
  142.5318   78.2769  222.4967 H   0  0  0  0  0  0  0  0  0  0  0  0
  137.6085   77.8455  223.1743 H   0  0  0  0  0  0  0  0  0  0  0  0
  1  2  1  0
  2  3  1  0
  3  4  1  0
  4  5  1  0
  5  6  2  0
  5  7  1  0
  7  8  2  0
  8  9  1  0
  9 10  2  0
 10 11  1  0
 11 12  2  0
  2 13  1  0
 13 14  1  0
 14 15  1  0
 15 16  2  0
 16 17  1  0
 17 18  2  0
 18 19  1  0
 19 20  3  0
 18 21  1  0
 21 22  1  0
 21 23  2  0
 13 24  1  0
 24 25  2  0
 25 26  1  0
 26 27  2  0
 27 28  1  0
 27 29  1  0
 29 30  1  0
 29 31  2  0
 12  7  1  0
 23 15  1  0
 31 24  1  0
  1 32  1  0
  1 33  1  0
  1 34  1  0
  2 35  1  6
  3 36  1  0
  3 37  1  0
  4 38  1  0
  8 39  1  0
  9 40  1  0
 10 41  1  0
 11 42  1  0
 12 43  1  0
 13 44  1  1
 14 45  1  0
 16 46  1  0
 17 47  1  0
 23 48  1  0
 25 49  1  0
 26 50  1  0
 31 51  1  0
M  END
>  <UniqueID>  (37) 
29

>  <SMILES>  (37) 
C[C@H](CNC(=O)c1ccccc1)[C@H](Nc1ccc(C#N)c(Cl)c1)c1ccc(Cl)c(Cl)c1

>  <Energy>  (37) 
63.1851930228045

>  <Genealogy>  (37) 
C[C@H](CNC(=O)c1ccccc1)[C@H](Nc1ccc(C#N)c(Cl)c1)c1ccc(Cl)c(Cl)c1 (chirality)
C[C@H](CNC(=O)c1ccccc1)[C@H](Nc1ccc(C#N)c(Cl)c1)c1ccc(Cl)c(Cl)c1 (3D coordinates assigned)
C[C@H](CNC(=O)c1ccccc1)[C@H](Nc1ccc(C#N)c(Cl)c1)c1ccc(Cl)c(Cl)c1 (optimized conformer: 63.1851930228045 kcal/mol)

>  <smiles>  (37) 
CC(CNC(=O)c1ccccc1)C(Nc1ccc(C#N)c(Cl)c1)c1ccc(Cl)c(Cl)c1

>  <score_type>  (37) 
oracle

>  <origin>  (37) 
autodockgpu

>  <m_score__min__energy>  (37) 
-9.3100000000000005

>  <m_primary>  (37) 
energy

>  <meeko>  (37) 
{"free_energy": -8.37, "intermolecular_energy": -10.75, "internal_energy": -1.76, "cluster_size": 1, "cluster_id": 4, "rank_in_cluster": 1}

>  <energy>  (37) 
-8.0

>  <cluster_rmsd>  (37) 
0.0

>  <rmsd>  (37) 
272.45

>  <cluster>  (37) 
6

$$$$
CBUCDBLHFQUVQW-JFARMPSENA-N
     RDKit          3D

 51 53  0  0  0  0  0  0  0  0999 V2000
  139.4860   73.0410  218.6540 C   0  0  0  0  0  0  0  0  0  0  0  0
  138.9850   73.0000  220.1080 C   0  0  2  0  0  0  0  0  0  0  0  0
  138.3660   74.3550  220.5350 C   0  0  0  0  0  0  0  0  0  0  0  0
  139.3450   75.4420  220.4610 N   0  0  0  0  0  0  0  0  0  0  0  0
  139.9650   75.9780  221.6410 C   0  0  0  0  0  0  0  0  0  0  0  0
  139.9210   75.3140  222.7140 O   0  0  0  0  0  0  0  0  0  0  0  0
  140.6200   77.3140  221.6410 C   0  0  0  0  0  0  0  0  0  0  0  0
  140.8500   77.9820  220.4210 C   0  0  0  0  0  0  0  0  0  0  0  0
  141.5160   79.2100  220.3960 C   0  0  0  0  0  0  0  0  0  0  0  0
  141.9630   79.7890  221.5830 C   0  0  0  0  0  0  0  0  0  0  0  0
  141.7450   79.1420  222.8000 C   0  0  0  0  0  0  0  0  0  0  0  0
  141.0790   77.9130  222.8320 C   0  0  0  0  0  0  0  0  0  0  0  0
  140.0320   72.3720  221.0890 C   0  0  2  0  0  0  0  0  0  0  0  0
  139.6040   72.5160  222.4910 N   0  0  0  0  0  0  0  0  0  0  0  0
  139.7490   71.5570  223.5590 C   0  0  0  0  0  0  0  0  0  0  0  0
  139.2280   70.2650  223.3830 C   0  0  0  0  0  0  0  0  0  0  0  0
  139.2720   69.3310  224.4200 C   0  0  0  0  0  0  0  0  0  0  0  0
  139.8330   69.6750  225.6540 C   0  0  0  0  0  0  0  0  0  0  0  0
  139.8430   68.7050  226.7210 C   0  0  0  0  0  0  0  0  0  0  0  0
  139.8490   67.9250  227.5760 N   0  0  0  0  0  0  0  0  0  0  0  0
  140.3620   70.9630  225.8430 C   0  0  0  0  0  0  0  0  0  0  0  0
  141.0490   71.4570  227.3860 Cl  0  0  0  0  0  0  0  0  0  0  0  0
  140.3200   71.8940  224.7980 C   0  0  0  0  0  0  0  0  0  0  0  0
  141.5310   72.6290  220.9070 C   0  0  0  0  0  0  0  0  0  0  0  0
  142.5390   71.6650  221.1110 C   0  0  0  0  0  0  0  0  0  0  0  0
  143.8830   71.9790  220.8900 C   0  0  0  0  0  0  0  0  0  0  0  0
  144.2520   73.2570  220.4640 C   0  0  0  0  0  0  0  0  0  0  0  0
  145.9530   73.6080  220.1920 Cl  0  0  0  0  0  0  0  0  0  0  0  0
  143.2640   74.2310  220.2560 C   0  0  0  0  0  0  0  0  0  0  0  0
  143.6810   75.8490  219.7130 Cl  0  0  0  0  0  0  0  0  0  0  0  0
  141.9200   73.9150  220.4790 C   0  0  0  0  0  0  0  0  0  0  0  0
  140.5823   73.1307  218.6463 H   0  0  0  0  0  0  0  0  0  0  0  0
  139.1902   72.1156  218.1380 H   0  0  0  0  0  0  0  0  0  0  0  0
  139.0437   73.9060  218.1380 H   0  0  0  0  0  0  0  0  0  0  0  0
  138.1444   72.2932  220.1691 H   0  0  0  0  0  0  0  0  0  0  0  0
  137.5226   74.5881  219.8684 H   0  0  0  0  0  0  0  0  0  0  0  0
  138.0290   74.2659  221.5783 H   0  0  0  0  0  0  0  0  0  0  0  0
  139.7410   75.6840  219.5260 H   0  0  0  0  0  0  0  0  0  0  0  0
  140.5017   77.5320  219.4796 H   0  0  0  0  0  0  0  0  0  0  0  0
  141.6881   79.7213  219.4374 H   0  0  0  0  0  0  0  0  0  0  0  0
  142.4874   80.7557  221.5601 H   0  0  0  0  0  0  0  0  0  0  0  0
  142.0978   79.5997  223.7360 H   0  0  0  0  0  0  0  0  0  0  0  0
  140.9116   77.4088  223.7952 H   0  0  0  0  0  0  0  0  0  0  0  0
  140.0012   71.3218  220.7634 H   0  0  0  0  0  0  0  0  0  0  0  0
  139.0750   73.3920  222.7130 H   0  0  0  0  0  0  0  0  0  0  0  0
  138.7804   69.9857  222.4178 H   0  0  0  0  0  0  0  0  0  0  0  0
  138.8640   68.3212  224.2658 H   0  0  0  0  0  0  0  0  0  0  0  0
  140.7385   72.9001  224.9485 H   0  0  0  0  0  0  0  0  0  0  0  0
  142.2649   70.6544  221.4479 H   0  0  0  0  0  0  0  0  0  0  0  0
  144.6561   71.2136  221.0528 H   0  0  0  0  0  0  0  0  0  0  0  0
  141.1512   74.6849  220.3173 H   0  0  0  0  0  0  0  0  0  0  0  0
  1  2  1  0
  2  3  1  0
  3  4  1  0
  4  5  1  0
  5  6  2  0
  5  7  1  0
  7  8  2  0
  8  9  1  0
  9 10  2  0
 10 11  1  0
 11 12  2  0
  2 13  1  0
 13 14  1  0
 14 15  1  0
 15 16  2  0
 16 17  1  0
 17 18  2  0
 18 19  1  0
 19 20  3  0
 18 21  1  0
 21 22  1  0
 21 23  2  0
 13 24  1  0
 24 25  2  0
 25 26  1  0
 26 27  2  0
 27 28  1  0
 27 29  1  0
 29 30  1  0
 29 31  2  0
 12  7  1  0
 23 15  1  0
 31 24  1  0
  1 32  1  0
  1 33  1  0
  1 34  1  0
  2 35  1  6
  3 36  1  0
  3 37  1  0
  4 38  1  0
  8 39  1  0
  9 40  1  0
 10 41  1  0
 11 42  1  0
 12 43  1  0
 13 44  1  6
 14 45  1  0
 16 46  1  0
 17 47  1  0
 23 48  1  0
 25 49  1  0
 26 50  1  0
 31 51  1  0
M  END
>  <UniqueID>  (38) 
29

>  <SMILES>  (38) 
C[C@H](CNC(=O)c1ccccc1)[C@H](Nc1ccc(C#N)c(Cl)c1)c1ccc(Cl)c(Cl)c1

>  <Energy>  (38) 
63.1851930228045

>  <Genealogy>  (38) 
C[C@H](CNC(=O)c1ccccc1)[C@H](Nc1ccc(C#N)c(Cl)c1)c1ccc(Cl)c(Cl)c1 (chirality)
C[C@H](CNC(=O)c1ccccc1)[C@H](Nc1ccc(C#N)c(Cl)c1)c1ccc(Cl)c(Cl)c1 (3D coordinates assigned)
C[C@H](CNC(=O)c1ccccc1)[C@H](Nc1ccc(C#N)c(Cl)c1)c1ccc(Cl)c(Cl)c1 (optimized conformer: 63.1851930228045 kcal/mol)

>  <smiles>  (38) 
CC(CNC(=O)c1ccccc1)C(Nc1ccc(C#N)c(Cl)c1)c1ccc(Cl)c(Cl)c1

>  <score_type>  (38) 
oracle

>  <origin>  (38) 
autodockgpu

>  <m_score__min__energy>  (38) 
-9.3100000000000005

>  <m_primary>  (38) 
energy

>  <meeko>  (38) 
{"free_energy": -8.42, "intermolecular_energy": -10.81, "internal_energy": -2.64, "cluster_size": 9, "cluster_id": 1, "rank_in_cluster": 4}

>  <energy>  (38) 
-7.92

>  <cluster_rmsd>  (38) 
0.31

>  <rmsd>  (38) 
272.39

>  <cluster>  (38) 
6

$$$$
CBUCDBLHFQUVQW-JFARMPSENA-N
     RDKit          3D

 51 53  0  0  0  0  0  0  0  0999 V2000
  135.6720   73.3620  221.0730 C   0  0  0  0  0  0  0  0  0  0  0  0
  137.0600   74.0250  221.0580 C   0  0  2  0  0  0  0  0  0  0  0  0
  138.1950   72.9720  221.1250 C   0  0  0  0  0  0  0  0  0  0  0  0
  138.3690   72.4530  222.4840 N   0  0  0  0  0  0  0  0  0  0  0  0
  139.6700   72.3410  223.0850 C   0  0  0  0  0  0  0  0  0  0  0  0
  140.6360   72.9800  222.5820 O   0  0  0  0  0  0  0  0  0  0  0  0
  139.9150   71.4580  224.2570 C   0  0  0  0  0  0  0  0  0  0  0  0
  139.2290   70.2310  224.3660 C   0  0  0  0  0  0  0  0  0  0  0  0
  139.4010   69.4160  225.4880 C   0  0  0  0  0  0  0  0  0  0  0  0
  140.2570   69.8120  226.5170 C   0  0  0  0  0  0  0  0  0  0  0  0
  140.9430   71.0230  226.4260 C   0  0  0  0  0  0  0  0  0  0  0  0
  140.7760   71.8430  225.3050 C   0  0  0  0  0  0  0  0  0  0  0  0
  137.1650   75.2270  222.0570 C   0  0  2  0  0  0  0  0  0  0  0  0
  138.5530   75.4270  222.5070 N   0  0  0  0  0  0  0  0  0  0  0  0
  139.2700   76.6750  222.6220 C   0  0  0  0  0  0  0  0  0  0  0  0
  140.6530   76.6840  222.3860 C   0  0  0  0  0  0  0  0  0  0  0  0
  141.4000   77.8490  222.5660 C   0  0  0  0  0  0  0  0  0  0  0  0
  140.7760   79.0260  222.9920 C   0  0  0  0  0  0  0  0  0  0  0  0
  141.5700   80.2120  223.1990 C   0  0  0  0  0  0  0  0  0  0  0  0
  142.2090   81.1620  223.3660 N   0  0  0  0  0  0  0  0  0  0  0  0
  139.3910   79.0330  223.2280 C   0  0  0  0  0  0  0  0  0  0  0  0
  138.5630   80.4790  223.7960 Cl  0  0  0  0  0  0  0  0  0  0  0  0
  138.6460   77.8630  223.0400 C   0  0  0  0  0  0  0  0  0  0  0  0
  136.1520   75.3920  223.1950 C   0  0  0  0  0  0  0  0  0  0  0  0
  135.5810   76.6200  223.5860 C   0  0  0  0  0  0  0  0  0  0  0  0
  134.6390   76.6740  224.6180 C   0  0  0  0  0  0  0  0  0  0  0  0
  134.2470   75.5090  225.2800 C   0  0  0  0  0  0  0  0  0  0  0  0
  133.0540   75.6210  226.5670 Cl  0  0  0  0  0  0  0  0  0  0  0  0
  134.8040   74.2770  224.9070 C   0  0  0  0  0  0  0  0  0  0  0  0
  134.3340   72.7850  225.7080 Cl  0  0  0  0  0  0  0  0  0  0  0  0
  135.7480   74.2260  223.8760 C   0  0  0  0  0  0  0  0  0  0  0  0
  135.3503   73.2083  222.1136 H   0  0  0  0  0  0  0  0  0  0  0  0
  134.9495   74.0122  220.5581 H   0  0  0  0  0  0  0  0  0  0  0  0
  135.7237   72.3914  220.5581 H   0  0  0  0  0  0  0  0  0  0  0  0
  137.2054   74.5101  220.0815 H   0  0  0  0  0  0  0  0  0  0  0  0
  137.9476   72.1371  220.4529 H   0  0  0  0  0  0  0  0  0  0  0  0
  139.1335   73.4575  220.8191 H   0  0  0  0  0  0  0  0  0  0  0  0
  137.5220   72.3590  223.0860 H   0  0  0  0  0  0  0  0  0  0  0  0
  138.5518   69.9122  223.5599 H   0  0  0  0  0  0  0  0  0  0  0  0
  138.8608   68.4605  225.5605 H   0  0  0  0  0  0  0  0  0  0  0  0
  140.3905   69.1691  227.3995 H   0  0  0  0  0  0  0  0  0  0  0  0
  141.6170   71.3341  227.2377 H   0  0  0  0  0  0  0  0  0  0  0  0
  141.3211   72.7963  225.2406 H   0  0  0  0  0  0  0  0  0  0  0  0
  136.8277   76.0512  221.4113 H   0  0  0  0  0  0  0  0  0  0  0  0
  139.0950   74.5530  222.7010 H   0  0  0  0  0  0  0  0  0  0  0  0
  141.1542   75.7623  222.0554 H   0  0  0  0  0  0  0  0  0  0  0  0
  142.4828   77.8415  222.3722 H   0  0  0  0  0  0  0  0  0  0  0  0
  137.5611   77.8734  223.2212 H   0  0  0  0  0  0  0  0  0  0  0  0
  135.8798   77.5463  223.0735 H   0  0  0  0  0  0  0  0  0  0  0  0
  134.2038   77.6411  224.9103 H   0  0  0  0  0  0  0  0  0  0  0  0
  136.1836   73.2569  223.5912 H   0  0  0  0  0  0  0  0  0  0  0  0
  1  2  1  0
  2  3  1  0
  3  4  1  0
  4  5  1  0
  5  6  2  0
  5  7  1  0
  7  8  2  0
  8  9  1  0
  9 10  2  0
 10 11  1  0
 11 12  2  0
  2 13  1  0
 13 14  1  0
 14 15  1  0
 15 16  2  0
 16 17  1  0
 17 18  2  0
 18 19  1  0
 19 20  3  0
 18 21  1  0
 21 22  1  0
 21 23  2  0
 13 24  1  0
 24 25  2  0
 25 26  1  0
 26 27  2  0
 27 28  1  0
 27 29  1  0
 29 30  1  0
 29 31  2  0
 12  7  1  0
 23 15  1  0
 31 24  1  0
  1 32  1  0
  1 33  1  0
  1 34  1  0
  2 35  1  6
  3 36  1  0
  3 37  1  0
  4 38  1  0
  8 39  1  0
  9 40  1  0
 10 41  1  0
 11 42  1  0
 12 43  1  0
 13 44  1  6
 14 45  1  0
 16 46  1  0
 17 47  1  0
 23 48  1  0
 25 49  1  0
 26 50  1  0
 31 51  1  0
M  END
>  <UniqueID>  (39) 
29

>  <SMILES>  (39) 
C[C@H](CNC(=O)c1ccccc1)[C@H](Nc1ccc(C#N)c(Cl)c1)c1ccc(Cl)c(Cl)c1

>  <Energy>  (39) 
63.1851930228045

>  <Genealogy>  (39) 
C[C@H](CNC(=O)c1ccccc1)[C@H](Nc1ccc(C#N)c(Cl)c1)c1ccc(Cl)c(Cl)c1 (chirality)
C[C@H](CNC(=O)c1ccccc1)[C@H](Nc1ccc(C#N)c(Cl)c1)c1ccc(Cl)c(Cl)c1 (3D coordinates assigned)
C[C@H](CNC(=O)c1ccccc1)[C@H](Nc1ccc(C#N)c(Cl)c1)c1ccc(Cl)c(Cl)c1 (optimized conformer: 63.1851930228045 kcal/mol)

>  <smiles>  (39) 
CC(CNC(=O)c1ccccc1)C(Nc1ccc(C#N)c(Cl)c1)c1ccc(Cl)c(Cl)c1

>  <score_type>  (39) 
oracle

>  <origin>  (39) 
autodockgpu

>  <m_score__min__energy>  (39) 
-9.3100000000000005

>  <m_primary>  (39) 
energy

>  <meeko>  (39) 
{"free_energy": -8.0, "intermolecular_energy": -10.38, "internal_energy": -2.14, "cluster_size": 3, "cluster_id": 6, "rank_in_cluster": 1}

>  <energy>  (39) 
-7.16

>  <cluster_rmsd>  (39) 
1.84

>  <rmsd>  (39) 
272.03

>  <cluster>  (39) 
6

$$$$
CBUCDBLHFQUVQW-JFARMPSENA-N
     RDKit          3D

 51 53  0  0  0  0  0  0  0  0999 V2000
  135.7550   73.6700  220.6350 C   0  0  0  0  0  0  0  0  0  0  0  0
  137.1800   74.1890  220.9000 C   0  0  2  0  0  0  0  0  0  0  0  0
  138.2010   73.0270  220.9910 C   0  0  0  0  0  0  0  0  0  0  0  0
  138.3060   72.5080  222.3560 N   0  0  0  0  0  0  0  0  0  0  0  0
  139.5790   72.3570  223.0070 C   0  0  0  0  0  0  0  0  0  0  0  0
  140.5830   72.9630  222.5410 O   0  0  0  0  0  0  0  0  0  0  0  0
  139.7490   71.4700  224.1900 C   0  0  0  0  0  0  0  0  0  0  0  0
  138.9020   70.3560  224.3600 C   0  0  0  0  0  0  0  0  0  0  0  0
  139.0080   69.5460  225.4940 C   0  0  0  0  0  0  0  0  0  0  0  0
  139.9590   69.8340  226.4740 C   0  0  0  0  0  0  0  0  0  0  0  0
  140.8050   70.9330  226.3220 C   0  0  0  0  0  0  0  0  0  0  0  0
  140.7050   71.7470  225.1890 C   0  0  0  0  0  0  0  0  0  0  0  0
  137.2290   75.2520  222.0480 C   0  0  2  0  0  0  0  0  0  0  0  0
  138.6080   75.4580  222.5260 N   0  0  0  0  0  0  0  0  0  0  0  0
  139.3170   76.7080  222.6570 C   0  0  0  0  0  0  0  0  0  0  0  0
  140.7050   76.7240  222.4480 C   0  0  0  0  0  0  0  0  0  0  0  0
  141.4420   77.8930  222.6460 C   0  0  0  0  0  0  0  0  0  0  0  0
  140.8050   79.0660  223.0620 C   0  0  0  0  0  0  0  0  0  0  0  0
  141.5890   80.2540  223.2880 C   0  0  0  0  0  0  0  0  0  0  0  0
  142.2180   81.2090  223.4710 N   0  0  0  0  0  0  0  0  0  0  0  0
  139.4150   79.0660  223.2710 C   0  0  0  0  0  0  0  0  0  0  0  0
  138.5700   80.5060  223.8260 Cl  0  0  0  0  0  0  0  0  0  0  0  0
  138.6800   77.8930  223.0660 C   0  0  0  0  0  0  0  0  0  0  0  0
  136.2130   75.2190  223.1940 C   0  0  0  0  0  0  0  0  0  0  0  0
  135.6370   76.3610  223.7860 C   0  0  0  0  0  0  0  0  0  0  0  0
  134.6920   76.2350  224.8090 C   0  0  0  0  0  0  0  0  0  0  0  0
  134.3020   74.9730  225.2630 C   0  0  0  0  0  0  0  0  0  0  0  0
  133.1060   74.8610  226.5460 Cl  0  0  0  0  0  0  0  0  0  0  0  0
  134.8650   73.8250  224.6870 C   0  0  0  0  0  0  0  0  0  0  0  0
  134.3990   72.2170  225.2220 Cl  0  0  0  0  0  0  0  0  0  0  0  0
  135.8120   73.9530  223.6660 C   0  0  0  0  0  0  0  0  0  0  0  0
  135.2479   73.4853  221.5935 H   0  0  0  0  0  0  0  0  0  0  0  0
  135.1921   74.4208  220.0611 H   0  0  0  0  0  0  0  0  0  0  0  0
  135.8069   72.7330  220.0611 H   0  0  0  0  0  0  0  0  0  0  0  0
  137.5125   74.7654  220.0241 H   0  0  0  0  0  0  0  0  0  0  0  0
  137.8775   72.2144  220.3239 H   0  0  0  0  0  0  0  0  0  0  0  0
  139.1874   73.4112  220.6920 H   0  0  0  0  0  0  0  0  0  0  0  0
  137.4340   72.4420  222.9250 H   0  0  0  0  0  0  0  0  0  0  0  0
  138.1499   70.1219  223.5922 H   0  0  0  0  0  0  0  0  0  0  0  0
  138.3406   68.6799  225.6143 H   0  0  0  0  0  0  0  0  0  0  0  0
  140.0415   69.1950  227.3656 H   0  0  0  0  0  0  0  0  0  0  0  0
  141.5531   71.1600  227.0958 H   0  0  0  0  0  0  0  0  0  0  0  0
  141.3775   72.6102  225.0763 H   0  0  0  0  0  0  0  0  0  0  0  0
  136.8493   76.1355  221.5140 H   0  0  0  0  0  0  0  0  0  0  0  0
  139.1500   74.5860  222.7280 H   0  0  0  0  0  0  0  0  0  0  0  0
  141.2173   75.8058  222.1248 H   0  0  0  0  0  0  0  0  0  0  0  0
  142.5285   77.8912  222.4740 H   0  0  0  0  0  0  0  0  0  0  0  0
  137.5918   77.8980  223.2266 H   0  0  0  0  0  0  0  0  0  0  0  0
  135.9339   77.3619  223.4397 H   0  0  0  0  0  0  0  0  0  0  0  0
  134.2523   77.1369  225.2598 H   0  0  0  0  0  0  0  0  0  0  0  0
  136.2526   73.0479  223.2226 H   0  0  0  0  0  0  0  0  0  0  0  0
  1  2  1  0
  2  3  1  0
  3  4  1  0
  4  5  1  0
  5  6  2  0
  5  7  1  0
  7  8  2  0
  8  9  1  0
  9 10  2  0
 10 11  1  0
 11 12  2  0
  2 13  1  0
 13 14  1  0
 14 15  1  0
 15 16  2  0
 16 17  1  0
 17 18  2  0
 18 19  1  0
 19 20  3  0
 18 21  1  0
 21 22  1  0
 21 23  2  0
 13 24  1  0
 24 25  2  0
 25 26  1  0
 26 27  2  0
 27 28  1  0
 27 29  1  0
 29 30  1  0
 29 31  2  0
 12  7  1  0
 23 15  1  0
 31 24  1  0
  1 32  1  0
  1 33  1  0
  1 34  1  0
  2 35  1  6
  3 36  1  0
  3 37  1  0
  4 38  1  0
  8 39  1  0
  9 40  1  0
 10 41  1  0
 11 42  1  0
 12 43  1  0
 13 44  1  6
 14 45  1  0
 16 46  1  0
 17 47  1  0
 23 48  1  0
 25 49  1  0
 26 50  1  0
 31 51  1  0
M  END
>  <UniqueID>  (40) 
29

>  <SMILES>  (40) 
C[C@H](CNC(=O)c1ccccc1)[C@H](Nc1ccc(C#N)c(Cl)c1)c1ccc(Cl)c(Cl)c1

>  <Energy>  (40) 
63.1851930228045

>  <Genealogy>  (40) 
C[C@H](CNC(=O)c1ccccc1)[C@H](Nc1ccc(C#N)c(Cl)c1)c1ccc(Cl)c(Cl)c1 (chirality)
C[C@H](CNC(=O)c1ccccc1)[C@H](Nc1ccc(C#N)c(Cl)c1)c1ccc(Cl)c(Cl)c1 (3D coordinates assigned)
C[C@H](CNC(=O)c1ccccc1)[C@H](Nc1ccc(C#N)c(Cl)c1)c1ccc(Cl)c(Cl)c1 (optimized conformer: 63.1851930228045 kcal/mol)

>  <smiles>  (40) 
CC(CNC(=O)c1ccccc1)C(Nc1ccc(C#N)c(Cl)c1)c1ccc(Cl)c(Cl)c1

>  <score_type>  (40) 
oracle

>  <origin>  (40) 
autodockgpu

>  <m_score__min__energy>  (40) 
-9.3100000000000005

>  <m_primary>  (40) 
energy

>  <meeko>  (40) 
{"free_energy": -7.92, "intermolecular_energy": -10.31, "internal_energy": -2.32, "cluster_size": 3, "cluster_id": 6, "rank_in_cluster": 2}

>  <energy>  (40) 
-7.11

>  <cluster_rmsd>  (40) 
0.0

>  <rmsd>  (40) 
271.97

>  <cluster>  (40) 
7

$$$$
CBUCDBLHFQUVQW-IGKZSQPTNA-N
     RDKit          3D

 51 53  0  0  0  0  0  0  0  0999 V2000
  143.0090   75.8610  220.9270 H   0  0  0  0  0  0  0  0  0  0  0  0
  142.0440   75.9030  220.6320 O   0  0  0  0  0  0  0  0  0  0  0  0
  141.0560   76.6210  221.3150 C   0  0  0  0  0  0  0  0  0  0  0  0
  139.8370   76.1710  221.4250 N   0  0  0  0  0  0  0  0  0  0  0  0
  139.3810   75.0850  222.2900 C   0  0  0  0  0  0  0  0  0  0  0  0
  138.3594   75.3090  222.6307 H   0  0  0  0  0  0  0  0  0  0  0  0
  140.0794   75.0127  223.1368 H   0  0  0  0  0  0  0  0  0  0  0  0
  139.3750   73.7150  221.5600 C   0  0  2  0  0  0  0  0  0  0  0  0
  139.7270   73.8645  220.5286 H   0  0  0  0  0  0  0  0  0  0  0  0
  137.9350   73.1710  221.5660 C   0  0  0  0  0  0  0  0  0  0  0  0
  137.5958   73.0428  222.6045 H   0  0  0  0  0  0  0  0  0  0  0  0
  137.2727   73.8809  221.0489 H   0  0  0  0  0  0  0  0  0  0  0  0
  137.9075   72.2005  221.0489 H   0  0  0  0  0  0  0  0  0  0  0  0
  140.3560   72.6870  222.2090 C   0  0  2  0  0  0  0  0  0  0  0  0
  140.7842   73.1792  223.0947 H   0  0  0  0  0  0  0  0  0  0  0  0
  141.4820   72.3050  221.2670 C   0  0  0  0  0  0  0  0  0  0  0  0
  141.3620   71.1860  220.4250 C   0  0  0  0  0  0  0  0  0  0  0  0
  140.4485   70.5740  220.4567 H   0  0  0  0  0  0  0  0  0  0  0  0
  142.3940   70.8460  219.5490 C   0  0  0  0  0  0  0  0  0  0  0  0
  142.2885   69.9693  218.8931 H   0  0  0  0  0  0  0  0  0  0  0  0
  143.5610   71.6140  219.5010 C   0  0  0  0  0  0  0  0  0  0  0  0
  144.8350   71.1570  218.3780 Cl  0  0  0  0  0  0  0  0  0  0  0  0
  143.6920   72.7360  220.3350 C   0  0  0  0  0  0  0  0  0  0  0  0
  145.1320   73.7430  220.2880 Cl  0  0  0  0  0  0  0  0  0  0  0  0
  142.6560   73.0780  221.2120 C   0  0  0  0  0  0  0  0  0  0  0  0
  142.7607   73.9582  221.8634 H   0  0  0  0  0  0  0  0  0  0  0  0
  139.6430   71.4630  222.6070 N   0  0  0  0  0  0  0  0  0  0  0  0
  139.0690   70.9760  221.8810 H   0  0  0  0  0  0  0  0  0  0  0  0
  139.7930   70.8070  223.8820 C   0  0  0  0  0  0  0  0  0  0  0  0
  139.4360   69.4590  224.0800 C   0  0  0  0  0  0  0  0  0  0  0  0
  139.0335   68.8713  223.2418 H   0  0  0  0  0  0  0  0  0  0  0  0
  139.5900   68.8640  225.3340 C   0  0  0  0  0  0  0  0  0  0  0  0
  139.3084   67.8103  225.4769 H   0  0  0  0  0  0  0  0  0  0  0  0
  140.1000   69.5990  226.4100 C   0  0  0  0  0  0  0  0  0  0  0  0
  140.2490   68.9600  227.6950 C   0  0  0  0  0  0  0  0  0  0  0  0
  140.3690   68.4470  228.7250 N   0  0  0  0  0  0  0  0  0  0  0  0
  140.4570   70.9460  226.2260 C   0  0  0  0  0  0  0  0  0  0  0  0
  141.1000   71.9140  227.5470 Cl  0  0  0  0  0  0  0  0  0  0  0  0
  140.3010   71.5400  224.9680 C   0  0  0  0  0  0  0  0  0  0  0  0
  140.5798   72.5948  224.8277 H   0  0  0  0  0  0  0  0  0  0  0  0
  141.4110   77.9160  221.9390 C   0  0  0  0  0  0  0  0  0  0  0  0
  141.4230   78.0470  223.3390 C   0  0  0  0  0  0  0  0  0  0  0  0
  141.1893   77.1774  223.9708 H   0  0  0  0  0  0  0  0  0  0  0  0
  141.7300   79.2750  223.9340 C   0  0  0  0  0  0  0  0  0  0  0  0
  141.7336   79.3683  225.0300 H   0  0  0  0  0  0  0  0  0  0  0  0
  142.0320   80.3830  223.1390 C   0  0  0  0  0  0  0  0  0  0  0  0
  142.2706   81.3485  223.6090 H   0  0  0  0  0  0  0  0  0  0  0  0
  142.0310   80.2650  221.7470 C   0  0  0  0  0  0  0  0  0  0  0  0
  142.2728   81.1370  221.1216 H   0  0  0  0  0  0  0  0  0  0  0  0
  141.7230   79.0400  221.1480 C   0  0  0  0  0  0  0  0  0  0  0  0
  141.7242   78.9527  220.0515 H   0  0  0  0  0  0  0  0  0  0  0  0
  1  2  1  0
  2  3  1  0
  3  4  2  0
  4  5  1  0
  5  6  1  0
  5  7  1  0
  5  8  1  0
  8  9  1  6
  8 10  1  0
 10 11  1  0
 10 12  1  0
 10 13  1  0
  8 14  1  0
 14 15  1  1
 14 16  1  0
 16 17  2  0
 17 18  1  0
 17 19  1  0
 19 20  1  0
 19 21  2  0
 21 22  1  0
 21 23  1  0
 23 24  1  0
 23 25  2  0
 25 26  1  0
 14 27  1  0
 27 28  1  0
 27 29  1  0
 29 30  2  0
 30 31  1  0
 30 32  1  0
 32 33  1  0
 32 34  2  0
 34 35  1  0
 35 36  3  0
 34 37  1  0
 37 38  1  0
 37 39  2  0
 39 40  1  0
  3 41  1  0
 41 42  2  0
 42 43  1  0
 42 44  1  0
 44 45  1  0
 44 46  2  0
 46 47  1  0
 46 48  1  0
 48 49  1  0
 48 50  2  0
 50 51  1  0
 25 16  1  0
 39 29  1  0
 50 41  1  0
M  END
>  <UniqueID>  (41) 
30

>  <SMILES>  (41) 
C[C@@H](C/N=C(\O)c1ccccc1)[C@@H](Nc1ccc(C#N)c(Cl)c1)c1ccc(Cl)c(Cl)c1

>  <Energy>  (41) 
49.30363712332221

>  <Genealogy>  (41) 
CC(CN=C(O)c1ccccc1)C(Nc1ccc(C#N)c(Cl)c1)c1ccc(Cl)c(Cl)c1 (tautomer)
C[C@@H](CN=C(O)c1ccccc1)[C@@H](Nc1ccc(C#N)c(Cl)c1)c1ccc(Cl)c(Cl)c1 (chirality)
C[C@@H](C/N=C(\O)c1ccccc1)[C@@H](Nc1ccc(C#N)c(Cl)c1)c1ccc(Cl)c(Cl)c1 (cis-trans isomerization)
C[C@@H](C/N=C(\O)c1ccccc1)[C@@H](Nc1ccc(C#N)c(Cl)c1)c1ccc(Cl)c(Cl)c1 (3D coordinates assigned)
C[C@@H](C/N=C(\O)c1ccccc1)[C@@H](Nc1ccc(C#N)c(Cl)c1)c1ccc(Cl)c(Cl)c1 (optimized conformer: 49.30363712332221 kcal/mol)

>  <smiles>  (41) 
CC(CNC(=O)c1ccccc1)C(Nc1ccc(C#N)c(Cl)c1)c1ccc(Cl)c(Cl)c1

>  <score_type>  (41) 
oracle

>  <origin>  (41) 
autodockgpu

>  <m_score__min__energy>  (41) 
-8.5

>  <m_primary>  (41) 
energy

>  <meeko>  (41) 
{"free_energy": -8.14, "intermolecular_energy": -11.12, "internal_energy": -1.47, "cluster_size": 4, "cluster_id": 1, "rank_in_cluster": 4}

>  <energy>  (41) 
-8.5

>  <cluster_rmsd>  (41) 
0.0

>  <rmsd>  (41) 
270.98

>  <cluster>  (41) 
1

$$$$
CBUCDBLHFQUVQW-IGKZSQPTNA-N
     RDKit          3D

 51 53  0  0  0  0  0  0  0  0999 V2000
  138.9810   73.8380  223.0110 H   0  0  0  0  0  0  0  0  0  0  0  0
  139.5990   74.2860  222.3490 O   0  0  0  0  0  0  0  0  0  0  0  0
  139.1680   75.2190  221.3990 C   0  0  0  0  0  0  0  0  0  0  0  0
  139.1350   74.9330  220.1270 N   0  0  0  0  0  0  0  0  0  0  0  0
  140.2320   75.0720  219.1710 C   0  0  0  0  0  0  0  0  0  0  0  0
  139.8972   74.7000  218.1914 H   0  0  0  0  0  0  0  0  0  0  0  0
  141.0854   74.4908  219.5502 H   0  0  0  0  0  0  0  0  0  0  0  0
  140.6920   76.5460  219.0150 C   0  0  2  0  0  0  0  0  0  0  0  0
  139.8274   77.2040  219.1869 H   0  0  0  0  0  0  0  0  0  0  0  0
  141.2390   76.7320  217.5880 C   0  0  0  0  0  0  0  0  0  0  0  0
  142.2794   77.0858  217.6373 H   0  0  0  0  0  0  0  0  0  0  0  0
  141.2034   75.7712  217.0535 H   0  0  0  0  0  0  0  0  0  0  0  0
  140.6251   77.4719  217.0535 H   0  0  0  0  0  0  0  0  0  0  0  0
  141.7650   76.9540  220.0740 C   0  0  2  0  0  0  0  0  0  0  0  0
  141.5779   76.3337  220.9629 H   0  0  0  0  0  0  0  0  0  0  0  0
  141.6520   78.4160  220.4630 C   0  0  0  0  0  0  0  0  0  0  0  0
  141.0630   79.3450  219.5870 C   0  0  0  0  0  0  0  0  0  0  0  0
  140.6914   79.0123  218.6066 H   0  0  0  0  0  0  0  0  0  0  0  0
  140.9470   80.6870  219.9540 C   0  0  0  0  0  0  0  0  0  0  0  0
  140.4832   81.4052  219.2619 H   0  0  0  0  0  0  0  0  0  0  0  0
  141.4170   81.1230  221.1960 C   0  0  0  0  0  0  0  0  0  0  0  0
  141.2450   82.8200  221.6230 Cl  0  0  0  0  0  0  0  0  0  0  0  0
  142.0050   80.2040  222.0800 C   0  0  0  0  0  0  0  0  0  0  0  0
  142.5860   80.7060  223.6620 Cl  0  0  0  0  0  0  0  0  0  0  0  0
  142.1200   78.8580  221.7130 C   0  0  0  0  0  0  0  0  0  0  0  0
  142.5802   78.1404  222.4081 H   0  0  0  0  0  0  0  0  0  0  0  0
  143.1240   76.7090  219.5640 N   0  0  0  0  0  0  0  0  0  0  0  0
  143.7270   77.5400  219.3680 H   0  0  0  0  0  0  0  0  0  0  0  0
  143.7330   75.4060  219.4550 C   0  0  0  0  0  0  0  0  0  0  0  0
  143.4430   74.5290  218.3920 C   0  0  0  0  0  0  0  0  0  0  0  0
  142.7357   74.8359  217.6074 H   0  0  0  0  0  0  0  0  0  0  0  0
  144.0480   73.2720  218.3280 C   0  0  0  0  0  0  0  0  0  0  0  0
  143.8150   72.5955  217.4925 H   0  0  0  0  0  0  0  0  0  0  0  0
  144.9490   72.8670  219.3200 C   0  0  0  0  0  0  0  0  0  0  0  0
  145.5600   71.5630  219.2290 C   0  0  0  0  0  0  0  0  0  0  0  0
  146.0500   70.5180  219.1570 N   0  0  0  0  0  0  0  0  0  0  0  0
  145.2430   73.7320  220.3870 C   0  0  0  0  0  0  0  0  0  0  0  0
  146.3670   73.2700  221.6600 Cl  0  0  0  0  0  0  0  0  0  0  0  0
  144.6340   74.9910  220.4490 C   0  0  0  0  0  0  0  0  0  0  0  0
  144.8644   75.6644  221.2878 H   0  0  0  0  0  0  0  0  0  0  0  0
  138.7280   76.5580  221.8540 C   0  0  0  0  0  0  0  0  0  0  0  0
  139.5690   77.3430  222.6620 C   0  0  0  0  0  0  0  0  0  0  0  0
  140.5659   76.9686  222.9376 H   0  0  0  0  0  0  0  0  0  0  0  0
  139.1480   78.5960  223.1180 C   0  0  0  0  0  0  0  0  0  0  0  0
  139.8130   79.2016  223.7513 H   0  0  0  0  0  0  0  0  0  0  0  0
  137.8850   79.0800  222.7710 C   0  0  0  0  0  0  0  0  0  0  0  0
  137.5547   80.0648  223.1329 H   0  0  0  0  0  0  0  0  0  0  0  0
  137.0410   78.3130  221.9640 C   0  0  0  0  0  0  0  0  0  0  0  0
  136.0474   78.6963  221.6884 H   0  0  0  0  0  0  0  0  0  0  0  0
  137.4570   77.0590  221.5060 C   0  0  0  0  0  0  0  0  0  0  0  0
  136.7885   76.4598  220.8703 H   0  0  0  0  0  0  0  0  0  0  0  0
  1  2  1  0
  2  3  1  0
  3  4  2  0
  4  5  1  0
  5  6  1  0
  5  7  1  0
  5  8  1  0
  8  9  1  6
  8 10  1  0
 10 11  1  0
 10 12  1  0
 10 13  1  0
  8 14  1  0
 14 15  1  1
 14 16  1  0
 16 17  2  0
 17 18  1  0
 17 19  1  0
 19 20  1  0
 19 21  2  0
 21 22  1  0
 21 23  1  0
 23 24  1  0
 23 25  2  0
 25 26  1  0
 14 27  1  0
 27 28  1  0
 27 29  1  0
 29 30  2  0
 30 31  1  0
 30 32  1  0
 32 33  1  0
 32 34  2  0
 34 35  1  0
 35 36  3  0
 34 37  1  0
 37 38  1  0
 37 39  2  0
 39 40  1  0
  3 41  1  0
 41 42  2  0
 42 43  1  0
 42 44  1  0
 44 45  1  0
 44 46  2  0
 46 47  1  0
 46 48  1  0
 48 49  1  0
 48 50  2  0
 50 51  1  0
 25 16  1  0
 39 29  1  0
 50 41  1  0
M  END
>  <UniqueID>  (42) 
30

>  <SMILES>  (42) 
C[C@@H](C/N=C(\O)c1ccccc1)[C@@H](Nc1ccc(C#N)c(Cl)c1)c1ccc(Cl)c(Cl)c1

>  <Energy>  (42) 
49.30363712332221

>  <Genealogy>  (42) 
CC(CN=C(O)c1ccccc1)C(Nc1ccc(C#N)c(Cl)c1)c1ccc(Cl)c(Cl)c1 (tautomer)
C[C@@H](CN=C(O)c1ccccc1)[C@@H](Nc1ccc(C#N)c(Cl)c1)c1ccc(Cl)c(Cl)c1 (chirality)
C[C@@H](C/N=C(\O)c1ccccc1)[C@@H](Nc1ccc(C#N)c(Cl)c1)c1ccc(Cl)c(Cl)c1 (cis-trans isomerization)
C[C@@H](C/N=C(\O)c1ccccc1)[C@@H](Nc1ccc(C#N)c(Cl)c1)c1ccc(Cl)c(Cl)c1 (3D coordinates assigned)
C[C@@H](C/N=C(\O)c1ccccc1)[C@@H](Nc1ccc(C#N)c(Cl)c1)c1ccc(Cl)c(Cl)c1 (optimized conformer: 49.30363712332221 kcal/mol)

>  <smiles>  (42) 
CC(CNC(=O)c1ccccc1)C(Nc1ccc(C#N)c(Cl)c1)c1ccc(Cl)c(Cl)c1

>  <score_type>  (42) 
oracle

>  <origin>  (42) 
autodockgpu

>  <m_score__min__energy>  (42) 
-8.5

>  <m_primary>  (42) 
energy

>  <meeko>  (42) 
{"free_energy": -7.34, "intermolecular_energy": -10.32, "internal_energy": -2.19, "cluster_size": 1, "cluster_id": 7, "rank_in_cluster": 1}

>  <energy>  (42) 
-8.48

>  <cluster_rmsd>  (42) 
0.22

>  <rmsd>  (42) 
271.03

>  <cluster>  (42) 
1

$$$$
CBUCDBLHFQUVQW-IGKZSQPTNA-N
     RDKit          3D

 51 53  0  0  0  0  0  0  0  0999 V2000
  140.2520   66.6780  227.4410 H   0  0  0  0  0  0  0  0  0  0  0  0
  140.4450   67.1090  226.5470 O   0  0  0  0  0  0  0  0  0  0  0  0
  139.7720   68.2400  226.0730 C   0  0  0  0  0  0  0  0  0  0  0  0
  138.7780   68.1430  225.2360 N   0  0  0  0  0  0  0  0  0  0  0  0
  138.8560   67.7760  223.8240 C   0  0  0  0  0  0  0  0  0  0  0  0
  138.6005   66.7111  223.7205 H   0  0  0  0  0  0  0  0  0  0  0  0
  139.8809   67.9781  223.4795 H   0  0  0  0  0  0  0  0  0  0  0  0
  137.8860   68.6100  222.9450 C   0  0  2  0  0  0  0  0  0  0  0  0
  136.8638   68.2327  223.0957 H   0  0  0  0  0  0  0  0  0  0  0  0
  138.3110   68.4520  221.4730 C   0  0  0  0  0  0  0  0  0  0  0  0
  139.3412   68.0690  221.4279 H   0  0  0  0  0  0  0  0  0  0  0  0
  137.6347   67.7452  220.9699 H   0  0  0  0  0  0  0  0  0  0  0  0
  138.2606   69.4289  220.9699 H   0  0  0  0  0  0  0  0  0  0  0  0
  137.8570   70.1180  223.3500 C   0  0  2  0  0  0  0  0  0  0  0  0
  138.7593   70.2970  223.9531 H   0  0  0  0  0  0  0  0  0  0  0  0
  136.6340   70.4580  224.1810 C   0  0  0  0  0  0  0  0  0  0  0  0
  135.9990   69.4720  224.9580 C   0  0  0  0  0  0  0  0  0  0  0  0
  136.3843   68.4417  224.9544 H   0  0  0  0  0  0  0  0  0  0  0  0
  134.8840   69.7920  225.7330 C   0  0  0  0  0  0  0  0  0  0  0  0
  134.3971   69.0135  226.3387 H   0  0  0  0  0  0  0  0  0  0  0  0
  134.3820   71.0970  225.7440 C   0  0  0  0  0  0  0  0  0  0  0  0
  132.9790   71.4600  226.7400 Cl  0  0  0  0  0  0  0  0  0  0  0  0
  135.0090   72.0910  224.9760 C   0  0  0  0  0  0  0  0  0  0  0  0
  134.4260   73.7490  224.9820 Cl  0  0  0  0  0  0  0  0  0  0  0  0
  136.1290   71.7700  224.2000 C   0  0  0  0  0  0  0  0  0  0  0  0
  136.6183   72.5512  223.5997 H   0  0  0  0  0  0  0  0  0  0  0  0
  137.8680   70.9810  222.1590 N   0  0  0  0  0  0  0  0  0  0  0  0
  137.2450   70.7180  221.3610 H   0  0  0  0  0  0  0  0  0  0  0  0
  138.5650   72.2410  222.0690 C   0  0  0  0  0  0  0  0  0  0  0  0
  139.9710   72.3200  222.0370 C   0  0  0  0  0  0  0  0  0  0  0  0
  140.5715   71.3991  222.0745 H   0  0  0  0  0  0  0  0  0  0  0  0
  140.6070   73.5610  221.9580 C   0  0  0  0  0  0  0  0  0  0  0  0
  141.7055   73.6112  221.9317 H   0  0  0  0  0  0  0  0  0  0  0  0
  139.8560   74.7410  221.9120 C   0  0  0  0  0  0  0  0  0  0  0  0
  140.5390   76.0090  221.8300 C   0  0  0  0  0  0  0  0  0  0  0  0
  141.0850   77.0260  221.7650 N   0  0  0  0  0  0  0  0  0  0  0  0
  138.4530   74.6740  221.9470 C   0  0  0  0  0  0  0  0  0  0  0  0
  137.4630   76.1290  221.8930 Cl  0  0  0  0  0  0  0  0  0  0  0  0
  137.8180   73.4290  222.0260 C   0  0  0  0  0  0  0  0  0  0  0  0
  136.7194   73.3808  222.0548 H   0  0  0  0  0  0  0  0  0  0  0  0
  140.1950   69.5790  226.5470 C   0  0  0  0  0  0  0  0  0  0  0  0
  139.9590   69.9640  227.8780 C   0  0  0  0  0  0  0  0  0  0  0  0
  139.4786   69.2598  228.5732 H   0  0  0  0  0  0  0  0  0  0  0  0
  140.3310   71.2370  228.3250 C   0  0  0  0  0  0  0  0  0  0  0  0
  140.1410   71.5299  229.3681 H   0  0  0  0  0  0  0  0  0  0  0  0
  140.9430   72.1360  227.4490 C   0  0  0  0  0  0  0  0  0  0  0  0
  141.2313   73.1374  227.8011 H   0  0  0  0  0  0  0  0  0  0  0  0
  141.1890   71.7630  226.1250 C   0  0  0  0  0  0  0  0  0  0  0  0
  141.6744   72.4702  225.4364 H   0  0  0  0  0  0  0  0  0  0  0  0
  140.8190   70.4920  225.6740 C   0  0  0  0  0  0  0  0  0  0  0  0
  141.0164   70.2033  224.6311 H   0  0  0  0  0  0  0  0  0  0  0  0
  1  2  1  0
  2  3  1  0
  3  4  2  0
  4  5  1  0
  5  6  1  0
  5  7  1  0
  5  8  1  0
  8  9  1  6
  8 10  1  0
 10 11  1  0
 10 12  1  0
 10 13  1  0
  8 14  1  0
 14 15  1  1
 14 16  1  0
 16 17  2  0
 17 18  1  0
 17 19  1  0
 19 20  1  0
 19 21  2  0
 21 22  1  0
 21 23  1  0
 23 24  1  0
 23 25  2  0
 25 26  1  0
 14 27  1  0
 27 28  1  0
 27 29  1  0
 29 30  2  0
 30 31  1  0
 30 32  1  0
 32 33  1  0
 32 34  2  0
 34 35  1  0
 35 36  3  0
 34 37  1  0
 37 38  1  0
 37 39  2  0
 39 40  1  0
  3 41  1  0
 41 42  2  0
 42 43  1  0
 42 44  1  0
 44 45  1  0
 44 46  2  0
 46 47  1  0
 46 48  1  0
 48 49  1  0
 48 50  2  0
 50 51  1  0
 25 16  1  0
 39 29  1  0
 50 41  1  0
M  END
>  <UniqueID>  (43) 
30

>  <SMILES>  (43) 
C[C@@H](C/N=C(\O)c1ccccc1)[C@@H](Nc1ccc(C#N)c(Cl)c1)c1ccc(Cl)c(Cl)c1

>  <Energy>  (43) 
49.30363712332221

>  <Genealogy>  (43) 
CC(CN=C(O)c1ccccc1)C(Nc1ccc(C#N)c(Cl)c1)c1ccc(Cl)c(Cl)c1 (tautomer)
C[C@@H](CN=C(O)c1ccccc1)[C@@H](Nc1ccc(C#N)c(Cl)c1)c1ccc(Cl)c(Cl)c1 (chirality)
C[C@@H](C/N=C(\O)c1ccccc1)[C@@H](Nc1ccc(C#N)c(Cl)c1)c1ccc(Cl)c(Cl)c1 (cis-trans isomerization)
C[C@@H](C/N=C(\O)c1ccccc1)[C@@H](Nc1ccc(C#N)c(Cl)c1)c1ccc(Cl)c(Cl)c1 (3D coordinates assigned)
C[C@@H](C/N=C(\O)c1ccccc1)[C@@H](Nc1ccc(C#N)c(Cl)c1)c1ccc(Cl)c(Cl)c1 (optimized conformer: 49.30363712332221 kcal/mol)

>  <smiles>  (43) 
CC(CNC(=O)c1ccccc1)C(Nc1ccc(C#N)c(Cl)c1)c1ccc(Cl)c(Cl)c1

>  <score_type>  (43) 
oracle

>  <origin>  (43) 
autodockgpu

>  <m_score__min__energy>  (43) 
-8.5

>  <m_primary>  (43) 
energy

>  <meeko>  (43) 
{"free_energy": -7.53, "intermolecular_energy": -10.51, "internal_energy": -2.12, "cluster_size": 1, "cluster_id": 6, "rank_in_cluster": 1}

>  <energy>  (43) 
-8.45

>  <cluster_rmsd>  (43) 
0.17

>  <rmsd>  (43) 
271.0

>  <cluster>  (43) 
1

$$$$
CBUCDBLHFQUVQW-IGKZSQPTNA-N
     RDKit          3D

 51 53  0  0  0  0  0  0  0  0999 V2000
  138.9800   73.8320  222.9910 H   0  0  0  0  0  0  0  0  0  0  0  0
  139.9480   73.7560  222.7100 O   0  0  0  0  0  0  0  0  0  0  0  0
  140.3670   73.0970  221.5490 C   0  0  0  0  0  0  0  0  0  0  0  0
  139.5350   72.4160  220.8120 N   0  0  0  0  0  0  0  0  0  0  0  0
  139.5990   70.9870  220.5130 C   0  0  0  0  0  0  0  0  0  0  0  0
  140.5423   70.7771  219.9875 H   0  0  0  0  0  0  0  0  0  0  0  0
  138.7283   70.7334  219.8905 H   0  0  0  0  0  0  0  0  0  0  0  0
  139.5370   70.1150  221.7960 C   0  0  2  0  0  0  0  0  0  0  0  0
  140.5642   69.9248  222.1405 H   0  0  0  0  0  0  0  0  0  0  0  0
  138.8290   68.7930  221.4480 C   0  0  0  0  0  0  0  0  0  0  0  0
  138.5497   68.2715  222.3754 H   0  0  0  0  0  0  0  0  0  0  0  0
  137.9240   69.0055  220.8600 H   0  0  0  0  0  0  0  0  0  0  0  0
  139.5075   68.1574  220.8600 H   0  0  0  0  0  0  0  0  0  0  0  0
  138.8100   70.8350  222.9760 C   0  0  2  0  0  0  0  0  0  0  0  0
  139.0633   71.9023  222.8938 H   0  0  0  0  0  0  0  0  0  0  0  0
  139.2740   70.3240  224.3260 C   0  0  0  0  0  0  0  0  0  0  0  0
  139.1280   68.9670  224.6660 C   0  0  0  0  0  0  0  0  0  0  0  0
  138.6615   68.2722  223.9521 H   0  0  0  0  0  0  0  0  0  0  0  0
  139.5710   68.4960  225.9030 C   0  0  0  0  0  0  0  0  0  0  0  0
  139.4545   67.4322  226.1574 H   0  0  0  0  0  0  0  0  0  0  0  0
  140.1620   69.3700  226.8200 C   0  0  0  0  0  0  0  0  0  0  0  0
  140.7130   68.7360  228.3650 Cl  0  0  0  0  0  0  0  0  0  0  0  0
  140.3170   70.7260  226.4910 C   0  0  0  0  0  0  0  0  0  0  0  0
  141.0790   71.8520  227.6060 Cl  0  0  0  0  0  0  0  0  0  0  0  0
  139.8750   71.1970  225.2500 C   0  0  0  0  0  0  0  0  0  0  0  0
  139.9987   72.2598  224.9948 H   0  0  0  0  0  0  0  0  0  0  0  0
  137.3530   70.6530  222.8820 N   0  0  0  0  0  0  0  0  0  0  0  0
  136.9910   69.9840  222.1650 H   0  0  0  0  0  0  0  0  0  0  0  0
  136.3980   71.2190  223.8020 C   0  0  0  0  0  0  0  0  0  0  0  0
  135.6320   70.4210  224.6740 C   0  0  0  0  0  0  0  0  0  0  0  0
  135.7599   69.3285  224.6691 H   0  0  0  0  0  0  0  0  0  0  0  0
  134.7110   71.0080  225.5450 C   0  0  0  0  0  0  0  0  0  0  0  0
  134.1195   70.3748  226.2227 H   0  0  0  0  0  0  0  0  0  0  0  0
  134.5360   72.3960  225.5610 C   0  0  0  0  0  0  0  0  0  0  0  0
  133.5780   72.9770  226.4700 C   0  0  0  0  0  0  0  0  0  0  0  0
  132.8100   73.4420  227.1990 N   0  0  0  0  0  0  0  0  0  0  0  0
  135.2920   73.2030  224.6930 C   0  0  0  0  0  0  0  0  0  0  0  0
  135.1080   74.9530  224.6730 Cl  0  0  0  0  0  0  0  0  0  0  0  0
  136.2140   72.6110  223.8210 C   0  0  0  0  0  0  0  0  0  0  0  0
  136.8023   73.2452  223.1415 H   0  0  0  0  0  0  0  0  0  0  0  0
  141.7890   73.1880  221.1440 C   0  0  0  0  0  0  0  0  0  0  0  0
  142.5940   72.0360  221.1240 C   0  0  0  0  0  0  0  0  0  0  0  0
  142.1589   71.0612  221.3895 H   0  0  0  0  0  0  0  0  0  0  0  0
  143.9440   72.1200  220.7690 C   0  0  0  0  0  0  0  0  0  0  0  0
  144.5663   71.2130  220.7591 H   0  0  0  0  0  0  0  0  0  0  0  0
  144.5040   73.3530  220.4270 C   0  0  0  0  0  0  0  0  0  0  0  0
  145.5666   73.4172  220.1501 H   0  0  0  0  0  0  0  0  0  0  0  0
  143.7130   74.5050  220.4370 C   0  0  0  0  0  0  0  0  0  0  0  0
  144.1533   75.4757  220.1651 H   0  0  0  0  0  0  0  0  0  0  0  0
  142.3630   74.4260  220.7920 C   0  0  0  0  0  0  0  0  0  0  0  0
  141.7450   75.3360  220.7966 H   0  0  0  0  0  0  0  0  0  0  0  0
  1  2  1  0
  2  3  1  0
  3  4  2  0
  4  5  1  0
  5  6  1  0
  5  7  1  0
  5  8  1  0
  8  9  1  1
  8 10  1  0
 10 11  1  0
 10 12  1  0
 10 13  1  0
  8 14  1  0
 14 15  1  1
 14 16  1  0
 16 17  2  0
 17 18  1  0
 17 19  1  0
 19 20  1  0
 19 21  2  0
 21 22  1  0
 21 23  1  0
 23 24  1  0
 23 25  2  0
 25 26  1  0
 14 27  1  0
 27 28  1  0
 27 29  1  0
 29 30  2  0
 30 31  1  0
 30 32  1  0
 32 33  1  0
 32 34  2  0
 34 35  1  0
 35 36  3  0
 34 37  1  0
 37 38  1  0
 37 39  2  0
 39 40  1  0
  3 41  1  0
 41 42  2  0
 42 43  1  0
 42 44  1  0
 44 45  1  0
 44 46  2  0
 46 47  1  0
 46 48  1  0
 48 49  1  0
 48 50  2  0
 50 51  1  0
 25 16  1  0
 39 29  1  0
 50 41  1  0
M  END
>  <UniqueID>  (44) 
30

>  <SMILES>  (44) 
C[C@@H](C/N=C(\O)c1ccccc1)[C@@H](Nc1ccc(C#N)c(Cl)c1)c1ccc(Cl)c(Cl)c1

>  <Energy>  (44) 
49.30363712332221

>  <Genealogy>  (44) 
CC(CN=C(O)c1ccccc1)C(Nc1ccc(C#N)c(Cl)c1)c1ccc(Cl)c(Cl)c1 (tautomer)
C[C@@H](CN=C(O)c1ccccc1)[C@@H](Nc1ccc(C#N)c(Cl)c1)c1ccc(Cl)c(Cl)c1 (chirality)
C[C@@H](C/N=C(\O)c1ccccc1)[C@@H](Nc1ccc(C#N)c(Cl)c1)c1ccc(Cl)c(Cl)c1 (cis-trans isomerization)
C[C@@H](C/N=C(\O)c1ccccc1)[C@@H](Nc1ccc(C#N)c(Cl)c1)c1ccc(Cl)c(Cl)c1 (3D coordinates assigned)
C[C@@H](C/N=C(\O)c1ccccc1)[C@@H](Nc1ccc(C#N)c(Cl)c1)c1ccc(Cl)c(Cl)c1 (optimized conformer: 49.30363712332221 kcal/mol)

>  <smiles>  (44) 
CC(CNC(=O)c1ccccc1)C(Nc1ccc(C#N)c(Cl)c1)c1ccc(Cl)c(Cl)c1

>  <score_type>  (44) 
oracle

>  <origin>  (44) 
autodockgpu

>  <m_score__min__energy>  (44) 
-8.5

>  <m_primary>  (44) 
energy

>  <meeko>  (44) 
{"free_energy": -8.2, "intermolecular_energy": -11.19, "internal_energy": -1.71, "cluster_size": 1, "cluster_id": 2, "rank_in_cluster": 1}

>  <energy>  (44) 
-8.14

>  <cluster_rmsd>  (44) 
0.82

>  <rmsd>  (44) 
271.0

>  <cluster>  (44) 
1

$$$$
CBUCDBLHFQUVQW-IGKZSQPTNA-N
     RDKit          3D

 51 53  0  0  0  0  0  0  0  0999 V2000
  142.8090   76.6060  220.8490 H   0  0  0  0  0  0  0  0  0  0  0  0
  141.8100   76.4730  220.7780 O   0  0  0  0  0  0  0  0  0  0  0  0
  140.9390   76.5580  221.8700 C   0  0  0  0  0  0  0  0  0  0  0  0
  140.3200   75.5080  222.3330 N   0  0  0  0  0  0  0  0  0  0  0  0
  138.9730   75.0610  221.9820 C   0  0  0  0  0  0  0  0  0  0  0  0
  138.5952   75.6870  221.1602 H   0  0  0  0  0  0  0  0  0  0  0  0
  138.3429   75.1533  222.8789 H   0  0  0  0  0  0  0  0  0  0  0  0
  138.9450   73.5760  221.5320 C   0  0  2  0  0  0  0  0  0  0  0  0
  139.2300   73.5250  220.4708 H   0  0  0  0  0  0  0  0  0  0  0  0
  137.5170   73.0370  221.7360 C   0  0  0  0  0  0  0  0  0  0  0  0
  137.3055   72.9572  222.8125 H   0  0  0  0  0  0  0  0  0  0  0  0
  136.7955   73.7247  221.2706 H   0  0  0  0  0  0  0  0  0  0  0  0
  137.4299   72.0441  221.2706 H   0  0  0  0  0  0  0  0  0  0  0  0
  139.9810   72.6970  222.3020 C   0  0  2  0  0  0  0  0  0  0  0  0
  140.2879   73.2772  223.1847 H   0  0  0  0  0  0  0  0  0  0  0  0
  141.2070   72.3970  221.4600 C   0  0  0  0  0  0  0  0  0  0  0  0
  141.3930   71.1220  220.8960 C   0  0  0  0  0  0  0  0  0  0  0  0
  140.6502   70.3310  221.0763 H   0  0  0  0  0  0  0  0  0  0  0  0
  142.5140   70.8540  220.1090 C   0  0  0  0  0  0  0  0  0  0  0  0
  142.6481   69.8541  219.6705 H   0  0  0  0  0  0  0  0  0  0  0  0
  143.4670   71.8490  219.8750 C   0  0  0  0  0  0  0  0  0  0  0  0
  144.8620   71.4730  218.8720 Cl  0  0  0  0  0  0  0  0  0  0  0  0
  143.2910   73.1270  220.4300 C   0  0  0  0  0  0  0  0  0  0  0  0
  144.4530   74.4140  220.1390 Cl  0  0  0  0  0  0  0  0  0  0  0  0
  142.1660   73.3960  221.2180 C   0  0  0  0  0  0  0  0  0  0  0  0
  142.0311   74.3978  221.6517 H   0  0  0  0  0  0  0  0  0  0  0  0
  139.3780   71.4220  222.7220 N   0  0  0  0  0  0  0  0  0  0  0  0
  138.7610   70.9280  222.0380 H   0  0  0  0  0  0  0  0  0  0  0  0
  139.6910   70.7350  223.9500 C   0  0  0  0  0  0  0  0  0  0  0  0
  139.5170   69.3450  224.0980 C   0  0  0  0  0  0  0  0  0  0  0  0
  139.1369   68.7489  223.2552 H   0  0  0  0  0  0  0  0  0  0  0  0
  139.8240   68.7190  225.3080 C   0  0  0  0  0  0  0  0  0  0  0  0
  139.6851   67.6328  225.4118 H   0  0  0  0  0  0  0  0  0  0  0  0
  140.3070   69.4640  226.3890 C   0  0  0  0  0  0  0  0  0  0  0  0
  140.6170   68.7930  227.6280 C   0  0  0  0  0  0  0  0  0  0  0  0
  140.8650   68.2550  228.6210 N   0  0  0  0  0  0  0  0  0  0  0  0
  140.4820   70.8530  226.2550 C   0  0  0  0  0  0  0  0  0  0  0  0
  141.0850   71.8350  227.5850 Cl  0  0  0  0  0  0  0  0  0  0  0  0
  140.1720   71.4770  225.0410 C   0  0  0  0  0  0  0  0  0  0  0  0
  140.3071   72.5640  224.9401 H   0  0  0  0  0  0  0  0  0  0  0  0
  140.7270   77.8710  222.5210 C   0  0  0  0  0  0  0  0  0  0  0  0
  139.4260   78.3730  222.6960 C   0  0  0  0  0  0  0  0  0  0  0  0
  138.5622   77.7766  222.3672 H   0  0  0  0  0  0  0  0  0  0  0  0
  139.2210   79.6250  223.2850 C   0  0  0  0  0  0  0  0  0  0  0  0
  138.1988   80.0099  223.4152 H   0  0  0  0  0  0  0  0  0  0  0  0
  140.3120   80.3870  223.7080 C   0  0  0  0  0  0  0  0  0  0  0  0
  140.1490   81.3724  224.1688 H   0  0  0  0  0  0  0  0  0  0  0  0
  141.6100   79.8980  223.5460 C   0  0  0  0  0  0  0  0  0  0  0  0
  142.4686   80.4976  223.8825 H   0  0  0  0  0  0  0  0  0  0  0  0
  141.8200   78.6480  222.9570 C   0  0  0  0  0  0  0  0  0  0  0  0
  142.8447   78.2678  222.8327 H   0  0  0  0  0  0  0  0  0  0  0  0
  1  2  1  0
  2  3  1  0
  3  4  2  0
  4  5  1  0
  5  6  1  0
  5  7  1  0
  5  8  1  0
  8  9  1  6
  8 10  1  0
 10 11  1  0
 10 12  1  0
 10 13  1  0
  8 14  1  0
 14 15  1  1
 14 16  1  0
 16 17  2  0
 17 18  1  0
 17 19  1  0
 19 20  1  0
 19 21  2  0
 21 22  1  0
 21 23  1  0
 23 24  1  0
 23 25  2  0
 25 26  1  0
 14 27  1  0
 27 28  1  0
 27 29  1  0
 29 30  2  0
 30 31  1  0
 30 32  1  0
 32 33  1  0
 32 34  2  0
 34 35  1  0
 35 36  3  0
 34 37  1  0
 37 38  1  0
 37 39  2  0
 39 40  1  0
  3 41  1  0
 41 42  2  0
 42 43  1  0
 42 44  1  0
 44 45  1  0
 44 46  2  0
 46 47  1  0
 46 48  1  0
 48 49  1  0
 48 50  2  0
 50 51  1  0
 25 16  1  0
 39 29  1  0
 50 41  1  0
M  END
>  <UniqueID>  (45) 
30

>  <SMILES>  (45) 
C[C@@H](C/N=C(\O)c1ccccc1)[C@@H](Nc1ccc(C#N)c(Cl)c1)c1ccc(Cl)c(Cl)c1

>  <Energy>  (45) 
49.30363712332221

>  <Genealogy>  (45) 
CC(CN=C(O)c1ccccc1)C(Nc1ccc(C#N)c(Cl)c1)c1ccc(Cl)c(Cl)c1 (tautomer)
C[C@@H](CN=C(O)c1ccccc1)[C@@H](Nc1ccc(C#N)c(Cl)c1)c1ccc(Cl)c(Cl)c1 (chirality)
C[C@@H](C/N=C(\O)c1ccccc1)[C@@H](Nc1ccc(C#N)c(Cl)c1)c1ccc(Cl)c(Cl)c1 (cis-trans isomerization)
C[C@@H](C/N=C(\O)c1ccccc1)[C@@H](Nc1ccc(C#N)c(Cl)c1)c1ccc(Cl)c(Cl)c1 (3D coordinates assigned)
C[C@@H](C/N=C(\O)c1ccccc1)[C@@H](Nc1ccc(C#N)c(Cl)c1)c1ccc(Cl)c(Cl)c1 (optimized conformer: 49.30363712332221 kcal/mol)

>  <smiles>  (45) 
CC(CNC(=O)c1ccccc1)C(Nc1ccc(C#N)c(Cl)c1)c1ccc(Cl)c(Cl)c1

>  <score_type>  (45) 
oracle

>  <origin>  (45) 
autodockgpu

>  <m_score__min__energy>  (45) 
-8.5

>  <m_primary>  (45) 
energy

>  <meeko>  (45) 
{"free_energy": -8.48, "intermolecular_energy": -11.46, "internal_energy": -1.54, "cluster_size": 4, "cluster_id": 1, "rank_in_cluster": 2}

>  <energy>  (45) 
-8.2

>  <cluster_rmsd>  (45) 
0.0

>  <rmsd>  (45) 
270.2

>  <cluster>  (45) 
2

$$$$
CBUCDBLHFQUVQW-IGKZSQPTNA-N
     RDKit          3D

 51 53  0  0  0  0  0  0  0  0999 V2000
  138.8060   74.5150  222.6930 H   0  0  0  0  0  0  0  0  0  0  0  0
  139.4500   75.2930  222.7300 O   0  0  0  0  0  0  0  0  0  0  0  0
  140.0240   75.8780  221.5960 C   0  0  0  0  0  0  0  0  0  0  0  0
  139.9090   75.3350  220.4160 N   0  0  0  0  0  0  0  0  0  0  0  0
  140.9720   74.7020  219.6380 C   0  0  0  0  0  0  0  0  0  0  0  0
  141.2937   75.3962  218.8476 H   0  0  0  0  0  0  0  0  0  0  0  0
  140.5702   73.7700  219.2138 H   0  0  0  0  0  0  0  0  0  0  0  0
  142.2010   74.3360  220.5120 C   0  0  2  0  0  0  0  0  0  0  0  0
  142.2925   75.0791  221.3178 H   0  0  0  0  0  0  0  0  0  0  0  0
  143.4530   74.3520  219.6150 C   0  0  0  0  0  0  0  0  0  0  0  0
  144.3550   74.3635  220.2446 H   0  0  0  0  0  0  0  0  0  0  0  0
  143.4606   73.4539  218.9799 H   0  0  0  0  0  0  0  0  0  0  0  0
  143.4376   75.2500  218.9799 H   0  0  0  0  0  0  0  0  0  0  0  0
  142.0450   72.9500  221.2160 C   0  0  2  0  0  0  0  0  0  0  0  0
  142.8479   72.8870  221.9653 H   0  0  0  0  0  0  0  0  0  0  0  0
  142.1940   71.7980  220.2400 C   0  0  0  0  0  0  0  0  0  0  0  0
  141.1560   71.4780  219.3470 C   0  0  0  0  0  0  0  0  0  0  0  0
  140.2228   72.0601  219.3628 H   0  0  0  0  0  0  0  0  0  0  0  0
  141.3020   70.4270  218.4410 C   0  0  0  0  0  0  0  0  0  0  0  0
  140.4842   70.1865  217.7458 H   0  0  0  0  0  0  0  0  0  0  0  0
  142.4820   69.6780  218.4120 C   0  0  0  0  0  0  0  0  0  0  0  0
  142.6290   68.3670  217.2490 Cl  0  0  0  0  0  0  0  0  0  0  0  0
  143.5270   69.9900  219.2960 C   0  0  0  0  0  0  0  0  0  0  0  0
  145.0370   69.0900  219.2750 Cl  0  0  0  0  0  0  0  0  0  0  0  0
  143.3810   71.0450  220.2040 C   0  0  0  0  0  0  0  0  0  0  0  0
  144.2017   71.2872  220.8953 H   0  0  0  0  0  0  0  0  0  0  0  0
  140.7330   72.8420  221.8730 N   0  0  0  0  0  0  0  0  0  0  0  0
  140.0030   73.5460  221.6200 H   0  0  0  0  0  0  0  0  0  0  0  0
  140.3350   71.7500  222.7270 C   0  0  0  0  0  0  0  0  0  0  0  0
  139.6350   70.6310  222.2370 C   0  0  0  0  0  0  0  0  0  0  0  0
  139.3820   70.5692  221.1683 H   0  0  0  0  0  0  0  0  0  0  0  0
  139.2600   69.5990  223.1000 C   0  0  0  0  0  0  0  0  0  0  0  0
  138.7140   68.7290  222.7063 H   0  0  0  0  0  0  0  0  0  0  0  0
  139.5740   69.6640  224.4620 C   0  0  0  0  0  0  0  0  0  0  0  0
  139.1750   68.5840  225.3310 C   0  0  0  0  0  0  0  0  0  0  0  0
  138.8550   67.7180  226.0280 N   0  0  0  0  0  0  0  0  0  0  0  0
  140.2700   70.7770  224.9630 C   0  0  0  0  0  0  0  0  0  0  0  0
  140.6870   70.9080  226.6680 Cl  0  0  0  0  0  0  0  0  0  0  0  0
  140.6440   71.8110  224.0960 C   0  0  0  0  0  0  0  0  0  0  0  0
  141.1866   72.6821  224.4919 H   0  0  0  0  0  0  0  0  0  0  0  0
  140.7670   77.1510  221.7410 C   0  0  0  0  0  0  0  0  0  0  0  0
  141.0990   77.6340  223.0190 C   0  0  0  0  0  0  0  0  0  0  0  0
  140.8246   77.0519  223.9111 H   0  0  0  0  0  0  0  0  0  0  0  0
  141.7760   78.8500  223.1640 C   0  0  0  0  0  0  0  0  0  0  0  0
  142.0281   79.2219  224.1681 H   0  0  0  0  0  0  0  0  0  0  0  0
  142.1320   79.5920  222.0360 C   0  0  0  0  0  0  0  0  0  0  0  0
  142.6629   80.5484  222.1520 H   0  0  0  0  0  0  0  0  0  0  0  0
  141.8140   79.1200  220.7600 C   0  0  0  0  0  0  0  0  0  0  0  0
  142.0977   79.7040  219.8720 H   0  0  0  0  0  0  0  0  0  0  0  0
  141.1360   77.9070  220.6100 C   0  0  0  0  0  0  0  0  0  0  0  0
  140.8888   77.5400  219.6029 H   0  0  0  0  0  0  0  0  0  0  0  0
  1  2  1  0
  2  3  1  0
  3  4  2  0
  4  5  1  0
  5  6  1  0
  5  7  1  0
  5  8  1  0
  8  9  1  1
  8 10  1  0
 10 11  1  0
 10 12  1  0
 10 13  1  0
  8 14  1  0
 14 15  1  1
 14 16  1  0
 16 17  2  0
 17 18  1  0
 17 19  1  0
 19 20  1  0
 19 21  2  0
 21 22  1  0
 21 23  1  0
 23 24  1  0
 23 25  2  0
 25 26  1  0
 14 27  1  0
 27 28  1  0
 27 29  1  0
 29 30  2  0
 30 31  1  0
 30 32  1  0
 32 33  1  0
 32 34  2  0
 34 35  1  0
 35 36  3  0
 34 37  1  0
 37 38  1  0
 37 39  2  0
 39 40  1  0
  3 41  1  0
 41 42  2  0
 42 43  1  0
 42 44  1  0
 44 45  1  0
 44 46  2  0
 46 47  1  0
 46 48  1  0
 48 49  1  0
 48 50  2  0
 50 51  1  0
 25 16  1  0
 39 29  1  0
 50 41  1  0
M  END
>  <UniqueID>  (46) 
30

>  <SMILES>  (46) 
C[C@@H](C/N=C(\O)c1ccccc1)[C@@H](Nc1ccc(C#N)c(Cl)c1)c1ccc(Cl)c(Cl)c1

>  <Energy>  (46) 
49.30363712332221

>  <Genealogy>  (46) 
CC(CN=C(O)c1ccccc1)C(Nc1ccc(C#N)c(Cl)c1)c1ccc(Cl)c(Cl)c1 (tautomer)
C[C@@H](CN=C(O)c1ccccc1)[C@@H](Nc1ccc(C#N)c(Cl)c1)c1ccc(Cl)c(Cl)c1 (chirality)
C[C@@H](C/N=C(\O)c1ccccc1)[C@@H](Nc1ccc(C#N)c(Cl)c1)c1ccc(Cl)c(Cl)c1 (cis-trans isomerization)
C[C@@H](C/N=C(\O)c1ccccc1)[C@@H](Nc1ccc(C#N)c(Cl)c1)c1ccc(Cl)c(Cl)c1 (3D coordinates assigned)
C[C@@H](C/N=C(\O)c1ccccc1)[C@@H](Nc1ccc(C#N)c(Cl)c1)c1ccc(Cl)c(Cl)c1 (optimized conformer: 49.30363712332221 kcal/mol)

>  <smiles>  (46) 
CC(CNC(=O)c1ccccc1)C(Nc1ccc(C#N)c(Cl)c1)c1ccc(Cl)c(Cl)c1

>  <score_type>  (46) 
oracle

>  <origin>  (46) 
autodockgpu

>  <m_score__min__energy>  (46) 
-8.5

>  <m_primary>  (46) 
energy

>  <meeko>  (46) 
{"free_energy": -6.8, "intermolecular_energy": -9.78, "internal_energy": -2.91, "cluster_size": 2, "cluster_id": 10, "rank_in_cluster": 2}

>  <energy>  (46) 
-8.19

>  <cluster_rmsd>  (46) 
0.0

>  <rmsd>  (46) 
270.34

>  <cluster>  (46) 
3

$$$$
CBUCDBLHFQUVQW-IGKZSQPTNA-N
     RDKit          3D

 51 53  0  0  0  0  0  0  0  0999 V2000
  133.6360   68.1130  224.0930 H   0  0  0  0  0  0  0  0  0  0  0  0
  134.6460   68.1280  224.0670 O   0  0  0  0  0  0  0  0  0  0  0  0
  135.4090   69.2800  224.2840 C   0  0  0  0  0  0  0  0  0  0  0  0
  136.5750   69.4440  223.7230 N   0  0  0  0  0  0  0  0  0  0  0  0
  136.8600   70.1960  222.5030 C   0  0  0  0  0  0  0  0  0  0  0  0
  135.9084   70.4510  222.0138 H   0  0  0  0  0  0  0  0  0  0  0  0
  137.4866   69.5645  221.8560 H   0  0  0  0  0  0  0  0  0  0  0  0
  137.6410   71.5060  222.7900 C   0  0  2  0  0  0  0  0  0  0  0  0
  137.3443   71.8812  223.7805 H   0  0  0  0  0  0  0  0  0  0  0  0
  137.2870   72.5290  221.6950 C   0  0  0  0  0  0  0  0  0  0  0  0
  136.9615   73.4696  222.1634 H   0  0  0  0  0  0  0  0  0  0  0  0
  138.1721   72.7178  221.0697 H   0  0  0  0  0  0  0  0  0  0  0  0
  136.4745   72.1304  221.0697 H   0  0  0  0  0  0  0  0  0  0  0  0
  139.1850   71.2820  222.8570 C   0  0  2  0  0  0  0  0  0  0  0  0
  139.4257   70.5343  222.0869 H   0  0  0  0  0  0  0  0  0  0  0  0
  139.6240   70.7520  224.2090 C   0  0  0  0  0  0  0  0  0  0  0  0
  139.4310   69.4000  224.5440 C   0  0  0  0  0  0  0  0  0  0  0  0
  138.9474   68.7225  223.8248 H   0  0  0  0  0  0  0  0  0  0  0  0
  139.8490   68.9120  225.7830 C   0  0  0  0  0  0  0  0  0  0  0  0
  139.6944   67.8523  226.0343 H   0  0  0  0  0  0  0  0  0  0  0  0
  140.4630   69.7630  226.7060 C   0  0  0  0  0  0  0  0  0  0  0  0
  140.9830   69.1080  228.2530 Cl  0  0  0  0  0  0  0  0  0  0  0  0
  140.6640   71.1140  226.3820 C   0  0  0  0  0  0  0  0  0  0  0  0
  141.4550   72.2120  227.5040 Cl  0  0  0  0  0  0  0  0  0  0  0  0
  140.2460   71.6030  225.1390 C   0  0  0  0  0  0  0  0  0  0  0  0
  140.4055   72.6620  224.8878 H   0  0  0  0  0  0  0  0  0  0  0  0
  139.9080   72.5340  222.5870 N   0  0  0  0  0  0  0  0  0  0  0  0
  139.5870   73.3980  223.0820 H   0  0  0  0  0  0  0  0  0  0  0  0
  141.1170   72.6280  221.8060 C   0  0  0  0  0  0  0  0  0  0  0  0
  141.9560   71.5190  221.5850 C   0  0  0  0  0  0  0  0  0  0  0  0
  141.6914   70.5401  222.0113 H   0  0  0  0  0  0  0  0  0  0  0  0
  143.1220   71.6540  220.8280 C   0  0  0  0  0  0  0  0  0  0  0  0
  143.7688   70.7801  220.6607 H   0  0  0  0  0  0  0  0  0  0  0  0
  143.4730   72.8930  220.2810 C   0  0  0  0  0  0  0  0  0  0  0  0
  144.6830   73.0060  219.5040 C   0  0  0  0  0  0  0  0  0  0  0  0
  145.6520   73.0960  218.8800 N   0  0  0  0  0  0  0  0  0  0  0  0
  142.6450   74.0080  220.4980 C   0  0  0  0  0  0  0  0  0  0  0  0
  143.0420   75.5890  219.8330 Cl  0  0  0  0  0  0  0  0  0  0  0  0
  141.4770   73.8700  221.2570 C   0  0  0  0  0  0  0  0  0  0  0  0
  140.8327   74.7454  221.4258 H   0  0  0  0  0  0  0  0  0  0  0  0
  134.8700   70.3440  225.1630 C   0  0  0  0  0  0  0  0  0  0  0  0
  134.7930   71.6710  224.7020 C   0  0  0  0  0  0  0  0  0  0  0  0
  135.1136   71.9126  223.6779 H   0  0  0  0  0  0  0  0  0  0  0  0
  134.3120   72.6850  225.5360 C   0  0  0  0  0  0  0  0  0  0  0  0
  134.2588   73.7200  225.1674 H   0  0  0  0  0  0  0  0  0  0  0  0
  133.8990   72.3860  226.8360 C   0  0  0  0  0  0  0  0  0  0  0  0
  133.5227   73.1853  227.4913 H   0  0  0  0  0  0  0  0  0  0  0  0
  133.9640   71.0710  227.3040 C   0  0  0  0  0  0  0  0  0  0  0  0
  133.6352   70.8356  228.3270 H   0  0  0  0  0  0  0  0  0  0  0  0
  134.4460   70.0540  226.4750 C   0  0  0  0  0  0  0  0  0  0  0  0
  134.4946   69.0208  226.8493 H   0  0  0  0  0  0  0  0  0  0  0  0
  1  2  1  0
  2  3  1  0
  3  4  2  0
  4  5  1  0
  5  6  1  0
  5  7  1  0
  5  8  1  0
  8  9  1  1
  8 10  1  0
 10 11  1  0
 10 12  1  0
 10 13  1  0
  8 14  1  0
 14 15  1  6
 14 16  1  0
 16 17  2  0
 17 18  1  0
 17 19  1  0
 19 20  1  0
 19 21  2  0
 21 22  1  0
 21 23  1  0
 23 24  1  0
 23 25  2  0
 25 26  1  0
 14 27  1  0
 27 28  1  0
 27 29  1  0
 29 30  2  0
 30 31  1  0
 30 32  1  0
 32 33  1  0
 32 34  2  0
 34 35  1  0
 35 36  3  0
 34 37  1  0
 37 38  1  0
 37 39  2  0
 39 40  1  0
  3 41  1  0
 41 42  2  0
 42 43  1  0
 42 44  1  0
 44 45  1  0
 44 46  2  0
 46 47  1  0
 46 48  1  0
 48 49  1  0
 48 50  2  0
 50 51  1  0
 25 16  1  0
 39 29  1  0
 50 41  1  0
M  END
>  <UniqueID>  (47) 
30

>  <SMILES>  (47) 
C[C@@H](C/N=C(\O)c1ccccc1)[C@@H](Nc1ccc(C#N)c(Cl)c1)c1ccc(Cl)c(Cl)c1

>  <Energy>  (47) 
49.30363712332221

>  <Genealogy>  (47) 
CC(CN=C(O)c1ccccc1)C(Nc1ccc(C#N)c(Cl)c1)c1ccc(Cl)c(Cl)c1 (tautomer)
C[C@@H](CN=C(O)c1ccccc1)[C@@H](Nc1ccc(C#N)c(Cl)c1)c1ccc(Cl)c(Cl)c1 (chirality)
C[C@@H](C/N=C(\O)c1ccccc1)[C@@H](Nc1ccc(C#N)c(Cl)c1)c1ccc(Cl)c(Cl)c1 (cis-trans isomerization)
C[C@@H](C/N=C(\O)c1ccccc1)[C@@H](Nc1ccc(C#N)c(Cl)c1)c1ccc(Cl)c(Cl)c1 (3D coordinates assigned)
C[C@@H](C/N=C(\O)c1ccccc1)[C@@H](Nc1ccc(C#N)c(Cl)c1)c1ccc(Cl)c(Cl)c1 (optimized conformer: 49.30363712332221 kcal/mol)

>  <smiles>  (47) 
CC(CNC(=O)c1ccccc1)C(Nc1ccc(C#N)c(Cl)c1)c1ccc(Cl)c(Cl)c1

>  <score_type>  (47) 
oracle

>  <origin>  (47) 
autodockgpu

>  <m_score__min__energy>  (47) 
-8.5

>  <m_primary>  (47) 
energy

>  <meeko>  (47) 
{"free_energy": -8.11, "intermolecular_energy": -11.09, "internal_energy": -1.63, "cluster_size": 2, "cluster_id": 4, "rank_in_cluster": 1}

>  <energy>  (47) 
-7.87

>  <cluster_rmsd>  (47) 
1.23

>  <rmsd>  (47) 
270.36

>  <cluster>  (47) 
3

$$$$
CBUCDBLHFQUVQW-IGKZSQPTNA-N
     RDKit          3D

 51 53  0  0  0  0  0  0  0  0999 V2000
  135.2410   67.8320  223.0340 H   0  0  0  0  0  0  0  0  0  0  0  0
  135.5120   68.5100  223.7330 O   0  0  0  0  0  0  0  0  0  0  0  0
  135.2410   69.8780  223.6290 C   0  0  0  0  0  0  0  0  0  0  0  0
  135.3540   70.5130  222.4950 N   0  0  0  0  0  0  0  0  0  0  0  0
  136.5960   70.8660  221.8110 C   0  0  0  0  0  0  0  0  0  0  0  0
  136.3490   71.3105  220.8356 H   0  0  0  0  0  0  0  0  0  0  0  0
  137.1895   69.9473  221.6941 H   0  0  0  0  0  0  0  0  0  0  0  0
  137.4450   71.8810  222.6220 C   0  0  2  0  0  0  0  0  0  0  0  0
  137.0890   71.8839  223.6628 H   0  0  0  0  0  0  0  0  0  0  0  0
  137.2710   73.2730  221.9860 C   0  0  0  0  0  0  0  0  0  0  0  0
  137.1765   74.0293  222.7791 H   0  0  0  0  0  0  0  0  0  0  0  0
  138.1473   73.5033  221.3623 H   0  0  0  0  0  0  0  0  0  0  0  0
  136.3649   73.2805  221.3623 H   0  0  0  0  0  0  0  0  0  0  0  0
  138.9550   71.4870  222.6820 C   0  0  2  0  0  0  0  0  0  0  0  0
  139.1262   70.7790  221.8577 H   0  0  0  0  0  0  0  0  0  0  0  0
  139.3140   70.8110  223.9910 C   0  0  0  0  0  0  0  0  0  0  0  0
  139.0370   69.4460  224.1910 C   0  0  0  0  0  0  0  0  0  0  0  0
  138.5454   68.8658  223.3962 H   0  0  0  0  0  0  0  0  0  0  0  0
  139.3820   68.8240  225.3910 C   0  0  0  0  0  0  0  0  0  0  0  0
  139.1625   67.7559  225.5362 H   0  0  0  0  0  0  0  0  0  0  0  0
  140.0050   69.5500  226.4100 C   0  0  0  0  0  0  0  0  0  0  0  0
  140.4310   68.7260  227.9040 Cl  0  0  0  0  0  0  0  0  0  0  0  0
  140.2900   70.9120  226.2210 C   0  0  0  0  0  0  0  0  0  0  0  0
  141.0950   71.8550  227.4670 Cl  0  0  0  0  0  0  0  0  0  0  0  0
  139.9450   71.5360  225.0170 C   0  0  0  0  0  0  0  0  0  0  0  0
  140.1695   72.6031  224.8720 H   0  0  0  0  0  0  0  0  0  0  0  0
  139.8120   72.6720  222.5160 N   0  0  0  0  0  0  0  0  0  0  0  0
  139.5790   73.5230  223.0760 H   0  0  0  0  0  0  0  0  0  0  0  0
  141.0330   72.6960  221.7500 C   0  0  0  0  0  0  0  0  0  0  0  0
  141.8300   71.5480  221.5710 C   0  0  0  0  0  0  0  0  0  0  0  0
  141.5200   70.5922  222.0186 H   0  0  0  0  0  0  0  0  0  0  0  0
  143.0110   71.6160  220.8290 C   0  0  0  0  0  0  0  0  0  0  0  0
  143.6249   70.7130  220.6957 H   0  0  0  0  0  0  0  0  0  0  0  0
  143.4190   72.8240  220.2540 C   0  0  0  0  0  0  0  0  0  0  0  0
  144.6430   72.8670  219.4910 C   0  0  0  0  0  0  0  0  0  0  0  0
  145.6240   72.9010  218.8800 N   0  0  0  0  0  0  0  0  0  0  0  0
  142.6340   73.9770  220.4280 C   0  0  0  0  0  0  0  0  0  0  0  0
  143.1030   75.5220  219.7260 Cl  0  0  0  0  0  0  0  0  0  0  0  0
  141.4510   73.9060  221.1730 C   0  0  0  0  0  0  0  0  0  0  0  0
  140.8403   74.8108  221.3083 H   0  0  0  0  0  0  0  0  0  0  0  0
  134.8010   70.6190  224.8340 C   0  0  0  0  0  0  0  0  0  0  0  0
  134.6930   69.9570  226.0700 C   0  0  0  0  0  0  0  0  0  0  0  0
  134.9573   68.8918  226.1438 H   0  0  0  0  0  0  0  0  0  0  0  0
  134.2520   70.6430  227.2060 C   0  0  0  0  0  0  0  0  0  0  0  0
  134.1679   70.1155  228.1676 H   0  0  0  0  0  0  0  0  0  0  0  0
  133.9180   71.9970  227.1220 C   0  0  0  0  0  0  0  0  0  0  0  0
  133.5686   72.5342  228.0161 H   0  0  0  0  0  0  0  0  0  0  0  0
  134.0280   72.6680  225.9020 C   0  0  0  0  0  0  0  0  0  0  0  0
  133.7688   73.7350  225.8371 H   0  0  0  0  0  0  0  0  0  0  0  0
  134.4670   71.9860  224.7630 C   0  0  0  0  0  0  0  0  0  0  0  0
  134.5522   72.5202  223.8052 H   0  0  0  0  0  0  0  0  0  0  0  0
  1  2  1  0
  2  3  1  0
  3  4  2  0
  4  5  1  0
  5  6  1  0
  5  7  1  0
  5  8  1  0
  8  9  1  1
  8 10  1  0
 10 11  1  0
 10 12  1  0
 10 13  1  0
  8 14  1  0
 14 15  1  6
 14 16  1  0
 16 17  2  0
 17 18  1  0
 17 19  1  0
 19 20  1  0
 19 21  2  0
 21 22  1  0
 21 23  1  0
 23 24  1  0
 23 25  2  0
 25 26  1  0
 14 27  1  0
 27 28  1  0
 27 29  1  0
 29 30  2  0
 30 31  1  0
 30 32  1  0
 32 33  1  0
 32 34  2  0
 34 35  1  0
 35 36  3  0
 34 37  1  0
 37 38  1  0
 37 39  2  0
 39 40  1  0
  3 41  1  0
 41 42  2  0
 42 43  1  0
 42 44  1  0
 44 45  1  0
 44 46  2  0
 46 47  1  0
 46 48  1  0
 48 49  1  0
 48 50  2  0
 50 51  1  0
 25 16  1  0
 39 29  1  0
 50 41  1  0
M  END
>  <UniqueID>  (48) 
30

>  <SMILES>  (48) 
C[C@@H](C/N=C(\O)c1ccccc1)[C@@H](Nc1ccc(C#N)c(Cl)c1)c1ccc(Cl)c(Cl)c1

>  <Energy>  (48) 
49.30363712332221

>  <Genealogy>  (48) 
CC(CN=C(O)c1ccccc1)C(Nc1ccc(C#N)c(Cl)c1)c1ccc(Cl)c(Cl)c1 (tautomer)
C[C@@H](CN=C(O)c1ccccc1)[C@@H](Nc1ccc(C#N)c(Cl)c1)c1ccc(Cl)c(Cl)c1 (chirality)
C[C@@H](C/N=C(\O)c1ccccc1)[C@@H](Nc1ccc(C#N)c(Cl)c1)c1ccc(Cl)c(Cl)c1 (cis-trans isomerization)
C[C@@H](C/N=C(\O)c1ccccc1)[C@@H](Nc1ccc(C#N)c(Cl)c1)c1ccc(Cl)c(Cl)c1 (3D coordinates assigned)
C[C@@H](C/N=C(\O)c1ccccc1)[C@@H](Nc1ccc(C#N)c(Cl)c1)c1ccc(Cl)c(Cl)c1 (optimized conformer: 49.30363712332221 kcal/mol)

>  <smiles>  (48) 
CC(CNC(=O)c1ccccc1)C(Nc1ccc(C#N)c(Cl)c1)c1ccc(Cl)c(Cl)c1

>  <score_type>  (48) 
oracle

>  <origin>  (48) 
autodockgpu

>  <m_score__min__energy>  (48) 
-8.5

>  <m_primary>  (48) 
energy

>  <meeko>  (48) 
{"free_energy": -7.81, "intermolecular_energy": -10.79, "internal_energy": -1.81, "cluster_size": 2, "cluster_id": 4, "rank_in_cluster": 2}

>  <energy>  (48) 
-7.87

>  <cluster_rmsd>  (48) 
1.22

>  <rmsd>  (48) 
270.37

>  <cluster>  (48) 
3

$$$$
CBUCDBLHFQUVQW-IGKZSQPTNA-N
     RDKit          3D

 51 53  0  0  0  0  0  0  0  0999 V2000
  138.6320   74.7260  222.7490 H   0  0  0  0  0  0  0  0  0  0  0  0
  139.5790   75.0770  222.7030 O   0  0  0  0  0  0  0  0  0  0  0  0
  140.1010   75.7460  221.5910 C   0  0  0  0  0  0  0  0  0  0  0  0
  139.9980   75.2560  220.3870 N   0  0  0  0  0  0  0  0  0  0  0  0
  141.0480   74.5870  219.6220 C   0  0  0  0  0  0  0  0  0  0  0  0
  141.3724   75.2528  218.8087 H   0  0  0  0  0  0  0  0  0  0  0  0
  140.6324   73.6473  219.2292 H   0  0  0  0  0  0  0  0  0  0  0  0
  142.2790   74.2330  220.4990 C   0  0  2  0  0  0  0  0  0  0  0  0
  142.3799   74.9930  221.2878 H   0  0  0  0  0  0  0  0  0  0  0  0
  143.5260   74.2210  219.5970 C   0  0  0  0  0  0  0  0  0  0  0  0
  144.4309   74.2123  220.2224 H   0  0  0  0  0  0  0  0  0  0  0  0
  143.5106   73.3230  218.9619 H   0  0  0  0  0  0  0  0  0  0  0  0
  143.5278   75.1192  218.9619 H   0  0  0  0  0  0  0  0  0  0  0  0
  142.1160   72.8640  221.2330 C   0  0  2  0  0  0  0  0  0  0  0  0
  142.9117   72.8204  221.9912 H   0  0  0  0  0  0  0  0  0  0  0  0
  142.2750   71.6890  220.2860 C   0  0  0  0  0  0  0  0  0  0  0  0
  141.2290   71.3220  219.4200 C   0  0  0  0  0  0  0  0  0  0  0  0
  140.2832   71.8834  219.4365 H   0  0  0  0  0  0  0  0  0  0  0  0
  141.3840   70.2500  218.5400 C   0  0  0  0  0  0  0  0  0  0  0  0
  140.5601   69.9719  217.8663 H   0  0  0  0  0  0  0  0  0  0  0  0
  142.5800   69.5280  218.5100 C   0  0  0  0  0  0  0  0  0  0  0  0
  142.7380   68.1890  217.3810 Cl  0  0  0  0  0  0  0  0  0  0  0  0
  143.6320   69.8860  219.3680 C   0  0  0  0  0  0  0  0  0  0  0  0
  145.1620   69.0200  219.3440 Cl  0  0  0  0  0  0  0  0  0  0  0  0
  143.4780   70.9620  220.2500 C   0  0  0  0  0  0  0  0  0  0  0  0
  144.3045   71.2410  220.9201 H   0  0  0  0  0  0  0  0  0  0  0  0
  140.7980   72.7690  221.8800 N   0  0  0  0  0  0  0  0  0  0  0  0
  140.0730   73.4740  221.6120 H   0  0  0  0  0  0  0  0  0  0  0  0
  140.3880   71.6910  222.7450 C   0  0  0  0  0  0  0  0  0  0  0  0
  139.6880   70.5670  222.2630 C   0  0  0  0  0  0  0  0  0  0  0  0
  139.4450   70.4918  221.1928 H   0  0  0  0  0  0  0  0  0  0  0  0
  139.3010   69.5480  223.1360 C   0  0  0  0  0  0  0  0  0  0  0  0
  138.7566   68.6742  222.7486 H   0  0  0  0  0  0  0  0  0  0  0  0
  139.6010   69.6310  224.5000 C   0  0  0  0  0  0  0  0  0  0  0  0
  139.1900   68.5640  225.3800 C   0  0  0  0  0  0  0  0  0  0  0  0
  138.8600   67.7090  226.0860 N   0  0  0  0  0  0  0  0  0  0  0  0
  140.2950   70.7490  224.9930 C   0  0  0  0  0  0  0  0  0  0  0  0
  140.6960   70.9020  226.7010 Cl  0  0  0  0  0  0  0  0  0  0  0  0
  140.6820   71.7690  224.1160 C   0  0  0  0  0  0  0  0  0  0  0  0
  141.2237   72.6434  224.5059 H   0  0  0  0  0  0  0  0  0  0  0  0
  140.7760   77.0500  221.7890 C   0  0  0  0  0  0  0  0  0  0  0  0
  141.1360   77.8360  220.6790 C   0  0  0  0  0  0  0  0  0  0  0  0
  140.8948   77.4896  219.6632 H   0  0  0  0  0  0  0  0  0  0  0  0
  141.7980   79.0540  220.8580 C   0  0  0  0  0  0  0  0  0  0  0  0
  142.0778   79.6602  219.9838 H   0  0  0  0  0  0  0  0  0  0  0  0
  142.1050   79.5030  222.1440 C   0  0  0  0  0  0  0  0  0  0  0  0
  142.6286   80.4605  222.2821 H   0  0  0  0  0  0  0  0  0  0  0  0
  141.7470   78.7360  223.2550 C   0  0  0  0  0  0  0  0  0  0  0  0
  141.9855   79.0923  224.2680 H   0  0  0  0  0  0  0  0  0  0  0  0
  141.0860   77.5160  223.0820 C   0  0  0  0  0  0  0  0  0  0  0  0
  140.8063   76.9164  223.9608 H   0  0  0  0  0  0  0  0  0  0  0  0
  1  2  1  0
  2  3  1  0
  3  4  2  0
  4  5  1  0
  5  6  1  0
  5  7  1  0
  5  8  1  0
  8  9  1  1
  8 10  1  0
 10 11  1  0
 10 12  1  0
 10 13  1  0
  8 14  1  0
 14 15  1  1
 14 16  1  0
 16 17  2  0
 17 18  1  0
 17 19  1  0
 19 20  1  0
 19 21  2  0
 21 22  1  0
 21 23  1  0
 23 24  1  0
 23 25  2  0
 25 26  1  0
 14 27  1  0
 27 28  1  0
 27 29  1  0
 29 30  2  0
 30 31  1  0
 30 32  1  0
 32 33  1  0
 32 34  2  0
 34 35  1  0
 35 36  3  0
 34 37  1  0
 37 38  1  0
 37 39  2  0
 39 40  1  0
  3 41  1  0
 41 42  2  0
 42 43  1  0
 42 44  1  0
 44 45  1  0
 44 46  2  0
 46 47  1  0
 46 48  1  0
 48 49  1  0
 48 50  2  0
 50 51  1  0
 25 16  1  0
 39 29  1  0
 50 41  1  0
M  END
>  <UniqueID>  (49) 
30

>  <SMILES>  (49) 
C[C@@H](C/N=C(\O)c1ccccc1)[C@@H](Nc1ccc(C#N)c(Cl)c1)c1ccc(Cl)c(Cl)c1

>  <Energy>  (49) 
49.30363712332221

>  <Genealogy>  (49) 
CC(CN=C(O)c1ccccc1)C(Nc1ccc(C#N)c(Cl)c1)c1ccc(Cl)c(Cl)c1 (tautomer)
C[C@@H](CN=C(O)c1ccccc1)[C@@H](Nc1ccc(C#N)c(Cl)c1)c1ccc(Cl)c(Cl)c1 (chirality)
C[C@@H](C/N=C(\O)c1ccccc1)[C@@H](Nc1ccc(C#N)c(Cl)c1)c1ccc(Cl)c(Cl)c1 (cis-trans isomerization)
C[C@@H](C/N=C(\O)c1ccccc1)[C@@H](Nc1ccc(C#N)c(Cl)c1)c1ccc(Cl)c(Cl)c1 (3D coordinates assigned)
C[C@@H](C/N=C(\O)c1ccccc1)[C@@H](Nc1ccc(C#N)c(Cl)c1)c1ccc(Cl)c(Cl)c1 (optimized conformer: 49.30363712332221 kcal/mol)

>  <smiles>  (49) 
CC(CNC(=O)c1ccccc1)C(Nc1ccc(C#N)c(Cl)c1)c1ccc(Cl)c(Cl)c1

>  <score_type>  (49) 
oracle

>  <origin>  (49) 
autodockgpu

>  <m_score__min__energy>  (49) 
-8.5

>  <m_primary>  (49) 
energy

>  <meeko>  (49) 
{"free_energy": -6.88, "intermolecular_energy": -9.86, "internal_energy": -2.89, "cluster_size": 2, "cluster_id": 10, "rank_in_cluster": 1}

>  <energy>  (49) 
-8.11

>  <cluster_rmsd>  (49) 
0.0

>  <rmsd>  (49) 
270.2

>  <cluster>  (49) 
4

$$$$
CBUCDBLHFQUVQW-IGKZSQPTNA-N
     RDKit          3D

 51 53  0  0  0  0  0  0  0  0999 V2000
  137.7150   73.0250  223.1460 H   0  0  0  0  0  0  0  0  0  0  0  0
  138.3740   72.4080  222.6910 O   0  0  0  0  0  0  0  0  0  0  0  0
  139.7020   72.2520  223.1060 C   0  0  0  0  0  0  0  0  0  0  0  0
  140.6820   72.8620  222.5000 N   0  0  0  0  0  0  0  0  0  0  0  0
  140.7840   73.1500  221.0710 C   0  0  0  0  0  0  0  0  0  0  0  0
  140.0206   72.5655  220.5366 H   0  0  0  0  0  0  0  0  0  0  0  0
  141.7984   72.8784  220.7436 H   0  0  0  0  0  0  0  0  0  0  0  0
  140.5700   74.6550  220.7590 C   0  0  2  0  0  0  0  0  0  0  0  0
  139.7627   74.7484  220.0177 H   0  0  0  0  0  0  0  0  0  0  0  0
  141.8870   75.2240  220.2000 C   0  0  0  0  0  0  0  0  0  0  0  0
  142.5463   75.5088  221.0332 H   0  0  0  0  0  0  0  0  0  0  0  0
  142.3840   74.4603  219.5837 H   0  0  0  0  0  0  0  0  0  0  0  0
  141.6716   76.1093  219.5837 H   0  0  0  0  0  0  0  0  0  0  0  0
  140.1050   75.4670  222.0100 C   0  0  2  0  0  0  0  0  0  0  0  0
  139.9337   74.7342  222.8123 H   0  0  0  0  0  0  0  0  0  0  0  0
  138.8140   76.2210  221.7500 C   0  0  0  0  0  0  0  0  0  0  0  0
  137.8280   76.3150  222.7470 C   0  0  0  0  0  0  0  0  0  0  0  0
  137.9872   75.8282  223.7205 H   0  0  0  0  0  0  0  0  0  0  0  0
  136.6480   77.0220  222.5100 C   0  0  0  0  0  0  0  0  0  0  0  0
  135.8839   77.0910  223.2983 H   0  0  0  0  0  0  0  0  0  0  0  0
  136.4320   77.6430  221.2760 C   0  0  0  0  0  0  0  0  0  0  0  0
  134.9360   78.5300  221.0200 Cl  0  0  0  0  0  0  0  0  0  0  0  0
  137.4120   77.5590  220.2740 C   0  0  0  0  0  0  0  0  0  0  0  0
  137.1910   78.3470  218.7180 Cl  0  0  0  0  0  0  0  0  0  0  0  0
  138.5960   76.8510  220.5120 C   0  0  0  0  0  0  0  0  0  0  0  0
  139.3615   76.7871  219.7246 H   0  0  0  0  0  0  0  0  0  0  0  0
  141.1370   76.4330  222.4200 N   0  0  0  0  0  0  0  0  0  0  0  0
  142.0370   76.0540  222.7920 H   0  0  0  0  0  0  0  0  0  0  0  0
  141.0530   77.8570  222.2100 C   0  0  0  0  0  0  0  0  0  0  0  0
  141.8370   78.5210  221.2470 C   0  0  0  0  0  0  0  0  0  0  0  0
  142.5368   77.9468  220.6220 H   0  0  0  0  0  0  0  0  0  0  0  0
  141.7320   79.9040  221.0800 C   0  0  0  0  0  0  0  0  0  0  0  0
  142.3487   80.4118  220.3238 H   0  0  0  0  0  0  0  0  0  0  0  0
  140.8470   80.6470  221.8690 C   0  0  0  0  0  0  0  0  0  0  0  0
  140.7580   82.0740  221.6770 C   0  0  0  0  0  0  0  0  0  0  0  0
  140.6870   83.2180  221.5230 N   0  0  0  0  0  0  0  0  0  0  0  0
  140.0620   79.9960  222.8360 C   0  0  0  0  0  0  0  0  0  0  0  0
  138.9360   80.8860  223.8550 Cl  0  0  0  0  0  0  0  0  0  0  0  0
  140.1700   78.6100  223.0010 C   0  0  0  0  0  0  0  0  0  0  0  0
  139.5552   78.1042  223.7601 H   0  0  0  0  0  0  0  0  0  0  0  0
  139.9940   71.3840  224.2690 C   0  0  0  0  0  0  0  0  0  0  0  0
  140.7460   71.8790  225.3500 C   0  0  0  0  0  0  0  0  0  0  0  0
  141.0982   72.9210  225.3385 H   0  0  0  0  0  0  0  0  0  0  0  0
  141.0490   71.0560  226.4390 C   0  0  0  0  0  0  0  0  0  0  0  0
  141.6398   71.4515  227.2784 H   0  0  0  0  0  0  0  0  0  0  0  0
  140.6030   69.7330  226.4630 C   0  0  0  0  0  0  0  0  0  0  0  0
  140.8455   69.0866  227.3193 H   0  0  0  0  0  0  0  0  0  0  0  0
  139.8490   69.2300  225.4000 C   0  0  0  0  0  0  0  0  0  0  0  0
  139.4942   68.1890  225.4219 H   0  0  0  0  0  0  0  0  0  0  0  0
  139.5450   70.0490  224.3080 C   0  0  0  0  0  0  0  0  0  0  0  0
  138.9510   69.6481  223.4734 H   0  0  0  0  0  0  0  0  0  0  0  0
  1  2  1  0
  2  3  1  0
  3  4  2  0
  4  5  1  0
  5  6  1  0
  5  7  1  0
  5  8  1  0
  8  9  1  6
  8 10  1  0
 10 11  1  0
 10 12  1  0
 10 13  1  0
  8 14  1  0
 14 15  1  1
 14 16  1  0
 16 17  2  0
 17 18  1  0
 17 19  1  0
 19 20  1  0
 19 21  2  0
 21 22  1  0
 21 23  1  0
 23 24  1  0
 23 25  2  0
 25 26  1  0
 14 27  1  0
 27 28  1  0
 27 29  1  0
 29 30  2  0
 30 31  1  0
 30 32  1  0
 32 33  1  0
 32 34  2  0
 34 35  1  0
 35 36  3  0
 34 37  1  0
 37 38  1  0
 37 39  2  0
 39 40  1  0
  3 41  1  0
 41 42  2  0
 42 43  1  0
 42 44  1  0
 44 45  1  0
 44 46  2  0
 46 47  1  0
 46 48  1  0
 48 49  1  0
 48 50  2  0
 50 51  1  0
 25 16  1  0
 39 29  1  0
 50 41  1  0
M  END
>  <UniqueID>  (50) 
30

>  <SMILES>  (50) 
C[C@@H](C/N=C(\O)c1ccccc1)[C@@H](Nc1ccc(C#N)c(Cl)c1)c1ccc(Cl)c(Cl)c1

>  <Energy>  (50) 
49.30363712332221

>  <Genealogy>  (50) 
CC(CN=C(O)c1ccccc1)C(Nc1ccc(C#N)c(Cl)c1)c1ccc(Cl)c(Cl)c1 (tautomer)
C[C@@H](CN=C(O)c1ccccc1)[C@@H](Nc1ccc(C#N)c(Cl)c1)c1ccc(Cl)c(Cl)c1 (chirality)
C[C@@H](C/N=C(\O)c1ccccc1)[C@@H](Nc1ccc(C#N)c(Cl)c1)c1ccc(Cl)c(Cl)c1 (cis-trans isomerization)
C[C@@H](C/N=C(\O)c1ccccc1)[C@@H](Nc1ccc(C#N)c(Cl)c1)c1ccc(Cl)c(Cl)c1 (3D coordinates assigned)
C[C@@H](C/N=C(\O)c1ccccc1)[C@@H](Nc1ccc(C#N)c(Cl)c1)c1ccc(Cl)c(Cl)c1 (optimized conformer: 49.30363712332221 kcal/mol)

>  <smiles>  (50) 
CC(CNC(=O)c1ccccc1)C(Nc1ccc(C#N)c(Cl)c1)c1ccc(Cl)c(Cl)c1

>  <score_type>  (50) 
oracle

>  <origin>  (50) 
autodockgpu

>  <m_score__min__energy>  (50) 
-8.5

>  <m_primary>  (50) 
energy

>  <meeko>  (50) 
{"free_energy": -6.76, "intermolecular_energy": -9.74, "internal_energy": -1.82, "cluster_size": 1, "cluster_id": 11, "rank_in_cluster": 1}

>  <energy>  (50) 
-7.81

>  <cluster_rmsd>  (50) 
0.69

>  <rmsd>  (50) 
270.0

>  <cluster>  (50) 
4

$$$$
CBUCDBLHFQUVQW-IGKZSQPTNA-N
     RDKit          3D

 51 53  0  0  0  0  0  0  0  0999 V2000
  142.7750   76.4130  221.2020 H   0  0  0  0  0  0  0  0  0  0  0  0
  141.8130   76.1800  220.9960 O   0  0  0  0  0  0  0  0  0  0  0  0
  140.7190   76.8250  221.5820 C   0  0  0  0  0  0  0  0  0  0  0  0
  139.5140   76.3320  221.5060 N   0  0  0  0  0  0  0  0  0  0  0  0
  138.9480   75.2750  222.3410 C   0  0  0  0  0  0  0  0  0  0  0  0
  138.1329   75.6995  222.9455 H   0  0  0  0  0  0  0  0  0  0  0  0
  139.7538   74.8791  222.9766 H   0  0  0  0  0  0  0  0  0  0  0  0
  138.3850   74.0990  221.4980 C   0  0  2  0  0  0  0  0  0  0  0  0
  138.0780   74.4863  220.5153 H   0  0  0  0  0  0  0  0  0  0  0  0
  137.1780   73.5030  222.2460 C   0  0  0  0  0  0  0  0  0  0  0  0
  137.3423   73.5841  223.3306 H   0  0  0  0  0  0  0  0  0  0  0  0
  136.2671   74.0549  221.9708 H   0  0  0  0  0  0  0  0  0  0  0  0
  137.0624   72.4443  221.9708 H   0  0  0  0  0  0  0  0  0  0  0  0
  139.4570   72.9980  221.2160 C   0  0  2  0  0  0  0  0  0  0  0  0
  139.1155   72.4506  220.3251 H   0  0  0  0  0  0  0  0  0  0  0  0
  139.5870   72.0230  222.3710 C   0  0  0  0  0  0  0  0  0  0  0  0
  140.4640   72.2910  223.4380 C   0  0  0  0  0  0  0  0  0  0  0  0
  141.0698   73.2091  223.4304 H   0  0  0  0  0  0  0  0  0  0  0  0
  140.5700   71.3990  224.5060 C   0  0  0  0  0  0  0  0  0  0  0  0
  141.2578   71.6186  225.3359 H   0  0  0  0  0  0  0  0  0  0  0  0
  139.8070   70.2280  224.5270 C   0  0  0  0  0  0  0  0  0  0  0  0
  139.9640   69.1350  225.8960 Cl  0  0  0  0  0  0  0  0  0  0  0  0
  138.9260   69.9510  223.4700 C   0  0  0  0  0  0  0  0  0  0  0  0
  137.9290   68.5030  223.4700 Cl  0  0  0  0  0  0  0  0  0  0  0  0
  138.8180   70.8460  222.3990 C   0  0  0  0  0  0  0  0  0  0  0  0
  138.1259   70.6268  221.5726 H   0  0  0  0  0  0  0  0  0  0  0  0
  140.7740   73.6020  220.9620 N   0  0  0  0  0  0  0  0  0  0  0  0
  140.9020   74.6110  221.2050 H   0  0  0  0  0  0  0  0  0  0  0  0
  141.9420   72.8680  220.5410 C   0  0  0  0  0  0  0  0  0  0  0  0
  141.8500   71.6470  219.8450 C   0  0  0  0  0  0  0  0  0  0  0  0
  140.8618   71.2296  219.6016 H   0  0  0  0  0  0  0  0  0  0  0  0
  143.0060   70.9630  219.4620 C   0  0  0  0  0  0  0  0  0  0  0  0
  142.9224   70.0102  218.9187 H   0  0  0  0  0  0  0  0  0  0  0  0
  144.2700   71.4820  219.7650 C   0  0  0  0  0  0  0  0  0  0  0  0
  145.4480   70.7550  219.3580 C   0  0  0  0  0  0  0  0  0  0  0  0
  146.3920   70.1730  219.0310 N   0  0  0  0  0  0  0  0  0  0  0  0
  144.3740   72.6980  220.4620 C   0  0  0  0  0  0  0  0  0  0  0  0
  145.9400   73.3910  220.8700 Cl  0  0  0  0  0  0  0  0  0  0  0  0
  143.2130   73.3800  220.8450 C   0  0  0  0  0  0  0  0  0  0  0  0
  143.2980   74.3306  221.3919 H   0  0  0  0  0  0  0  0  0  0  0  0
  140.9390   78.0920  222.3170 C   0  0  0  0  0  0  0  0  0  0  0  0
  139.9120   78.6410  223.1050 C   0  0  0  0  0  0  0  0  0  0  0  0
  138.9502   78.1146  223.1928 H   0  0  0  0  0  0  0  0  0  0  0  0
  140.1050   79.8520  223.7780 C   0  0  0  0  0  0  0  0  0  0  0  0
  139.2939   80.2760  224.3882 H   0  0  0  0  0  0  0  0  0  0  0  0
  141.3250   80.5240  223.6770 C   0  0  0  0  0  0  0  0  0  0  0  0
  141.4741   81.4765  224.2067 H   0  0  0  0  0  0  0  0  0  0  0  0
  142.3560   79.9860  222.9030 C   0  0  0  0  0  0  0  0  0  0  0  0
  143.3177   80.5145  222.8259 H   0  0  0  0  0  0  0  0  0  0  0  0
  142.1680   78.7770  222.2260 C   0  0  0  0  0  0  0  0  0  0  0  0
  142.9838   78.3578  221.6188 H   0  0  0  0  0  0  0  0  0  0  0  0
  1  2  1  0
  2  3  1  0
  3  4  2  0
  4  5  1  0
  5  6  1  0
  5  7  1  0
  5  8  1  0
  8  9  1  6
  8 10  1  0
 10 11  1  0
 10 12  1  0
 10 13  1  0
  8 14  1  0
 14 15  1  6
 14 16  1  0
 16 17  2  0
 17 18  1  0
 17 19  1  0
 19 20  1  0
 19 21  2  0
 21 22  1  0
 21 23  1  0
 23 24  1  0
 23 25  2  0
 25 26  1  0
 14 27  1  0
 27 28  1  0
 27 29  1  0
 29 30  2  0
 30 31  1  0
 30 32  1  0
 32 33  1  0
 32 34  2  0
 34 35  1  0
 35 36  3  0
 34 37  1  0
 37 38  1  0
 37 39  2  0
 39 40  1  0
  3 41  1  0
 41 42  2  0
 42 43  1  0
 42 44  1  0
 44 45  1  0
 44 46  2  0
 46 47  1  0
 46 48  1  0
 48 49  1  0
 48 50  2  0
 50 51  1  0
 25 16  1  0
 39 29  1  0
 50 41  1  0
M  END
>  <UniqueID>  (51) 
30

>  <SMILES>  (51) 
C[C@@H](C/N=C(\O)c1ccccc1)[C@@H](Nc1ccc(C#N)c(Cl)c1)c1ccc(Cl)c(Cl)c1

>  <Energy>  (51) 
49.30363712332221

>  <Genealogy>  (51) 
CC(CN=C(O)c1ccccc1)C(Nc1ccc(C#N)c(Cl)c1)c1ccc(Cl)c(Cl)c1 (tautomer)
C[C@@H](CN=C(O)c1ccccc1)[C@@H](Nc1ccc(C#N)c(Cl)c1)c1ccc(Cl)c(Cl)c1 (chirality)
C[C@@H](C/N=C(\O)c1ccccc1)[C@@H](Nc1ccc(C#N)c(Cl)c1)c1ccc(Cl)c(Cl)c1 (cis-trans isomerization)
C[C@@H](C/N=C(\O)c1ccccc1)[C@@H](Nc1ccc(C#N)c(Cl)c1)c1ccc(Cl)c(Cl)c1 (3D coordinates assigned)
C[C@@H](C/N=C(\O)c1ccccc1)[C@@H](Nc1ccc(C#N)c(Cl)c1)c1ccc(Cl)c(Cl)c1 (optimized conformer: 49.30363712332221 kcal/mol)

>  <smiles>  (51) 
CC(CNC(=O)c1ccccc1)C(Nc1ccc(C#N)c(Cl)c1)c1ccc(Cl)c(Cl)c1

>  <score_type>  (51) 
oracle

>  <origin>  (51) 
autodockgpu

>  <m_score__min__energy>  (51) 
-8.5

>  <m_primary>  (51) 
energy

>  <meeko>  (51) 
{"free_energy": -6.9, "intermolecular_energy": -9.89, "internal_energy": -2.7, "cluster_size": 3, "cluster_id": 8, "rank_in_cluster": 2}

>  <energy>  (51) 
-7.94

>  <cluster_rmsd>  (51) 
0.0

>  <rmsd>  (51) 
270.4

>  <cluster>  (51) 
5

$$$$
CBUCDBLHFQUVQW-IGKZSQPTNA-N
     RDKit          3D

 51 53  0  0  0  0  0  0  0  0999 V2000
  142.6200   76.5010  221.0190 H   0  0  0  0  0  0  0  0  0  0  0  0
  141.6360   76.2980  220.9060 O   0  0  0  0  0  0  0  0  0  0  0  0
  140.7010   76.4000  221.9410 C   0  0  0  0  0  0  0  0  0  0  0  0
  140.0040   75.3720  222.3360 N   0  0  0  0  0  0  0  0  0  0  0  0
  138.7320   74.9130  221.7830 C   0  0  0  0  0  0  0  0  0  0  0  0
  138.5154   75.4870  220.8700 H   0  0  0  0  0  0  0  0  0  0  0  0
  137.9569   75.0678  222.5480 H   0  0  0  0  0  0  0  0  0  0  0  0
  138.7550   73.4020  221.4290 C   0  0  2  0  0  0  0  0  0  0  0  0
  139.0311   73.2942  220.3697 H   0  0  0  0  0  0  0  0  0  0  0  0
  137.3510   72.8240  221.6830 C   0  0  0  0  0  0  0  0  0  0  0  0
  137.1748   72.7515  222.7664 H   0  0  0  0  0  0  0  0  0  0  0  0
  136.5956   73.4843  221.2321 H   0  0  0  0  0  0  0  0  0  0  0  0
  137.2794   71.8232  221.2321 H   0  0  0  0  0  0  0  0  0  0  0  0
  139.8310   72.6130  222.2410 C   0  0  2  0  0  0  0  0  0  0  0  0
  140.0888   73.2388  223.1081 H   0  0  0  0  0  0  0  0  0  0  0  0
  141.0860   72.3620  221.4260 C   0  0  0  0  0  0  0  0  0  0  0  0
  141.3250   71.1020  220.8500 C   0  0  0  0  0  0  0  0  0  0  0  0
  140.6020   70.2866  220.9999 H   0  0  0  0  0  0  0  0  0  0  0  0
  142.4740   70.8790  220.0890 C   0  0  0  0  0  0  0  0  0  0  0  0
  142.6506   69.8895  219.6420 H   0  0  0  0  0  0  0  0  0  0  0  0
  143.4010   71.9060  219.8920 C   0  0  0  0  0  0  0  0  0  0  0  0
  144.8310   71.5870  218.9190 Cl  0  0  0  0  0  0  0  0  0  0  0  0
  143.1720   73.1700  220.4590 C   0  0  0  0  0  0  0  0  0  0  0  0
  144.3000   74.4960  220.2150 Cl  0  0  0  0  0  0  0  0  0  0  0  0
  142.0200   73.3940  221.2220 C   0  0  0  0  0  0  0  0  0  0  0  0
  141.8436   74.3850  221.6657 H   0  0  0  0  0  0  0  0  0  0  0  0
  139.3000   71.3180  222.6940 N   0  0  0  0  0  0  0  0  0  0  0  0
  138.7310   70.7610  222.0150 H   0  0  0  0  0  0  0  0  0  0  0  0
  139.6290   70.6940  223.9520 C   0  0  0  0  0  0  0  0  0  0  0  0
  139.4500   69.3150  224.1750 C   0  0  0  0  0  0  0  0  0  0  0  0
  139.0533   68.6782  223.3706 H   0  0  0  0  0  0  0  0  0  0  0  0
  139.7730   68.7510  225.4110 C   0  0  0  0  0  0  0  0  0  0  0  0
  139.6311   67.6723  225.5730 H   0  0  0  0  0  0  0  0  0  0  0  0
  140.2760   69.5490  226.4450 C   0  0  0  0  0  0  0  0  0  0  0  0
  140.6010   68.9420  227.7120 C   0  0  0  0  0  0  0  0  0  0  0  0
  140.8630   68.4550  228.7280 N   0  0  0  0  0  0  0  0  0  0  0  0
  140.4550   70.9280  226.2350 C   0  0  0  0  0  0  0  0  0  0  0  0
  141.0820   71.9750  227.5030 Cl  0  0  0  0  0  0  0  0  0  0  0  0
  140.1300   71.4890  224.9950 C   0  0  0  0  0  0  0  0  0  0  0  0
  140.2691   72.5684  224.8351 H   0  0  0  0  0  0  0  0  0  0  0  0
  140.5110   77.7070  222.6120 C   0  0  0  0  0  0  0  0  0  0  0  0
  139.2310   78.2840  222.6860 C   0  0  0  0  0  0  0  0  0  0  0  0
  138.3665   77.7509  222.2635 H   0  0  0  0  0  0  0  0  0  0  0  0
  139.0490   79.5310  223.2930 C   0  0  0  0  0  0  0  0  0  0  0  0
  138.0441   79.9754  223.3436 H   0  0  0  0  0  0  0  0  0  0  0  0
  140.1410   80.2130  223.8350 C   0  0  0  0  0  0  0  0  0  0  0  0
  139.9961   81.1947  224.3097 H   0  0  0  0  0  0  0  0  0  0  0  0
  141.4170   79.6480  223.7740 C   0  0  0  0  0  0  0  0  0  0  0  0
  142.2760   80.1839  224.2040 H   0  0  0  0  0  0  0  0  0  0  0  0
  141.6040   78.4020  223.1670 C   0  0  0  0  0  0  0  0  0  0  0  0
  142.6110   77.9616  223.1225 H   0  0  0  0  0  0  0  0  0  0  0  0
  1  2  1  0
  2  3  1  0
  3  4  2  0
  4  5  1  0
  5  6  1  0
  5  7  1  0
  5  8  1  0
  8  9  1  6
  8 10  1  0
 10 11  1  0
 10 12  1  0
 10 13  1  0
  8 14  1  0
 14 15  1  1
 14 16  1  0
 16 17  2  0
 17 18  1  0
 17 19  1  0
 19 20  1  0
 19 21  2  0
 21 22  1  0
 21 23  1  0
 23 24  1  0
 23 25  2  0
 25 26  1  0
 14 27  1  0
 27 28  1  0
 27 29  1  0
 29 30  2  0
 30 31  1  0
 30 32  1  0
 32 33  1  0
 32 34  2  0
 34 35  1  0
 35 36  3  0
 34 37  1  0
 37 38  1  0
 37 39  2  0
 39 40  1  0
  3 41  1  0
 41 42  2  0
 42 43  1  0
 42 44  1  0
 44 45  1  0
 44 46  2  0
 46 47  1  0
 46 48  1  0
 48 49  1  0
 48 50  2  0
 50 51  1  0
 25 16  1  0
 39 29  1  0
 50 41  1  0
M  END
>  <UniqueID>  (52) 
30

>  <SMILES>  (52) 
C[C@@H](C/N=C(\O)c1ccccc1)[C@@H](Nc1ccc(C#N)c(Cl)c1)c1ccc(Cl)c(Cl)c1

>  <Energy>  (52) 
49.30363712332221

>  <Genealogy>  (52) 
CC(CN=C(O)c1ccccc1)C(Nc1ccc(C#N)c(Cl)c1)c1ccc(Cl)c(Cl)c1 (tautomer)
C[C@@H](CN=C(O)c1ccccc1)[C@@H](Nc1ccc(C#N)c(Cl)c1)c1ccc(Cl)c(Cl)c1 (chirality)
C[C@@H](C/N=C(\O)c1ccccc1)[C@@H](Nc1ccc(C#N)c(Cl)c1)c1ccc(Cl)c(Cl)c1 (cis-trans isomerization)
C[C@@H](C/N=C(\O)c1ccccc1)[C@@H](Nc1ccc(C#N)c(Cl)c1)c1ccc(Cl)c(Cl)c1 (3D coordinates assigned)
C[C@@H](C/N=C(\O)c1ccccc1)[C@@H](Nc1ccc(C#N)c(Cl)c1)c1ccc(Cl)c(Cl)c1 (optimized conformer: 49.30363712332221 kcal/mol)

>  <smiles>  (52) 
CC(CNC(=O)c1ccccc1)C(Nc1ccc(C#N)c(Cl)c1)c1ccc(Cl)c(Cl)c1

>  <score_type>  (52) 
oracle

>  <origin>  (52) 
autodockgpu

>  <m_score__min__energy>  (52) 
-8.5

>  <m_primary>  (52) 
energy

>  <meeko>  (52) 
{"free_energy": -8.5, "intermolecular_energy": -11.49, "internal_energy": -1.55, "cluster_size": 4, "cluster_id": 1, "rank_in_cluster": 1}

>  <energy>  (52) 
-7.53

>  <cluster_rmsd>  (52) 
0.0

>  <rmsd>  (52) 
270.33

>  <cluster>  (52) 
6

$$$$
CBUCDBLHFQUVQW-IGKZSQPTNA-N
     RDKit          3D

 51 53  0  0  0  0  0  0  0  0999 V2000
  139.2090   74.0480  222.9460 H   0  0  0  0  0  0  0  0  0  0  0  0
  140.0050   74.2050  222.3440 O   0  0  0  0  0  0  0  0  0  0  0  0
  140.5660   73.2150  221.5300 C   0  0  0  0  0  0  0  0  0  0  0  0
  139.9090   72.1320  221.2200 N   0  0  0  0  0  0  0  0  0  0  0  0
  138.6250   72.0570  220.5270 C   0  0  0  0  0  0  0  0  0  0  0  0
  138.6016   71.1378  219.9232 H   0  0  0  0  0  0  0  0  0  0  0  0
  138.5291   72.9531  219.8963 H   0  0  0  0  0  0  0  0  0  0  0  0
  137.4260   72.0380  221.5130 C   0  0  2  0  0  0  0  0  0  0  0  0
  136.5417   71.6539  220.9834 H   0  0  0  0  0  0  0  0  0  0  0  0
  137.1800   73.4760  222.0020 C   0  0  0  0  0  0  0  0  0  0  0  0
  137.1769   73.4938  223.1019 H   0  0  0  0  0  0  0  0  0  0  0  0
  137.9789   74.1326  221.6269 H   0  0  0  0  0  0  0  0  0  0  0  0
  136.2083   73.8297  221.6269 H   0  0  0  0  0  0  0  0  0  0  0  0
  137.6590   71.0760  222.7210 C   0  0  2  0  0  0  0  0  0  0  0  0
  137.8277   70.0753  222.2965 H   0  0  0  0  0  0  0  0  0  0  0  0
  136.4550   71.0220  223.6430 C   0  0  0  0  0  0  0  0  0  0  0  0
  135.8740   69.7890  223.9900 C   0  0  0  0  0  0  0  0  0  0  0  0
  136.2878   68.8558  223.5802 H   0  0  0  0  0  0  0  0  0  0  0  0
  134.7770   69.7410  224.8500 C   0  0  0  0  0  0  0  0  0  0  0  0
  134.3320   68.7708  225.1158 H   0  0  0  0  0  0  0  0  0  0  0  0
  134.2400   70.9200  225.3760 C   0  0  0  0  0  0  0  0  0  0  0  0
  132.8620   70.8170  226.4630 Cl  0  0  0  0  0  0  0  0  0  0  0  0
  134.8140   72.1570  225.0410 C   0  0  0  0  0  0  0  0  0  0  0  0
  134.1860   73.6610  225.7010 Cl  0  0  0  0  0  0  0  0  0  0  0  0
  135.9160   72.2040  224.1790 C   0  0  0  0  0  0  0  0  0  0  0  0
  136.3639   73.1745  223.9190 H   0  0  0  0  0  0  0  0  0  0  0  0
  138.8310   71.4950  223.5050 N   0  0  0  0  0  0  0  0  0  0  0  0
  139.2440   72.4340  223.3000 H   0  0  0  0  0  0  0  0  0  0  0  0
  139.3620   70.7700  224.6330 C   0  0  0  0  0  0  0  0  0  0  0  0
  139.2980   69.3660  224.7190 C   0  0  0  0  0  0  0  0  0  0  0  0
  138.8366   68.7887  223.9042 H   0  0  0  0  0  0  0  0  0  0  0  0
  139.8170   68.7020  225.8330 C   0  0  0  0  0  0  0  0  0  0  0  0
  139.7639   67.6047  225.8885 H   0  0  0  0  0  0  0  0  0  0  0  0
  140.4040   69.4230  226.8790 C   0  0  0  0  0  0  0  0  0  0  0  0
  140.9310   68.7120  228.0180 C   0  0  0  0  0  0  0  0  0  0  0  0
  141.3540   68.1430  228.9310 N   0  0  0  0  0  0  0  0  0  0  0  0
  140.4690   70.8250  226.8060 C   0  0  0  0  0  0  0  0  0  0  0  0
  141.1960   71.7780  228.0950 Cl  0  0  0  0  0  0  0  0  0  0  0  0
  139.9480   71.4870  225.6880 C   0  0  0  0  0  0  0  0  0  0  0  0
  139.9985   72.5846  225.6355 H   0  0  0  0  0  0  0  0  0  0  0  0
  141.9350   73.4110  220.9990 C   0  0  0  0  0  0  0  0  0  0  0  0
  142.8230   72.3250  220.9120 C   0  0  0  0  0  0  0  0  0  0  0  0
  142.4907   71.3224  221.2193 H   0  0  0  0  0  0  0  0  0  0  0  0
  144.1250   72.5090  220.4380 C   0  0  0  0  0  0  0  0  0  0  0  0
  144.8133   71.6531  220.3783 H   0  0  0  0  0  0  0  0  0  0  0  0
  144.5540   73.7770  220.0400 C   0  0  0  0  0  0  0  0  0  0  0  0
  145.5793   73.9199  219.6680 H   0  0  0  0  0  0  0  0  0  0  0  0
  143.6790   74.8640  220.1150 C   0  0  0  0  0  0  0  0  0  0  0  0
  144.0158   75.8625  219.7995 H   0  0  0  0  0  0  0  0  0  0  0  0
  142.3770   74.6850  220.5900 C   0  0  0  0  0  0  0  0  0  0  0  0
  141.6926   75.5444  220.6450 H   0  0  0  0  0  0  0  0  0  0  0  0
  1  2  1  0
  2  3  1  0
  3  4  2  0
  4  5  1  0
  5  6  1  0
  5  7  1  0
  5  8  1  0
  8  9  1  6
  8 10  1  0
 10 11  1  0
 10 12  1  0
 10 13  1  0
  8 14  1  0
 14 15  1  6
 14 16  1  0
 16 17  2  0
 17 18  1  0
 17 19  1  0
 19 20  1  0
 19 21  2  0
 21 22  1  0
 21 23  1  0
 23 24  1  0
 23 25  2  0
 25 26  1  0
 14 27  1  0
 27 28  1  0
 27 29  1  0
 29 30  2  0
 30 31  1  0
 30 32  1  0
 32 33  1  0
 32 34  2  0
 34 35  1  0
 35 36  3  0
 34 37  1  0
 37 38  1  0
 37 39  2  0
 39 40  1  0
  3 41  1  0
 41 42  2  0
 42 43  1  0
 42 44  1  0
 44 45  1  0
 44 46  2  0
 46 47  1  0
 46 48  1  0
 48 49  1  0
 48 50  2  0
 50 51  1  0
 25 16  1  0
 39 29  1  0
 50 41  1  0
M  END
>  <UniqueID>  (53) 
30

>  <SMILES>  (53) 
C[C@@H](C/N=C(\O)c1ccccc1)[C@@H](Nc1ccc(C#N)c(Cl)c1)c1ccc(Cl)c(Cl)c1

>  <Energy>  (53) 
49.30363712332221

>  <Genealogy>  (53) 
CC(CN=C(O)c1ccccc1)C(Nc1ccc(C#N)c(Cl)c1)c1ccc(Cl)c(Cl)c1 (tautomer)
C[C@@H](CN=C(O)c1ccccc1)[C@@H](Nc1ccc(C#N)c(Cl)c1)c1ccc(Cl)c(Cl)c1 (chirality)
C[C@@H](C/N=C(\O)c1ccccc1)[C@@H](Nc1ccc(C#N)c(Cl)c1)c1ccc(Cl)c(Cl)c1 (cis-trans isomerization)
C[C@@H](C/N=C(\O)c1ccccc1)[C@@H](Nc1ccc(C#N)c(Cl)c1)c1ccc(Cl)c(Cl)c1 (3D coordinates assigned)
C[C@@H](C/N=C(\O)c1ccccc1)[C@@H](Nc1ccc(C#N)c(Cl)c1)c1ccc(Cl)c(Cl)c1 (optimized conformer: 49.30363712332221 kcal/mol)

>  <smiles>  (53) 
CC(CNC(=O)c1ccccc1)C(Nc1ccc(C#N)c(Cl)c1)c1ccc(Cl)c(Cl)c1

>  <score_type>  (53) 
oracle

>  <origin>  (53) 
autodockgpu

>  <m_score__min__energy>  (53) 
-8.5

>  <m_primary>  (53) 
energy

>  <meeko>  (53) 
{"free_energy": -7.94, "intermolecular_energy": -10.93, "internal_energy": -2.24, "cluster_size": 1, "cluster_id": 5, "rank_in_cluster": 1}

>  <energy>  (53) 
-7.34

>  <cluster_rmsd>  (53) 
0.0

>  <rmsd>  (53) 
270.47

>  <cluster>  (53) 
7

$$$$
CBUCDBLHFQUVQW-IGKZSQPTNA-N
     RDKit          3D

 51 53  0  0  0  0  0  0  0  0999 V2000
  137.4640   74.1330  223.0890 H   0  0  0  0  0  0  0  0  0  0  0  0
  136.6090   73.7000  222.7670 O   0  0  0  0  0  0  0  0  0  0  0  0
  135.7060   73.0490  223.6150 C   0  0  0  0  0  0  0  0  0  0  0  0
  135.5190   71.7600  223.5540 N   0  0  0  0  0  0  0  0  0  0  0  0
  136.0750   70.8420  222.5620 C   0  0  0  0  0  0  0  0  0  0  0  0
  136.6750   71.4188  221.8427 H   0  0  0  0  0  0  0  0  0  0  0  0
  135.2358   70.3324  222.0659 H   0  0  0  0  0  0  0  0  0  0  0  0
  136.9770   69.7560  223.2080 C   0  0  2  0  0  0  0  0  0  0  0  0
  136.9582   68.8593  222.5711 H   0  0  0  0  0  0  0  0  0  0  0  0
  136.4210   69.4370  224.6080 C   0  0  0  0  0  0  0  0  0  0  0  0
  137.1065   69.8303  225.3731 H   0  0  0  0  0  0  0  0  0  0  0  0
  135.4327   69.9054  224.7255 H   0  0  0  0  0  0  0  0  0  0  0  0
  136.3266   68.3474  224.7255 H   0  0  0  0  0  0  0  0  0  0  0  0
  138.4740   70.1940  223.2950 C   0  0  2  0  0  0  0  0  0  0  0  0
  138.9983   69.6833  222.4739 H   0  0  0  0  0  0  0  0  0  0  0  0
  139.1080   69.7860  224.6120 C   0  0  0  0  0  0  0  0  0  0  0  0
  139.2460   68.4280  224.9490 C   0  0  0  0  0  0  0  0  0  0  0  0
  138.8808   67.6534  224.2586 H   0  0  0  0  0  0  0  0  0  0  0  0
  139.8440   68.0570  226.1550 C   0  0  0  0  0  0  0  0  0  0  0  0
  139.9480   66.9918  226.4089 H   0  0  0  0  0  0  0  0  0  0  0  0
  140.3110   69.0310  227.0410 C   0  0  0  0  0  0  0  0  0  0  0  0
  141.0660   68.5210  228.5450 Cl  0  0  0  0  0  0  0  0  0  0  0  0
  140.1830   70.3900  226.7140 C   0  0  0  0  0  0  0  0  0  0  0  0
  140.7800   71.6460  227.7890 Cl  0  0  0  0  0  0  0  0  0  0  0  0
  139.5840   70.7630  225.5040 C   0  0  0  0  0  0  0  0  0  0  0  0
  139.4852   71.8286  225.2497 H   0  0  0  0  0  0  0  0  0  0  0  0
  138.6020   71.6520  223.1450 N   0  0  0  0  0  0  0  0  0  0  0  0
  137.9240   72.2560  223.6630 H   0  0  0  0  0  0  0  0  0  0  0  0
  139.6840   72.3100  222.4540 C   0  0  0  0  0  0  0  0  0  0  0  0
  140.7990   71.6050  221.9620 C   0  0  0  0  0  0  0  0  0  0  0  0
  140.8584   70.5147  222.0952 H   0  0  0  0  0  0  0  0  0  0  0  0
  141.8300   72.2810  221.3060 C   0  0  0  0  0  0  0  0  0  0  0  0
  142.6958   71.7195  220.9251 H   0  0  0  0  0  0  0  0  0  0  0  0
  141.7690   73.6680  221.1300 C   0  0  0  0  0  0  0  0  0  0  0  0
  142.8470   74.3420  220.4480 C   0  0  0  0  0  0  0  0  0  0  0  0
  143.7110   74.8820  219.9020 N   0  0  0  0  0  0  0  0  0  0  0  0
  140.6620   74.3830  221.6200 C   0  0  0  0  0  0  0  0  0  0  0  0
  140.5380   76.1280  221.4260 Cl  0  0  0  0  0  0  0  0  0  0  0  0
  139.6310   73.7020  222.2780 C   0  0  0  0  0  0  0  0  0  0  0  0
  138.7677   74.2650  222.6623 H   0  0  0  0  0  0  0  0  0  0  0  0
  134.9560   73.8450  224.6140 C   0  0  0  0  0  0  0  0  0  0  0  0
  135.2230   75.2170  224.7700 C   0  0  0  0  0  0  0  0  0  0  0  0
  135.9758   75.7029  224.1319 H   0  0  0  0  0  0  0  0  0  0  0  0
  134.5380   75.9680  225.7310 C   0  0  0  0  0  0  0  0  0  0  0  0
  134.7566   77.0397  225.8482 H   0  0  0  0  0  0  0  0  0  0  0  0
  133.5770   75.3600  226.5420 C   0  0  0  0  0  0  0  0  0  0  0  0
  133.0409   75.9520  227.2983 H   0  0  0  0  0  0  0  0  0  0  0  0
  133.2970   73.9990  226.3920 C   0  0  0  0  0  0  0  0  0  0  0  0
  132.5376   73.5213  227.0285 H   0  0  0  0  0  0  0  0  0  0  0  0
  133.9800   73.2440  225.4350 C   0  0  0  0  0  0  0  0  0  0  0  0
  133.7547   72.1733  225.3214 H   0  0  0  0  0  0  0  0  0  0  0  0
  1  2  1  0
  2  3  1  0
  3  4  2  0
  4  5  1  0
  5  6  1  0
  5  7  1  0
  5  8  1  0
  8  9  1  6
  8 10  1  0
 10 11  1  0
 10 12  1  0
 10 13  1  0
  8 14  1  0
 14 15  1  6
 14 16  1  0
 16 17  2  0
 17 18  1  0
 17 19  1  0
 19 20  1  0
 19 21  2  0
 21 22  1  0
 21 23  1  0
 23 24  1  0
 23 25  2  0
 25 26  1  0
 14 27  1  0
 27 28  1  0
 27 29  1  0
 29 30  2  0
 30 31  1  0
 30 32  1  0
 32 33  1  0
 32 34  2  0
 34 35  1  0
 35 36  3  0
 34 37  1  0
 37 38  1  0
 37 39  2  0
 39 40  1  0
  3 41  1  0
 41 42  2  0
 42 43  1  0
 42 44  1  0
 44 45  1  0
 44 46  2  0
 46 47  1  0
 46 48  1  0
 48 49  1  0
 48 50  2  0
 50 51  1  0
 25 16  1  0
 39 29  1  0
 50 41  1  0
M  END
>  <UniqueID>  (54) 
30

>  <SMILES>  (54) 
C[C@@H](C/N=C(\O)c1ccccc1)[C@@H](Nc1ccc(C#N)c(Cl)c1)c1ccc(Cl)c(Cl)c1

>  <Energy>  (54) 
49.30363712332221

>  <Genealogy>  (54) 
CC(CN=C(O)c1ccccc1)C(Nc1ccc(C#N)c(Cl)c1)c1ccc(Cl)c(Cl)c1 (tautomer)
C[C@@H](CN=C(O)c1ccccc1)[C@@H](Nc1ccc(C#N)c(Cl)c1)c1ccc(Cl)c(Cl)c1 (chirality)
C[C@@H](C/N=C(\O)c1ccccc1)[C@@H](Nc1ccc(C#N)c(Cl)c1)c1ccc(Cl)c(Cl)c1 (cis-trans isomerization)
C[C@@H](C/N=C(\O)c1ccccc1)[C@@H](Nc1ccc(C#N)c(Cl)c1)c1ccc(Cl)c(Cl)c1 (3D coordinates assigned)
C[C@@H](C/N=C(\O)c1ccccc1)[C@@H](Nc1ccc(C#N)c(Cl)c1)c1ccc(Cl)c(Cl)c1 (optimized conformer: 49.30363712332221 kcal/mol)

>  <smiles>  (54) 
CC(CNC(=O)c1ccccc1)C(Nc1ccc(C#N)c(Cl)c1)c1ccc(Cl)c(Cl)c1

>  <score_type>  (54) 
oracle

>  <origin>  (54) 
autodockgpu

>  <m_score__min__energy>  (54) 
-8.5

>  <m_primary>  (54) 
energy

>  <meeko>  (54) 
{"free_energy": -7.87, "intermolecular_energy": -10.85, "internal_energy": -2.39, "cluster_size": 3, "cluster_id": 3, "rank_in_cluster": 2}

>  <energy>  (54) 
-7.21

>  <cluster_rmsd>  (54) 
0.0

>  <rmsd>  (54) 
270.43

>  <cluster>  (54) 
8

$$$$
CBUCDBLHFQUVQW-IGKZSQPTNA-N
     RDKit          3D

 51 53  0  0  0  0  0  0  0  0999 V2000
  136.9450   73.3990  224.2150 H   0  0  0  0  0  0  0  0  0  0  0  0
  136.2060   72.8940  223.7450 O   0  0  0  0  0  0  0  0  0  0  0  0
  135.3170   72.0370  224.4010 C   0  0  0  0  0  0  0  0  0  0  0  0
  135.3070   70.7540  224.1680 N   0  0  0  0  0  0  0  0  0  0  0  0
  136.4510   69.8470  224.2220 C   0  0  0  0  0  0  0  0  0  0  0  0
  136.0845   68.8250  224.3985 H   0  0  0  0  0  0  0  0  0  0  0  0
  137.1096   70.1830  225.0365 H   0  0  0  0  0  0  0  0  0  0  0  0
  137.2750   69.8620  222.9070 C   0  0  2  0  0  0  0  0  0  0  0  0
  136.7860   70.5432  222.1951 H   0  0  0  0  0  0  0  0  0  0  0  0
  137.3150   68.4300  222.3450 C   0  0  0  0  0  0  0  0  0  0  0  0
  137.3351   67.7102  223.1766 H   0  0  0  0  0  0  0  0  0  0  0  0
  136.4215   68.2530  221.7284 H   0  0  0  0  0  0  0  0  0  0  0  0
  138.2170   68.3032  221.7284 H   0  0  0  0  0  0  0  0  0  0  0  0
  138.7220   70.4140  223.1120 C   0  0  2  0  0  0  0  0  0  0  0  0
  139.3403   69.9743  222.3156 H   0  0  0  0  0  0  0  0  0  0  0  0
  139.2970   70.0130  224.4580 C   0  0  0  0  0  0  0  0  0  0  0  0
  139.3110   68.6650  224.8560 C   0  0  0  0  0  0  0  0  0  0  0  0
  138.8917   67.8946  224.1922 H   0  0  0  0  0  0  0  0  0  0  0  0
  139.8540   68.2980  226.0890 C   0  0  0  0  0  0  0  0  0  0  0  0
  139.8615   67.2402  226.3905 H   0  0  0  0  0  0  0  0  0  0  0  0
  140.3880   69.2680  226.9420 C   0  0  0  0  0  0  0  0  0  0  0  0
  141.0700   68.7630  228.4820 Cl  0  0  0  0  0  0  0  0  0  0  0  0
  140.3830   70.6170  226.5540 C   0  0  0  0  0  0  0  0  0  0  0  0
  141.0670   71.8640  227.5860 Cl  0  0  0  0  0  0  0  0  0  0  0  0
  139.8400   70.9850  225.3170 C   0  0  0  0  0  0  0  0  0  0  0  0
  139.8381   72.0427  225.0148 H   0  0  0  0  0  0  0  0  0  0  0  0
  138.7410   71.8820  223.0130 N   0  0  0  0  0  0  0  0  0  0  0  0
  138.0400   72.4170  223.5760 H   0  0  0  0  0  0  0  0  0  0  0  0
  139.7480   72.6410  222.3130 C   0  0  0  0  0  0  0  0  0  0  0  0
  139.5890   74.0100  222.0240 C   0  0  0  0  0  0  0  0  0  0  0  0
  138.6754   74.5334  222.3424 H   0  0  0  0  0  0  0  0  0  0  0  0
  140.5850   74.7080  221.3350 C   0  0  0  0  0  0  0  0  0  0  0  0
  140.4511   75.7776  221.1160 H   0  0  0  0  0  0  0  0  0  0  0  0
  141.7520   74.0540  220.9220 C   0  0  0  0  0  0  0  0  0  0  0  0
  142.7640   74.7980  220.2130 C   0  0  0  0  0  0  0  0  0  0  0  0
  143.5760   75.3930  219.6450 N   0  0  0  0  0  0  0  0  0  0  0  0
  141.9190   72.6870  221.2020 C   0  0  0  0  0  0  0  0  0  0  0  0
  143.3670   71.8190  220.7030 Cl  0  0  0  0  0  0  0  0  0  0  0  0
  140.9190   71.9910  221.8920 C   0  0  0  0  0  0  0  0  0  0  0  0
  141.0527   70.9205  222.1071 H   0  0  0  0  0  0  0  0  0  0  0  0
  134.3750   72.6020  225.3950 C   0  0  0  0  0  0  0  0  0  0  0  0
  133.6720   71.7510  226.2670 C   0  0  0  0  0  0  0  0  0  0  0  0
  133.8408   70.6649  226.2241 H   0  0  0  0  0  0  0  0  0  0  0  0
  132.7600   72.2760  227.1880 C   0  0  0  0  0  0  0  0  0  0  0  0
  132.2125   71.6022  227.8634 H   0  0  0  0  0  0  0  0  0  0  0  0
  132.5430   73.6540  227.2520 C   0  0  0  0  0  0  0  0  0  0  0  0
  131.8233   74.0645  227.9756 H   0  0  0  0  0  0  0  0  0  0  0  0
  133.2400   74.5110  226.3970 C   0  0  0  0  0  0  0  0  0  0  0  0
  133.0718   75.5967  226.4509 H   0  0  0  0  0  0  0  0  0  0  0  0
  134.1510   73.9910  225.4730 C   0  0  0  0  0  0  0  0  0  0  0  0
  134.6968   74.6708  224.8022 H   0  0  0  0  0  0  0  0  0  0  0  0
  1  2  1  0
  2  3  1  0
  3  4  2  0
  4  5  1  0
  5  6  1  0
  5  7  1  0
  5  8  1  0
  8  9  1  6
  8 10  1  0
 10 11  1  0
 10 12  1  0
 10 13  1  0
  8 14  1  0
 14 15  1  6
 14 16  1  0
 16 17  2  0
 17 18  1  0
 17 19  1  0
 19 20  1  0
 19 21  2  0
 21 22  1  0
 21 23  1  0
 23 24  1  0
 23 25  2  0
 25 26  1  0
 14 27  1  0
 27 28  1  0
 27 29  1  0
 29 30  2  0
 30 31  1  0
 30 32  1  0
 32 33  1  0
 32 34  2  0
 34 35  1  0
 35 36  3  0
 34 37  1  0
 37 38  1  0
 37 39  2  0
 39 40  1  0
  3 41  1  0
 41 42  2  0
 42 43  1  0
 42 44  1  0
 44 45  1  0
 44 46  2  0
 46 47  1  0
 46 48  1  0
 48 49  1  0
 48 50  2  0
 50 51  1  0
 25 16  1  0
 39 29  1  0
 50 41  1  0
M  END
>  <UniqueID>  (55) 
30

>  <SMILES>  (55) 
C[C@@H](C/N=C(\O)c1ccccc1)[C@@H](Nc1ccc(C#N)c(Cl)c1)c1ccc(Cl)c(Cl)c1

>  <Energy>  (55) 
49.30363712332221

>  <Genealogy>  (55) 
CC(CN=C(O)c1ccccc1)C(Nc1ccc(C#N)c(Cl)c1)c1ccc(Cl)c(Cl)c1 (tautomer)
C[C@@H](CN=C(O)c1ccccc1)[C@@H](Nc1ccc(C#N)c(Cl)c1)c1ccc(Cl)c(Cl)c1 (chirality)
C[C@@H](C/N=C(\O)c1ccccc1)[C@@H](Nc1ccc(C#N)c(Cl)c1)c1ccc(Cl)c(Cl)c1 (cis-trans isomerization)
C[C@@H](C/N=C(\O)c1ccccc1)[C@@H](Nc1ccc(C#N)c(Cl)c1)c1ccc(Cl)c(Cl)c1 (3D coordinates assigned)
C[C@@H](C/N=C(\O)c1ccccc1)[C@@H](Nc1ccc(C#N)c(Cl)c1)c1ccc(Cl)c(Cl)c1 (optimized conformer: 49.30363712332221 kcal/mol)

>  <smiles>  (55) 
CC(CNC(=O)c1ccccc1)C(Nc1ccc(C#N)c(Cl)c1)c1ccc(Cl)c(Cl)c1

>  <score_type>  (55) 
oracle

>  <origin>  (55) 
autodockgpu

>  <m_score__min__energy>  (55) 
-8.5

>  <m_primary>  (55) 
energy

>  <meeko>  (55) 
{"free_energy": -8.19, "intermolecular_energy": -11.18, "internal_energy": -2.03, "cluster_size": 3, "cluster_id": 3, "rank_in_cluster": 1}

>  <energy>  (55) 
-6.9

>  <cluster_rmsd>  (55) 
0.84

>  <rmsd>  (55) 
270.52

>  <cluster>  (55) 
8

$$$$
CBUCDBLHFQUVQW-IGKZSQPTNA-N
     RDKit          3D

 51 53  0  0  0  0  0  0  0  0999 V2000
  137.8210   72.3040  223.9040 H   0  0  0  0  0  0  0  0  0  0  0  0
  138.4530   71.5310  223.7520 O   0  0  0  0  0  0  0  0  0  0  0  0
  139.7990   71.5460  224.1330 C   0  0  0  0  0  0  0  0  0  0  0  0
  140.7130   72.1090  223.3920 N   0  0  0  0  0  0  0  0  0  0  0  0
  141.0110   71.8080  221.9930 C   0  0  0  0  0  0  0  0  0  0  0  0
  141.3946   70.7792  221.9262 H   0  0  0  0  0  0  0  0  0  0  0  0
  141.7561   72.5373  221.6425 H   0  0  0  0  0  0  0  0  0  0  0  0
  139.7580   71.9340  221.0850 C   0  0  2  0  0  0  0  0  0  0  0  0
  138.9167   71.4215  221.5744 H   0  0  0  0  0  0  0  0  0  0  0  0
  140.0760   71.2780  219.7290 C   0  0  0  0  0  0  0  0  0  0  0  0
  140.5502   70.2998  219.8971 H   0  0  0  0  0  0  0  0  0  0  0  0
  139.1443   71.1410  219.1605 H   0  0  0  0  0  0  0  0  0  0  0  0
  140.7607   71.9245  219.1605 H   0  0  0  0  0  0  0  0  0  0  0  0
  139.3080   73.4170  220.8880 C   0  0  2  0  0  0  0  0  0  0  0  0
  138.3587   73.3845  220.3333 H   0  0  0  0  0  0  0  0  0  0  0  0
  140.3180   74.2150  220.0850 C   0  0  0  0  0  0  0  0  0  0  0  0
  139.8980   75.0490  219.0340 C   0  0  0  0  0  0  0  0  0  0  0  0
  138.8291   75.1149  218.7828 H   0  0  0  0  0  0  0  0  0  0  0  0
  140.8280   75.7940  218.3070 C   0  0  0  0  0  0  0  0  0  0  0  0
  140.4882   76.4452  217.4882 H   0  0  0  0  0  0  0  0  0  0  0  0
  142.1890   75.7160  218.6150 C   0  0  0  0  0  0  0  0  0  0  0  0
  143.3280   76.6760  217.6800 Cl  0  0  0  0  0  0  0  0  0  0  0  0
  142.6210   74.8900  219.6640 C   0  0  0  0  0  0  0  0  0  0  0  0
  144.3210   74.7840  220.1000 Cl  0  0  0  0  0  0  0  0  0  0  0  0
  141.6880   74.1440  220.3940 C   0  0  0  0  0  0  0  0  0  0  0  0
  142.0293   73.4972  221.2157 H   0  0  0  0  0  0  0  0  0  0  0  0
  139.1110   74.0810  222.1860 N   0  0  0  0  0  0  0  0  0  0  0  0
  139.1600   73.4900  223.0480 H   0  0  0  0  0  0  0  0  0  0  0  0
  139.0020   75.5080  222.3660 C   0  0  0  0  0  0  0  0  0  0  0  0
  137.7590   76.1530  222.5170 C   0  0  0  0  0  0  0  0  0  0  0  0
  136.8317   75.5614  222.5064 H   0  0  0  0  0  0  0  0  0  0  0  0
  137.6960   77.5380  222.6800 C   0  0  0  0  0  0  0  0  0  0  0  0
  136.7195   78.0304  222.7982 H   0  0  0  0  0  0  0  0  0  0  0  0
  138.8670   78.3040  222.6940 C   0  0  0  0  0  0  0  0  0  0  0  0
  138.7740   79.7340  222.8640 C   0  0  0  0  0  0  0  0  0  0  0  0
  138.6990   80.8800  223.0000 N   0  0  0  0  0  0  0  0  0  0  0  0
  140.1130   77.6730  222.5400 C   0  0  0  0  0  0  0  0  0  0  0  0
  141.6150   78.5910  222.5490 Cl  0  0  0  0  0  0  0  0  0  0  0  0
  140.1730   76.2830  222.3770 C   0  0  0  0  0  0  0  0  0  0  0  0
  141.1500   75.7922  222.2561 H   0  0  0  0  0  0  0  0  0  0  0  0
  140.1900   70.9200  225.4170 C   0  0  0  0  0  0  0  0  0  0  0  0
  139.9960   69.5420  225.6200 C   0  0  0  0  0  0  0  0  0  0  0  0
  139.5728   68.9258  224.8131 H   0  0  0  0  0  0  0  0  0  0  0  0
  140.3370   68.9490  226.8400 C   0  0  0  0  0  0  0  0  0  0  0  0
  140.1782   67.8709  226.9901 H   0  0  0  0  0  0  0  0  0  0  0  0
  140.8790   69.7240  227.8680 C   0  0  0  0  0  0  0  0  0  0  0  0
  141.1443   69.2567  228.8278 H   0  0  0  0  0  0  0  0  0  0  0  0
  141.0840   71.0920  227.6770 C   0  0  0  0  0  0  0  0  0  0  0  0
  141.5147   71.7005  228.4858 H   0  0  0  0  0  0  0  0  0  0  0  0
  140.7430   71.6900  226.4600 C   0  0  0  0  0  0  0  0  0  0  0  0
  140.9073   72.7680  226.3157 H   0  0  0  0  0  0  0  0  0  0  0  0
  1  2  1  0
  2  3  1  0
  3  4  2  0
  4  5  1  0
  5  6  1  0
  5  7  1  0
  5  8  1  0
  8  9  1  1
  8 10  1  0
 10 11  1  0
 10 12  1  0
 10 13  1  0
  8 14  1  0
 14 15  1  6
 14 16  1  0
 16 17  2  0
 17 18  1  0
 17 19  1  0
 19 20  1  0
 19 21  2  0
 21 22  1  0
 21 23  1  0
 23 24  1  0
 23 25  2  0
 25 26  1  0
 14 27  1  0
 27 28  1  0
 27 29  1  0
 29 30  2  0
 30 31  1  0
 30 32  1  0
 32 33  1  0
 32 34  2  0
 34 35  1  0
 35 36  3  0
 34 37  1  0
 37 38  1  0
 37 39  2  0
 39 40  1  0
  3 41  1  0
 41 42  2  0
 42 43  1  0
 42 44  1  0
 44 45  1  0
 44 46  2  0
 46 47  1  0
 46 48  1  0
 48 49  1  0
 48 50  2  0
 50 51  1  0
 25 16  1  0
 39 29  1  0
 50 41  1  0
M  END
>  <UniqueID>  (56) 
30

>  <SMILES>  (56) 
C[C@@H](C/N=C(\O)c1ccccc1)[C@@H](Nc1ccc(C#N)c(Cl)c1)c1ccc(Cl)c(Cl)c1

>  <Energy>  (56) 
49.30363712332221

>  <Genealogy>  (56) 
CC(CN=C(O)c1ccccc1)C(Nc1ccc(C#N)c(Cl)c1)c1ccc(Cl)c(Cl)c1 (tautomer)
C[C@@H](CN=C(O)c1ccccc1)[C@@H](Nc1ccc(C#N)c(Cl)c1)c1ccc(Cl)c(Cl)c1 (chirality)
C[C@@H](C/N=C(\O)c1ccccc1)[C@@H](Nc1ccc(C#N)c(Cl)c1)c1ccc(Cl)c(Cl)c1 (cis-trans isomerization)
C[C@@H](C/N=C(\O)c1ccccc1)[C@@H](Nc1ccc(C#N)c(Cl)c1)c1ccc(Cl)c(Cl)c1 (3D coordinates assigned)
C[C@@H](C/N=C(\O)c1ccccc1)[C@@H](Nc1ccc(C#N)c(Cl)c1)c1ccc(Cl)c(Cl)c1 (optimized conformer: 49.30363712332221 kcal/mol)

>  <smiles>  (56) 
CC(CNC(=O)c1ccccc1)C(Nc1ccc(C#N)c(Cl)c1)c1ccc(Cl)c(Cl)c1

>  <score_type>  (56) 
oracle

>  <origin>  (56) 
autodockgpu

>  <m_score__min__energy>  (56) 
-8.5

>  <m_primary>  (56) 
energy

>  <meeko>  (56) 
{"free_energy": -7.1, "intermolecular_energy": -10.09, "internal_energy": -2.77, "cluster_size": 1, "cluster_id": 9, "rank_in_cluster": 1}

>  <energy>  (56) 
-6.76

>  <cluster_rmsd>  (56) 
1.15

>  <rmsd>  (56) 
270.5

>  <cluster>  (56) 
8

$$$$
CBUCDBLHFQUVQW-IGKZSQPTNA-N
     RDKit          3D

 51 53  0  0  0  0  0  0  0  0999 V2000
  143.0250   76.3550  220.7990 H   0  0  0  0  0  0  0  0  0  0  0  0
  142.0420   76.3960  220.5670 O   0  0  0  0  0  0  0  0  0  0  0  0
  141.0800   77.0000  221.3840 C   0  0  0  0  0  0  0  0  0  0  0  0
  139.8930   76.4840  221.5370 N   0  0  0  0  0  0  0  0  0  0  0  0
  139.0450   75.9150  220.4910 C   0  0  0  0  0  0  0  0  0  0  0  0
  139.6585   75.7374  219.5954 H   0  0  0  0  0  0  0  0  0  0  0  0
  138.2353   76.6309  220.2866 H   0  0  0  0  0  0  0  0  0  0  0  0
  138.3960   74.5740  220.9260 C   0  0  2  0  0  0  0  0  0  0  0  0
  137.5912   74.3280  220.2176 H   0  0  0  0  0  0  0  0  0  0  0  0
  137.8310   74.7490  222.3470 C   0  0  0  0  0  0  0  0  0  0  0  0
  138.6110   74.5074  223.0840 H   0  0  0  0  0  0  0  0  0  0  0  0
  137.5048   75.7903  222.4862 H   0  0  0  0  0  0  0  0  0  0  0  0
  136.9734   74.0744  222.4862 H   0  0  0  0  0  0  0  0  0  0  0  0
  139.3990   73.3780  220.8750 C   0  0  2  0  0  0  0  0  0  0  0  0
  139.2355   72.8737  219.9112 H   0  0  0  0  0  0  0  0  0  0  0  0
  139.1560   72.3850  221.9960 C   0  0  0  0  0  0  0  0  0  0  0  0
  138.0410   71.5290  221.9640 C   0  0  0  0  0  0  0  0  0  0  0  0
  137.3316   71.5864  221.1253 H   0  0  0  0  0  0  0  0  0  0  0  0
  137.8290   70.6070  222.9900 C   0  0  0  0  0  0  0  0  0  0  0  0
  136.9538   69.9416  222.9548 H   0  0  0  0  0  0  0  0  0  0  0  0
  138.7220   70.5240  224.0620 C   0  0  0  0  0  0  0  0  0  0  0  0
  138.4230   69.3430  225.3290 Cl  0  0  0  0  0  0  0  0  0  0  0  0
  139.8410   71.3710  224.1030 C   0  0  0  0  0  0  0  0  0  0  0  0
  141.0020   71.2820  225.4200 Cl  0  0  0  0  0  0  0  0  0  0  0  0
  140.0550   72.2960  223.0740 C   0  0  0  0  0  0  0  0  0  0  0  0
  140.9327   72.9581  223.1089 H   0  0  0  0  0  0  0  0  0  0  0  0
  140.7880   73.8560  220.9660 N   0  0  0  0  0  0  0  0  0  0  0  0
  140.9620   74.7520  221.4760 H   0  0  0  0  0  0  0  0  0  0  0  0
  141.9400   73.1070  220.5290 C   0  0  0  0  0  0  0  0  0  0  0  0
  141.8230   71.8820  219.8430 C   0  0  0  0  0  0  0  0  0  0  0  0
  140.8263   71.4738  219.6196 H   0  0  0  0  0  0  0  0  0  0  0  0
  142.9640   71.1830  219.4450 C   0  0  0  0  0  0  0  0  0  0  0  0
  142.8601   70.2285  218.9083 H   0  0  0  0  0  0  0  0  0  0  0  0
  144.2390   71.6880  219.7240 C   0  0  0  0  0  0  0  0  0  0  0  0
  145.4020   70.9460  219.3020 C   0  0  0  0  0  0  0  0  0  0  0  0
  146.3330   70.3510  218.9630 N   0  0  0  0  0  0  0  0  0  0  0  0
  144.3680   72.9070  220.4120 C   0  0  0  0  0  0  0  0  0  0  0  0
  145.9490   73.5850  220.7890 Cl  0  0  0  0  0  0  0  0  0  0  0  0
  143.2220   73.6060  220.8100 C   0  0  0  0  0  0  0  0  0  0  0  0
  143.3274   74.5586  221.3499 H   0  0  0  0  0  0  0  0  0  0  0  0
  141.4280   78.2490  222.1010 C   0  0  0  0  0  0  0  0  0  0  0  0
  141.4450   78.2760  223.5060 C   0  0  0  0  0  0  0  0  0  0  0  0
  141.2208   77.3602  224.0725 H   0  0  0  0  0  0  0  0  0  0  0  0
  141.7450   79.4590  224.1890 C   0  0  0  0  0  0  0  0  0  0  0  0
  141.7532   79.4707  225.2889 H   0  0  0  0  0  0  0  0  0  0  0  0
  142.0340   80.6250  223.4780 C   0  0  0  0  0  0  0  0  0  0  0  0
  142.2680   81.5546  224.0175 H   0  0  0  0  0  0  0  0  0  0  0  0
  142.0260   80.6110  222.0810 C   0  0  0  0  0  0  0  0  0  0  0  0
  142.2560   81.5296  221.5213 H   0  0  0  0  0  0  0  0  0  0  0  0
  141.7260   79.4310  221.3930 C   0  0  0  0  0  0  0  0  0  0  0  0
  141.7225   79.4252  220.2930 H   0  0  0  0  0  0  0  0  0  0  0  0
  1  2  1  0
  2  3  1  0
  3  4  2  0
  4  5  1  0
  5  6  1  0
  5  7  1  0
  5  8  1  0
  8  9  1  6
  8 10  1  0
 10 11  1  0
 10 12  1  0
 10 13  1  0
  8 14  1  0
 14 15  1  6
 14 16  1  0
 16 17  2  0
 17 18  1  0
 17 19  1  0
 19 20  1  0
 19 21  2  0
 21 22  1  0
 21 23  1  0
 23 24  1  0
 23 25  2  0
 25 26  1  0
 14 27  1  0
 27 28  1  0
 27 29  1  0
 29 30  2  0
 30 31  1  0
 30 32  1  0
 32 33  1  0
 32 34  2  0
 34 35  1  0
 35 36  3  0
 34 37  1  0
 37 38  1  0
 37 39  2  0
 39 40  1  0
  3 41  1  0
 41 42  2  0
 42 43  1  0
 42 44  1  0
 44 45  1  0
 44 46  2  0
 46 47  1  0
 46 48  1  0
 48 49  1  0
 48 50  2  0
 50 51  1  0
 25 16  1  0
 39 29  1  0
 50 41  1  0
M  END
>  <UniqueID>  (57) 
30

>  <SMILES>  (57) 
C[C@@H](C/N=C(\O)c1ccccc1)[C@@H](Nc1ccc(C#N)c(Cl)c1)c1ccc(Cl)c(Cl)c1

>  <Energy>  (57) 
49.30363712332221

>  <Genealogy>  (57) 
CC(CN=C(O)c1ccccc1)C(Nc1ccc(C#N)c(Cl)c1)c1ccc(Cl)c(Cl)c1 (tautomer)
C[C@@H](CN=C(O)c1ccccc1)[C@@H](Nc1ccc(C#N)c(Cl)c1)c1ccc(Cl)c(Cl)c1 (chirality)
C[C@@H](C/N=C(\O)c1ccccc1)[C@@H](Nc1ccc(C#N)c(Cl)c1)c1ccc(Cl)c(Cl)c1 (cis-trans isomerization)
C[C@@H](C/N=C(\O)c1ccccc1)[C@@H](Nc1ccc(C#N)c(Cl)c1)c1ccc(Cl)c(Cl)c1 (3D coordinates assigned)
C[C@@H](C/N=C(\O)c1ccccc1)[C@@H](Nc1ccc(C#N)c(Cl)c1)c1ccc(Cl)c(Cl)c1 (optimized conformer: 49.30363712332221 kcal/mol)

>  <smiles>  (57) 
CC(CNC(=O)c1ccccc1)C(Nc1ccc(C#N)c(Cl)c1)c1ccc(Cl)c(Cl)c1

>  <score_type>  (57) 
oracle

>  <origin>  (57) 
autodockgpu

>  <m_score__min__energy>  (57) 
-8.5

>  <m_primary>  (57) 
energy

>  <meeko>  (57) 
{"free_energy": -6.76, "intermolecular_energy": -9.74, "internal_energy": -2.74, "cluster_size": 3, "cluster_id": 8, "rank_in_cluster": 3}

>  <energy>  (57) 
-7.1

>  <cluster_rmsd>  (57) 
0.0

>  <rmsd>  (57) 
270.54

>  <cluster>  (57) 
9

$$$$
CBUCDBLHFQUVQW-IGKZSQPTNA-N
     RDKit          3D

 51 53  0  0  0  0  0  0  0  0999 V2000
  142.6180   76.3040  221.0760 H   0  0  0  0  0  0  0  0  0  0  0  0
  141.6970   75.9060  220.9510 O   0  0  0  0  0  0  0  0  0  0  0  0
  140.6820   75.9900  221.9100 C   0  0  0  0  0  0  0  0  0  0  0  0
  140.0040   74.9400  222.2810 N   0  0  0  0  0  0  0  0  0  0  0  0
  138.6000   74.6570  221.9890 C   0  0  0  0  0  0  0  0  0  0  0  0
  138.1510   75.5433  221.5169 H   0  0  0  0  0  0  0  0  0  0  0  0
  138.1010   74.4120  222.9382 H   0  0  0  0  0  0  0  0  0  0  0  0
  138.4310   73.4440  221.0360 C   0  0  2  0  0  0  0  0  0  0  0  0
  138.4474   73.8077  219.9980 H   0  0  0  0  0  0  0  0  0  0  0  0
  137.0850   72.7670  221.3510 C   0  0  0  0  0  0  0  0  0  0  0  0
  136.9540   72.7011  222.4412 H   0  0  0  0  0  0  0  0  0  0  0  0
  136.2660   73.3604  220.9185 H   0  0  0  0  0  0  0  0  0  0  0  0
  137.0731   71.7557  220.9185 H   0  0  0  0  0  0  0  0  0  0  0  0
  139.6050   72.4200  221.1550 C   0  0  2  0  0  0  0  0  0  0  0  0
  139.3964   71.6199  220.4295 H   0  0  0  0  0  0  0  0  0  0  0  0
  139.6910   71.8140  222.5440 C   0  0  0  0  0  0  0  0  0  0  0  0
  140.6670   72.2530  223.4560 C   0  0  0  0  0  0  0  0  0  0  0  0
  141.3822   73.0337  223.1576 H   0  0  0  0  0  0  0  0  0  0  0  0
  140.7340   71.7040  224.7380 C   0  0  0  0  0  0  0  0  0  0  0  0
  141.5003   72.0554  225.4445 H   0  0  0  0  0  0  0  0  0  0  0  0
  139.8320   70.7100  225.1280 C   0  0  0  0  0  0  0  0  0  0  0  0
  139.9450   70.0500  226.7540 Cl  0  0  0  0  0  0  0  0  0  0  0  0
  138.8510   70.2660  224.2270 C   0  0  0  0  0  0  0  0  0  0  0  0
  137.6820   69.0360  224.6870 Cl  0  0  0  0  0  0  0  0  0  0  0  0
  138.7830   70.8180  222.9420 C   0  0  0  0  0  0  0  0  0  0  0  0
  138.0127   70.4693  222.2384 H   0  0  0  0  0  0  0  0  0  0  0  0
  140.8920   73.0600  220.8430 N   0  0  0  0  0  0  0  0  0  0  0  0
  140.9810   74.0870  221.0230 H   0  0  0  0  0  0  0  0  0  0  0  0
  142.0820   72.3500  220.4440 C   0  0  0  0  0  0  0  0  0  0  0  0
  142.0350   71.0490  219.9070 C   0  0  0  0  0  0  0  0  0  0  0  0
  141.0654   70.5466  219.7751 H   0  0  0  0  0  0  0  0  0  0  0  0
  143.2120   70.3930  219.5410 C   0  0  0  0  0  0  0  0  0  0  0  0
  143.1632   69.3776  219.1207 H   0  0  0  0  0  0  0  0  0  0  0  0
  144.4530   71.0180  219.7050 C   0  0  0  0  0  0  0  0  0  0  0  0
  145.6540   70.3170  219.3190 C   0  0  0  0  0  0  0  0  0  0  0  0
  146.6170   69.7560  219.0100 N   0  0  0  0  0  0  0  0  0  0  0  0
  144.5130   72.3150  220.2440 C   0  0  0  0  0  0  0  0  0  0  0  0
  146.0490   73.1440  220.4720 Cl  0  0  0  0  0  0  0  0  0  0  0  0
  143.3310   72.9700  220.6100 C   0  0  0  0  0  0  0  0  0  0  0  0
  143.3814   73.9840  221.0333 H   0  0  0  0  0  0  0  0  0  0  0  0
  140.3820   77.3030  222.5260 C   0  0  0  0  0  0  0  0  0  0  0  0
  141.4130   78.0680  223.1000 C   0  0  0  0  0  0  0  0  0  0  0  0
  142.4485   77.6980  223.0703 H   0  0  0  0  0  0  0  0  0  0  0  0
  141.1320   79.2950  223.7080 C   0  0  0  0  0  0  0  0  0  0  0  0
  141.9452   79.8838  224.1575 H   0  0  0  0  0  0  0  0  0  0  0  0
  139.8210   79.7750  223.7460 C   0  0  0  0  0  0  0  0  0  0  0  0
  139.6019   80.7403  224.2258 H   0  0  0  0  0  0  0  0  0  0  0  0
  138.7880   79.0280  223.1740 C   0  0  0  0  0  0  0  0  0  0  0  0
  137.7557   79.4070  223.2022 H   0  0  0  0  0  0  0  0  0  0  0  0
  139.0640   77.8000  222.5660 C   0  0  0  0  0  0  0  0  0  0  0  0
  138.2467   77.2176  222.1156 H   0  0  0  0  0  0  0  0  0  0  0  0
  1  2  1  0
  2  3  1  0
  3  4  2  0
  4  5  1  0
  5  6  1  0
  5  7  1  0
  5  8  1  0
  8  9  1  6
  8 10  1  0
 10 11  1  0
 10 12  1  0
 10 13  1  0
  8 14  1  0
 14 15  1  6
 14 16  1  0
 16 17  2  0
 17 18  1  0
 17 19  1  0
 19 20  1  0
 19 21  2  0
 21 22  1  0
 21 23  1  0
 23 24  1  0
 23 25  2  0
 25 26  1  0
 14 27  1  0
 27 28  1  0
 27 29  1  0
 29 30  2  0
 30 31  1  0
 30 32  1  0
 32 33  1  0
 32 34  2  0
 34 35  1  0
 35 36  3  0
 34 37  1  0
 37 38  1  0
 37 39  2  0
 39 40  1  0
  3 41  1  0
 41 42  2  0
 42 43  1  0
 42 44  1  0
 44 45  1  0
 44 46  2  0
 46 47  1  0
 46 48  1  0
 48 49  1  0
 48 50  2  0
 50 51  1  0
 25 16  1  0
 39 29  1  0
 50 41  1  0
M  END
>  <UniqueID>  (58) 
30

>  <SMILES>  (58) 
C[C@@H](C/N=C(\O)c1ccccc1)[C@@H](Nc1ccc(C#N)c(Cl)c1)c1ccc(Cl)c(Cl)c1

>  <Energy>  (58) 
49.30363712332221

>  <Genealogy>  (58) 
CC(CN=C(O)c1ccccc1)C(Nc1ccc(C#N)c(Cl)c1)c1ccc(Cl)c(Cl)c1 (tautomer)
C[C@@H](CN=C(O)c1ccccc1)[C@@H](Nc1ccc(C#N)c(Cl)c1)c1ccc(Cl)c(Cl)c1 (chirality)
C[C@@H](C/N=C(\O)c1ccccc1)[C@@H](Nc1ccc(C#N)c(Cl)c1)c1ccc(Cl)c(Cl)c1 (cis-trans isomerization)
C[C@@H](C/N=C(\O)c1ccccc1)[C@@H](Nc1ccc(C#N)c(Cl)c1)c1ccc(Cl)c(Cl)c1 (3D coordinates assigned)
C[C@@H](C/N=C(\O)c1ccccc1)[C@@H](Nc1ccc(C#N)c(Cl)c1)c1ccc(Cl)c(Cl)c1 (optimized conformer: 49.30363712332221 kcal/mol)

>  <smiles>  (58) 
CC(CNC(=O)c1ccccc1)C(Nc1ccc(C#N)c(Cl)c1)c1ccc(Cl)c(Cl)c1

>  <score_type>  (58) 
oracle

>  <origin>  (58) 
autodockgpu

>  <m_score__min__energy>  (58) 
-8.5

>  <m_primary>  (58) 
energy

>  <meeko>  (58) 
{"free_energy": -7.21, "intermolecular_energy": -10.19, "internal_energy": -2.45, "cluster_size": 3, "cluster_id": 8, "rank_in_cluster": 1}

>  <energy>  (58) 
-6.88

>  <cluster_rmsd>  (58) 
0.0

>  <rmsd>  (58) 
270.08

>  <cluster>  (58) 
10

$$$$
CBUCDBLHFQUVQW-IGKZSQPTNA-N
     RDKit          3D

 51 53  0  0  0  0  0  0  0  0999 V2000
  137.3440   74.2900  223.2770 H   0  0  0  0  0  0  0  0  0  0  0  0
  136.4290   73.9190  223.0630 O   0  0  0  0  0  0  0  0  0  0  0  0
  135.6510   73.2030  223.9800 C   0  0  0  0  0  0  0  0  0  0  0  0
  135.6680   71.9000  224.0210 N   0  0  0  0  0  0  0  0  0  0  0  0
  135.8620   70.9930  222.8910 C   0  0  0  0  0  0  0  0  0  0  0  0
  136.3155   71.5538  222.0604 H   0  0  0  0  0  0  0  0  0  0  0  0
  134.8786   70.5877  222.6107 H   0  0  0  0  0  0  0  0  0  0  0  0
  136.7850   69.7980  223.2500 C   0  0  2  0  0  0  0  0  0  0  0  0
  136.6721   69.0234  222.4772 H   0  0  0  0  0  0  0  0  0  0  0  0
  136.3600   69.2550  224.6260 C   0  0  0  0  0  0  0  0  0  0  0  0
  136.8302   69.8558  225.4184 H   0  0  0  0  0  0  0  0  0  0  0  0
  135.2658   69.3141  224.7215 H   0  0  0  0  0  0  0  0  0  0  0  0
  136.6803   68.2070  224.7215 H   0  0  0  0  0  0  0  0  0  0  0  0
  138.2970   70.1890  223.2550 C   0  0  2  0  0  0  0  0  0  0  0  0
  138.7607   69.6533  222.4136 H   0  0  0  0  0  0  0  0  0  0  0  0
  138.9870   69.7740  224.5410 C   0  0  0  0  0  0  0  0  0  0  0  0
  139.1600   68.4140  224.8530 C   0  0  0  0  0  0  0  0  0  0  0  0
  138.7823   67.6431  224.1652 H   0  0  0  0  0  0  0  0  0  0  0  0
  139.8080   68.0360  226.0300 C   0  0  0  0  0  0  0  0  0  0  0  0
  139.9399   66.9693  226.2637 H   0  0  0  0  0  0  0  0  0  0  0  0
  140.2900   69.0060  226.9130 C   0  0  0  0  0  0  0  0  0  0  0  0
  141.1080   68.4870  228.3810 Cl  0  0  0  0  0  0  0  0  0  0  0  0
  140.1270   70.3670  226.6110 C   0  0  0  0  0  0  0  0  0  0  0  0
  140.7420   71.6180  227.6820 Cl  0  0  0  0  0  0  0  0  0  0  0  0
  139.4790   70.7460  225.4300 C   0  0  0  0  0  0  0  0  0  0  0  0
  139.3535   71.8133  225.1951 H   0  0  0  0  0  0  0  0  0  0  0  0
  138.4630   71.6410  223.0820 N   0  0  0  0  0  0  0  0  0  0  0  0
  137.7770   72.2690  223.5600 H   0  0  0  0  0  0  0  0  0  0  0  0
  139.5850   72.2630  222.4230 C   0  0  0  0  0  0  0  0  0  0  0  0
  140.7010   71.5240  221.9850 C   0  0  0  0  0  0  0  0  0  0  0  0
  140.7294   70.4350  222.1376 H   0  0  0  0  0  0  0  0  0  0  0  0
  141.7720   72.1650  221.3580 C   0  0  0  0  0  0  0  0  0  0  0  0
  142.6379   71.5776  221.0186 H   0  0  0  0  0  0  0  0  0  0  0  0
  141.7500   73.5500  221.1590 C   0  0  0  0  0  0  0  0  0  0  0  0
  142.8690   74.1880  220.5090 C   0  0  0  0  0  0  0  0  0  0  0  0
  143.7660   74.7000  219.9880 N   0  0  0  0  0  0  0  0  0  0  0  0
  140.6430   74.2990  221.5960 C   0  0  0  0  0  0  0  0  0  0  0  0
  140.5680   76.0430  221.3710 Cl  0  0  0  0  0  0  0  0  0  0  0  0
  139.5720   73.6520  222.2240 C   0  0  0  0  0  0  0  0  0  0  0  0
  138.7082   74.2408  222.5662 H   0  0  0  0  0  0  0  0  0  0  0  0
  134.7990   73.9480  224.9360 C   0  0  0  0  0  0  0  0  0  0  0  0
  135.0530   75.3050  225.2010 C   0  0  0  0  0  0  0  0  0  0  0  0
  135.8739   75.8186  224.6792 H   0  0  0  0  0  0  0  0  0  0  0  0
  134.2700   76.0070  226.1230 C   0  0  0  0  0  0  0  0  0  0  0  0
  134.4788   77.0678  226.3257 H   0  0  0  0  0  0  0  0  0  0  0  0
  133.2230   75.3630  226.7870 C   0  0  0  0  0  0  0  0  0  0  0  0
  132.6100   75.9156  227.5142 H   0  0  0  0  0  0  0  0  0  0  0  0
  132.9550   74.0170  226.5270 C   0  0  0  0  0  0  0  0  0  0  0  0
  132.1279   73.5115  227.0470 H   0  0  0  0  0  0  0  0  0  0  0  0
  133.7360   73.3110  225.6070 C   0  0  0  0  0  0  0  0  0  0  0  0
  133.5193   72.2515  225.4056 H   0  0  0  0  0  0  0  0  0  0  0  0
  1  2  1  0
  2  3  1  0
  3  4  2  0
  4  5  1  0
  5  6  1  0
  5  7  1  0
  5  8  1  0
  8  9  1  6
  8 10  1  0
 10 11  1  0
 10 12  1  0
 10 13  1  0
  8 14  1  0
 14 15  1  6
 14 16  1  0
 16 17  2  0
 17 18  1  0
 17 19  1  0
 19 20  1  0
 19 21  2  0
 21 22  1  0
 21 23  1  0
 23 24  1  0
 23 25  2  0
 25 26  1  0
 14 27  1  0
 27 28  1  0
 27 29  1  0
 29 30  2  0
 30 31  1  0
 30 32  1  0
 32 33  1  0
 32 34  2  0
 34 35  1  0
 35 36  3  0
 34 37  1  0
 37 38  1  0
 37 39  2  0
 39 40  1  0
  3 41  1  0
 41 42  2  0
 42 43  1  0
 42 44  1  0
 44 45  1  0
 44 46  2  0
 46 47  1  0
 46 48  1  0
 48 49  1  0
 48 50  2  0
 50 51  1  0
 25 16  1  0
 39 29  1  0
 50 41  1  0
M  END
>  <UniqueID>  (59) 
30

>  <SMILES>  (59) 
C[C@@H](C/N=C(\O)c1ccccc1)[C@@H](Nc1ccc(C#N)c(Cl)c1)c1ccc(Cl)c(Cl)c1

>  <Energy>  (59) 
49.30363712332221

>  <Genealogy>  (59) 
CC(CN=C(O)c1ccccc1)C(Nc1ccc(C#N)c(Cl)c1)c1ccc(Cl)c(Cl)c1 (tautomer)
C[C@@H](CN=C(O)c1ccccc1)[C@@H](Nc1ccc(C#N)c(Cl)c1)c1ccc(Cl)c(Cl)c1 (chirality)
C[C@@H](C/N=C(\O)c1ccccc1)[C@@H](Nc1ccc(C#N)c(Cl)c1)c1ccc(Cl)c(Cl)c1 (cis-trans isomerization)
C[C@@H](C/N=C(\O)c1ccccc1)[C@@H](Nc1ccc(C#N)c(Cl)c1)c1ccc(Cl)c(Cl)c1 (3D coordinates assigned)
C[C@@H](C/N=C(\O)c1ccccc1)[C@@H](Nc1ccc(C#N)c(Cl)c1)c1ccc(Cl)c(Cl)c1 (optimized conformer: 49.30363712332221 kcal/mol)

>  <smiles>  (59) 
CC(CNC(=O)c1ccccc1)C(Nc1ccc(C#N)c(Cl)c1)c1ccc(Cl)c(Cl)c1

>  <score_type>  (59) 
oracle

>  <origin>  (59) 
autodockgpu

>  <m_score__min__energy>  (59) 
-8.5

>  <m_primary>  (59) 
energy

>  <meeko>  (59) 
{"free_energy": -7.87, "intermolecular_energy": -10.85, "internal_energy": -2.55, "cluster_size": 3, "cluster_id": 3, "rank_in_cluster": 3}

>  <energy>  (59) 
-6.8

>  <cluster_rmsd>  (59) 
0.14

>  <rmsd>  (59) 
270.04

>  <cluster>  (59) 
10

$$$$
CBUCDBLHFQUVQW-IGKZSQPTNA-N
     RDKit          3D

 51 53  0  0  0  0  0  0  0  0999 V2000
  142.7800   76.4430  220.9950 H   0  0  0  0  0  0  0  0  0  0  0  0
  141.7830   76.3340  220.8740 O   0  0  0  0  0  0  0  0  0  0  0  0
  140.8620   76.4230  221.9240 C   0  0  0  0  0  0  0  0  0  0  0  0
  140.1920   75.3830  222.3340 N   0  0  0  0  0  0  0  0  0  0  0  0
  138.8790   74.9460  221.8620 C   0  0  0  0  0  0  0  0  0  0  0  0
  138.5975   75.5515  220.9879 H   0  0  0  0  0  0  0  0  0  0  0  0
  138.1636   75.0763  222.6874 H   0  0  0  0  0  0  0  0  0  0  0  0
  138.8690   73.4480  221.4560 C   0  0  2  0  0  0  0  0  0  0  0  0
  139.1636   73.3684  220.3992 H   0  0  0  0  0  0  0  0  0  0  0  0
  137.4450   72.9020  221.6640 C   0  0  0  0  0  0  0  0  0  0  0  0
  137.2367   72.8221  222.7411 H   0  0  0  0  0  0  0  0  0  0  0  0
  136.7188   73.5855  221.1998 H   0  0  0  0  0  0  0  0  0  0  0  0
  137.3619   71.9082  221.1998 H   0  0  0  0  0  0  0  0  0  0  0  0
  139.9070   72.6020  222.2590 C   0  0  2  0  0  0  0  0  0  0  0  0
  140.2204   73.2209  223.1127 H   0  0  0  0  0  0  0  0  0  0  0  0
  141.1280   72.2610  221.4260 C   0  0  0  0  0  0  0  0  0  0  0  0
  141.2610   70.9900  220.8390 C   0  0  0  0  0  0  0  0  0  0  0  0
  140.4790   70.2320  220.9939 H   0  0  0  0  0  0  0  0  0  0  0  0
  142.3790   70.6840  220.0610 C   0  0  0  0  0  0  0  0  0  0  0  0
  142.4727   69.6868  219.6061 H   0  0  0  0  0  0  0  0  0  0  0  0
  143.3800   71.6380  219.8570 C   0  0  0  0  0  0  0  0  0  0  0  0
  144.7680   71.2160  218.8630 Cl  0  0  0  0  0  0  0  0  0  0  0  0
  143.2570   72.9120  220.4350 C   0  0  0  0  0  0  0  0  0  0  0  0
  144.4810   74.1480  220.1830 Cl  0  0  0  0  0  0  0  0  0  0  0  0
  142.1350   73.2190  221.2140 C   0  0  0  0  0  0  0  0  0  0  0  0
  142.0405   74.2183  221.6641 H   0  0  0  0  0  0  0  0  0  0  0  0
  139.3030   71.3500  222.7390 N   0  0  0  0  0  0  0  0  0  0  0  0
  138.6560   70.8420  222.0930 H   0  0  0  0  0  0  0  0  0  0  0  0
  139.6490   70.6970  223.9780 C   0  0  0  0  0  0  0  0  0  0  0  0
  139.4870   69.3110  224.1660 C   0  0  0  0  0  0  0  0  0  0  0  0
  139.0901   68.6913  223.3484 H   0  0  0  0  0  0  0  0  0  0  0  0
  139.8270   68.7180  225.3840 C   0  0  0  0  0  0  0  0  0  0  0  0
  139.6969   67.6341  225.5194 H   0  0  0  0  0  0  0  0  0  0  0  0
  140.3320   69.4940  226.4330 C   0  0  0  0  0  0  0  0  0  0  0  0
  140.6760   68.8570  227.6810 C   0  0  0  0  0  0  0  0  0  0  0  0
  140.9510   68.3460  228.6820 N   0  0  0  0  0  0  0  0  0  0  0  0
  140.4960   70.8790  226.2580 C   0  0  0  0  0  0  0  0  0  0  0  0
  141.1260   71.8990  227.5470 Cl  0  0  0  0  0  0  0  0  0  0  0  0
  140.1530   71.4700  225.0360 C   0  0  0  0  0  0  0  0  0  0  0  0
  140.2801   72.5545  224.9031 H   0  0  0  0  0  0  0  0  0  0  0  0
  140.6570   77.7290  222.5920 C   0  0  0  0  0  0  0  0  0  0  0  0
  139.3600   78.2500  222.7440 C   0  0  0  0  0  0  0  0  0  0  0  0
  138.4946   77.6740  222.3844 H   0  0  0  0  0  0  0  0  0  0  0  0
  139.1620   79.4950  223.3490 C   0  0  0  0  0  0  0  0  0  0  0  0
  138.1435   79.8953  223.4603 H   0  0  0  0  0  0  0  0  0  0  0  0
  140.2540   80.2310  223.8120 C   0  0  0  0  0  0  0  0  0  0  0  0
  140.0960   81.2110  224.2859 H   0  0  0  0  0  0  0  0  0  0  0  0
  141.5480   79.7220  223.6730 C   0  0  0  0  0  0  0  0  0  0  0  0
  142.4082   80.3009  224.0405 H   0  0  0  0  0  0  0  0  0  0  0  0
  141.7510   78.4790  223.0680 C   0  0  0  0  0  0  0  0  0  0  0  0
  142.7719   78.0831  222.9625 H   0  0  0  0  0  0  0  0  0  0  0  0
  1  2  1  0
  2  3  1  0
  3  4  2  0
  4  5  1  0
  5  6  1  0
  5  7  1  0
  5  8  1  0
  8  9  1  6
  8 10  1  0
 10 11  1  0
 10 12  1  0
 10 13  1  0
  8 14  1  0
 14 15  1  1
 14 16  1  0
 16 17  2  0
 17 18  1  0
 17 19  1  0
 19 20  1  0
 19 21  2  0
 21 22  1  0
 21 23  1  0
 23 24  1  0
 23 25  2  0
 25 26  1  0
 14 27  1  0
 27 28  1  0
 27 29  1  0
 29 30  2  0
 30 31  1  0
 30 32  1  0
 32 33  1  0
 32 34  2  0
 34 35  1  0
 35 36  3  0
 34 37  1  0
 37 38  1  0
 37 39  2  0
 39 40  1  0
  3 41  1  0
 41 42  2  0
 42 43  1  0
 42 44  1  0
 44 45  1  0
 44 46  2  0
 46 47  1  0
 46 48  1  0
 48 49  1  0
 48 50  2  0
 50 51  1  0
 25 16  1  0
 39 29  1  0
 50 41  1  0
M  END
>  <UniqueID>  (60) 
30

>  <SMILES>  (60) 
C[C@@H](C/N=C(\O)c1ccccc1)[C@@H](Nc1ccc(C#N)c(Cl)c1)c1ccc(Cl)c(Cl)c1

>  <Energy>  (60) 
49.30363712332221

>  <Genealogy>  (60) 
CC(CN=C(O)c1ccccc1)C(Nc1ccc(C#N)c(Cl)c1)c1ccc(Cl)c(Cl)c1 (tautomer)
C[C@@H](CN=C(O)c1ccccc1)[C@@H](Nc1ccc(C#N)c(Cl)c1)c1ccc(Cl)c(Cl)c1 (chirality)
C[C@@H](C/N=C(\O)c1ccccc1)[C@@H](Nc1ccc(C#N)c(Cl)c1)c1ccc(Cl)c(Cl)c1 (cis-trans isomerization)
C[C@@H](C/N=C(\O)c1ccccc1)[C@@H](Nc1ccc(C#N)c(Cl)c1)c1ccc(Cl)c(Cl)c1 (3D coordinates assigned)
C[C@@H](C/N=C(\O)c1ccccc1)[C@@H](Nc1ccc(C#N)c(Cl)c1)c1ccc(Cl)c(Cl)c1 (optimized conformer: 49.30363712332221 kcal/mol)

>  <smiles>  (60) 
CC(CNC(=O)c1ccccc1)C(Nc1ccc(C#N)c(Cl)c1)c1ccc(Cl)c(Cl)c1

>  <score_type>  (60) 
oracle

>  <origin>  (60) 
autodockgpu

>  <m_score__min__energy>  (60) 
-8.5

>  <m_primary>  (60) 
energy

>  <meeko>  (60) 
{"free_energy": -8.45, "intermolecular_energy": -11.44, "internal_energy": -1.55, "cluster_size": 4, "cluster_id": 1, "rank_in_cluster": 3}

>  <energy>  (60) 
-6.76

>  <cluster_rmsd>  (60) 
0.0

>  <rmsd>  (60) 
270.72

>  <cluster>  (60) 
11

$$$$
CBUCDBLHFQUVQW-FJZAIJRJNA-N
     RDKit          3D

 51 53  0  0  0  0  0  0  0  0999 V2000
  137.7940   72.6400  223.8650 H   0  0  0  0  0  0  0  0  0  0  0  0
  138.2790   71.8330  223.4940 O   0  0  0  0  0  0  0  0  0  0  0  0
  139.6160   71.5390  223.7850 C   0  0  0  0  0  0  0  0  0  0  0  0
  140.5470   71.6610  222.8840 N   0  0  0  0  0  0  0  0  0  0  0  0
  140.4540   71.1900  221.5040 C   0  0  0  0  0  0  0  0  0  0  0  0
  139.5534   70.5684  221.3917 H   0  0  0  0  0  0  0  0  0  0  0  0
  141.3498   70.5981  221.2646 H   0  0  0  0  0  0  0  0  0  0  0  0
  140.3690   72.3930  220.5360 C   0  0  2  0  0  0  0  0  0  0  0  0
  139.3186   72.5856  220.2721 H   0  0  0  0  0  0  0  0  0  0  0  0
  141.1360   72.0570  219.2440 C   0  0  0  0  0  0  0  0  0  0  0  0
  142.1158   71.6278  219.5004 H   0  0  0  0  0  0  0  0  0  0  0  0
  140.5597   71.3289  218.6543 H   0  0  0  0  0  0  0  0  0  0  0  0
  141.2805   72.9743  218.6543 H   0  0  0  0  0  0  0  0  0  0  0  0
  140.9020   73.6980  221.2220 C   0  0  1  0  0  0  0  0  0  0  0  0
  141.7833   73.3386  221.7735 H   0  0  0  0  0  0  0  0  0  0  0  0
  141.4280   74.7700  220.2680 C   0  0  0  0  0  0  0  0  0  0  0  0
  142.7930   75.1120  220.1910 C   0  0  0  0  0  0  0  0  0  0  0  0
  143.5200   74.5971  220.8362 H   0  0  0  0  0  0  0  0  0  0  0  0
  143.2330   76.0980  219.3040 C   0  0  0  0  0  0  0  0  0  0  0  0
  144.2994   76.3656  219.2704 H   0  0  0  0  0  0  0  0  0  0  0  0
  142.3290   76.7460  218.4600 C   0  0  0  0  0  0  0  0  0  0  0  0
  142.9240   77.9800  217.3570 Cl  0  0  0  0  0  0  0  0  0  0  0  0
  140.9730   76.3910  218.4920 C   0  0  0  0  0  0  0  0  0  0  0  0
  139.8040   77.1600  217.4270 Cl  0  0  0  0  0  0  0  0  0  0  0  0
  140.5340   75.4030  219.3800 C   0  0  0  0  0  0  0  0  0  0  0  0
  139.4724   75.1148  219.3856 H   0  0  0  0  0  0  0  0  0  0  0  0
  139.9610   74.2730  222.2070 N   0  0  0  0  0  0  0  0  0  0  0  0
  139.3900   73.5750  222.7360 H   0  0  0  0  0  0  0  0  0  0  0  0
  139.5930   75.6620  222.3780 C   0  0  0  0  0  0  0  0  0  0  0  0
  138.2560   76.1040  222.3590 C   0  0  0  0  0  0  0  0  0  0  0  0
  137.4431   75.3790  222.2054 H   0  0  0  0  0  0  0  0  0  0  0  0
  137.9550   77.4580  222.5340 C   0  0  0  0  0  0  0  0  0  0  0  0
  136.9064   77.7904  222.5252 H   0  0  0  0  0  0  0  0  0  0  0  0
  138.9780   78.3920  222.7200 C   0  0  0  0  0  0  0  0  0  0  0  0
  138.6400   79.7830  222.9000 C   0  0  0  0  0  0  0  0  0  0  0  0
  138.3670   80.8980  223.0460 N   0  0  0  0  0  0  0  0  0  0  0  0
  140.3170   77.9660  222.7210 C   0  0  0  0  0  0  0  0  0  0  0  0
  141.6410   79.1040  222.9440 Cl  0  0  0  0  0  0  0  0  0  0  0  0
  140.6140   76.6110  222.5440 C   0  0  0  0  0  0  0  0  0  0  0  0
  141.6641   76.2837  222.5347 H   0  0  0  0  0  0  0  0  0  0  0  0
  139.9710   71.0790  225.1500 C   0  0  0  0  0  0  0  0  0  0  0  0
  140.7540   71.8810  226.0040 C   0  0  0  0  0  0  0  0  0  0  0  0
  141.1089   72.8629  225.6578 H   0  0  0  0  0  0  0  0  0  0  0  0
  141.0830   71.4370  227.2890 C   0  0  0  0  0  0  0  0  0  0  0  0
  141.6947   72.0697  227.9489 H   0  0  0  0  0  0  0  0  0  0  0  0
  140.6360   70.1920  227.7350 C   0  0  0  0  0  0  0  0  0  0  0  0
  140.8960   69.8447  228.7458 H   0  0  0  0  0  0  0  0  0  0  0  0
  139.8600   69.3880  226.9000 C   0  0  0  0  0  0  0  0  0  0  0  0
  139.5091   68.4073  227.2537 H   0  0  0  0  0  0  0  0  0  0  0  0
  139.5270   69.8260  225.6140 C   0  0  0  0  0  0  0  0  0  0  0  0
  138.9142   69.1873  224.9609 H   0  0  0  0  0  0  0  0  0  0  0  0
  1  2  1  0
  2  3  1  0
  3  4  2  0
  4  5  1  0
  5  6  1  0
  5  7  1  0
  5  8  1  0
  8  9  1  6
  8 10  1  0
 10 11  1  0
 10 12  1  0
 10 13  1  0
  8 14  1  0
 14 15  1  1
 14 16  1  0
 16 17  2  0
 17 18  1  0
 17 19  1  0
 19 20  1  0
 19 21  2  0
 21 22  1  0
 21 23  1  0
 23 24  1  0
 23 25  2  0
 25 26  1  0
 14 27  1  0
 27 28  1  0
 27 29  1  0
 29 30  2  0
 30 31  1  0
 30 32  1  0
 32 33  1  0
 32 34  2  0
 34 35  1  0
 35 36  3  0
 34 37  1  0
 37 38  1  0
 37 39  2  0
 39 40  1  0
  3 41  1  0
 41 42  2  0
 42 43  1  0
 42 44  1  0
 44 45  1  0
 44 46  2  0
 46 47  1  0
 46 48  1  0
 48 49  1  0
 48 50  2  0
 50 51  1  0
 25 16  1  0
 39 29  1  0
 50 41  1  0
M  END
>  <UniqueID>  (61) 
31

>  <SMILES>  (61) 
C[C@@H](C/N=C(\O)c1ccccc1)[C@H](Nc1ccc(C#N)c(Cl)c1)c1ccc(Cl)c(Cl)c1

>  <Energy>  (61) 
62.51295180246913

>  <Genealogy>  (61) 
CC(CN=C(O)c1ccccc1)C(Nc1ccc(C#N)c(Cl)c1)c1ccc(Cl)c(Cl)c1 (tautomer)
C[C@@H](CN=C(O)c1ccccc1)[C@H](Nc1ccc(C#N)c(Cl)c1)c1ccc(Cl)c(Cl)c1 (chirality)
C[C@@H](C/N=C(\O)c1ccccc1)[C@H](Nc1ccc(C#N)c(Cl)c1)c1ccc(Cl)c(Cl)c1 (cis-trans isomerization)
C[C@@H](C/N=C(\O)c1ccccc1)[C@H](Nc1ccc(C#N)c(Cl)c1)c1ccc(Cl)c(Cl)c1 (3D coordinates assigned)
C[C@@H](C/N=C(\O)c1ccccc1)[C@H](Nc1ccc(C#N)c(Cl)c1)c1ccc(Cl)c(Cl)c1 (optimized conformer: 62.51295180246913 kcal/mol)

>  <smiles>  (61) 
CC(CNC(=O)c1ccccc1)C(Nc1ccc(C#N)c(Cl)c1)c1ccc(Cl)c(Cl)c1

>  <score_type>  (61) 
oracle

>  <origin>  (61) 
autodockgpu

>  <m_score__min__energy>  (61) 
-8.25

>  <m_primary>  (61) 
energy

>  <meeko>  (61) 
{"free_energy": -7.02, "intermolecular_energy": -10.0, "internal_energy": -2.79, "cluster_size": 1, "cluster_id": 7, "rank_in_cluster": 1}

>  <energy>  (61) 
-8.25

>  <cluster_rmsd>  (61) 
0.0

>  <rmsd>  (61) 
269.45

>  <cluster>  (61) 
1

$$$$
CBUCDBLHFQUVQW-FJZAIJRJNA-N
     RDKit          3D

 51 53  0  0  0  0  0  0  0  0999 V2000
  137.5800   74.8400  223.2280 H   0  0  0  0  0  0  0  0  0  0  0  0
  138.0020   74.9730  222.3190 O   0  0  0  0  0  0  0  0  0  0  0  0
  139.3730   74.8260  222.0790 C   0  0  0  0  0  0  0  0  0  0  0  0
  139.9360   73.6520  222.0770 N   0  0  0  0  0  0  0  0  0  0  0  0
  139.5070   72.5100  221.2740 C   0  0  0  0  0  0  0  0  0  0  0  0
  140.0264   72.5315  220.3046 H   0  0  0  0  0  0  0  0  0  0  0  0
  138.4197   72.5682  221.1179 H   0  0  0  0  0  0  0  0  0  0  0  0
  139.8430   71.1890  222.0050 C   0  0  2  0  0  0  0  0  0  0  0  0
  140.7865   71.2995  222.5597 H   0  0  0  0  0  0  0  0  0  0  0  0
  140.0250   70.0680  220.9650 C   0  0  0  0  0  0  0  0  0  0  0  0
  140.1806   69.1097  221.4822 H   0  0  0  0  0  0  0  0  0  0  0  0
  139.1257   70.0028  220.3349 H   0  0  0  0  0  0  0  0  0  0  0  0
  140.8987   70.2907  220.3349 H   0  0  0  0  0  0  0  0  0  0  0  0
  138.7410   70.8440  223.0660 C   0  0  1  0  0  0  0  0  0  0  0  0
  138.1945   70.0180  222.5874 H   0  0  0  0  0  0  0  0  0  0  0  0
  139.2600   70.2770  224.3870 C   0  0  0  0  0  0  0  0  0  0  0  0
  139.2200   68.9010  224.6880 C   0  0  0  0  0  0  0  0  0  0  0  0
  138.8012   68.1956  223.9552 H   0  0  0  0  0  0  0  0  0  0  0  0
  139.7070   68.4230  225.9080 C   0  0  0  0  0  0  0  0  0  0  0  0
  139.6524   67.3478  226.1337 H   0  0  0  0  0  0  0  0  0  0  0  0
  140.2620   69.2990  226.8420 C   0  0  0  0  0  0  0  0  0  0  0  0
  140.8630   68.6570  228.3650 Cl  0  0  0  0  0  0  0  0  0  0  0  0
  140.3480   70.6670  226.5440 C   0  0  0  0  0  0  0  0  0  0  0  0
  141.0660   71.8040  227.6770 Cl  0  0  0  0  0  0  0  0  0  0  0  0
  139.8620   71.1450  225.3220 C   0  0  0  0  0  0  0  0  0  0  0  0
  139.9509   72.2158  225.0864 H   0  0  0  0  0  0  0  0  0  0  0  0
  137.7800   71.9430  223.2960 N   0  0  0  0  0  0  0  0  0  0  0  0
  138.1120   72.8920  223.0080 H   0  0  0  0  0  0  0  0  0  0  0  0
  136.5420   71.8990  224.0440 C   0  0  0  0  0  0  0  0  0  0  0  0
  135.9780   70.6970  224.5140 C   0  0  0  0  0  0  0  0  0  0  0  0
  136.4832   69.7412  224.3110 H   0  0  0  0  0  0  0  0  0  0  0  0
  134.7820   70.7090  225.2360 C   0  0  0  0  0  0  0  0  0  0  0  0
  134.3567   69.7642  225.6053 H   0  0  0  0  0  0  0  0  0  0  0  0
  134.1220   71.9160  225.4920 C   0  0  0  0  0  0  0  0  0  0  0  0
  132.8900   71.9010  226.2410 C   0  0  0  0  0  0  0  0  0  0  0  0
  131.9020   71.8900  226.8430 N   0  0  0  0  0  0  0  0  0  0  0  0
  134.6640   73.1200  225.0110 C   0  0  0  0  0  0  0  0  0  0  0  0
  133.8690   74.6630  225.3000 Cl  0  0  0  0  0  0  0  0  0  0  0  0
  135.8610   73.1020  224.2870 C   0  0  0  0  0  0  0  0  0  0  0  0
  136.2750   74.0456  223.9021 H   0  0  0  0  0  0  0  0  0  0  0  0
  140.1930   76.0350  221.8230 C   0  0  0  0  0  0  0  0  0  0  0  0
  140.1060   77.1620  222.6640 C   0  0  0  0  0  0  0  0  0  0  0  0
  139.4210   77.1492  223.5246 H   0  0  0  0  0  0  0  0  0  0  0  0
  140.8840   78.2970  222.4130 C   0  0  0  0  0  0  0  0  0  0  0  0
  140.8095   79.1717  223.0759 H   0  0  0  0  0  0  0  0  0  0  0  0
  141.7550   78.3210  221.3220 C   0  0  0  0  0  0  0  0  0  0  0  0
  142.3656   79.2146  221.1252 H   0  0  0  0  0  0  0  0  0  0  0  0
  141.8510   77.2110  220.4810 C   0  0  0  0  0  0  0  0  0  0  0  0
  142.5382   77.2314  219.6223 H   0  0  0  0  0  0  0  0  0  0  0  0
  141.0760   76.0730  220.7270 C   0  0  0  0  0  0  0  0  0  0  0  0
  141.1569   75.2021  220.0599 H   0  0  0  0  0  0  0  0  0  0  0  0
  1  2  1  0
  2  3  1  0
  3  4  2  0
  4  5  1  0
  5  6  1  0
  5  7  1  0
  5  8  1  0
  8  9  1  1
  8 10  1  0
 10 11  1  0
 10 12  1  0
 10 13  1  0
  8 14  1  0
 14 15  1  6
 14 16  1  0
 16 17  2  0
 17 18  1  0
 17 19  1  0
 19 20  1  0
 19 21  2  0
 21 22  1  0
 21 23  1  0
 23 24  1  0
 23 25  2  0
 25 26  1  0
 14 27  1  0
 27 28  1  0
 27 29  1  0
 29 30  2  0
 30 31  1  0
 30 32  1  0
 32 33  1  0
 32 34  2  0
 34 35  1  0
 35 36  3  0
 34 37  1  0
 37 38  1  0
 37 39  2  0
 39 40  1  0
  3 41  1  0
 41 42  2  0
 42 43  1  0
 42 44  1  0
 44 45  1  0
 44 46  2  0
 46 47  1  0
 46 48  1  0
 48 49  1  0
 48 50  2  0
 50 51  1  0
 25 16  1  0
 39 29  1  0
 50 41  1  0
M  END
>  <UniqueID>  (62) 
31

>  <SMILES>  (62) 
C[C@@H](C/N=C(\O)c1ccccc1)[C@H](Nc1ccc(C#N)c(Cl)c1)c1ccc(Cl)c(Cl)c1

>  <Energy>  (62) 
62.51295180246913

>  <Genealogy>  (62) 
CC(CN=C(O)c1ccccc1)C(Nc1ccc(C#N)c(Cl)c1)c1ccc(Cl)c(Cl)c1 (tautomer)
C[C@@H](CN=C(O)c1ccccc1)[C@H](Nc1ccc(C#N)c(Cl)c1)c1ccc(Cl)c(Cl)c1 (chirality)
C[C@@H](C/N=C(\O)c1ccccc1)[C@H](Nc1ccc(C#N)c(Cl)c1)c1ccc(Cl)c(Cl)c1 (cis-trans isomerization)
C[C@@H](C/N=C(\O)c1ccccc1)[C@H](Nc1ccc(C#N)c(Cl)c1)c1ccc(Cl)c(Cl)c1 (3D coordinates assigned)
C[C@@H](C/N=C(\O)c1ccccc1)[C@H](Nc1ccc(C#N)c(Cl)c1)c1ccc(Cl)c(Cl)c1 (optimized conformer: 62.51295180246913 kcal/mol)

>  <smiles>  (62) 
CC(CNC(=O)c1ccccc1)C(Nc1ccc(C#N)c(Cl)c1)c1ccc(Cl)c(Cl)c1

>  <score_type>  (62) 
oracle

>  <origin>  (62) 
autodockgpu

>  <m_score__min__energy>  (62) 
-8.25

>  <m_primary>  (62) 
energy

>  <meeko>  (62) 
{"free_energy": -8.09, "intermolecular_energy": -11.07, "internal_energy": -2.6, "cluster_size": 6, "cluster_id": 1, "rank_in_cluster": 5}

>  <energy>  (62) 
-8.24

>  <cluster_rmsd>  (62) 
0.96

>  <rmsd>  (62) 
269.41

>  <cluster>  (62) 
1

$$$$
CBUCDBLHFQUVQW-FJZAIJRJNA-N
     RDKit          3D

 51 53  0  0  0  0  0  0  0  0999 V2000
  142.2540   75.8430  221.6890 H   0  0  0  0  0  0  0  0  0  0  0  0
  141.4400   75.3040  221.9550 O   0  0  0  0  0  0  0  0  0  0  0  0
  140.2250   75.8860  222.3360 C   0  0  0  0  0  0  0  0  0  0  0  0
  139.1230   75.1930  222.3630 N   0  0  0  0  0  0  0  0  0  0  0  0
  138.5500   74.4720  221.2280 C   0  0  0  0  0  0  0  0  0  0  0  0
  137.9957   75.1773  220.5914 H   0  0  0  0  0  0  0  0  0  0  0  0
  137.8706   73.6923  221.6029 H   0  0  0  0  0  0  0  0  0  0  0  0
  139.6730   73.8080  220.3980 C   0  0  2  0  0  0  0  0  0  0  0  0
  140.5134   74.5077  220.2795 H   0  0  0  0  0  0  0  0  0  0  0  0
  139.1310   73.4660  218.9980 C   0  0  0  0  0  0  0  0  0  0  0  0
  138.2044   72.8814  219.0963 H   0  0  0  0  0  0  0  0  0  0  0  0
  138.9214   74.3957  218.4488 H   0  0  0  0  0  0  0  0  0  0  0  0
  139.8799   72.8766  218.4488 H   0  0  0  0  0  0  0  0  0  0  0  0
  140.2430   72.5500  221.1400 C   0  0  1  0  0  0  0  0  0  0  0  0
  139.5202   71.7646  220.8742 H   0  0  0  0  0  0  0  0  0  0  0  0
  141.5960   72.0500  220.6320 C   0  0  0  0  0  0  0  0  0  0  0  0
  141.7340   70.8570  219.8930 C   0  0  0  0  0  0  0  0  0  0  0  0
  140.8442   70.2514  219.6661 H   0  0  0  0  0  0  0  0  0  0  0  0
  142.9890   70.4360  219.4460 C   0  0  0  0  0  0  0  0  0  0  0  0
  143.0812   69.4942  218.8852 H   0  0  0  0  0  0  0  0  0  0  0  0
  144.1270   71.2020  219.7060 C   0  0  0  0  0  0  0  0  0  0  0  0
  145.6890   70.6360  219.1260 Cl  0  0  0  0  0  0  0  0  0  0  0  0
  144.0050   72.4120  220.4050 C   0  0  0  0  0  0  0  0  0  0  0  0
  145.4070   73.4230  220.7290 Cl  0  0  0  0  0  0  0  0  0  0  0  0
  142.7480   72.8330  220.8500 C   0  0  0  0  0  0  0  0  0  0  0  0
  142.6563   73.7926  221.3798 H   0  0  0  0  0  0  0  0  0  0  0  0
  140.2390   72.6800  222.6120 N   0  0  0  0  0  0  0  0  0  0  0  0
  140.4840   73.6300  222.9750 H   0  0  0  0  0  0  0  0  0  0  0  0
  140.1400   71.6250  223.5970 C   0  0  0  0  0  0  0  0  0  0  0  0
  139.6100   70.3540  223.3020 C   0  0  0  0  0  0  0  0  0  0  0  0
  139.2484   70.1357  222.2863 H   0  0  0  0  0  0  0  0  0  0  0  0
  139.5400   69.3680  224.2900 C   0  0  0  0  0  0  0  0  0  0  0  0
  139.1302   68.3769  224.0454 H   0  0  0  0  0  0  0  0  0  0  0  0
  139.9880   69.6340  225.5880 C   0  0  0  0  0  0  0  0  0  0  0  0
  139.9080   68.5980  226.5880 C   0  0  0  0  0  0  0  0  0  0  0  0
  139.8420   67.7660  227.3890 N   0  0  0  0  0  0  0  0  0  0  0  0
  140.5020   70.9040  225.8990 C   0  0  0  0  0  0  0  0  0  0  0  0
  141.0710   71.2910  227.5190 Cl  0  0  0  0  0  0  0  0  0  0  0  0
  140.5670   71.8890  224.9080 C   0  0  0  0  0  0  0  0  0  0  0  0
  140.9587   72.8856  225.1598 H   0  0  0  0  0  0  0  0  0  0  0  0
  140.2010   77.3190  222.7160 C   0  0  0  0  0  0  0  0  0  0  0  0
  138.9960   78.0500  222.7120 C   0  0  0  0  0  0  0  0  0  0  0  0
  138.0573   77.5538  222.4245 H   0  0  0  0  0  0  0  0  0  0  0  0
  138.9850   79.4020  223.0710 C   0  0  0  0  0  0  0  0  0  0  0  0
  138.0397   79.9644  223.0648 H   0  0  0  0  0  0  0  0  0  0  0  0
  140.1720   80.0380  223.4370 C   0  0  0  0  0  0  0  0  0  0  0  0
  140.1614   81.1013  223.7187 H   0  0  0  0  0  0  0  0  0  0  0  0
  141.3730   79.3260  223.4460 C   0  0  0  0  0  0  0  0  0  0  0  0
  142.3074   79.8290  223.7358 H   0  0  0  0  0  0  0  0  0  0  0  0
  141.3900   77.9740  223.0870 C   0  0  0  0  0  0  0  0  0  0  0  0
  142.3396   77.4189  223.0948 H   0  0  0  0  0  0  0  0  0  0  0  0
  1  2  1  0
  2  3  1  0
  3  4  2  0
  4  5  1  0
  5  6  1  0
  5  7  1  0
  5  8  1  0
  8  9  1  6
  8 10  1  0
 10 11  1  0
 10 12  1  0
 10 13  1  0
  8 14  1  0
 14 15  1  1
 14 16  1  0
 16 17  2  0
 17 18  1  0
 17 19  1  0
 19 20  1  0
 19 21  2  0
 21 22  1  0
 21 23  1  0
 23 24  1  0
 23 25  2  0
 25 26  1  0
 14 27  1  0
 27 28  1  0
 27 29  1  0
 29 30  2  0
 30 31  1  0
 30 32  1  0
 32 33  1  0
 32 34  2  0
 34 35  1  0
 35 36  3  0
 34 37  1  0
 37 38  1  0
 37 39  2  0
 39 40  1  0
  3 41  1  0
 41 42  2  0
 42 43  1  0
 42 44  1  0
 44 45  1  0
 44 46  2  0
 46 47  1  0
 46 48  1  0
 48 49  1  0
 48 50  2  0
 50 51  1  0
 25 16  1  0
 39 29  1  0
 50 41  1  0
M  END
>  <UniqueID>  (63) 
31

>  <SMILES>  (63) 
C[C@@H](C/N=C(\O)c1ccccc1)[C@H](Nc1ccc(C#N)c(Cl)c1)c1ccc(Cl)c(Cl)c1

>  <Energy>  (63) 
62.51295180246913

>  <Genealogy>  (63) 
CC(CN=C(O)c1ccccc1)C(Nc1ccc(C#N)c(Cl)c1)c1ccc(Cl)c(Cl)c1 (tautomer)
C[C@@H](CN=C(O)c1ccccc1)[C@H](Nc1ccc(C#N)c(Cl)c1)c1ccc(Cl)c(Cl)c1 (chirality)
C[C@@H](C/N=C(\O)c1ccccc1)[C@H](Nc1ccc(C#N)c(Cl)c1)c1ccc(Cl)c(Cl)c1 (cis-trans isomerization)
C[C@@H](C/N=C(\O)c1ccccc1)[C@H](Nc1ccc(C#N)c(Cl)c1)c1ccc(Cl)c(Cl)c1 (3D coordinates assigned)
C[C@@H](C/N=C(\O)c1ccccc1)[C@H](Nc1ccc(C#N)c(Cl)c1)c1ccc(Cl)c(Cl)c1 (optimized conformer: 62.51295180246913 kcal/mol)

>  <smiles>  (63) 
CC(CNC(=O)c1ccccc1)C(Nc1ccc(C#N)c(Cl)c1)c1ccc(Cl)c(Cl)c1

>  <score_type>  (63) 
oracle

>  <origin>  (63) 
autodockgpu

>  <m_score__min__energy>  (63) 
-8.25

>  <m_primary>  (63) 
energy

>  <meeko>  (63) 
{"free_energy": -7.92, "intermolecular_energy": -10.91, "internal_energy": -2.62, "cluster_size": 5, "cluster_id": 2, "rank_in_cluster": 3}

>  <energy>  (63) 
-8.21

>  <cluster_rmsd>  (63) 
0.05

>  <rmsd>  (63) 
269.42

>  <cluster>  (63) 
1

$$$$
CBUCDBLHFQUVQW-FJZAIJRJNA-N
     RDKit          3D

 51 53  0  0  0  0  0  0  0  0999 V2000
  137.6070   74.6310  223.0800 H   0  0  0  0  0  0  0  0  0  0  0  0
  138.1120   75.2190  222.4290 O   0  0  0  0  0  0  0  0  0  0  0  0
  139.4780   75.0720  222.1620 C   0  0  0  0  0  0  0  0  0  0  0  0
  140.0500   73.9030  222.1850 N   0  0  0  0  0  0  0  0  0  0  0  0
  139.7360   72.7900  221.2910 C   0  0  0  0  0  0  0  0  0  0  0  0
  140.3386   72.8778  220.3749 H   0  0  0  0  0  0  0  0  0  0  0  0
  138.6657   72.8212  221.0389 H   0  0  0  0  0  0  0  0  0  0  0  0
  140.0540   71.4450  221.9860 C   0  0  2  0  0  0  0  0  0  0  0  0
  140.9520   71.5504  222.6124 H   0  0  0  0  0  0  0  0  0  0  0  0
  140.3380   70.3780  220.9120 C   0  0  0  0  0  0  0  0  0  0  0  0
  140.5916   69.4252  221.3998 H   0  0  0  0  0  0  0  0  0  0  0  0
  139.4447   70.2424  220.2846 H   0  0  0  0  0  0  0  0  0  0  0  0
  141.1805   70.7044  220.2846 H   0  0  0  0  0  0  0  0  0  0  0  0
  138.8870   71.0270  222.9470 C   0  0  1  0  0  0  0  0  0  0  0  0
  138.4089   70.1995  222.4024 H   0  0  0  0  0  0  0  0  0  0  0  0
  139.3260   70.4350  224.2870 C   0  0  0  0  0  0  0  0  0  0  0  0
  139.2020   69.0630  224.5860 C   0  0  0  0  0  0  0  0  0  0  0  0
  138.7747   68.3795  223.8375 H   0  0  0  0  0  0  0  0  0  0  0  0
  139.6160   68.5620  225.8230 C   0  0  0  0  0  0  0  0  0  0  0  0
  139.4958   67.4917  226.0466 H   0  0  0  0  0  0  0  0  0  0  0  0
  140.1810   69.4100  226.7770 C   0  0  0  0  0  0  0  0  0  0  0  0
  140.6900   68.7390  228.3220 Cl  0  0  0  0  0  0  0  0  0  0  0  0
  140.3520   70.7710  226.4830 C   0  0  0  0  0  0  0  0  0  0  0  0
  141.0850   71.8700  227.6430 Cl  0  0  0  0  0  0  0  0  0  0  0  0
  139.9380   71.2710  225.2440 C   0  0  0  0  0  0  0  0  0  0  0  0
  140.0925   72.3351  225.0119 H   0  0  0  0  0  0  0  0  0  0  0  0
  137.8710   72.0820  223.1350 N   0  0  0  0  0  0  0  0  0  0  0  0
  138.1650   73.0420  222.8390 H   0  0  0  0  0  0  0  0  0  0  0  0
  136.6180   71.9910  223.8530 C   0  0  0  0  0  0  0  0  0  0  0  0
  135.8430   73.1210  224.1800 C   0  0  0  0  0  0  0  0  0  0  0  0
  136.1895   74.1235  223.8885 H   0  0  0  0  0  0  0  0  0  0  0  0
  134.6370   72.9780  224.8720 C   0  0  0  0  0  0  0  0  0  0  0  0
  134.0368   73.8673  225.1145 H   0  0  0  0  0  0  0  0  0  0  0  0
  134.1890   71.7100  225.2580 C   0  0  0  0  0  0  0  0  0  0  0  0
  132.9400   71.5900  225.9690 C   0  0  0  0  0  0  0  0  0  0  0  0
  131.9390   71.4930  226.5400 N   0  0  0  0  0  0  0  0  0  0  0  0
  134.9630   70.5770  224.9550 C   0  0  0  0  0  0  0  0  0  0  0  0
  134.4470   68.9620  225.4260 Cl  0  0  0  0  0  0  0  0  0  0  0  0
  136.1700   70.7260  224.2640 C   0  0  0  0  0  0  0  0  0  0  0  0
  136.7780   69.8373  224.0391 H   0  0  0  0  0  0  0  0  0  0  0  0
  140.2830   76.2770  221.8470 C   0  0  0  0  0  0  0  0  0  0  0  0
  141.1150   76.3170  220.7100 C   0  0  0  0  0  0  0  0  0  0  0  0
  141.1710   75.4437  220.0435 H   0  0  0  0  0  0  0  0  0  0  0  0
  141.8700   77.4590  220.4230 C   0  0  0  0  0  0  0  0  0  0  0  0
  142.5161   77.4807  219.5330 H   0  0  0  0  0  0  0  0  0  0  0  0
  141.8050   78.5710  221.2640 C   0  0  0  0  0  0  0  0  0  0  0  0
  142.3998   79.4680  221.0367 H   0  0  0  0  0  0  0  0  0  0  0  0
  140.9850   78.5450  222.3940 C   0  0  0  0  0  0  0  0  0  0  0  0
  140.9350   79.4221  223.0560 H   0  0  0  0  0  0  0  0  0  0  0  0
  140.2270   77.4060  222.6860 C   0  0  0  0  0  0  0  0  0  0  0  0
  139.5827   77.3925  223.5775 H   0  0  0  0  0  0  0  0  0  0  0  0
  1  2  1  0
  2  3  1  0
  3  4  2  0
  4  5  1  0
  5  6  1  0
  5  7  1  0
  5  8  1  0
  8  9  1  1
  8 10  1  0
 10 11  1  0
 10 12  1  0
 10 13  1  0
  8 14  1  0
 14 15  1  6
 14 16  1  0
 16 17  2  0
 17 18  1  0
 17 19  1  0
 19 20  1  0
 19 21  2  0
 21 22  1  0
 21 23  1  0
 23 24  1  0
 23 25  2  0
 25 26  1  0
 14 27  1  0
 27 28  1  0
 27 29  1  0
 29 30  2  0
 30 31  1  0
 30 32  1  0
 32 33  1  0
 32 34  2  0
 34 35  1  0
 35 36  3  0
 34 37  1  0
 37 38  1  0
 37 39  2  0
 39 40  1  0
  3 41  1  0
 41 42  2  0
 42 43  1  0
 42 44  1  0
 44 45  1  0
 44 46  2  0
 46 47  1  0
 46 48  1  0
 48 49  1  0
 48 50  2  0
 50 51  1  0
 25 16  1  0
 39 29  1  0
 50 41  1  0
M  END
>  <UniqueID>  (64) 
31

>  <SMILES>  (64) 
C[C@@H](C/N=C(\O)c1ccccc1)[C@H](Nc1ccc(C#N)c(Cl)c1)c1ccc(Cl)c(Cl)c1

>  <Energy>  (64) 
62.51295180246913

>  <Genealogy>  (64) 
CC(CN=C(O)c1ccccc1)C(Nc1ccc(C#N)c(Cl)c1)c1ccc(Cl)c(Cl)c1 (tautomer)
C[C@@H](CN=C(O)c1ccccc1)[C@H](Nc1ccc(C#N)c(Cl)c1)c1ccc(Cl)c(Cl)c1 (chirality)
C[C@@H](C/N=C(\O)c1ccccc1)[C@H](Nc1ccc(C#N)c(Cl)c1)c1ccc(Cl)c(Cl)c1 (cis-trans isomerization)
C[C@@H](C/N=C(\O)c1ccccc1)[C@H](Nc1ccc(C#N)c(Cl)c1)c1ccc(Cl)c(Cl)c1 (3D coordinates assigned)
C[C@@H](C/N=C(\O)c1ccccc1)[C@H](Nc1ccc(C#N)c(Cl)c1)c1ccc(Cl)c(Cl)c1 (optimized conformer: 62.51295180246913 kcal/mol)

>  <smiles>  (64) 
CC(CNC(=O)c1ccccc1)C(Nc1ccc(C#N)c(Cl)c1)c1ccc(Cl)c(Cl)c1

>  <score_type>  (64) 
oracle

>  <origin>  (64) 
autodockgpu

>  <m_score__min__energy>  (64) 
-8.25

>  <m_primary>  (64) 
energy

>  <meeko>  (64) 
{"free_energy": -8.17, "intermolecular_energy": -11.15, "internal_energy": -2.6, "cluster_size": 6, "cluster_id": 1, "rank_in_cluster": 4}

>  <energy>  (64) 
-8.17

>  <cluster_rmsd>  (64) 
1.15

>  <rmsd>  (64) 
269.32

>  <cluster>  (64) 
1

$$$$
CBUCDBLHFQUVQW-FJZAIJRJNA-N
     RDKit          3D

 51 53  0  0  0  0  0  0  0  0999 V2000
  136.9370   73.8950  223.6230 H   0  0  0  0  0  0  0  0  0  0  0  0
  136.9300   73.4060  222.7370 O   0  0  0  0  0  0  0  0  0  0  0  0
  136.7500   72.0220  222.6240 C   0  0  0  0  0  0  0  0  0  0  0  0
  137.1760   71.3680  221.5820 N   0  0  0  0  0  0  0  0  0  0  0  0
  138.2640   70.3930  221.5820 C   0  0  0  0  0  0  0  0  0  0  0  0
  137.9799   69.5308  220.9608 H   0  0  0  0  0  0  0  0  0  0  0  0
  138.4529   70.0642  222.6146 H   0  0  0  0  0  0  0  0  0  0  0  0
  139.5510   71.0330  221.0110 C   0  0  2  0  0  0  0  0  0  0  0  0
  139.2962   71.7077  220.1804 H   0  0  0  0  0  0  0  0  0  0  0  0
  140.4670   69.9220  220.4650 C   0  0  0  0  0  0  0  0  0  0  0  0
  140.9190   69.3738  221.3047 H   0  0  0  0  0  0  0  0  0  0  0  0
  139.8752   69.2280  219.8501 H   0  0  0  0  0  0  0  0  0  0  0  0
  141.2611   70.3707  219.8501 H   0  0  0  0  0  0  0  0  0  0  0  0
  140.2630   71.9130  222.0960 C   0  0  1  0  0  0  0  0  0  0  0  0
  141.2298   71.4039  222.2233 H   0  0  0  0  0  0  0  0  0  0  0  0
  140.6070   73.3380  221.6600 C   0  0  0  0  0  0  0  0  0  0  0  0
  139.7740   74.4390  221.9460 C   0  0  0  0  0  0  0  0  0  0  0  0
  138.8380   74.2834  222.5025 H   0  0  0  0  0  0  0  0  0  0  0  0
  140.1250   75.7250  221.5300 C   0  0  0  0  0  0  0  0  0  0  0  0
  139.4555   76.5705  221.7468 H   0  0  0  0  0  0  0  0  0  0  0  0
  141.3190   75.9460  220.8410 C   0  0  0  0  0  0  0  0  0  0  0  0
  141.7240   77.5820  220.3340 Cl  0  0  0  0  0  0  0  0  0  0  0  0
  142.1800   74.8700  220.5820 C   0  0  0  0  0  0  0  0  0  0  0  0
  143.7070   75.1050  219.7420 Cl  0  0  0  0  0  0  0  0  0  0  0  0
  141.8290   73.5820  221.0000 C   0  0  0  0  0  0  0  0  0  0  0  0
  142.5178   72.7455  220.8107 H   0  0  0  0  0  0  0  0  0  0  0  0
  139.5770   71.9050  223.4050 N   0  0  0  0  0  0  0  0  0  0  0  0
  138.7960   72.5940  223.5030 H   0  0  0  0  0  0  0  0  0  0  0  0
  139.9780   71.2170  224.6140 C   0  0  0  0  0  0  0  0  0  0  0  0
  140.6960   71.8490  225.6480 C   0  0  0  0  0  0  0  0  0  0  0  0
  140.9761   72.9082  225.5497 H   0  0  0  0  0  0  0  0  0  0  0  0
  141.0550   71.1410  226.7970 C   0  0  0  0  0  0  0  0  0  0  0  0
  141.6083   71.6480  227.6012 H   0  0  0  0  0  0  0  0  0  0  0  0
  140.7150   69.7910  226.9310 C   0  0  0  0  0  0  0  0  0  0  0  0
  141.0960   69.0830  228.1290 C   0  0  0  0  0  0  0  0  0  0  0  0
  141.4030   68.5160  229.0900 N   0  0  0  0  0  0  0  0  0  0  0  0
  140.0160   69.1440  225.8990 C   0  0  0  0  0  0  0  0  0  0  0  0
  139.5710   67.4450  226.0160 Cl  0  0  0  0  0  0  0  0  0  0  0  0
  139.6600   69.8570  224.7490 C   0  0  0  0  0  0  0  0  0  0  0  0
  139.1225   69.3435  223.9382 H   0  0  0  0  0  0  0  0  0  0  0  0
  136.0610   71.2950  223.7170 C   0  0  0  0  0  0  0  0  0  0  0  0
  136.3770   69.9520  224.0060 C   0  0  0  0  0  0  0  0  0  0  0  0
  137.1457   69.4326  223.4150 H   0  0  0  0  0  0  0  0  0  0  0  0
  135.7200   69.2750  225.0390 C   0  0  0  0  0  0  0  0  0  0  0  0
  135.9734   68.2271  225.2575 H   0  0  0  0  0  0  0  0  0  0  0  0
  134.7430   69.9280  225.7930 C   0  0  0  0  0  0  0  0  0  0  0  0
  134.2267   69.3939  226.6043 H   0  0  0  0  0  0  0  0  0  0  0  0
  134.4210   71.2580  225.5180 C   0  0  0  0  0  0  0  0  0  0  0  0
  133.6520   71.7710  226.1142 H   0  0  0  0  0  0  0  0  0  0  0  0
  135.0740   71.9400  224.4860 C   0  0  0  0  0  0  0  0  0  0  0  0
  134.8144   72.9877  224.2739 H   0  0  0  0  0  0  0  0  0  0  0  0
  1  2  1  0
  2  3  1  0
  3  4  2  0
  4  5  1  0
  5  6  1  0
  5  7  1  0
  5  8  1  0
  8  9  1  6
  8 10  1  0
 10 11  1  0
 10 12  1  0
 10 13  1  0
  8 14  1  0
 14 15  1  1
 14 16  1  0
 16 17  2  0
 17 18  1  0
 17 19  1  0
 19 20  1  0
 19 21  2  0
 21 22  1  0
 21 23  1  0
 23 24  1  0
 23 25  2  0
 25 26  1  0
 14 27  1  0
 27 28  1  0
 27 29  1  0
 29 30  2  0
 30 31  1  0
 30 32  1  0
 32 33  1  0
 32 34  2  0
 34 35  1  0
 35 36  3  0
 34 37  1  0
 37 38  1  0
 37 39  2  0
 39 40  1  0
  3 41  1  0
 41 42  2  0
 42 43  1  0
 42 44  1  0
 44 45  1  0
 44 46  2  0
 46 47  1  0
 46 48  1  0
 48 49  1  0
 48 50  2  0
 50 51  1  0
 25 16  1  0
 39 29  1  0
 50 41  1  0
M  END
>  <UniqueID>  (65) 
31

>  <SMILES>  (65) 
C[C@@H](C/N=C(\O)c1ccccc1)[C@H](Nc1ccc(C#N)c(Cl)c1)c1ccc(Cl)c(Cl)c1

>  <Energy>  (65) 
62.51295180246913

>  <Genealogy>  (65) 
CC(CN=C(O)c1ccccc1)C(Nc1ccc(C#N)c(Cl)c1)c1ccc(Cl)c(Cl)c1 (tautomer)
C[C@@H](CN=C(O)c1ccccc1)[C@H](Nc1ccc(C#N)c(Cl)c1)c1ccc(Cl)c(Cl)c1 (chirality)
C[C@@H](C/N=C(\O)c1ccccc1)[C@H](Nc1ccc(C#N)c(Cl)c1)c1ccc(Cl)c(Cl)c1 (cis-trans isomerization)
C[C@@H](C/N=C(\O)c1ccccc1)[C@H](Nc1ccc(C#N)c(Cl)c1)c1ccc(Cl)c(Cl)c1 (3D coordinates assigned)
C[C@@H](C/N=C(\O)c1ccccc1)[C@H](Nc1ccc(C#N)c(Cl)c1)c1ccc(Cl)c(Cl)c1 (optimized conformer: 62.51295180246913 kcal/mol)

>  <smiles>  (65) 
CC(CNC(=O)c1ccccc1)C(Nc1ccc(C#N)c(Cl)c1)c1ccc(Cl)c(Cl)c1

>  <score_type>  (65) 
oracle

>  <origin>  (65) 
autodockgpu

>  <m_score__min__energy>  (65) 
-8.25

>  <m_primary>  (65) 
energy

>  <meeko>  (65) 
{"free_energy": -7.05, "intermolecular_energy": -10.03, "internal_energy": -2.66, "cluster_size": 1, "cluster_id": 6, "rank_in_cluster": 1}

>  <energy>  (65) 
-8.09

>  <cluster_rmsd>  (65) 
0.72

>  <rmsd>  (65) 
269.37

>  <cluster>  (65) 
1

$$$$
CBUCDBLHFQUVQW-FJZAIJRJNA-N
     RDKit          3D

 51 53  0  0  0  0  0  0  0  0999 V2000
  140.3880   66.6500  227.5550 H   0  0  0  0  0  0  0  0  0  0  0  0
  140.4890   67.0150  226.6170 O   0  0  0  0  0  0  0  0  0  0  0  0
  139.8040   68.1450  226.1550 C   0  0  0  0  0  0  0  0  0  0  0  0
  138.8290   68.0400  225.2980 N   0  0  0  0  0  0  0  0  0  0  0  0
  138.9530   68.2100  223.8520 C   0  0  0  0  0  0  0  0  0  0  0  0
  139.2191   67.2460  223.3938 H   0  0  0  0  0  0  0  0  0  0  0  0
  139.7368   68.9528  223.6425 H   0  0  0  0  0  0  0  0  0  0  0  0
  137.6140   68.7060  223.2590 C   0  0  2  0  0  0  0  0  0  0  0  0
  136.7919   68.0598  223.6004 H   0  0  0  0  0  0  0  0  0  0  0  0
  137.6830   68.6270  221.7220 C   0  0  0  0  0  0  0  0  0  0  0  0
  138.3801   67.8289  221.4268 H   0  0  0  0  0  0  0  0  0  0  0  0
  136.6826   68.4070  221.3209 H   0  0  0  0  0  0  0  0  0  0  0  0
  138.0356   69.5887  221.3209 H   0  0  0  0  0  0  0  0  0  0  0  0
  137.2840   70.1530  223.7660 C   0  0  1  0  0  0  0  0  0  0  0  0
  137.5421   70.1004  224.8340 H   0  0  0  0  0  0  0  0  0  0  0  0
  138.1620   71.2640  223.1880 C   0  0  0  0  0  0  0  0  0  0  0  0
  139.5650   71.2650  223.3190 C   0  0  0  0  0  0  0  0  0  0  0  0
  140.0622   70.4428  223.8545 H   0  0  0  0  0  0  0  0  0  0  0  0
  140.3310   72.2990  222.7760 C   0  0  0  0  0  0  0  0  0  0  0  0
  141.4236   72.2933  222.9032 H   0  0  0  0  0  0  0  0  0  0  0  0
  139.7210   73.3400  222.0730 C   0  0  0  0  0  0  0  0  0  0  0  0
  140.7220   74.6220  221.4040 Cl  0  0  0  0  0  0  0  0  0  0  0  0
  138.3300   73.3350  221.8960 C   0  0  0  0  0  0  0  0  0  0  0  0
  137.5210   74.6090  220.9940 Cl  0  0  0  0  0  0  0  0  0  0  0  0
  137.5630   72.2990  222.4400 C   0  0  0  0  0  0  0  0  0  0  0  0
  136.4745   72.2915  222.2817 H   0  0  0  0  0  0  0  0  0  0  0  0
  135.8500   70.4990  223.6680 N   0  0  0  0  0  0  0  0  0  0  0  0
  135.3930   70.2490  222.7610 H   0  0  0  0  0  0  0  0  0  0  0  0
  135.0680   71.3090  224.5770 C   0  0  0  0  0  0  0  0  0  0  0  0
  134.1620   70.7570  225.5030 C   0  0  0  0  0  0  0  0  0  0  0  0
  134.0263   69.6664  225.5506 H   0  0  0  0  0  0  0  0  0  0  0  0
  133.4340   71.5850  226.3620 C   0  0  0  0  0  0  0  0  0  0  0  0
  132.7355   71.1414  227.0867 H   0  0  0  0  0  0  0  0  0  0  0  0
  133.5880   72.9740  226.3060 C   0  0  0  0  0  0  0  0  0  0  0  0
  132.8250   73.8050  227.2050 C   0  0  0  0  0  0  0  0  0  0  0  0
  132.2130   74.4720  227.9260 N   0  0  0  0  0  0  0  0  0  0  0  0
  134.4740   73.5380  225.3730 C   0  0  0  0  0  0  0  0  0  0  0  0
  134.6980   75.2800  225.2570 Cl  0  0  0  0  0  0  0  0  0  0  0  0
  135.2000   72.7050  224.5140 C   0  0  0  0  0  0  0  0  0  0  0  0
  135.8848   73.1513  223.7779 H   0  0  0  0  0  0  0  0  0  0  0  0
  140.2020   69.4830  226.6550 C   0  0  0  0  0  0  0  0  0  0  0  0
  139.7170   69.9710  227.8850 C   0  0  0  0  0  0  0  0  0  0  0  0
  139.0335   69.3537  228.4864 H   0  0  0  0  0  0  0  0  0  0  0  0
  140.0990   71.2350  228.3460 C   0  0  0  0  0  0  0  0  0  0  0  0
  139.7157   71.6080  229.3072 H   0  0  0  0  0  0  0  0  0  0  0  0
  140.9660   72.0240  227.5880 C   0  0  0  0  0  0  0  0  0  0  0  0
  141.2655   73.0177  227.9526 H   0  0  0  0  0  0  0  0  0  0  0  0
  141.4530   71.5530  226.3680 C   0  0  0  0  0  0  0  0  0  0  0  0
  142.1355   72.1765  225.7718 H   0  0  0  0  0  0  0  0  0  0  0  0
  141.0750   70.2900  225.9020 C   0  0  0  0  0  0  0  0  0  0  0  0
  141.4629   69.9245  224.9397 H   0  0  0  0  0  0  0  0  0  0  0  0
  1  2  1  0
  2  3  1  0
  3  4  2  0
  4  5  1  0
  5  6  1  0
  5  7  1  0
  5  8  1  0
  8  9  1  1
  8 10  1  0
 10 11  1  0
 10 12  1  0
 10 13  1  0
  8 14  1  0
 14 15  1  1
 14 16  1  0
 16 17  2  0
 17 18  1  0
 17 19  1  0
 19 20  1  0
 19 21  2  0
 21 22  1  0
 21 23  1  0
 23 24  1  0
 23 25  2  0
 25 26  1  0
 14 27  1  0
 27 28  1  0
 27 29  1  0
 29 30  2  0
 30 31  1  0
 30 32  1  0
 32 33  1  0
 32 34  2  0
 34 35  1  0
 35 36  3  0
 34 37  1  0
 37 38  1  0
 37 39  2  0
 39 40  1  0
  3 41  1  0
 41 42  2  0
 42 43  1  0
 42 44  1  0
 44 45  1  0
 44 46  2  0
 46 47  1  0
 46 48  1  0
 48 49  1  0
 48 50  2  0
 50 51  1  0
 25 16  1  0
 39 29  1  0
 50 41  1  0
M  END
>  <UniqueID>  (66) 
31

>  <SMILES>  (66) 
C[C@@H](C/N=C(\O)c1ccccc1)[C@H](Nc1ccc(C#N)c(Cl)c1)c1ccc(Cl)c(Cl)c1

>  <Energy>  (66) 
62.51295180246913

>  <Genealogy>  (66) 
CC(CN=C(O)c1ccccc1)C(Nc1ccc(C#N)c(Cl)c1)c1ccc(Cl)c(Cl)c1 (tautomer)
C[C@@H](CN=C(O)c1ccccc1)[C@H](Nc1ccc(C#N)c(Cl)c1)c1ccc(Cl)c(Cl)c1 (chirality)
C[C@@H](C/N=C(\O)c1ccccc1)[C@H](Nc1ccc(C#N)c(Cl)c1)c1ccc(Cl)c(Cl)c1 (cis-trans isomerization)
C[C@@H](C/N=C(\O)c1ccccc1)[C@H](Nc1ccc(C#N)c(Cl)c1)c1ccc(Cl)c(Cl)c1 (3D coordinates assigned)
C[C@@H](C/N=C(\O)c1ccccc1)[C@H](Nc1ccc(C#N)c(Cl)c1)c1ccc(Cl)c(Cl)c1 (optimized conformer: 62.51295180246913 kcal/mol)

>  <smiles>  (66) 
CC(CNC(=O)c1ccccc1)C(Nc1ccc(C#N)c(Cl)c1)c1ccc(Cl)c(Cl)c1

>  <score_type>  (66) 
oracle

>  <origin>  (66) 
autodockgpu

>  <m_score__min__energy>  (66) 
-8.25

>  <m_primary>  (66) 
energy

>  <meeko>  (66) 
{"free_energy": -8.15, "intermolecular_energy": -11.13, "internal_energy": -1.94, "cluster_size": 1, "cluster_id": 3, "rank_in_cluster": 1}

>  <energy>  (66) 
-7.8

>  <cluster_rmsd>  (66) 
1.76

>  <rmsd>  (66) 
269.15

>  <cluster>  (66) 
1

$$$$
CBUCDBLHFQUVQW-FJZAIJRJNA-N
     RDKit          3D

 51 53  0  0  0  0  0  0  0  0999 V2000
  142.1940   75.8190  221.9920 H   0  0  0  0  0  0  0  0  0  0  0  0
  141.2880   75.3800  222.0920 O   0  0  0  0  0  0  0  0  0  0  0  0
  140.1130   76.0920  222.3580 C   0  0  0  0  0  0  0  0  0  0  0  0
  138.9470   75.5150  222.3090 N   0  0  0  0  0  0  0  0  0  0  0  0
  138.4010   74.8100  221.1510 C   0  0  0  0  0  0  0  0  0  0  0  0
  137.8638   75.5246  220.5101 H   0  0  0  0  0  0  0  0  0  0  0  0
  137.7111   74.0269  221.4986 H   0  0  0  0  0  0  0  0  0  0  0  0
  139.5430   74.1550  220.3410 C   0  0  2  0  0  0  0  0  0  0  0  0
  140.4142   74.8260  220.3145 H   0  0  0  0  0  0  0  0  0  0  0  0
  139.0680   73.9250  218.8940 C   0  0  0  0  0  0  0  0  0  0  0  0
  138.0780   73.4456  218.9049 H   0  0  0  0  0  0  0  0  0  0  0  0
  139.0020   74.8909  218.3718 H   0  0  0  0  0  0  0  0  0  0  0  0
  139.7848   73.2742  218.3718 H   0  0  0  0  0  0  0  0  0  0  0  0
  140.0230   72.8290  221.0280 C   0  0  1  0  0  0  0  0  0  0  0  0
  139.3119   72.0842  220.6412 H   0  0  0  0  0  0  0  0  0  0  0  0
  141.4050   72.3340  220.5990 C   0  0  0  0  0  0  0  0  0  0  0  0
  141.5940   71.1180  219.9120 C   0  0  0  0  0  0  0  0  0  0  0  0
  140.7247   70.4894  219.6687 H   0  0  0  0  0  0  0  0  0  0  0  0
  142.8740   70.7030  219.5370 C   0  0  0  0  0  0  0  0  0  0  0  0
  143.0055   69.7427  219.0168 H   0  0  0  0  0  0  0  0  0  0  0  0
  143.9880   71.4970  219.8170 C   0  0  0  0  0  0  0  0  0  0  0  0
  145.5820   70.9380  219.3270 Cl  0  0  0  0  0  0  0  0  0  0  0  0
  143.8160   72.7300  220.4630 C   0  0  0  0  0  0  0  0  0  0  0  0
  145.1850   73.7770  220.8100 Cl  0  0  0  0  0  0  0  0  0  0  0  0
  142.5340   73.1460  220.8370 C   0  0  0  0  0  0  0  0  0  0  0  0
  142.4038   74.1231  221.3251 H   0  0  0  0  0  0  0  0  0  0  0  0
  139.8940   72.8480  222.5000 N   0  0  0  0  0  0  0  0  0  0  0  0
  139.9910   73.7900  222.9430 H   0  0  0  0  0  0  0  0  0  0  0  0
  139.8570   71.7170  223.4020 C   0  0  0  0  0  0  0  0  0  0  0  0
  139.3130   70.4700  223.0390 C   0  0  0  0  0  0  0  0  0  0  0  0
  138.8912   70.3305  222.0327 H   0  0  0  0  0  0  0  0  0  0  0  0
  139.3050   69.4080  223.9480 C   0  0  0  0  0  0  0  0  0  0  0  0
  138.8850   68.4361  223.6496 H   0  0  0  0  0  0  0  0  0  0  0  0
  139.8280   69.5740  225.2350 C   0  0  0  0  0  0  0  0  0  0  0  0
  139.8090   68.4620  226.1530 C   0  0  0  0  0  0  0  0  0  0  0  0
  139.7950   67.5700  226.8900 N   0  0  0  0  0  0  0  0  0  0  0  0
  140.3560   70.8200  225.6150 C   0  0  0  0  0  0  0  0  0  0  0  0
  141.0180   71.0810  227.2250 Cl  0  0  0  0  0  0  0  0  0  0  0  0
  140.3600   71.8800  224.7030 C   0  0  0  0  0  0  0  0  0  0  0  0
  140.7633   72.8565  225.0093 H   0  0  0  0  0  0  0  0  0  0  0  0
  140.2070   77.5310  222.7030 C   0  0  0  0  0  0  0  0  0  0  0  0
  141.4450   78.1200  223.0300 C   0  0  0  0  0  0  0  0  0  0  0  0
  142.3581   77.5066  223.0312 H   0  0  0  0  0  0  0  0  0  0  0  0
  141.5210   79.4790  223.3530 C   0  0  0  0  0  0  0  0  0  0  0  0
  142.4919   79.9300  223.6057 H   0  0  0  0  0  0  0  0  0  0  0  0
  140.3670   80.2630  223.3550 C   0  0  0  0  0  0  0  0  0  0  0  0
  140.4292   81.3312  223.6100 H   0  0  0  0  0  0  0  0  0  0  0  0
  139.1340   79.6940  223.0340 C   0  0  0  0  0  0  0  0  0  0  0  0
  138.2255   80.3141  223.0364 H   0  0  0  0  0  0  0  0  0  0  0  0
  139.0520   78.3350  222.7090 C   0  0  0  0  0  0  0  0  0  0  0  0
  138.0773   77.8921  222.4564 H   0  0  0  0  0  0  0  0  0  0  0  0
  1  2  1  0
  2  3  1  0
  3  4  2  0
  4  5  1  0
  5  6  1  0
  5  7  1  0
  5  8  1  0
  8  9  1  6
  8 10  1  0
 10 11  1  0
 10 12  1  0
 10 13  1  0
  8 14  1  0
 14 15  1  6
 14 16  1  0
 16 17  2  0
 17 18  1  0
 17 19  1  0
 19 20  1  0
 19 21  2  0
 21 22  1  0
 21 23  1  0
 23 24  1  0
 23 25  2  0
 25 26  1  0
 14 27  1  0
 27 28  1  0
 27 29  1  0
 29 30  2  0
 30 31  1  0
 30 32  1  0
 32 33  1  0
 32 34  2  0
 34 35  1  0
 35 36  3  0
 34 37  1  0
 37 38  1  0
 37 39  2  0
 39 40  1  0
  3 41  1  0
 41 42  2  0
 42 43  1  0
 42 44  1  0
 44 45  1  0
 44 46  2  0
 46 47  1  0
 46 48  1  0
 48 49  1  0
 48 50  2  0
 50 51  1  0
 25 16  1  0
 39 29  1  0
 50 41  1  0
M  END
>  <UniqueID>  (67) 
31

>  <SMILES>  (67) 
C[C@@H](C/N=C(\O)c1ccccc1)[C@H](Nc1ccc(C#N)c(Cl)c1)c1ccc(Cl)c(Cl)c1

>  <Energy>  (67) 
62.51295180246913

>  <Genealogy>  (67) 
CC(CN=C(O)c1ccccc1)C(Nc1ccc(C#N)c(Cl)c1)c1ccc(Cl)c(Cl)c1 (tautomer)
C[C@@H](CN=C(O)c1ccccc1)[C@H](Nc1ccc(C#N)c(Cl)c1)c1ccc(Cl)c(Cl)c1 (chirality)
C[C@@H](C/N=C(\O)c1ccccc1)[C@H](Nc1ccc(C#N)c(Cl)c1)c1ccc(Cl)c(Cl)c1 (cis-trans isomerization)
C[C@@H](C/N=C(\O)c1ccccc1)[C@H](Nc1ccc(C#N)c(Cl)c1)c1ccc(Cl)c(Cl)c1 (3D coordinates assigned)
C[C@@H](C/N=C(\O)c1ccccc1)[C@H](Nc1ccc(C#N)c(Cl)c1)c1ccc(Cl)c(Cl)c1 (optimized conformer: 62.51295180246913 kcal/mol)

>  <smiles>  (67) 
CC(CNC(=O)c1ccccc1)C(Nc1ccc(C#N)c(Cl)c1)c1ccc(Cl)c(Cl)c1

>  <score_type>  (67) 
oracle

>  <origin>  (67) 
autodockgpu

>  <m_score__min__energy>  (67) 
-8.25

>  <m_primary>  (67) 
energy

>  <meeko>  (67) 
{"free_energy": -7.99, "intermolecular_energy": -10.97, "internal_energy": -2.61, "cluster_size": 5, "cluster_id": 2, "rank_in_cluster": 2}

>  <energy>  (67) 
-8.18

>  <cluster_rmsd>  (67) 
0.0

>  <rmsd>  (67) 
269.9

>  <cluster>  (67) 
2

$$$$
CBUCDBLHFQUVQW-FJZAIJRJNA-N
     RDKit          3D

 51 53  0  0  0  0  0  0  0  0999 V2000
  137.2780   74.6070  223.1360 H   0  0  0  0  0  0  0  0  0  0  0  0
  137.7410   75.0070  222.3300 O   0  0  0  0  0  0  0  0  0  0  0  0
  139.1180   75.2510  222.2770 C   0  0  0  0  0  0  0  0  0  0  0  0
  139.9680   74.2860  222.0790 N   0  0  0  0  0  0  0  0  0  0  0  0
  139.7280   73.1030  221.2550 C   0  0  0  0  0  0  0  0  0  0  0  0
  140.3126   73.1816  220.3265 H   0  0  0  0  0  0  0  0  0  0  0  0
  138.6557   73.0408  221.0179 H   0  0  0  0  0  0  0  0  0  0  0  0
  140.1520   71.8280  222.0200 C   0  0  2  0  0  0  0  0  0  0  0  0
  140.9611   72.0678  222.7256 H   0  0  0  0  0  0  0  0  0  0  0  0
  140.6820   70.7890  221.0150 C   0  0  0  0  0  0  0  0  0  0  0  0
  141.1158   69.9385  221.5613 H   0  0  0  0  0  0  0  0  0  0  0  0
  139.8544   70.4350  220.3828 H   0  0  0  0  0  0  0  0  0  0  0  0
  141.4545   71.2512  220.3828 H   0  0  0  0  0  0  0  0  0  0  0  0
  138.9620   71.2730  222.8780 C   0  0  1  0  0  0  0  0  0  0  0  0
  138.5735   70.4553  222.2532 H   0  0  0  0  0  0  0  0  0  0  0  0
  139.3600   70.6200  224.2020 C   0  0  0  0  0  0  0  0  0  0  0  0
  139.2050   69.2400  224.4430 C   0  0  0  0  0  0  0  0  0  0  0  0
  138.7818   68.5951  223.6588 H   0  0  0  0  0  0  0  0  0  0  0  0
  139.5830   68.6820  225.6670 C   0  0  0  0  0  0  0  0  0  0  0  0
  139.4400   67.6058  225.8441 H   0  0  0  0  0  0  0  0  0  0  0  0
  140.1410   69.4810  226.6670 C   0  0  0  0  0  0  0  0  0  0  0  0
  140.6030   68.7390  228.1940 Cl  0  0  0  0  0  0  0  0  0  0  0  0
  140.3410   70.8490  226.4320 C   0  0  0  0  0  0  0  0  0  0  0  0
  141.0680   71.8870  227.6510 Cl  0  0  0  0  0  0  0  0  0  0  0  0
  139.9640   71.4060  225.2050 C   0  0  0  0  0  0  0  0  0  0  0  0
  140.1419   72.4756  225.0196 H   0  0  0  0  0  0  0  0  0  0  0  0
  137.8680   72.2480  223.0690 N   0  0  0  0  0  0  0  0  0  0  0  0
  138.0790   73.2220  222.7510 H   0  0  0  0  0  0  0  0  0  0  0  0
  136.6400   72.0710  223.8150 C   0  0  0  0  0  0  0  0  0  0  0  0
  135.8290   73.1500  224.2150 C   0  0  0  0  0  0  0  0  0  0  0  0
  136.1257   74.1787  223.9627 H   0  0  0  0  0  0  0  0  0  0  0  0
  134.6500   72.9240  224.9300 C   0  0  0  0  0  0  0  0  0  0  0  0
  134.0204   73.7749  225.2294 H   0  0  0  0  0  0  0  0  0  0  0  0
  134.2660   71.6230  225.2670 C   0  0  0  0  0  0  0  0  0  0  0  0
  133.0430   71.4170  226.0040 C   0  0  0  0  0  0  0  0  0  0  0  0
  132.0620   71.2510  226.5960 N   0  0  0  0  0  0  0  0  0  0  0  0
  135.0760   70.5380  224.8910 C   0  0  0  0  0  0  0  0  0  0  0  0
  134.6400   68.8830  225.2980 Cl  0  0  0  0  0  0  0  0  0  0  0  0
  136.2560   70.7700  224.1770 C   0  0  0  0  0  0  0  0  0  0  0  0
  136.8936   69.9193  223.8945 H   0  0  0  0  0  0  0  0  0  0  0  0
  139.6100   76.6400  222.4500 C   0  0  0  0  0  0  0  0  0  0  0  0
  138.7140   77.7020  222.6860 C   0  0  0  0  0  0  0  0  0  0  0  0
  137.6337   77.5030  222.7440 H   0  0  0  0  0  0  0  0  0  0  0  0
  139.1900   79.0080  222.8470 C   0  0  0  0  0  0  0  0  0  0  0  0
  138.4837   79.8311  223.0306 H   0  0  0  0  0  0  0  0  0  0  0  0
  140.5590   79.2680  222.7750 C   0  0  0  0  0  0  0  0  0  0  0  0
  140.9307   80.2956  222.9011 H   0  0  0  0  0  0  0  0  0  0  0  0
  141.4570   78.2250  222.5430 C   0  0  0  0  0  0  0  0  0  0  0  0
  142.5360   78.4319  222.4882 H   0  0  0  0  0  0  0  0  0  0  0  0
  140.9880   76.9170  222.3800 C   0  0  0  0  0  0  0  0  0  0  0  0
  141.7010   76.0998  222.1960 H   0  0  0  0  0  0  0  0  0  0  0  0
  1  2  1  0
  2  3  1  0
  3  4  2  0
  4  5  1  0
  5  6  1  0
  5  7  1  0
  5  8  1  0
  8  9  1  1
  8 10  1  0
 10 11  1  0
 10 12  1  0
 10 13  1  0
  8 14  1  0
 14 15  1  6
 14 16  1  0
 16 17  2  0
 17 18  1  0
 17 19  1  0
 19 20  1  0
 19 21  2  0
 21 22  1  0
 21 23  1  0
 23 24  1  0
 23 25  2  0
 25 26  1  0
 14 27  1  0
 27 28  1  0
 27 29  1  0
 29 30  2  0
 30 31  1  0
 30 32  1  0
 32 33  1  0
 32 34  2  0
 34 35  1  0
 35 36  3  0
 34 37  1  0
 37 38  1  0
 37 39  2  0
 39 40  1  0
  3 41  1  0
 41 42  2  0
 42 43  1  0
 42 44  1  0
 44 45  1  0
 44 46  2  0
 46 47  1  0
 46 48  1  0
 48 49  1  0
 48 50  2  0
 50 51  1  0
 25 16  1  0
 39 29  1  0
 50 41  1  0
M  END
>  <UniqueID>  (68) 
31

>  <SMILES>  (68) 
C[C@@H](C/N=C(\O)c1ccccc1)[C@H](Nc1ccc(C#N)c(Cl)c1)c1ccc(Cl)c(Cl)c1

>  <Energy>  (68) 
62.51295180246913

>  <Genealogy>  (68) 
CC(CN=C(O)c1ccccc1)C(Nc1ccc(C#N)c(Cl)c1)c1ccc(Cl)c(Cl)c1 (tautomer)
C[C@@H](CN=C(O)c1ccccc1)[C@H](Nc1ccc(C#N)c(Cl)c1)c1ccc(Cl)c(Cl)c1 (chirality)
C[C@@H](C/N=C(\O)c1ccccc1)[C@H](Nc1ccc(C#N)c(Cl)c1)c1ccc(Cl)c(Cl)c1 (cis-trans isomerization)
C[C@@H](C/N=C(\O)c1ccccc1)[C@H](Nc1ccc(C#N)c(Cl)c1)c1ccc(Cl)c(Cl)c1 (3D coordinates assigned)
C[C@@H](C/N=C(\O)c1ccccc1)[C@H](Nc1ccc(C#N)c(Cl)c1)c1ccc(Cl)c(Cl)c1 (optimized conformer: 62.51295180246913 kcal/mol)

>  <smiles>  (68) 
CC(CNC(=O)c1ccccc1)C(Nc1ccc(C#N)c(Cl)c1)c1ccc(Cl)c(Cl)c1

>  <score_type>  (68) 
oracle

>  <origin>  (68) 
autodockgpu

>  <m_score__min__energy>  (68) 
-8.25

>  <m_primary>  (68) 
energy

>  <meeko>  (68) 
{"free_energy": -8.24, "intermolecular_energy": -11.22, "internal_energy": -2.61, "cluster_size": 6, "cluster_id": 1, "rank_in_cluster": 2}

>  <energy>  (68) 
-7.99

>  <cluster_rmsd>  (68) 
1.42

>  <rmsd>  (68) 
269.67

>  <cluster>  (68) 
2

$$$$
CBUCDBLHFQUVQW-FJZAIJRJNA-N
     RDKit          3D

 51 53  0  0  0  0  0  0  0  0999 V2000
  137.1290   74.5730  223.0960 H   0  0  0  0  0  0  0  0  0  0  0  0
  137.6300   74.9720  222.3120 O   0  0  0  0  0  0  0  0  0  0  0  0
  139.0100   75.2050  222.3210 C   0  0  0  0  0  0  0  0  0  0  0  0
  139.8600   74.2280  222.1900 N   0  0  0  0  0  0  0  0  0  0  0  0
  139.6990   73.0790  221.3030 C   0  0  0  0  0  0  0  0  0  0  0  0
  140.3066   73.2297  220.3985 H   0  0  0  0  0  0  0  0  0  0  0  0
  138.6381   72.9814  221.0293 H   0  0  0  0  0  0  0  0  0  0  0  0
  140.1580   71.7870  222.0180 C   0  0  2  0  0  0  0  0  0  0  0  0
  140.9761   72.0175  222.7163 H   0  0  0  0  0  0  0  0  0  0  0  0
  140.6860   70.7900  220.9690 C   0  0  0  0  0  0  0  0  0  0  0  0
  141.1422   69.9286  221.4788 H   0  0  0  0  0  0  0  0  0  0  0  0
  139.8527   70.4444  220.3396 H   0  0  0  0  0  0  0  0  0  0  0  0
  141.4401   71.2851  220.3396 H   0  0  0  0  0  0  0  0  0  0  0  0
  138.9940   71.1840  222.8790 C   0  0  1  0  0  0  0  0  0  0  0  0
  138.6338   70.3550  222.2521 H   0  0  0  0  0  0  0  0  0  0  0  0
  139.4230   70.5420  224.1990 C   0  0  0  0  0  0  0  0  0  0  0  0
  139.3390   69.1540  224.4290 C   0  0  0  0  0  0  0  0  0  0  0  0
  138.9513   68.4941  223.6389 H   0  0  0  0  0  0  0  0  0  0  0  0
  139.7430   68.6070  225.6500 C   0  0  0  0  0  0  0  0  0  0  0  0
  139.6538   67.5237  225.8189 H   0  0  0  0  0  0  0  0  0  0  0  0
  140.2590   69.4250  226.6570 C   0  0  0  0  0  0  0  0  0  0  0  0
  140.7560   68.6970  228.1790 Cl  0  0  0  0  0  0  0  0  0  0  0  0
  140.3890   70.8040  226.4320 C   0  0  0  0  0  0  0  0  0  0  0  0
  141.0600   71.8680  227.6610 Cl  0  0  0  0  0  0  0  0  0  0  0  0
  139.9850   71.3500  225.2090 C   0  0  0  0  0  0  0  0  0  0  0  0
  140.1079   72.4287  225.0320 H   0  0  0  0  0  0  0  0  0  0  0  0
  137.8650   72.1160  223.0800 N   0  0  0  0  0  0  0  0  0  0  0  0
  138.0390   73.0990  222.7660 H   0  0  0  0  0  0  0  0  0  0  0  0
  136.6470   71.8880  223.8280 C   0  0  0  0  0  0  0  0  0  0  0  0
  136.2000   70.6010  224.1820 C   0  0  0  0  0  0  0  0  0  0  0  0
  136.7851   69.7186  223.8836 H   0  0  0  0  0  0  0  0  0  0  0  0
  135.0180   70.4360  224.9100 C   0  0  0  0  0  0  0  0  0  0  0  0
  134.6830   69.4257  225.1878 H   0  0  0  0  0  0  0  0  0  0  0  0
  134.2590   71.5490  225.2870 C   0  0  0  0  0  0  0  0  0  0  0  0
  133.0440   71.3510  226.0390 C   0  0  0  0  0  0  0  0  0  0  0  0
  132.0700   71.1920  226.6430 N   0  0  0  0  0  0  0  0  0  0  0  0
  134.6840   72.8370  224.9230 C   0  0  0  0  0  0  0  0  0  0  0  0
  133.7600   74.2680  225.3660 Cl  0  0  0  0  0  0  0  0  0  0  0  0
  135.8670   72.9970  224.1920 C   0  0  0  0  0  0  0  0  0  0  0  0
  136.1902   74.0066  223.8984 H   0  0  0  0  0  0  0  0  0  0  0  0
  139.5040   76.5940  222.4810 C   0  0  0  0  0  0  0  0  0  0  0  0
  140.8820   76.8850  222.4140 C   0  0  0  0  0  0  0  0  0  0  0  0
  141.6040   76.0735  222.2403 H   0  0  0  0  0  0  0  0  0  0  0  0
  141.3370   78.1990  222.5670 C   0  0  0  0  0  0  0  0  0  0  0  0
  142.4137   78.4174  222.5114 H   0  0  0  0  0  0  0  0  0  0  0  0
  140.4270   79.2330  222.7900 C   0  0  0  0  0  0  0  0  0  0  0  0
  140.7872   80.2653  222.9108 H   0  0  0  0  0  0  0  0  0  0  0  0
  139.0600   78.9590  222.8600 C   0  0  0  0  0  0  0  0  0  0  0  0
  138.3444   79.7757  223.0357 H   0  0  0  0  0  0  0  0  0  0  0  0
  138.5990   77.6470  222.7070 C   0  0  0  0  0  0  0  0  0  0  0  0
  137.5207   77.4372  222.7639 H   0  0  0  0  0  0  0  0  0  0  0  0
  1  2  1  0
  2  3  1  0
  3  4  2  0
  4  5  1  0
  5  6  1  0
  5  7  1  0
  5  8  1  0
  8  9  1  1
  8 10  1  0
 10 11  1  0
 10 12  1  0
 10 13  1  0
  8 14  1  0
 14 15  1  6
 14 16  1  0
 16 17  2  0
 17 18  1  0
 17 19  1  0
 19 20  1  0
 19 21  2  0
 21 22  1  0
 21 23  1  0
 23 24  1  0
 23 25  2  0
 25 26  1  0
 14 27  1  0
 27 28  1  0
 27 29  1  0
 29 30  2  0
 30 31  1  0
 30 32  1  0
 32 33  1  0
 32 34  2  0
 34 35  1  0
 35 36  3  0
 34 37  1  0
 37 38  1  0
 37 39  2  0
 39 40  1  0
  3 41  1  0
 41 42  2  0
 42 43  1  0
 42 44  1  0
 44 45  1  0
 44 46  2  0
 46 47  1  0
 46 48  1  0
 48 49  1  0
 48 50  2  0
 50 51  1  0
 25 16  1  0
 39 29  1  0
 50 41  1  0
M  END
>  <UniqueID>  (69) 
31

>  <SMILES>  (69) 
C[C@@H](C/N=C(\O)c1ccccc1)[C@H](Nc1ccc(C#N)c(Cl)c1)c1ccc(Cl)c(Cl)c1

>  <Energy>  (69) 
62.51295180246913

>  <Genealogy>  (69) 
CC(CN=C(O)c1ccccc1)C(Nc1ccc(C#N)c(Cl)c1)c1ccc(Cl)c(Cl)c1 (tautomer)
C[C@@H](CN=C(O)c1ccccc1)[C@H](Nc1ccc(C#N)c(Cl)c1)c1ccc(Cl)c(Cl)c1 (chirality)
C[C@@H](C/N=C(\O)c1ccccc1)[C@H](Nc1ccc(C#N)c(Cl)c1)c1ccc(Cl)c(Cl)c1 (cis-trans isomerization)
C[C@@H](C/N=C(\O)c1ccccc1)[C@H](Nc1ccc(C#N)c(Cl)c1)c1ccc(Cl)c(Cl)c1 (3D coordinates assigned)
C[C@@H](C/N=C(\O)c1ccccc1)[C@H](Nc1ccc(C#N)c(Cl)c1)c1ccc(Cl)c(Cl)c1 (optimized conformer: 62.51295180246913 kcal/mol)

>  <smiles>  (69) 
CC(CNC(=O)c1ccccc1)C(Nc1ccc(C#N)c(Cl)c1)c1ccc(Cl)c(Cl)c1

>  <score_type>  (69) 
oracle

>  <origin>  (69) 
autodockgpu

>  <m_score__min__energy>  (69) 
-8.25

>  <m_primary>  (69) 
energy

>  <meeko>  (69) 
{"free_energy": -8.21, "intermolecular_energy": -11.2, "internal_energy": -2.61, "cluster_size": 6, "cluster_id": 1, "rank_in_cluster": 3}

>  <energy>  (69) 
-7.92

>  <cluster_rmsd>  (69) 
1.36

>  <rmsd>  (69) 
269.75

>  <cluster>  (69) 
2

$$$$
CBUCDBLHFQUVQW-FJZAIJRJNA-N
     RDKit          3D

 51 53  0  0  0  0  0  0  0  0999 V2000
  143.5360   77.4940  220.4020 H   0  0  0  0  0  0  0  0  0  0  0  0
  142.5740   77.3100  220.1460 O   0  0  0  0  0  0  0  0  0  0  0  0
  141.4810   77.8750  220.8130 C   0  0  0  0  0  0  0  0  0  0  0  0
  140.2600   77.5170  220.5330 N   0  0  0  0  0  0  0  0  0  0  0  0
  139.2720   77.0550  221.5050 C   0  0  0  0  0  0  0  0  0  0  0  0
  138.3499   77.6446  221.3946 H   0  0  0  0  0  0  0  0  0  0  0  0
  139.6786   77.1818  222.5192 H   0  0  0  0  0  0  0  0  0  0  0  0
  138.9540   75.5600  221.2710 C   0  0  2  0  0  0  0  0  0  0  0  0
  138.7029   75.3933  220.2131 H   0  0  0  0  0  0  0  0  0  0  0  0
  137.7340   75.1630  222.1230 C   0  0  0  0  0  0  0  0  0  0  0  0
  137.9891   75.2460  223.1898 H   0  0  0  0  0  0  0  0  0  0  0  0
  136.8928   75.8338  221.8939 H   0  0  0  0  0  0  0  0  0  0  0  0
  137.4487   74.1257  221.8939 H   0  0  0  0  0  0  0  0  0  0  0  0
  140.2090   74.6700  221.5770 C   0  0  1  0  0  0  0  0  0  0  0  0
  140.5743   75.0846  222.5281 H   0  0  0  0  0  0  0  0  0  0  0  0
  139.9120   73.1980  221.8620 C   0  0  0  0  0  0  0  0  0  0  0  0
  139.2920   72.3540  220.9180 C   0  0  0  0  0  0  0  0  0  0  0  0
  139.0052   72.7554  219.9348 H   0  0  0  0  0  0  0  0  0  0  0  0
  139.0380   71.0130  221.2180 C   0  0  0  0  0  0  0  0  0  0  0  0
  138.5373   70.3732  220.4765 H   0  0  0  0  0  0  0  0  0  0  0  0
  139.4150   70.4790  222.4520 C   0  0  0  0  0  0  0  0  0  0  0  0
  139.0790   68.7860  222.7900 Cl  0  0  0  0  0  0  0  0  0  0  0  0
  140.0710   71.2920  223.3880 C   0  0  0  0  0  0  0  0  0  0  0  0
  140.5900   70.6560  224.9430 Cl  0  0  0  0  0  0  0  0  0  0  0  0
  140.3250   72.6340  223.0870 C   0  0  0  0  0  0  0  0  0  0  0  0
  140.8562   73.2606  223.8185 H   0  0  0  0  0  0  0  0  0  0  0  0
  141.2910   74.8150  220.5810 N   0  0  0  0  0  0  0  0  0  0  0  0
  141.2000   75.6370  219.9410 H   0  0  0  0  0  0  0  0  0  0  0  0
  142.3310   73.8630  220.2550 C   0  0  0  0  0  0  0  0  0  0  0  0
  142.1170   72.7630  219.4010 C   0  0  0  0  0  0  0  0  0  0  0  0
  141.1239   72.6019  218.9562 H   0  0  0  0  0  0  0  0  0  0  0  0
  143.1580   71.8750  219.1150 C   0  0  0  0  0  0  0  0  0  0  0  0
  142.9809   71.0244  218.4404 H   0  0  0  0  0  0  0  0  0  0  0  0
  144.4230   72.0610  219.6810 C   0  0  0  0  0  0  0  0  0  0  0  0
  145.4800   71.1310  219.3670 C   0  0  0  0  0  0  0  0  0  0  0  0
  146.3280   70.3860  219.1140 N   0  0  0  0  0  0  0  0  0  0  0  0
  144.6440   73.1430  220.5490 C   0  0  0  0  0  0  0  0  0  0  0  0
  146.2160   73.4160  221.2930 Cl  0  0  0  0  0  0  0  0  0  0  0  0
  143.5990   74.0290  220.8340 C   0  0  0  0  0  0  0  0  0  0  0  0
  143.7739   74.8688  221.5226 H   0  0  0  0  0  0  0  0  0  0  0  0
  141.7250   78.9010  221.8560 C   0  0  0  0  0  0  0  0  0  0  0  0
  141.9760   80.2430  221.5080 C   0  0  0  0  0  0  0  0  0  0  0  0
  141.9921   80.5389  220.4487 H   0  0  0  0  0  0  0  0  0  0  0  0
  142.2050   81.2020  222.5010 C   0  0  0  0  0  0  0  0  0  0  0  0
  142.3994   82.2477  222.2205 H   0  0  0  0  0  0  0  0  0  0  0  0
  142.1870   80.8330  223.8470 C   0  0  0  0  0  0  0  0  0  0  0  0
  142.3684   81.5879  224.6263 H   0  0  0  0  0  0  0  0  0  0  0  0
  141.9390   79.5070  224.2050 C   0  0  0  0  0  0  0  0  0  0  0  0
  141.9244   79.2186  225.2664 H   0  0  0  0  0  0  0  0  0  0  0  0
  141.7090   78.5440  223.2170 C   0  0  0  0  0  0  0  0  0  0  0  0
  141.5143   77.5006  223.5059 H   0  0  0  0  0  0  0  0  0  0  0  0
  1  2  1  0
  2  3  1  0
  3  4  2  0
  4  5  1  0
  5  6  1  0
  5  7  1  0
  5  8  1  0
  8  9  1  6
  8 10  1  0
 10 11  1  0
 10 12  1  0
 10 13  1  0
  8 14  1  0
 14 15  1  1
 14 16  1  0
 16 17  2  0
 17 18  1  0
 17 19  1  0
 19 20  1  0
 19 21  2  0
 21 22  1  0
 21 23  1  0
 23 24  1  0
 23 25  2  0
 25 26  1  0
 14 27  1  0
 27 28  1  0
 27 29  1  0
 29 30  2  0
 30 31  1  0
 30 32  1  0
 32 33  1  0
 32 34  2  0
 34 35  1  0
 35 36  3  0
 34 37  1  0
 37 38  1  0
 37 39  2  0
 39 40  1  0
  3 41  1  0
 41 42  2  0
 42 43  1  0
 42 44  1  0
 44 45  1  0
 44 46  2  0
 46 47  1  0
 46 48  1  0
 48 49  1  0
 48 50  2  0
 50 51  1  0
 25 16  1  0
 39 29  1  0
 50 41  1  0
M  END
>  <UniqueID>  (70) 
31

>  <SMILES>  (70) 
C[C@@H](C/N=C(\O)c1ccccc1)[C@H](Nc1ccc(C#N)c(Cl)c1)c1ccc(Cl)c(Cl)c1

>  <Energy>  (70) 
62.51295180246913

>  <Genealogy>  (70) 
CC(CN=C(O)c1ccccc1)C(Nc1ccc(C#N)c(Cl)c1)c1ccc(Cl)c(Cl)c1 (tautomer)
C[C@@H](CN=C(O)c1ccccc1)[C@H](Nc1ccc(C#N)c(Cl)c1)c1ccc(Cl)c(Cl)c1 (chirality)
C[C@@H](C/N=C(\O)c1ccccc1)[C@H](Nc1ccc(C#N)c(Cl)c1)c1ccc(Cl)c(Cl)c1 (cis-trans isomerization)
C[C@@H](C/N=C(\O)c1ccccc1)[C@H](Nc1ccc(C#N)c(Cl)c1)c1ccc(Cl)c(Cl)c1 (3D coordinates assigned)
C[C@@H](C/N=C(\O)c1ccccc1)[C@H](Nc1ccc(C#N)c(Cl)c1)c1ccc(Cl)c(Cl)c1 (optimized conformer: 62.51295180246913 kcal/mol)

>  <smiles>  (70) 
CC(CNC(=O)c1ccccc1)C(Nc1ccc(C#N)c(Cl)c1)c1ccc(Cl)c(Cl)c1

>  <score_type>  (70) 
oracle

>  <origin>  (70) 
autodockgpu

>  <m_score__min__energy>  (70) 
-8.25

>  <m_primary>  (70) 
energy

>  <meeko>  (70) 
{"free_energy": -6.85, "intermolecular_energy": -9.83, "internal_energy": -2.92, "cluster_size": 2, "cluster_id": 8, "rank_in_cluster": 2}

>  <energy>  (70) 
-7.32

>  <cluster_rmsd>  (70) 
1.69

>  <rmsd>  (70) 
269.48

>  <cluster>  (70) 
2

$$$$
CBUCDBLHFQUVQW-FJZAIJRJNA-N
     RDKit          3D

 51 53  0  0  0  0  0  0  0  0999 V2000
  140.8580   73.4660  221.4010 H   0  0  0  0  0  0  0  0  0  0  0  0
  140.6720   73.1840  222.3550 O   0  0  0  0  0  0  0  0  0  0  0  0
  139.5620   72.4180  222.7280 C   0  0  0  0  0  0  0  0  0  0  0  0
  138.4280   72.5210  222.0990 N   0  0  0  0  0  0  0  0  0  0  0  0
  138.2320   73.1820  220.8100 C   0  0  0  0  0  0  0  0  0  0  0  0
  138.1031   72.4206  220.0266 H   0  0  0  0  0  0  0  0  0  0  0  0
  139.1116   73.8036  220.5867 H   0  0  0  0  0  0  0  0  0  0  0  0
  136.9760   74.0820  220.8600 C   0  0  2  0  0  0  0  0  0  0  0  0
  136.1124   73.4986  221.2119 H   0  0  0  0  0  0  0  0  0  0  0  0
  136.6660   74.5940  219.4410 C   0  0  0  0  0  0  0  0  0  0  0  0
  136.0973   75.5333  219.5062 H   0  0  0  0  0  0  0  0  0  0  0  0
  137.6079   74.7724  218.9016 H   0  0  0  0  0  0  0  0  0  0  0  0
  136.0714   73.8420  218.9016 H   0  0  0  0  0  0  0  0  0  0  0  0
  137.1700   75.2520  221.8860 C   0  0  1  0  0  0  0  0  0  0  0  0
  136.9344   76.1428  221.2852 H   0  0  0  0  0  0  0  0  0  0  0  0
  136.1780   75.2710  223.0500 C   0  0  0  0  0  0  0  0  0  0  0  0
  135.6440   76.4670  223.5700 C   0  0  0  0  0  0  0  0  0  0  0  0
  135.9430   77.4314  223.1335 H   0  0  0  0  0  0  0  0  0  0  0  0
  134.7390   76.4410  224.6340 C   0  0  0  0  0  0  0  0  0  0  0  0
  134.3448   77.3850  225.0384 H   0  0  0  0  0  0  0  0  0  0  0  0
  134.3310   75.2260  225.1880 C   0  0  0  0  0  0  0  0  0  0  0  0
  133.1900   75.2360  226.5260 Cl  0  0  0  0  0  0  0  0  0  0  0  0
  134.8200   74.0230  224.6570 C   0  0  0  0  0  0  0  0  0  0  0  0
  134.3120   72.4680  225.3030 Cl  0  0  0  0  0  0  0  0  0  0  0  0
  135.7250   74.0500  223.5910 C   0  0  0  0  0  0  0  0  0  0  0  0
  136.0897   73.1026  223.1673 H   0  0  0  0  0  0  0  0  0  0  0  0
  138.5610   75.3920  222.3650 N   0  0  0  0  0  0  0  0  0  0  0  0
  138.9920   74.5160  222.7410 H   0  0  0  0  0  0  0  0  0  0  0  0
  139.3130   76.6120  222.5640 C   0  0  0  0  0  0  0  0  0  0  0  0
  140.7070   76.6860  222.3750 C   0  0  0  0  0  0  0  0  0  0  0  0
  141.2646   75.7892  222.0670 H   0  0  0  0  0  0  0  0  0  0  0  0
  141.3870   77.8910  222.5760 C   0  0  0  0  0  0  0  0  0  0  0  0
  142.4743   77.9388  222.4164 H   0  0  0  0  0  0  0  0  0  0  0  0
  140.6920   79.0360  222.9790 C   0  0  0  0  0  0  0  0  0  0  0  0
  141.4170   80.2670  223.1770 C   0  0  0  0  0  0  0  0  0  0  0  0
  141.9980   81.2550  223.3380 N   0  0  0  0  0  0  0  0  0  0  0  0
  139.3040   78.9700  223.1890 C   0  0  0  0  0  0  0  0  0  0  0  0
  138.3860   80.3810  223.7030 Cl  0  0  0  0  0  0  0  0  0  0  0  0
  138.6290   77.7610  222.9880 C   0  0  0  0  0  0  0  0  0  0  0  0
  137.5446   77.7107  223.1653 H   0  0  0  0  0  0  0  0  0  0  0  0
  139.6890   71.4730  223.8640 C   0  0  0  0  0  0  0  0  0  0  0  0
  140.7090   71.6260  224.8250 C   0  0  0  0  0  0  0  0  0  0  0  0
  141.4233   72.4577  224.7356 H   0  0  0  0  0  0  0  0  0  0  0  0
  140.8190   70.7280  225.8910 C   0  0  0  0  0  0  0  0  0  0  0  0
  141.6176   70.8561  226.6365 H   0  0  0  0  0  0  0  0  0  0  0  0
  139.9170   69.6690  226.0110 C   0  0  0  0  0  0  0  0  0  0  0  0
  140.0064   68.9630  226.8498 H   0  0  0  0  0  0  0  0  0  0  0  0
  138.9020   69.5060  225.0670 C   0  0  0  0  0  0  0  0  0  0  0  0
  138.1911   68.6722  225.1638 H   0  0  0  0  0  0  0  0  0  0  0  0
  138.7870   70.4010  223.9980 C   0  0  0  0  0  0  0  0  0  0  0  0
  137.9856   70.2659  223.2567 H   0  0  0  0  0  0  0  0  0  0  0  0
  1  2  1  0
  2  3  1  0
  3  4  2  0
  4  5  1  0
  5  6  1  0
  5  7  1  0
  5  8  1  0
  8  9  1  1
  8 10  1  0
 10 11  1  0
 10 12  1  0
 10 13  1  0
  8 14  1  0
 14 15  1  6
 14 16  1  0
 16 17  2  0
 17 18  1  0
 17 19  1  0
 19 20  1  0
 19 21  2  0
 21 22  1  0
 21 23  1  0
 23 24  1  0
 23 25  2  0
 25 26  1  0
 14 27  1  0
 27 28  1  0
 27 29  1  0
 29 30  2  0
 30 31  1  0
 30 32  1  0
 32 33  1  0
 32 34  2  0
 34 35  1  0
 35 36  3  0
 34 37  1  0
 37 38  1  0
 37 39  2  0
 39 40  1  0
  3 41  1  0
 41 42  2  0
 42 43  1  0
 42 44  1  0
 44 45  1  0
 44 46  2  0
 46 47  1  0
 46 48  1  0
 48 49  1  0
 48 50  2  0
 50 51  1  0
 25 16  1  0
 39 29  1  0
 50 41  1  0
M  END
>  <UniqueID>  (71) 
31

>  <SMILES>  (71) 
C[C@@H](C/N=C(\O)c1ccccc1)[C@H](Nc1ccc(C#N)c(Cl)c1)c1ccc(Cl)c(Cl)c1

>  <Energy>  (71) 
62.51295180246913

>  <Genealogy>  (71) 
CC(CN=C(O)c1ccccc1)C(Nc1ccc(C#N)c(Cl)c1)c1ccc(Cl)c(Cl)c1 (tautomer)
C[C@@H](CN=C(O)c1ccccc1)[C@H](Nc1ccc(C#N)c(Cl)c1)c1ccc(Cl)c(Cl)c1 (chirality)
C[C@@H](C/N=C(\O)c1ccccc1)[C@H](Nc1ccc(C#N)c(Cl)c1)c1ccc(Cl)c(Cl)c1 (cis-trans isomerization)
C[C@@H](C/N=C(\O)c1ccccc1)[C@H](Nc1ccc(C#N)c(Cl)c1)c1ccc(Cl)c(Cl)c1 (3D coordinates assigned)
C[C@@H](C/N=C(\O)c1ccccc1)[C@H](Nc1ccc(C#N)c(Cl)c1)c1ccc(Cl)c(Cl)c1 (optimized conformer: 62.51295180246913 kcal/mol)

>  <smiles>  (71) 
CC(CNC(=O)c1ccccc1)C(Nc1ccc(C#N)c(Cl)c1)c1ccc(Cl)c(Cl)c1

>  <score_type>  (71) 
oracle

>  <origin>  (71) 
autodockgpu

>  <m_score__min__energy>  (71) 
-8.25

>  <m_primary>  (71) 
energy

>  <meeko>  (71) 
{"free_energy": -7.09, "intermolecular_energy": -10.07, "internal_energy": -2.82, "cluster_size": 2, "cluster_id": 5, "rank_in_cluster": 1}

>  <energy>  (71) 
-6.34

>  <cluster_rmsd>  (71) 
1.67

>  <rmsd>  (71) 
269.22

>  <cluster>  (71) 
2

$$$$
CBUCDBLHFQUVQW-FJZAIJRJNA-N
     RDKit          3D

 51 53  0  0  0  0  0  0  0  0999 V2000
  138.2580   74.7970  222.8320 H   0  0  0  0  0  0  0  0  0  0  0  0
  138.8530   74.7800  222.0140 O   0  0  0  0  0  0  0  0  0  0  0  0
  140.0830   74.1130  221.9720 C   0  0  0  0  0  0  0  0  0  0  0  0
  140.2620   72.9860  222.5990 N   0  0  0  0  0  0  0  0  0  0  0  0
  140.5580   71.7030  221.9640 C   0  0  0  0  0  0  0  0  0  0  0  0
  141.1479   71.0827  222.6549 H   0  0  0  0  0  0  0  0  0  0  0  0
  141.1287   71.8817  221.0408 H   0  0  0  0  0  0  0  0  0  0  0  0
  139.2440   70.9680  221.6120 C   0  0  2  0  0  0  0  0  0  0  0  0
  139.4653   69.9381  221.2953 H   0  0  0  0  0  0  0  0  0  0  0  0
  138.5580   71.6950  220.4410 C   0  0  0  0  0  0  0  0  0  0  0  0
  137.8533   72.4418  220.8354 H   0  0  0  0  0  0  0  0  0  0  0  0
  139.3185   72.1977  219.8255 H   0  0  0  0  0  0  0  0  0  0  0  0
  138.0121   70.9649  219.8255 H   0  0  0  0  0  0  0  0  0  0  0  0
  138.3150   70.8560  222.8700 C   0  0  1  0  0  0  0  0  0  0  0  0
  137.5710   70.1097  222.5545 H   0  0  0  0  0  0  0  0  0  0  0  0
  138.9740   70.2720  224.1200 C   0  0  0  0  0  0  0  0  0  0  0  0
  138.9940   68.8880  224.3890 C   0  0  0  0  0  0  0  0  0  0  0  0
  138.5208   68.1897  223.6830 H   0  0  0  0  0  0  0  0  0  0  0  0
  139.6080   68.3940  225.5420 C   0  0  0  0  0  0  0  0  0  0  0  0
  139.5984   67.3129  225.7451 H   0  0  0  0  0  0  0  0  0  0  0  0
  140.2340   69.2620  226.4390 C   0  0  0  0  0  0  0  0  0  0  0  0
  140.9970   68.6000  227.8790 Cl  0  0  0  0  0  0  0  0  0  0  0  0
  140.2620   70.6380  226.1680 C   0  0  0  0  0  0  0  0  0  0  0  0
  141.0640   71.7660  227.2530 Cl  0  0  0  0  0  0  0  0  0  0  0  0
  139.6470   71.1320  225.0120 C   0  0  0  0  0  0  0  0  0  0  0  0
  139.6894   72.2097  224.7955 H   0  0  0  0  0  0  0  0  0  0  0  0
  137.5910   72.1060  223.1820 N   0  0  0  0  0  0  0  0  0  0  0  0
  138.0880   72.9870  222.9120 H   0  0  0  0  0  0  0  0  0  0  0  0
  136.3970   72.2660  223.9830 C   0  0  0  0  0  0  0  0  0  0  0  0
  135.7900   73.5170  224.2060 C   0  0  0  0  0  0  0  0  0  0  0  0
  136.2288   74.4232  223.7631 H   0  0  0  0  0  0  0  0  0  0  0  0
  134.6340   73.6160  224.9860 C   0  0  0  0  0  0  0  0  0  0  0  0
  134.1648   74.5978  225.1467 H   0  0  0  0  0  0  0  0  0  0  0  0
  134.0710   72.4730  225.5630 C   0  0  0  0  0  0  0  0  0  0  0  0
  132.8760   72.6030  226.3610 C   0  0  0  0  0  0  0  0  0  0  0  0
  131.9190   72.7070  227.0020 N   0  0  0  0  0  0  0  0  0  0  0  0
  134.6780   71.2220  225.3640 C   0  0  0  0  0  0  0  0  0  0  0  0
  134.0120   69.7560  226.0760 Cl  0  0  0  0  0  0  0  0  0  0  0  0
  135.8360   71.1280  224.5850 C   0  0  0  0  0  0  0  0  0  0  0  0
  136.3144   70.1479  224.4418 H   0  0  0  0  0  0  0  0  0  0  0  0
  141.1980   74.7070  221.1960 C   0  0  0  0  0  0  0  0  0  0  0  0
  142.3290   73.9410  220.8490 C   0  0  0  0  0  0  0  0  0  0  0  0
  142.3895   72.8865  221.1561 H   0  0  0  0  0  0  0  0  0  0  0  0
  143.3750   74.5120  220.1170 C   0  0  0  0  0  0  0  0  0  0  0  0
  144.2532   73.9060  219.8498 H   0  0  0  0  0  0  0  0  0  0  0  0
  143.3060   75.8500  219.7250 C   0  0  0  0  0  0  0  0  0  0  0  0
  144.1301   76.2976  219.1502 H   0  0  0  0  0  0  0  0  0  0  0  0
  142.1920   76.6200  220.0620 C   0  0  0  0  0  0  0  0  0  0  0  0
  142.1389   77.6738  219.7511 H   0  0  0  0  0  0  0  0  0  0  0  0
  141.1430   76.0550  220.7940 C   0  0  0  0  0  0  0  0  0  0  0  0
  140.2687   76.6682  221.0576 H   0  0  0  0  0  0  0  0  0  0  0  0
  1  2  1  0
  2  3  1  0
  3  4  2  0
  4  5  1  0
  5  6  1  0
  5  7  1  0
  5  8  1  0
  8  9  1  6
  8 10  1  0
 10 11  1  0
 10 12  1  0
 10 13  1  0
  8 14  1  0
 14 15  1  6
 14 16  1  0
 16 17  2  0
 17 18  1  0
 17 19  1  0
 19 20  1  0
 19 21  2  0
 21 22  1  0
 21 23  1  0
 23 24  1  0
 23 25  2  0
 25 26  1  0
 14 27  1  0
 27 28  1  0
 27 29  1  0
 29 30  2  0
 30 31  1  0
 30 32  1  0
 32 33  1  0
 32 34  2  0
 34 35  1  0
 35 36  3  0
 34 37  1  0
 37 38  1  0
 37 39  2  0
 39 40  1  0
  3 41  1  0
 41 42  2  0
 42 43  1  0
 42 44  1  0
 44 45  1  0
 44 46  2  0
 46 47  1  0
 46 48  1  0
 48 49  1  0
 48 50  2  0
 50 51  1  0
 25 16  1  0
 39 29  1  0
 50 41  1  0
M  END
>  <UniqueID>  (72) 
31

>  <SMILES>  (72) 
C[C@@H](C/N=C(\O)c1ccccc1)[C@H](Nc1ccc(C#N)c(Cl)c1)c1ccc(Cl)c(Cl)c1

>  <Energy>  (72) 
62.51295180246913

>  <Genealogy>  (72) 
CC(CN=C(O)c1ccccc1)C(Nc1ccc(C#N)c(Cl)c1)c1ccc(Cl)c(Cl)c1 (tautomer)
C[C@@H](CN=C(O)c1ccccc1)[C@H](Nc1ccc(C#N)c(Cl)c1)c1ccc(Cl)c(Cl)c1 (chirality)
C[C@@H](C/N=C(\O)c1ccccc1)[C@H](Nc1ccc(C#N)c(Cl)c1)c1ccc(Cl)c(Cl)c1 (cis-trans isomerization)
C[C@@H](C/N=C(\O)c1ccccc1)[C@H](Nc1ccc(C#N)c(Cl)c1)c1ccc(Cl)c(Cl)c1 (3D coordinates assigned)
C[C@@H](C/N=C(\O)c1ccccc1)[C@H](Nc1ccc(C#N)c(Cl)c1)c1ccc(Cl)c(Cl)c1 (optimized conformer: 62.51295180246913 kcal/mol)

>  <smiles>  (72) 
CC(CNC(=O)c1ccccc1)C(Nc1ccc(C#N)c(Cl)c1)c1ccc(Cl)c(Cl)c1

>  <score_type>  (72) 
oracle

>  <origin>  (72) 
autodockgpu

>  <m_score__min__energy>  (72) 
-8.25

>  <m_primary>  (72) 
energy

>  <meeko>  (72) 
{"free_energy": -7.8, "intermolecular_energy": -10.79, "internal_energy": -2.76, "cluster_size": 6, "cluster_id": 1, "rank_in_cluster": 6}

>  <energy>  (72) 
-8.15

>  <cluster_rmsd>  (72) 
0.0

>  <rmsd>  (72) 
269.34

>  <cluster>  (72) 
3

$$$$
CBUCDBLHFQUVQW-FJZAIJRJNA-N
     RDKit          3D

 51 53  0  0  0  0  0  0  0  0999 V2000
  139.3010   73.7050  223.4630 H   0  0  0  0  0  0  0  0  0  0  0  0
  139.5770   74.1850  222.6150 O   0  0  0  0  0  0  0  0  0  0  0  0
  139.8990   73.5210  221.4260 C   0  0  0  0  0  0  0  0  0  0  0  0
  138.9800   72.9540  220.6980 N   0  0  0  0  0  0  0  0  0  0  0  0
  138.8250   71.5150  220.5020 C   0  0  0  0  0  0  0  0  0  0  0  0
  139.3489   71.2147  219.5826 H   0  0  0  0  0  0  0  0  0  0  0  0
  137.7544   71.2767  220.4180 H   0  0  0  0  0  0  0  0  0  0  0  0
  139.4210   70.7470  221.7040 C   0  0  2  0  0  0  0  0  0  0  0  0
  140.2921   71.2903  222.0989 H   0  0  0  0  0  0  0  0  0  0  0  0
  139.8930   69.3590  221.2330 C   0  0  0  0  0  0  0  0  0  0  0  0
  140.1075   68.7282  222.1082 H   0  0  0  0  0  0  0  0  0  0  0  0
  139.1040   68.8895  220.6272 H   0  0  0  0  0  0  0  0  0  0  0  0
  140.8047   69.4678  220.6272 H   0  0  0  0  0  0  0  0  0  0  0  0
  138.3830   70.6570  222.8770 C   0  0  1  0  0  0  0  0  0  0  0  0
  137.7059   69.8579  222.5411 H   0  0  0  0  0  0  0  0  0  0  0  0
  138.9490   70.1770  224.2140 C   0  0  0  0  0  0  0  0  0  0  0  0
  138.8370   68.8400  224.6470 C   0  0  0  0  0  0  0  0  0  0  0  0
  138.3256   68.1027  224.0107 H   0  0  0  0  0  0  0  0  0  0  0  0
  139.3690   68.4420  225.8760 C   0  0  0  0  0  0  0  0  0  0  0  0
  139.2583   67.3987  226.2064 H   0  0  0  0  0  0  0  0  0  0  0  0
  140.0400   69.3580  226.6880 C   0  0  0  0  0  0  0  0  0  0  0  0
  140.6950   68.8160  228.2280 Cl  0  0  0  0  0  0  0  0  0  0  0  0
  140.1970   70.6830  226.2570 C   0  0  0  0  0  0  0  0  0  0  0  0
  141.0600   71.8640  227.2330 Cl  0  0  0  0  0  0  0  0  0  0  0  0
  139.6650   71.0800  225.0250 C   0  0  0  0  0  0  0  0  0  0  0  0
  139.8083   72.1158  224.6835 H   0  0  0  0  0  0  0  0  0  0  0  0
  137.5770   71.8830  223.0460 N   0  0  0  0  0  0  0  0  0  0  0  0
  137.9950   72.7510  222.6370 H   0  0  0  0  0  0  0  0  0  0  0  0
  136.4010   72.0670  223.8700 C   0  0  0  0  0  0  0  0  0  0  0  0
  135.8070   73.3270  224.0790 C   0  0  0  0  0  0  0  0  0  0  0  0
  136.2417   74.2209  223.6078 H   0  0  0  0  0  0  0  0  0  0  0  0
  134.6690   73.4490  224.8810 C   0  0  0  0  0  0  0  0  0  0  0  0
  134.2087   74.4369  225.0301 H   0  0  0  0  0  0  0  0  0  0  0  0
  134.1120   72.3230  225.4950 C   0  0  0  0  0  0  0  0  0  0  0  0
  132.9350   72.4770  226.3160 C   0  0  0  0  0  0  0  0  0  0  0  0
  131.9920   72.5990  226.9740 N   0  0  0  0  0  0  0  0  0  0  0  0
  134.7070   71.0640  225.3100 C   0  0  0  0  0  0  0  0  0  0  0  0
  134.0480   69.6180  226.0670 Cl  0  0  0  0  0  0  0  0  0  0  0  0
  135.8470   70.9470  224.5080 C   0  0  0  0  0  0  0  0  0  0  0  0
  136.3166   69.9612  224.3754 H   0  0  0  0  0  0  0  0  0  0  0  0
  141.3160   73.4650  220.9940 C   0  0  0  0  0  0  0  0  0  0  0  0
  142.0970   72.3120  221.2130 C   0  0  0  0  0  0  0  0  0  0  0  0
  141.6524   71.4381  221.7116 H   0  0  0  0  0  0  0  0  0  0  0  0
  143.4330   72.2710  220.8010 C   0  0  0  0  0  0  0  0  0  0  0  0
  144.0342   71.3665  220.9755 H   0  0  0  0  0  0  0  0  0  0  0  0
  144.0040   73.3760  220.1690 C   0  0  0  0  0  0  0  0  0  0  0  0
  145.0552   73.3420  219.8467 H   0  0  0  0  0  0  0  0  0  0  0  0
  143.2430   74.5250  219.9450 C   0  0  0  0  0  0  0  0  0  0  0  0
  143.6952   75.3945  219.4455 H   0  0  0  0  0  0  0  0  0  0  0  0
  141.9060   74.5720  220.3550 C   0  0  0  0  0  0  0  0  0  0  0  0
  141.3117   75.4803  220.1768 H   0  0  0  0  0  0  0  0  0  0  0  0
  1  2  1  0
  2  3  1  0
  3  4  2  0
  4  5  1  0
  5  6  1  0
  5  7  1  0
  5  8  1  0
  8  9  1  1
  8 10  1  0
 10 11  1  0
 10 12  1  0
 10 13  1  0
  8 14  1  0
 14 15  1  6
 14 16  1  0
 16 17  2  0
 17 18  1  0
 17 19  1  0
 19 20  1  0
 19 21  2  0
 21 22  1  0
 21 23  1  0
 23 24  1  0
 23 25  2  0
 25 26  1  0
 14 27  1  0
 27 28  1  0
 27 29  1  0
 29 30  2  0
 30 31  1  0
 30 32  1  0
 32 33  1  0
 32 34  2  0
 34 35  1  0
 35 36  3  0
 34 37  1  0
 37 38  1  0
 37 39  2  0
 39 40  1  0
  3 41  1  0
 41 42  2  0
 42 43  1  0
 42 44  1  0
 44 45  1  0
 44 46  2  0
 46 47  1  0
 46 48  1  0
 48 49  1  0
 48 50  2  0
 50 51  1  0
 25 16  1  0
 39 29  1  0
 50 41  1  0
M  END
>  <UniqueID>  (73) 
31

>  <SMILES>  (73) 
C[C@@H](C/N=C(\O)c1ccccc1)[C@H](Nc1ccc(C#N)c(Cl)c1)c1ccc(Cl)c(Cl)c1

>  <Energy>  (73) 
62.51295180246913

>  <Genealogy>  (73) 
CC(CN=C(O)c1ccccc1)C(Nc1ccc(C#N)c(Cl)c1)c1ccc(Cl)c(Cl)c1 (tautomer)
C[C@@H](CN=C(O)c1ccccc1)[C@H](Nc1ccc(C#N)c(Cl)c1)c1ccc(Cl)c(Cl)c1 (chirality)
C[C@@H](C/N=C(\O)c1ccccc1)[C@H](Nc1ccc(C#N)c(Cl)c1)c1ccc(Cl)c(Cl)c1 (cis-trans isomerization)
C[C@@H](C/N=C(\O)c1ccccc1)[C@H](Nc1ccc(C#N)c(Cl)c1)c1ccc(Cl)c(Cl)c1 (3D coordinates assigned)
C[C@@H](C/N=C(\O)c1ccccc1)[C@H](Nc1ccc(C#N)c(Cl)c1)c1ccc(Cl)c(Cl)c1 (optimized conformer: 62.51295180246913 kcal/mol)

>  <smiles>  (73) 
CC(CNC(=O)c1ccccc1)C(Nc1ccc(C#N)c(Cl)c1)c1ccc(Cl)c(Cl)c1

>  <score_type>  (73) 
oracle

>  <origin>  (73) 
autodockgpu

>  <m_score__min__energy>  (73) 
-8.25

>  <m_primary>  (73) 
energy

>  <meeko>  (73) 
{"free_energy": -7.36, "intermolecular_energy": -10.34, "internal_energy": -3.03, "cluster_size": 2, "cluster_id": 4, "rank_in_cluster": 1}

>  <energy>  (73) 
-7.36

>  <cluster_rmsd>  (73) 
0.0

>  <rmsd>  (73) 
269.01

>  <cluster>  (73) 
4

$$$$
CBUCDBLHFQUVQW-FJZAIJRJNA-N
     RDKit          3D

 51 53  0  0  0  0  0  0  0  0999 V2000
  143.5400   77.5000  220.3540 H   0  0  0  0  0  0  0  0  0  0  0  0
  142.5750   77.3760  220.0760 O   0  0  0  0  0  0  0  0  0  0  0  0
  141.4970   77.9300  220.7750 C   0  0  0  0  0  0  0  0  0  0  0  0
  140.2730   77.5590  220.5340 N   0  0  0  0  0  0  0  0  0  0  0  0
  139.3130   77.1070  221.5390 C   0  0  0  0  0  0  0  0  0  0  0  0
  138.3970   77.7116  221.4648 H   0  0  0  0  0  0  0  0  0  0  0  0
  139.7577   77.2218  222.5385 H   0  0  0  0  0  0  0  0  0  0  0  0
  138.9630   75.6180  221.3090 C   0  0  2  0  0  0  0  0  0  0  0  0
  138.7094   75.4530  220.2514 H   0  0  0  0  0  0  0  0  0  0  0  0
  137.7340   75.2510  222.1610 C   0  0  0  0  0  0  0  0  0  0  0  0
  137.9912   75.3278  223.2277 H   0  0  0  0  0  0  0  0  0  0  0  0
  136.9094   75.9421  221.9319 H   0  0  0  0  0  0  0  0  0  0  0  0
  137.4234   74.2209  221.9319 H   0  0  0  0  0  0  0  0  0  0  0  0
  140.1980   74.7020  221.6180 C   0  0  1  0  0  0  0  0  0  0  0  0
  140.5617   75.0999  222.5769 H   0  0  0  0  0  0  0  0  0  0  0  0
  139.8700   73.2320  221.8840 C   0  0  0  0  0  0  0  0  0  0  0  0
  139.2140   72.4190  220.9370 C   0  0  0  0  0  0  0  0  0  0  0  0
  138.9197   72.8437  219.9659 H   0  0  0  0  0  0  0  0  0  0  0  0
  138.9340   71.0800  221.2190 C   0  0  0  0  0  0  0  0  0  0  0  0
  138.4061   70.4645  220.4757 H   0  0  0  0  0  0  0  0  0  0  0  0
  139.3190   70.5170  222.4370 C   0  0  0  0  0  0  0  0  0  0  0  0
  138.9470   68.8270  222.7530 Cl  0  0  0  0  0  0  0  0  0  0  0  0
  140.0090   71.2980  223.3760 C   0  0  0  0  0  0  0  0  0  0  0  0
  140.5390   70.6230  224.9110 Cl  0  0  0  0  0  0  0  0  0  0  0  0
  140.2900   72.6390  223.0920 C   0  0  0  0  0  0  0  0  0  0  0  0
  140.8483   73.2410  223.8241 H   0  0  0  0  0  0  0  0  0  0  0  0
  141.2930   74.8370  220.6340 N   0  0  0  0  0  0  0  0  0  0  0  0
  141.2330   75.6780  220.0150 H   0  0  0  0  0  0  0  0  0  0  0  0
  142.3050   73.8610  220.2930 C   0  0  0  0  0  0  0  0  0  0  0  0
  142.0380   72.7340  219.4920 C   0  0  0  0  0  0  0  0  0  0  0  0
  141.0223   72.5693  219.1032 H   0  0  0  0  0  0  0  0  0  0  0  0
  143.0530   71.8230  219.1870 C   0  0  0  0  0  0  0  0  0  0  0  0
  142.8335   70.9513  218.5530 H   0  0  0  0  0  0  0  0  0  0  0  0
  144.3470   72.0140  219.6840 C   0  0  0  0  0  0  0  0  0  0  0  0
  145.3770   71.0600  219.3530 C   0  0  0  0  0  0  0  0  0  0  0  0
  146.2020   70.2950  219.0870 N   0  0  0  0  0  0  0  0  0  0  0  0
  144.6220   73.1240  220.5000 C   0  0  0  0  0  0  0  0  0  0  0  0
  146.2310   73.4050  221.1550 Cl  0  0  0  0  0  0  0  0  0  0  0  0
  143.6010   74.0320  220.8030 C   0  0  0  0  0  0  0  0  0  0  0  0
  143.8180   74.8937  221.4514 H   0  0  0  0  0  0  0  0  0  0  0  0
  141.7620   78.9600  221.8080 C   0  0  0  0  0  0  0  0  0  0  0  0
  141.8240   78.6180  223.1740 C   0  0  0  0  0  0  0  0  0  0  0  0
  141.6739   77.5729  223.4826 H   0  0  0  0  0  0  0  0  0  0  0  0
  142.0750   79.5980  224.1400 C   0  0  0  0  0  0  0  0  0  0  0  0
  142.1228   79.3214  225.2036 H   0  0  0  0  0  0  0  0  0  0  0  0
  142.2650   80.9270  223.7560 C   0  0  0  0  0  0  0  0  0  0  0  0
  142.4613   81.6963  224.5173 H   0  0  0  0  0  0  0  0  0  0  0  0
  142.2060   81.2800  222.4070 C   0  0  0  0  0  0  0  0  0  0  0  0
  142.3563   82.3274  222.1063 H   0  0  0  0  0  0  0  0  0  0  0  0
  141.9560   80.3040  221.4370 C   0  0  0  0  0  0  0  0  0  0  0  0
  141.9106   80.5889  220.3755 H   0  0  0  0  0  0  0  0  0  0  0  0
  1  2  1  0
  2  3  1  0
  3  4  2  0
  4  5  1  0
  5  6  1  0
  5  7  1  0
  5  8  1  0
  8  9  1  6
  8 10  1  0
 10 11  1  0
 10 12  1  0
 10 13  1  0
  8 14  1  0
 14 15  1  1
 14 16  1  0
 16 17  2  0
 17 18  1  0
 17 19  1  0
 19 20  1  0
 19 21  2  0
 21 22  1  0
 21 23  1  0
 23 24  1  0
 23 25  2  0
 25 26  1  0
 14 27  1  0
 27 28  1  0
 27 29  1  0
 29 30  2  0
 30 31  1  0
 30 32  1  0
 32 33  1  0
 32 34  2  0
 34 35  1  0
 35 36  3  0
 34 37  1  0
 37 38  1  0
 37 39  2  0
 39 40  1  0
  3 41  1  0
 41 42  2  0
 42 43  1  0
 42 44  1  0
 44 45  1  0
 44 46  2  0
 46 47  1  0
 46 48  1  0
 48 49  1  0
 48 50  2  0
 50 51  1  0
 25 16  1  0
 39 29  1  0
 50 41  1  0
M  END
>  <UniqueID>  (74) 
31

>  <SMILES>  (74) 
C[C@@H](C/N=C(\O)c1ccccc1)[C@H](Nc1ccc(C#N)c(Cl)c1)c1ccc(Cl)c(Cl)c1

>  <Energy>  (74) 
62.51295180246913

>  <Genealogy>  (74) 
CC(CN=C(O)c1ccccc1)C(Nc1ccc(C#N)c(Cl)c1)c1ccc(Cl)c(Cl)c1 (tautomer)
C[C@@H](CN=C(O)c1ccccc1)[C@H](Nc1ccc(C#N)c(Cl)c1)c1ccc(Cl)c(Cl)c1 (chirality)
C[C@@H](C/N=C(\O)c1ccccc1)[C@H](Nc1ccc(C#N)c(Cl)c1)c1ccc(Cl)c(Cl)c1 (cis-trans isomerization)
C[C@@H](C/N=C(\O)c1ccccc1)[C@H](Nc1ccc(C#N)c(Cl)c1)c1ccc(Cl)c(Cl)c1 (3D coordinates assigned)
C[C@@H](C/N=C(\O)c1ccccc1)[C@H](Nc1ccc(C#N)c(Cl)c1)c1ccc(Cl)c(Cl)c1 (optimized conformer: 62.51295180246913 kcal/mol)

>  <smiles>  (74) 
CC(CNC(=O)c1ccccc1)C(Nc1ccc(C#N)c(Cl)c1)c1ccc(Cl)c(Cl)c1

>  <score_type>  (74) 
oracle

>  <origin>  (74) 
autodockgpu

>  <m_score__min__energy>  (74) 
-8.25

>  <m_primary>  (74) 
energy

>  <meeko>  (74) 
{"free_energy": -6.87, "intermolecular_energy": -9.85, "internal_energy": -2.91, "cluster_size": 2, "cluster_id": 8, "rank_in_cluster": 1}

>  <energy>  (74) 
-7.28

>  <cluster_rmsd>  (74) 
0.47

>  <rmsd>  (74) 
268.92

>  <cluster>  (74) 
4

$$$$
CBUCDBLHFQUVQW-FJZAIJRJNA-N
     RDKit          3D

 51 53  0  0  0  0  0  0  0  0999 V2000
  141.8230   75.6810  222.6100 H   0  0  0  0  0  0  0  0  0  0  0  0
  141.0710   75.0770  222.3040 O   0  0  0  0  0  0  0  0  0  0  0  0
  140.5620   75.0820  221.0010 C   0  0  0  0  0  0  0  0  0  0  0  0
  139.3210   74.7720  220.7580 N   0  0  0  0  0  0  0  0  0  0  0  0
  138.5030   73.8660  221.5610 C   0  0  0  0  0  0  0  0  0  0  0  0
  137.4537   74.1941  221.5244 H   0  0  0  0  0  0  0  0  0  0  0  0
  138.8636   73.8807  222.6001 H   0  0  0  0  0  0  0  0  0  0  0  0
  138.6080   72.4250  221.0090 C   0  0  2  0  0  0  0  0  0  0  0  0
  138.7106   72.4506  219.9141 H   0  0  0  0  0  0  0  0  0  0  0  0
  137.3180   71.6580  221.3540 C   0  0  0  0  0  0  0  0  0  0  0  0
  137.2106   71.5941  222.4469 H   0  0  0  0  0  0  0  0  0  0  0  0
  136.4520   72.1880  220.9308 H   0  0  0  0  0  0  0  0  0  0  0  0
  137.3700   70.6440  220.9308 H   0  0  0  0  0  0  0  0  0  0  0  0
  139.8910   71.7110  221.5590 C   0  0  1  0  0  0  0  0  0  0  0  0
  139.5887   70.6535  221.5789 H   0  0  0  0  0  0  0  0  0  0  0  0
  141.1140   71.7680  220.6440 C   0  0  0  0  0  0  0  0  0  0  0  0
  141.1160   71.2140  219.3470 C   0  0  0  0  0  0  0  0  0  0  0  0
  140.2114   70.7178  218.9655 H   0  0  0  0  0  0  0  0  0  0  0  0
  142.2550   71.2890  218.5420 C   0  0  0  0  0  0  0  0  0  0  0  0
  142.2454   70.8360  217.5397 H   0  0  0  0  0  0  0  0  0  0  0  0
  143.4050   71.9340  218.9990 C   0  0  0  0  0  0  0  0  0  0  0  0
  144.8180   72.0060  217.9530 Cl  0  0  0  0  0  0  0  0  0  0  0  0
  143.4100   72.5270  220.2700 C   0  0  0  0  0  0  0  0  0  0  0  0
  144.8260   73.3750  220.8760 Cl  0  0  0  0  0  0  0  0  0  0  0  0
  142.2690   72.4530  221.0750 C   0  0  0  0  0  0  0  0  0  0  0  0
  142.2724   72.9379  222.0624 H   0  0  0  0  0  0  0  0  0  0  0  0
  140.2380   72.1030  222.9410 N   0  0  0  0  0  0  0  0  0  0  0  0
  140.6770   73.0480  223.0380 H   0  0  0  0  0  0  0  0  0  0  0  0
  140.2320   71.2750  224.1280 C   0  0  0  0  0  0  0  0  0  0  0  0
  139.8320   69.9250  224.1130 C   0  0  0  0  0  0  0  0  0  0  0  0
  139.5032   69.4630  223.1704 H   0  0  0  0  0  0  0  0  0  0  0  0
  139.8500   69.1680  225.2880 C   0  0  0  0  0  0  0  0  0  0  0  0
  139.5428   68.1121  225.2623 H   0  0  0  0  0  0  0  0  0  0  0  0
  140.2560   69.7440  226.4960 C   0  0  0  0  0  0  0  0  0  0  0  0
  140.2670   68.9400  227.6930 C   0  0  0  0  0  0  0  0  0  0  0  0
  140.2760   68.2930  228.6520 N   0  0  0  0  0  0  0  0  0  0  0  0
  140.6390   71.0960  226.5270 C   0  0  0  0  0  0  0  0  0  0  0  0
  141.1500   71.8700  228.0230 Cl  0  0  0  0  0  0  0  0  0  0  0  0
  140.6180   71.8500  225.3490 C   0  0  0  0  0  0  0  0  0  0  0  0
  140.9086   72.9105  225.3799 H   0  0  0  0  0  0  0  0  0  0  0  0
  141.4610   75.4480  219.8790 C   0  0  0  0  0  0  0  0  0  0  0  0
  141.3220   74.8450  218.6120 C   0  0  0  0  0  0  0  0  0  0  0  0
  140.5372   74.0918  218.4486 H   0  0  0  0  0  0  0  0  0  0  0  0
  142.1750   75.1980  217.5620 C   0  0  0  0  0  0  0  0  0  0  0  0
  142.0586   74.7231  216.5766 H   0  0  0  0  0  0  0  0  0  0  0  0
  143.1740   76.1520  217.7620 C   0  0  0  0  0  0  0  0  0  0  0  0
  143.8442   76.4279  216.9345 H   0  0  0  0  0  0  0  0  0  0  0  0
  143.3230   76.7560  219.0110 C   0  0  0  0  0  0  0  0  0  0  0  0
  144.1109   77.5077  219.1664 H   0  0  0  0  0  0  0  0  0  0  0  0
  142.4730   76.4080  220.0660 C   0  0  0  0  0  0  0  0  0  0  0  0
  142.5964   76.8878  221.0481 H   0  0  0  0  0  0  0  0  0  0  0  0
  1  2  1  0
  2  3  1  0
  3  4  2  0
  4  5  1  0
  5  6  1  0
  5  7  1  0
  5  8  1  0
  8  9  1  6
  8 10  1  0
 10 11  1  0
 10 12  1  0
 10 13  1  0
  8 14  1  0
 14 15  1  1
 14 16  1  0
 16 17  2  0
 17 18  1  0
 17 19  1  0
 19 20  1  0
 19 21  2  0
 21 22  1  0
 21 23  1  0
 23 24  1  0
 23 25  2  0
 25 26  1  0
 14 27  1  0
 27 28  1  0
 27 29  1  0
 29 30  2  0
 30 31  1  0
 30 32  1  0
 32 33  1  0
 32 34  2  0
 34 35  1  0
 35 36  3  0
 34 37  1  0
 37 38  1  0
 37 39  2  0
 39 40  1  0
  3 41  1  0
 41 42  2  0
 42 43  1  0
 42 44  1  0
 44 45  1  0
 44 46  2  0
 46 47  1  0
 46 48  1  0
 48 49  1  0
 48 50  2  0
 50 51  1  0
 25 16  1  0
 39 29  1  0
 50 41  1  0
M  END
>  <UniqueID>  (75) 
31

>  <SMILES>  (75) 
C[C@@H](C/N=C(\O)c1ccccc1)[C@H](Nc1ccc(C#N)c(Cl)c1)c1ccc(Cl)c(Cl)c1

>  <Energy>  (75) 
62.51295180246913

>  <Genealogy>  (75) 
CC(CN=C(O)c1ccccc1)C(Nc1ccc(C#N)c(Cl)c1)c1ccc(Cl)c(Cl)c1 (tautomer)
C[C@@H](CN=C(O)c1ccccc1)[C@H](Nc1ccc(C#N)c(Cl)c1)c1ccc(Cl)c(Cl)c1 (chirality)
C[C@@H](C/N=C(\O)c1ccccc1)[C@H](Nc1ccc(C#N)c(Cl)c1)c1ccc(Cl)c(Cl)c1 (cis-trans isomerization)
C[C@@H](C/N=C(\O)c1ccccc1)[C@H](Nc1ccc(C#N)c(Cl)c1)c1ccc(Cl)c(Cl)c1 (3D coordinates assigned)
C[C@@H](C/N=C(\O)c1ccccc1)[C@H](Nc1ccc(C#N)c(Cl)c1)c1ccc(Cl)c(Cl)c1 (optimized conformer: 62.51295180246913 kcal/mol)

>  <smiles>  (75) 
CC(CNC(=O)c1ccccc1)C(Nc1ccc(C#N)c(Cl)c1)c1ccc(Cl)c(Cl)c1

>  <score_type>  (75) 
oracle

>  <origin>  (75) 
autodockgpu

>  <m_score__min__energy>  (75) 
-8.25

>  <m_primary>  (75) 
energy

>  <meeko>  (75) 
{"free_energy": -6.34, "intermolecular_energy": -9.33, "internal_energy": -3.18, "cluster_size": 5, "cluster_id": 2, "rank_in_cluster": 5}

>  <energy>  (75) 
-7.09

>  <cluster_rmsd>  (75) 
0.0

>  <rmsd>  (75) 
269.46

>  <cluster>  (75) 
5

$$$$
CBUCDBLHFQUVQW-FJZAIJRJNA-N
     RDKit          3D

 51 53  0  0  0  0  0  0  0  0999 V2000
  138.9030   73.8400  222.9440 H   0  0  0  0  0  0  0  0  0  0  0  0
  139.8690   73.7280  222.6630 O   0  0  0  0  0  0  0  0  0  0  0  0
  140.2520   73.2230  221.4160 C   0  0  0  0  0  0  0  0  0  0  0  0
  139.3740   72.7490  220.5790 N   0  0  0  0  0  0  0  0  0  0  0  0
  139.2050   71.3370  220.2420 C   0  0  0  0  0  0  0  0  0  0  0  0
  139.8338   71.0928  219.3731 H   0  0  0  0  0  0  0  0  0  0  0  0
  138.1477   71.1481  220.0045 H   0  0  0  0  0  0  0  0  0  0  0  0
  139.6200   70.4510  221.4380 C   0  0  2  0  0  0  0  0  0  0  0  0
  140.5369   70.8498  221.8964 H   0  0  0  0  0  0  0  0  0  0  0  0
  139.9140   69.0260  220.9330 C   0  0  0  0  0  0  0  0  0  0  0  0
  140.0527   68.3537  221.7925 H   0  0  0  0  0  0  0  0  0  0  0  0
  139.0700   68.6718  220.3229 H   0  0  0  0  0  0  0  0  0  0  0  0
  140.8293   69.0348  220.3229 H   0  0  0  0  0  0  0  0  0  0  0  0
  138.5190   70.4710  222.5550 C   0  0  1  0  0  0  0  0  0  0  0  0
  137.8378   69.6677  222.2378 H   0  0  0  0  0  0  0  0  0  0  0  0
  138.9970   70.0720  223.9510 C   0  0  0  0  0  0  0  0  0  0  0  0
  138.7870   68.7850  224.4850 C   0  0  0  0  0  0  0  0  0  0  0  0
  138.2597   68.0275  223.8866 H   0  0  0  0  0  0  0  0  0  0  0  0
  139.2410   68.4600  225.7660 C   0  0  0  0  0  0  0  0  0  0  0  0
  139.0527   67.4559  226.1738 H   0  0  0  0  0  0  0  0  0  0  0  0
  139.9320   69.4010  226.5320 C   0  0  0  0  0  0  0  0  0  0  0  0
  140.4870   68.9520  228.1400 Cl  0  0  0  0  0  0  0  0  0  0  0  0
  140.1870   70.6750  226.0030 C   0  0  0  0  0  0  0  0  0  0  0  0
  141.0780   71.8820  226.9200 Cl  0  0  0  0  0  0  0  0  0  0  0  0
  139.7330   70.9980  224.7200 C   0  0  0  0  0  0  0  0  0  0  0  0
  139.9538   71.9917  224.3031 H   0  0  0  0  0  0  0  0  0  0  0  0
  137.7420   71.7270  222.5940 N   0  0  0  0  0  0  0  0  0  0  0  0
  138.1560   72.5230  222.0550 H   0  0  0  0  0  0  0  0  0  0  0  0
  136.6090   72.0460  223.4350 C   0  0  0  0  0  0  0  0  0  0  0  0
  136.0670   73.3430  223.5260 C   0  0  0  0  0  0  0  0  0  0  0  0
  136.5115   74.1627  222.9424 H   0  0  0  0  0  0  0  0  0  0  0  0
  134.9690   73.5960  224.3520 C   0  0  0  0  0  0  0  0  0  0  0  0
  134.5502   74.6116  224.4089 H   0  0  0  0  0  0  0  0  0  0  0  0
  134.3990   72.5660  225.1070 C   0  0  0  0  0  0  0  0  0  0  0  0
  133.2630   72.8540  225.9490 C   0  0  0  0  0  0  0  0  0  0  0  0
  132.3530   73.0860  226.6240 N   0  0  0  0  0  0  0  0  0  0  0  0
  134.9420   71.2720  225.0400 C   0  0  0  0  0  0  0  0  0  0  0  0
  134.2650   69.9440  225.9760 Cl  0  0  0  0  0  0  0  0  0  0  0  0
  136.0430   71.0240  224.2130 C   0  0  0  0  0  0  0  0  0  0  0  0
  136.4719   70.0119  224.1719 H   0  0  0  0  0  0  0  0  0  0  0  0
  141.6890   73.2310  221.0460 C   0  0  0  0  0  0  0  0  0  0  0  0
  142.3240   74.4190  220.6320 C   0  0  0  0  0  0  0  0  0  0  0  0
  141.7504   75.3562  220.5814 H   0  0  0  0  0  0  0  0  0  0  0  0
  143.6790   74.4140  220.2850 C   0  0  0  0  0  0  0  0  0  0  0  0
  144.1664   75.3459  219.9626 H   0  0  0  0  0  0  0  0  0  0  0  0
  144.4140   73.2290  220.3470 C   0  0  0  0  0  0  0  0  0  0  0  0
  145.4795   73.2276  220.0735 H   0  0  0  0  0  0  0  0  0  0  0  0
  143.7970   72.0460  220.7560 C   0  0  0  0  0  0  0  0  0  0  0  0
  144.3774   71.1129  220.8049 H   0  0  0  0  0  0  0  0  0  0  0  0
  142.4420   72.0440  221.1040 C   0  0  0  0  0  0  0  0  0  0  0  0
  141.9620   71.1078  221.4252 H   0  0  0  0  0  0  0  0  0  0  0  0
  1  2  1  0
  2  3  1  0
  3  4  2  0
  4  5  1  0
  5  6  1  0
  5  7  1  0
  5  8  1  0
  8  9  1  1
  8 10  1  0
 10 11  1  0
 10 12  1  0
 10 13  1  0
  8 14  1  0
 14 15  1  6
 14 16  1  0
 16 17  2  0
 17 18  1  0
 17 19  1  0
 19 20  1  0
 19 21  2  0
 21 22  1  0
 21 23  1  0
 23 24  1  0
 23 25  2  0
 25 26  1  0
 14 27  1  0
 27 28  1  0
 27 29  1  0
 29 30  2  0
 30 31  1  0
 30 32  1  0
 32 33  1  0
 32 34  2  0
 34 35  1  0
 35 36  3  0
 34 37  1  0
 37 38  1  0
 37 39  2  0
 39 40  1  0
  3 41  1  0
 41 42  2  0
 42 43  1  0
 42 44  1  0
 44 45  1  0
 44 46  2  0
 46 47  1  0
 46 48  1  0
 48 49  1  0
 48 50  2  0
 50 51  1  0
 25 16  1  0
 39 29  1  0
 50 41  1  0
M  END
>  <UniqueID>  (76) 
31

>  <SMILES>  (76) 
C[C@@H](C/N=C(\O)c1ccccc1)[C@H](Nc1ccc(C#N)c(Cl)c1)c1ccc(Cl)c(Cl)c1

>  <Energy>  (76) 
62.51295180246913

>  <Genealogy>  (76) 
CC(CN=C(O)c1ccccc1)C(Nc1ccc(C#N)c(Cl)c1)c1ccc(Cl)c(Cl)c1 (tautomer)
C[C@@H](CN=C(O)c1ccccc1)[C@H](Nc1ccc(C#N)c(Cl)c1)c1ccc(Cl)c(Cl)c1 (chirality)
C[C@@H](C/N=C(\O)c1ccccc1)[C@H](Nc1ccc(C#N)c(Cl)c1)c1ccc(Cl)c(Cl)c1 (cis-trans isomerization)
C[C@@H](C/N=C(\O)c1ccccc1)[C@H](Nc1ccc(C#N)c(Cl)c1)c1ccc(Cl)c(Cl)c1 (3D coordinates assigned)
C[C@@H](C/N=C(\O)c1ccccc1)[C@H](Nc1ccc(C#N)c(Cl)c1)c1ccc(Cl)c(Cl)c1 (optimized conformer: 62.51295180246913 kcal/mol)

>  <smiles>  (76) 
CC(CNC(=O)c1ccccc1)C(Nc1ccc(C#N)c(Cl)c1)c1ccc(Cl)c(Cl)c1

>  <score_type>  (76) 
oracle

>  <origin>  (76) 
autodockgpu

>  <m_score__min__energy>  (76) 
-8.25

>  <m_primary>  (76) 
energy

>  <meeko>  (76) 
{"free_energy": -7.28, "intermolecular_energy": -10.26, "internal_energy": -3.07, "cluster_size": 2, "cluster_id": 4, "rank_in_cluster": 2}

>  <energy>  (76) 
-7.04

>  <cluster_rmsd>  (76) 
0.16

>  <rmsd>  (76) 
269.45

>  <cluster>  (76) 
5

$$$$
CBUCDBLHFQUVQW-FJZAIJRJNA-N
     RDKit          3D

 51 53  0  0  0  0  0  0  0  0999 V2000
  137.8650   75.3210  223.4740 H   0  0  0  0  0  0  0  0  0  0  0  0
  138.3960   76.0800  223.0670 O   0  0  0  0  0  0  0  0  0  0  0  0
  139.5830   75.8910  222.3500 C   0  0  0  0  0  0  0  0  0  0  0  0
  139.9310   74.7120  221.9200 N   0  0  0  0  0  0  0  0  0  0  0  0
  139.4110   74.0630  220.7190 C   0  0  0  0  0  0  0  0  0  0  0  0
  140.2333   73.9058  220.0055 H   0  0  0  0  0  0  0  0  0  0  0  0
  138.6410   74.7059  220.2675 H   0  0  0  0  0  0  0  0  0  0  0  0
  138.7810   72.6980  221.0820 C   0  0  2  0  0  0  0  0  0  0  0  0
  138.5057   72.1575  220.1643 H   0  0  0  0  0  0  0  0  0  0  0  0
  137.5000   72.9370  221.9040 C   0  0  0  0  0  0  0  0  0  0  0  0
  137.7391   72.8924  222.9768 H   0  0  0  0  0  0  0  0  0  0  0  0
  137.0879   73.9275  221.6611 H   0  0  0  0  0  0  0  0  0  0  0  0
  136.7584   72.1617  221.6611 H   0  0  0  0  0  0  0  0  0  0  0  0
  139.8140   71.7920  221.8390 C   0  0  1  0  0  0  0  0  0  0  0  0
  139.3300   70.8044  221.8201 H   0  0  0  0  0  0  0  0  0  0  0  0
  141.1560   71.6010  221.1330 C   0  0  0  0  0  0  0  0  0  0  0  0
  141.4350   70.4780  220.3280 C   0  0  0  0  0  0  0  0  0  0  0  0
  140.6685   69.7003  220.1946 H   0  0  0  0  0  0  0  0  0  0  0  0
  142.6740   70.3420  219.6980 C   0  0  0  0  0  0  0  0  0  0  0  0
  142.8807   69.4511  219.0868 H   0  0  0  0  0  0  0  0  0  0  0  0
  143.6520   71.3280  219.8380 C   0  0  0  0  0  0  0  0  0  0  0  0
  145.2000   71.1180  219.0280 Cl  0  0  0  0  0  0  0  0  0  0  0  0
  143.3800   72.4730  220.6010 C   0  0  0  0  0  0  0  0  0  0  0  0
  144.5710   73.7540  220.7810 Cl  0  0  0  0  0  0  0  0  0  0  0  0
  142.1380   72.6090  221.2300 C   0  0  0  0  0  0  0  0  0  0  0  0
  141.9233   73.5182  221.8106 H   0  0  0  0  0  0  0  0  0  0  0  0
  140.0030   72.1710  223.2550 N   0  0  0  0  0  0  0  0  0  0  0  0
  140.1790   73.1890  223.4240 H   0  0  0  0  0  0  0  0  0  0  0  0
  140.1770   71.2950  224.3940 C   0  0  0  0  0  0  0  0  0  0  0  0
  139.9360   69.9080  224.3320 C   0  0  0  0  0  0  0  0  0  0  0  0
  139.5989   69.4541  223.3884 H   0  0  0  0  0  0  0  0  0  0  0  0
  140.1220   69.1050  225.4600 C   0  0  0  0  0  0  0  0  0  0  0  0
  139.9372   68.0225  225.3972 H   0  0  0  0  0  0  0  0  0  0  0  0
  140.5420   69.6700  226.6690 C   0  0  0  0  0  0  0  0  0  0  0  0
  140.7300   68.8180  227.8180 C   0  0  0  0  0  0  0  0  0  0  0  0
  140.8810   68.1350  228.7380 N   0  0  0  0  0  0  0  0  0  0  0  0
  140.7670   71.0550  226.7490 C   0  0  0  0  0  0  0  0  0  0  0  0
  141.2890   71.8140  228.2480 Cl  0  0  0  0  0  0  0  0  0  0  0  0
  140.5770   71.8550  225.6170 C   0  0  0  0  0  0  0  0  0  0  0  0
  140.7438   72.9400  225.6868 H   0  0  0  0  0  0  0  0  0  0  0  0
  140.4550   77.0590  222.0790 C   0  0  0  0  0  0  0  0  0  0  0  0
  141.0600   77.2360  220.8180 C   0  0  0  0  0  0  0  0  0  0  0  0
  140.8852   76.4991  220.0202 H   0  0  0  0  0  0  0  0  0  0  0  0
  141.8810   78.3420  220.5740 C   0  0  0  0  0  0  0  0  0  0  0  0
  142.3481   78.4725  219.5867 H   0  0  0  0  0  0  0  0  0  0  0  0
  142.1080   79.2800  221.5820 C   0  0  0  0  0  0  0  0  0  0  0  0
  142.7547   80.1485  221.3884 H   0  0  0  0  0  0  0  0  0  0  0  0
  141.5160   79.1180  222.8350 C   0  0  0  0  0  0  0  0  0  0  0  0
  141.6959   79.8597  223.6271 H   0  0  0  0  0  0  0  0  0  0  0  0
  140.6940   78.0140  223.0860 C   0  0  0  0  0  0  0  0  0  0  0  0
  140.2314   77.8912  224.0764 H   0  0  0  0  0  0  0  0  0  0  0  0
  1  2  1  0
  2  3  1  0
  3  4  2  0
  4  5  1  0
  5  6  1  0
  5  7  1  0
  5  8  1  0
  8  9  1  6
  8 10  1  0
 10 11  1  0
 10 12  1  0
 10 13  1  0
  8 14  1  0
 14 15  1  1
 14 16  1  0
 16 17  2  0
 17 18  1  0
 17 19  1  0
 19 20  1  0
 19 21  2  0
 21 22  1  0
 21 23  1  0
 23 24  1  0
 23 25  2  0
 25 26  1  0
 14 27  1  0
 27 28  1  0
 27 29  1  0
 29 30  2  0
 30 31  1  0
 30 32  1  0
 32 33  1  0
 32 34  2  0
 34 35  1  0
 35 36  3  0
 34 37  1  0
 37 38  1  0
 37 39  2  0
 39 40  1  0
  3 41  1  0
 41 42  2  0
 42 43  1  0
 42 44  1  0
 44 45  1  0
 44 46  2  0
 46 47  1  0
 46 48  1  0
 48 49  1  0
 48 50  2  0
 50 51  1  0
 25 16  1  0
 39 29  1  0
 50 41  1  0
M  END
>  <UniqueID>  (77) 
31

>  <SMILES>  (77) 
C[C@@H](C/N=C(\O)c1ccccc1)[C@H](Nc1ccc(C#N)c(Cl)c1)c1ccc(Cl)c(Cl)c1

>  <Energy>  (77) 
62.51295180246913

>  <Genealogy>  (77) 
CC(CN=C(O)c1ccccc1)C(Nc1ccc(C#N)c(Cl)c1)c1ccc(Cl)c(Cl)c1 (tautomer)
C[C@@H](CN=C(O)c1ccccc1)[C@H](Nc1ccc(C#N)c(Cl)c1)c1ccc(Cl)c(Cl)c1 (chirality)
C[C@@H](C/N=C(\O)c1ccccc1)[C@H](Nc1ccc(C#N)c(Cl)c1)c1ccc(Cl)c(Cl)c1 (cis-trans isomerization)
C[C@@H](C/N=C(\O)c1ccccc1)[C@H](Nc1ccc(C#N)c(Cl)c1)c1ccc(Cl)c(Cl)c1 (3D coordinates assigned)
C[C@@H](C/N=C(\O)c1ccccc1)[C@H](Nc1ccc(C#N)c(Cl)c1)c1ccc(Cl)c(Cl)c1 (optimized conformer: 62.51295180246913 kcal/mol)

>  <smiles>  (77) 
CC(CNC(=O)c1ccccc1)C(Nc1ccc(C#N)c(Cl)c1)c1ccc(Cl)c(Cl)c1

>  <score_type>  (77) 
oracle

>  <origin>  (77) 
autodockgpu

>  <m_score__min__energy>  (77) 
-8.25

>  <m_primary>  (77) 
energy

>  <meeko>  (77) 
{"free_energy": -8.18, "intermolecular_energy": -11.16, "internal_energy": -2.11, "cluster_size": 5, "cluster_id": 2, "rank_in_cluster": 1}

>  <energy>  (77) 
-7.05

>  <cluster_rmsd>  (77) 
0.0

>  <rmsd>  (77) 
269.23

>  <cluster>  (77) 
6

$$$$
CBUCDBLHFQUVQW-FJZAIJRJNA-N
     RDKit          3D

 51 53  0  0  0  0  0  0  0  0999 V2000
  141.3300   72.8850  221.6860 H   0  0  0  0  0  0  0  0  0  0  0  0
  140.6450   73.1780  222.3700 O   0  0  0  0  0  0  0  0  0  0  0  0
  139.5250   72.4120  222.7120 C   0  0  0  0  0  0  0  0  0  0  0  0
  138.4170   72.4930  222.0330 N   0  0  0  0  0  0  0  0  0  0  0  0
  138.2530   73.2010  220.7650 C   0  0  0  0  0  0  0  0  0  0  0  0
  138.1464   72.4691  219.9507 H   0  0  0  0  0  0  0  0  0  0  0  0
  139.1366   73.8318  220.5878 H   0  0  0  0  0  0  0  0  0  0  0  0
  136.9930   74.0970  220.8160 C   0  0  2  0  0  0  0  0  0  0  0  0
  136.1265   73.5055  221.1466 H   0  0  0  0  0  0  0  0  0  0  0  0
  136.6990   74.6340  219.4030 C   0  0  0  0  0  0  0  0  0  0  0  0
  136.1720   75.5966  219.4789 H   0  0  0  0  0  0  0  0  0  0  0  0
  137.6453   74.7758  218.8604 H   0  0  0  0  0  0  0  0  0  0  0  0
  136.0697   73.9132  218.8604 H   0  0  0  0  0  0  0  0  0  0  0  0
  137.1730   75.2490  221.8650 C   0  0  1  0  0  0  0  0  0  0  0  0
  136.9364   76.1494  221.2791 H   0  0  0  0  0  0  0  0  0  0  0  0
  136.1730   75.2400  223.0220 C   0  0  0  0  0  0  0  0  0  0  0  0
  135.6200   76.4220  223.5540 C   0  0  0  0  0  0  0  0  0  0  0  0
  135.9086   77.3959  223.1318 H   0  0  0  0  0  0  0  0  0  0  0  0
  134.7090   76.3700  224.6120 C   0  0  0  0  0  0  0  0  0  0  0  0
  134.3006   77.3034  225.0267 H   0  0  0  0  0  0  0  0  0  0  0  0
  134.3130   75.1430  225.1470 C   0  0  0  0  0  0  0  0  0  0  0  0
  133.1630   75.1210  226.4780 Cl  0  0  0  0  0  0  0  0  0  0  0  0
  134.8210   73.9530  224.6040 C   0  0  0  0  0  0  0  0  0  0  0  0
  134.3290   72.3840  225.2260 Cl  0  0  0  0  0  0  0  0  0  0  0  0
  135.7320   74.0070  223.5440 C   0  0  0  0  0  0  0  0  0  0  0  0
  136.1113   73.0702  223.1098 H   0  0  0  0  0  0  0  0  0  0  0  0
  138.5590   75.3890  222.3560 N   0  0  0  0  0  0  0  0  0  0  0  0
  138.9840   74.5150  222.7430 H   0  0  0  0  0  0  0  0  0  0  0  0
  139.3140   76.6080  222.5510 C   0  0  0  0  0  0  0  0  0  0  0  0
  140.7050   76.6860  222.3420 C   0  0  0  0  0  0  0  0  0  0  0  0
  141.2594   75.7920  222.0204 H   0  0  0  0  0  0  0  0  0  0  0  0
  141.3860   77.8900  222.5400 C   0  0  0  0  0  0  0  0  0  0  0  0
  142.4706   77.9402  222.3639 H   0  0  0  0  0  0  0  0  0  0  0  0
  140.6960   79.0320  222.9610 C   0  0  0  0  0  0  0  0  0  0  0  0
  141.4230   80.2620  223.1560 C   0  0  0  0  0  0  0  0  0  0  0  0
  142.0060   81.2490  223.3140 N   0  0  0  0  0  0  0  0  0  0  0  0
  139.3120   78.9630  223.1920 C   0  0  0  0  0  0  0  0  0  0  0  0
  138.4000   80.3690  223.7280 Cl  0  0  0  0  0  0  0  0  0  0  0  0
  138.6350   77.7550  222.9930 C   0  0  0  0  0  0  0  0  0  0  0  0
  137.5533   77.7028  223.1859 H   0  0  0  0  0  0  0  0  0  0  0  0
  139.6090   71.4930  223.8730 C   0  0  0  0  0  0  0  0  0  0  0  0
  138.6370   70.4930  224.0790 C   0  0  0  0  0  0  0  0  0  0  0  0
  137.8017   70.3893  223.3708 H   0  0  0  0  0  0  0  0  0  0  0  0
  138.7270   69.6320  225.1770 C   0  0  0  0  0  0  0  0  0  0  0  0
  137.9649   68.8534  225.3283 H   0  0  0  0  0  0  0  0  0  0  0  0
  139.7820   69.7590  226.0810 C   0  0  0  0  0  0  0  0  0  0  0  0
  139.8497   69.0817  226.9451 H   0  0  0  0  0  0  0  0  0  0  0  0
  140.7520   70.7450  225.8900 C   0  0  0  0  0  0  0  0  0  0  0  0
  141.5836   70.8426  226.6033 H   0  0  0  0  0  0  0  0  0  0  0  0
  140.6680   71.6090  224.7930 C   0  0  0  0  0  0  0  0  0  0  0  0
  141.4348   72.3843  224.6484 H   0  0  0  0  0  0  0  0  0  0  0  0
  1  2  1  0
  2  3  1  0
  3  4  2  0
  4  5  1  0
  5  6  1  0
  5  7  1  0
  5  8  1  0
  8  9  1  1
  8 10  1  0
 10 11  1  0
 10 12  1  0
 10 13  1  0
  8 14  1  0
 14 15  1  6
 14 16  1  0
 16 17  2  0
 17 18  1  0
 17 19  1  0
 19 20  1  0
 19 21  2  0
 21 22  1  0
 21 23  1  0
 23 24  1  0
 23 25  2  0
 25 26  1  0
 14 27  1  0
 27 28  1  0
 27 29  1  0
 29 30  2  0
 30 31  1  0
 30 32  1  0
 32 33  1  0
 32 34  2  0
 34 35  1  0
 35 36  3  0
 34 37  1  0
 37 38  1  0
 37 39  2  0
 39 40  1  0
  3 41  1  0
 41 42  2  0
 42 43  1  0
 42 44  1  0
 44 45  1  0
 44 46  2  0
 46 47  1  0
 46 48  1  0
 48 49  1  0
 48 50  2  0
 50 51  1  0
 25 16  1  0
 39 29  1  0
 50 41  1  0
M  END
>  <UniqueID>  (78) 
31

>  <SMILES>  (78) 
C[C@@H](C/N=C(\O)c1ccccc1)[C@H](Nc1ccc(C#N)c(Cl)c1)c1ccc(Cl)c(Cl)c1

>  <Energy>  (78) 
62.51295180246913

>  <Genealogy>  (78) 
CC(CN=C(O)c1ccccc1)C(Nc1ccc(C#N)c(Cl)c1)c1ccc(Cl)c(Cl)c1 (tautomer)
C[C@@H](CN=C(O)c1ccccc1)[C@H](Nc1ccc(C#N)c(Cl)c1)c1ccc(Cl)c(Cl)c1 (chirality)
C[C@@H](C/N=C(\O)c1ccccc1)[C@H](Nc1ccc(C#N)c(Cl)c1)c1ccc(Cl)c(Cl)c1 (cis-trans isomerization)
C[C@@H](C/N=C(\O)c1ccccc1)[C@H](Nc1ccc(C#N)c(Cl)c1)c1ccc(Cl)c(Cl)c1 (3D coordinates assigned)
C[C@@H](C/N=C(\O)c1ccccc1)[C@H](Nc1ccc(C#N)c(Cl)c1)c1ccc(Cl)c(Cl)c1 (optimized conformer: 62.51295180246913 kcal/mol)

>  <smiles>  (78) 
CC(CNC(=O)c1ccccc1)C(Nc1ccc(C#N)c(Cl)c1)c1ccc(Cl)c(Cl)c1

>  <score_type>  (78) 
oracle

>  <origin>  (78) 
autodockgpu

>  <m_score__min__energy>  (78) 
-8.25

>  <m_primary>  (78) 
energy

>  <meeko>  (78) 
{"free_energy": -7.04, "intermolecular_energy": -10.03, "internal_energy": -2.87, "cluster_size": 2, "cluster_id": 5, "rank_in_cluster": 2}

>  <energy>  (78) 
-7.02

>  <cluster_rmsd>  (78) 
0.0

>  <rmsd>  (78) 
269.51

>  <cluster>  (78) 
7

$$$$
CBUCDBLHFQUVQW-FJZAIJRJNA-N
     RDKit          3D

 51 53  0  0  0  0  0  0  0  0999 V2000
  137.1850   74.5800  223.1400 H   0  0  0  0  0  0  0  0  0  0  0  0
  137.6740   74.9650  222.3420 O   0  0  0  0  0  0  0  0  0  0  0  0
  139.0550   75.1920  222.3230 C   0  0  0  0  0  0  0  0  0  0  0  0
  139.8980   74.2130  222.1630 N   0  0  0  0  0  0  0  0  0  0  0  0
  139.6940   73.0540  221.2970 C   0  0  0  0  0  0  0  0  0  0  0  0
  140.2824   73.1797  220.3762 H   0  0  0  0  0  0  0  0  0  0  0  0
  138.6252   72.9727  221.0498 H   0  0  0  0  0  0  0  0  0  0  0  0
  140.1460   71.7640  222.0210 C   0  0  2  0  0  0  0  0  0  0  0  0
  140.9705   71.9931  222.7122 H   0  0  0  0  0  0  0  0  0  0  0  0
  140.6580   70.7530  220.9770 C   0  0  0  0  0  0  0  0  0  0  0  0
  141.0973   69.8855  221.4913 H   0  0  0  0  0  0  0  0  0  0  0  0
  139.8199   70.4201  220.3472 H   0  0  0  0  0  0  0  0  0  0  0  0
  141.4224   71.2316  220.3472 H   0  0  0  0  0  0  0  0  0  0  0  0
  138.9820   71.1790  222.8950 C   0  0  1  0  0  0  0  0  0  0  0  0
  138.6092   70.3478  222.2785 H   0  0  0  0  0  0  0  0  0  0  0  0
  139.4140   70.5440  224.2170 C   0  0  0  0  0  0  0  0  0  0  0  0
  139.3260   69.1570  224.4540 C   0  0  0  0  0  0  0  0  0  0  0  0
  138.9333   68.4941  223.6689 H   0  0  0  0  0  0  0  0  0  0  0  0
  139.7330   68.6160  225.6770 C   0  0  0  0  0  0  0  0  0  0  0  0
  139.6419   67.5339  225.8524 H   0  0  0  0  0  0  0  0  0  0  0  0
  140.2540   69.4380  226.6770 C   0  0  0  0  0  0  0  0  0  0  0  0
  140.7550   68.7170  228.2020 Cl  0  0  0  0  0  0  0  0  0  0  0  0
  140.3880   70.8150  226.4450 C   0  0  0  0  0  0  0  0  0  0  0  0
  141.0650   71.8840  227.6650 Cl  0  0  0  0  0  0  0  0  0  0  0  0
  139.9810   71.3560  225.2200 C   0  0  0  0  0  0  0  0  0  0  0  0
  140.1058   72.4334  225.0368 H   0  0  0  0  0  0  0  0  0  0  0  0
  137.8640   72.1240  223.0950 N   0  0  0  0  0  0  0  0  0  0  0  0
  138.0470   73.1040  222.7790 H   0  0  0  0  0  0  0  0  0  0  0  0
  136.6460   71.9120  223.8470 C   0  0  0  0  0  0  0  0  0  0  0  0
  136.1910   70.6310  224.2160 C   0  0  0  0  0  0  0  0  0  0  0  0
  136.7707   69.7418  223.9273 H   0  0  0  0  0  0  0  0  0  0  0  0
  135.0090   70.4810  224.9460 C   0  0  0  0  0  0  0  0  0  0  0  0
  134.6685   69.4756  225.2346 H   0  0  0  0  0  0  0  0  0  0  0  0
  134.2560   71.6020  225.3120 C   0  0  0  0  0  0  0  0  0  0  0  0
  133.0410   71.4200  226.0680 C   0  0  0  0  0  0  0  0  0  0  0  0
  132.0660   71.2750  226.6730 N   0  0  0  0  0  0  0  0  0  0  0  0
  134.6890   72.8840  224.9330 C   0  0  0  0  0  0  0  0  0  0  0  0
  133.7740   74.3250  225.3620 Cl  0  0  0  0  0  0  0  0  0  0  0  0
  135.8720   73.0290  224.2000 C   0  0  0  0  0  0  0  0  0  0  0  0
  136.2007   74.0336  223.8956 H   0  0  0  0  0  0  0  0  0  0  0  0
  139.5600   76.5760  222.4900 C   0  0  0  0  0  0  0  0  0  0  0  0
  140.9390   76.8580  222.4230 C   0  0  0  0  0  0  0  0  0  0  0  0
  141.6554   76.0426  222.2445 H   0  0  0  0  0  0  0  0  0  0  0  0
  141.4030   78.1680  222.5820 C   0  0  0  0  0  0  0  0  0  0  0  0
  142.4813   78.3787  222.5280 H   0  0  0  0  0  0  0  0  0  0  0  0
  140.5010   79.2080  222.8090 C   0  0  0  0  0  0  0  0  0  0  0  0
  140.8687   80.2371  222.9344 H   0  0  0  0  0  0  0  0  0  0  0  0
  139.1320   78.9430  222.8770 C   0  0  0  0  0  0  0  0  0  0  0  0
  138.4222   79.7642  223.0552 H   0  0  0  0  0  0  0  0  0  0  0  0
  138.6610   77.6350  222.7190 C   0  0  0  0  0  0  0  0  0  0  0  0
  137.5812   77.4328  222.7741 H   0  0  0  0  0  0  0  0  0  0  0  0
  1  2  1  0
  2  3  1  0
  3  4  2  0
  4  5  1  0
  5  6  1  0
  5  7  1  0
  5  8  1  0
  8  9  1  1
  8 10  1  0
 10 11  1  0
 10 12  1  0
 10 13  1  0
  8 14  1  0
 14 15  1  6
 14 16  1  0
 16 17  2  0
 17 18  1  0
 17 19  1  0
 19 20  1  0
 19 21  2  0
 21 22  1  0
 21 23  1  0
 23 24  1  0
 23 25  2  0
 25 26  1  0
 14 27  1  0
 27 28  1  0
 27 29  1  0
 29 30  2  0
 30 31  1  0
 30 32  1  0
 32 33  1  0
 32 34  2  0
 34 35  1  0
 35 36  3  0
 34 37  1  0
 37 38  1  0
 37 39  2  0
 39 40  1  0
  3 41  1  0
 41 42  2  0
 42 43  1  0
 42 44  1  0
 44 45  1  0
 44 46  2  0
 46 47  1  0
 46 48  1  0
 48 49  1  0
 48 50  2  0
 50 51  1  0
 25 16  1  0
 39 29  1  0
 50 41  1  0
M  END
>  <UniqueID>  (79) 
31

>  <SMILES>  (79) 
C[C@@H](C/N=C(\O)c1ccccc1)[C@H](Nc1ccc(C#N)c(Cl)c1)c1ccc(Cl)c(Cl)c1

>  <Energy>  (79) 
62.51295180246913

>  <Genealogy>  (79) 
CC(CN=C(O)c1ccccc1)C(Nc1ccc(C#N)c(Cl)c1)c1ccc(Cl)c(Cl)c1 (tautomer)
C[C@@H](CN=C(O)c1ccccc1)[C@H](Nc1ccc(C#N)c(Cl)c1)c1ccc(Cl)c(Cl)c1 (chirality)
C[C@@H](C/N=C(\O)c1ccccc1)[C@H](Nc1ccc(C#N)c(Cl)c1)c1ccc(Cl)c(Cl)c1 (cis-trans isomerization)
C[C@@H](C/N=C(\O)c1ccccc1)[C@H](Nc1ccc(C#N)c(Cl)c1)c1ccc(Cl)c(Cl)c1 (3D coordinates assigned)
C[C@@H](C/N=C(\O)c1ccccc1)[C@H](Nc1ccc(C#N)c(Cl)c1)c1ccc(Cl)c(Cl)c1 (optimized conformer: 62.51295180246913 kcal/mol)

>  <smiles>  (79) 
CC(CNC(=O)c1ccccc1)C(Nc1ccc(C#N)c(Cl)c1)c1ccc(Cl)c(Cl)c1

>  <score_type>  (79) 
oracle

>  <origin>  (79) 
autodockgpu

>  <m_score__min__energy>  (79) 
-8.25

>  <m_primary>  (79) 
energy

>  <meeko>  (79) 
{"free_energy": -8.25, "intermolecular_energy": -11.24, "internal_energy": -2.59, "cluster_size": 6, "cluster_id": 1, "rank_in_cluster": 1}

>  <energy>  (79) 
-6.87

>  <cluster_rmsd>  (79) 
0.0

>  <rmsd>  (79) 
269.53

>  <cluster>  (79) 
8

$$$$
CBUCDBLHFQUVQW-FJZAIJRJNA-N
     RDKit          3D

 51 53  0  0  0  0  0  0  0  0999 V2000
  141.9240   77.2400  222.4240 H   0  0  0  0  0  0  0  0  0  0  0  0
  141.0650   76.7160  222.3180 O   0  0  0  0  0  0  0  0  0  0  0  0
  140.9670   75.5460  221.5570 C   0  0  0  0  0  0  0  0  0  0  0  0
  140.2790   74.5230  221.9740 N   0  0  0  0  0  0  0  0  0  0  0  0
  138.8670   74.2800  221.6860 C   0  0  0  0  0  0  0  0  0  0  0  0
  138.5178   75.0072  220.9382 H   0  0  0  0  0  0  0  0  0  0  0  0
  138.2863   74.3892  222.6138 H   0  0  0  0  0  0  0  0  0  0  0  0
  138.6760   72.8480  221.1350 C   0  0  2  0  0  0  0  0  0  0  0  0
  138.9786   72.8116  220.0781 H   0  0  0  0  0  0  0  0  0  0  0  0
  137.1860   72.4680  221.2230 C   0  0  0  0  0  0  0  0  0  0  0  0
  136.8887   72.3922  222.2794 H   0  0  0  0  0  0  0  0  0  0  0  0
  136.5806   73.2405  220.7263 H   0  0  0  0  0  0  0  0  0  0  0  0
  137.0245   71.4999  220.7263 H   0  0  0  0  0  0  0  0  0  0  0  0
  139.5960   71.8310  221.8960 C   0  0  1  0  0  0  0  0  0  0  0  0
  138.9907   70.9125  221.8992 H   0  0  0  0  0  0  0  0  0  0  0  0
  140.8940   71.4610  221.1790 C   0  0  0  0  0  0  0  0  0  0  0  0
  141.0040   70.3250  220.3500 C   0  0  0  0  0  0  0  0  0  0  0  0
  140.1320   69.6702  220.2052 H   0  0  0  0  0  0  0  0  0  0  0  0
  142.2090   70.0230  219.7110 C   0  0  0  0  0  0  0  0  0  0  0  0
  142.2823   69.1240  219.0814 H   0  0  0  0  0  0  0  0  0  0  0  0
  143.3210   70.8530  219.8650 C   0  0  0  0  0  0  0  0  0  0  0  0
  144.8190   70.4360  219.0430 Cl  0  0  0  0  0  0  0  0  0  0  0  0
  143.2200   72.0090  220.6530 C   0  0  0  0  0  0  0  0  0  0  0  0
  144.5850   73.0990  220.8520 Cl  0  0  0  0  0  0  0  0  0  0  0  0
  142.0130   72.3120  221.2910 C   0  0  0  0  0  0  0  0  0  0  0  0
  141.9350   73.2306  221.8910 H   0  0  0  0  0  0  0  0  0  0  0  0
  139.8500   72.2050  223.3030 N   0  0  0  0  0  0  0  0  0  0  0  0
  140.0250   73.2230  223.4680 H   0  0  0  0  0  0  0  0  0  0  0  0
  140.0840   71.3260  224.4280 C   0  0  0  0  0  0  0  0  0  0  0  0
  139.8980   69.9310  224.3570 C   0  0  0  0  0  0  0  0  0  0  0  0
  139.5574   69.4727  223.4168 H   0  0  0  0  0  0  0  0  0  0  0  0
  140.1430   69.1260  225.4720 C   0  0  0  0  0  0  0  0  0  0  0  0
  140.0015   68.0374  225.4017 H   0  0  0  0  0  0  0  0  0  0  0  0
  140.5670   69.6950  226.6770 C   0  0  0  0  0  0  0  0  0  0  0  0
  140.8150   68.8410  227.8130 C   0  0  0  0  0  0  0  0  0  0  0  0
  141.0130   68.1560  228.7240 N   0  0  0  0  0  0  0  0  0  0  0  0
  140.7370   71.0870  226.7670 C   0  0  0  0  0  0  0  0  0  0  0  0
  141.2610   71.8530  228.2620 Cl  0  0  0  0  0  0  0  0  0  0  0  0
  140.4890   71.8900  225.6480 C   0  0  0  0  0  0  0  0  0  0  0  0
  140.6134   72.9802  225.7257 H   0  0  0  0  0  0  0  0  0  0  0  0
  141.6650   75.4770  220.2500 C   0  0  0  0  0  0  0  0  0  0  0  0
  142.8400   76.2190  220.0150 C   0  0  0  0  0  0  0  0  0  0  0  0
  143.2492   76.8596  220.8101 H   0  0  0  0  0  0  0  0  0  0  0  0
  143.4900   76.1470  218.7780 C   0  0  0  0  0  0  0  0  0  0  0  0
  144.4068   76.7294  218.6041 H   0  0  0  0  0  0  0  0  0  0  0  0
  142.9760   75.3370  217.7650 C   0  0  0  0  0  0  0  0  0  0  0  0
  143.4881   75.2815  216.7931 H   0  0  0  0  0  0  0  0  0  0  0  0
  141.8130   74.5970  217.9830 C   0  0  0  0  0  0  0  0  0  0  0  0
  141.4099   73.9592  217.1826 H   0  0  0  0  0  0  0  0  0  0  0  0
  141.1590   74.6650  219.2180 C   0  0  0  0  0  0  0  0  0  0  0  0
  140.2426   74.0795  219.3835 H   0  0  0  0  0  0  0  0  0  0  0  0
  1  2  1  0
  2  3  1  0
  3  4  2  0
  4  5  1  0
  5  6  1  0
  5  7  1  0
  5  8  1  0
  8  9  1  6
  8 10  1  0
 10 11  1  0
 10 12  1  0
 10 13  1  0
  8 14  1  0
 14 15  1  1
 14 16  1  0
 16 17  2  0
 17 18  1  0
 17 19  1  0
 19 20  1  0
 19 21  2  0
 21 22  1  0
 21 23  1  0
 23 24  1  0
 23 25  2  0
 25 26  1  0
 14 27  1  0
 27 28  1  0
 27 29  1  0
 29 30  2  0
 30 31  1  0
 30 32  1  0
 32 33  1  0
 32 34  2  0
 34 35  1  0
 35 36  3  0
 34 37  1  0
 37 38  1  0
 37 39  2  0
 39 40  1  0
  3 41  1  0
 41 42  2  0
 42 43  1  0
 42 44  1  0
 44 45  1  0
 44 46  2  0
 46 47  1  0
 46 48  1  0
 48 49  1  0
 48 50  2  0
 50 51  1  0
 25 16  1  0
 39 29  1  0
 50 41  1  0
M  END
>  <UniqueID>  (80) 
31

>  <SMILES>  (80) 
C[C@@H](C/N=C(\O)c1ccccc1)[C@H](Nc1ccc(C#N)c(Cl)c1)c1ccc(Cl)c(Cl)c1

>  <Energy>  (80) 
62.51295180246913

>  <Genealogy>  (80) 
CC(CN=C(O)c1ccccc1)C(Nc1ccc(C#N)c(Cl)c1)c1ccc(Cl)c(Cl)c1 (tautomer)
C[C@@H](CN=C(O)c1ccccc1)[C@H](Nc1ccc(C#N)c(Cl)c1)c1ccc(Cl)c(Cl)c1 (chirality)
C[C@@H](C/N=C(\O)c1ccccc1)[C@H](Nc1ccc(C#N)c(Cl)c1)c1ccc(Cl)c(Cl)c1 (cis-trans isomerization)
C[C@@H](C/N=C(\O)c1ccccc1)[C@H](Nc1ccc(C#N)c(Cl)c1)c1ccc(Cl)c(Cl)c1 (3D coordinates assigned)
C[C@@H](C/N=C(\O)c1ccccc1)[C@H](Nc1ccc(C#N)c(Cl)c1)c1ccc(Cl)c(Cl)c1 (optimized conformer: 62.51295180246913 kcal/mol)

>  <smiles>  (80) 
CC(CNC(=O)c1ccccc1)C(Nc1ccc(C#N)c(Cl)c1)c1ccc(Cl)c(Cl)c1

>  <score_type>  (80) 
oracle

>  <origin>  (80) 
autodockgpu

>  <m_score__min__energy>  (80) 
-8.25

>  <m_primary>  (80) 
energy

>  <meeko>  (80) 
{"free_energy": -7.32, "intermolecular_energy": -10.3, "internal_energy": -2.79, "cluster_size": 5, "cluster_id": 2, "rank_in_cluster": 4}

>  <energy>  (80) 
-6.85

>  <cluster_rmsd>  (80) 
0.1

>  <rmsd>  (80) 
269.55

>  <cluster>  (80) 
8

$$$$
