VUCFXBNYDUPJQC-YBFXNURJNA-N
     RDKit          3D

 47 49  0  0  0  0  0  0  0  0999 V2000
  138.4080   80.3780  223.5550 H   0  0  0  0  0  0  0  0  0  0  0  0
  139.3080   80.2300  223.9970 O   0  0  0  0  0  0  0  0  0  0  0  0
  140.3080   79.4650  223.4010 C   0  0  0  0  0  0  0  0  0  0  0  0
  141.5400   79.9630  223.3650 C   0  0  0  0  0  0  0  0  0  0  0  0
  142.6250   80.9020  223.8810 C   0  0  0  0  0  0  0  0  0  0  0  0
  142.5280   81.9858  223.7195 H   0  0  0  0  0  0  0  0  0  0  0  0
  143.0754   81.0804  224.8686 H   0  0  0  0  0  0  0  0  0  0  0  0
  142.9490   80.0520  222.7830 C   0  0  0  0  0  0  0  0  0  0  0  0
  143.0986   80.4869  221.7838 H   0  0  0  0  0  0  0  0  0  0  0  0
  143.7461   79.3184  222.5921 H   0  0  0  0  0  0  0  0  0  0  0  0
  140.0030   78.1360  222.8140 C   0  0  0  0  0  0  0  0  0  0  0  0
  138.6730   77.7050  222.7040 C   0  0  0  0  0  0  0  0  0  0  0  0
  137.8579   78.3537  223.0573 H   0  0  0  0  0  0  0  0  0  0  0  0
  138.3760   76.4600  222.1500 C   0  0  0  0  0  0  0  0  0  0  0  0
  137.3273   76.1388  222.0655 H   0  0  0  0  0  0  0  0  0  0  0  0
  139.3950   75.6160  221.7010 C   0  0  0  0  0  0  0  0  0  0  0  0
  139.0270   74.3740  221.1640 O   0  0  0  0  0  0  0  0  0  0  0  0
  138.7560   73.2380  221.9340 C   0  0  0  0  0  0  0  0  0  0  0  0
  137.7169   72.9858  222.1922 H   0  0  0  0  0  0  0  0  0  0  0  0
  139.7530   72.4600  222.3560 C   0  0  0  0  0  0  0  0  0  0  0  0
  139.4640   71.1380  222.8320 N   0  0  0  0  0  0  0  0  0  0  0  0
  139.6600   70.6600  224.1710 C   0  0  0  0  0  0  0  0  0  0  0  0
  140.2040   71.4840  225.1730 C   0  0  0  0  0  0  0  0  0  0  0  0
  140.4714   72.5243  224.9356 H   0  0  0  0  0  0  0  0  0  0  0  0
  140.4100   70.9930  226.4750 C   0  0  0  0  0  0  0  0  0  0  0  0
  140.9610   71.8450  227.4960 N   0  0  0  0  0  0  0  0  0  0  0  0
  140.4990   71.8300  228.6560 O   0  0  0  0  0  0  0  0  0  0  0  0
  142.0040   72.6960  227.2110 O   0  0  0  0  0  0  0  0  0  0  0  0
  140.0790   69.6570  226.7590 C   0  0  0  0  0  0  0  0  0  0  0  0
  140.2272   69.2615  227.7747 H   0  0  0  0  0  0  0  0  0  0  0  0
  139.5630   68.8280  225.7600 C   0  0  0  0  0  0  0  0  0  0  0  0
  139.3138   67.7819  225.9914 H   0  0  0  0  0  0  0  0  0  0  0  0
  139.3620   69.3210  224.4690 C   0  0  0  0  0  0  0  0  0  0  0  0
  138.7150   68.2460  223.2360 Cl  0  0  0  0  0  0  0  0  0  0  0  0
  141.0620   72.9410  222.3670 O   0  0  0  0  0  0  0  0  0  0  0  0
  141.3300   73.7790  221.8650 H   0  0  0  0  0  0  0  0  0  0  0  0
  140.7380   76.0470  221.7620 C   0  0  0  0  0  0  0  0  0  0  0  0
  141.7440   75.2270  221.2210 O   0  0  0  0  0  0  0  0  0  0  0  0
  142.4960   75.4900  220.0360 C   0  0  0  0  0  0  0  0  0  0  0  0
  142.6831   76.5713  219.9603 H   0  0  0  0  0  0  0  0  0  0  0  0
  141.9192   75.1392  219.1676 H   0  0  0  0  0  0  0  0  0  0  0  0
  143.8320   74.7520  220.0660 C   0  0  0  0  0  0  0  0  0  0  0  0
  144.1351   74.5846  221.1101 H   0  0  0  0  0  0  0  0  0  0  0  0
  143.7275   73.7836  219.5548 H   0  0  0  0  0  0  0  0  0  0  0  0
  144.5961   75.3560  219.5548 H   0  0  0  0  0  0  0  0  0  0  0  0
  141.0310   77.2980  222.3440 C   0  0  0  0  0  0  0  0  0  0  0  0
  142.0782   77.6232  222.4317 H   0  0  0  0  0  0  0  0  0  0  0  0
  1  2  1  0
  2  3  1  0
  3  4  2  3
  4  5  1  0
  5  6  1  0
  5  7  1  0
  5  8  1  0
  8  9  1  0
  8 10  1  0
  3 11  1  0
 11 12  2  0
 12 13  1  0
 12 14  1  0
 14 15  1  0
 14 16  2  0
 16 17  1  0
 17 18  1  0
 18 19  1  0
 18 20  2  0
 20 21  1  0
 21 22  1  0
 22 23  2  0
 23 24  1  0
 23 25  1  0
 25 26  1  0
 26 27  2  0
 26 28  1  0
 25 29  2  0
 29 30  1  0
 29 31  1  0
 31 32  1  0
 31 33  2  0
 33 34  1  0
 20 35  1  0
 35 36  1  0
 16 37  1  0
 37 38  1  0
 38 39  1  0
 39 40  1  0
 39 41  1  0
 39 42  1  0
 42 43  1  0
 42 44  1  0
 42 45  1  0
 37 46  2  0
 46 47  1  0
  8  4  1  0
 46 11  1  0
 33 22  1  0
M  CHG  3  21  -1  26   1  28  -1
M  END
>  <UniqueID>  (1) 
5

>  <SMILES>  (1) 
CCOc1cc(C(O)=C2CC2)ccc1O/C=C(/O)[N-]c1cc([N+](=O)[O-])ccc1Cl

>  <Energy>  (1) 
224.174327246418

>  <Genealogy>  (1) 
CCOc1cc(C(=O)C2CC2)ccc1OCC(=O)[N-]c1cc([N+](=O)[O-])ccc1Cl (protonated)
CCOc1cc(C(O)=C2CC2)ccc1OC=C(O)[N-]c1cc([N+](=O)[O-])ccc1Cl (tautomer)
CCOc1cc(C(O)=C2CC2)ccc1O/C=C(/O)[N-]c1cc([N+](=O)[O-])ccc1Cl (cis-trans isomerization)
CCOc1cc(C(O)=C2CC2)ccc1O/C=C(/O)[N-]c1cc([N+](=O)[O-])ccc1Cl (3D coordinates assigned)
CCOc1cc(C(O)=C2CC2)ccc1O/C=C(/O)[N-]c1cc([N+](=O)[O-])ccc1Cl (nonaromatic ring conformer: 224.174327246418 kcal/mol)

>  <smiles>  (1) 
CCOc1cc(C(=O)C2CC2)ccc1OCC(=O)Nc1cc([N+](=O)[O-])ccc1Cl

>  <score_type>  (1) 
oracle

>  <origin>  (1) 
autodockgpu

>  <m_score__min__energy>  (1) 
-6.5599999999999996

>  <m_primary>  (1) 
energy

>  <meeko>  (1) 
{"free_energy": -6.56, "intermolecular_energy": -10.14, "internal_energy": -2.36, "cluster_size": 6, "cluster_id": 1, "rank_in_cluster": 1}

>  <energy>  (1) 
-6.56

>  <cluster_rmsd>  (1) 
0.0

>  <rmsd>  (1) 
272.39

>  <cluster>  (1) 
1

$$$$
VUCFXBNYDUPJQC-YBFXNURJNA-N
     RDKit          3D

 47 49  0  0  0  0  0  0  0  0999 V2000
  145.5620   71.4970  220.4840 H   0  0  0  0  0  0  0  0  0  0  0  0
  145.3090   70.9760  219.6530 O   0  0  0  0  0  0  0  0  0  0  0  0
  144.1020   70.2880  219.5510 C   0  0  0  0  0  0  0  0  0  0  0  0
  144.1440   68.9710  219.3730 C   0  0  0  0  0  0  0  0  0  0  0  0
  143.4830   67.6400  219.0300 C   0  0  0  0  0  0  0  0  0  0  0  0
  142.7546   67.1991  219.7265 H   0  0  0  0  0  0  0  0  0  0  0  0
  142.8976   67.2754  218.1730 H   0  0  0  0  0  0  0  0  0  0  0  0
  144.8710   67.6280  219.3600 C   0  0  0  0  0  0  0  0  0  0  0  0
  145.2011   67.1786  220.3082 H   0  0  0  0  0  0  0  0  0  0  0  0
  145.7741   67.2512  218.8575 H   0  0  0  0  0  0  0  0  0  0  0  0
  142.8050   71.0070  219.6280 C   0  0  0  0  0  0  0  0  0  0  0  0
  142.2090   71.5070  218.4620 C   0  0  0  0  0  0  0  0  0  0  0  0
  142.7074   71.3675  217.4914 H   0  0  0  0  0  0  0  0  0  0  0  0
  140.9890   72.1800  218.5230 C   0  0  0  0  0  0  0  0  0  0  0  0
  140.5316   72.5616  217.5983 H   0  0  0  0  0  0  0  0  0  0  0  0
  140.3410   72.3750  219.7460 C   0  0  0  0  0  0  0  0  0  0  0  0
  139.1220   73.0690  219.7380 O   0  0  0  0  0  0  0  0  0  0  0  0
  138.9600   74.3710  220.2220 C   0  0  0  0  0  0  0  0  0  0  0  0
  138.1475   75.0029  219.8340 H   0  0  0  0  0  0  0  0  0  0  0  0
  139.7870   74.8490  221.1520 C   0  0  0  0  0  0  0  0  0  0  0  0
  140.8990   75.6630  220.7560 N   0  0  0  0  0  0  0  0  0  0  0  0
  141.9920   75.2540  219.9190 C   0  0  0  0  0  0  0  0  0  0  0  0
  143.1340   74.6330  220.4550 C   0  0  0  0  0  0  0  0  0  0  0  0
  143.1899   74.4374  221.5360 H   0  0  0  0  0  0  0  0  0  0  0  0
  144.2060   74.2590  219.6240 C   0  0  0  0  0  0  0  0  0  0  0  0
  145.3690   73.6170  220.1800 N   0  0  0  0  0  0  0  0  0  0  0  0
  145.4490   73.3970  221.4060 O   0  0  0  0  0  0  0  0  0  0  0  0
  146.4160   73.2410  219.3700 O   0  0  0  0  0  0  0  0  0  0  0  0
  144.1260   74.5290  218.2470 C   0  0  0  0  0  0  0  0  0  0  0  0
  144.9525   74.2340  217.5837 H   0  0  0  0  0  0  0  0  0  0  0  0
  143.0050   75.1690  217.7150 C   0  0  0  0  0  0  0  0  0  0  0  0
  142.9565   75.3820  216.6369 H   0  0  0  0  0  0  0  0  0  0  0  0
  141.9450   75.5400  218.5450 C   0  0  0  0  0  0  0  0  0  0  0  0
  140.5510   76.3490  217.8410 Cl  0  0  0  0  0  0  0  0  0  0  0  0
  139.5920   74.5300  222.4960 O   0  0  0  0  0  0  0  0  0  0  0  0
  139.0930   73.6960  222.7820 H   0  0  0  0  0  0  0  0  0  0  0  0
  140.9010   71.8430  220.9270 C   0  0  0  0  0  0  0  0  0  0  0  0
  140.1920   71.9660  222.1360 O   0  0  0  0  0  0  0  0  0  0  0  0
  140.6690   71.6010  223.4310 C   0  0  0  0  0  0  0  0  0  0  0  0
  141.0911   72.4896  223.9231 H   0  0  0  0  0  0  0  0  0  0  0  0
  141.4389   70.8238  223.3161 H   0  0  0  0  0  0  0  0  0  0  0  0
  139.5380   71.0440  224.2900 C   0  0  0  0  0  0  0  0  0  0  0  0
  139.7900   71.1681  225.3535 H   0  0  0  0  0  0  0  0  0  0  0  0
  138.6074   71.5869  224.0679 H   0  0  0  0  0  0  0  0  0  0  0  0
  139.4010   69.9754  224.0679 H   0  0  0  0  0  0  0  0  0  0  0  0
  142.1460   71.1830  220.8590 C   0  0  0  0  0  0  0  0  0  0  0  0
  142.6081   70.8006  221.7810 H   0  0  0  0  0  0  0  0  0  0  0  0
  1  2  1  0
  2  3  1  0
  3  4  2  3
  4  5  1  0
  5  6  1  0
  5  7  1  0
  5  8  1  0
  8  9  1  0
  8 10  1  0
  3 11  1  0
 11 12  2  0
 12 13  1  0
 12 14  1  0
 14 15  1  0
 14 16  2  0
 16 17  1  0
 17 18  1  0
 18 19  1  0
 18 20  2  0
 20 21  1  0
 21 22  1  0
 22 23  2  0
 23 24  1  0
 23 25  1  0
 25 26  1  0
 26 27  2  0
 26 28  1  0
 25 29  2  0
 29 30  1  0
 29 31  1  0
 31 32  1  0
 31 33  2  0
 33 34  1  0
 20 35  1  0
 35 36  1  0
 16 37  1  0
 37 38  1  0
 38 39  1  0
 39 40  1  0
 39 41  1  0
 39 42  1  0
 42 43  1  0
 42 44  1  0
 42 45  1  0
 37 46  2  0
 46 47  1  0
  8  4  1  0
 46 11  1  0
 33 22  1  0
M  CHG  3  21  -1  26   1  28  -1
M  END
>  <UniqueID>  (2) 
5

>  <SMILES>  (2) 
CCOc1cc(C(O)=C2CC2)ccc1O/C=C(/O)[N-]c1cc([N+](=O)[O-])ccc1Cl

>  <Energy>  (2) 
224.174327246418

>  <Genealogy>  (2) 
CCOc1cc(C(=O)C2CC2)ccc1OCC(=O)[N-]c1cc([N+](=O)[O-])ccc1Cl (protonated)
CCOc1cc(C(O)=C2CC2)ccc1OC=C(O)[N-]c1cc([N+](=O)[O-])ccc1Cl (tautomer)
CCOc1cc(C(O)=C2CC2)ccc1O/C=C(/O)[N-]c1cc([N+](=O)[O-])ccc1Cl (cis-trans isomerization)
CCOc1cc(C(O)=C2CC2)ccc1O/C=C(/O)[N-]c1cc([N+](=O)[O-])ccc1Cl (3D coordinates assigned)
CCOc1cc(C(O)=C2CC2)ccc1O/C=C(/O)[N-]c1cc([N+](=O)[O-])ccc1Cl (nonaromatic ring conformer: 224.174327246418 kcal/mol)

>  <smiles>  (2) 
CCOc1cc(C(=O)C2CC2)ccc1OCC(=O)Nc1cc([N+](=O)[O-])ccc1Cl

>  <score_type>  (2) 
oracle

>  <origin>  (2) 
autodockgpu

>  <m_score__min__energy>  (2) 
-6.5599999999999996

>  <m_primary>  (2) 
energy

>  <meeko>  (2) 
{"free_energy": -3.6, "intermolecular_energy": -7.18, "internal_energy": -4.56, "cluster_size": 7, "cluster_id": 6, "rank_in_cluster": 7}

>  <energy>  (2) 
-6.49

>  <cluster_rmsd>  (2) 
0.28

>  <rmsd>  (2) 
272.41

>  <cluster>  (2) 
1

$$$$
VUCFXBNYDUPJQC-YBFXNURJNA-N
     RDKit          3D

 47 49  0  0  0  0  0  0  0  0999 V2000
  145.8940   71.5540  220.5060 H   0  0  0  0  0  0  0  0  0  0  0  0
  145.5160   71.0980  219.6840 O   0  0  0  0  0  0  0  0  0  0  0  0
  144.3180   70.3880  219.7170 C   0  0  0  0  0  0  0  0  0  0  0  0
  144.3690   69.0660  219.5890 C   0  0  0  0  0  0  0  0  0  0  0  0
  145.1220   67.7400  219.6380 C   0  0  0  0  0  0  0  0  0  0  0  0
  145.8884   67.5216  218.8797 H   0  0  0  0  0  0  0  0  0  0  0  0
  145.7229   67.2300  220.4053 H   0  0  0  0  0  0  0  0  0  0  0  0
  143.7430   67.7080  219.2760 C   0  0  0  0  0  0  0  0  0  0  0  0
  143.4574   67.4659  218.2417 H   0  0  0  0  0  0  0  0  0  0  0  0
  142.8647   67.1646  219.6546 H   0  0  0  0  0  0  0  0  0  0  0  0
  143.0200   71.0900  219.8800 C   0  0  0  0  0  0  0  0  0  0  0  0
  142.1960   71.3110  218.7670 C   0  0  0  0  0  0  0  0  0  0  0  0
  142.5165   70.9647  217.7733 H   0  0  0  0  0  0  0  0  0  0  0  0
  140.9740   71.9660  218.9100 C   0  0  0  0  0  0  0  0  0  0  0  0
  140.3373   72.1276  218.0277 H   0  0  0  0  0  0  0  0  0  0  0  0
  140.5480   72.4200  220.1620 C   0  0  0  0  0  0  0  0  0  0  0  0
  139.3120   73.0790  220.2330 O   0  0  0  0  0  0  0  0  0  0  0  0
  139.1720   74.4590  220.4070 C   0  0  0  0  0  0  0  0  0  0  0  0
  138.3729   74.9994  219.8784 H   0  0  0  0  0  0  0  0  0  0  0  0
  140.0030   75.1230  221.2110 C   0  0  0  0  0  0  0  0  0  0  0  0
  141.1060   75.8440  220.6460 N   0  0  0  0  0  0  0  0  0  0  0  0
  142.1790   75.2810  219.8760 C   0  0  0  0  0  0  0  0  0  0  0  0
  143.3160   74.7290  220.4950 C   0  0  0  0  0  0  0  0  0  0  0  0
  143.3827   74.7103  221.5928 H   0  0  0  0  0  0  0  0  0  0  0  0
  144.3680   74.2010  219.7250 C   0  0  0  0  0  0  0  0  0  0  0  0
  145.5250   73.6320  220.3660 N   0  0  0  0  0  0  0  0  0  0  0  0
  145.5120   73.3720  221.5870 O   0  0  0  0  0  0  0  0  0  0  0  0
  146.6680   73.3700  219.6460 O   0  0  0  0  0  0  0  0  0  0  0  0
  144.2760   74.2470  218.3230 C   0  0  0  0  0  0  0  0  0  0  0  0
  145.0872   73.8295  217.7084 H   0  0  0  0  0  0  0  0  0  0  0  0
  143.1620   74.8190  217.7050 C   0  0  0  0  0  0  0  0  0  0  0  0
  143.1046   74.8580  216.6072 H   0  0  0  0  0  0  0  0  0  0  0  0
  142.1200   75.3420  218.4750 C   0  0  0  0  0  0  0  0  0  0  0  0
  140.7340   76.0570  217.6620 Cl  0  0  0  0  0  0  0  0  0  0  0  0
  139.8190   75.0870  222.5930 O   0  0  0  0  0  0  0  0  0  0  0  0
  139.5640   74.2350  223.0790 H   0  0  0  0  0  0  0  0  0  0  0  0
  141.3410   72.1700  221.3030 C   0  0  0  0  0  0  0  0  0  0  0  0
  140.8560   72.5500  222.5680 O   0  0  0  0  0  0  0  0  0  0  0  0
  139.9590   71.7970  223.3840 C   0  0  0  0  0  0  0  0  0  0  0  0
  139.6133   70.9168  222.8221 H   0  0  0  0  0  0  0  0  0  0  0  0
  139.1071   72.4380  223.6548 H   0  0  0  0  0  0  0  0  0  0  0  0
  140.6480   71.3340  224.6640 C   0  0  0  0  0  0  0  0  0  0  0  0
  140.0914   71.7080  225.5359 H   0  0  0  0  0  0  0  0  0  0  0  0
  140.6738   70.2346  224.6895 H   0  0  0  0  0  0  0  0  0  0  0  0
  141.6756   71.7255  224.6895 H   0  0  0  0  0  0  0  0  0  0  0  0
  142.5860   71.5270  221.1450 C   0  0  0  0  0  0  0  0  0  0  0  0
  143.2274   71.3647  222.0238 H   0  0  0  0  0  0  0  0  0  0  0  0
  1  2  1  0
  2  3  1  0
  3  4  2  3
  4  5  1  0
  5  6  1  0
  5  7  1  0
  5  8  1  0
  8  9  1  0
  8 10  1  0
  3 11  1  0
 11 12  2  0
 12 13  1  0
 12 14  1  0
 14 15  1  0
 14 16  2  0
 16 17  1  0
 17 18  1  0
 18 19  1  0
 18 20  2  0
 20 21  1  0
 21 22  1  0
 22 23  2  0
 23 24  1  0
 23 25  1  0
 25 26  1  0
 26 27  2  0
 26 28  1  0
 25 29  2  0
 29 30  1  0
 29 31  1  0
 31 32  1  0
 31 33  2  0
 33 34  1  0
 20 35  1  0
 35 36  1  0
 16 37  1  0
 37 38  1  0
 38 39  1  0
 39 40  1  0
 39 41  1  0
 39 42  1  0
 42 43  1  0
 42 44  1  0
 42 45  1  0
 37 46  2  0
 46 47  1  0
  8  4  1  0
 46 11  1  0
 33 22  1  0
M  CHG  3  21  -1  26   1  28  -1
M  END
>  <UniqueID>  (3) 
5

>  <SMILES>  (3) 
CCOc1cc(C(O)=C2CC2)ccc1O/C=C(/O)[N-]c1cc([N+](=O)[O-])ccc1Cl

>  <Energy>  (3) 
224.174327246418

>  <Genealogy>  (3) 
CCOc1cc(C(=O)C2CC2)ccc1OCC(=O)[N-]c1cc([N+](=O)[O-])ccc1Cl (protonated)
CCOc1cc(C(O)=C2CC2)ccc1OC=C(O)[N-]c1cc([N+](=O)[O-])ccc1Cl (tautomer)
CCOc1cc(C(O)=C2CC2)ccc1O/C=C(/O)[N-]c1cc([N+](=O)[O-])ccc1Cl (cis-trans isomerization)
CCOc1cc(C(O)=C2CC2)ccc1O/C=C(/O)[N-]c1cc([N+](=O)[O-])ccc1Cl (3D coordinates assigned)
CCOc1cc(C(O)=C2CC2)ccc1O/C=C(/O)[N-]c1cc([N+](=O)[O-])ccc1Cl (nonaromatic ring conformer: 224.174327246418 kcal/mol)

>  <smiles>  (3) 
CCOc1cc(C(=O)C2CC2)ccc1OCC(=O)Nc1cc([N+](=O)[O-])ccc1Cl

>  <score_type>  (3) 
oracle

>  <origin>  (3) 
autodockgpu

>  <m_score__min__energy>  (3) 
-6.5599999999999996

>  <m_primary>  (3) 
energy

>  <meeko>  (3) 
{"free_energy": -4.02, "intermolecular_energy": -7.6, "internal_energy": -4.63, "cluster_size": 7, "cluster_id": 6, "rank_in_cluster": 4}

>  <energy>  (3) 
-6.41

>  <cluster_rmsd>  (3) 
1.39

>  <rmsd>  (3) 
272.23

>  <cluster>  (3) 
1

$$$$
VUCFXBNYDUPJQC-YBFXNURJNA-N
     RDKit          3D

 47 49  0  0  0  0  0  0  0  0999 V2000
  138.4710   80.7170  223.2430 H   0  0  0  0  0  0  0  0  0  0  0  0
  139.0750   80.1590  223.8350 O   0  0  0  0  0  0  0  0  0  0  0  0
  140.1650   79.4560  223.3250 C   0  0  0  0  0  0  0  0  0  0  0  0
  141.3610   80.0350  223.3720 C   0  0  0  0  0  0  0  0  0  0  0  0
  142.8440   80.0860  223.0170 C   0  0  0  0  0  0  0  0  0  0  0  0
  143.5356   79.3572  223.4648 H   0  0  0  0  0  0  0  0  0  0  0  0
  143.4054   80.0514  222.0717 H   0  0  0  0  0  0  0  0  0  0  0  0
  142.3160   81.1410  223.8180 C   0  0  0  0  0  0  0  0  0  0  0  0
  142.6042   81.2168  224.8769 H   0  0  0  0  0  0  0  0  0  0  0  0
  142.3103   82.2376  223.7323 H   0  0  0  0  0  0  0  0  0  0  0  0
  139.9940   78.1030  222.7390 C   0  0  0  0  0  0  0  0  0  0  0  0
  141.0910   77.4410  222.1680 C   0  0  0  0  0  0  0  0  0  0  0  0
  142.0767   77.9292  222.1542 H   0  0  0  0  0  0  0  0  0  0  0  0
  140.9410   76.1690  221.6180 C   0  0  0  0  0  0  0  0  0  0  0  0
  141.8121   75.6610  221.1786 H   0  0  0  0  0  0  0  0  0  0  0  0
  139.6970   75.5310  221.6180 C   0  0  0  0  0  0  0  0  0  0  0  0
  139.6140   74.2570  221.0400 O   0  0  0  0  0  0  0  0  0  0  0  0
  140.0620   73.0860  221.6610 C   0  0  0  0  0  0  0  0  0  0  0  0
  141.1163   72.7858  221.5697 H   0  0  0  0  0  0  0  0  0  0  0  0
  139.2150   72.3330  222.3630 C   0  0  0  0  0  0  0  0  0  0  0  0
  139.6260   71.0330  222.8060 N   0  0  0  0  0  0  0  0  0  0  0  0
  139.7650   70.6090  224.1710 C   0  0  0  0  0  0  0  0  0  0  0  0
  140.3010   71.4620  225.1530 C   0  0  0  0  0  0  0  0  0  0  0  0
  140.6061   72.4828  224.8794 H   0  0  0  0  0  0  0  0  0  0  0  0
  140.4510   71.0230  226.4820 C   0  0  0  0  0  0  0  0  0  0  0  0
  140.9940   71.9040  227.4830 N   0  0  0  0  0  0  0  0  0  0  0  0
  141.9920   72.6110  227.2330 O   0  0  0  0  0  0  0  0  0  0  0  0
  140.4260   71.9790  228.7330 O   0  0  0  0  0  0  0  0  0  0  0  0
  140.0710   69.7110  226.8130 C   0  0  0  0  0  0  0  0  0  0  0  0
  140.1735   69.3575  227.8496 H   0  0  0  0  0  0  0  0  0  0  0  0
  139.5640   68.8530  225.8340 C   0  0  0  0  0  0  0  0  0  0  0  0
  139.2783   67.8252  226.1022 H   0  0  0  0  0  0  0  0  0  0  0  0
  139.4180   69.2930  224.5170 C   0  0  0  0  0  0  0  0  0  0  0  0
  138.7800   68.1840  223.3110 Cl  0  0  0  0  0  0  0  0  0  0  0  0
  137.9250   72.7930  222.6320 O   0  0  0  0  0  0  0  0  0  0  0  0
  137.7160   73.7800  222.7230 H   0  0  0  0  0  0  0  0  0  0  0  0
  138.5890   76.1610  222.2250 C   0  0  0  0  0  0  0  0  0  0  0  0
  137.3670   75.4690  222.3010 O   0  0  0  0  0  0  0  0  0  0  0  0
  136.1650   75.9480  222.9070 C   0  0  0  0  0  0  0  0  0  0  0  0
  135.3503   75.9126  222.1688 H   0  0  0  0  0  0  0  0  0  0  0  0
  136.3295   76.9811  223.2472 H   0  0  0  0  0  0  0  0  0  0  0  0
  135.7860   75.0920  224.1110 C   0  0  0  0  0  0  0  0  0  0  0  0
  136.0263   75.6348  225.0370 H   0  0  0  0  0  0  0  0  0  0  0  0
  134.7079   74.8755  224.0822 H   0  0  0  0  0  0  0  0  0  0  0  0
  136.3504   74.1483  224.0822 H   0  0  0  0  0  0  0  0  0  0  0  0
  138.7440   77.4570  222.7600 C   0  0  0  0  0  0  0  0  0  0  0  0
  137.8758   77.9697  223.1997 H   0  0  0  0  0  0  0  0  0  0  0  0
  1  2  1  0
  2  3  1  0
  3  4  2  3
  4  5  1  0
  5  6  1  0
  5  7  1  0
  5  8  1  0
  8  9  1  0
  8 10  1  0
  3 11  1  0
 11 12  2  0
 12 13  1  0
 12 14  1  0
 14 15  1  0
 14 16  2  0
 16 17  1  0
 17 18  1  0
 18 19  1  0
 18 20  2  0
 20 21  1  0
 21 22  1  0
 22 23  2  0
 23 24  1  0
 23 25  1  0
 25 26  1  0
 26 27  2  0
 26 28  1  0
 25 29  2  0
 29 30  1  0
 29 31  1  0
 31 32  1  0
 31 33  2  0
 33 34  1  0
 20 35  1  0
 35 36  1  0
 16 37  1  0
 37 38  1  0
 38 39  1  0
 39 40  1  0
 39 41  1  0
 39 42  1  0
 42 43  1  0
 42 44  1  0
 42 45  1  0
 37 46  2  0
 46 47  1  0
  8  4  1  0
 46 11  1  0
 33 22  1  0
M  CHG  3  21  -1  26   1  28  -1
M  END
>  <UniqueID>  (4) 
5

>  <SMILES>  (4) 
CCOc1cc(C(O)=C2CC2)ccc1O/C=C(/O)[N-]c1cc([N+](=O)[O-])ccc1Cl

>  <Energy>  (4) 
224.174327246418

>  <Genealogy>  (4) 
CCOc1cc(C(=O)C2CC2)ccc1OCC(=O)[N-]c1cc([N+](=O)[O-])ccc1Cl (protonated)
CCOc1cc(C(O)=C2CC2)ccc1OC=C(O)[N-]c1cc([N+](=O)[O-])ccc1Cl (tautomer)
CCOc1cc(C(O)=C2CC2)ccc1O/C=C(/O)[N-]c1cc([N+](=O)[O-])ccc1Cl (cis-trans isomerization)
CCOc1cc(C(O)=C2CC2)ccc1O/C=C(/O)[N-]c1cc([N+](=O)[O-])ccc1Cl (3D coordinates assigned)
CCOc1cc(C(O)=C2CC2)ccc1O/C=C(/O)[N-]c1cc([N+](=O)[O-])ccc1Cl (nonaromatic ring conformer: 224.174327246418 kcal/mol)

>  <smiles>  (4) 
CCOc1cc(C(=O)C2CC2)ccc1OCC(=O)Nc1cc([N+](=O)[O-])ccc1Cl

>  <score_type>  (4) 
oracle

>  <origin>  (4) 
autodockgpu

>  <m_score__min__energy>  (4) 
-6.5599999999999996

>  <m_primary>  (4) 
energy

>  <meeko>  (4) 
{"free_energy": -6.41, "intermolecular_energy": -9.99, "internal_energy": -2.21, "cluster_size": 6, "cluster_id": 1, "rank_in_cluster": 3}

>  <energy>  (4) 
-6.36

>  <cluster_rmsd>  (4) 
1.39

>  <rmsd>  (4) 
272.26

>  <cluster>  (4) 
1

$$$$
VUCFXBNYDUPJQC-YBFXNURJNA-N
     RDKit          3D

 47 49  0  0  0  0  0  0  0  0999 V2000
  145.6770   71.6140  220.4970 H   0  0  0  0  0  0  0  0  0  0  0  0
  145.3530   71.0840  219.6970 O   0  0  0  0  0  0  0  0  0  0  0  0
  144.1390   70.4000  219.7070 C   0  0  0  0  0  0  0  0  0  0  0  0
  144.1630   69.0790  219.5560 C   0  0  0  0  0  0  0  0  0  0  0  0
  143.4760   67.7470  219.2700 C   0  0  0  0  0  0  0  0  0  0  0  0
  142.7740   67.3282  220.0061 H   0  0  0  0  0  0  0  0  0  0  0  0
  142.8515   67.3702  218.4466 H   0  0  0  0  0  0  0  0  0  0  0  0
  144.8760   67.7280  219.5410 C   0  0  0  0  0  0  0  0  0  0  0  0
  145.2419   67.2954  220.4838 H   0  0  0  0  0  0  0  0  0  0  0  0
  145.7532   67.3315  219.0088 H   0  0  0  0  0  0  0  0  0  0  0  0
  142.8550   71.1270  219.8710 C   0  0  0  0  0  0  0  0  0  0  0  0
  142.0270   71.3490  218.7610 C   0  0  0  0  0  0  0  0  0  0  0  0
  142.3340   70.9850  217.7694 H   0  0  0  0  0  0  0  0  0  0  0  0
  140.8170   72.0280  218.9050 C   0  0  0  0  0  0  0  0  0  0  0  0
  140.1767   72.1906  218.0255 H   0  0  0  0  0  0  0  0  0  0  0  0
  140.4090   72.5040  220.1540 C   0  0  0  0  0  0  0  0  0  0  0  0
  139.1870   73.1860  220.2260 O   0  0  0  0  0  0  0  0  0  0  0  0
  139.0720   74.5710  220.3920 C   0  0  0  0  0  0  0  0  0  0  0  0
  138.3333   75.1343  219.8029 H   0  0  0  0  0  0  0  0  0  0  0  0
  139.8550   75.2100  221.2620 C   0  0  0  0  0  0  0  0  0  0  0  0
  140.9890   75.9450  220.7840 N   0  0  0  0  0  0  0  0  0  0  0  0
  142.0300   75.4370  219.9360 C   0  0  0  0  0  0  0  0  0  0  0  0
  143.1790   74.8260  220.4710 C   0  0  0  0  0  0  0  0  0  0  0  0
  143.2793   74.7162  221.5609 H   0  0  0  0  0  0  0  0  0  0  0  0
  144.2010   74.3540  219.6270 C   0  0  0  0  0  0  0  0  0  0  0  0
  145.3710   73.7240  220.1820 N   0  0  0  0  0  0  0  0  0  0  0  0
  145.4690   73.5360  221.4120 O   0  0  0  0  0  0  0  0  0  0  0  0
  146.4040   73.3230  219.3670 O   0  0  0  0  0  0  0  0  0  0  0  0
  144.0650   74.5140  218.2370 C   0  0  0  0  0  0  0  0  0  0  0  0
  144.8514   74.1406  217.5646 H   0  0  0  0  0  0  0  0  0  0  0  0
  142.9380   75.1440  217.7040 C   0  0  0  0  0  0  0  0  0  0  0  0
  142.8455   75.2713  216.6153 H   0  0  0  0  0  0  0  0  0  0  0  0
  141.9280   75.6130  218.5470 C   0  0  0  0  0  0  0  0  0  0  0  0
  140.5250   76.4040  217.8410 Cl  0  0  0  0  0  0  0  0  0  0  0  0
  139.5910   75.1330  222.6300 O   0  0  0  0  0  0  0  0  0  0  0  0
  139.3670   74.2560  223.0850 H   0  0  0  0  0  0  0  0  0  0  0  0
  141.2060   72.2550  221.2920 C   0  0  0  0  0  0  0  0  0  0  0  0
  140.7390   72.6580  222.5560 O   0  0  0  0  0  0  0  0  0  0  0  0
  140.0010   71.8530  223.4760 C   0  0  0  0  0  0  0  0  0  0  0  0
  139.1177   72.4129  223.8170 H   0  0  0  0  0  0  0  0  0  0  0  0
  140.6508   71.6064  224.3286 H   0  0  0  0  0  0  0  0  0  0  0  0
  139.5460   70.5540  222.8160 C   0  0  0  0  0  0  0  0  0  0  0  0
  139.2885   69.8188  223.5926 H   0  0  0  0  0  0  0  0  0  0  0  0
  138.6632   70.7505  222.1899 H   0  0  0  0  0  0  0  0  0  0  0  0
  140.3585   70.1567  222.1899 H   0  0  0  0  0  0  0  0  0  0  0  0
  142.4390   71.5870  221.1330 C   0  0  0  0  0  0  0  0  0  0  0  0
  143.0840   71.4238  222.0090 H   0  0  0  0  0  0  0  0  0  0  0  0
  1  2  1  0
  2  3  1  0
  3  4  2  3
  4  5  1  0
  5  6  1  0
  5  7  1  0
  5  8  1  0
  8  9  1  0
  8 10  1  0
  3 11  1  0
 11 12  2  0
 12 13  1  0
 12 14  1  0
 14 15  1  0
 14 16  2  0
 16 17  1  0
 17 18  1  0
 18 19  1  0
 18 20  2  0
 20 21  1  0
 21 22  1  0
 22 23  2  0
 23 24  1  0
 23 25  1  0
 25 26  1  0
 26 27  2  0
 26 28  1  0
 25 29  2  0
 29 30  1  0
 29 31  1  0
 31 32  1  0
 31 33  2  0
 33 34  1  0
 20 35  1  0
 35 36  1  0
 16 37  1  0
 37 38  1  0
 38 39  1  0
 39 40  1  0
 39 41  1  0
 39 42  1  0
 42 43  1  0
 42 44  1  0
 42 45  1  0
 37 46  2  0
 46 47  1  0
  8  4  1  0
 46 11  1  0
 33 22  1  0
M  CHG  3  21  -1  26   1  28  -1
M  END
>  <UniqueID>  (5) 
5

>  <SMILES>  (5) 
CCOc1cc(C(O)=C2CC2)ccc1O/C=C(/O)[N-]c1cc([N+](=O)[O-])ccc1Cl

>  <Energy>  (5) 
224.174327246418

>  <Genealogy>  (5) 
CCOc1cc(C(=O)C2CC2)ccc1OCC(=O)[N-]c1cc([N+](=O)[O-])ccc1Cl (protonated)
CCOc1cc(C(O)=C2CC2)ccc1OC=C(O)[N-]c1cc([N+](=O)[O-])ccc1Cl (tautomer)
CCOc1cc(C(O)=C2CC2)ccc1O/C=C(/O)[N-]c1cc([N+](=O)[O-])ccc1Cl (cis-trans isomerization)
CCOc1cc(C(O)=C2CC2)ccc1O/C=C(/O)[N-]c1cc([N+](=O)[O-])ccc1Cl (3D coordinates assigned)
CCOc1cc(C(O)=C2CC2)ccc1O/C=C(/O)[N-]c1cc([N+](=O)[O-])ccc1Cl (nonaromatic ring conformer: 224.174327246418 kcal/mol)

>  <smiles>  (5) 
CCOc1cc(C(=O)C2CC2)ccc1OCC(=O)Nc1cc([N+](=O)[O-])ccc1Cl

>  <score_type>  (5) 
oracle

>  <origin>  (5) 
autodockgpu

>  <m_score__min__energy>  (5) 
-6.5599999999999996

>  <m_primary>  (5) 
energy

>  <meeko>  (5) 
{"free_energy": -3.93, "intermolecular_energy": -7.51, "internal_energy": -4.64, "cluster_size": 7, "cluster_id": 6, "rank_in_cluster": 5}

>  <energy>  (5) 
-6.22

>  <cluster_rmsd>  (5) 
0.49

>  <rmsd>  (5) 
272.33

>  <cluster>  (5) 
1

$$$$
VUCFXBNYDUPJQC-YBFXNURJNA-N
     RDKit          3D

 47 49  0  0  0  0  0  0  0  0999 V2000
  133.1510   73.4290  227.9540 H   0  0  0  0  0  0  0  0  0  0  0  0
  133.3960   73.0770  227.0360 O   0  0  0  0  0  0  0  0  0  0  0  0
  133.9910   73.8840  226.0690 C   0  0  0  0  0  0  0  0  0  0  0  0
  133.8190   75.1990  226.1580 C   0  0  0  0  0  0  0  0  0  0  0  0
  133.4870   76.4600  226.9500 C   0  0  0  0  0  0  0  0  0  0  0  0
  132.4585   76.6250  227.3035 H   0  0  0  0  0  0  0  0  0  0  0  0
  133.8854   76.9117  227.8704 H   0  0  0  0  0  0  0  0  0  0  0  0
  133.7880   76.6060  225.5630 C   0  0  0  0  0  0  0  0  0  0  0  0
  132.9891   76.8816  224.8588 H   0  0  0  0  0  0  0  0  0  0  0  0
  134.5088   77.2134  224.9959 H   0  0  0  0  0  0  0  0  0  0  0  0
  134.7870   73.2900  224.9640 C   0  0  0  0  0  0  0  0  0  0  0  0
  134.8410   71.8980  224.8080 C   0  0  0  0  0  0  0  0  0  0  0  0
  134.2948   71.2487  225.5080 H   0  0  0  0  0  0  0  0  0  0  0  0
  135.5820   71.3300  223.7720 C   0  0  0  0  0  0  0  0  0  0  0  0
  135.6107   70.2361  223.6600 H   0  0  0  0  0  0  0  0  0  0  0  0
  136.2890   72.1360  222.8740 C   0  0  0  0  0  0  0  0  0  0  0  0
  137.0210   71.5000  221.8620 O   0  0  0  0  0  0  0  0  0  0  0  0
  138.2660   71.9420  221.4010 C   0  0  0  0  0  0  0  0  0  0  0  0
  138.4334   72.0812  220.3228 H   0  0  0  0  0  0  0  0  0  0  0  0
  139.2500   72.1950  222.2640 C   0  0  0  0  0  0  0  0  0  0  0  0
  139.9590   71.1040  222.8660 N   0  0  0  0  0  0  0  0  0  0  0  0
  139.9440   70.7500  224.2570 C   0  0  0  0  0  0  0  0  0  0  0  0
  140.6760   71.4830  225.2090 C   0  0  0  0  0  0  0  0  0  0  0  0
  141.2610   72.3580  224.8894 H   0  0  0  0  0  0  0  0  0  0  0  0
  140.6680   71.1090  226.5660 C   0  0  0  0  0  0  0  0  0  0  0  0
  141.4150   71.8680  227.5350 N   0  0  0  0  0  0  0  0  0  0  0  0
  141.7860   73.0330  227.2810 O   0  0  0  0  0  0  0  0  0  0  0  0
  141.7370   71.3220  228.7560 O   0  0  0  0  0  0  0  0  0  0  0  0
  139.9280   69.9800  226.9560 C   0  0  0  0  0  0  0  0  0  0  0  0
  139.9052   69.6813  228.0144 H   0  0  0  0  0  0  0  0  0  0  0  0
  139.2210   69.2340  226.0100 C   0  0  0  0  0  0  0  0  0  0  0  0
  138.6516   68.3475  226.3260 H   0  0  0  0  0  0  0  0  0  0  0  0
  139.2340   69.6090  224.6640 C   0  0  0  0  0  0  0  0  0  0  0  0
  138.3360   68.6450  223.5010 Cl  0  0  0  0  0  0  0  0  0  0  0  0
  139.5620   73.5120  222.6050 O   0  0  0  0  0  0  0  0  0  0  0  0
  138.8450   74.1970  222.8130 H   0  0  0  0  0  0  0  0  0  0  0  0
  136.2140   73.5410  222.9870 C   0  0  0  0  0  0  0  0  0  0  0  0
  136.8530   74.3390  222.0210 O   0  0  0  0  0  0  0  0  0  0  0  0
  136.7850   75.7620  221.9280 C   0  0  0  0  0  0  0  0  0  0  0  0
  135.8194   76.1036  222.3292 H   0  0  0  0  0  0  0  0  0  0  0  0
  136.8853   76.0507  220.8713 H   0  0  0  0  0  0  0  0  0  0  0  0
  137.9140   76.4130  222.7210 C   0  0  0  0  0  0  0  0  0  0  0  0
  137.7183   76.3002  223.7976 H   0  0  0  0  0  0  0  0  0  0  0  0
  138.8675   75.9261  222.4686 H   0  0  0  0  0  0  0  0  0  0  0  0
  137.9702   77.4822  222.4686 H   0  0  0  0  0  0  0  0  0  0  0  0
  135.4800   74.1050  224.0510 C   0  0  0  0  0  0  0  0  0  0  0  0
  135.4490   75.1983  224.1685 H   0  0  0  0  0  0  0  0  0  0  0  0
  1  2  1  0
  2  3  1  0
  3  4  2  3
  4  5  1  0
  5  6  1  0
  5  7  1  0
  5  8  1  0
  8  9  1  0
  8 10  1  0
  3 11  1  0
 11 12  2  0
 12 13  1  0
 12 14  1  0
 14 15  1  0
 14 16  2  0
 16 17  1  0
 17 18  1  0
 18 19  1  0
 18 20  2  0
 20 21  1  0
 21 22  1  0
 22 23  2  0
 23 24  1  0
 23 25  1  0
 25 26  1  0
 26 27  2  0
 26 28  1  0
 25 29  2  0
 29 30  1  0
 29 31  1  0
 31 32  1  0
 31 33  2  0
 33 34  1  0
 20 35  1  0
 35 36  1  0
 16 37  1  0
 37 38  1  0
 38 39  1  0
 39 40  1  0
 39 41  1  0
 39 42  1  0
 42 43  1  0
 42 44  1  0
 42 45  1  0
 37 46  2  0
 46 47  1  0
  8  4  1  0
 46 11  1  0
 33 22  1  0
M  CHG  3  21  -1  26   1  28  -1
M  END
>  <UniqueID>  (6) 
5

>  <SMILES>  (6) 
CCOc1cc(C(O)=C2CC2)ccc1O/C=C(/O)[N-]c1cc([N+](=O)[O-])ccc1Cl

>  <Energy>  (6) 
224.174327246418

>  <Genealogy>  (6) 
CCOc1cc(C(=O)C2CC2)ccc1OCC(=O)[N-]c1cc([N+](=O)[O-])ccc1Cl (protonated)
CCOc1cc(C(O)=C2CC2)ccc1OC=C(O)[N-]c1cc([N+](=O)[O-])ccc1Cl (tautomer)
CCOc1cc(C(O)=C2CC2)ccc1O/C=C(/O)[N-]c1cc([N+](=O)[O-])ccc1Cl (cis-trans isomerization)
CCOc1cc(C(O)=C2CC2)ccc1O/C=C(/O)[N-]c1cc([N+](=O)[O-])ccc1Cl (3D coordinates assigned)
CCOc1cc(C(O)=C2CC2)ccc1O/C=C(/O)[N-]c1cc([N+](=O)[O-])ccc1Cl (nonaromatic ring conformer: 224.174327246418 kcal/mol)

>  <smiles>  (6) 
CCOc1cc(C(=O)C2CC2)ccc1OCC(=O)Nc1cc([N+](=O)[O-])ccc1Cl

>  <score_type>  (6) 
oracle

>  <origin>  (6) 
autodockgpu

>  <m_score__min__energy>  (6) 
-6.5599999999999996

>  <m_primary>  (6) 
energy

>  <meeko>  (6) 
{"free_energy": -6.01, "intermolecular_energy": -9.59, "internal_energy": -2.42, "cluster_size": 2, "cluster_id": 2, "rank_in_cluster": 1}

>  <energy>  (6) 
-6.19

>  <cluster_rmsd>  (6) 
1.82

>  <rmsd>  (6) 
271.87

>  <cluster>  (6) 
1

$$$$
VUCFXBNYDUPJQC-YBFXNURJNA-N
     RDKit          3D

 47 49  0  0  0  0  0  0  0  0999 V2000
  145.9030   71.5520  220.5180 H   0  0  0  0  0  0  0  0  0  0  0  0
  145.5510   71.0600  219.7050 O   0  0  0  0  0  0  0  0  0  0  0  0
  144.3560   70.3440  219.7330 C   0  0  0  0  0  0  0  0  0  0  0  0
  144.4160   69.0220  219.6040 C   0  0  0  0  0  0  0  0  0  0  0  0
  143.7780   67.6740  219.2820 C   0  0  0  0  0  0  0  0  0  0  0  0
  143.0253   67.2518  219.9641 H   0  0  0  0  0  0  0  0  0  0  0  0
  143.2299   67.2749  218.4158 H   0  0  0  0  0  0  0  0  0  0  0  0
  145.1510   67.6850  219.6670 C   0  0  0  0  0  0  0  0  0  0  0  0
  145.4457   67.2716  220.6428 H   0  0  0  0  0  0  0  0  0  0  0  0
  146.0758   67.2981  219.2142 H   0  0  0  0  0  0  0  0  0  0  0  0
  143.0540   71.0380  219.8930 C   0  0  0  0  0  0  0  0  0  0  0  0
  142.1930   71.1770  218.7950 C   0  0  0  0  0  0  0  0  0  0  0  0
  142.4874   70.7721  217.8155 H   0  0  0  0  0  0  0  0  0  0  0  0
  140.9660   71.8250  218.9360 C   0  0  0  0  0  0  0  0  0  0  0  0
  140.3001   71.9225  218.0659 H   0  0  0  0  0  0  0  0  0  0  0  0
  140.5720   72.3520  220.1690 C   0  0  0  0  0  0  0  0  0  0  0  0
  139.3300   72.9980  220.2380 O   0  0  0  0  0  0  0  0  0  0  0  0
  139.1750   74.3840  220.3560 C   0  0  0  0  0  0  0  0  0  0  0  0
  138.3998   74.9007  219.7712 H   0  0  0  0  0  0  0  0  0  0  0  0
  139.9640   75.0800  221.1750 C   0  0  0  0  0  0  0  0  0  0  0  0
  141.0790   75.8030  220.6360 N   0  0  0  0  0  0  0  0  0  0  0  0
  142.1520   75.2470  219.8610 C   0  0  0  0  0  0  0  0  0  0  0  0
  143.2980   74.7080  220.4750 C   0  0  0  0  0  0  0  0  0  0  0  0
  143.3715   74.6938  221.5725 H   0  0  0  0  0  0  0  0  0  0  0  0
  144.3510   74.1870  219.7000 C   0  0  0  0  0  0  0  0  0  0  0  0
  145.5170   73.6310  220.3350 N   0  0  0  0  0  0  0  0  0  0  0  0
  145.5180   73.3870  221.5600 O   0  0  0  0  0  0  0  0  0  0  0  0
  146.6520   73.3630  219.6060 O   0  0  0  0  0  0  0  0  0  0  0  0
  144.2490   74.2280  218.2980 C   0  0  0  0  0  0  0  0  0  0  0  0
  145.0601   73.8166  217.6792 H   0  0  0  0  0  0  0  0  0  0  0  0
  143.1260   74.7870  217.6860 C   0  0  0  0  0  0  0  0  0  0  0  0
  143.0610   74.8207  216.5884 H   0  0  0  0  0  0  0  0  0  0  0  0
  142.0840   75.3040  218.4600 C   0  0  0  0  0  0  0  0  0  0  0  0
  140.6870   76.0030  217.6540 Cl  0  0  0  0  0  0  0  0  0  0  0  0
  139.7250   75.0770  222.5490 O   0  0  0  0  0  0  0  0  0  0  0  0
  139.5510   74.2200  223.0610 H   0  0  0  0  0  0  0  0  0  0  0  0
  141.4040   72.1860  221.2980 C   0  0  0  0  0  0  0  0  0  0  0  0
  140.9540   72.6390  222.5510 O   0  0  0  0  0  0  0  0  0  0  0  0
  140.3140   71.8450  223.5510 C   0  0  0  0  0  0  0  0  0  0  0  0
  139.6723   72.4911  224.1681 H   0  0  0  0  0  0  0  0  0  0  0  0
  141.0878   71.3686  224.1709 H   0  0  0  0  0  0  0  0  0  0  0  0
  139.4590   70.7540  222.9130 C   0  0  0  0  0  0  0  0  0  0  0  0
  138.9861   70.1505  223.7018 H   0  0  0  0  0  0  0  0  0  0  0  0
  138.6804   71.2165  222.2886 H   0  0  0  0  0  0  0  0  0  0  0  0
  140.0942   70.1085  222.2886 H   0  0  0  0  0  0  0  0  0  0  0  0
  142.6530   71.5490  221.1410 C   0  0  0  0  0  0  0  0  0  0  0  0
  143.3235   71.4504  222.0075 H   0  0  0  0  0  0  0  0  0  0  0  0
  1  2  1  0
  2  3  1  0
  3  4  2  3
  4  5  1  0
  5  6  1  0
  5  7  1  0
  5  8  1  0
  8  9  1  0
  8 10  1  0
  3 11  1  0
 11 12  2  0
 12 13  1  0
 12 14  1  0
 14 15  1  0
 14 16  2  0
 16 17  1  0
 17 18  1  0
 18 19  1  0
 18 20  2  0
 20 21  1  0
 21 22  1  0
 22 23  2  0
 23 24  1  0
 23 25  1  0
 25 26  1  0
 26 27  2  0
 26 28  1  0
 25 29  2  0
 29 30  1  0
 29 31  1  0
 31 32  1  0
 31 33  2  0
 33 34  1  0
 20 35  1  0
 35 36  1  0
 16 37  1  0
 37 38  1  0
 38 39  1  0
 39 40  1  0
 39 41  1  0
 39 42  1  0
 42 43  1  0
 42 44  1  0
 42 45  1  0
 37 46  2  0
 46 47  1  0
  8  4  1  0
 46 11  1  0
 33 22  1  0
M  CHG  3  21  -1  26   1  28  -1
M  END
>  <UniqueID>  (7) 
5

>  <SMILES>  (7) 
CCOc1cc(C(O)=C2CC2)ccc1O/C=C(/O)[N-]c1cc([N+](=O)[O-])ccc1Cl

>  <Energy>  (7) 
224.174327246418

>  <Genealogy>  (7) 
CCOc1cc(C(=O)C2CC2)ccc1OCC(=O)[N-]c1cc([N+](=O)[O-])ccc1Cl (protonated)
CCOc1cc(C(O)=C2CC2)ccc1OC=C(O)[N-]c1cc([N+](=O)[O-])ccc1Cl (tautomer)
CCOc1cc(C(O)=C2CC2)ccc1O/C=C(/O)[N-]c1cc([N+](=O)[O-])ccc1Cl (cis-trans isomerization)
CCOc1cc(C(O)=C2CC2)ccc1O/C=C(/O)[N-]c1cc([N+](=O)[O-])ccc1Cl (3D coordinates assigned)
CCOc1cc(C(O)=C2CC2)ccc1O/C=C(/O)[N-]c1cc([N+](=O)[O-])ccc1Cl (nonaromatic ring conformer: 224.174327246418 kcal/mol)

>  <smiles>  (7) 
CCOc1cc(C(=O)C2CC2)ccc1OCC(=O)Nc1cc([N+](=O)[O-])ccc1Cl

>  <score_type>  (7) 
oracle

>  <origin>  (7) 
autodockgpu

>  <m_score__min__energy>  (7) 
-6.5599999999999996

>  <m_primary>  (7) 
energy

>  <meeko>  (7) 
{"free_energy": -3.89, "intermolecular_energy": -7.47, "internal_energy": -4.67, "cluster_size": 7, "cluster_id": 6, "rank_in_cluster": 6}

>  <energy>  (7) 
-6.01

>  <cluster_rmsd>  (7) 
0.0

>  <rmsd>  (7) 
271.37

>  <cluster>  (7) 
2

$$$$
VUCFXBNYDUPJQC-YBFXNURJNA-N
     RDKit          3D

 47 49  0  0  0  0  0  0  0  0999 V2000
  142.8810   79.2010  219.6460 H   0  0  0  0  0  0  0  0  0  0  0  0
  142.1270   79.4530  220.2740 O   0  0  0  0  0  0  0  0  0  0  0  0
  141.7380   78.6310  221.3300 C   0  0  0  0  0  0  0  0  0  0  0  0
  141.8790   79.0930  222.5680 C   0  0  0  0  0  0  0  0  0  0  0  0
  142.3750   80.1370  223.5640 C   0  0  0  0  0  0  0  0  0  0  0  0
  143.4547   80.2487  223.7422 H   0  0  0  0  0  0  0  0  0  0  0  0
  142.2368   81.2236  223.6650 H   0  0  0  0  0  0  0  0  0  0  0  0
  141.6890   78.9980  224.0810 C   0  0  0  0  0  0  0  0  0  0  0  0
  142.2455   78.2408  224.6528 H   0  0  0  0  0  0  0  0  0  0  0  0
  140.8155   78.8626  224.7357 H   0  0  0  0  0  0  0  0  0  0  0  0
  141.1900   77.2740  221.0780 C   0  0  0  0  0  0  0  0  0  0  0  0
  141.8510   76.4020  220.2020 C   0  0  0  0  0  0  0  0  0  0  0  0
  142.7740   76.7281  219.7002 H   0  0  0  0  0  0  0  0  0  0  0  0
  141.3470   75.1240  219.9620 C   0  0  0  0  0  0  0  0  0  0  0  0
  141.8803   74.4494  219.2760 H   0  0  0  0  0  0  0  0  0  0  0  0
  140.1720   74.6900  220.5830 C   0  0  0  0  0  0  0  0  0  0  0  0
  139.7160   73.3980  220.2900 O   0  0  0  0  0  0  0  0  0  0  0  0
  140.1860   72.2400  220.9200 C   0  0  0  0  0  0  0  0  0  0  0  0
  140.6784   71.4550  220.3273 H   0  0  0  0  0  0  0  0  0  0  0  0
  140.0390   72.0850  222.2360 C   0  0  0  0  0  0  0  0  0  0  0  0
  139.9320   70.7640  222.7840 N   0  0  0  0  0  0  0  0  0  0  0  0
  139.9210   70.4250  224.1790 C   0  0  0  0  0  0  0  0  0  0  0  0
  140.4450   71.2970  225.1500 C   0  0  0  0  0  0  0  0  0  0  0  0
  140.8579   72.2689  224.8421 H   0  0  0  0  0  0  0  0  0  0  0  0
  140.4470   70.9400  226.5110 C   0  0  0  0  0  0  0  0  0  0  0  0
  140.9780   71.8410  227.5000 N   0  0  0  0  0  0  0  0  0  0  0  0
  140.4740   71.9030  228.6400 O   0  0  0  0  0  0  0  0  0  0  0  0
  142.0480   72.6540  227.2040 O   0  0  0  0  0  0  0  0  0  0  0  0
  139.9310   69.6880  226.8870 C   0  0  0  0  0  0  0  0  0  0  0  0
  139.9183   69.3988  227.9482 H   0  0  0  0  0  0  0  0  0  0  0  0
  139.4340   68.8080  225.9220 C   0  0  0  0  0  0  0  0  0  0  0  0
  139.0387   67.8277  226.2265 H   0  0  0  0  0  0  0  0  0  0  0  0
  139.4370   69.1680  224.5720 C   0  0  0  0  0  0  0  0  0  0  0  0
  138.8070   68.0330  223.3860 Cl  0  0  0  0  0  0  0  0  0  0  0  0
  139.9530   73.2010  223.0690 O   0  0  0  0  0  0  0  0  0  0  0  0
  139.1920   73.8670  222.9980 H   0  0  0  0  0  0  0  0  0  0  0  0
  139.5140   75.5360  221.5020 C   0  0  0  0  0  0  0  0  0  0  0  0
  138.3870   75.0520  222.1900 O   0  0  0  0  0  0  0  0  0  0  0  0
  137.2030   74.5200  221.5940 C   0  0  0  0  0  0  0  0  0  0  0  0
  137.4145   74.2533  220.5480 H   0  0  0  0  0  0  0  0  0  0  0  0
  136.4112   75.2820  221.6427 H   0  0  0  0  0  0  0  0  0  0  0  0
  136.7310   73.2770  222.3410 C   0  0  0  0  0  0  0  0  0  0  0  0
  136.7979   73.4531  223.4248 H   0  0  0  0  0  0  0  0  0  0  0  0
  135.6877   73.0595  222.0685 H   0  0  0  0  0  0  0  0  0  0  0  0
  137.3670   72.4219  222.0685 H   0  0  0  0  0  0  0  0  0  0  0  0
  140.0190   76.8350  221.7220 C   0  0  0  0  0  0  0  0  0  0  0  0
  139.4896   77.5139  222.4067 H   0  0  0  0  0  0  0  0  0  0  0  0
  1  2  1  0
  2  3  1  0
  3  4  2  3
  4  5  1  0
  5  6  1  0
  5  7  1  0
  5  8  1  0
  8  9  1  0
  8 10  1  0
  3 11  1  0
 11 12  2  0
 12 13  1  0
 12 14  1  0
 14 15  1  0
 14 16  2  0
 16 17  1  0
 17 18  1  0
 18 19  1  0
 18 20  2  0
 20 21  1  0
 21 22  1  0
 22 23  2  0
 23 24  1  0
 23 25  1  0
 25 26  1  0
 26 27  2  0
 26 28  1  0
 25 29  2  0
 29 30  1  0
 29 31  1  0
 31 32  1  0
 31 33  2  0
 33 34  1  0
 20 35  1  0
 35 36  1  0
 16 37  1  0
 37 38  1  0
 38 39  1  0
 39 40  1  0
 39 41  1  0
 39 42  1  0
 42 43  1  0
 42 44  1  0
 42 45  1  0
 37 46  2  0
 46 47  1  0
  8  4  1  0
 46 11  1  0
 33 22  1  0
M  CHG  3  21  -1  26   1  28  -1
M  END
>  <UniqueID>  (8) 
5

>  <SMILES>  (8) 
CCOc1cc(C(O)=C2CC2)ccc1O/C=C(/O)[N-]c1cc([N+](=O)[O-])ccc1Cl

>  <Energy>  (8) 
224.174327246418

>  <Genealogy>  (8) 
CCOc1cc(C(=O)C2CC2)ccc1OCC(=O)[N-]c1cc([N+](=O)[O-])ccc1Cl (protonated)
CCOc1cc(C(O)=C2CC2)ccc1OC=C(O)[N-]c1cc([N+](=O)[O-])ccc1Cl (tautomer)
CCOc1cc(C(O)=C2CC2)ccc1O/C=C(/O)[N-]c1cc([N+](=O)[O-])ccc1Cl (cis-trans isomerization)
CCOc1cc(C(O)=C2CC2)ccc1O/C=C(/O)[N-]c1cc([N+](=O)[O-])ccc1Cl (3D coordinates assigned)
CCOc1cc(C(O)=C2CC2)ccc1O/C=C(/O)[N-]c1cc([N+](=O)[O-])ccc1Cl (nonaromatic ring conformer: 224.174327246418 kcal/mol)

>  <smiles>  (8) 
CCOc1cc(C(=O)C2CC2)ccc1OCC(=O)Nc1cc([N+](=O)[O-])ccc1Cl

>  <score_type>  (8) 
oracle

>  <origin>  (8) 
autodockgpu

>  <m_score__min__energy>  (8) 
-6.5599999999999996

>  <m_primary>  (8) 
energy

>  <meeko>  (8) 
{"free_energy": -6.19, "intermolecular_energy": -9.77, "internal_energy": -2.21, "cluster_size": 6, "cluster_id": 1, "rank_in_cluster": 6}

>  <energy>  (8) 
-5.6

>  <cluster_rmsd>  (8) 
1.16

>  <rmsd>  (8) 
271.14

>  <cluster>  (8) 
2

$$$$
VUCFXBNYDUPJQC-YBFXNURJNA-N
     RDKit          3D

 47 49  0  0  0  0  0  0  0  0999 V2000
  145.6900   71.6290  220.5140 H   0  0  0  0  0  0  0  0  0  0  0  0
  145.3400   71.1210  219.7110 O   0  0  0  0  0  0  0  0  0  0  0  0
  144.1160   70.4560  219.7330 C   0  0  0  0  0  0  0  0  0  0  0  0
  144.1180   69.1350  219.5850 C   0  0  0  0  0  0  0  0  0  0  0  0
  143.4040   67.8100  219.3340 C   0  0  0  0  0  0  0  0  0  0  0  0
  142.7300   67.4016  220.1014 H   0  0  0  0  0  0  0  0  0  0  0  0
  142.7400   67.4377  218.5400 H   0  0  0  0  0  0  0  0  0  0  0  0
  144.8150   67.7760  219.5440 C   0  0  0  0  0  0  0  0  0  0  0  0
  145.2168   67.3423  220.4716 H   0  0  0  0  0  0  0  0  0  0  0  0
  145.6638   67.3680  218.9757 H   0  0  0  0  0  0  0  0  0  0  0  0
  142.8450   71.2040  219.9050 C   0  0  0  0  0  0  0  0  0  0  0  0
  142.0470   71.4980  218.7910 C   0  0  0  0  0  0  0  0  0  0  0  0
  142.3675   71.1753  217.7894 H   0  0  0  0  0  0  0  0  0  0  0  0
  140.8490   72.1970  218.9430 C   0  0  0  0  0  0  0  0  0  0  0  0
  140.2320   72.4169  218.0593 H   0  0  0  0  0  0  0  0  0  0  0  0
  140.4240   72.6210  220.2050 C   0  0  0  0  0  0  0  0  0  0  0  0
  139.2160   73.3270  220.2860 O   0  0  0  0  0  0  0  0  0  0  0  0
  139.1280   74.7090  220.4870 C   0  0  0  0  0  0  0  0  0  0  0  0
  138.3576   75.2918  219.9609 H   0  0  0  0  0  0  0  0  0  0  0  0
  139.9750   75.3210  221.3140 C   0  0  0  0  0  0  0  0  0  0  0  0
  141.0970   76.0340  220.7770 N   0  0  0  0  0  0  0  0  0  0  0  0
  142.1170   75.4890  219.9260 C   0  0  0  0  0  0  0  0  0  0  0  0
  143.2680   74.8800  220.4580 C   0  0  0  0  0  0  0  0  0  0  0  0
  143.3875   74.8009  221.5486 H   0  0  0  0  0  0  0  0  0  0  0  0
  144.2680   74.3710  219.6090 C   0  0  0  0  0  0  0  0  0  0  0  0
  145.4410   73.7420  220.1610 N   0  0  0  0  0  0  0  0  0  0  0  0
  146.3760   73.3790  219.4190 O   0  0  0  0  0  0  0  0  0  0  0  0
  145.5470   73.5260  221.5160 O   0  0  0  0  0  0  0  0  0  0  0  0
  144.1090   74.4930  218.2180 C   0  0  0  0  0  0  0  0  0  0  0  0
  144.8787   74.0913  217.5426 H   0  0  0  0  0  0  0  0  0  0  0  0
  142.9800   75.1210  217.6880 C   0  0  0  0  0  0  0  0  0  0  0  0
  142.8691   75.2177  216.5979 H   0  0  0  0  0  0  0  0  0  0  0  0
  141.9910   75.6270  218.5340 C   0  0  0  0  0  0  0  0  0  0  0  0
  140.5860   76.4150  217.8310 Cl  0  0  0  0  0  0  0  0  0  0  0  0
  139.7890   75.2390  222.6950 O   0  0  0  0  0  0  0  0  0  0  0  0
  139.5130   74.3760  223.1490 H   0  0  0  0  0  0  0  0  0  0  0  0
  141.1910   72.2990  221.3460 C   0  0  0  0  0  0  0  0  0  0  0  0
  140.7050   72.6510  222.6180 O   0  0  0  0  0  0  0  0  0  0  0  0
  139.9150   71.8250  223.4740 C   0  0  0  0  0  0  0  0  0  0  0  0
  139.6886   70.8814  222.9560 H   0  0  0  0  0  0  0  0  0  0  0  0
  138.9856   72.3595  223.7199 H   0  0  0  0  0  0  0  0  0  0  0  0
  140.6600   71.5180  224.7700 C   0  0  0  0  0  0  0  0  0  0  0  0
  140.0247   71.7798  225.6290 H   0  0  0  0  0  0  0  0  0  0  0  0
  140.9040   70.4461  224.8076 H   0  0  0  0  0  0  0  0  0  0  0  0
  141.5883   72.1069  224.8076 H   0  0  0  0  0  0  0  0  0  0  0  0
  142.4110   71.6110  221.1800 C   0  0  0  0  0  0  0  0  0  0  0  0
  143.0323   71.3894  222.0603 H   0  0  0  0  0  0  0  0  0  0  0  0
  1  2  1  0
  2  3  1  0
  3  4  2  3
  4  5  1  0
  5  6  1  0
  5  7  1  0
  5  8  1  0
  8  9  1  0
  8 10  1  0
  3 11  1  0
 11 12  2  0
 12 13  1  0
 12 14  1  0
 14 15  1  0
 14 16  2  0
 16 17  1  0
 17 18  1  0
 18 19  1  0
 18 20  2  0
 20 21  1  0
 21 22  1  0
 22 23  2  0
 23 24  1  0
 23 25  1  0
 25 26  1  0
 26 27  2  0
 26 28  1  0
 25 29  2  0
 29 30  1  0
 29 31  1  0
 31 32  1  0
 31 33  2  0
 33 34  1  0
 20 35  1  0
 35 36  1  0
 16 37  1  0
 37 38  1  0
 38 39  1  0
 39 40  1  0
 39 41  1  0
 39 42  1  0
 42 43  1  0
 42 44  1  0
 42 45  1  0
 37 46  2  0
 46 47  1  0
  8  4  1  0
 46 11  1  0
 33 22  1  0
M  CHG  3  21  -1  26   1  28  -1
M  END
>  <UniqueID>  (9) 
5

>  <SMILES>  (9) 
CCOc1cc(C(O)=C2CC2)ccc1O/C=C(/O)[N-]c1cc([N+](=O)[O-])ccc1Cl

>  <Energy>  (9) 
224.174327246418

>  <Genealogy>  (9) 
CCOc1cc(C(=O)C2CC2)ccc1OCC(=O)[N-]c1cc([N+](=O)[O-])ccc1Cl (protonated)
CCOc1cc(C(O)=C2CC2)ccc1OC=C(O)[N-]c1cc([N+](=O)[O-])ccc1Cl (tautomer)
CCOc1cc(C(O)=C2CC2)ccc1O/C=C(/O)[N-]c1cc([N+](=O)[O-])ccc1Cl (cis-trans isomerization)
CCOc1cc(C(O)=C2CC2)ccc1O/C=C(/O)[N-]c1cc([N+](=O)[O-])ccc1Cl (3D coordinates assigned)
CCOc1cc(C(O)=C2CC2)ccc1O/C=C(/O)[N-]c1cc([N+](=O)[O-])ccc1Cl (nonaromatic ring conformer: 224.174327246418 kcal/mol)

>  <smiles>  (9) 
CCOc1cc(C(=O)C2CC2)ccc1OCC(=O)Nc1cc([N+](=O)[O-])ccc1Cl

>  <score_type>  (9) 
oracle

>  <origin>  (9) 
autodockgpu

>  <m_score__min__energy>  (9) 
-6.5599999999999996

>  <m_primary>  (9) 
energy

>  <meeko>  (9) 
{"free_energy": -4.03, "intermolecular_energy": -7.61, "internal_energy": -4.61, "cluster_size": 7, "cluster_id": 6, "rank_in_cluster": 3}

>  <energy>  (9) 
-5.8

>  <cluster_rmsd>  (9) 
0.0

>  <rmsd>  (9) 
271.73

>  <cluster>  (9) 
3

$$$$
VUCFXBNYDUPJQC-YBFXNURJNA-N
     RDKit          3D

 47 49  0  0  0  0  0  0  0  0999 V2000
  140.9740   68.3360  227.0190 H   0  0  0  0  0  0  0  0  0  0  0  0
  140.2770   68.7240  226.3950 O   0  0  0  0  0  0  0  0  0  0  0  0
  140.2250   70.0840  226.0960 C   0  0  0  0  0  0  0  0  0  0  0  0
  140.7550   70.9370  226.9670 C   0  0  0  0  0  0  0  0  0  0  0  0
  141.4140   72.2690  227.3120 C   0  0  0  0  0  0  0  0  0  0  0  0
  142.4436   72.4684  226.9801 H   0  0  0  0  0  0  0  0  0  0  0  0
  141.1454   73.3219  227.1409 H   0  0  0  0  0  0  0  0  0  0  0  0
  141.1820   71.3470  228.3750 C   0  0  0  0  0  0  0  0  0  0  0  0
  142.0344   70.8427  228.8536 H   0  0  0  0  0  0  0  0  0  0  0  0
  140.6647   71.4102  229.3437 H   0  0  0  0  0  0  0  0  0  0  0  0
  139.5880   70.5660  224.8450 C   0  0  0  0  0  0  0  0  0  0  0  0
  138.4690   69.9000  224.3250 C   0  0  0  0  0  0  0  0  0  0  0  0
  138.0677   69.0180  224.8456 H   0  0  0  0  0  0  0  0  0  0  0  0
  137.8610   70.3480  223.1520 C   0  0  0  0  0  0  0  0  0  0  0  0
  136.9807   69.8179  222.7594 H   0  0  0  0  0  0  0  0  0  0  0  0
  138.3570   71.4620  222.4700 C   0  0  0  0  0  0  0  0  0  0  0  0
  137.7040   71.8520  221.2920 O   0  0  0  0  0  0  0  0  0  0  0  0
  136.4990   72.5640  221.2650 C   0  0  0  0  0  0  0  0  0  0  0  0
  135.8260   72.4693  220.4001 H   0  0  0  0  0  0  0  0  0  0  0  0
  136.1640   73.3560  222.2830 C   0  0  0  0  0  0  0  0  0  0  0  0
  134.8760   73.2120  222.8960 N   0  0  0  0  0  0  0  0  0  0  0  0
  134.5920   72.5050  224.1130 C   0  0  0  0  0  0  0  0  0  0  0  0
  134.5340   71.1000  224.1490 C   0  0  0  0  0  0  0  0  0  0  0  0
  134.7261   70.5241  223.2317 H   0  0  0  0  0  0  0  0  0  0  0  0
  134.2330   70.4230  225.3450 C   0  0  0  0  0  0  0  0  0  0  0  0
  134.1810   68.9850  225.3750 N   0  0  0  0  0  0  0  0  0  0  0  0
  134.6870   68.3110  224.4540 O   0  0  0  0  0  0  0  0  0  0  0  0
  133.5700   68.3270  226.4170 O   0  0  0  0  0  0  0  0  0  0  0  0
  133.9740   71.1740  226.5050 C   0  0  0  0  0  0  0  0  0  0  0  0
  133.7453   70.6585  227.4494 H   0  0  0  0  0  0  0  0  0  0  0  0
  134.0050   72.5690  226.4670 C   0  0  0  0  0  0  0  0  0  0  0  0
  133.7938   73.1461  227.3793 H   0  0  0  0  0  0  0  0  0  0  0  0
  134.3030   73.2360  225.2760 C   0  0  0  0  0  0  0  0  0  0  0  0
  134.3280   74.9940  225.2650 Cl  0  0  0  0  0  0  0  0  0  0  0  0
  137.0480   74.3410  222.7250 O   0  0  0  0  0  0  0  0  0  0  0  0
  138.0470   74.1820  222.7760 H   0  0  0  0  0  0  0  0  0  0  0  0
  139.4560   72.1730  222.9980 C   0  0  0  0  0  0  0  0  0  0  0  0
  139.8850   73.3470  222.3520 O   0  0  0  0  0  0  0  0  0  0  0  0
  140.6430   73.4110  221.1430 C   0  0  0  0  0  0  0  0  0  0  0  0
  141.1275   74.3961  221.0731 H   0  0  0  0  0  0  0  0  0  0  0  0
  139.9627   73.2569  220.2924 H   0  0  0  0  0  0  0  0  0  0  0  0
  141.7130   72.3250  221.1150 C   0  0  0  0  0  0  0  0  0  0  0  0
  141.9837   72.0503  222.1452 H   0  0  0  0  0  0  0  0  0  0  0  0
  141.3238   71.4403  220.5898 H   0  0  0  0  0  0  0  0  0  0  0  0
  142.6034   72.7010  220.5898 H   0  0  0  0  0  0  0  0  0  0  0  0
  140.0780   71.7010  224.1730 C   0  0  0  0  0  0  0  0  0  0  0  0
  140.9586   72.2277  224.5695 H   0  0  0  0  0  0  0  0  0  0  0  0
  1  2  1  0
  2  3  1  0
  3  4  2  3
  4  5  1  0
  5  6  1  0
  5  7  1  0
  5  8  1  0
  8  9  1  0
  8 10  1  0
  3 11  1  0
 11 12  2  0
 12 13  1  0
 12 14  1  0
 14 15  1  0
 14 16  2  0
 16 17  1  0
 17 18  1  0
 18 19  1  0
 18 20  2  0
 20 21  1  0
 21 22  1  0
 22 23  2  0
 23 24  1  0
 23 25  1  0
 25 26  1  0
 26 27  2  0
 26 28  1  0
 25 29  2  0
 29 30  1  0
 29 31  1  0
 31 32  1  0
 31 33  2  0
 33 34  1  0
 20 35  1  0
 35 36  1  0
 16 37  1  0
 37 38  1  0
 38 39  1  0
 39 40  1  0
 39 41  1  0
 39 42  1  0
 42 43  1  0
 42 44  1  0
 42 45  1  0
 37 46  2  0
 46 47  1  0
  8  4  1  0
 46 11  1  0
 33 22  1  0
M  CHG  3  21  -1  26   1  28  -1
M  END
>  <UniqueID>  (10) 
5

>  <SMILES>  (10) 
CCOc1cc(C(O)=C2CC2)ccc1O/C=C(/O)[N-]c1cc([N+](=O)[O-])ccc1Cl

>  <Energy>  (10) 
224.174327246418

>  <Genealogy>  (10) 
CCOc1cc(C(=O)C2CC2)ccc1OCC(=O)[N-]c1cc([N+](=O)[O-])ccc1Cl (protonated)
CCOc1cc(C(O)=C2CC2)ccc1OC=C(O)[N-]c1cc([N+](=O)[O-])ccc1Cl (tautomer)
CCOc1cc(C(O)=C2CC2)ccc1O/C=C(/O)[N-]c1cc([N+](=O)[O-])ccc1Cl (cis-trans isomerization)
CCOc1cc(C(O)=C2CC2)ccc1O/C=C(/O)[N-]c1cc([N+](=O)[O-])ccc1Cl (3D coordinates assigned)
CCOc1cc(C(O)=C2CC2)ccc1O/C=C(/O)[N-]c1cc([N+](=O)[O-])ccc1Cl (nonaromatic ring conformer: 224.174327246418 kcal/mol)

>  <smiles>  (10) 
CCOc1cc(C(=O)C2CC2)ccc1OCC(=O)Nc1cc([N+](=O)[O-])ccc1Cl

>  <score_type>  (10) 
oracle

>  <origin>  (10) 
autodockgpu

>  <m_score__min__energy>  (10) 
-6.5599999999999996

>  <m_primary>  (10) 
energy

>  <meeko>  (10) 
{"free_energy": -5.55, "intermolecular_energy": -9.13, "internal_energy": -2.78, "cluster_size": 1, "cluster_id": 4, "rank_in_cluster": 1}

>  <energy>  (10) 
-5.55

>  <cluster_rmsd>  (10) 
0.0

>  <rmsd>  (10) 
270.82

>  <cluster>  (10) 
4

$$$$
VUCFXBNYDUPJQC-YBFXNURJNA-N
     RDKit          3D

 47 49  0  0  0  0  0  0  0  0999 V2000
  139.0340   80.5430  224.7210 H   0  0  0  0  0  0  0  0  0  0  0  0
  139.1420   80.3050  223.7430 O   0  0  0  0  0  0  0  0  0  0  0  0
  140.1660   79.4750  223.2920 C   0  0  0  0  0  0  0  0  0  0  0  0
  141.4140   79.9270  223.3580 C   0  0  0  0  0  0  0  0  0  0  0  0
  142.9010   79.8180  223.0350 C   0  0  0  0  0  0  0  0  0  0  0  0
  143.5032   79.0272  223.5062 H   0  0  0  0  0  0  0  0  0  0  0  0
  143.4750   79.7121  222.1026 H   0  0  0  0  0  0  0  0  0  0  0  0
  142.4700   80.9330  223.8120 C   0  0  0  0  0  0  0  0  0  0  0  0
  142.7427   80.9927  224.8760 H   0  0  0  0  0  0  0  0  0  0  0  0
  142.5809   82.0230  223.7137 H   0  0  0  0  0  0  0  0  0  0  0  0
  139.8690   78.1270  222.7440 C   0  0  0  0  0  0  0  0  0  0  0  0
  138.5510   77.6490  222.7310 C   0  0  0  0  0  0  0  0  0  0  0  0
  137.7392   78.2746  223.1306 H   0  0  0  0  0  0  0  0  0  0  0  0
  138.2620   76.3860  222.2150 C   0  0  0  0  0  0  0  0  0  0  0  0
  137.2221   76.0274  222.2067 H   0  0  0  0  0  0  0  0  0  0  0  0
  139.2780   75.5700  221.7080 C   0  0  0  0  0  0  0  0  0  0  0  0
  138.9190   74.3090  221.2130 O   0  0  0  0  0  0  0  0  0  0  0  0
  138.7460   73.1750  222.0140 C   0  0  0  0  0  0  0  0  0  0  0  0
  137.7372   72.8862  222.3440 H   0  0  0  0  0  0  0  0  0  0  0  0
  139.7990   72.4430  222.3790 C   0  0  0  0  0  0  0  0  0  0  0  0
  139.5990   71.1040  222.8500 N   0  0  0  0  0  0  0  0  0  0  0  0
  139.7100   70.6600  224.2110 C   0  0  0  0  0  0  0  0  0  0  0  0
  140.2620   71.4840  225.2080 C   0  0  0  0  0  0  0  0  0  0  0  0
  140.6019   72.4978  224.9497 H   0  0  0  0  0  0  0  0  0  0  0  0
  140.3840   71.0250  226.5330 C   0  0  0  0  0  0  0  0  0  0  0  0
  140.9440   71.8770  227.5500 N   0  0  0  0  0  0  0  0  0  0  0  0
  140.4740   71.8800  228.7070 O   0  0  0  0  0  0  0  0  0  0  0  0
  142.0040   72.7070  227.2640 O   0  0  0  0  0  0  0  0  0  0  0  0
  139.9600   69.7220  226.8440 C   0  0  0  0  0  0  0  0  0  0  0  0
  140.0415   69.3532  227.8771 H   0  0  0  0  0  0  0  0  0  0  0  0
  139.4360   68.8920  225.8510 C   0  0  0  0  0  0  0  0  0  0  0  0
  139.1138   67.8712  226.1044 H   0  0  0  0  0  0  0  0  0  0  0  0
  139.3190   69.3520  224.5370 C   0  0  0  0  0  0  0  0  0  0  0  0
  138.6590   68.2770  223.3120 Cl  0  0  0  0  0  0  0  0  0  0  0  0
  141.0810   72.9910  222.3360 O   0  0  0  0  0  0  0  0  0  0  0  0
  141.2920   73.8240  221.7990 H   0  0  0  0  0  0  0  0  0  0  0  0
  140.6060   76.0490  221.6720 C   0  0  0  0  0  0  0  0  0  0  0  0
  141.6010   75.2550  221.0740 O   0  0  0  0  0  0  0  0  0  0  0  0
  142.5250   75.6800  220.0710 C   0  0  0  0  0  0  0  0  0  0  0  0
  142.8026   76.7279  220.2575 H   0  0  0  0  0  0  0  0  0  0  0  0
  142.0460   75.5796  219.0859 H   0  0  0  0  0  0  0  0  0  0  0  0
  143.7840   74.8180  220.0920 C   0  0  0  0  0  0  0  0  0  0  0  0
  144.0747   74.6189  221.1340 H   0  0  0  0  0  0  0  0  0  0  0  0
  143.5850   73.8658  219.5785 H   0  0  0  0  0  0  0  0  0  0  0  0
  144.5998   75.3479  219.5785 H   0  0  0  0  0  0  0  0  0  0  0  0
  140.8920   77.3180  222.2160 C   0  0  0  0  0  0  0  0  0  0  0  0
  141.9303   77.6809  222.2278 H   0  0  0  0  0  0  0  0  0  0  0  0
  1  2  1  0
  2  3  1  0
  3  4  2  3
  4  5  1  0
  5  6  1  0
  5  7  1  0
  5  8  1  0
  8  9  1  0
  8 10  1  0
  3 11  1  0
 11 12  2  0
 12 13  1  0
 12 14  1  0
 14 15  1  0
 14 16  2  0
 16 17  1  0
 17 18  1  0
 18 19  1  0
 18 20  2  0
 20 21  1  0
 21 22  1  0
 22 23  2  0
 23 24  1  0
 23 25  1  0
 25 26  1  0
 26 27  2  0
 26 28  1  0
 25 29  2  0
 29 30  1  0
 29 31  1  0
 31 32  1  0
 31 33  2  0
 33 34  1  0
 20 35  1  0
 35 36  1  0
 16 37  1  0
 37 38  1  0
 38 39  1  0
 39 40  1  0
 39 41  1  0
 39 42  1  0
 42 43  1  0
 42 44  1  0
 42 45  1  0
 37 46  2  0
 46 47  1  0
  8  4  1  0
 46 11  1  0
 33 22  1  0
M  CHG  3  21  -1  26   1  28  -1
M  END
>  <UniqueID>  (11) 
5

>  <SMILES>  (11) 
CCOc1cc(C(O)=C2CC2)ccc1O/C=C(/O)[N-]c1cc([N+](=O)[O-])ccc1Cl

>  <Energy>  (11) 
224.174327246418

>  <Genealogy>  (11) 
CCOc1cc(C(=O)C2CC2)ccc1OCC(=O)[N-]c1cc([N+](=O)[O-])ccc1Cl (protonated)
CCOc1cc(C(O)=C2CC2)ccc1OC=C(O)[N-]c1cc([N+](=O)[O-])ccc1Cl (tautomer)
CCOc1cc(C(O)=C2CC2)ccc1O/C=C(/O)[N-]c1cc([N+](=O)[O-])ccc1Cl (cis-trans isomerization)
CCOc1cc(C(O)=C2CC2)ccc1O/C=C(/O)[N-]c1cc([N+](=O)[O-])ccc1Cl (3D coordinates assigned)
CCOc1cc(C(O)=C2CC2)ccc1O/C=C(/O)[N-]c1cc([N+](=O)[O-])ccc1Cl (nonaromatic ring conformer: 224.174327246418 kcal/mol)

>  <smiles>  (11) 
CCOc1cc(C(=O)C2CC2)ccc1OCC(=O)Nc1cc([N+](=O)[O-])ccc1Cl

>  <score_type>  (11) 
oracle

>  <origin>  (11) 
autodockgpu

>  <m_score__min__energy>  (11) 
-6.5599999999999996

>  <m_primary>  (11) 
energy

>  <meeko>  (11) 
{"free_energy": -6.49, "intermolecular_energy": -10.07, "internal_energy": -2.33, "cluster_size": 6, "cluster_id": 1, "rank_in_cluster": 2}

>  <energy>  (11) 
-4.15

>  <cluster_rmsd>  (11) 
0.0

>  <rmsd>  (11) 
270.52

>  <cluster>  (11) 
5

$$$$
VUCFXBNYDUPJQC-YBFXNURJNA-N
     RDKit          3D

 47 49  0  0  0  0  0  0  0  0999 V2000
  133.2210   75.0150  226.1980 H   0  0  0  0  0  0  0  0  0  0  0  0
  134.1150   74.5450  226.2800 O   0  0  0  0  0  0  0  0  0  0  0  0
  134.3360   73.2770  225.7470 C   0  0  0  0  0  0  0  0  0  0  0  0
  133.8250   72.2310  226.3870 C   0  0  0  0  0  0  0  0  0  0  0  0
  133.9110   70.7960  226.9000 C   0  0  0  0  0  0  0  0  0  0  0  0
  133.8934   69.9607  226.1845 H   0  0  0  0  0  0  0  0  0  0  0  0
  134.6283   70.2514  227.5316 H   0  0  0  0  0  0  0  0  0  0  0  0
  132.7130   71.5260  227.1620 C   0  0  0  0  0  0  0  0  0  0  0  0
  131.7823   71.2476  226.6460 H   0  0  0  0  0  0  0  0  0  0  0  0
  132.1460   71.7644  228.0740 H   0  0  0  0  0  0  0  0  0  0  0  0
  135.1300   73.1000  224.5040 C   0  0  0  0  0  0  0  0  0  0  0  0
  135.2720   71.8250  223.9380 C   0  0  0  0  0  0  0  0  0  0  0  0
  134.7965   70.9577  224.4193 H   0  0  0  0  0  0  0  0  0  0  0  0
  136.0120   71.6490  222.7690 C   0  0  0  0  0  0  0  0  0  0  0  0
  136.1112   70.6431  222.3351 H   0  0  0  0  0  0  0  0  0  0  0  0
  136.6290   72.7350  222.1420 C   0  0  0  0  0  0  0  0  0  0  0  0
  137.3660   72.4860  220.9760 O   0  0  0  0  0  0  0  0  0  0  0  0
  138.7180   72.1260  220.9660 C   0  0  0  0  0  0  0  0  0  0  0  0
  139.1460   71.6263  220.0845 H   0  0  0  0  0  0  0  0  0  0  0  0
  139.4890   72.3870  222.0220 C   0  0  0  0  0  0  0  0  0  0  0  0
  140.1690   71.3110  222.6820 N   0  0  0  0  0  0  0  0  0  0  0  0
  139.9670   70.8880  224.0390 C   0  0  0  0  0  0  0  0  0  0  0  0
  140.5630   71.5670  225.1160 C   0  0  0  0  0  0  0  0  0  0  0  0
  141.1853   72.4532  224.9230 H   0  0  0  0  0  0  0  0  0  0  0  0
  140.3720   71.1250  226.4390 C   0  0  0  0  0  0  0  0  0  0  0  0
  140.9810   71.8300  227.5370 N   0  0  0  0  0  0  0  0  0  0  0  0
  140.5200   71.7280  228.6920 O   0  0  0  0  0  0  0  0  0  0  0  0
  142.0790   72.6340  227.3310 O   0  0  0  0  0  0  0  0  0  0  0  0
  139.5870   69.9830  226.6680 C   0  0  0  0  0  0  0  0  0  0  0  0
  139.4215   69.6318  227.6972 H   0  0  0  0  0  0  0  0  0  0  0  0
  139.0150   69.2900  225.5990 C   0  0  0  0  0  0  0  0  0  0  0  0
  138.4090   68.3921  225.7901 H   0  0  0  0  0  0  0  0  0  0  0  0
  139.2090   69.7320  224.2880 C   0  0  0  0  0  0  0  0  0  0  0  0
  138.4760   68.8330  222.9670 Cl  0  0  0  0  0  0  0  0  0  0  0  0
  139.6040   73.6920  222.5010 O   0  0  0  0  0  0  0  0  0  0  0  0
  138.7970   74.2310  222.7910 H   0  0  0  0  0  0  0  0  0  0  0  0
  136.4630   74.0340  222.6710 C   0  0  0  0  0  0  0  0  0  0  0  0
  137.0120   75.1280  221.9790 O   0  0  0  0  0  0  0  0  0  0  0  0
  137.3900   76.3810  222.5510 C   0  0  0  0  0  0  0  0  0  0  0  0
  137.2133   76.3497  223.6363 H   0  0  0  0  0  0  0  0  0  0  0  0
  136.7875   77.1758  222.0870 H   0  0  0  0  0  0  0  0  0  0  0  0
  138.8650   76.6730  222.2930 C   0  0  0  0  0  0  0  0  0  0  0  0
  139.3916   76.7772  223.2531 H   0  0  0  0  0  0  0  0  0  0  0  0
  139.3079   75.8451  221.7199 H   0  0  0  0  0  0  0  0  0  0  0  0
  138.9591   77.6072  221.7199 H   0  0  0  0  0  0  0  0  0  0  0  0
  135.7320   74.2000  223.8660 C   0  0  0  0  0  0  0  0  0  0  0  0
  135.6312   75.2035  224.3051 H   0  0  0  0  0  0  0  0  0  0  0  0
  1  2  1  0
  2  3  1  0
  3  4  2  3
  4  5  1  0
  5  6  1  0
  5  7  1  0
  5  8  1  0
  8  9  1  0
  8 10  1  0
  3 11  1  0
 11 12  2  0
 12 13  1  0
 12 14  1  0
 14 15  1  0
 14 16  2  0
 16 17  1  0
 17 18  1  0
 18 19  1  0
 18 20  2  0
 20 21  1  0
 21 22  1  0
 22 23  2  0
 23 24  1  0
 23 25  1  0
 25 26  1  0
 26 27  2  0
 26 28  1  0
 25 29  2  0
 29 30  1  0
 29 31  1  0
 31 32  1  0
 31 33  2  0
 33 34  1  0
 20 35  1  0
 35 36  1  0
 16 37  1  0
 37 38  1  0
 38 39  1  0
 39 40  1  0
 39 41  1  0
 39 42  1  0
 42 43  1  0
 42 44  1  0
 42 45  1  0
 37 46  2  0
 46 47  1  0
  8  4  1  0
 46 11  1  0
 33 22  1  0
M  CHG  3  21  -1  26   1  28  -1
M  END
>  <UniqueID>  (12) 
5

>  <SMILES>  (12) 
CCOc1cc(C(O)=C2CC2)ccc1O/C=C(/O)[N-]c1cc([N+](=O)[O-])ccc1Cl

>  <Energy>  (12) 
224.174327246418

>  <Genealogy>  (12) 
CCOc1cc(C(=O)C2CC2)ccc1OCC(=O)[N-]c1cc([N+](=O)[O-])ccc1Cl (protonated)
CCOc1cc(C(O)=C2CC2)ccc1OC=C(O)[N-]c1cc([N+](=O)[O-])ccc1Cl (tautomer)
CCOc1cc(C(O)=C2CC2)ccc1O/C=C(/O)[N-]c1cc([N+](=O)[O-])ccc1Cl (cis-trans isomerization)
CCOc1cc(C(O)=C2CC2)ccc1O/C=C(/O)[N-]c1cc([N+](=O)[O-])ccc1Cl (3D coordinates assigned)
CCOc1cc(C(O)=C2CC2)ccc1O/C=C(/O)[N-]c1cc([N+](=O)[O-])ccc1Cl (nonaromatic ring conformer: 224.174327246418 kcal/mol)

>  <smiles>  (12) 
CCOc1cc(C(=O)C2CC2)ccc1OCC(=O)Nc1cc([N+](=O)[O-])ccc1Cl

>  <score_type>  (12) 
oracle

>  <origin>  (12) 
autodockgpu

>  <m_score__min__energy>  (12) 
-6.5599999999999996

>  <m_primary>  (12) 
energy

>  <meeko>  (12) 
{"free_energy": -5.6, "intermolecular_energy": -9.18, "internal_energy": -2.65, "cluster_size": 2, "cluster_id": 2, "rank_in_cluster": 2}

>  <energy>  (12) 
-4.15

>  <cluster_rmsd>  (12) 
0.0

>  <rmsd>  (12) 
270.38

>  <cluster>  (12) 
6

$$$$
VUCFXBNYDUPJQC-YBFXNURJNA-N
     RDKit          3D

 47 49  0  0  0  0  0  0  0  0999 V2000
  138.4330   79.8850  224.1750 H   0  0  0  0  0  0  0  0  0  0  0  0
  139.1530   80.2680  223.5740 O   0  0  0  0  0  0  0  0  0  0  0  0
  140.2510   79.5160  223.1630 C   0  0  0  0  0  0  0  0  0  0  0  0
  141.4600   80.0580  223.2790 C   0  0  0  0  0  0  0  0  0  0  0  0
  142.4120   81.1120  223.8360 C   0  0  0  0  0  0  0  0  0  0  0  0
  142.3293   82.1543  223.4943 H   0  0  0  0  0  0  0  0  0  0  0  0
  142.6637   81.4551  224.8504 H   0  0  0  0  0  0  0  0  0  0  0  0
  142.9530   80.1240  222.9610 C   0  0  0  0  0  0  0  0  0  0  0  0
  143.2822   80.4124  221.9518 H   0  0  0  0  0  0  0  0  0  0  0  0
  143.7841   79.4073  223.0363 H   0  0  0  0  0  0  0  0  0  0  0  0
  140.0760   78.1530  222.6030 C   0  0  0  0  0  0  0  0  0  0  0  0
  141.1220   77.5450  221.8930 C   0  0  0  0  0  0  0  0  0  0  0  0
  142.0707   78.0834  221.7509 H   0  0  0  0  0  0  0  0  0  0  0  0
  140.9680   76.2630  221.3660 C   0  0  0  0  0  0  0  0  0  0  0  0
  141.7996   75.7980  220.8162 H   0  0  0  0  0  0  0  0  0  0  0  0
  139.7700   75.5620  221.5280 C   0  0  0  0  0  0  0  0  0  0  0  0
  139.6790   74.2820  220.9650 O   0  0  0  0  0  0  0  0  0  0  0  0
  140.1960   73.1270  221.5610 C   0  0  0  0  0  0  0  0  0  0  0  0
  141.2502   72.8546  221.4045 H   0  0  0  0  0  0  0  0  0  0  0  0
  139.4160   72.3550  222.3180 C   0  0  0  0  0  0  0  0  0  0  0  0
  139.9300   71.1190  222.8310 N   0  0  0  0  0  0  0  0  0  0  0  0
  139.8820   70.6860  224.1990 C   0  0  0  0  0  0  0  0  0  0  0  0
  140.3850   71.4870  225.2400 C   0  0  0  0  0  0  0  0  0  0  0  0
  140.8096   72.4752  225.0094 H   0  0  0  0  0  0  0  0  0  0  0  0
  140.3510   71.0380  226.5740 C   0  0  0  0  0  0  0  0  0  0  0  0
  140.8620   71.8680  227.6340 N   0  0  0  0  0  0  0  0  0  0  0  0
  140.2960   71.8970  228.7470 O   0  0  0  0  0  0  0  0  0  0  0  0
  141.9790   72.6470  227.4390 O   0  0  0  0  0  0  0  0  0  0  0  0
  139.8200   69.7670  226.8510 C   0  0  0  0  0  0  0  0  0  0  0  0
  139.7783   69.4069  227.8895 H   0  0  0  0  0  0  0  0  0  0  0  0
  139.3450   68.9580  225.8170 C   0  0  0  0  0  0  0  0  0  0  0  0
  138.9395   67.9611  226.0445 H   0  0  0  0  0  0  0  0  0  0  0  0
  139.3820   69.4080  224.4950 C   0  0  0  0  0  0  0  0  0  0  0  0
  138.7780   68.3600  223.2180 Cl  0  0  0  0  0  0  0  0  0  0  0  0
  138.0980   72.7310  222.5770 O   0  0  0  0  0  0  0  0  0  0  0  0
  137.8310   73.7000  222.7030 H   0  0  0  0  0  0  0  0  0  0  0  0
  138.7190   76.1370  222.2760 C   0  0  0  0  0  0  0  0  0  0  0  0
  137.5550   75.3830  222.5100 O   0  0  0  0  0  0  0  0  0  0  0  0
  136.2750   75.9040  222.8710 C   0  0  0  0  0  0  0  0  0  0  0  0
  135.5589   75.6929  222.0631 H   0  0  0  0  0  0  0  0  0  0  0  0
  136.3675   76.9889  223.0273 H   0  0  0  0  0  0  0  0  0  0  0  0
  135.7740   75.2650  224.1630 C   0  0  0  0  0  0  0  0  0  0  0  0
  136.1954   75.8025  225.0253 H   0  0  0  0  0  0  0  0  0  0  0  0
  134.6759   75.3201  224.1975 H   0  0  0  0  0  0  0  0  0  0  0  0
  136.0895   74.2118  224.1975 H   0  0  0  0  0  0  0  0  0  0  0  0
  138.8750   77.4430  222.7860 C   0  0  0  0  0  0  0  0  0  0  0  0
  138.0457   77.9132  223.3347 H   0  0  0  0  0  0  0  0  0  0  0  0
  1  2  1  0
  2  3  1  0
  3  4  2  3
  4  5  1  0
  5  6  1  0
  5  7  1  0
  5  8  1  0
  8  9  1  0
  8 10  1  0
  3 11  1  0
 11 12  2  0
 12 13  1  0
 12 14  1  0
 14 15  1  0
 14 16  2  0
 16 17  1  0
 17 18  1  0
 18 19  1  0
 18 20  2  0
 20 21  1  0
 21 22  1  0
 22 23  2  0
 23 24  1  0
 23 25  1  0
 25 26  1  0
 26 27  2  0
 26 28  1  0
 25 29  2  0
 29 30  1  0
 29 31  1  0
 31 32  1  0
 31 33  2  0
 33 34  1  0
 20 35  1  0
 35 36  1  0
 16 37  1  0
 37 38  1  0
 38 39  1  0
 39 40  1  0
 39 41  1  0
 39 42  1  0
 42 43  1  0
 42 44  1  0
 42 45  1  0
 37 46  2  0
 46 47  1  0
  8  4  1  0
 46 11  1  0
 33 22  1  0
M  CHG  3  21  -1  26   1  28  -1
M  END
>  <UniqueID>  (13) 
5

>  <SMILES>  (13) 
CCOc1cc(C(O)=C2CC2)ccc1O/C=C(/O)[N-]c1cc([N+](=O)[O-])ccc1Cl

>  <Energy>  (13) 
224.174327246418

>  <Genealogy>  (13) 
CCOc1cc(C(=O)C2CC2)ccc1OCC(=O)[N-]c1cc([N+](=O)[O-])ccc1Cl (protonated)
CCOc1cc(C(O)=C2CC2)ccc1OC=C(O)[N-]c1cc([N+](=O)[O-])ccc1Cl (tautomer)
CCOc1cc(C(O)=C2CC2)ccc1O/C=C(/O)[N-]c1cc([N+](=O)[O-])ccc1Cl (cis-trans isomerization)
CCOc1cc(C(O)=C2CC2)ccc1O/C=C(/O)[N-]c1cc([N+](=O)[O-])ccc1Cl (3D coordinates assigned)
CCOc1cc(C(O)=C2CC2)ccc1O/C=C(/O)[N-]c1cc([N+](=O)[O-])ccc1Cl (nonaromatic ring conformer: 224.174327246418 kcal/mol)

>  <smiles>  (13) 
CCOc1cc(C(=O)C2CC2)ccc1OCC(=O)Nc1cc([N+](=O)[O-])ccc1Cl

>  <score_type>  (13) 
oracle

>  <origin>  (13) 
autodockgpu

>  <m_score__min__energy>  (13) 
-6.5599999999999996

>  <m_primary>  (13) 
energy

>  <meeko>  (13) 
{"free_energy": -6.36, "intermolecular_energy": -9.94, "internal_energy": -2.19, "cluster_size": 6, "cluster_id": 1, "rank_in_cluster": 4}

>  <energy>  (13) 
-4.1

>  <cluster_rmsd>  (13) 
0.06

>  <rmsd>  (13) 
270.35

>  <cluster>  (13) 
6

$$$$
VUCFXBNYDUPJQC-YBFXNURJNA-N
     RDKit          3D

 47 49  0  0  0  0  0  0  0  0999 V2000
  145.7300   71.6200  220.4580 H   0  0  0  0  0  0  0  0  0  0  0  0
  145.3990   71.0910  219.6600 O   0  0  0  0  0  0  0  0  0  0  0  0
  144.1910   70.3970  219.6830 C   0  0  0  0  0  0  0  0  0  0  0  0
  144.2260   69.0750  219.5430 C   0  0  0  0  0  0  0  0  0  0  0  0
  143.5430   67.7300  219.3170 C   0  0  0  0  0  0  0  0  0  0  0  0
  142.9003   67.3076  220.1034 H   0  0  0  0  0  0  0  0  0  0  0  0
  142.8696   67.3351  218.5421 H   0  0  0  0  0  0  0  0  0  0  0  0
  144.9590   67.7360  219.4910 C   0  0  0  0  0  0  0  0  0  0  0  0
  145.3961   67.3188  220.4102 H   0  0  0  0  0  0  0  0  0  0  0  0
  145.8041   67.3483  218.9032 H   0  0  0  0  0  0  0  0  0  0  0  0
  142.9020   71.1140  219.8500 C   0  0  0  0  0  0  0  0  0  0  0  0
  142.0770   71.3430  218.7390 C   0  0  0  0  0  0  0  0  0  0  0  0
  142.3905   70.9919  217.7448 H   0  0  0  0  0  0  0  0  0  0  0  0
  140.8630   72.0120  218.8850 C   0  0  0  0  0  0  0  0  0  0  0  0
  140.2256   72.1801  218.0044 H   0  0  0  0  0  0  0  0  0  0  0  0
  140.4460   72.4720  220.1380 C   0  0  0  0  0  0  0  0  0  0  0  0
  139.2190   73.1450  220.2120 O   0  0  0  0  0  0  0  0  0  0  0  0
  139.0940   74.5280  220.3830 C   0  0  0  0  0  0  0  0  0  0  0  0
  138.3519   75.0879  219.7950 H   0  0  0  0  0  0  0  0  0  0  0  0
  139.8710   75.1700  221.2560 C   0  0  0  0  0  0  0  0  0  0  0  0
  141.0040   75.9100  220.7830 N   0  0  0  0  0  0  0  0  0  0  0  0
  142.0470   75.4090  219.9340 C   0  0  0  0  0  0  0  0  0  0  0  0
  143.2020   74.8080  220.4660 C   0  0  0  0  0  0  0  0  0  0  0  0
  143.3063   74.7009  221.5558 H   0  0  0  0  0  0  0  0  0  0  0  0
  144.2260   74.3420  219.6200 C   0  0  0  0  0  0  0  0  0  0  0  0
  145.4020   73.7230  220.1720 N   0  0  0  0  0  0  0  0  0  0  0  0
  145.4960   73.5180  221.4000 O   0  0  0  0  0  0  0  0  0  0  0  0
  146.4460   73.3500  219.3580 O   0  0  0  0  0  0  0  0  0  0  0  0
  144.0840   74.5000  218.2300 C   0  0  0  0  0  0  0  0  0  0  0  0
  144.8713   74.1324  217.5554 H   0  0  0  0  0  0  0  0  0  0  0  0
  142.9510   75.1200  217.7000 C   0  0  0  0  0  0  0  0  0  0  0  0
  142.8546   75.2454  216.6114 H   0  0  0  0  0  0  0  0  0  0  0  0
  141.9390   75.5820  218.5450 C   0  0  0  0  0  0  0  0  0  0  0  0
  140.5280   76.3610  217.8410 Cl  0  0  0  0  0  0  0  0  0  0  0  0
  139.6020   75.0910  222.6230 O   0  0  0  0  0  0  0  0  0  0  0  0
  139.4140   74.2080  223.0830 H   0  0  0  0  0  0  0  0  0  0  0  0
  141.2400   72.2150  221.2760 C   0  0  0  0  0  0  0  0  0  0  0  0
  140.7640   72.6010  222.5420 O   0  0  0  0  0  0  0  0  0  0  0  0
  139.9320   71.8220  223.4010 C   0  0  0  0  0  0  0  0  0  0  0  0
  139.6571   70.8891  222.8872 H   0  0  0  0  0  0  0  0  0  0  0  0
  139.0321   72.4063  223.6436 H   0  0  0  0  0  0  0  0  0  0  0  0
  140.6580   71.4820  224.7000 C   0  0  0  0  0  0  0  0  0  0  0  0
  140.0331   71.7746  225.5567 H   0  0  0  0  0  0  0  0  0  0  0  0
  140.8511   70.3998  224.7397 H   0  0  0  0  0  0  0  0  0  0  0  0
  141.6129   72.0266  224.7397 H   0  0  0  0  0  0  0  0  0  0  0  0
  142.4770   71.5570  221.1160 C   0  0  0  0  0  0  0  0  0  0  0  0
  143.1186   71.3877  221.9933 H   0  0  0  0  0  0  0  0  0  0  0  0
  1  2  1  0
  2  3  1  0
  3  4  2  3
  4  5  1  0
  5  6  1  0
  5  7  1  0
  5  8  1  0
  8  9  1  0
  8 10  1  0
  3 11  1  0
 11 12  2  0
 12 13  1  0
 12 14  1  0
 14 15  1  0
 14 16  2  0
 16 17  1  0
 17 18  1  0
 18 19  1  0
 18 20  2  0
 20 21  1  0
 21 22  1  0
 22 23  2  0
 23 24  1  0
 23 25  1  0
 25 26  1  0
 26 27  2  0
 26 28  1  0
 25 29  2  0
 29 30  1  0
 29 31  1  0
 31 32  1  0
 31 33  2  0
 33 34  1  0
 20 35  1  0
 35 36  1  0
 16 37  1  0
 37 38  1  0
 38 39  1  0
 39 40  1  0
 39 41  1  0
 39 42  1  0
 42 43  1  0
 42 44  1  0
 42 45  1  0
 37 46  2  0
 46 47  1  0
  8  4  1  0
 46 11  1  0
 33 22  1  0
M  CHG  3  21  -1  26   1  28  -1
M  END
>  <UniqueID>  (14) 
5

>  <SMILES>  (14) 
CCOc1cc(C(O)=C2CC2)ccc1O/C=C(/O)[N-]c1cc([N+](=O)[O-])ccc1Cl

>  <Energy>  (14) 
224.174327246418

>  <Genealogy>  (14) 
CCOc1cc(C(=O)C2CC2)ccc1OCC(=O)[N-]c1cc([N+](=O)[O-])ccc1Cl (protonated)
CCOc1cc(C(O)=C2CC2)ccc1OC=C(O)[N-]c1cc([N+](=O)[O-])ccc1Cl (tautomer)
CCOc1cc(C(O)=C2CC2)ccc1O/C=C(/O)[N-]c1cc([N+](=O)[O-])ccc1Cl (cis-trans isomerization)
CCOc1cc(C(O)=C2CC2)ccc1O/C=C(/O)[N-]c1cc([N+](=O)[O-])ccc1Cl (3D coordinates assigned)
CCOc1cc(C(O)=C2CC2)ccc1O/C=C(/O)[N-]c1cc([N+](=O)[O-])ccc1Cl (nonaromatic ring conformer: 224.174327246418 kcal/mol)

>  <smiles>  (14) 
CCOc1cc(C(=O)C2CC2)ccc1OCC(=O)Nc1cc([N+](=O)[O-])ccc1Cl

>  <score_type>  (14) 
oracle

>  <origin>  (14) 
autodockgpu

>  <m_score__min__energy>  (14) 
-6.5599999999999996

>  <m_primary>  (14) 
energy

>  <meeko>  (14) 
{"free_energy": -4.1, "intermolecular_energy": -7.68, "internal_energy": -4.58, "cluster_size": 7, "cluster_id": 6, "rank_in_cluster": 2}

>  <energy>  (14) 
-4.03

>  <cluster_rmsd>  (14) 
0.11

>  <rmsd>  (14) 
270.41

>  <cluster>  (14) 
6

$$$$
VUCFXBNYDUPJQC-YBFXNURJNA-N
     RDKit          3D

 47 49  0  0  0  0  0  0  0  0999 V2000
  142.3120   81.9550  222.0840 H   0  0  0  0  0  0  0  0  0  0  0  0
  141.6740   82.4250  221.4520 O   0  0  0  0  0  0  0  0  0  0  0  0
  141.3790   81.9180  220.1880 C   0  0  0  0  0  0  0  0  0  0  0  0
  141.4430   82.7460  219.1500 C   0  0  0  0  0  0  0  0  0  0  0  0
  142.0140   83.1650  217.7990 C   0  0  0  0  0  0  0  0  0  0  0  0
  143.0541   83.5172  217.7338 H   0  0  0  0  0  0  0  0  0  0  0  0
  142.1119   82.6675  216.8228 H   0  0  0  0  0  0  0  0  0  0  0  0
  141.0220   84.0020  218.3900 C   0  0  0  0  0  0  0  0  0  0  0  0
  141.3053   84.9923  218.7762 H   0  0  0  0  0  0  0  0  0  0  0  0
  140.0560   84.4022  218.0486 H   0  0  0  0  0  0  0  0  0  0  0  0
  140.9940   80.4950  220.0080 C   0  0  0  0  0  0  0  0  0  0  0  0
  139.6830   80.1640  219.6380 C   0  0  0  0  0  0  0  0  0  0  0  0
  138.9408   80.9614  219.4854 H   0  0  0  0  0  0  0  0  0  0  0  0
  139.3130   78.8310  219.4620 C   0  0  0  0  0  0  0  0  0  0  0  0
  138.2818   78.5878  219.1662 H   0  0  0  0  0  0  0  0  0  0  0  0
  140.2370   77.8000  219.6570 C   0  0  0  0  0  0  0  0  0  0  0  0
  139.7960   76.4820  219.4730 O   0  0  0  0  0  0  0  0  0  0  0  0
  139.5150   75.5980  220.5200 C   0  0  0  0  0  0  0  0  0  0  0  0
  138.8173   74.7629  220.3597 H   0  0  0  0  0  0  0  0  0  0  0  0
  140.0900   75.7640  221.7120 C   0  0  0  0  0  0  0  0  0  0  0  0
  139.4260   76.5470  222.7140 N   0  0  0  0  0  0  0  0  0  0  0  0
  139.5360   77.9670  222.8880 C   0  0  0  0  0  0  0  0  0  0  0  0
  140.7830   78.5870  223.0900 C   0  0  0  0  0  0  0  0  0  0  0  0
  141.6987   77.9775  223.0987 H   0  0  0  0  0  0  0  0  0  0  0  0
  140.8710   79.9790  223.2810 C   0  0  0  0  0  0  0  0  0  0  0  0
  142.1510   80.6070  223.4800 N   0  0  0  0  0  0  0  0  0  0  0  0
  142.2610   81.6050  224.2210 O   0  0  0  0  0  0  0  0  0  0  0  0
  143.2750   80.1210  222.8520 O   0  0  0  0  0  0  0  0  0  0  0  0
  139.6900   80.7420  223.2850 C   0  0  0  0  0  0  0  0  0  0  0  0
  139.7441   81.8317  223.4254 H   0  0  0  0  0  0  0  0  0  0  0  0
  138.4490   80.1260  223.1120 C   0  0  0  0  0  0  0  0  0  0  0  0
  137.5310   80.7320  223.1238 H   0  0  0  0  0  0  0  0  0  0  0  0
  138.3670   78.7440  222.9240 C   0  0  0  0  0  0  0  0  0  0  0  0
  136.7870   78.0030  222.7130 Cl  0  0  0  0  0  0  0  0  0  0  0  0
  141.3450   75.2100  221.9680 O   0  0  0  0  0  0  0  0  0  0  0  0
  142.2020   75.6760  221.6960 H   0  0  0  0  0  0  0  0  0  0  0  0
  141.5730   78.1130  219.9890 C   0  0  0  0  0  0  0  0  0  0  0  0
  142.5130   77.0720  220.0900 O   0  0  0  0  0  0  0  0  0  0  0  0
  142.9760   76.2490  219.0180 C   0  0  0  0  0  0  0  0  0  0  0  0
  143.6905   76.8206  218.4075 H   0  0  0  0  0  0  0  0  0  0  0  0
  142.1115   75.9428  218.4106 H   0  0  0  0  0  0  0  0  0  0  0  0
  143.6650   74.9970  219.5530 C   0  0  0  0  0  0  0  0  0  0  0  0
  143.6552   75.0147  220.6528 H   0  0  0  0  0  0  0  0  0  0  0  0
  143.1313   74.1039  219.1959 H   0  0  0  0  0  0  0  0  0  0  0  0
  144.7051   74.9699  219.1959 H   0  0  0  0  0  0  0  0  0  0  0  0
  141.9330   79.4620  220.1850 C   0  0  0  0  0  0  0  0  0  0  0  0
  142.9630   79.7106  220.4806 H   0  0  0  0  0  0  0  0  0  0  0  0
  1  2  1  0
  2  3  1  0
  3  4  2  3
  4  5  1  0
  5  6  1  0
  5  7  1  0
  5  8  1  0
  8  9  1  0
  8 10  1  0
  3 11  1  0
 11 12  2  0
 12 13  1  0
 12 14  1  0
 14 15  1  0
 14 16  2  0
 16 17  1  0
 17 18  1  0
 18 19  1  0
 18 20  2  0
 20 21  1  0
 21 22  1  0
 22 23  2  0
 23 24  1  0
 23 25  1  0
 25 26  1  0
 26 27  2  0
 26 28  1  0
 25 29  2  0
 29 30  1  0
 29 31  1  0
 31 32  1  0
 31 33  2  0
 33 34  1  0
 20 35  1  0
 35 36  1  0
 16 37  1  0
 37 38  1  0
 38 39  1  0
 39 40  1  0
 39 41  1  0
 39 42  1  0
 42 43  1  0
 42 44  1  0
 42 45  1  0
 37 46  2  0
 46 47  1  0
  8  4  1  0
 46 11  1  0
 33 22  1  0
M  CHG  3  21  -1  26   1  28  -1
M  END
>  <UniqueID>  (15) 
5

>  <SMILES>  (15) 
CCOc1cc(C(O)=C2CC2)ccc1O/C=C(/O)[N-]c1cc([N+](=O)[O-])ccc1Cl

>  <Energy>  (15) 
224.174327246418

>  <Genealogy>  (15) 
CCOc1cc(C(=O)C2CC2)ccc1OCC(=O)[N-]c1cc([N+](=O)[O-])ccc1Cl (protonated)
CCOc1cc(C(O)=C2CC2)ccc1OC=C(O)[N-]c1cc([N+](=O)[O-])ccc1Cl (tautomer)
CCOc1cc(C(O)=C2CC2)ccc1O/C=C(/O)[N-]c1cc([N+](=O)[O-])ccc1Cl (cis-trans isomerization)
CCOc1cc(C(O)=C2CC2)ccc1O/C=C(/O)[N-]c1cc([N+](=O)[O-])ccc1Cl (3D coordinates assigned)
CCOc1cc(C(O)=C2CC2)ccc1O/C=C(/O)[N-]c1cc([N+](=O)[O-])ccc1Cl (nonaromatic ring conformer: 224.174327246418 kcal/mol)

>  <smiles>  (15) 
CCOc1cc(C(=O)C2CC2)ccc1OCC(=O)Nc1cc([N+](=O)[O-])ccc1Cl

>  <score_type>  (15) 
oracle

>  <origin>  (15) 
autodockgpu

>  <m_score__min__energy>  (15) 
-6.5599999999999996

>  <m_primary>  (15) 
energy

>  <meeko>  (15) 
{"free_energy": -3.38, "intermolecular_energy": -6.96, "internal_energy": -4.77, "cluster_size": 2, "cluster_id": 7, "rank_in_cluster": 1}

>  <energy>  (15) 
-4.02

>  <cluster_rmsd>  (15) 
0.22

>  <rmsd>  (15) 
270.42

>  <cluster>  (15) 
6

$$$$
VUCFXBNYDUPJQC-YBFXNURJNA-N
     RDKit          3D

 47 49  0  0  0  0  0  0  0  0999 V2000
  138.4540   79.3000  224.5860 H   0  0  0  0  0  0  0  0  0  0  0  0
  139.1050   79.7770  223.9740 O   0  0  0  0  0  0  0  0  0  0  0  0
  140.1500   79.1090  223.3390 C   0  0  0  0  0  0  0  0  0  0  0  0
  141.3460   79.6880  223.3220 C   0  0  0  0  0  0  0  0  0  0  0  0
  142.3530   80.7080  223.8470 C   0  0  0  0  0  0  0  0  0  0  0  0
  142.1876   81.7798  223.6630 H   0  0  0  0  0  0  0  0  0  0  0  0
  142.7652   80.9333  224.8416 H   0  0  0  0  0  0  0  0  0  0  0  0
  142.7610   79.8630  222.7730 C   0  0  0  0  0  0  0  0  0  0  0  0
  142.9064   80.2901  221.7698 H   0  0  0  0  0  0  0  0  0  0  0  0
  143.6103   79.1819  222.6154 H   0  0  0  0  0  0  0  0  0  0  0  0
  139.9300   77.7920  222.6900 C   0  0  0  0  0  0  0  0  0  0  0  0
  138.6280   77.3670  222.3860 C   0  0  0  0  0  0  0  0  0  0  0  0
  137.7718   78.0117  222.6333 H   0  0  0  0  0  0  0  0  0  0  0  0
  138.4110   76.1340  221.7730 C   0  0  0  0  0  0  0  0  0  0  0  0
  137.3844   75.8181  221.5358 H   0  0  0  0  0  0  0  0  0  0  0  0
  139.4830   75.2940  221.4560 C   0  0  0  0  0  0  0  0  0  0  0  0
  139.1940   74.0640  220.8500 O   0  0  0  0  0  0  0  0  0  0  0  0
  138.7080   72.9480  221.5390 C   0  0  0  0  0  0  0  0  0  0  0  0
  137.6905   72.5807  221.3393 H   0  0  0  0  0  0  0  0  0  0  0  0
  139.4740   72.3280  222.4370 C   0  0  0  0  0  0  0  0  0  0  0  0
  138.9650   71.1790  223.1270 N   0  0  0  0  0  0  0  0  0  0  0  0
  139.4500   70.6570  224.3730 C   0  0  0  0  0  0  0  0  0  0  0  0
  139.9940   71.4990  225.3600 C   0  0  0  0  0  0  0  0  0  0  0  0
  140.0359   72.5843  225.1859 H   0  0  0  0  0  0  0  0  0  0  0  0
  140.4850   70.9690  226.5670 C   0  0  0  0  0  0  0  0  0  0  0  0
  141.0350   71.8390  227.5740 N   0  0  0  0  0  0  0  0  0  0  0  0
  140.5600   71.8550  228.7290 O   0  0  0  0  0  0  0  0  0  0  0  0
  142.0890   72.6720  227.2810 O   0  0  0  0  0  0  0  0  0  0  0  0
  140.4390   69.5790  226.7690 C   0  0  0  0  0  0  0  0  0  0  0  0
  140.8118   69.1512  227.7114 H   0  0  0  0  0  0  0  0  0  0  0  0
  139.9230   68.7370  225.7810 C   0  0  0  0  0  0  0  0  0  0  0  0
  139.8978   67.6498  225.9467 H   0  0  0  0  0  0  0  0  0  0  0  0
  139.4390   69.2690  224.5840 C   0  0  0  0  0  0  0  0  0  0  0  0
  138.8010   68.1780  223.3610 Cl  0  0  0  0  0  0  0  0  0  0  0  0
  140.7480   72.8170  222.7280 O   0  0  0  0  0  0  0  0  0  0  0  0
  141.1950   73.5240  222.1570 H   0  0  0  0  0  0  0  0  0  0  0  0
  140.8040   75.7200  221.7140 C   0  0  0  0  0  0  0  0  0  0  0  0
  141.8760   74.9060  221.3040 O   0  0  0  0  0  0  0  0  0  0  0  0
  142.5090   74.9310  220.0240 C   0  0  0  0  0  0  0  0  0  0  0  0
  141.7876   74.6079  219.2590 H   0  0  0  0  0  0  0  0  0  0  0  0
  143.3746   74.2526  220.0464 H   0  0  0  0  0  0  0  0  0  0  0  0
  142.9990   76.3360  219.6870 C   0  0  0  0  0  0  0  0  0  0  0  0
  143.1922   76.8900  220.6175 H   0  0  0  0  0  0  0  0  0  0  0  0
  143.9271   76.2698  219.1003 H   0  0  0  0  0  0  0  0  0  0  0  0
  142.2310   76.8613  219.1003 H   0  0  0  0  0  0  0  0  0  0  0  0
  141.0130   76.9590  222.3530 C   0  0  0  0  0  0  0  0  0  0  0  0
  142.0378   77.2795  222.5917 H   0  0  0  0  0  0  0  0  0  0  0  0
  1  2  1  0
  2  3  1  0
  3  4  2  3
  4  5  1  0
  5  6  1  0
  5  7  1  0
  5  8  1  0
  8  9  1  0
  8 10  1  0
  3 11  1  0
 11 12  2  0
 12 13  1  0
 12 14  1  0
 14 15  1  0
 14 16  2  0
 16 17  1  0
 17 18  1  0
 18 19  1  0
 18 20  2  0
 20 21  1  0
 21 22  1  0
 22 23  2  0
 23 24  1  0
 23 25  1  0
 25 26  1  0
 26 27  2  0
 26 28  1  0
 25 29  2  0
 29 30  1  0
 29 31  1  0
 31 32  1  0
 31 33  2  0
 33 34  1  0
 20 35  1  0
 35 36  1  0
 16 37  1  0
 37 38  1  0
 38 39  1  0
 39 40  1  0
 39 41  1  0
 39 42  1  0
 42 43  1  0
 42 44  1  0
 42 45  1  0
 37 46  2  0
 46 47  1  0
  8  4  1  0
 46 11  1  0
 33 22  1  0
M  CHG  3  21  -1  26   1  28  -1
M  END
>  <UniqueID>  (16) 
5

>  <SMILES>  (16) 
CCOc1cc(C(O)=C2CC2)ccc1O/C=C(/O)[N-]c1cc([N+](=O)[O-])ccc1Cl

>  <Energy>  (16) 
224.174327246418

>  <Genealogy>  (16) 
CCOc1cc(C(=O)C2CC2)ccc1OCC(=O)[N-]c1cc([N+](=O)[O-])ccc1Cl (protonated)
CCOc1cc(C(O)=C2CC2)ccc1OC=C(O)[N-]c1cc([N+](=O)[O-])ccc1Cl (tautomer)
CCOc1cc(C(O)=C2CC2)ccc1O/C=C(/O)[N-]c1cc([N+](=O)[O-])ccc1Cl (cis-trans isomerization)
CCOc1cc(C(O)=C2CC2)ccc1O/C=C(/O)[N-]c1cc([N+](=O)[O-])ccc1Cl (3D coordinates assigned)
CCOc1cc(C(O)=C2CC2)ccc1O/C=C(/O)[N-]c1cc([N+](=O)[O-])ccc1Cl (nonaromatic ring conformer: 224.174327246418 kcal/mol)

>  <smiles>  (16) 
CCOc1cc(C(=O)C2CC2)ccc1OCC(=O)Nc1cc([N+](=O)[O-])ccc1Cl

>  <score_type>  (16) 
oracle

>  <origin>  (16) 
autodockgpu

>  <m_score__min__energy>  (16) 
-6.5599999999999996

>  <m_primary>  (16) 
energy

>  <meeko>  (16) 
{"free_energy": -6.22, "intermolecular_energy": -9.8, "internal_energy": -2.45, "cluster_size": 6, "cluster_id": 1, "rank_in_cluster": 5}

>  <energy>  (16) 
-3.93

>  <cluster_rmsd>  (16) 
0.26

>  <rmsd>  (16) 
270.28

>  <cluster>  (16) 
6

$$$$
VUCFXBNYDUPJQC-YBFXNURJNA-N
     RDKit          3D

 47 49  0  0  0  0  0  0  0  0999 V2000
  139.6770   73.9230  222.5060 H   0  0  0  0  0  0  0  0  0  0  0  0
  139.4300   74.8940  222.3540 O   0  0  0  0  0  0  0  0  0  0  0  0
  140.3390   75.8170  221.8410 C   0  0  0  0  0  0  0  0  0  0  0  0
  140.3320   77.0480  222.3420 C   0  0  0  0  0  0  0  0  0  0  0  0
  141.0380   78.2520  222.9590 C   0  0  0  0  0  0  0  0  0  0  0  0
  141.4354   78.1837  223.9824 H   0  0  0  0  0  0  0  0  0  0  0  0
  141.8947   78.8729  222.6582 H   0  0  0  0  0  0  0  0  0  0  0  0
  139.6290   78.3400  222.7540 C   0  0  0  0  0  0  0  0  0  0  0  0
  138.9519   78.3384  223.6209 H   0  0  0  0  0  0  0  0  0  0  0  0
  138.9746   79.0547  222.2335 H   0  0  0  0  0  0  0  0  0  0  0  0
  141.2830   75.4380  220.7590 C   0  0  0  0  0  0  0  0  0  0  0  0
  140.8970   75.5610  219.4170 C   0  0  0  0  0  0  0  0  0  0  0  0
  139.8929   75.9359  219.1695 H   0  0  0  0  0  0  0  0  0  0  0  0
  141.7780   75.2110  218.3930 C   0  0  0  0  0  0  0  0  0  0  0  0
  141.4629   75.3181  217.3446 H   0  0  0  0  0  0  0  0  0  0  0  0
  143.0560   74.7260  218.6840 C   0  0  0  0  0  0  0  0  0  0  0  0
  143.8860   74.3840  217.6070 O   0  0  0  0  0  0  0  0  0  0  0  0
  144.2780   73.0750  217.3070 C   0  0  0  0  0  0  0  0  0  0  0  0
  143.8936   72.5817  216.4021 H   0  0  0  0  0  0  0  0  0  0  0  0
  145.1160   72.4230  218.1140 C   0  0  0  0  0  0  0  0  0  0  0  0
  144.7610   71.1210  218.5970 N   0  0  0  0  0  0  0  0  0  0  0  0
  143.5080   70.7520  219.1910 C   0  0  0  0  0  0  0  0  0  0  0  0
  142.7240   71.6870  219.8920 C   0  0  0  0  0  0  0  0  0  0  0  0
  143.0654   72.7293  219.9757 H   0  0  0  0  0  0  0  0  0  0  0  0
  141.5080   71.3030  220.4870 C   0  0  0  0  0  0  0  0  0  0  0  0
  140.7080   72.2680  221.1970 N   0  0  0  0  0  0  0  0  0  0  0  0
  139.6660   72.7280  220.6860 O   0  0  0  0  0  0  0  0  0  0  0  0
  141.0820   72.7040  222.4470 O   0  0  0  0  0  0  0  0  0  0  0  0
  141.0930   69.9640  220.3870 C   0  0  0  0  0  0  0  0  0  0  0  0
  140.1405   69.6519  220.8402 H   0  0  0  0  0  0  0  0  0  0  0  0
  141.8820   69.0270  219.7160 C   0  0  0  0  0  0  0  0  0  0  0  0
  141.5516   67.9798  219.6509 H   0  0  0  0  0  0  0  0  0  0  0  0
  143.0890   69.4130  219.1270 C   0  0  0  0  0  0  0  0  0  0  0  0
  144.0570   68.2050  218.2940 Cl  0  0  0  0  0  0  0  0  0  0  0  0
  146.3130   73.0200  218.5120 O   0  0  0  0  0  0  0  0  0  0  0  0
  146.3550   73.9840  218.8200 H   0  0  0  0  0  0  0  0  0  0  0  0
  143.4800   74.6340  220.0270 C   0  0  0  0  0  0  0  0  0  0  0  0
  144.8000   74.2330  220.3010 O   0  0  0  0  0  0  0  0  0  0  0  0
  145.1960   73.2120  221.2170 C   0  0  0  0  0  0  0  0  0  0  0  0
  145.0609   72.2293  220.7415 H   0  0  0  0  0  0  0  0  0  0  0  0
  144.5740   73.2900  222.1209 H   0  0  0  0  0  0  0  0  0  0  0  0
  146.6590   73.3770  221.6160 C   0  0  0  0  0  0  0  0  0  0  0  0
  146.7411   73.3863  222.7129 H   0  0  0  0  0  0  0  0  0  0  0  0
  147.2461   72.5394  221.2114 H   0  0  0  0  0  0  0  0  0  0  0  0
  147.0448   74.3243  221.2114 H   0  0  0  0  0  0  0  0  0  0  0  0
  142.5760   74.9690  221.0560 C   0  0  0  0  0  0  0  0  0  0  0  0
  142.8860   74.8622  222.1060 H   0  0  0  0  0  0  0  0  0  0  0  0
  1  2  1  0
  2  3  1  0
  3  4  2  3
  4  5  1  0
  5  6  1  0
  5  7  1  0
  5  8  1  0
  8  9  1  0
  8 10  1  0
  3 11  1  0
 11 12  2  0
 12 13  1  0
 12 14  1  0
 14 15  1  0
 14 16  2  0
 16 17  1  0
 17 18  1  0
 18 19  1  0
 18 20  2  0
 20 21  1  0
 21 22  1  0
 22 23  2  0
 23 24  1  0
 23 25  1  0
 25 26  1  0
 26 27  2  0
 26 28  1  0
 25 29  2  0
 29 30  1  0
 29 31  1  0
 31 32  1  0
 31 33  2  0
 33 34  1  0
 20 35  1  0
 35 36  1  0
 16 37  1  0
 37 38  1  0
 38 39  1  0
 39 40  1  0
 39 41  1  0
 39 42  1  0
 42 43  1  0
 42 44  1  0
 42 45  1  0
 37 46  2  0
 46 47  1  0
  8  4  1  0
 46 11  1  0
 33 22  1  0
M  CHG  3  21  -1  26   1  28  -1
M  END
>  <UniqueID>  (17) 
5

>  <SMILES>  (17) 
CCOc1cc(C(O)=C2CC2)ccc1O/C=C(/O)[N-]c1cc([N+](=O)[O-])ccc1Cl

>  <Energy>  (17) 
224.174327246418

>  <Genealogy>  (17) 
CCOc1cc(C(=O)C2CC2)ccc1OCC(=O)[N-]c1cc([N+](=O)[O-])ccc1Cl (protonated)
CCOc1cc(C(O)=C2CC2)ccc1OC=C(O)[N-]c1cc([N+](=O)[O-])ccc1Cl (tautomer)
CCOc1cc(C(O)=C2CC2)ccc1O/C=C(/O)[N-]c1cc([N+](=O)[O-])ccc1Cl (cis-trans isomerization)
CCOc1cc(C(O)=C2CC2)ccc1O/C=C(/O)[N-]c1cc([N+](=O)[O-])ccc1Cl (3D coordinates assigned)
CCOc1cc(C(O)=C2CC2)ccc1O/C=C(/O)[N-]c1cc([N+](=O)[O-])ccc1Cl (nonaromatic ring conformer: 224.174327246418 kcal/mol)

>  <smiles>  (17) 
CCOc1cc(C(=O)C2CC2)ccc1OCC(=O)Nc1cc([N+](=O)[O-])ccc1Cl

>  <score_type>  (17) 
oracle

>  <origin>  (17) 
autodockgpu

>  <m_score__min__energy>  (17) 
-6.5599999999999996

>  <m_primary>  (17) 
energy

>  <meeko>  (17) 
{"free_energy": -4.15, "intermolecular_energy": -7.73, "internal_energy": -4.43, "cluster_size": 1, "cluster_id": 5, "rank_in_cluster": 1}

>  <energy>  (17) 
-3.89

>  <cluster_rmsd>  (17) 
0.33

>  <rmsd>  (17) 
270.35

>  <cluster>  (17) 
6

$$$$
VUCFXBNYDUPJQC-YBFXNURJNA-N
     RDKit          3D

 47 49  0  0  0  0  0  0  0  0999 V2000
  142.3270   81.9320  222.1000 H   0  0  0  0  0  0  0  0  0  0  0  0
  141.7170   82.4260  221.4600 O   0  0  0  0  0  0  0  0  0  0  0  0
  141.4140   81.9300  220.1940 C   0  0  0  0  0  0  0  0  0  0  0  0
  141.4530   82.7700  219.1650 C   0  0  0  0  0  0  0  0  0  0  0  0
  142.0010   83.2130  217.8120 C   0  0  0  0  0  0  0  0  0  0  0  0
  143.0352   83.5805  217.7381 H   0  0  0  0  0  0  0  0  0  0  0  0
  142.0935   82.7284  216.8288 H   0  0  0  0  0  0  0  0  0  0  0  0
  141.0050   84.0290  218.4250 C   0  0  0  0  0  0  0  0  0  0  0  0
  141.2793   85.0186  218.8193 H   0  0  0  0  0  0  0  0  0  0  0  0
  140.0293   84.4196  218.1003 H   0  0  0  0  0  0  0  0  0  0  0  0
  141.0460   80.5040  220.0030 C   0  0  0  0  0  0  0  0  0  0  0  0
  139.7420   80.1600  219.6200 C   0  0  0  0  0  0  0  0  0  0  0  0
  138.9924   80.9499  219.4650 H   0  0  0  0  0  0  0  0  0  0  0  0
  139.3880   78.8240  219.4340 C   0  0  0  0  0  0  0  0  0  0  0  0
  138.3617   78.5709  219.1295 H   0  0  0  0  0  0  0  0  0  0  0  0
  140.3220   77.8030  219.6300 C   0  0  0  0  0  0  0  0  0  0  0  0
  139.8980   76.4810  219.4350 O   0  0  0  0  0  0  0  0  0  0  0  0
  139.6000   75.5940  220.4740 C   0  0  0  0  0  0  0  0  0  0  0  0
  138.9164   74.7509  220.2954 H   0  0  0  0  0  0  0  0  0  0  0  0
  140.1410   75.7660  221.6800 C   0  0  0  0  0  0  0  0  0  0  0  0
  139.4370   76.5300  222.6680 N   0  0  0  0  0  0  0  0  0  0  0  0
  139.5300   77.9490  222.8650 C   0  0  0  0  0  0  0  0  0  0  0  0
  140.7680   78.5800  223.0830 C   0  0  0  0  0  0  0  0  0  0  0  0
  141.6907   77.9811  223.0870 H   0  0  0  0  0  0  0  0  0  0  0  0
  140.8390   79.9690  223.2960 C   0  0  0  0  0  0  0  0  0  0  0  0
  142.1110   80.6090  223.5110 N   0  0  0  0  0  0  0  0  0  0  0  0
  142.2040   81.6020  224.2610 O   0  0  0  0  0  0  0  0  0  0  0  0
  143.2450   80.1400  222.8890 O   0  0  0  0  0  0  0  0  0  0  0  0
  139.6500   80.7180  223.3060 C   0  0  0  0  0  0  0  0  0  0  0  0
  139.6912   81.8058  223.4638 H   0  0  0  0  0  0  0  0  0  0  0  0
  138.4160   80.0910  223.1170 C   0  0  0  0  0  0  0  0  0  0  0  0
  137.4910   80.6860  223.1336 H   0  0  0  0  0  0  0  0  0  0  0  0
  138.3520   78.7110  222.9070 C   0  0  0  0  0  0  0  0  0  0  0  0
  136.7810   77.9550  222.6770 Cl  0  0  0  0  0  0  0  0  0  0  0  0
  141.4000   75.2370  221.9650 O   0  0  0  0  0  0  0  0  0  0  0  0
  142.2540   75.6850  221.6550 H   0  0  0  0  0  0  0  0  0  0  0  0
  141.6530   78.1280  219.9730 C   0  0  0  0  0  0  0  0  0  0  0  0
  142.6040   77.0970  220.0760 O   0  0  0  0  0  0  0  0  0  0  0  0
  143.1730   76.3680  218.9890 C   0  0  0  0  0  0  0  0  0  0  0  0
  143.9967   76.9534  218.5544 H   0  0  0  0  0  0  0  0  0  0  0  0
  142.3904   76.1898  218.2369 H   0  0  0  0  0  0  0  0  0  0  0  0
  143.7120   75.0210  219.4610 C   0  0  0  0  0  0  0  0  0  0  0  0
  143.7223   74.9952  220.5606 H   0  0  0  0  0  0  0  0  0  0  0  0
  143.0673   74.2147  219.0813 H   0  0  0  0  0  0  0  0  0  0  0  0
  144.7350   74.8820  219.0813 H   0  0  0  0  0  0  0  0  0  0  0  0
  141.9960   79.4810  220.1810 C   0  0  0  0  0  0  0  0  0  0  0  0
  143.0205   79.7398  220.4866 H   0  0  0  0  0  0  0  0  0  0  0  0
  1  2  1  0
  2  3  1  0
  3  4  2  3
  4  5  1  0
  5  6  1  0
  5  7  1  0
  5  8  1  0
  8  9  1  0
  8 10  1  0
  3 11  1  0
 11 12  2  0
 12 13  1  0
 12 14  1  0
 14 15  1  0
 14 16  2  0
 16 17  1  0
 17 18  1  0
 18 19  1  0
 18 20  2  0
 20 21  1  0
 21 22  1  0
 22 23  2  0
 23 24  1  0
 23 25  1  0
 25 26  1  0
 26 27  2  0
 26 28  1  0
 25 29  2  0
 29 30  1  0
 29 31  1  0
 31 32  1  0
 31 33  2  0
 33 34  1  0
 20 35  1  0
 35 36  1  0
 16 37  1  0
 37 38  1  0
 38 39  1  0
 39 40  1  0
 39 41  1  0
 39 42  1  0
 42 43  1  0
 42 44  1  0
 42 45  1  0
 37 46  2  0
 46 47  1  0
  8  4  1  0
 46 11  1  0
 33 22  1  0
M  CHG  3  21  -1  26   1  28  -1
M  END
>  <UniqueID>  (18) 
5

>  <SMILES>  (18) 
CCOc1cc(C(O)=C2CC2)ccc1O/C=C(/O)[N-]c1cc([N+](=O)[O-])ccc1Cl

>  <Energy>  (18) 
224.174327246418

>  <Genealogy>  (18) 
CCOc1cc(C(=O)C2CC2)ccc1OCC(=O)[N-]c1cc([N+](=O)[O-])ccc1Cl (protonated)
CCOc1cc(C(O)=C2CC2)ccc1OC=C(O)[N-]c1cc([N+](=O)[O-])ccc1Cl (tautomer)
CCOc1cc(C(O)=C2CC2)ccc1O/C=C(/O)[N-]c1cc([N+](=O)[O-])ccc1Cl (cis-trans isomerization)
CCOc1cc(C(O)=C2CC2)ccc1O/C=C(/O)[N-]c1cc([N+](=O)[O-])ccc1Cl (3D coordinates assigned)
CCOc1cc(C(O)=C2CC2)ccc1O/C=C(/O)[N-]c1cc([N+](=O)[O-])ccc1Cl (nonaromatic ring conformer: 224.174327246418 kcal/mol)

>  <smiles>  (18) 
CCOc1cc(C(=O)C2CC2)ccc1OCC(=O)Nc1cc([N+](=O)[O-])ccc1Cl

>  <score_type>  (18) 
oracle

>  <origin>  (18) 
autodockgpu

>  <m_score__min__energy>  (18) 
-6.5599999999999996

>  <m_primary>  (18) 
energy

>  <meeko>  (18) 
{"free_energy": -3.32, "intermolecular_energy": -6.9, "internal_energy": -4.81, "cluster_size": 2, "cluster_id": 7, "rank_in_cluster": 2}

>  <energy>  (18) 
-3.6

>  <cluster_rmsd>  (18) 
0.44

>  <rmsd>  (18) 
270.14

>  <cluster>  (18) 
6

$$$$
VUCFXBNYDUPJQC-YBFXNURJNA-N
     RDKit          3D

 47 49  0  0  0  0  0  0  0  0999 V2000
  139.6760   67.3480  224.2980 H   0  0  0  0  0  0  0  0  0  0  0  0
  139.1930   67.7930  225.0700 O   0  0  0  0  0  0  0  0  0  0  0  0
  139.3680   69.1410  225.3720 C   0  0  0  0  0  0  0  0  0  0  0  0
  139.8590   69.4570  226.5660 C   0  0  0  0  0  0  0  0  0  0  0  0
  140.3660   69.0770  227.9540 C   0  0  0  0  0  0  0  0  0  0  0  0
  139.6602   68.6893  228.7033 H   0  0  0  0  0  0  0  0  0  0  0  0
  141.1461   68.3946  228.3225 H   0  0  0  0  0  0  0  0  0  0  0  0
  140.3410   70.4610  227.6120 C   0  0  0  0  0  0  0  0  0  0  0  0
  139.6159   71.1290  228.0998 H   0  0  0  0  0  0  0  0  0  0  0  0
  141.0935   71.2633  227.6130 H   0  0  0  0  0  0  0  0  0  0  0  0
  139.0060   70.1960  224.3920 C   0  0  0  0  0  0  0  0  0  0  0  0
  137.6750   70.3400  223.9750 C   0  0  0  0  0  0  0  0  0  0  0  0
  136.9020   69.6669  224.3743 H   0  0  0  0  0  0  0  0  0  0  0  0
  137.3240   71.3300  223.0580 C   0  0  0  0  0  0  0  0  0  0  0  0
  136.2744   71.4339  222.7456 H   0  0  0  0  0  0  0  0  0  0  0  0
  138.2900   72.1920  222.5310 C   0  0  0  0  0  0  0  0  0  0  0  0
  137.8700   73.1580  221.6060 O   0  0  0  0  0  0  0  0  0  0  0  0
  137.2880   74.3790  221.9610 C   0  0  0  0  0  0  0  0  0  0  0  0
  136.1926   74.4769  221.9854 H   0  0  0  0  0  0  0  0  0  0  0  0
  138.0550   75.4250  222.2700 C   0  0  0  0  0  0  0  0  0  0  0  0
  137.5410   76.7530  222.1020 N   0  0  0  0  0  0  0  0  0  0  0  0
  138.1020   77.9530  222.6550 C   0  0  0  0  0  0  0  0  0  0  0  0
  139.4900   78.1040  222.8240 C   0  0  0  0  0  0  0  0  0  0  0  0
  140.1672   77.2952  222.5121 H   0  0  0  0  0  0  0  0  0  0  0  0
  140.0220   79.2790  223.3880 C   0  0  0  0  0  0  0  0  0  0  0  0
  141.4450   79.4280  223.5510 N   0  0  0  0  0  0  0  0  0  0  0  0
  142.1540   78.4520  223.8710 O   0  0  0  0  0  0  0  0  0  0  0  0
  142.0470   80.6510  223.3630 O   0  0  0  0  0  0  0  0  0  0  0  0
  139.1430   80.2960  223.7970 C   0  0  0  0  0  0  0  0  0  0  0  0
  139.5451   81.2227  224.2323 H   0  0  0  0  0  0  0  0  0  0  0  0
  137.7630   80.1390  223.6550 C   0  0  0  0  0  0  0  0  0  0  0  0
  137.0842   80.9393  223.9847 H   0  0  0  0  0  0  0  0  0  0  0  0
  137.2400   78.9700  223.0960 C   0  0  0  0  0  0  0  0  0  0  0  0
  135.4970   78.8050  222.9370 Cl  0  0  0  0  0  0  0  0  0  0  0  0
  139.3610   75.2270  222.7190 O   0  0  0  0  0  0  0  0  0  0  0  0
  139.6760   74.3320  223.0750 H   0  0  0  0  0  0  0  0  0  0  0  0
  139.6280   72.0930  222.9690 C   0  0  0  0  0  0  0  0  0  0  0  0
  140.5710   73.0260  222.5010 O   0  0  0  0  0  0  0  0  0  0  0  0
  141.0760   73.1150  221.1680 C   0  0  0  0  0  0  0  0  0  0  0  0
  140.2606   72.9086  220.4592 H   0  0  0  0  0  0  0  0  0  0  0  0
  141.8842   72.3786  221.0479 H   0  0  0  0  0  0  0  0  0  0  0  0
  141.6380   74.5060  220.8920 C   0  0  0  0  0  0  0  0  0  0  0  0
  141.8434   75.0143  221.8456 H   0  0  0  0  0  0  0  0  0  0  0  0
  142.5707   74.4169  220.3157 H   0  0  0  0  0  0  0  0  0  0  0  0
  140.9052   75.0898  220.3157 H   0  0  0  0  0  0  0  0  0  0  0  0
  139.9780   71.0750  223.8800 C   0  0  0  0  0  0  0  0  0  0  0  0
  141.0264   70.9666  224.1949 H   0  0  0  0  0  0  0  0  0  0  0  0
  1  2  1  0
  2  3  1  0
  3  4  2  3
  4  5  1  0
  5  6  1  0
  5  7  1  0
  5  8  1  0
  8  9  1  0
  8 10  1  0
  3 11  1  0
 11 12  2  0
 12 13  1  0
 12 14  1  0
 14 15  1  0
 14 16  2  0
 16 17  1  0
 17 18  1  0
 18 19  1  0
 18 20  2  0
 20 21  1  0
 21 22  1  0
 22 23  2  0
 23 24  1  0
 23 25  1  0
 25 26  1  0
 26 27  2  0
 26 28  1  0
 25 29  2  0
 29 30  1  0
 29 31  1  0
 31 32  1  0
 31 33  2  0
 33 34  1  0
 20 35  1  0
 35 36  1  0
 16 37  1  0
 37 38  1  0
 38 39  1  0
 39 40  1  0
 39 41  1  0
 39 42  1  0
 42 43  1  0
 42 44  1  0
 42 45  1  0
 37 46  2  0
 46 47  1  0
  8  4  1  0
 46 11  1  0
 33 22  1  0
M  CHG  3  21  -1  26   1  28  -1
M  END
>  <UniqueID>  (19) 
5

>  <SMILES>  (19) 
CCOc1cc(C(O)=C2CC2)ccc1O/C=C(/O)[N-]c1cc([N+](=O)[O-])ccc1Cl

>  <Energy>  (19) 
224.174327246418

>  <Genealogy>  (19) 
CCOc1cc(C(=O)C2CC2)ccc1OCC(=O)[N-]c1cc([N+](=O)[O-])ccc1Cl (protonated)
CCOc1cc(C(O)=C2CC2)ccc1OC=C(O)[N-]c1cc([N+](=O)[O-])ccc1Cl (tautomer)
CCOc1cc(C(O)=C2CC2)ccc1O/C=C(/O)[N-]c1cc([N+](=O)[O-])ccc1Cl (cis-trans isomerization)
CCOc1cc(C(O)=C2CC2)ccc1O/C=C(/O)[N-]c1cc([N+](=O)[O-])ccc1Cl (3D coordinates assigned)
CCOc1cc(C(O)=C2CC2)ccc1O/C=C(/O)[N-]c1cc([N+](=O)[O-])ccc1Cl (nonaromatic ring conformer: 224.174327246418 kcal/mol)

>  <smiles>  (19) 
CCOc1cc(C(=O)C2CC2)ccc1OCC(=O)Nc1cc([N+](=O)[O-])ccc1Cl

>  <score_type>  (19) 
oracle

>  <origin>  (19) 
autodockgpu

>  <m_score__min__energy>  (19) 
-6.5599999999999996

>  <m_primary>  (19) 
energy

>  <meeko>  (19) 
{"free_energy": -5.8, "intermolecular_energy": -9.38, "internal_energy": -2.23, "cluster_size": 1, "cluster_id": 3, "rank_in_cluster": 1}

>  <energy>  (19) 
-3.38

>  <cluster_rmsd>  (19) 
0.0

>  <rmsd>  (19) 
272.05

>  <cluster>  (19) 
7

$$$$
VUCFXBNYDUPJQC-YBFXNURJNA-N
     RDKit          3D

 47 49  0  0  0  0  0  0  0  0999 V2000
  145.7380   71.6260  220.5220 H   0  0  0  0  0  0  0  0  0  0  0  0
  145.4120   71.1030  219.7190 O   0  0  0  0  0  0  0  0  0  0  0  0
  144.1990   70.4170  219.7260 C   0  0  0  0  0  0  0  0  0  0  0  0
  144.2260   69.0950  219.5870 C   0  0  0  0  0  0  0  0  0  0  0  0
  143.5430   67.7590  219.3130 C   0  0  0  0  0  0  0  0  0  0  0  0
  142.8404   67.3459  220.0517 H   0  0  0  0  0  0  0  0  0  0  0  0
  142.9212   67.3725  218.4921 H   0  0  0  0  0  0  0  0  0  0  0  0
  144.9420   67.7460  219.5870 C   0  0  0  0  0  0  0  0  0  0  0  0
  145.3069   67.3237  220.5349 H   0  0  0  0  0  0  0  0  0  0  0  0
  145.8213   67.3462  219.0606 H   0  0  0  0  0  0  0  0  0  0  0  0
  142.9130   71.1440  219.8730 C   0  0  0  0  0  0  0  0  0  0  0  0
  142.1220   71.4080  218.7450 C   0  0  0  0  0  0  0  0  0  0  0  0
  142.4598   71.0776  217.7516 H   0  0  0  0  0  0  0  0  0  0  0  0
  140.9110   72.0860  218.8740 C   0  0  0  0  0  0  0  0  0  0  0  0
  140.2997   72.2809  217.9805 H   0  0  0  0  0  0  0  0  0  0  0  0
  140.4640   72.5210  220.1240 C   0  0  0  0  0  0  0  0  0  0  0  0
  139.2420   73.2060  220.1810 O   0  0  0  0  0  0  0  0  0  0  0  0
  139.1260   74.5820  220.4000 C   0  0  0  0  0  0  0  0  0  0  0  0
  138.3845   75.1661  219.8352 H   0  0  0  0  0  0  0  0  0  0  0  0
  139.9110   75.1890  221.2910 C   0  0  0  0  0  0  0  0  0  0  0  0
  141.0620   75.9150  220.8400 N   0  0  0  0  0  0  0  0  0  0  0  0
  142.0860   75.4170  219.9660 C   0  0  0  0  0  0  0  0  0  0  0  0
  143.2550   74.8180  220.4710 C   0  0  0  0  0  0  0  0  0  0  0  0
  143.3855   74.7105  221.5579 H   0  0  0  0  0  0  0  0  0  0  0  0
  144.2590   74.3550  219.6000 C   0  0  0  0  0  0  0  0  0  0  0  0
  145.4490   73.7370  220.1250 N   0  0  0  0  0  0  0  0  0  0  0  0
  146.3640   73.3690  219.3600 O   0  0  0  0  0  0  0  0  0  0  0  0
  145.5950   73.5350  221.4780 O   0  0  0  0  0  0  0  0  0  0  0  0
  144.0860   74.5150  218.2150 C   0  0  0  0  0  0  0  0  0  0  0  0
  144.8588   74.1501  217.5225 H   0  0  0  0  0  0  0  0  0  0  0  0
  142.9400   75.1340  217.7110 C   0  0  0  0  0  0  0  0  0  0  0  0
  142.8187   75.2607  216.6251 H   0  0  0  0  0  0  0  0  0  0  0  0
  141.9470   75.5930  218.5800 C   0  0  0  0  0  0  0  0  0  0  0  0
  140.5190   76.3700  217.9100 Cl  0  0  0  0  0  0  0  0  0  0  0  0
  139.6320   75.0870  222.6550 O   0  0  0  0  0  0  0  0  0  0  0  0
  139.3880   74.2050  223.0880 H   0  0  0  0  0  0  0  0  0  0  0  0
  141.2220   72.2290  221.2790 C   0  0  0  0  0  0  0  0  0  0  0  0
  140.7150   72.5900  222.5400 O   0  0  0  0  0  0  0  0  0  0  0  0
  139.9250   71.7640  223.3960 C   0  0  0  0  0  0  0  0  0  0  0  0
  139.7391   70.8015  222.8970 H   0  0  0  0  0  0  0  0  0  0  0  0
  138.9749   72.2783  223.6030 H   0  0  0  0  0  0  0  0  0  0  0  0
  140.6420   71.5110  224.7190 C   0  0  0  0  0  0  0  0  0  0  0  0
  139.9663   71.7494  225.5537 H   0  0  0  0  0  0  0  0  0  0  0  0
  140.9394   70.4536  224.7785 H   0  0  0  0  0  0  0  0  0  0  0  0
  141.5371   72.1476  224.7785 H   0  0  0  0  0  0  0  0  0  0  0  0
  142.4570   71.5610  221.1370 C   0  0  0  0  0  0  0  0  0  0  0  0
  143.0720   71.3635  222.0274 H   0  0  0  0  0  0  0  0  0  0  0  0
  1  2  1  0
  2  3  1  0
  3  4  2  3
  4  5  1  0
  5  6  1  0
  5  7  1  0
  5  8  1  0
  8  9  1  0
  8 10  1  0
  3 11  1  0
 11 12  2  0
 12 13  1  0
 12 14  1  0
 14 15  1  0
 14 16  2  0
 16 17  1  0
 17 18  1  0
 18 19  1  0
 18 20  2  0
 20 21  1  0
 21 22  1  0
 22 23  2  0
 23 24  1  0
 23 25  1  0
 25 26  1  0
 26 27  2  0
 26 28  1  0
 25 29  2  0
 29 30  1  0
 29 31  1  0
 31 32  1  0
 31 33  2  0
 33 34  1  0
 20 35  1  0
 35 36  1  0
 16 37  1  0
 37 38  1  0
 38 39  1  0
 39 40  1  0
 39 41  1  0
 39 42  1  0
 42 43  1  0
 42 44  1  0
 42 45  1  0
 37 46  2  0
 46 47  1  0
  8  4  1  0
 46 11  1  0
 33 22  1  0
M  CHG  3  21  -1  26   1  28  -1
M  END
>  <UniqueID>  (20) 
5

>  <SMILES>  (20) 
CCOc1cc(C(O)=C2CC2)ccc1O/C=C(/O)[N-]c1cc([N+](=O)[O-])ccc1Cl

>  <Energy>  (20) 
224.174327246418

>  <Genealogy>  (20) 
CCOc1cc(C(=O)C2CC2)ccc1OCC(=O)[N-]c1cc([N+](=O)[O-])ccc1Cl (protonated)
CCOc1cc(C(O)=C2CC2)ccc1OC=C(O)[N-]c1cc([N+](=O)[O-])ccc1Cl (tautomer)
CCOc1cc(C(O)=C2CC2)ccc1O/C=C(/O)[N-]c1cc([N+](=O)[O-])ccc1Cl (cis-trans isomerization)
CCOc1cc(C(O)=C2CC2)ccc1O/C=C(/O)[N-]c1cc([N+](=O)[O-])ccc1Cl (3D coordinates assigned)
CCOc1cc(C(O)=C2CC2)ccc1O/C=C(/O)[N-]c1cc([N+](=O)[O-])ccc1Cl (nonaromatic ring conformer: 224.174327246418 kcal/mol)

>  <smiles>  (20) 
CCOc1cc(C(=O)C2CC2)ccc1OCC(=O)Nc1cc([N+](=O)[O-])ccc1Cl

>  <score_type>  (20) 
oracle

>  <origin>  (20) 
autodockgpu

>  <m_score__min__energy>  (20) 
-6.5599999999999996

>  <m_primary>  (20) 
energy

>  <meeko>  (20) 
{"free_energy": -4.15, "intermolecular_energy": -7.73, "internal_energy": -4.53, "cluster_size": 7, "cluster_id": 6, "rank_in_cluster": 1}

>  <energy>  (20) 
-3.32

>  <cluster_rmsd>  (20) 
0.08

>  <rmsd>  (20) 
272.06

>  <cluster>  (20) 
7

$$$$
VUCFXBNYDUPJQC-ODLFYWEKNA-N
     RDKit          3D

 47 49  0  0  0  0  0  0  0  0999 V2000
  138.3350   79.9950  224.1560 H   0  0  0  0  0  0  0  0  0  0  0  0
  139.2950   80.3180  224.1070 O   0  0  0  0  0  0  0  0  0  0  0  0
  140.2900   79.5750  223.4690 C   0  0  0  0  0  0  0  0  0  0  0  0
  141.5220   80.0810  223.4110 C   0  0  0  0  0  0  0  0  0  0  0  0
  142.5990   81.0290  223.9340 C   0  0  0  0  0  0  0  0  0  0  0  0
  142.4881   82.1132  223.7850 H   0  0  0  0  0  0  0  0  0  0  0  0
  143.0512   81.2020  224.9217 H   0  0  0  0  0  0  0  0  0  0  0  0
  142.9290   80.1950  222.8250 C   0  0  0  0  0  0  0  0  0  0  0  0
  143.0693   80.6430  221.8302 H   0  0  0  0  0  0  0  0  0  0  0  0
  143.7345   79.4736  222.6232 H   0  0  0  0  0  0  0  0  0  0  0  0
  139.9480   78.2480  222.8860 C   0  0  0  0  0  0  0  0  0  0  0  0
  138.6140   77.8300  222.7140 C   0  0  0  0  0  0  0  0  0  0  0  0
  137.7920   78.4961  223.0152 H   0  0  0  0  0  0  0  0  0  0  0  0
  138.3240   76.5810  222.1660 C   0  0  0  0  0  0  0  0  0  0  0  0
  137.2764   76.2683  222.0449 H   0  0  0  0  0  0  0  0  0  0  0  0
  139.3600   75.7180  221.7670 C   0  0  0  0  0  0  0  0  0  0  0  0
  139.1070   74.4520  221.2150 O   0  0  0  0  0  0  0  0  0  0  0  0
  138.7260   73.3240  221.9470 C   0  0  0  0  0  0  0  0  0  0  0  0
  137.6589   73.1198  222.1191 H   0  0  0  0  0  0  0  0  0  0  0  0
  139.6510   72.4890  222.4410 C   0  0  0  0  0  0  0  0  0  0  0  0
  139.2930   71.1910  222.9390 N   0  0  0  0  0  0  0  0  0  0  0  0
  139.6430   70.6510  224.2220 C   0  0  0  0  0  0  0  0  0  0  0  0
  140.0970   71.5270  225.2170 C   0  0  0  0  0  0  0  0  0  0  0  0
  140.1760   72.6023  224.9989 H   0  0  0  0  0  0  0  0  0  0  0  0
  140.4530   71.0490  226.4910 C   0  0  0  0  0  0  0  0  0  0  0  0
  140.9380   71.9480  227.5050 N   0  0  0  0  0  0  0  0  0  0  0  0
  141.9390   72.6640  227.2960 O   0  0  0  0  0  0  0  0  0  0  0  0
  140.3060   72.0330  228.7240 O   0  0  0  0  0  0  0  0  0  0  0  0
  140.3300   69.6750  226.7590 C   0  0  0  0  0  0  0  0  0  0  0  0
  140.6169   69.2839  227.7463 H   0  0  0  0  0  0  0  0  0  0  0  0
  139.8470   68.8030  225.7830 C   0  0  0  0  0  0  0  0  0  0  0  0
  139.7440   67.7317  226.0105 H   0  0  0  0  0  0  0  0  0  0  0  0
  139.4930   69.2810  224.5180 C   0  0  0  0  0  0  0  0  0  0  0  0
  138.7930   68.1520  223.3630 Cl  0  0  0  0  0  0  0  0  0  0  0  0
  140.9990   72.8500  222.4590 O   0  0  0  0  0  0  0  0  0  0  0  0
  141.3480   73.6800  221.9960 H   0  0  0  0  0  0  0  0  0  0  0  0
  140.6940   76.1110  221.9450 C   0  0  0  0  0  0  0  0  0  0  0  0
  141.7020   75.2110  221.5540 O   0  0  0  0  0  0  0  0  0  0  0  0
  142.2620   75.1010  220.2450 C   0  0  0  0  0  0  0  0  0  0  0  0
  141.5120   74.6666  219.5677 H   0  0  0  0  0  0  0  0  0  0  0  0
  143.1520   74.4567  220.2963 H   0  0  0  0  0  0  0  0  0  0  0  0
  142.6800   76.4680  219.7160 C   0  0  0  0  0  0  0  0  0  0  0  0
  142.8858   77.1410  220.5614 H   0  0  0  0  0  0  0  0  0  0  0  0
  143.5868   76.3621  219.1024 H   0  0  0  0  0  0  0  0  0  0  0  0
  141.8690   76.8874  219.1024 H   0  0  0  0  0  0  0  0  0  0  0  0
  140.9800   77.3720  222.5040 C   0  0  0  0  0  0  0  0  0  0  0  0
  142.0277   77.6766  222.6441 H   0  0  0  0  0  0  0  0  0  0  0  0
  1  2  1  0
  2  3  1  0
  3  4  2  3
  4  5  1  0
  5  6  1  0
  5  7  1  0
  5  8  1  0
  8  9  1  0
  8 10  1  0
  3 11  1  0
 11 12  2  0
 12 13  1  0
 12 14  1  0
 14 15  1  0
 14 16  2  0
 16 17  1  0
 17 18  1  0
 18 19  1  0
 18 20  2  0
 20 21  1  0
 21 22  1  0
 22 23  2  0
 23 24  1  0
 23 25  1  0
 25 26  1  0
 26 27  2  0
 26 28  1  0
 25 29  2  0
 29 30  1  0
 29 31  1  0
 31 32  1  0
 31 33  2  0
 33 34  1  0
 20 35  1  0
 35 36  1  0
 16 37  1  0
 37 38  1  0
 38 39  1  0
 39 40  1  0
 39 41  1  0
 39 42  1  0
 42 43  1  0
 42 44  1  0
 42 45  1  0
 37 46  2  0
 46 47  1  0
  8  4  1  0
 46 11  1  0
 33 22  1  0
M  CHG  3  21  -1  26   1  28  -1
M  END
>  <UniqueID>  (21) 
6

>  <SMILES>  (21) 
CCOc1cc(C(O)=C2CC2)ccc1O/C=C(\O)[N-]c1cc([N+](=O)[O-])ccc1Cl

>  <Energy>  (21) 
224.8517622841017

>  <Genealogy>  (21) 
CCOc1cc(C(=O)C2CC2)ccc1OCC(=O)[N-]c1cc([N+](=O)[O-])ccc1Cl (protonated)
CCOc1cc(C(O)=C2CC2)ccc1OC=C(O)[N-]c1cc([N+](=O)[O-])ccc1Cl (tautomer)
CCOc1cc(C(O)=C2CC2)ccc1O/C=C(\O)[N-]c1cc([N+](=O)[O-])ccc1Cl (cis-trans isomerization)
CCOc1cc(C(O)=C2CC2)ccc1O/C=C(\O)[N-]c1cc([N+](=O)[O-])ccc1Cl (3D coordinates assigned)
CCOc1cc(C(O)=C2CC2)ccc1O/C=C(\O)[N-]c1cc([N+](=O)[O-])ccc1Cl (nonaromatic ring conformer: 224.8517622841017 kcal/mol)

>  <smiles>  (21) 
CCOc1cc(C(=O)C2CC2)ccc1OCC(=O)Nc1cc([N+](=O)[O-])ccc1Cl

>  <score_type>  (21) 
oracle

>  <origin>  (21) 
autodockgpu

>  <m_score__min__energy>  (21) 
-6.4500000000000002

>  <m_primary>  (21) 
energy

>  <meeko>  (21) 
{"free_energy": -6.43, "intermolecular_energy": -10.01, "internal_energy": -2.41, "cluster_size": 8, "cluster_id": 1, "rank_in_cluster": 3}

>  <energy>  (21) 
-6.45

>  <cluster_rmsd>  (21) 
0.0

>  <rmsd>  (21) 
271.81

>  <cluster>  (21) 
1

$$$$
VUCFXBNYDUPJQC-ODLFYWEKNA-N
     RDKit          3D

 47 49  0  0  0  0  0  0  0  0999 V2000
  146.3720   71.2150  220.0880 H   0  0  0  0  0  0  0  0  0  0  0  0
  146.4760   70.5540  219.3270 O   0  0  0  0  0  0  0  0  0  0  0  0
  145.4490   69.6820  218.9630 C   0  0  0  0  0  0  0  0  0  0  0  0
  145.7680   68.4300  218.6300 C   0  0  0  0  0  0  0  0  0  0  0  0
  145.9520   66.9600  218.9970 C   0  0  0  0  0  0  0  0  0  0  0  0
  146.7872   66.6626  219.6481 H   0  0  0  0  0  0  0  0  0  0  0  0
  145.3060   66.2020  219.4641 H   0  0  0  0  0  0  0  0  0  0  0  0
  146.2120   67.3460  217.6490 C   0  0  0  0  0  0  0  0  0  0  0  0
  147.2454   67.3435  217.2720 H   0  0  0  0  0  0  0  0  0  0  0  0
  145.8452   67.0028  216.6704 H   0  0  0  0  0  0  0  0  0  0  0  0
  144.0430   70.1690  218.9670 C   0  0  0  0  0  0  0  0  0  0  0  0
  143.6510   71.3230  218.2620 C   0  0  0  0  0  0  0  0  0  0  0  0
  144.3987   71.8893  217.6873 H   0  0  0  0  0  0  0  0  0  0  0  0
  142.3260   71.7560  218.2840 C   0  0  0  0  0  0  0  0  0  0  0  0
  142.0394   72.6626  217.7309 H   0  0  0  0  0  0  0  0  0  0  0  0
  141.3530   71.0440  219.0070 C   0  0  0  0  0  0  0  0  0  0  0  0
  140.0110   71.4510  219.0570 O   0  0  0  0  0  0  0  0  0  0  0  0
  139.4600   72.2640  220.0520 C   0  0  0  0  0  0  0  0  0  0  0  0
  138.5132   72.7912  219.8636 H   0  0  0  0  0  0  0  0  0  0  0  0
  140.0760   72.4060  221.2330 C   0  0  0  0  0  0  0  0  0  0  0  0
  140.6910   73.6480  221.6080 N   0  0  0  0  0  0  0  0  0  0  0  0
  141.8220   74.2580  220.9690 C   0  0  0  0  0  0  0  0  0  0  0  0
  143.0170   73.5320  220.8850 C   0  0  0  0  0  0  0  0  0  0  0  0
  143.0663   72.5170  221.3062 H   0  0  0  0  0  0  0  0  0  0  0  0
  144.1550   74.0840  220.2690 C   0  0  0  0  0  0  0  0  0  0  0  0
  145.3880   73.3430  220.2020 N   0  0  0  0  0  0  0  0  0  0  0  0
  145.8950   73.0490  219.0990 O   0  0  0  0  0  0  0  0  0  0  0  0
  146.0280   72.9440  221.3530 O   0  0  0  0  0  0  0  0  0  0  0  0
  144.0710   75.3740  219.7200 C   0  0  0  0  0  0  0  0  0  0  0  0
  144.9558   75.8243  219.2463 H   0  0  0  0  0  0  0  0  0  0  0  0
  142.8730   76.0890  219.7710 C   0  0  0  0  0  0  0  0  0  0  0  0
  142.8176   77.0938  219.3267 H   0  0  0  0  0  0  0  0  0  0  0  0
  141.7440   75.5380  220.3820 C   0  0  0  0  0  0  0  0  0  0  0  0
  140.2350   76.4420  220.3240 Cl  0  0  0  0  0  0  0  0  0  0  0  0
  140.1120   71.3540  222.1490 O   0  0  0  0  0  0  0  0  0  0  0  0
  140.2140   70.3870  221.8660 H   0  0  0  0  0  0  0  0  0  0  0  0
  141.7280   69.9010  219.7280 C   0  0  0  0  0  0  0  0  0  0  0  0
  140.7310   69.2270  220.4570 O   0  0  0  0  0  0  0  0  0  0  0  0
  139.9200   68.1560  219.9710 C   0  0  0  0  0  0  0  0  0  0  0  0
  139.2428   68.5406  219.1942 H   0  0  0  0  0  0  0  0  0  0  0  0
  139.3438   67.7415  220.8113 H   0  0  0  0  0  0  0  0  0  0  0  0
  140.7820   67.0490  219.3780 C   0  0  0  0  0  0  0  0  0  0  0  0
  141.2376   66.4640  220.1905 H   0  0  0  0  0  0  0  0  0  0  0  0
  140.1568   66.3900  218.7576 H   0  0  0  0  0  0  0  0  0  0  0  0
  141.5741   67.4936  218.7576 H   0  0  0  0  0  0  0  0  0  0  0  0
  143.0690   69.4710  219.7060 C   0  0  0  0  0  0  0  0  0  0  0  0
  143.3599   68.5758  220.2751 H   0  0  0  0  0  0  0  0  0  0  0  0
  1  2  1  0
  2  3  1  0
  3  4  2  3
  4  5  1  0
  5  6  1  0
  5  7  1  0
  5  8  1  0
  8  9  1  0
  8 10  1  0
  3 11  1  0
 11 12  2  0
 12 13  1  0
 12 14  1  0
 14 15  1  0
 14 16  2  0
 16 17  1  0
 17 18  1  0
 18 19  1  0
 18 20  2  0
 20 21  1  0
 21 22  1  0
 22 23  2  0
 23 24  1  0
 23 25  1  0
 25 26  1  0
 26 27  2  0
 26 28  1  0
 25 29  2  0
 29 30  1  0
 29 31  1  0
 31 32  1  0
 31 33  2  0
 33 34  1  0
 20 35  1  0
 35 36  1  0
 16 37  1  0
 37 38  1  0
 38 39  1  0
 39 40  1  0
 39 41  1  0
 39 42  1  0
 42 43  1  0
 42 44  1  0
 42 45  1  0
 37 46  2  0
 46 47  1  0
  8  4  1  0
 46 11  1  0
 33 22  1  0
M  CHG  3  21  -1  26   1  28  -1
M  END
>  <UniqueID>  (22) 
6

>  <SMILES>  (22) 
CCOc1cc(C(O)=C2CC2)ccc1O/C=C(\O)[N-]c1cc([N+](=O)[O-])ccc1Cl

>  <Energy>  (22) 
224.8517622841017

>  <Genealogy>  (22) 
CCOc1cc(C(=O)C2CC2)ccc1OCC(=O)[N-]c1cc([N+](=O)[O-])ccc1Cl (protonated)
CCOc1cc(C(O)=C2CC2)ccc1OC=C(O)[N-]c1cc([N+](=O)[O-])ccc1Cl (tautomer)
CCOc1cc(C(O)=C2CC2)ccc1O/C=C(\O)[N-]c1cc([N+](=O)[O-])ccc1Cl (cis-trans isomerization)
CCOc1cc(C(O)=C2CC2)ccc1O/C=C(\O)[N-]c1cc([N+](=O)[O-])ccc1Cl (3D coordinates assigned)
CCOc1cc(C(O)=C2CC2)ccc1O/C=C(\O)[N-]c1cc([N+](=O)[O-])ccc1Cl (nonaromatic ring conformer: 224.8517622841017 kcal/mol)

>  <smiles>  (22) 
CCOc1cc(C(=O)C2CC2)ccc1OCC(=O)Nc1cc([N+](=O)[O-])ccc1Cl

>  <score_type>  (22) 
oracle

>  <origin>  (22) 
autodockgpu

>  <m_score__min__energy>  (22) 
-6.4500000000000002

>  <m_primary>  (22) 
energy

>  <meeko>  (22) 
{"free_energy": -3.73, "intermolecular_energy": -7.31, "internal_energy": -4.48, "cluster_size": 2, "cluster_id": 6, "rank_in_cluster": 2}

>  <energy>  (22) 
-6.45

>  <cluster_rmsd>  (22) 
1.42

>  <rmsd>  (22) 
271.68

>  <cluster>  (22) 
1

$$$$
VUCFXBNYDUPJQC-ODLFYWEKNA-N
     RDKit          3D

 47 49  0  0  0  0  0  0  0  0999 V2000
  138.2740   80.1060  223.4430 H   0  0  0  0  0  0  0  0  0  0  0  0
  139.2310   80.4380  223.4160 O   0  0  0  0  0  0  0  0  0  0  0  0
  140.2990   79.5850  223.1330 C   0  0  0  0  0  0  0  0  0  0  0  0
  141.5390   80.0600  223.2490 C   0  0  0  0  0  0  0  0  0  0  0  0
  142.9920   80.1190  222.7840 C   0  0  0  0  0  0  0  0  0  0  0  0
  143.6494   79.2515  222.9429 H   0  0  0  0  0  0  0  0  0  0  0  0
  143.4780   80.3218  221.8183 H   0  0  0  0  0  0  0  0  0  0  0  0
  142.6160   80.9310  223.8940 C   0  0  0  0  0  0  0  0  0  0  0  0
  142.9862   80.6828  224.8997 H   0  0  0  0  0  0  0  0  0  0  0  0
  142.6983   82.0045  224.1192 H   0  0  0  0  0  0  0  0  0  0  0  0
  140.0210   78.1810  222.7220 C   0  0  0  0  0  0  0  0  0  0  0  0
  138.7450   77.6020  222.8600 C   0  0  0  0  0  0  0  0  0  0  0  0
  137.9208   78.1956  223.2823 H   0  0  0  0  0  0  0  0  0  0  0  0
  138.5150   76.2840  222.4670 C   0  0  0  0  0  0  0  0  0  0  0  0
  137.5132   75.8461  222.5877 H   0  0  0  0  0  0  0  0  0  0  0  0
  139.5520   75.5100  221.9180 C   0  0  0  0  0  0  0  0  0  0  0  0
  139.3600   74.1800  221.5150 O   0  0  0  0  0  0  0  0  0  0  0  0
  139.5020   73.0650  222.3460 C   0  0  0  0  0  0  0  0  0  0  0  0
  138.8301   72.9372  223.2075 H   0  0  0  0  0  0  0  0  0  0  0  0
  140.4510   72.1500  222.1010 C   0  0  0  0  0  0  0  0  0  0  0  0
  140.3980   70.8450  222.6960 N   0  0  0  0  0  0  0  0  0  0  0  0
  140.1190   70.5540  224.0730 C   0  0  0  0  0  0  0  0  0  0  0  0
  140.7730   71.3000  225.0620 C   0  0  0  0  0  0  0  0  0  0  0  0
  141.4817   72.0882  224.7679 H   0  0  0  0  0  0  0  0  0  0  0  0
  140.5350   71.0540  226.4270 C   0  0  0  0  0  0  0  0  0  0  0  0
  141.2230   71.8100  227.4410 N   0  0  0  0  0  0  0  0  0  0  0  0
  141.5320   73.0040  227.2460 O   0  0  0  0  0  0  0  0  0  0  0  0
  141.5550   71.2270  228.6420 O   0  0  0  0  0  0  0  0  0  0  0  0
  139.6140   70.0570  226.7860 C   0  0  0  0  0  0  0  0  0  0  0  0
  139.4267   69.8446  227.8489 H   0  0  0  0  0  0  0  0  0  0  0  0
  138.9340   69.3330  225.8050 C   0  0  0  0  0  0  0  0  0  0  0  0
  138.2061   68.5630  226.1003 H   0  0  0  0  0  0  0  0  0  0  0  0
  139.1720   69.5800  224.4500 C   0  0  0  0  0  0  0  0  0  0  0  0
  138.2110   68.7100  223.2600 Cl  0  0  0  0  0  0  0  0  0  0  0  0
  141.5060   72.4340  221.2340 O   0  0  0  0  0  0  0  0  0  0  0  0
  141.5820   73.3120  220.7340 H   0  0  0  0  0  0  0  0  0  0  0  0
  140.8330   76.0650  221.7870 C   0  0  0  0  0  0  0  0  0  0  0  0
  141.8500   75.2530  221.2530 O   0  0  0  0  0  0  0  0  0  0  0  0
  142.3410   75.3000  219.9130 C   0  0  0  0  0  0  0  0  0  0  0  0
  141.5167   75.0783  219.2191 H   0  0  0  0  0  0  0  0  0  0  0  0
  143.1434   74.5553  219.8057 H   0  0  0  0  0  0  0  0  0  0  0  0
  142.9080   76.6780  219.5910 C   0  0  0  0  0  0  0  0  0  0  0  0
  143.1277   77.2120  220.5273 H   0  0  0  0  0  0  0  0  0  0  0  0
  143.8333   76.5664  219.0067 H   0  0  0  0  0  0  0  0  0  0  0  0
  142.1721   77.2499  219.0067 H   0  0  0  0  0  0  0  0  0  0  0  0
  141.0600   77.3960  222.1910 C   0  0  0  0  0  0  0  0  0  0  0  0
  142.0665   77.8280  222.0893 H   0  0  0  0  0  0  0  0  0  0  0  0
  1  2  1  0
  2  3  1  0
  3  4  2  3
  4  5  1  0
  5  6  1  0
  5  7  1  0
  5  8  1  0
  8  9  1  0
  8 10  1  0
  3 11  1  0
 11 12  2  0
 12 13  1  0
 12 14  1  0
 14 15  1  0
 14 16  2  0
 16 17  1  0
 17 18  1  0
 18 19  1  0
 18 20  2  0
 20 21  1  0
 21 22  1  0
 22 23  2  0
 23 24  1  0
 23 25  1  0
 25 26  1  0
 26 27  2  0
 26 28  1  0
 25 29  2  0
 29 30  1  0
 29 31  1  0
 31 32  1  0
 31 33  2  0
 33 34  1  0
 20 35  1  0
 35 36  1  0
 16 37  1  0
 37 38  1  0
 38 39  1  0
 39 40  1  0
 39 41  1  0
 39 42  1  0
 42 43  1  0
 42 44  1  0
 42 45  1  0
 37 46  2  0
 46 47  1  0
  8  4  1  0
 46 11  1  0
 33 22  1  0
M  CHG  3  21  -1  26   1  28  -1
M  END
>  <UniqueID>  (23) 
6

>  <SMILES>  (23) 
CCOc1cc(C(O)=C2CC2)ccc1O/C=C(\O)[N-]c1cc([N+](=O)[O-])ccc1Cl

>  <Energy>  (23) 
224.8517622841017

>  <Genealogy>  (23) 
CCOc1cc(C(=O)C2CC2)ccc1OCC(=O)[N-]c1cc([N+](=O)[O-])ccc1Cl (protonated)
CCOc1cc(C(O)=C2CC2)ccc1OC=C(O)[N-]c1cc([N+](=O)[O-])ccc1Cl (tautomer)
CCOc1cc(C(O)=C2CC2)ccc1O/C=C(\O)[N-]c1cc([N+](=O)[O-])ccc1Cl (cis-trans isomerization)
CCOc1cc(C(O)=C2CC2)ccc1O/C=C(\O)[N-]c1cc([N+](=O)[O-])ccc1Cl (3D coordinates assigned)
CCOc1cc(C(O)=C2CC2)ccc1O/C=C(\O)[N-]c1cc([N+](=O)[O-])ccc1Cl (nonaromatic ring conformer: 224.8517622841017 kcal/mol)

>  <smiles>  (23) 
CCOc1cc(C(=O)C2CC2)ccc1OCC(=O)Nc1cc([N+](=O)[O-])ccc1Cl

>  <score_type>  (23) 
oracle

>  <origin>  (23) 
autodockgpu

>  <m_score__min__energy>  (23) 
-6.4500000000000002

>  <m_primary>  (23) 
energy

>  <meeko>  (23) 
{"free_energy": -5.85, "intermolecular_energy": -9.42, "internal_energy": -2.21, "cluster_size": 8, "cluster_id": 1, "rank_in_cluster": 7}

>  <energy>  (23) 
-6.43

>  <cluster_rmsd>  (23) 
0.38

>  <rmsd>  (23) 
271.84

>  <cluster>  (23) 
1

$$$$
VUCFXBNYDUPJQC-ODLFYWEKNA-N
     RDKit          3D

 47 49  0  0  0  0  0  0  0  0999 V2000
  142.1810   81.7780  221.8430 H   0  0  0  0  0  0  0  0  0  0  0  0
  141.5860   82.2390  221.1640 O   0  0  0  0  0  0  0  0  0  0  0  0
  141.4450   81.7580  219.8610 C   0  0  0  0  0  0  0  0  0  0  0  0
  141.6590   82.5990  218.8480 C   0  0  0  0  0  0  0  0  0  0  0  0
  142.4330   83.0090  217.5980 C   0  0  0  0  0  0  0  0  0  0  0  0
  143.4714   83.3594  217.6921 H   0  0  0  0  0  0  0  0  0  0  0  0
  142.6792   82.5050  216.6518 H   0  0  0  0  0  0  0  0  0  0  0  0
  141.3640   83.8510  218.0230 C   0  0  0  0  0  0  0  0  0  0  0  0
  141.5867   84.8435  218.4418 H   0  0  0  0  0  0  0  0  0  0  0  0
  140.4634   84.2502  217.5335 H   0  0  0  0  0  0  0  0  0  0  0  0
  141.0730   80.3330  219.6460 C   0  0  0  0  0  0  0  0  0  0  0  0
  139.7330   79.9240  219.5140 C   0  0  0  0  0  0  0  0  0  0  0  0
  138.9282   80.6718  219.5692 H   0  0  0  0  0  0  0  0  0  0  0  0
  139.4140   78.5810  219.3140 C   0  0  0  0  0  0  0  0  0  0  0  0
  138.3605   78.2791  219.2188 H   0  0  0  0  0  0  0  0  0  0  0  0
  140.4270   77.6100  219.2330 C   0  0  0  0  0  0  0  0  0  0  0  0
  140.1460   76.2500  219.0370 O   0  0  0  0  0  0  0  0  0  0  0  0
  140.0830   75.2920  220.0540 C   0  0  0  0  0  0  0  0  0  0  0  0
  139.3979   74.4368  219.9573 H   0  0  0  0  0  0  0  0  0  0  0  0
  140.8520   75.4090  221.1460 C   0  0  0  0  0  0  0  0  0  0  0  0
  140.3320   75.9580  222.3660 N   0  0  0  0  0  0  0  0  0  0  0  0
  140.1140   77.3490  222.6420 C   0  0  0  0  0  0  0  0  0  0  0  0
  141.2280   78.1880  222.7800 C   0  0  0  0  0  0  0  0  0  0  0  0
  142.2396   77.7690  222.6750 H   0  0  0  0  0  0  0  0  0  0  0  0
  141.0690   79.5590  223.0510 C   0  0  0  0  0  0  0  0  0  0  0  0
  142.2160   80.4150  223.2130 N   0  0  0  0  0  0  0  0  0  0  0  0
  143.3020   80.1350  222.6640 O   0  0  0  0  0  0  0  0  0  0  0  0
  142.1350   81.5560  223.9770 O   0  0  0  0  0  0  0  0  0  0  0  0
  139.7710   80.0830  223.1630 C   0  0  0  0  0  0  0  0  0  0  0  0
  139.6309   81.1509  223.3864 H   0  0  0  0  0  0  0  0  0  0  0  0
  138.6570   79.2590  222.9930 C   0  0  0  0  0  0  0  0  0  0  0  0
  137.6458   79.6848  223.0721 H   0  0  0  0  0  0  0  0  0  0  0  0
  138.8170   77.8970  222.7230 C   0  0  0  0  0  0  0  0  0  0  0  0
  137.3800   76.9290  222.4150 Cl  0  0  0  0  0  0  0  0  0  0  0  0
  142.1760   74.9710  221.1340 O   0  0  0  0  0  0  0  0  0  0  0  0
  142.9550   75.5890  220.9440 H   0  0  0  0  0  0  0  0  0  0  0  0
  141.7670   77.9970  219.3780 C   0  0  0  0  0  0  0  0  0  0  0  0
  142.7520   76.9940  219.3120 O   0  0  0  0  0  0  0  0  0  0  0  0
  143.2740   76.4120  218.1180 C   0  0  0  0  0  0  0  0  0  0  0  0
  142.8288   75.4159  217.9783 H   0  0  0  0  0  0  0  0  0  0  0  0
  144.3671   76.3340  218.2135 H   0  0  0  0  0  0  0  0  0  0  0  0
  142.9510   77.2780  216.9050 C   0  0  0  0  0  0  0  0  0  0  0  0
  142.5851   78.2591  217.2419 H   0  0  0  0  0  0  0  0  0  0  0  0
  143.8590   77.4136  216.2991 H   0  0  0  0  0  0  0  0  0  0  0  0
  142.1760   76.7859  216.2991 H   0  0  0  0  0  0  0  0  0  0  0  0
  142.0830   79.3550  219.5850 C   0  0  0  0  0  0  0  0  0  0  0  0
  143.1350   79.6548  219.7006 H   0  0  0  0  0  0  0  0  0  0  0  0
  1  2  1  0
  2  3  1  0
  3  4  2  3
  4  5  1  0
  5  6  1  0
  5  7  1  0
  5  8  1  0
  8  9  1  0
  8 10  1  0
  3 11  1  0
 11 12  2  0
 12 13  1  0
 12 14  1  0
 14 15  1  0
 14 16  2  0
 16 17  1  0
 17 18  1  0
 18 19  1  0
 18 20  2  0
 20 21  1  0
 21 22  1  0
 22 23  2  0
 23 24  1  0
 23 25  1  0
 25 26  1  0
 26 27  2  0
 26 28  1  0
 25 29  2  0
 29 30  1  0
 29 31  1  0
 31 32  1  0
 31 33  2  0
 33 34  1  0
 20 35  1  0
 35 36  1  0
 16 37  1  0
 37 38  1  0
 38 39  1  0
 39 40  1  0
 39 41  1  0
 39 42  1  0
 42 43  1  0
 42 44  1  0
 42 45  1  0
 37 46  2  0
 46 47  1  0
  8  4  1  0
 46 11  1  0
 33 22  1  0
M  CHG  3  21  -1  26   1  28  -1
M  END
>  <UniqueID>  (24) 
6

>  <SMILES>  (24) 
CCOc1cc(C(O)=C2CC2)ccc1O/C=C(\O)[N-]c1cc([N+](=O)[O-])ccc1Cl

>  <Energy>  (24) 
224.8517622841017

>  <Genealogy>  (24) 
CCOc1cc(C(=O)C2CC2)ccc1OCC(=O)[N-]c1cc([N+](=O)[O-])ccc1Cl (protonated)
CCOc1cc(C(O)=C2CC2)ccc1OC=C(O)[N-]c1cc([N+](=O)[O-])ccc1Cl (tautomer)
CCOc1cc(C(O)=C2CC2)ccc1O/C=C(\O)[N-]c1cc([N+](=O)[O-])ccc1Cl (cis-trans isomerization)
CCOc1cc(C(O)=C2CC2)ccc1O/C=C(\O)[N-]c1cc([N+](=O)[O-])ccc1Cl (3D coordinates assigned)
CCOc1cc(C(O)=C2CC2)ccc1O/C=C(\O)[N-]c1cc([N+](=O)[O-])ccc1Cl (nonaromatic ring conformer: 224.8517622841017 kcal/mol)

>  <smiles>  (24) 
CCOc1cc(C(=O)C2CC2)ccc1OCC(=O)Nc1cc([N+](=O)[O-])ccc1Cl

>  <score_type>  (24) 
oracle

>  <origin>  (24) 
autodockgpu

>  <m_score__min__energy>  (24) 
-6.4500000000000002

>  <m_primary>  (24) 
energy

>  <meeko>  (24) 
{"free_energy": -3.16, "intermolecular_energy": -6.73, "internal_energy": -4.83, "cluster_size": 2, "cluster_id": 10, "rank_in_cluster": 2}

>  <energy>  (24) 
-6.35

>  <cluster_rmsd>  (24) 
0.42

>  <rmsd>  (24) 
271.69

>  <cluster>  (24) 
1

$$$$
VUCFXBNYDUPJQC-ODLFYWEKNA-N
     RDKit          3D

 47 49  0  0  0  0  0  0  0  0999 V2000
  146.2130   74.0330  218.6390 H   0  0  0  0  0  0  0  0  0  0  0  0
  146.1970   73.0280  218.5080 O   0  0  0  0  0  0  0  0  0  0  0  0
  145.2700   72.2150  219.1620 C   0  0  0  0  0  0  0  0  0  0  0  0
  145.4480   70.8940  219.1280 C   0  0  0  0  0  0  0  0  0  0  0  0
  144.9020   69.4730  219.2380 C   0  0  0  0  0  0  0  0  0  0  0  0
  144.5866   69.0861  220.2182 H   0  0  0  0  0  0  0  0  0  0  0  0
  144.0797   68.9301  218.7490 H   0  0  0  0  0  0  0  0  0  0  0  0
  146.2920   69.6310  218.9560 C   0  0  0  0  0  0  0  0  0  0  0  0
  147.0362   69.3654  219.7213 H   0  0  0  0  0  0  0  0  0  0  0  0
  146.9599   69.2584  218.1653 H   0  0  0  0  0  0  0  0  0  0  0  0
  144.1250   72.8440  219.8770 C   0  0  0  0  0  0  0  0  0  0  0  0
  144.0480   74.2350  220.0840 C   0  0  0  0  0  0  0  0  0  0  0  0
  144.8519   74.8860  219.7098 H   0  0  0  0  0  0  0  0  0  0  0  0
  142.9640   74.7960  220.7580 C   0  0  0  0  0  0  0  0  0  0  0  0
  142.9233   75.8839  220.9156 H   0  0  0  0  0  0  0  0  0  0  0  0
  141.9220   73.9820  221.2380 C   0  0  0  0  0  0  0  0  0  0  0  0
  140.8170   74.5090  221.9240 O   0  0  0  0  0  0  0  0  0  0  0  0
  140.3190   75.8050  221.7580 C   0  0  0  0  0  0  0  0  0  0  0  0
  140.9876   76.6069  221.4117 H   0  0  0  0  0  0  0  0  0  0  0  0
  139.0320   76.0770  222.0180 C   0  0  0  0  0  0  0  0  0  0  0  0
  138.5070   77.4050  221.8690 N   0  0  0  0  0  0  0  0  0  0  0  0
  138.9690   78.5790  222.5540 C   0  0  0  0  0  0  0  0  0  0  0  0
  140.3410   78.8620  222.5480 C   0  0  0  0  0  0  0  0  0  0  0  0
  141.0327   78.1867  222.0230 H   0  0  0  0  0  0  0  0  0  0  0  0
  140.8450   79.9990  223.2050 C   0  0  0  0  0  0  0  0  0  0  0  0
  142.2580   80.2780  223.2140 N   0  0  0  0  0  0  0  0  0  0  0  0
  142.8750   80.4020  224.2930 O   0  0  0  0  0  0  0  0  0  0  0  0
  142.9520   80.4130  222.0340 O   0  0  0  0  0  0  0  0  0  0  0  0
  139.9470   80.8620  223.8540 C   0  0  0  0  0  0  0  0  0  0  0  0
  140.3274   81.7491  224.3815 H   0  0  0  0  0  0  0  0  0  0  0  0
  138.5760   80.6030  223.8350 C   0  0  0  0  0  0  0  0  0  0  0  0
  137.8829   81.2931  224.3384 H   0  0  0  0  0  0  0  0  0  0  0  0
  138.0770   79.4730  223.1810 C   0  0  0  0  0  0  0  0  0  0  0  0
  136.3330   79.2540  223.1000 Cl  0  0  0  0  0  0  0  0  0  0  0  0
  138.1570   75.0660  222.4140 O   0  0  0  0  0  0  0  0  0  0  0  0
  138.4770   74.1790  222.7840 H   0  0  0  0  0  0  0  0  0  0  0  0
  141.9890   72.5940  221.0540 C   0  0  0  0  0  0  0  0  0  0  0  0
  140.9380   71.8110  221.5660 O   0  0  0  0  0  0  0  0  0  0  0  0
  140.5630   71.7130  222.9400 C   0  0  0  0  0  0  0  0  0  0  0  0
  140.8252   72.6501  223.4530 H   0  0  0  0  0  0  0  0  0  0  0  0
  141.0993   70.8656  223.3919 H   0  0  0  0  0  0  0  0  0  0  0  0
  139.0640   71.4710  223.0770 C   0  0  0  0  0  0  0  0  0  0  0  0
  138.7955   71.4277  224.1428 H   0  0  0  0  0  0  0  0  0  0  0  0
  138.5143   72.2920  222.5935 H   0  0  0  0  0  0  0  0  0  0  0  0
  138.8006   70.5187  222.5935 H   0  0  0  0  0  0  0  0  0  0  0  0
  143.0900   72.0330  220.3760 C   0  0  0  0  0  0  0  0  0  0  0  0
  143.1406   70.9433  220.2349 H   0  0  0  0  0  0  0  0  0  0  0  0
  1  2  1  0
  2  3  1  0
  3  4  2  3
  4  5  1  0
  5  6  1  0
  5  7  1  0
  5  8  1  0
  8  9  1  0
  8 10  1  0
  3 11  1  0
 11 12  2  0
 12 13  1  0
 12 14  1  0
 14 15  1  0
 14 16  2  0
 16 17  1  0
 17 18  1  0
 18 19  1  0
 18 20  2  0
 20 21  1  0
 21 22  1  0
 22 23  2  0
 23 24  1  0
 23 25  1  0
 25 26  1  0
 26 27  2  0
 26 28  1  0
 25 29  2  0
 29 30  1  0
 29 31  1  0
 31 32  1  0
 31 33  2  0
 33 34  1  0
 20 35  1  0
 35 36  1  0
 16 37  1  0
 37 38  1  0
 38 39  1  0
 39 40  1  0
 39 41  1  0
 39 42  1  0
 42 43  1  0
 42 44  1  0
 42 45  1  0
 37 46  2  0
 46 47  1  0
  8  4  1  0
 46 11  1  0
 33 22  1  0
M  CHG  3  21  -1  26   1  28  -1
M  END
>  <UniqueID>  (25) 
6

>  <SMILES>  (25) 
CCOc1cc(C(O)=C2CC2)ccc1O/C=C(\O)[N-]c1cc([N+](=O)[O-])ccc1Cl

>  <Energy>  (25) 
224.8517622841017

>  <Genealogy>  (25) 
CCOc1cc(C(=O)C2CC2)ccc1OCC(=O)[N-]c1cc([N+](=O)[O-])ccc1Cl (protonated)
CCOc1cc(C(O)=C2CC2)ccc1OC=C(O)[N-]c1cc([N+](=O)[O-])ccc1Cl (tautomer)
CCOc1cc(C(O)=C2CC2)ccc1O/C=C(\O)[N-]c1cc([N+](=O)[O-])ccc1Cl (cis-trans isomerization)
CCOc1cc(C(O)=C2CC2)ccc1O/C=C(\O)[N-]c1cc([N+](=O)[O-])ccc1Cl (3D coordinates assigned)
CCOc1cc(C(O)=C2CC2)ccc1O/C=C(\O)[N-]c1cc([N+](=O)[O-])ccc1Cl (nonaromatic ring conformer: 224.8517622841017 kcal/mol)

>  <smiles>  (25) 
CCOc1cc(C(=O)C2CC2)ccc1OCC(=O)Nc1cc([N+](=O)[O-])ccc1Cl

>  <score_type>  (25) 
oracle

>  <origin>  (25) 
autodockgpu

>  <m_score__min__energy>  (25) 
-6.4500000000000002

>  <m_primary>  (25) 
energy

>  <meeko>  (25) 
{"free_energy": -6.04, "intermolecular_energy": -9.62, "internal_energy": -1.5, "cluster_size": 1, "cluster_id": 2, "rank_in_cluster": 1}

>  <energy>  (25) 
-6.31

>  <cluster_rmsd>  (25) 
0.32

>  <rmsd>  (25) 
271.79

>  <cluster>  (25) 
1

$$$$
VUCFXBNYDUPJQC-ODLFYWEKNA-N
     RDKit          3D

 47 49  0  0  0  0  0  0  0  0999 V2000
  141.5160   80.4660  219.7950 H   0  0  0  0  0  0  0  0  0  0  0  0
  141.4510   80.9410  220.6880 O   0  0  0  0  0  0  0  0  0  0  0  0
  141.3840   80.2390  221.8930 C   0  0  0  0  0  0  0  0  0  0  0  0
  142.0900   80.6910  222.9310 C   0  0  0  0  0  0  0  0  0  0  0  0
  142.2490   81.6230  224.1290 C   0  0  0  0  0  0  0  0  0  0  0  0
  142.4008   82.6999  223.9638 H   0  0  0  0  0  0  0  0  0  0  0  0
  141.6375   81.8365  225.0181 H   0  0  0  0  0  0  0  0  0  0  0  0
  143.3090   80.7110  223.8510 C   0  0  0  0  0  0  0  0  0  0  0  0
  144.2694   81.0919  223.4734 H   0  0  0  0  0  0  0  0  0  0  0  0
  143.8347   79.9460  224.4413 H   0  0  0  0  0  0  0  0  0  0  0  0
  140.5270   79.0250  221.9820 C   0  0  0  0  0  0  0  0  0  0  0  0
  140.9740   77.8400  222.5970 C   0  0  0  0  0  0  0  0  0  0  0  0
  141.9849   77.7995  223.0288 H   0  0  0  0  0  0  0  0  0  0  0  0
  140.1500   76.7170  222.6650 C   0  0  0  0  0  0  0  0  0  0  0  0
  140.5187   75.7976  223.1433 H   0  0  0  0  0  0  0  0  0  0  0  0
  138.8520   76.7510  222.1270 C   0  0  0  0  0  0  0  0  0  0  0  0
  137.9940   75.6410  222.1730 O   0  0  0  0  0  0  0  0  0  0  0  0
  138.2410   74.4150  221.5470 C   0  0  0  0  0  0  0  0  0  0  0  0
  137.4026   73.8328  221.1369 H   0  0  0  0  0  0  0  0  0  0  0  0
  139.4920   73.9440  221.4430 C   0  0  0  0  0  0  0  0  0  0  0  0
  140.2160   74.0230  220.2060 N   0  0  0  0  0  0  0  0  0  0  0  0
  141.2870   74.9320  219.9100 C   0  0  0  0  0  0  0  0  0  0  0  0
  140.9690   76.2480  219.5490 C   0  0  0  0  0  0  0  0  0  0  0  0
  139.9146   76.5578  219.5004 H   0  0  0  0  0  0  0  0  0  0  0  0
  141.9800   77.1780  219.2480 C   0  0  0  0  0  0  0  0  0  0  0  0
  141.6490   78.5240  218.8580 N   0  0  0  0  0  0  0  0  0  0  0  0
  140.4580   78.8880  218.7720 O   0  0  0  0  0  0  0  0  0  0  0  0
  142.6420   79.4330  218.5710 O   0  0  0  0  0  0  0  0  0  0  0  0
  143.3220   76.7730  219.3330 C   0  0  0  0  0  0  0  0  0  0  0  0
  144.1238   77.4854  219.0889 H   0  0  0  0  0  0  0  0  0  0  0  0
  143.6460   75.4730  219.7250 C   0  0  0  0  0  0  0  0  0  0  0  0
  144.7015   75.1724  219.7993 H   0  0  0  0  0  0  0  0  0  0  0  0
  142.6390   74.5500  220.0240 C   0  0  0  0  0  0  0  0  0  0  0  0
  143.1090   72.9600  220.6120 Cl  0  0  0  0  0  0  0  0  0  0  0  0
  140.1380   73.3890  222.5480 O   0  0  0  0  0  0  0  0  0  0  0  0
  139.7200   73.3640  223.4700 H   0  0  0  0  0  0  0  0  0  0  0  0
  138.3950   77.9180  221.4970 C   0  0  0  0  0  0  0  0  0  0  0  0
  137.0980   77.9050  220.9520 O   0  0  0  0  0  0  0  0  0  0  0  0
  136.7760   77.8750  219.5610 C   0  0  0  0  0  0  0  0  0  0  0  0
  136.8405   78.8949  219.1540 H   0  0  0  0  0  0  0  0  0  0  0  0
  135.7563   77.4794  219.4439 H   0  0  0  0  0  0  0  0  0  0  0  0
  137.7400   76.9720  218.8010 C   0  0  0  0  0  0  0  0  0  0  0  0
  138.3494   76.4011  219.5170 H   0  0  0  0  0  0  0  0  0  0  0  0
  137.1692   76.2760  218.1687 H   0  0  0  0  0  0  0  0  0  0  0  0
  138.3972   77.5870  218.1687 H   0  0  0  0  0  0  0  0  0  0  0  0
  139.2350   79.0470  221.4270 C   0  0  0  0  0  0  0  0  0  0  0  0
  138.8746   79.9600  220.9305 H   0  0  0  0  0  0  0  0  0  0  0  0
  1  2  1  0
  2  3  1  0
  3  4  2  3
  4  5  1  0
  5  6  1  0
  5  7  1  0
  5  8  1  0
  8  9  1  0
  8 10  1  0
  3 11  1  0
 11 12  2  0
 12 13  1  0
 12 14  1  0
 14 15  1  0
 14 16  2  0
 16 17  1  0
 17 18  1  0
 18 19  1  0
 18 20  2  0
 20 21  1  0
 21 22  1  0
 22 23  2  0
 23 24  1  0
 23 25  1  0
 25 26  1  0
 26 27  2  0
 26 28  1  0
 25 29  2  0
 29 30  1  0
 29 31  1  0
 31 32  1  0
 31 33  2  0
 33 34  1  0
 20 35  1  0
 35 36  1  0
 16 37  1  0
 37 38  1  0
 38 39  1  0
 39 40  1  0
 39 41  1  0
 39 42  1  0
 42 43  1  0
 42 44  1  0
 42 45  1  0
 37 46  2  0
 46 47  1  0
  8  4  1  0
 46 11  1  0
 33 22  1  0
M  CHG  3  21  -1  26   1  28  -1
M  END
>  <UniqueID>  (26) 
6

>  <SMILES>  (26) 
CCOc1cc(C(O)=C2CC2)ccc1O/C=C(\O)[N-]c1cc([N+](=O)[O-])ccc1Cl

>  <Energy>  (26) 
224.8517622841017

>  <Genealogy>  (26) 
CCOc1cc(C(=O)C2CC2)ccc1OCC(=O)[N-]c1cc([N+](=O)[O-])ccc1Cl (protonated)
CCOc1cc(C(O)=C2CC2)ccc1OC=C(O)[N-]c1cc([N+](=O)[O-])ccc1Cl (tautomer)
CCOc1cc(C(O)=C2CC2)ccc1O/C=C(\O)[N-]c1cc([N+](=O)[O-])ccc1Cl (cis-trans isomerization)
CCOc1cc(C(O)=C2CC2)ccc1O/C=C(\O)[N-]c1cc([N+](=O)[O-])ccc1Cl (3D coordinates assigned)
CCOc1cc(C(O)=C2CC2)ccc1O/C=C(\O)[N-]c1cc([N+](=O)[O-])ccc1Cl (nonaromatic ring conformer: 224.8517622841017 kcal/mol)

>  <smiles>  (26) 
CCOc1cc(C(=O)C2CC2)ccc1OCC(=O)Nc1cc([N+](=O)[O-])ccc1Cl

>  <score_type>  (26) 
oracle

>  <origin>  (26) 
autodockgpu

>  <m_score__min__energy>  (26) 
-6.4500000000000002

>  <m_primary>  (26) 
energy

>  <meeko>  (26) 
{"free_energy": -3.55, "intermolecular_energy": -7.13, "internal_energy": -4.18, "cluster_size": 1, "cluster_id": 8, "rank_in_cluster": 1}

>  <energy>  (26) 
-6.15

>  <cluster_rmsd>  (26) 
0.27

>  <rmsd>  (26) 
271.7

>  <cluster>  (26) 
1

$$$$
VUCFXBNYDUPJQC-ODLFYWEKNA-N
     RDKit          3D

 47 49  0  0  0  0  0  0  0  0999 V2000
  145.8720   71.5250  220.5300 H   0  0  0  0  0  0  0  0  0  0  0  0
  145.5510   71.0730  219.6810 O   0  0  0  0  0  0  0  0  0  0  0  0
  144.3790   70.3160  219.6470 C   0  0  0  0  0  0  0  0  0  0  0  0
  144.4820   68.9910  219.5350 C   0  0  0  0  0  0  0  0  0  0  0  0
  143.8480   67.6190  219.3210 C   0  0  0  0  0  0  0  0  0  0  0  0
  143.2108   67.1860  220.1062 H   0  0  0  0  0  0  0  0  0  0  0  0
  143.1978   67.1901  218.5443 H   0  0  0  0  0  0  0  0  0  0  0  0
  145.2610   67.6760  219.5110 C   0  0  0  0  0  0  0  0  0  0  0  0
  145.7011   67.2872  220.4411 H   0  0  0  0  0  0  0  0  0  0  0  0
  146.1257   67.3090  218.9386 H   0  0  0  0  0  0  0  0  0  0  0  0
  143.0630   71.0060  219.7420 C   0  0  0  0  0  0  0  0  0  0  0  0
  142.2600   71.2400  218.6100 C   0  0  0  0  0  0  0  0  0  0  0  0
  142.6053   70.9075  217.6199 H   0  0  0  0  0  0  0  0  0  0  0  0
  141.0310   71.8890  218.7300 C   0  0  0  0  0  0  0  0  0  0  0  0
  140.4187   72.0680  217.8339 H   0  0  0  0  0  0  0  0  0  0  0  0
  140.5690   72.3160  219.9870 C   0  0  0  0  0  0  0  0  0  0  0  0
  139.3400   72.9760  220.1470 O   0  0  0  0  0  0  0  0  0  0  0  0
  139.1910   74.3560  220.3140 C   0  0  0  0  0  0  0  0  0  0  0  0
  138.4229   74.8954  219.7403 H   0  0  0  0  0  0  0  0  0  0  0  0
  139.9770   75.0270  221.1680 C   0  0  0  0  0  0  0  0  0  0  0  0
  141.1100   75.7760  220.7060 N   0  0  0  0  0  0  0  0  0  0  0  0
  142.1680   75.2810  219.8710 C   0  0  0  0  0  0  0  0  0  0  0  0
  143.2890   74.7050  220.4810 C   0  0  0  0  0  0  0  0  0  0  0  0
  143.3384   74.6426  221.5781 H   0  0  0  0  0  0  0  0  0  0  0  0
  144.3530   74.2050  219.7080 C   0  0  0  0  0  0  0  0  0  0  0  0
  145.5140   73.6310  220.3380 N   0  0  0  0  0  0  0  0  0  0  0  0
  145.5150   73.3770  221.5610 O   0  0  0  0  0  0  0  0  0  0  0  0
  146.6430   73.3530  219.6030 O   0  0  0  0  0  0  0  0  0  0  0  0
  144.2670   74.2750  218.3080 C   0  0  0  0  0  0  0  0  0  0  0  0
  145.0962   73.8992  217.6907 H   0  0  0  0  0  0  0  0  0  0  0  0
  143.1370   74.8180  217.6940 C   0  0  0  0  0  0  0  0  0  0  0  0
  143.0777   74.8567  216.5963 H   0  0  0  0  0  0  0  0  0  0  0  0
  142.0800   75.3130  218.4640 C   0  0  0  0  0  0  0  0  0  0  0  0
  140.6390   75.8900  217.6360 Cl  0  0  0  0  0  0  0  0  0  0  0  0
  139.6950   75.0380  222.5340 O   0  0  0  0  0  0  0  0  0  0  0  0
  139.5660   74.1900  223.0730 H   0  0  0  0  0  0  0  0  0  0  0  0
  141.3620   72.1050  221.1230 C   0  0  0  0  0  0  0  0  0  0  0  0
  140.8750   72.5660  222.3600 O   0  0  0  0  0  0  0  0  0  0  0  0
  139.9350   71.8870  223.1940 C   0  0  0  0  0  0  0  0  0  0  0  0
  139.0306   72.5049  223.2950 H   0  0  0  0  0  0  0  0  0  0  0  0
  140.3956   71.7177  224.1785 H   0  0  0  0  0  0  0  0  0  0  0  0
  139.5540   70.5380  222.5950 C   0  0  0  0  0  0  0  0  0  0  0  0
  139.3516   69.8213  223.4046 H   0  0  0  0  0  0  0  0  0  0  0  0
  138.6534   70.6537  221.9741 H   0  0  0  0  0  0  0  0  0  0  0  0
  140.3821   70.1655  221.9741 H   0  0  0  0  0  0  0  0  0  0  0  0
  142.6050   71.4530  220.9950 C   0  0  0  0  0  0  0  0  0  0  0  0
  143.2264   71.2912  221.8881 H   0  0  0  0  0  0  0  0  0  0  0  0
  1  2  1  0
  2  3  1  0
  3  4  2  3
  4  5  1  0
  5  6  1  0
  5  7  1  0
  5  8  1  0
  8  9  1  0
  8 10  1  0
  3 11  1  0
 11 12  2  0
 12 13  1  0
 12 14  1  0
 14 15  1  0
 14 16  2  0
 16 17  1  0
 17 18  1  0
 18 19  1  0
 18 20  2  0
 20 21  1  0
 21 22  1  0
 22 23  2  0
 23 24  1  0
 23 25  1  0
 25 26  1  0
 26 27  2  0
 26 28  1  0
 25 29  2  0
 29 30  1  0
 29 31  1  0
 31 32  1  0
 31 33  2  0
 33 34  1  0
 20 35  1  0
 35 36  1  0
 16 37  1  0
 37 38  1  0
 38 39  1  0
 39 40  1  0
 39 41  1  0
 39 42  1  0
 42 43  1  0
 42 44  1  0
 42 45  1  0
 37 46  2  0
 46 47  1  0
  8  4  1  0
 46 11  1  0
 33 22  1  0
M  CHG  3  21  -1  26   1  28  -1
M  END
>  <UniqueID>  (27) 
6

>  <SMILES>  (27) 
CCOc1cc(C(O)=C2CC2)ccc1O/C=C(\O)[N-]c1cc([N+](=O)[O-])ccc1Cl

>  <Energy>  (27) 
224.8517622841017

>  <Genealogy>  (27) 
CCOc1cc(C(=O)C2CC2)ccc1OCC(=O)[N-]c1cc([N+](=O)[O-])ccc1Cl (protonated)
CCOc1cc(C(O)=C2CC2)ccc1OC=C(O)[N-]c1cc([N+](=O)[O-])ccc1Cl (tautomer)
CCOc1cc(C(O)=C2CC2)ccc1O/C=C(\O)[N-]c1cc([N+](=O)[O-])ccc1Cl (cis-trans isomerization)
CCOc1cc(C(O)=C2CC2)ccc1O/C=C(\O)[N-]c1cc([N+](=O)[O-])ccc1Cl (3D coordinates assigned)
CCOc1cc(C(O)=C2CC2)ccc1O/C=C(\O)[N-]c1cc([N+](=O)[O-])ccc1Cl (nonaromatic ring conformer: 224.8517622841017 kcal/mol)

>  <smiles>  (27) 
CCOc1cc(C(=O)C2CC2)ccc1OCC(=O)Nc1cc([N+](=O)[O-])ccc1Cl

>  <score_type>  (27) 
oracle

>  <origin>  (27) 
autodockgpu

>  <m_score__min__energy>  (27) 
-6.4500000000000002

>  <m_primary>  (27) 
energy

>  <meeko>  (27) 
{"free_energy": -3.78, "intermolecular_energy": -7.36, "internal_energy": -4.58, "cluster_size": 2, "cluster_id": 6, "rank_in_cluster": 1}

>  <energy>  (27) 
-5.85

>  <cluster_rmsd>  (27) 
0.81

>  <rmsd>  (27) 
271.75

>  <cluster>  (27) 
1

$$$$
VUCFXBNYDUPJQC-ODLFYWEKNA-N
     RDKit          3D

 47 49  0  0  0  0  0  0  0  0999 V2000
  146.3120   73.8120  218.6440 H   0  0  0  0  0  0  0  0  0  0  0  0
  145.9360   73.3760  217.8100 O   0  0  0  0  0  0  0  0  0  0  0  0
  144.9890   74.0140  217.0070 C   0  0  0  0  0  0  0  0  0  0  0  0
  145.2830   74.2230  215.7230 C   0  0  0  0  0  0  0  0  0  0  0  0
  146.2830   74.5810  214.6270 C   0  0  0  0  0  0  0  0  0  0  0  0
  146.6645   75.6102  214.5540 H   0  0  0  0  0  0  0  0  0  0  0  0
  147.2658   74.1862  214.3300 H   0  0  0  0  0  0  0  0  0  0  0  0
  144.9410   74.2970  214.2360 C   0  0  0  0  0  0  0  0  0  0  0  0
  144.2988   75.1095  213.8652 H   0  0  0  0  0  0  0  0  0  0  0  0
  144.4842   73.5978  213.5201 H   0  0  0  0  0  0  0  0  0  0  0  0
  143.6900   74.4290  217.6030 C   0  0  0  0  0  0  0  0  0  0  0  0
  142.4770   73.8040  217.2580 C   0  0  0  0  0  0  0  0  0  0  0  0
  142.4777   72.9819  216.5272 H   0  0  0  0  0  0  0  0  0  0  0  0
  141.2740   74.2150  217.8320 C   0  0  0  0  0  0  0  0  0  0  0  0
  140.3350   73.7189  217.5452 H   0  0  0  0  0  0  0  0  0  0  0  0
  141.2520   75.2580  218.7740 C   0  0  0  0  0  0  0  0  0  0  0  0
  140.0620   75.7020  219.3700 O   0  0  0  0  0  0  0  0  0  0  0  0
  139.5860   75.2790  220.6150 C   0  0  0  0  0  0  0  0  0  0  0  0
  138.5026   75.1944  220.7853 H   0  0  0  0  0  0  0  0  0  0  0  0
  140.4400   74.9760  221.6020 C   0  0  0  0  0  0  0  0  0  0  0  0
  140.7520   73.6120  221.9250 N   0  0  0  0  0  0  0  0  0  0  0  0
  141.7060   72.7800  221.2480 C   0  0  0  0  0  0  0  0  0  0  0  0
  143.0300   73.2250  221.1450 C   0  0  0  0  0  0  0  0  0  0  0  0
  143.3125   74.1945  221.5812 H   0  0  0  0  0  0  0  0  0  0  0  0
  144.0030   72.4480  220.4910 C   0  0  0  0  0  0  0  0  0  0  0  0
  145.3590   72.9170  220.3690 N   0  0  0  0  0  0  0  0  0  0  0  0
  145.6560   74.0920  220.6720 O   0  0  0  0  0  0  0  0  0  0  0  0
  146.3510   72.0790  219.9150 O   0  0  0  0  0  0  0  0  0  0  0  0
  143.6310   71.2040  219.9560 C   0  0  0  0  0  0  0  0  0  0  0  0
  144.3783   70.5902  219.4317 H   0  0  0  0  0  0  0  0  0  0  0  0
  142.3210   70.7400  220.0840 C   0  0  0  0  0  0  0  0  0  0  0  0
  142.0460   69.7587  219.6699 H   0  0  0  0  0  0  0  0  0  0  0  0
  141.3560   71.5140  220.7350 C   0  0  0  0  0  0  0  0  0  0  0  0
  139.7490   70.8330  220.9590 Cl  0  0  0  0  0  0  0  0  0  0  0  0
  141.0750   75.9840  222.3280 O   0  0  0  0  0  0  0  0  0  0  0  0
  141.8920   76.4740  221.9830 H   0  0  0  0  0  0  0  0  0  0  0  0
  142.4490   75.9030  219.1190 C   0  0  0  0  0  0  0  0  0  0  0  0
  142.3830   76.9570  220.0490 O   0  0  0  0  0  0  0  0  0  0  0  0
  141.8230   78.2480  219.8110 C   0  0  0  0  0  0  0  0  0  0  0  0
  142.1724   78.9415  220.5901 H   0  0  0  0  0  0  0  0  0  0  0  0
  140.7263   78.1655  219.8343 H   0  0  0  0  0  0  0  0  0  0  0  0
  142.2430   78.7790  218.4450 C   0  0  0  0  0  0  0  0  0  0  0  0
  142.9205   79.6355  218.5770 H   0  0  0  0  0  0  0  0  0  0  0  0
  142.7602   77.9851  217.8862 H   0  0  0  0  0  0  0  0  0  0  0  0
  141.3514   79.0995  217.8862 H   0  0  0  0  0  0  0  0  0  0  0  0
  143.6600   75.4860  218.5310 C   0  0  0  0  0  0  0  0  0  0  0  0
  144.5967   75.9951  218.8020 H   0  0  0  0  0  0  0  0  0  0  0  0
  1  2  1  0
  2  3  1  0
  3  4  2  3
  4  5  1  0
  5  6  1  0
  5  7  1  0
  5  8  1  0
  8  9  1  0
  8 10  1  0
  3 11  1  0
 11 12  2  0
 12 13  1  0
 12 14  1  0
 14 15  1  0
 14 16  2  0
 16 17  1  0
 17 18  1  0
 18 19  1  0
 18 20  2  0
 20 21  1  0
 21 22  1  0
 22 23  2  0
 23 24  1  0
 23 25  1  0
 25 26  1  0
 26 27  2  0
 26 28  1  0
 25 29  2  0
 29 30  1  0
 29 31  1  0
 31 32  1  0
 31 33  2  0
 33 34  1  0
 20 35  1  0
 35 36  1  0
 16 37  1  0
 37 38  1  0
 38 39  1  0
 39 40  1  0
 39 41  1  0
 39 42  1  0
 42 43  1  0
 42 44  1  0
 42 45  1  0
 37 46  2  0
 46 47  1  0
  8  4  1  0
 46 11  1  0
 33 22  1  0
M  CHG  3  21  -1  26   1  28  -1
M  END
>  <UniqueID>  (28) 
6

>  <SMILES>  (28) 
CCOc1cc(C(O)=C2CC2)ccc1O/C=C(\O)[N-]c1cc([N+](=O)[O-])ccc1Cl

>  <Energy>  (28) 
224.8517622841017

>  <Genealogy>  (28) 
CCOc1cc(C(=O)C2CC2)ccc1OCC(=O)[N-]c1cc([N+](=O)[O-])ccc1Cl (protonated)
CCOc1cc(C(O)=C2CC2)ccc1OC=C(O)[N-]c1cc([N+](=O)[O-])ccc1Cl (tautomer)
CCOc1cc(C(O)=C2CC2)ccc1O/C=C(\O)[N-]c1cc([N+](=O)[O-])ccc1Cl (cis-trans isomerization)
CCOc1cc(C(O)=C2CC2)ccc1O/C=C(\O)[N-]c1cc([N+](=O)[O-])ccc1Cl (3D coordinates assigned)
CCOc1cc(C(O)=C2CC2)ccc1O/C=C(\O)[N-]c1cc([N+](=O)[O-])ccc1Cl (nonaromatic ring conformer: 224.8517622841017 kcal/mol)

>  <smiles>  (28) 
CCOc1cc(C(=O)C2CC2)ccc1OCC(=O)Nc1cc([N+](=O)[O-])ccc1Cl

>  <score_type>  (28) 
oracle

>  <origin>  (28) 
autodockgpu

>  <m_score__min__energy>  (28) 
-6.4500000000000002

>  <m_primary>  (28) 
energy

>  <meeko>  (28) 
{"free_energy": -3.56, "intermolecular_energy": -7.14, "internal_energy": -4.72, "cluster_size": 1, "cluster_id": 7, "rank_in_cluster": 1}

>  <energy>  (28) 
-5.59

>  <cluster_rmsd>  (28) 
1.48

>  <rmsd>  (28) 
271.54

>  <cluster>  (28) 
1

$$$$
VUCFXBNYDUPJQC-ODLFYWEKNA-N
     RDKit          3D

 47 49  0  0  0  0  0  0  0  0999 V2000
  142.3410   81.5730  221.3670 H   0  0  0  0  0  0  0  0  0  0  0  0
  141.7760   81.8890  220.5870 O   0  0  0  0  0  0  0  0  0  0  0  0
  141.7020   81.1710  219.3930 C   0  0  0  0  0  0  0  0  0  0  0  0
  142.1850   81.7330  218.2840 C   0  0  0  0  0  0  0  0  0  0  0  0
  142.5830   81.6480  216.8120 C   0  0  0  0  0  0  0  0  0  0  0  0
  143.4670   81.0617  216.5207 H   0  0  0  0  0  0  0  0  0  0  0  0
  142.0615   81.3337  215.8959 H   0  0  0  0  0  0  0  0  0  0  0  0
  142.7540   82.8990  217.4760 C   0  0  0  0  0  0  0  0  0  0  0  0
  143.7682   83.2664  217.6913 H   0  0  0  0  0  0  0  0  0  0  0  0
  142.4160   83.9258  217.2724 H   0  0  0  0  0  0  0  0  0  0  0  0
  141.0990   79.8110  219.3970 C   0  0  0  0  0  0  0  0  0  0  0  0
  139.7060   79.6110  219.3360 C   0  0  0  0  0  0  0  0  0  0  0  0
  139.0339   80.4801  219.2822 H   0  0  0  0  0  0  0  0  0  0  0  0
  139.1690   78.3240  219.3430 C   0  0  0  0  0  0  0  0  0  0  0  0
  138.0782   78.1877  219.3028 H   0  0  0  0  0  0  0  0  0  0  0  0
  140.0100   77.2000  219.4010 C   0  0  0  0  0  0  0  0  0  0  0  0
  139.5070   75.8900  219.4130 O   0  0  0  0  0  0  0  0  0  0  0  0
  139.4460   75.0680  220.5430 C   0  0  0  0  0  0  0  0  0  0  0  0
  138.8707   74.1312  220.5061 H   0  0  0  0  0  0  0  0  0  0  0  0
  140.0830   75.4130  221.6700 C   0  0  0  0  0  0  0  0  0  0  0  0
  139.4400   76.2130  222.6740 N   0  0  0  0  0  0  0  0  0  0  0  0
  139.4580   77.6460  222.7530 C   0  0  0  0  0  0  0  0  0  0  0  0
  140.6960   78.3000  222.7960 C   0  0  0  0  0  0  0  0  0  0  0  0
  141.6233   77.7089  222.7684 H   0  0  0  0  0  0  0  0  0  0  0  0
  140.7690   79.7020  222.8740 C   0  0  0  0  0  0  0  0  0  0  0  0
  142.0430   80.3700  222.9390 N   0  0  0  0  0  0  0  0  0  0  0  0
  143.0660   79.8390  222.4570 O   0  0  0  0  0  0  0  0  0  0  0  0
  142.1560   81.6060  223.5330 O   0  0  0  0  0  0  0  0  0  0  0  0
  139.5770   80.4440  222.8890 C   0  0  0  0  0  0  0  0  0  0  0  0
  139.6175   81.5408  222.9620 H   0  0  0  0  0  0  0  0  0  0  0  0
  138.3410   79.8000  222.8120 C   0  0  0  0  0  0  0  0  0  0  0  0
  137.4151   80.3939  222.8127 H   0  0  0  0  0  0  0  0  0  0  0  0
  138.2710   78.4070  222.7340 C   0  0  0  0  0  0  0  0  0  0  0  0
  136.6910   77.6580  222.5340 Cl  0  0  0  0  0  0  0  0  0  0  0  0
  141.3850   74.9780  221.9130 O   0  0  0  0  0  0  0  0  0  0  0  0
  142.2010   75.4950  221.6080 H   0  0  0  0  0  0  0  0  0  0  0  0
  141.3990   77.3790  219.4760 C   0  0  0  0  0  0  0  0  0  0  0  0
  142.2070   76.2290  219.5550 O   0  0  0  0  0  0  0  0  0  0  0  0
  143.6300   76.2140  219.6720 C   0  0  0  0  0  0  0  0  0  0  0  0
  143.9364   76.9431  220.4366 H   0  0  0  0  0  0  0  0  0  0  0  0
  144.0661   76.4750  218.6965 H   0  0  0  0  0  0  0  0  0  0  0  0
  144.1270   74.8300  220.0740 C   0  0  0  0  0  0  0  0  0  0  0  0
  144.1541   74.7545  221.1711 H   0  0  0  0  0  0  0  0  0  0  0  0
  143.4475   74.0649  219.6705 H   0  0  0  0  0  0  0  0  0  0  0  0
  145.1380   74.6720  219.6705 H   0  0  0  0  0  0  0  0  0  0  0  0
  141.9350   78.6820  219.4750 C   0  0  0  0  0  0  0  0  0  0  0  0
  143.0247   78.8188  219.5362 H   0  0  0  0  0  0  0  0  0  0  0  0
  1  2  1  0
  2  3  1  0
  3  4  2  3
  4  5  1  0
  5  6  1  0
  5  7  1  0
  5  8  1  0
  8  9  1  0
  8 10  1  0
  3 11  1  0
 11 12  2  0
 12 13  1  0
 12 14  1  0
 14 15  1  0
 14 16  2  0
 16 17  1  0
 17 18  1  0
 18 19  1  0
 18 20  2  0
 20 21  1  0
 21 22  1  0
 22 23  2  0
 23 24  1  0
 23 25  1  0
 25 26  1  0
 26 27  2  0
 26 28  1  0
 25 29  2  0
 29 30  1  0
 29 31  1  0
 31 32  1  0
 31 33  2  0
 33 34  1  0
 20 35  1  0
 35 36  1  0
 16 37  1  0
 37 38  1  0
 38 39  1  0
 39 40  1  0
 39 41  1  0
 39 42  1  0
 42 43  1  0
 42 44  1  0
 42 45  1  0
 37 46  2  0
 46 47  1  0
  8  4  1  0
 46 11  1  0
 33 22  1  0
M  CHG  3  21  -1  26   1  28  -1
M  END
>  <UniqueID>  (29) 
6

>  <SMILES>  (29) 
CCOc1cc(C(O)=C2CC2)ccc1O/C=C(\O)[N-]c1cc([N+](=O)[O-])ccc1Cl

>  <Energy>  (29) 
224.8517622841017

>  <Genealogy>  (29) 
CCOc1cc(C(=O)C2CC2)ccc1OCC(=O)[N-]c1cc([N+](=O)[O-])ccc1Cl (protonated)
CCOc1cc(C(O)=C2CC2)ccc1OC=C(O)[N-]c1cc([N+](=O)[O-])ccc1Cl (tautomer)
CCOc1cc(C(O)=C2CC2)ccc1O/C=C(\O)[N-]c1cc([N+](=O)[O-])ccc1Cl (cis-trans isomerization)
CCOc1cc(C(O)=C2CC2)ccc1O/C=C(\O)[N-]c1cc([N+](=O)[O-])ccc1Cl (3D coordinates assigned)
CCOc1cc(C(O)=C2CC2)ccc1O/C=C(\O)[N-]c1cc([N+](=O)[O-])ccc1Cl (nonaromatic ring conformer: 224.8517622841017 kcal/mol)

>  <smiles>  (29) 
CCOc1cc(C(=O)C2CC2)ccc1OCC(=O)Nc1cc([N+](=O)[O-])ccc1Cl

>  <score_type>  (29) 
oracle

>  <origin>  (29) 
autodockgpu

>  <m_score__min__energy>  (29) 
-6.4500000000000002

>  <m_primary>  (29) 
energy

>  <meeko>  (29) 
{"free_energy": -3.32, "intermolecular_energy": -6.9, "internal_energy": -4.77, "cluster_size": 2, "cluster_id": 10, "rank_in_cluster": 1}

>  <energy>  (29) 
-6.04

>  <cluster_rmsd>  (29) 
0.0

>  <rmsd>  (29) 
271.07

>  <cluster>  (29) 
2

$$$$
VUCFXBNYDUPJQC-ODLFYWEKNA-N
     RDKit          3D

 47 49  0  0  0  0  0  0  0  0999 V2000
  138.1390   79.8040  223.8010 H   0  0  0  0  0  0  0  0  0  0  0  0
  139.0160   80.2820  223.6300 O   0  0  0  0  0  0  0  0  0  0  0  0
  140.1730   79.5930  223.2660 C   0  0  0  0  0  0  0  0  0  0  0  0
  141.3480   80.2130  223.3890 C   0  0  0  0  0  0  0  0  0  0  0  0
  142.1910   81.3800  223.8980 C   0  0  0  0  0  0  0  0  0  0  0  0
  142.0717   82.3753  223.4450 H   0  0  0  0  0  0  0  0  0  0  0  0
  142.3450   81.8384  224.8860 H   0  0  0  0  0  0  0  0  0  0  0  0
  142.8540   80.3480  223.1690 C   0  0  0  0  0  0  0  0  0  0  0  0
  143.2399   80.5563  222.1602 H   0  0  0  0  0  0  0  0  0  0  0  0
  143.7185   79.6998  223.3752 H   0  0  0  0  0  0  0  0  0  0  0  0
  140.0620   78.1960  222.7630 C   0  0  0  0  0  0  0  0  0  0  0  0
  141.1660   77.5030  222.2330 C   0  0  0  0  0  0  0  0  0  0  0  0
  142.1467   77.9989  222.1849 H   0  0  0  0  0  0  0  0  0  0  0  0
  141.0320   76.1950  221.7680 C   0  0  0  0  0  0  0  0  0  0  0  0
  141.9049   75.6718  221.3505 H   0  0  0  0  0  0  0  0  0  0  0  0
  139.7890   75.5400  221.8290 C   0  0  0  0  0  0  0  0  0  0  0  0
  139.6130   74.2260  221.3680 O   0  0  0  0  0  0  0  0  0  0  0  0
  140.0630   73.0810  222.0320 C   0  0  0  0  0  0  0  0  0  0  0  0
  141.1428   72.9051  222.1466 H   0  0  0  0  0  0  0  0  0  0  0  0
  139.1880   72.1960  222.5300 C   0  0  0  0  0  0  0  0  0  0  0  0
  139.6000   70.8730  222.9070 N   0  0  0  0  0  0  0  0  0  0  0  0
  139.7920   70.3990  224.2480 C   0  0  0  0  0  0  0  0  0  0  0  0
  140.2300   71.3030  225.2240 C   0  0  0  0  0  0  0  0  0  0  0  0
  140.4168   72.3513  224.9481 H   0  0  0  0  0  0  0  0  0  0  0  0
  140.4340   70.8880  226.5520 C   0  0  0  0  0  0  0  0  0  0  0  0
  140.9030   71.8160  227.5490 N   0  0  0  0  0  0  0  0  0  0  0  0
  140.3570   71.8760  228.6700 O   0  0  0  0  0  0  0  0  0  0  0  0
  141.9610   72.6540  227.2820 O   0  0  0  0  0  0  0  0  0  0  0  0
  140.1730   69.5510  226.8940 C   0  0  0  0  0  0  0  0  0  0  0  0
  140.3385   69.2090  227.9263 H   0  0  0  0  0  0  0  0  0  0  0  0
  139.7050   68.6530  225.9330 C   0  0  0  0  0  0  0  0  0  0  0  0
  139.4945   67.6111  226.2160 H   0  0  0  0  0  0  0  0  0  0  0  0
  139.5020   69.0680  224.6140 C   0  0  0  0  0  0  0  0  0  0  0  0
  138.8120   67.9200  223.4720 Cl  0  0  0  0  0  0  0  0  0  0  0  0
  137.8520   72.5470  222.7230 O   0  0  0  0  0  0  0  0  0  0  0  0
  137.5520   73.5060  222.8510 H   0  0  0  0  0  0  0  0  0  0  0  0
  138.6740   76.2190  222.3400 C   0  0  0  0  0  0  0  0  0  0  0  0
  137.4440   75.5380  222.3650 O   0  0  0  0  0  0  0  0  0  0  0  0
  136.2550   75.9820  223.0210 C   0  0  0  0  0  0  0  0  0  0  0  0
  135.4858   76.1989  222.2652 H   0  0  0  0  0  0  0  0  0  0  0  0
  136.4893   76.8874  223.6002 H   0  0  0  0  0  0  0  0  0  0  0  0
  135.7310   74.9140  223.9750 C   0  0  0  0  0  0  0  0  0  0  0  0
  135.8908   75.2397  225.0135 H   0  0  0  0  0  0  0  0  0  0  0  0
  134.6558   74.7616  223.7999 H   0  0  0  0  0  0  0  0  0  0  0  0
  136.2684   73.9703  223.7999 H   0  0  0  0  0  0  0  0  0  0  0  0
  138.8160   77.5430  222.8030 C   0  0  0  0  0  0  0  0  0  0  0  0
  137.9391   78.0740  223.2018 H   0  0  0  0  0  0  0  0  0  0  0  0
  1  2  1  0
  2  3  1  0
  3  4  2  3
  4  5  1  0
  5  6  1  0
  5  7  1  0
  5  8  1  0
  8  9  1  0
  8 10  1  0
  3 11  1  0
 11 12  2  0
 12 13  1  0
 12 14  1  0
 14 15  1  0
 14 16  2  0
 16 17  1  0
 17 18  1  0
 18 19  1  0
 18 20  2  0
 20 21  1  0
 21 22  1  0
 22 23  2  0
 23 24  1  0
 23 25  1  0
 25 26  1  0
 26 27  2  0
 26 28  1  0
 25 29  2  0
 29 30  1  0
 29 31  1  0
 31 32  1  0
 31 33  2  0
 33 34  1  0
 20 35  1  0
 35 36  1  0
 16 37  1  0
 37 38  1  0
 38 39  1  0
 39 40  1  0
 39 41  1  0
 39 42  1  0
 42 43  1  0
 42 44  1  0
 42 45  1  0
 37 46  2  0
 46 47  1  0
  8  4  1  0
 46 11  1  0
 33 22  1  0
M  CHG  3  21  -1  26   1  28  -1
M  END
>  <UniqueID>  (30) 
6

>  <SMILES>  (30) 
CCOc1cc(C(O)=C2CC2)ccc1O/C=C(\O)[N-]c1cc([N+](=O)[O-])ccc1Cl

>  <Energy>  (30) 
224.8517622841017

>  <Genealogy>  (30) 
CCOc1cc(C(=O)C2CC2)ccc1OCC(=O)[N-]c1cc([N+](=O)[O-])ccc1Cl (protonated)
CCOc1cc(C(O)=C2CC2)ccc1OC=C(O)[N-]c1cc([N+](=O)[O-])ccc1Cl (tautomer)
CCOc1cc(C(O)=C2CC2)ccc1O/C=C(\O)[N-]c1cc([N+](=O)[O-])ccc1Cl (cis-trans isomerization)
CCOc1cc(C(O)=C2CC2)ccc1O/C=C(\O)[N-]c1cc([N+](=O)[O-])ccc1Cl (3D coordinates assigned)
CCOc1cc(C(O)=C2CC2)ccc1O/C=C(\O)[N-]c1cc([N+](=O)[O-])ccc1Cl (nonaromatic ring conformer: 224.8517622841017 kcal/mol)

>  <smiles>  (30) 
CCOc1cc(C(=O)C2CC2)ccc1OCC(=O)Nc1cc([N+](=O)[O-])ccc1Cl

>  <score_type>  (30) 
oracle

>  <origin>  (30) 
autodockgpu

>  <m_score__min__energy>  (30) 
-6.4500000000000002

>  <m_primary>  (30) 
energy

>  <meeko>  (30) 
{"free_energy": -6.45, "intermolecular_energy": -10.03, "internal_energy": -2.09, "cluster_size": 8, "cluster_id": 1, "rank_in_cluster": 2}

>  <energy>  (30) 
-5.9

>  <cluster_rmsd>  (30) 
0.0

>  <rmsd>  (30) 
270.52

>  <cluster>  (30) 
3

$$$$
VUCFXBNYDUPJQC-ODLFYWEKNA-N
     RDKit          3D

 47 49  0  0  0  0  0  0  0  0999 V2000
  140.5170   72.3700  228.0650 H   0  0  0  0  0  0  0  0  0  0  0  0
  141.1190   71.7490  227.5370 O   0  0  0  0  0  0  0  0  0  0  0  0
  140.6250   70.6100  226.8990 C   0  0  0  0  0  0  0  0  0  0  0  0
  140.7910   69.4270  227.4920 C   0  0  0  0  0  0  0  0  0  0  0  0
  141.0150   67.9190  227.4170 C   0  0  0  0  0  0  0  0  0  0  0  0
  140.2073   67.2668  227.0534 H   0  0  0  0  0  0  0  0  0  0  0  0
  141.7639   67.2810  226.9250 H   0  0  0  0  0  0  0  0  0  0  0  0
  140.9140   68.5120  228.7100 C   0  0  0  0  0  0  0  0  0  0  0  0
  140.0292   68.3127  229.3324 H   0  0  0  0  0  0  0  0  0  0  0  0
  141.5541   68.5107  229.6046 H   0  0  0  0  0  0  0  0  0  0  0  0
  139.9270   70.7520  225.5910 C   0  0  0  0  0  0  0  0  0  0  0  0
  138.9100   69.8670  225.1890 C   0  0  0  0  0  0  0  0  0  0  0  0
  138.6129   69.0421  225.8533 H   0  0  0  0  0  0  0  0  0  0  0  0
  138.2740   70.0240  223.9570 C   0  0  0  0  0  0  0  0  0  0  0  0
  137.4855   69.3185  223.6561 H   0  0  0  0  0  0  0  0  0  0  0  0
  138.6330   71.0770  223.0970 C   0  0  0  0  0  0  0  0  0  0  0  0
  138.0190   71.2650  221.8500 O   0  0  0  0  0  0  0  0  0  0  0  0
  136.8020   71.9240  221.6500 C   0  0  0  0  0  0  0  0  0  0  0  0
  136.0630   71.5051  220.9512 H   0  0  0  0  0  0  0  0  0  0  0  0
  136.5290   73.0620  222.3030 C   0  0  0  0  0  0  0  0  0  0  0  0
  135.2620   73.2650  222.9470 N   0  0  0  0  0  0  0  0  0  0  0  0
  134.8120   72.6230  224.1490 C   0  0  0  0  0  0  0  0  0  0  0  0
  134.8360   71.2240  224.2120 C   0  0  0  0  0  0  0  0  0  0  0  0
  135.1969   70.6483  223.3470 H   0  0  0  0  0  0  0  0  0  0  0  0
  134.4050   70.5450  225.3660 C   0  0  0  0  0  0  0  0  0  0  0  0
  134.4120   69.1070  225.4200 N   0  0  0  0  0  0  0  0  0  0  0  0
  134.9590   68.4380  224.5170 O   0  0  0  0  0  0  0  0  0  0  0  0
  133.8160   68.4430  226.4670 O   0  0  0  0  0  0  0  0  0  0  0  0
  133.9660   71.2950  226.4700 C   0  0  0  0  0  0  0  0  0  0  0  0
  133.6157   70.7788  227.3760 H   0  0  0  0  0  0  0  0  0  0  0  0
  133.9710   72.6910  226.4260 C   0  0  0  0  0  0  0  0  0  0  0  0
  133.6344   73.2664  227.3010 H   0  0  0  0  0  0  0  0  0  0  0  0
  134.4010   73.3620  225.2770 C   0  0  0  0  0  0  0  0  0  0  0  0
  134.4840   75.1200  225.3170 Cl  0  0  0  0  0  0  0  0  0  0  0  0
  137.4850   74.0730  222.4010 O   0  0  0  0  0  0  0  0  0  0  0  0
  138.4210   73.9090  222.7530 H   0  0  0  0  0  0  0  0  0  0  0  0
  139.6540   71.9600  223.4750 C   0  0  0  0  0  0  0  0  0  0  0  0
  140.0000   72.9880  222.5790 O   0  0  0  0  0  0  0  0  0  0  0  0
  141.0540   72.9380  221.6170 C   0  0  0  0  0  0  0  0  0  0  0  0
  142.0144   73.1081  222.1257 H   0  0  0  0  0  0  0  0  0  0  0  0
  140.8769   73.7167  220.8606 H   0  0  0  0  0  0  0  0  0  0  0  0
  141.0910   71.5820  220.9210 C   0  0  0  0  0  0  0  0  0  0  0  0
  141.1128   70.7826  221.6763 H   0  0  0  0  0  0  0  0  0  0  0  0
  140.1956   71.4680  220.2923 H   0  0  0  0  0  0  0  0  0  0  0  0
  141.9913   71.5170  220.2923 H   0  0  0  0  0  0  0  0  0  0  0  0
  140.2960   71.7920  224.7180 C   0  0  0  0  0  0  0  0  0  0  0  0
  141.0986   72.4850  225.0106 H   0  0  0  0  0  0  0  0  0  0  0  0
  1  2  1  0
  2  3  1  0
  3  4  2  3
  4  5  1  0
  5  6  1  0
  5  7  1  0
  5  8  1  0
  8  9  1  0
  8 10  1  0
  3 11  1  0
 11 12  2  0
 12 13  1  0
 12 14  1  0
 14 15  1  0
 14 16  2  0
 16 17  1  0
 17 18  1  0
 18 19  1  0
 18 20  2  0
 20 21  1  0
 21 22  1  0
 22 23  2  0
 23 24  1  0
 23 25  1  0
 25 26  1  0
 26 27  2  0
 26 28  1  0
 25 29  2  0
 29 30  1  0
 29 31  1  0
 31 32  1  0
 31 33  2  0
 33 34  1  0
 20 35  1  0
 35 36  1  0
 16 37  1  0
 37 38  1  0
 38 39  1  0
 39 40  1  0
 39 41  1  0
 39 42  1  0
 42 43  1  0
 42 44  1  0
 42 45  1  0
 37 46  2  0
 46 47  1  0
  8  4  1  0
 46 11  1  0
 33 22  1  0
M  CHG  3  21  -1  26   1  28  -1
M  END
>  <UniqueID>  (31) 
6

>  <SMILES>  (31) 
CCOc1cc(C(O)=C2CC2)ccc1O/C=C(\O)[N-]c1cc([N+](=O)[O-])ccc1Cl

>  <Energy>  (31) 
224.8517622841017

>  <Genealogy>  (31) 
CCOc1cc(C(=O)C2CC2)ccc1OCC(=O)[N-]c1cc([N+](=O)[O-])ccc1Cl (protonated)
CCOc1cc(C(O)=C2CC2)ccc1OC=C(O)[N-]c1cc([N+](=O)[O-])ccc1Cl (tautomer)
CCOc1cc(C(O)=C2CC2)ccc1O/C=C(\O)[N-]c1cc([N+](=O)[O-])ccc1Cl (cis-trans isomerization)
CCOc1cc(C(O)=C2CC2)ccc1O/C=C(\O)[N-]c1cc([N+](=O)[O-])ccc1Cl (3D coordinates assigned)
CCOc1cc(C(O)=C2CC2)ccc1O/C=C(\O)[N-]c1cc([N+](=O)[O-])ccc1Cl (nonaromatic ring conformer: 224.8517622841017 kcal/mol)

>  <smiles>  (31) 
CCOc1cc(C(=O)C2CC2)ccc1OCC(=O)Nc1cc([N+](=O)[O-])ccc1Cl

>  <score_type>  (31) 
oracle

>  <origin>  (31) 
autodockgpu

>  <m_score__min__energy>  (31) 
-6.4500000000000002

>  <m_primary>  (31) 
energy

>  <meeko>  (31) 
{"free_energy": -5.9, "intermolecular_energy": -9.48, "internal_energy": -2.69, "cluster_size": 1, "cluster_id": 3, "rank_in_cluster": 1}

>  <energy>  (31) 
-5.63

>  <cluster_rmsd>  (31) 
0.0

>  <rmsd>  (31) 
270.58

>  <cluster>  (31) 
4

$$$$
VUCFXBNYDUPJQC-ODLFYWEKNA-N
     RDKit          3D

 47 49  0  0  0  0  0  0  0  0999 V2000
  140.5170   81.4440  223.3330 H   0  0  0  0  0  0  0  0  0  0  0  0
  139.5790   81.6400  223.0000 O   0  0  0  0  0  0  0  0  0  0  0  0
  138.5110   80.7790  223.2560 C   0  0  0  0  0  0  0  0  0  0  0  0
  137.6470   81.1090  224.2170 C   0  0  0  0  0  0  0  0  0  0  0  0
  136.2160   81.2390  224.7350 C   0  0  0  0  0  0  0  0  0  0  0  0
  135.5529   82.0089  224.3135 H   0  0  0  0  0  0  0  0  0  0  0  0
  135.3681   80.5436  224.8218 H   0  0  0  0  0  0  0  0  0  0  0  0
  137.2770   81.6230  225.6080 C   0  0  0  0  0  0  0  0  0  0  0  0
  137.4231   82.6856  225.8520 H   0  0  0  0  0  0  0  0  0  0  0  0
  137.5670   81.3395  226.6305 H   0  0  0  0  0  0  0  0  0  0  0  0
  138.3680   79.5360  222.4510 C   0  0  0  0  0  0  0  0  0  0  0  0
  138.5410   79.5280  221.0540 C   0  0  0  0  0  0  0  0  0  0  0  0
  138.7903   80.4634  220.5316 H   0  0  0  0  0  0  0  0  0  0  0  0
  138.4000   78.3480  220.3250 C   0  0  0  0  0  0  0  0  0  0  0  0
  138.5333   78.3624  219.2332 H   0  0  0  0  0  0  0  0  0  0  0  0
  138.0890   77.1400  220.9730 C   0  0  0  0  0  0  0  0  0  0  0  0
  137.9350   75.9330  220.2740 O   0  0  0  0  0  0  0  0  0  0  0  0
  138.8910   74.9140  220.2210 C   0  0  0  0  0  0  0  0  0  0  0  0
  138.8598   74.1786  219.4035 H   0  0  0  0  0  0  0  0  0  0  0  0
  139.8450   74.8260  221.1580 C   0  0  0  0  0  0  0  0  0  0  0  0
  141.1230   75.4550  220.9810 N   0  0  0  0  0  0  0  0  0  0  0  0
  141.3650   76.8680  220.9020 C   0  0  0  0  0  0  0  0  0  0  0  0
  141.4240   77.6060  222.0910 C   0  0  0  0  0  0  0  0  0  0  0  0
  141.2848   77.0947  223.0550 H   0  0  0  0  0  0  0  0  0  0  0  0
  141.6590   78.9930  222.0680 C   0  0  0  0  0  0  0  0  0  0  0  0
  141.6980   79.7520  223.2910 N   0  0  0  0  0  0  0  0  0  0  0  0
  140.9270   79.4810  224.2350 O   0  0  0  0  0  0  0  0  0  0  0  0
  142.5870   80.7920  223.4400 O   0  0  0  0  0  0  0  0  0  0  0  0
  141.8540   79.6280  220.8310 C   0  0  0  0  0  0  0  0  0  0  0  0
  142.0270   80.7137  220.7961 H   0  0  0  0  0  0  0  0  0  0  0  0
  141.8300   78.8920  219.6450 C   0  0  0  0  0  0  0  0  0  0  0  0
  141.9949   79.4004  218.6836 H   0  0  0  0  0  0  0  0  0  0  0  0
  141.5980   77.5140  219.6700 C   0  0  0  0  0  0  0  0  0  0  0  0
  141.6830   76.6230  218.1550 Cl  0  0  0  0  0  0  0  0  0  0  0  0
  139.6090   74.1410  222.3510 O   0  0  0  0  0  0  0  0  0  0  0  0
  138.8020   74.3220  222.9350 H   0  0  0  0  0  0  0  0  0  0  0  0
  137.8980   77.1310  222.3630 C   0  0  0  0  0  0  0  0  0  0  0  0
  137.5670   75.9080  222.9730 O   0  0  0  0  0  0  0  0  0  0  0  0
  136.2790   75.5430  223.4700 C   0  0  0  0  0  0  0  0  0  0  0  0
  136.3138   75.5063  224.5688 H   0  0  0  0  0  0  0  0  0  0  0  0
  136.0103   74.5575  223.0619 H   0  0  0  0  0  0  0  0  0  0  0  0
  135.2240   76.5550  223.0370 C   0  0  0  0  0  0  0  0  0  0  0  0
  134.7577   77.0023  223.9273 H   0  0  0  0  0  0  0  0  0  0  0  0
  135.6983   77.3446  222.4357 H   0  0  0  0  0  0  0  0  0  0  0  0
  134.4548   76.0483  222.4357 H   0  0  0  0  0  0  0  0  0  0  0  0
  138.0370   78.3280  223.0930 C   0  0  0  0  0  0  0  0  0  0  0  0
  137.8844   78.3183  224.1823 H   0  0  0  0  0  0  0  0  0  0  0  0
  1  2  1  0
  2  3  1  0
  3  4  2  3
  4  5  1  0
  5  6  1  0
  5  7  1  0
  5  8  1  0
  8  9  1  0
  8 10  1  0
  3 11  1  0
 11 12  2  0
 12 13  1  0
 12 14  1  0
 14 15  1  0
 14 16  2  0
 16 17  1  0
 17 18  1  0
 18 19  1  0
 18 20  2  0
 20 21  1  0
 21 22  1  0
 22 23  2  0
 23 24  1  0
 23 25  1  0
 25 26  1  0
 26 27  2  0
 26 28  1  0
 25 29  2  0
 29 30  1  0
 29 31  1  0
 31 32  1  0
 31 33  2  0
 33 34  1  0
 20 35  1  0
 35 36  1  0
 16 37  1  0
 37 38  1  0
 38 39  1  0
 39 40  1  0
 39 41  1  0
 39 42  1  0
 42 43  1  0
 42 44  1  0
 42 45  1  0
 37 46  2  0
 46 47  1  0
  8  4  1  0
 46 11  1  0
 33 22  1  0
M  CHG  3  21  -1  26   1  28  -1
M  END
>  <UniqueID>  (32) 
6

>  <SMILES>  (32) 
CCOc1cc(C(O)=C2CC2)ccc1O/C=C(\O)[N-]c1cc([N+](=O)[O-])ccc1Cl

>  <Energy>  (32) 
224.8517622841017

>  <Genealogy>  (32) 
CCOc1cc(C(=O)C2CC2)ccc1OCC(=O)[N-]c1cc([N+](=O)[O-])ccc1Cl (protonated)
CCOc1cc(C(O)=C2CC2)ccc1OC=C(O)[N-]c1cc([N+](=O)[O-])ccc1Cl (tautomer)
CCOc1cc(C(O)=C2CC2)ccc1O/C=C(\O)[N-]c1cc([N+](=O)[O-])ccc1Cl (cis-trans isomerization)
CCOc1cc(C(O)=C2CC2)ccc1O/C=C(\O)[N-]c1cc([N+](=O)[O-])ccc1Cl (3D coordinates assigned)
CCOc1cc(C(O)=C2CC2)ccc1O/C=C(\O)[N-]c1cc([N+](=O)[O-])ccc1Cl (nonaromatic ring conformer: 224.8517622841017 kcal/mol)

>  <smiles>  (32) 
CCOc1cc(C(=O)C2CC2)ccc1OCC(=O)Nc1cc([N+](=O)[O-])ccc1Cl

>  <score_type>  (32) 
oracle

>  <origin>  (32) 
autodockgpu

>  <m_score__min__energy>  (32) 
-6.4500000000000002

>  <m_primary>  (32) 
energy

>  <meeko>  (32) 
{"free_energy": -3.38, "intermolecular_energy": -6.96, "internal_energy": -4.82, "cluster_size": 2, "cluster_id": 9, "rank_in_cluster": 1}

>  <energy>  (32) 
-5.45

>  <cluster_rmsd>  (32) 
0.0

>  <rmsd>  (32) 
271.37

>  <cluster>  (32) 
5

$$$$
VUCFXBNYDUPJQC-ODLFYWEKNA-N
     RDKit          3D

 47 49  0  0  0  0  0  0  0  0999 V2000
  139.0850   68.1700  224.8960 H   0  0  0  0  0  0  0  0  0  0  0  0
  138.9080   68.8770  225.6010 O   0  0  0  0  0  0  0  0  0  0  0  0
  139.5510   70.1160  225.5810 C   0  0  0  0  0  0  0  0  0  0  0  0
  140.1610   70.5320  226.6910 C   0  0  0  0  0  0  0  0  0  0  0  0
  140.6870   71.6560  227.5810 C   0  0  0  0  0  0  0  0  0  0  0  0
  141.5634   72.2384  227.2605 H   0  0  0  0  0  0  0  0  0  0  0  0
  140.2363   72.5586  228.0194 H   0  0  0  0  0  0  0  0  0  0  0  0
  140.8590   70.3140  228.0330 C   0  0  0  0  0  0  0  0  0  0  0  0
  141.8664   69.8729  228.0569 H   0  0  0  0  0  0  0  0  0  0  0  0
  140.5928   69.7774  228.9556 H   0  0  0  0  0  0  0  0  0  0  0  0
  139.5410   70.9210  224.3290 C   0  0  0  0  0  0  0  0  0  0  0  0
  140.7100   71.1450  223.5770 C   0  0  0  0  0  0  0  0  0  0  0  0
  141.6648   70.7159  223.9151 H   0  0  0  0  0  0  0  0  0  0  0  0
  140.6710   71.9050  222.4080 C   0  0  0  0  0  0  0  0  0  0  0  0
  141.5953   72.0738  221.8359 H   0  0  0  0  0  0  0  0  0  0  0  0
  139.4600   72.4570  221.9550 C   0  0  0  0  0  0  0  0  0  0  0  0
  139.3810   73.2300  220.7870 O   0  0  0  0  0  0  0  0  0  0  0  0
  140.0000   74.4710  220.6070 C   0  0  0  0  0  0  0  0  0  0  0  0
  140.6444   74.6385  219.7314 H   0  0  0  0  0  0  0  0  0  0  0  0
  139.8130   75.4580  221.4950 C   0  0  0  0  0  0  0  0  0  0  0  0
  140.2330   76.8020  221.2130 N   0  0  0  0  0  0  0  0  0  0  0  0
  140.1750   77.9130  222.1190 C   0  0  0  0  0  0  0  0  0  0  0  0
  141.3530   78.6210  222.3880 C   0  0  0  0  0  0  0  0  0  0  0  0
  142.2923   78.3154  221.9040 H   0  0  0  0  0  0  0  0  0  0  0  0
  141.3510   79.7180  223.2690 C   0  0  0  0  0  0  0  0  0  0  0  0
  142.5680   80.4310  223.5590 N   0  0  0  0  0  0  0  0  0  0  0  0
  143.6350   80.1300  222.9840 O   0  0  0  0  0  0  0  0  0  0  0  0
  142.5760   81.4560  224.4760 O   0  0  0  0  0  0  0  0  0  0  0  0
  140.1410   80.1070  223.8650 C   0  0  0  0  0  0  0  0  0  0  0  0
  140.1255   80.9547  224.5658 H   0  0  0  0  0  0  0  0  0  0  0  0
  138.9570   79.4260  223.5750 C   0  0  0  0  0  0  0  0  0  0  0  0
  138.0139   79.7484  224.0404 H   0  0  0  0  0  0  0  0  0  0  0  0
  138.9610   78.3380  222.6980 C   0  0  0  0  0  0  0  0  0  0  0  0
  137.4240   77.5850  222.2900 Cl  0  0  0  0  0  0  0  0  0  0  0  0
  139.1760   75.2110  222.7110 O   0  0  0  0  0  0  0  0  0  0  0  0
  138.4800   74.4840  222.8260 H   0  0  0  0  0  0  0  0  0  0  0  0
  138.2880   72.2570  222.6990 C   0  0  0  0  0  0  0  0  0  0  0  0
  137.1000   72.8430  222.2250 O   0  0  0  0  0  0  0  0  0  0  0  0
  135.9360   73.1200  223.0040 C   0  0  0  0  0  0  0  0  0  0  0  0
  136.0202   72.6059  223.9728 H   0  0  0  0  0  0  0  0  0  0  0  0
  135.0523   72.7625  222.4551 H   0  0  0  0  0  0  0  0  0  0  0  0
  135.7870   74.6180  223.2450 C   0  0  0  0  0  0  0  0  0  0  0  0
  135.7674   74.8151  224.3270 H   0  0  0  0  0  0  0  0  0  0  0  0
  136.6368   75.1487  222.7909 H   0  0  0  0  0  0  0  0  0  0  0  0
  134.8493   74.9709  222.7909 H   0  0  0  0  0  0  0  0  0  0  0  0
  138.3360   71.4930  223.8820 C   0  0  0  0  0  0  0  0  0  0  0  0
  137.4160   71.3413  224.4657 H   0  0  0  0  0  0  0  0  0  0  0  0
  1  2  1  0
  2  3  1  0
  3  4  2  3
  4  5  1  0
  5  6  1  0
  5  7  1  0
  5  8  1  0
  8  9  1  0
  8 10  1  0
  3 11  1  0
 11 12  2  0
 12 13  1  0
 12 14  1  0
 14 15  1  0
 14 16  2  0
 16 17  1  0
 17 18  1  0
 18 19  1  0
 18 20  2  0
 20 21  1  0
 21 22  1  0
 22 23  2  0
 23 24  1  0
 23 25  1  0
 25 26  1  0
 26 27  2  0
 26 28  1  0
 25 29  2  0
 29 30  1  0
 29 31  1  0
 31 32  1  0
 31 33  2  0
 33 34  1  0
 20 35  1  0
 35 36  1  0
 16 37  1  0
 37 38  1  0
 38 39  1  0
 39 40  1  0
 39 41  1  0
 39 42  1  0
 42 43  1  0
 42 44  1  0
 42 45  1  0
 37 46  2  0
 46 47  1  0
  8  4  1  0
 46 11  1  0
 33 22  1  0
M  CHG  3  21  -1  26   1  28  -1
M  END
>  <UniqueID>  (33) 
6

>  <SMILES>  (33) 
CCOc1cc(C(O)=C2CC2)ccc1O/C=C(\O)[N-]c1cc([N+](=O)[O-])ccc1Cl

>  <Energy>  (33) 
224.8517622841017

>  <Genealogy>  (33) 
CCOc1cc(C(=O)C2CC2)ccc1OCC(=O)[N-]c1cc([N+](=O)[O-])ccc1Cl (protonated)
CCOc1cc(C(O)=C2CC2)ccc1OC=C(O)[N-]c1cc([N+](=O)[O-])ccc1Cl (tautomer)
CCOc1cc(C(O)=C2CC2)ccc1O/C=C(\O)[N-]c1cc([N+](=O)[O-])ccc1Cl (cis-trans isomerization)
CCOc1cc(C(O)=C2CC2)ccc1O/C=C(\O)[N-]c1cc([N+](=O)[O-])ccc1Cl (3D coordinates assigned)
CCOc1cc(C(O)=C2CC2)ccc1O/C=C(\O)[N-]c1cc([N+](=O)[O-])ccc1Cl (nonaromatic ring conformer: 224.8517622841017 kcal/mol)

>  <smiles>  (33) 
CCOc1cc(C(=O)C2CC2)ccc1OCC(=O)Nc1cc([N+](=O)[O-])ccc1Cl

>  <score_type>  (33) 
oracle

>  <origin>  (33) 
autodockgpu

>  <m_score__min__energy>  (33) 
-6.4500000000000002

>  <m_primary>  (33) 
energy

>  <meeko>  (33) 
{"free_energy": -5.45, "intermolecular_energy": -9.02, "internal_energy": -2.16, "cluster_size": 1, "cluster_id": 5, "rank_in_cluster": 1}

>  <energy>  (33) 
-3.78

>  <cluster_rmsd>  (33) 
0.0

>  <rmsd>  (33) 
269.68

>  <cluster>  (33) 
6

$$$$
VUCFXBNYDUPJQC-ODLFYWEKNA-N
     RDKit          3D

 47 49  0  0  0  0  0  0  0  0999 V2000
  133.7540   75.3370  225.5750 H   0  0  0  0  0  0  0  0  0  0  0  0
  134.1590   74.6350  226.1840 O   0  0  0  0  0  0  0  0  0  0  0  0
  134.3780   73.3250  225.7560 C   0  0  0  0  0  0  0  0  0  0  0  0
  133.8630   72.3270  226.4750 C   0  0  0  0  0  0  0  0  0  0  0  0
  132.6920   71.6840  227.2150 C   0  0  0  0  0  0  0  0  0  0  0  0
  132.3359   72.1256  228.1574 H   0  0  0  0  0  0  0  0  0  0  0  0
  131.6599   71.4261  226.9354 H   0  0  0  0  0  0  0  0  0  0  0  0
  133.9320   70.9780  227.1910 C   0  0  0  0  0  0  0  0  0  0  0  0
  134.5213   70.8819  228.1148 H   0  0  0  0  0  0  0  0  0  0  0  0
  134.2294   69.9639  226.8857 H   0  0  0  0  0  0  0  0  0  0  0  0
  135.1650   73.0860  224.5150 C   0  0  0  0  0  0  0  0  0  0  0  0
  135.2900   71.8040  223.9460 C   0  0  0  0  0  0  0  0  0  0  0  0
  134.7946   70.9461  224.4240 H   0  0  0  0  0  0  0  0  0  0  0  0
  136.0350   71.6100  222.7830 C   0  0  0  0  0  0  0  0  0  0  0  0
  136.1265   70.6004  222.3559 H   0  0  0  0  0  0  0  0  0  0  0  0
  136.6700   72.6940  222.1520 C   0  0  0  0  0  0  0  0  0  0  0  0
  137.4310   72.5380  220.9830 O   0  0  0  0  0  0  0  0  0  0  0  0
  138.8130   72.3280  220.9520 C   0  0  0  0  0  0  0  0  0  0  0  0
  139.3138   72.1278  219.9933 H   0  0  0  0  0  0  0  0  0  0  0  0
  139.5320   72.3690  222.0830 C   0  0  0  0  0  0  0  0  0  0  0  0
  140.0750   71.1730  222.6620 N   0  0  0  0  0  0  0  0  0  0  0  0
  139.9160   70.7460  224.0230 C   0  0  0  0  0  0  0  0  0  0  0  0
  140.4960   71.5150  225.0400 C   0  0  0  0  0  0  0  0  0  0  0  0
  141.0575   72.4243  224.7795 H   0  0  0  0  0  0  0  0  0  0  0  0
  140.3700   71.1400  226.3900 C   0  0  0  0  0  0  0  0  0  0  0  0
  140.9850   71.9220  227.4310 N   0  0  0  0  0  0  0  0  0  0  0  0
  141.9690   72.6500  227.1850 O   0  0  0  0  0  0  0  0  0  0  0  0
  140.4980   71.8790  228.7170 O   0  0  0  0  0  0  0  0  0  0  0  0
  139.6340   69.9870  226.7080 C   0  0  0  0  0  0  0  0  0  0  0  0
  139.5367   69.6740  227.7580 H   0  0  0  0  0  0  0  0  0  0  0  0
  139.0250   69.2350  225.7020 C   0  0  0  0  0  0  0  0  0  0  0  0
  138.4416   68.3407  225.9662 H   0  0  0  0  0  0  0  0  0  0  0  0
  139.1510   69.6100  224.3610 C   0  0  0  0  0  0  0  0  0  0  0  0
  138.2760   68.6850  223.1470 Cl  0  0  0  0  0  0  0  0  0  0  0  0
  139.7990   73.5840  222.7130 O   0  0  0  0  0  0  0  0  0  0  0  0
  139.0780   74.2680  222.9100 H   0  0  0  0  0  0  0  0  0  0  0  0
  136.5690   73.9760  222.7130 C   0  0  0  0  0  0  0  0  0  0  0  0
  137.2350   75.0320  222.0640 O   0  0  0  0  0  0  0  0  0  0  0  0
  137.5820   76.2860  222.6510 C   0  0  0  0  0  0  0  0  0  0  0  0
  137.4975   76.2076  223.7449 H   0  0  0  0  0  0  0  0  0  0  0  0
  136.8963   77.0560  222.2676 H   0  0  0  0  0  0  0  0  0  0  0  0
  139.0100   76.6790  222.2870 C   0  0  0  0  0  0  0  0  0  0  0  0
  139.5919   76.8392  223.2066 H   0  0  0  0  0  0  0  0  0  0  0  0
  139.4723   75.8747  221.6959 H   0  0  0  0  0  0  0  0  0  0  0  0
  138.9957   77.6066  221.6959 H   0  0  0  0  0  0  0  0  0  0  0  0
  135.8190   74.1640  223.8910 C   0  0  0  0  0  0  0  0  0  0  0  0
  135.7437   75.1699  224.3298 H   0  0  0  0  0  0  0  0  0  0  0  0
  1  2  1  0
  2  3  1  0
  3  4  2  3
  4  5  1  0
  5  6  1  0
  5  7  1  0
  5  8  1  0
  8  9  1  0
  8 10  1  0
  3 11  1  0
 11 12  2  0
 12 13  1  0
 12 14  1  0
 14 15  1  0
 14 16  2  0
 16 17  1  0
 17 18  1  0
 18 19  1  0
 18 20  2  0
 20 21  1  0
 21 22  1  0
 22 23  2  0
 23 24  1  0
 23 25  1  0
 25 26  1  0
 26 27  2  0
 26 28  1  0
 25 29  2  0
 29 30  1  0
 29 31  1  0
 31 32  1  0
 31 33  2  0
 33 34  1  0
 20 35  1  0
 35 36  1  0
 16 37  1  0
 37 38  1  0
 38 39  1  0
 39 40  1  0
 39 41  1  0
 39 42  1  0
 42 43  1  0
 42 44  1  0
 42 45  1  0
 37 46  2  0
 46 47  1  0
  8  4  1  0
 46 11  1  0
 33 22  1  0
M  CHG  3  21  -1  26   1  28  -1
M  END
>  <UniqueID>  (34) 
6

>  <SMILES>  (34) 
CCOc1cc(C(O)=C2CC2)ccc1O/C=C(\O)[N-]c1cc([N+](=O)[O-])ccc1Cl

>  <Energy>  (34) 
224.8517622841017

>  <Genealogy>  (34) 
CCOc1cc(C(=O)C2CC2)ccc1OCC(=O)[N-]c1cc([N+](=O)[O-])ccc1Cl (protonated)
CCOc1cc(C(O)=C2CC2)ccc1OC=C(O)[N-]c1cc([N+](=O)[O-])ccc1Cl (tautomer)
CCOc1cc(C(O)=C2CC2)ccc1O/C=C(\O)[N-]c1cc([N+](=O)[O-])ccc1Cl (cis-trans isomerization)
CCOc1cc(C(O)=C2CC2)ccc1O/C=C(\O)[N-]c1cc([N+](=O)[O-])ccc1Cl (3D coordinates assigned)
CCOc1cc(C(O)=C2CC2)ccc1O/C=C(\O)[N-]c1cc([N+](=O)[O-])ccc1Cl (nonaromatic ring conformer: 224.8517622841017 kcal/mol)

>  <smiles>  (34) 
CCOc1cc(C(=O)C2CC2)ccc1OCC(=O)Nc1cc([N+](=O)[O-])ccc1Cl

>  <score_type>  (34) 
oracle

>  <origin>  (34) 
autodockgpu

>  <m_score__min__energy>  (34) 
-6.4500000000000002

>  <m_primary>  (34) 
energy

>  <meeko>  (34) 
{"free_energy": -5.63, "intermolecular_energy": -9.21, "internal_energy": -2.67, "cluster_size": 1, "cluster_id": 4, "rank_in_cluster": 1}

>  <energy>  (34) 
-3.73

>  <cluster_rmsd>  (34) 
1.9

>  <rmsd>  (34) 
269.29

>  <cluster>  (34) 
6

$$$$
VUCFXBNYDUPJQC-ODLFYWEKNA-N
     RDKit          3D

 47 49  0  0  0  0  0  0  0  0999 V2000
  138.6150   80.7470  223.3940 H   0  0  0  0  0  0  0  0  0  0  0  0
  139.2590   80.1960  223.9490 O   0  0  0  0  0  0  0  0  0  0  0  0
  140.2550   79.4140  223.3620 C   0  0  0  0  0  0  0  0  0  0  0  0
  141.5020   79.8860  223.3390 C   0  0  0  0  0  0  0  0  0  0  0  0
  142.9160   79.8850  222.7640 C   0  0  0  0  0  0  0  0  0  0  0  0
  143.5806   79.0298  222.9564 H   0  0  0  0  0  0  0  0  0  0  0  0
  143.3289   79.9893  221.7498 H   0  0  0  0  0  0  0  0  0  0  0  0
  142.6270   80.8040  223.8160 C   0  0  0  0  0  0  0  0  0  0  0  0
  143.0706   80.6494  224.8107 H   0  0  0  0  0  0  0  0  0  0  0  0
  142.7294   81.8932  223.9303 H   0  0  0  0  0  0  0  0  0  0  0  0
  139.8970   78.0860  222.7930 C   0  0  0  0  0  0  0  0  0  0  0  0
  138.5600   77.6720  222.6480 C   0  0  0  0  0  0  0  0  0  0  0  0
  137.7461   78.3426  222.9609 H   0  0  0  0  0  0  0  0  0  0  0  0
  138.2550   76.4210  222.1120 C   0  0  0  0  0  0  0  0  0  0  0  0
  137.2040   76.1124  222.0116 H   0  0  0  0  0  0  0  0  0  0  0  0
  139.2790   75.5510  221.6990 C   0  0  0  0  0  0  0  0  0  0  0  0
  139.0120   74.2840  221.1590 O   0  0  0  0  0  0  0  0  0  0  0  0
  138.6000   73.1720  221.8990 C   0  0  0  0  0  0  0  0  0  0  0  0
  137.5306   72.9211  221.9574 H   0  0  0  0  0  0  0  0  0  0  0  0
  139.4980   72.4090  222.5380 C   0  0  0  0  0  0  0  0  0  0  0  0
  139.1380   71.1280  223.0760 N   0  0  0  0  0  0  0  0  0  0  0  0
  139.5840   70.5800  224.3260 C   0  0  0  0  0  0  0  0  0  0  0  0
  140.0510   71.4570  225.3130 C   0  0  0  0  0  0  0  0  0  0  0  0
  140.0676   72.5388  225.1144 H   0  0  0  0  0  0  0  0  0  0  0  0
  140.4990   70.9720  226.5550 C   0  0  0  0  0  0  0  0  0  0  0  0
  140.9980   71.8730  227.5610 N   0  0  0  0  0  0  0  0  0  0  0  0
  140.4750   71.9150  228.6950 O   0  0  0  0  0  0  0  0  0  0  0  0
  142.0580   72.7060  227.2900 O   0  0  0  0  0  0  0  0  0  0  0  0
  140.4540   69.5890  226.8000 C   0  0  0  0  0  0  0  0  0  0  0  0
  140.8116   69.1931  227.7620 H   0  0  0  0  0  0  0  0  0  0  0  0
  139.9590   68.7140  225.8320 C   0  0  0  0  0  0  0  0  0  0  0  0
  139.9197   67.6347  226.0405 H   0  0  0  0  0  0  0  0  0  0  0  0
  139.5130   69.1990  224.6000 C   0  0  0  0  0  0  0  0  0  0  0  0
  138.8020   68.0610  223.4600 Cl  0  0  0  0  0  0  0  0  0  0  0  0
  140.8210   72.8290  222.6720 O   0  0  0  0  0  0  0  0  0  0  0  0
  141.2020   73.6110  222.1540 H   0  0  0  0  0  0  0  0  0  0  0  0
  140.6180   75.9400  221.8500 C   0  0  0  0  0  0  0  0  0  0  0  0
  141.6160   75.0350  221.4460 O   0  0  0  0  0  0  0  0  0  0  0  0
  142.4130   75.1410  220.2650 C   0  0  0  0  0  0  0  0  0  0  0  0
  142.6083   76.2032  220.0561 H   0  0  0  0  0  0  0  0  0  0  0  0
  141.8667   74.6800  219.4289 H   0  0  0  0  0  0  0  0  0  0  0  0
  143.7410   74.4140  220.4400 C   0  0  0  0  0  0  0  0  0  0  0  0
  143.9560   74.2963  221.5123 H   0  0  0  0  0  0  0  0  0  0  0  0
  143.6814   73.4227  219.9670 H   0  0  0  0  0  0  0  0  0  0  0  0
  144.5440   74.9983  219.9670 H   0  0  0  0  0  0  0  0  0  0  0  0
  140.9200   77.2040  222.3970 C   0  0  0  0  0  0  0  0  0  0  0  0
  141.9712   77.5054  222.5161 H   0  0  0  0  0  0  0  0  0  0  0  0
  1  2  1  0
  2  3  1  0
  3  4  2  3
  4  5  1  0
  5  6  1  0
  5  7  1  0
  5  8  1  0
  8  9  1  0
  8 10  1  0
  3 11  1  0
 11 12  2  0
 12 13  1  0
 12 14  1  0
 14 15  1  0
 14 16  2  0
 16 17  1  0
 17 18  1  0
 18 19  1  0
 18 20  2  0
 20 21  1  0
 21 22  1  0
 22 23  2  0
 23 24  1  0
 23 25  1  0
 25 26  1  0
 26 27  2  0
 26 28  1  0
 25 29  2  0
 29 30  1  0
 29 31  1  0
 31 32  1  0
 31 33  2  0
 33 34  1  0
 20 35  1  0
 35 36  1  0
 16 37  1  0
 37 38  1  0
 38 39  1  0
 39 40  1  0
 39 41  1  0
 39 42  1  0
 42 43  1  0
 42 44  1  0
 42 45  1  0
 37 46  2  0
 46 47  1  0
  8  4  1  0
 46 11  1  0
 33 22  1  0
M  CHG  3  21  -1  26   1  28  -1
M  END
>  <UniqueID>  (35) 
6

>  <SMILES>  (35) 
CCOc1cc(C(O)=C2CC2)ccc1O/C=C(\O)[N-]c1cc([N+](=O)[O-])ccc1Cl

>  <Energy>  (35) 
224.8517622841017

>  <Genealogy>  (35) 
CCOc1cc(C(=O)C2CC2)ccc1OCC(=O)[N-]c1cc([N+](=O)[O-])ccc1Cl (protonated)
CCOc1cc(C(O)=C2CC2)ccc1OC=C(O)[N-]c1cc([N+](=O)[O-])ccc1Cl (tautomer)
CCOc1cc(C(O)=C2CC2)ccc1O/C=C(\O)[N-]c1cc([N+](=O)[O-])ccc1Cl (cis-trans isomerization)
CCOc1cc(C(O)=C2CC2)ccc1O/C=C(\O)[N-]c1cc([N+](=O)[O-])ccc1Cl (3D coordinates assigned)
CCOc1cc(C(O)=C2CC2)ccc1O/C=C(\O)[N-]c1cc([N+](=O)[O-])ccc1Cl (nonaromatic ring conformer: 224.8517622841017 kcal/mol)

>  <smiles>  (35) 
CCOc1cc(C(=O)C2CC2)ccc1OCC(=O)Nc1cc([N+](=O)[O-])ccc1Cl

>  <score_type>  (35) 
oracle

>  <origin>  (35) 
autodockgpu

>  <m_score__min__energy>  (35) 
-6.4500000000000002

>  <m_primary>  (35) 
energy

>  <meeko>  (35) 
{"free_energy": -6.45, "intermolecular_energy": -10.03, "internal_energy": -2.39, "cluster_size": 8, "cluster_id": 1, "rank_in_cluster": 1}

>  <energy>  (35) 
-3.56

>  <cluster_rmsd>  (35) 
0.0

>  <rmsd>  (35) 
269.62

>  <cluster>  (35) 
7

$$$$
VUCFXBNYDUPJQC-ODLFYWEKNA-N
     RDKit          3D

 47 49  0  0  0  0  0  0  0  0999 V2000
  138.7180   79.2820  224.4410 H   0  0  0  0  0  0  0  0  0  0  0  0
  139.4290   79.8650  224.0140 O   0  0  0  0  0  0  0  0  0  0  0  0
  140.5220   79.3190  223.3400 C   0  0  0  0  0  0  0  0  0  0  0  0
  141.6970   79.9440  223.4260 C   0  0  0  0  0  0  0  0  0  0  0  0
  142.5950   81.0140  224.0420 C   0  0  0  0  0  0  0  0  0  0  0  0
  142.4064   82.0750  223.8214 H   0  0  0  0  0  0  0  0  0  0  0  0
  142.8826   81.2700  225.0724 H   0  0  0  0  0  0  0  0  0  0  0  0
  143.1570   80.1740  223.0360 C   0  0  0  0  0  0  0  0  0  0  0  0
  143.3965   80.5940  222.0479 H   0  0  0  0  0  0  0  0  0  0  0  0
  144.0467   79.5290  222.9869 H   0  0  0  0  0  0  0  0  0  0  0  0
  140.3450   78.0640  222.5590 C   0  0  0  0  0  0  0  0  0  0  0  0
  141.3210   77.6030  221.6550 C   0  0  0  0  0  0  0  0  0  0  0  0
  142.2470   78.1797  221.5137 H   0  0  0  0  0  0  0  0  0  0  0  0
  141.1270   76.4240  220.9370 C   0  0  0  0  0  0  0  0  0  0  0  0
  141.8984   76.0822  220.2313 H   0  0  0  0  0  0  0  0  0  0  0  0
  139.9540   75.6680  221.1070 C   0  0  0  0  0  0  0  0  0  0  0  0
  139.7210   74.4790  220.4000 O   0  0  0  0  0  0  0  0  0  0  0  0
  140.1490   73.2110  220.8060 C   0  0  0  0  0  0  0  0  0  0  0  0
  140.8030   72.6190  220.1488 H   0  0  0  0  0  0  0  0  0  0  0  0
  139.7680   72.7120  221.9900 C   0  0  0  0  0  0  0  0  0  0  0  0
  140.6880   71.9930  222.8250 N   0  0  0  0  0  0  0  0  0  0  0  0
  140.3610   71.2870  224.0310 C   0  0  0  0  0  0  0  0  0  0  0  0
  140.6680   71.8830  225.2610 C   0  0  0  0  0  0  0  0  0  0  0  0
  141.1497   72.8717  225.2802 H   0  0  0  0  0  0  0  0  0  0  0  0
  140.3680   71.2330  226.4720 C   0  0  0  0  0  0  0  0  0  0  0  0
  140.7030   71.8390  227.7350 N   0  0  0  0  0  0  0  0  0  0  0  0
  139.9560   71.7010  228.7260 O   0  0  0  0  0  0  0  0  0  0  0  0
  141.8520   72.5830  227.8710 O   0  0  0  0  0  0  0  0  0  0  0  0
  139.7360   69.9800  226.4320 C   0  0  0  0  0  0  0  0  0  0  0  0
  139.5061   69.4544  227.3706 H   0  0  0  0  0  0  0  0  0  0  0  0
  139.3970   69.3960  225.2100 C   0  0  0  0  0  0  0  0  0  0  0  0
  138.8918   68.4190  225.1933 H   0  0  0  0  0  0  0  0  0  0  0  0
  139.6950   70.0440  224.0070 C   0  0  0  0  0  0  0  0  0  0  0  0
  139.1520   69.3100  222.5030 Cl  0  0  0  0  0  0  0  0  0  0  0  0
  138.4680   72.9030  222.4580 O   0  0  0  0  0  0  0  0  0  0  0  0
  138.1150   73.8110  222.7350 H   0  0  0  0  0  0  0  0  0  0  0  0
  138.9640   76.1190  221.9920 C   0  0  0  0  0  0  0  0  0  0  0  0
  137.7950   75.3470  222.1200 O   0  0  0  0  0  0  0  0  0  0  0  0
  136.7350   75.2710  221.1660 C   0  0  0  0  0  0  0  0  0  0  0  0
  135.8167   74.9404  221.6734 H   0  0  0  0  0  0  0  0  0  0  0  0
  137.0191   74.5547  220.3810 H   0  0  0  0  0  0  0  0  0  0  0  0
  136.4870   76.6290  220.5200 C   0  0  0  0  0  0  0  0  0  0  0  0
  136.3484   77.3881  221.3039 H   0  0  0  0  0  0  0  0  0  0  0  0
  137.3504   76.9008  219.8949 H   0  0  0  0  0  0  0  0  0  0  0  0
  135.5833   76.5781  219.8949 H   0  0  0  0  0  0  0  0  0  0  0  0
  139.1640   77.3150  222.7110 C   0  0  0  0  0  0  0  0  0  0  0  0
  138.3842   77.6681  223.4018 H   0  0  0  0  0  0  0  0  0  0  0  0
  1  2  1  0
  2  3  1  0
  3  4  2  3
  4  5  1  0
  5  6  1  0
  5  7  1  0
  5  8  1  0
  8  9  1  0
  8 10  1  0
  3 11  1  0
 11 12  2  0
 12 13  1  0
 12 14  1  0
 14 15  1  0
 14 16  2  0
 16 17  1  0
 17 18  1  0
 18 19  1  0
 18 20  2  0
 20 21  1  0
 21 22  1  0
 22 23  2  0
 23 24  1  0
 23 25  1  0
 25 26  1  0
 26 27  2  0
 26 28  1  0
 25 29  2  0
 29 30  1  0
 29 31  1  0
 31 32  1  0
 31 33  2  0
 33 34  1  0
 20 35  1  0
 35 36  1  0
 16 37  1  0
 37 38  1  0
 38 39  1  0
 39 40  1  0
 39 41  1  0
 39 42  1  0
 42 43  1  0
 42 44  1  0
 42 45  1  0
 37 46  2  0
 46 47  1  0
  8  4  1  0
 46 11  1  0
 33 22  1  0
M  CHG  3  21  -1  26   1  28  -1
M  END
>  <UniqueID>  (36) 
6

>  <SMILES>  (36) 
CCOc1cc(C(O)=C2CC2)ccc1O/C=C(\O)[N-]c1cc([N+](=O)[O-])ccc1Cl

>  <Energy>  (36) 
224.8517622841017

>  <Genealogy>  (36) 
CCOc1cc(C(=O)C2CC2)ccc1OCC(=O)[N-]c1cc([N+](=O)[O-])ccc1Cl (protonated)
CCOc1cc(C(O)=C2CC2)ccc1OC=C(O)[N-]c1cc([N+](=O)[O-])ccc1Cl (tautomer)
CCOc1cc(C(O)=C2CC2)ccc1O/C=C(\O)[N-]c1cc([N+](=O)[O-])ccc1Cl (cis-trans isomerization)
CCOc1cc(C(O)=C2CC2)ccc1O/C=C(\O)[N-]c1cc([N+](=O)[O-])ccc1Cl (3D coordinates assigned)
CCOc1cc(C(O)=C2CC2)ccc1O/C=C(\O)[N-]c1cc([N+](=O)[O-])ccc1Cl (nonaromatic ring conformer: 224.8517622841017 kcal/mol)

>  <smiles>  (36) 
CCOc1cc(C(=O)C2CC2)ccc1OCC(=O)Nc1cc([N+](=O)[O-])ccc1Cl

>  <score_type>  (36) 
oracle

>  <origin>  (36) 
autodockgpu

>  <m_score__min__energy>  (36) 
-6.4500000000000002

>  <m_primary>  (36) 
energy

>  <meeko>  (36) 
{"free_energy": -5.59, "intermolecular_energy": -9.17, "internal_energy": -2.17, "cluster_size": 8, "cluster_id": 1, "rank_in_cluster": 8}

>  <energy>  (36) 
-3.55

>  <cluster_rmsd>  (36) 
0.0

>  <rmsd>  (36) 
270.62

>  <cluster>  (36) 
8

$$$$
VUCFXBNYDUPJQC-ODLFYWEKNA-N
     RDKit          3D

 47 49  0  0  0  0  0  0  0  0999 V2000
  138.2000   80.4770  223.4130 H   0  0  0  0  0  0  0  0  0  0  0  0
  139.0060   80.1370  223.9250 O   0  0  0  0  0  0  0  0  0  0  0  0
  140.0010   79.3750  223.3110 C   0  0  0  0  0  0  0  0  0  0  0  0
  141.2310   79.8860  223.2280 C   0  0  0  0  0  0  0  0  0  0  0  0
  142.1730   81.0840  223.1540 C   0  0  0  0  0  0  0  0  0  0  0  0
  142.1969   81.7016  222.2440 H   0  0  0  0  0  0  0  0  0  0  0  0
  142.3222   81.9789  223.7760 H   0  0  0  0  0  0  0  0  0  0  0  0
  142.7520   79.7810  223.1370 C   0  0  0  0  0  0  0  0  0  0  0  0
  143.2171   79.4043  222.2141 H   0  0  0  0  0  0  0  0  0  0  0  0
  143.5218   79.2777  223.7404 H   0  0  0  0  0  0  0  0  0  0  0  0
  139.6630   78.0260  222.7820 C   0  0  0  0  0  0  0  0  0  0  0  0
  138.3810   77.4640  222.9330 C   0  0  0  0  0  0  0  0  0  0  0  0
  137.5972   78.0312  223.4564 H   0  0  0  0  0  0  0  0  0  0  0  0
  138.0930   76.1970  222.4270 C   0  0  0  0  0  0  0  0  0  0  0  0
  137.0873   75.7717  222.5602 H   0  0  0  0  0  0  0  0  0  0  0  0
  139.0780   75.4590  221.7480 C   0  0  0  0  0  0  0  0  0  0  0  0
  138.8270   74.1790  221.2280 O   0  0  0  0  0  0  0  0  0  0  0  0
  138.7420   73.0110  221.9910 C   0  0  0  0  0  0  0  0  0  0  0  0
  137.7554   72.6122  222.2696 H   0  0  0  0  0  0  0  0  0  0  0  0
  139.8520   72.3730  222.3860 C   0  0  0  0  0  0  0  0  0  0  0  0
  139.8100   71.0080  222.8290 N   0  0  0  0  0  0  0  0  0  0  0  0
  139.8480   70.5610  224.1930 C   0  0  0  0  0  0  0  0  0  0  0  0
  140.2780   71.4570  225.1800 C   0  0  0  0  0  0  0  0  0  0  0  0
  140.5748   72.4773  224.8954 H   0  0  0  0  0  0  0  0  0  0  0  0
  140.3350   71.0680  226.5310 C   0  0  0  0  0  0  0  0  0  0  0  0
  140.7970   71.9840  227.5420 N   0  0  0  0  0  0  0  0  0  0  0  0
  141.8390   72.6510  227.3680 O   0  0  0  0  0  0  0  0  0  0  0  0
  140.0980   72.1400  228.7160 O   0  0  0  0  0  0  0  0  0  0  0  0
  139.9330   69.7690  226.8810 C   0  0  0  0  0  0  0  0  0  0  0  0
  139.9825   69.4469  227.9316 H   0  0  0  0  0  0  0  0  0  0  0  0
  139.4710   68.8830  225.9060 C   0  0  0  0  0  0  0  0  0  0  0  0
  139.1488   67.8719  226.1955 H   0  0  0  0  0  0  0  0  0  0  0  0
  139.4150   69.2720  224.5640 C   0  0  0  0  0  0  0  0  0  0  0  0
  138.7280   68.1500  223.3960 Cl  0  0  0  0  0  0  0  0  0  0  0  0
  141.0920   73.0120  222.3480 O   0  0  0  0  0  0  0  0  0  0  0  0
  141.2670   73.8320  221.7800 H   0  0  0  0  0  0  0  0  0  0  0  0
  140.3650   75.9960  221.6000 C   0  0  0  0  0  0  0  0  0  0  0  0
  141.3290   75.2180  220.9330 O   0  0  0  0  0  0  0  0  0  0  0  0
  142.2860   75.7010  219.9890 C   0  0  0  0  0  0  0  0  0  0  0  0
  142.4869   76.7635  220.1909 H   0  0  0  0  0  0  0  0  0  0  0  0
  141.8765   75.5741  218.9760 H   0  0  0  0  0  0  0  0  0  0  0  0
  143.5900   74.9180  220.0900 C   0  0  0  0  0  0  0  0  0  0  0  0
  143.8447   74.7650  221.1491 H   0  0  0  0  0  0  0  0  0  0  0  0
  143.4708   73.9420  219.5969 H   0  0  0  0  0  0  0  0  0  0  0  0
  144.3955   75.4820  219.5969 H   0  0  0  0  0  0  0  0  0  0  0  0
  140.6500   77.2740  222.1180 C   0  0  0  0  0  0  0  0  0  0  0  0
  141.6610   77.6916  222.0017 H   0  0  0  0  0  0  0  0  0  0  0  0
  1  2  1  0
  2  3  1  0
  3  4  2  3
  4  5  1  0
  5  6  1  0
  5  7  1  0
  5  8  1  0
  8  9  1  0
  8 10  1  0
  3 11  1  0
 11 12  2  0
 12 13  1  0
 12 14  1  0
 14 15  1  0
 14 16  2  0
 16 17  1  0
 17 18  1  0
 18 19  1  0
 18 20  2  0
 20 21  1  0
 21 22  1  0
 22 23  2  0
 23 24  1  0
 23 25  1  0
 25 26  1  0
 26 27  2  0
 26 28  1  0
 25 29  2  0
 29 30  1  0
 29 31  1  0
 31 32  1  0
 31 33  2  0
 33 34  1  0
 20 35  1  0
 35 36  1  0
 16 37  1  0
 37 38  1  0
 38 39  1  0
 39 40  1  0
 39 41  1  0
 39 42  1  0
 42 43  1  0
 42 44  1  0
 42 45  1  0
 37 46  2  0
 46 47  1  0
  8  4  1  0
 46 11  1  0
 33 22  1  0
M  CHG  3  21  -1  26   1  28  -1
M  END
>  <UniqueID>  (37) 
6

>  <SMILES>  (37) 
CCOc1cc(C(O)=C2CC2)ccc1O/C=C(\O)[N-]c1cc([N+](=O)[O-])ccc1Cl

>  <Energy>  (37) 
224.8517622841017

>  <Genealogy>  (37) 
CCOc1cc(C(=O)C2CC2)ccc1OCC(=O)[N-]c1cc([N+](=O)[O-])ccc1Cl (protonated)
CCOc1cc(C(O)=C2CC2)ccc1OC=C(O)[N-]c1cc([N+](=O)[O-])ccc1Cl (tautomer)
CCOc1cc(C(O)=C2CC2)ccc1O/C=C(\O)[N-]c1cc([N+](=O)[O-])ccc1Cl (cis-trans isomerization)
CCOc1cc(C(O)=C2CC2)ccc1O/C=C(\O)[N-]c1cc([N+](=O)[O-])ccc1Cl (3D coordinates assigned)
CCOc1cc(C(O)=C2CC2)ccc1O/C=C(\O)[N-]c1cc([N+](=O)[O-])ccc1Cl (nonaromatic ring conformer: 224.8517622841017 kcal/mol)

>  <smiles>  (37) 
CCOc1cc(C(=O)C2CC2)ccc1OCC(=O)Nc1cc([N+](=O)[O-])ccc1Cl

>  <score_type>  (37) 
oracle

>  <origin>  (37) 
autodockgpu

>  <m_score__min__energy>  (37) 
-6.4500000000000002

>  <m_primary>  (37) 
energy

>  <meeko>  (37) 
{"free_energy": -6.35, "intermolecular_energy": -9.93, "internal_energy": -2.34, "cluster_size": 8, "cluster_id": 1, "rank_in_cluster": 4}

>  <energy>  (37) 
-3.38

>  <cluster_rmsd>  (37) 
0.0

>  <rmsd>  (37) 
271.17

>  <cluster>  (37) 
9

$$$$
VUCFXBNYDUPJQC-ODLFYWEKNA-N
     RDKit          3D

 47 49  0  0  0  0  0  0  0  0999 V2000
  138.2930   80.2810  223.6590 H   0  0  0  0  0  0  0  0  0  0  0  0
  139.2070   80.1130  224.0640 O   0  0  0  0  0  0  0  0  0  0  0  0
  140.1910   79.3910  223.3880 C   0  0  0  0  0  0  0  0  0  0  0  0
  141.4130   79.9190  223.2920 C   0  0  0  0  0  0  0  0  0  0  0  0
  142.6010   80.3820  222.4540 C   0  0  0  0  0  0  0  0  0  0  0  0
  143.2275   79.6376  221.9407 H   0  0  0  0  0  0  0  0  0  0  0  0
  142.7159   81.0753  221.6077 H   0  0  0  0  0  0  0  0  0  0  0  0
  142.6910   80.5230  223.8700 C   0  0  0  0  0  0  0  0  0  0  0  0
  143.3857   79.8860  224.4371 H   0  0  0  0  0  0  0  0  0  0  0  0
  142.9021   81.3671  224.5431 H   0  0  0  0  0  0  0  0  0  0  0  0
  139.8520   78.0630  222.8070 C   0  0  0  0  0  0  0  0  0  0  0  0
  138.5200   77.6670  222.5780 C   0  0  0  0  0  0  0  0  0  0  0  0
  137.6977   78.3524  222.8312 H   0  0  0  0  0  0  0  0  0  0  0  0
  138.2320   76.4160  222.0340 C   0  0  0  0  0  0  0  0  0  0  0  0
  137.1853   76.1210  221.8685 H   0  0  0  0  0  0  0  0  0  0  0  0
  139.2690   75.5280  221.6950 C   0  0  0  0  0  0  0  0  0  0  0  0
  139.0180   74.2600  221.1490 O   0  0  0  0  0  0  0  0  0  0  0  0
  138.5490   73.1590  221.8700 C   0  0  0  0  0  0  0  0  0  0  0  0
  137.4770   72.9129  221.8541 H   0  0  0  0  0  0  0  0  0  0  0  0
  139.3950   72.4000  222.5810 C   0  0  0  0  0  0  0  0  0  0  0  0
  138.9530   71.1980  223.2280 N   0  0  0  0  0  0  0  0  0  0  0  0
  139.5210   70.6170  224.4110 C   0  0  0  0  0  0  0  0  0  0  0  0
  140.0150   71.4700  225.4070 C   0  0  0  0  0  0  0  0  0  0  0  0
  139.9593   72.5594  225.2655 H   0  0  0  0  0  0  0  0  0  0  0  0
  140.5810   70.9510  226.5850 C   0  0  0  0  0  0  0  0  0  0  0  0
  141.1060   71.8300  227.5980 N   0  0  0  0  0  0  0  0  0  0  0  0
  140.5900   71.8730  228.7340 O   0  0  0  0  0  0  0  0  0  0  0  0
  142.1860   72.6400  227.3300 O   0  0  0  0  0  0  0  0  0  0  0  0
  140.6290   69.5580  226.7600 C   0  0  0  0  0  0  0  0  0  0  0  0
  141.0805   69.1373  227.6706 H   0  0  0  0  0  0  0  0  0  0  0  0
  140.1080   68.7040  225.7870 C   0  0  0  0  0  0  0  0  0  0  0  0
  140.1412   67.6154  225.9416 H   0  0  0  0  0  0  0  0  0  0  0  0
  139.5440   69.2220  224.6170 C   0  0  0  0  0  0  0  0  0  0  0  0
  138.8110   68.1020  223.4740 Cl  0  0  0  0  0  0  0  0  0  0  0  0
  140.7430   72.7450  222.6870 O   0  0  0  0  0  0  0  0  0  0  0  0
  141.1530   73.5140  222.1700 H   0  0  0  0  0  0  0  0  0  0  0  0
  140.6000   75.9000  221.9290 C   0  0  0  0  0  0  0  0  0  0  0  0
  141.6090   74.9760  221.5970 O   0  0  0  0  0  0  0  0  0  0  0  0
  142.4860   75.0650  220.4740 C   0  0  0  0  0  0  0  0  0  0  0  0
  142.2651   74.2420  219.7784 H   0  0  0  0  0  0  0  0  0  0  0  0
  143.5238   74.9971  220.8322 H   0  0  0  0  0  0  0  0  0  0  0  0
  142.3070   76.3940  219.7480 C   0  0  0  0  0  0  0  0  0  0  0  0
  142.1981   77.2029  220.4854 H   0  0  0  0  0  0  0  0  0  0  0  0
  143.1870   76.5888  219.1174 H   0  0  0  0  0  0  0  0  0  0  0  0
  141.4068   76.3490  219.1174 H   0  0  0  0  0  0  0  0  0  0  0  0
  140.8840   77.1630  222.4850 C   0  0  0  0  0  0  0  0  0  0  0  0
  141.9296   77.4499  222.6703 H   0  0  0  0  0  0  0  0  0  0  0  0
  1  2  1  0
  2  3  1  0
  3  4  2  3
  4  5  1  0
  5  6  1  0
  5  7  1  0
  5  8  1  0
  8  9  1  0
  8 10  1  0
  3 11  1  0
 11 12  2  0
 12 13  1  0
 12 14  1  0
 14 15  1  0
 14 16  2  0
 16 17  1  0
 17 18  1  0
 18 19  1  0
 18 20  2  0
 20 21  1  0
 21 22  1  0
 22 23  2  0
 23 24  1  0
 23 25  1  0
 25 26  1  0
 26 27  2  0
 26 28  1  0
 25 29  2  0
 29 30  1  0
 29 31  1  0
 31 32  1  0
 31 33  2  0
 33 34  1  0
 20 35  1  0
 35 36  1  0
 16 37  1  0
 37 38  1  0
 38 39  1  0
 39 40  1  0
 39 41  1  0
 39 42  1  0
 42 43  1  0
 42 44  1  0
 42 45  1  0
 37 46  2  0
 46 47  1  0
  8  4  1  0
 46 11  1  0
 33 22  1  0
M  CHG  3  21  -1  26   1  28  -1
M  END
>  <UniqueID>  (38) 
6

>  <SMILES>  (38) 
CCOc1cc(C(O)=C2CC2)ccc1O/C=C(\O)[N-]c1cc([N+](=O)[O-])ccc1Cl

>  <Energy>  (38) 
224.8517622841017

>  <Genealogy>  (38) 
CCOc1cc(C(=O)C2CC2)ccc1OCC(=O)[N-]c1cc([N+](=O)[O-])ccc1Cl (protonated)
CCOc1cc(C(O)=C2CC2)ccc1OC=C(O)[N-]c1cc([N+](=O)[O-])ccc1Cl (tautomer)
CCOc1cc(C(O)=C2CC2)ccc1O/C=C(\O)[N-]c1cc([N+](=O)[O-])ccc1Cl (cis-trans isomerization)
CCOc1cc(C(O)=C2CC2)ccc1O/C=C(\O)[N-]c1cc([N+](=O)[O-])ccc1Cl (3D coordinates assigned)
CCOc1cc(C(O)=C2CC2)ccc1O/C=C(\O)[N-]c1cc([N+](=O)[O-])ccc1Cl (nonaromatic ring conformer: 224.8517622841017 kcal/mol)

>  <smiles>  (38) 
CCOc1cc(C(=O)C2CC2)ccc1OCC(=O)Nc1cc([N+](=O)[O-])ccc1Cl

>  <score_type>  (38) 
oracle

>  <origin>  (38) 
autodockgpu

>  <m_score__min__energy>  (38) 
-6.4500000000000002

>  <m_primary>  (38) 
energy

>  <meeko>  (38) 
{"free_energy": -6.31, "intermolecular_energy": -9.89, "internal_energy": -2.44, "cluster_size": 8, "cluster_id": 1, "rank_in_cluster": 5}

>  <energy>  (38) 
-3.23

>  <cluster_rmsd>  (38) 
0.41

>  <rmsd>  (38) 
271.11

>  <cluster>  (38) 
9

$$$$
VUCFXBNYDUPJQC-ODLFYWEKNA-N
     RDKit          3D

 47 49  0  0  0  0  0  0  0  0999 V2000
  140.5940   81.3550  223.4070 H   0  0  0  0  0  0  0  0  0  0  0  0
  139.7250   81.6290  222.9640 O   0  0  0  0  0  0  0  0  0  0  0  0
  138.5430   80.9130  223.1540 C   0  0  0  0  0  0  0  0  0  0  0  0
  137.6320   81.4050  223.9960 C   0  0  0  0  0  0  0  0  0  0  0  0
  136.8450   81.3260  225.3020 C   0  0  0  0  0  0  0  0  0  0  0  0
  136.0795   80.5463  225.4293 H   0  0  0  0  0  0  0  0  0  0  0  0
  137.1281   81.2335  226.3609 H   0  0  0  0  0  0  0  0  0  0  0  0
  136.5890   82.4310  224.4370 C   0  0  0  0  0  0  0  0  0  0  0  0
  135.6286   82.4939  223.9044 H   0  0  0  0  0  0  0  0  0  0  0  0
  136.5977   83.5232  224.5678 H   0  0  0  0  0  0  0  0  0  0  0  0
  138.3340   79.6390  222.4130 C   0  0  0  0  0  0  0  0  0  0  0  0
  138.4390   79.5660  221.0110 C   0  0  0  0  0  0  0  0  0  0  0  0
  138.6821   80.4714  220.4356 H   0  0  0  0  0  0  0  0  0  0  0  0
  138.2380   78.3580  220.3440 C   0  0  0  0  0  0  0  0  0  0  0  0
  138.3189   78.3206  219.2476 H   0  0  0  0  0  0  0  0  0  0  0  0
  137.9330   77.1880  221.0600 C   0  0  0  0  0  0  0  0  0  0  0  0
  137.7200   75.9560  220.4240 O   0  0  0  0  0  0  0  0  0  0  0  0
  138.6930   74.9660  220.2540 C   0  0  0  0  0  0  0  0  0  0  0  0
  138.6103   74.2574  219.4167 H   0  0  0  0  0  0  0  0  0  0  0  0
  139.7260   74.8740  221.1040 C   0  0  0  0  0  0  0  0  0  0  0  0
  140.9940   75.4750  220.8020 N   0  0  0  0  0  0  0  0  0  0  0  0
  141.2790   76.8810  220.7770 C   0  0  0  0  0  0  0  0  0  0  0  0
  141.3530   77.5730  221.9930 C   0  0  0  0  0  0  0  0  0  0  0  0
  141.1932   77.0308  222.9366 H   0  0  0  0  0  0  0  0  0  0  0  0
  141.6290   78.9520  222.0230 C   0  0  0  0  0  0  0  0  0  0  0  0
  141.6850   79.6630  223.2740 N   0  0  0  0  0  0  0  0  0  0  0  0
  140.8820   79.3990  224.1940 O   0  0  0  0  0  0  0  0  0  0  0  0
  142.6240   80.6480  223.4760 O   0  0  0  0  0  0  0  0  0  0  0  0
  141.8480   79.6270  220.8110 C   0  0  0  0  0  0  0  0  0  0  0  0
  142.0526   80.7078  220.8173 H   0  0  0  0  0  0  0  0  0  0  0  0
  141.8080   78.9370  219.5990 C   0  0  0  0  0  0  0  0  0  0  0  0
  141.9927   79.4759  218.6580 H   0  0  0  0  0  0  0  0  0  0  0  0
  141.5350   77.5660  219.5710 C   0  0  0  0  0  0  0  0  0  0  0  0
  141.6010   76.7310  218.0240 Cl  0  0  0  0  0  0  0  0  0  0  0  0
  139.5860   74.2140  222.3250 O   0  0  0  0  0  0  0  0  0  0  0  0
  138.7940   74.3610  222.9380 H   0  0  0  0  0  0  0  0  0  0  0  0
  137.8100   77.2450  222.4560 C   0  0  0  0  0  0  0  0  0  0  0  0
  137.4840   76.0570  223.1360 O   0  0  0  0  0  0  0  0  0  0  0  0
  136.1640   75.5940  223.4220 C   0  0  0  0  0  0  0  0  0  0  0  0
  135.4368   76.3471  223.0842 H   0  0  0  0  0  0  0  0  0  0  0  0
  136.0744   75.4337  224.5066 H   0  0  0  0  0  0  0  0  0  0  0  0
  135.8850   74.2750  222.7090 C   0  0  0  0  0  0  0  0  0  0  0  0
  135.7176   73.4835  223.4544 H   0  0  0  0  0  0  0  0  0  0  0  0
  134.9894   74.3809  222.0792 H   0  0  0  0  0  0  0  0  0  0  0  0
  136.7468   74.0092  222.0792 H   0  0  0  0  0  0  0  0  0  0  0  0
  138.0100   78.4690  223.1240 C   0  0  0  0  0  0  0  0  0  0  0  0
  137.9113   78.5107  224.2188 H   0  0  0  0  0  0  0  0  0  0  0  0
  1  2  1  0
  2  3  1  0
  3  4  2  3
  4  5  1  0
  5  6  1  0
  5  7  1  0
  5  8  1  0
  8  9  1  0
  8 10  1  0
  3 11  1  0
 11 12  2  0
 12 13  1  0
 12 14  1  0
 14 15  1  0
 14 16  2  0
 16 17  1  0
 17 18  1  0
 18 19  1  0
 18 20  2  0
 20 21  1  0
 21 22  1  0
 22 23  2  0
 23 24  1  0
 23 25  1  0
 25 26  1  0
 26 27  2  0
 26 28  1  0
 25 29  2  0
 29 30  1  0
 29 31  1  0
 31 32  1  0
 31 33  2  0
 33 34  1  0
 20 35  1  0
 35 36  1  0
 16 37  1  0
 37 38  1  0
 38 39  1  0
 39 40  1  0
 39 41  1  0
 39 42  1  0
 42 43  1  0
 42 44  1  0
 42 45  1  0
 37 46  2  0
 46 47  1  0
  8  4  1  0
 46 11  1  0
 33 22  1  0
M  CHG  3  21  -1  26   1  28  -1
M  END
>  <UniqueID>  (39) 
6

>  <SMILES>  (39) 
CCOc1cc(C(O)=C2CC2)ccc1O/C=C(\O)[N-]c1cc([N+](=O)[O-])ccc1Cl

>  <Energy>  (39) 
224.8517622841017

>  <Genealogy>  (39) 
CCOc1cc(C(=O)C2CC2)ccc1OCC(=O)[N-]c1cc([N+](=O)[O-])ccc1Cl (protonated)
CCOc1cc(C(O)=C2CC2)ccc1OC=C(O)[N-]c1cc([N+](=O)[O-])ccc1Cl (tautomer)
CCOc1cc(C(O)=C2CC2)ccc1O/C=C(\O)[N-]c1cc([N+](=O)[O-])ccc1Cl (cis-trans isomerization)
CCOc1cc(C(O)=C2CC2)ccc1O/C=C(\O)[N-]c1cc([N+](=O)[O-])ccc1Cl (3D coordinates assigned)
CCOc1cc(C(O)=C2CC2)ccc1O/C=C(\O)[N-]c1cc([N+](=O)[O-])ccc1Cl (nonaromatic ring conformer: 224.8517622841017 kcal/mol)

>  <smiles>  (39) 
CCOc1cc(C(=O)C2CC2)ccc1OCC(=O)Nc1cc([N+](=O)[O-])ccc1Cl

>  <score_type>  (39) 
oracle

>  <origin>  (39) 
autodockgpu

>  <m_score__min__energy>  (39) 
-6.4500000000000002

>  <m_primary>  (39) 
energy

>  <meeko>  (39) 
{"free_energy": -3.23, "intermolecular_energy": -6.81, "internal_energy": -4.88, "cluster_size": 2, "cluster_id": 9, "rank_in_cluster": 2}

>  <energy>  (39) 
-3.32

>  <cluster_rmsd>  (39) 
0.0

>  <rmsd>  (39) 
271.05

>  <cluster>  (39) 
10

$$$$
VUCFXBNYDUPJQC-ODLFYWEKNA-N
     RDKit          3D

 47 49  0  0  0  0  0  0  0  0999 V2000
  138.6850   80.7560  223.2740 H   0  0  0  0  0  0  0  0  0  0  0  0
  139.1670   80.0570  223.8260 O   0  0  0  0  0  0  0  0  0  0  0  0
  140.1610   79.2430  223.2800 C   0  0  0  0  0  0  0  0  0  0  0  0
  141.4230   79.6750  223.3100 C   0  0  0  0  0  0  0  0  0  0  0  0
  142.8560   79.6390  222.7850 C   0  0  0  0  0  0  0  0  0  0  0  0
  143.4864   78.7599  222.9847 H   0  0  0  0  0  0  0  0  0  0  0  0
  143.3080   79.7478  221.7881 H   0  0  0  0  0  0  0  0  0  0  0  0
  142.5580   80.5480  223.8430 C   0  0  0  0  0  0  0  0  0  0  0  0
  142.9607   80.3621  224.8496 H   0  0  0  0  0  0  0  0  0  0  0  0
  142.6900   81.6313  223.9810 H   0  0  0  0  0  0  0  0  0  0  0  0
  139.7850   77.9280  222.6930 C   0  0  0  0  0  0  0  0  0  0  0  0
  138.4750   77.4200  222.7790 C   0  0  0  0  0  0  0  0  0  0  0  0
  137.6975   78.0046  223.2925 H   0  0  0  0  0  0  0  0  0  0  0  0
  138.1520   76.1830  222.2200 C   0  0  0  0  0  0  0  0  0  0  0  0
  137.1245   75.7988  222.3020 H   0  0  0  0  0  0  0  0  0  0  0  0
  139.1290   75.4240  221.5530 C   0  0  0  0  0  0  0  0  0  0  0  0
  138.8430   74.1740  220.9820 O   0  0  0  0  0  0  0  0  0  0  0  0
  138.4130   73.0500  221.6940 C   0  0  0  0  0  0  0  0  0  0  0  0
  137.3766   72.6981  221.5844 H   0  0  0  0  0  0  0  0  0  0  0  0
  139.2540   72.3980  222.5090 C   0  0  0  0  0  0  0  0  0  0  0  0
  138.8590   71.1880  223.1730 N   0  0  0  0  0  0  0  0  0  0  0  0
  139.4560   70.6410  224.3580 C   0  0  0  0  0  0  0  0  0  0  0  0
  139.9440   71.5220  225.3310 C   0  0  0  0  0  0  0  0  0  0  0  0
  139.8617   72.6072  225.1711 H   0  0  0  0  0  0  0  0  0  0  0  0
  140.5380   71.0370  226.5100 C   0  0  0  0  0  0  0  0  0  0  0  0
  141.0580   71.9450  227.4990 N   0  0  0  0  0  0  0  0  0  0  0  0
  142.0660   72.6410  227.2570 O   0  0  0  0  0  0  0  0  0  0  0  0
  140.4530   72.0600  228.7300 O   0  0  0  0  0  0  0  0  0  0  0  0
  140.6180   69.6490  226.7090 C   0  0  0  0  0  0  0  0  0  0  0  0
  141.0900   69.2546  227.6210 H   0  0  0  0  0  0  0  0  0  0  0  0
  140.1030   68.7660  225.7580 C   0  0  0  0  0  0  0  0  0  0  0  0
  140.1627   67.6814  225.9313 H   0  0  0  0  0  0  0  0  0  0  0  0
  139.5120   69.2500  224.5870 C   0  0  0  0  0  0  0  0  0  0  0  0
  138.7870   68.0950  223.4750 Cl  0  0  0  0  0  0  0  0  0  0  0  0
  140.5530   72.8630  222.7110 O   0  0  0  0  0  0  0  0  0  0  0  0
  140.9700   73.5880  222.1390 H   0  0  0  0  0  0  0  0  0  0  0  0
  140.4430   75.9070  221.4710 C   0  0  0  0  0  0  0  0  0  0  0  0
  141.3970   75.1080  220.8140 O   0  0  0  0  0  0  0  0  0  0  0  0
  142.5770   75.5810  220.1640 C   0  0  0  0  0  0  0  0  0  0  0  0
  142.8360   76.5725  220.5639 H   0  0  0  0  0  0  0  0  0  0  0  0
  142.3829   75.6422  219.0830 H   0  0  0  0  0  0  0  0  0  0  0  0
  143.7440   74.6280  220.3970 C   0  0  0  0  0  0  0  0  0  0  0  0
  143.9019   74.4991  221.4779 H   0  0  0  0  0  0  0  0  0  0  0  0
  143.5180   73.6530  219.9406 H   0  0  0  0  0  0  0  0  0  0  0  0
  144.6541   75.0443  219.9406 H   0  0  0  0  0  0  0  0  0  0  0  0
  140.7640   77.1550  222.0420 C   0  0  0  0  0  0  0  0  0  0  0  0
  141.7959   77.5305  221.9777 H   0  0  0  0  0  0  0  0  0  0  0  0
  1  2  1  0
  2  3  1  0
  3  4  2  3
  4  5  1  0
  5  6  1  0
  5  7  1  0
  5  8  1  0
  8  9  1  0
  8 10  1  0
  3 11  1  0
 11 12  2  0
 12 13  1  0
 12 14  1  0
 14 15  1  0
 14 16  2  0
 16 17  1  0
 17 18  1  0
 18 19  1  0
 18 20  2  0
 20 21  1  0
 21 22  1  0
 22 23  2  0
 23 24  1  0
 23 25  1  0
 25 26  1  0
 26 27  2  0
 26 28  1  0
 25 29  2  0
 29 30  1  0
 29 31  1  0
 31 32  1  0
 31 33  2  0
 33 34  1  0
 20 35  1  0
 35 36  1  0
 16 37  1  0
 37 38  1  0
 38 39  1  0
 39 40  1  0
 39 41  1  0
 39 42  1  0
 42 43  1  0
 42 44  1  0
 42 45  1  0
 37 46  2  0
 46 47  1  0
  8  4  1  0
 46 11  1  0
 33 22  1  0
M  CHG  3  21  -1  26   1  28  -1
M  END
>  <UniqueID>  (40) 
6

>  <SMILES>  (40) 
CCOc1cc(C(O)=C2CC2)ccc1O/C=C(\O)[N-]c1cc([N+](=O)[O-])ccc1Cl

>  <Energy>  (40) 
224.8517622841017

>  <Genealogy>  (40) 
CCOc1cc(C(=O)C2CC2)ccc1OCC(=O)[N-]c1cc([N+](=O)[O-])ccc1Cl (protonated)
CCOc1cc(C(O)=C2CC2)ccc1OC=C(O)[N-]c1cc([N+](=O)[O-])ccc1Cl (tautomer)
CCOc1cc(C(O)=C2CC2)ccc1O/C=C(\O)[N-]c1cc([N+](=O)[O-])ccc1Cl (cis-trans isomerization)
CCOc1cc(C(O)=C2CC2)ccc1O/C=C(\O)[N-]c1cc([N+](=O)[O-])ccc1Cl (3D coordinates assigned)
CCOc1cc(C(O)=C2CC2)ccc1O/C=C(\O)[N-]c1cc([N+](=O)[O-])ccc1Cl (nonaromatic ring conformer: 224.8517622841017 kcal/mol)

>  <smiles>  (40) 
CCOc1cc(C(=O)C2CC2)ccc1OCC(=O)Nc1cc([N+](=O)[O-])ccc1Cl

>  <score_type>  (40) 
oracle

>  <origin>  (40) 
autodockgpu

>  <m_score__min__energy>  (40) 
-6.4500000000000002

>  <m_primary>  (40) 
energy

>  <meeko>  (40) 
{"free_energy": -6.15, "intermolecular_energy": -9.73, "internal_energy": -2.32, "cluster_size": 8, "cluster_id": 1, "rank_in_cluster": 6}

>  <energy>  (40) 
-3.16

>  <cluster_rmsd>  (40) 
0.98

>  <rmsd>  (40) 
271.15

>  <cluster>  (40) 
10

$$$$
VUCFXBNYDUPJQC-ODLFYWEKNA-N
     RDKit          3D

 47 49  0  0  0  0  0  0  0  0999 V2000
  138.3350   79.9950  224.1560 H   0  0  0  0  0  0  0  0  0  0  0  0
  139.2950   80.3180  224.1070 O   0  0  0  0  0  0  0  0  0  0  0  0
  140.2900   79.5750  223.4690 C   0  0  0  0  0  0  0  0  0  0  0  0
  141.5220   80.0810  223.4110 C   0  0  0  0  0  0  0  0  0  0  0  0
  142.5990   81.0290  223.9340 C   0  0  0  0  0  0  0  0  0  0  0  0
  142.4881   82.1132  223.7850 H   0  0  0  0  0  0  0  0  0  0  0  0
  143.0512   81.2020  224.9217 H   0  0  0  0  0  0  0  0  0  0  0  0
  142.9290   80.1950  222.8250 C   0  0  0  0  0  0  0  0  0  0  0  0
  143.0693   80.6430  221.8302 H   0  0  0  0  0  0  0  0  0  0  0  0
  143.7345   79.4736  222.6232 H   0  0  0  0  0  0  0  0  0  0  0  0
  139.9480   78.2480  222.8860 C   0  0  0  0  0  0  0  0  0  0  0  0
  138.6140   77.8300  222.7140 C   0  0  0  0  0  0  0  0  0  0  0  0
  137.7920   78.4961  223.0152 H   0  0  0  0  0  0  0  0  0  0  0  0
  138.3240   76.5810  222.1660 C   0  0  0  0  0  0  0  0  0  0  0  0
  137.2764   76.2683  222.0449 H   0  0  0  0  0  0  0  0  0  0  0  0
  139.3600   75.7180  221.7670 C   0  0  0  0  0  0  0  0  0  0  0  0
  139.1070   74.4520  221.2150 O   0  0  0  0  0  0  0  0  0  0  0  0
  138.7260   73.3240  221.9470 C   0  0  0  0  0  0  0  0  0  0  0  0
  137.6589   73.1198  222.1191 H   0  0  0  0  0  0  0  0  0  0  0  0
  139.6510   72.4890  222.4410 C   0  0  0  0  0  0  0  0  0  0  0  0
  139.2930   71.1910  222.9390 N   0  0  0  0  0  0  0  0  0  0  0  0
  139.6430   70.6510  224.2220 C   0  0  0  0  0  0  0  0  0  0  0  0
  140.0970   71.5270  225.2170 C   0  0  0  0  0  0  0  0  0  0  0  0
  140.1760   72.6023  224.9989 H   0  0  0  0  0  0  0  0  0  0  0  0
  140.4530   71.0490  226.4910 C   0  0  0  0  0  0  0  0  0  0  0  0
  140.9380   71.9480  227.5050 N   0  0  0  0  0  0  0  0  0  0  0  0
  141.9390   72.6640  227.2960 O   0  0  0  0  0  0  0  0  0  0  0  0
  140.3060   72.0330  228.7240 O   0  0  0  0  0  0  0  0  0  0  0  0
  140.3300   69.6750  226.7590 C   0  0  0  0  0  0  0  0  0  0  0  0
  140.6169   69.2839  227.7463 H   0  0  0  0  0  0  0  0  0  0  0  0
  139.8470   68.8030  225.7830 C   0  0  0  0  0  0  0  0  0  0  0  0
  139.7440   67.7317  226.0105 H   0  0  0  0  0  0  0  0  0  0  0  0
  139.4930   69.2810  224.5180 C   0  0  0  0  0  0  0  0  0  0  0  0
  138.7930   68.1520  223.3630 Cl  0  0  0  0  0  0  0  0  0  0  0  0
  140.9990   72.8500  222.4590 O   0  0  0  0  0  0  0  0  0  0  0  0
  141.3480   73.6800  221.9960 H   0  0  0  0  0  0  0  0  0  0  0  0
  140.6940   76.1110  221.9450 C   0  0  0  0  0  0  0  0  0  0  0  0
  141.7020   75.2110  221.5540 O   0  0  0  0  0  0  0  0  0  0  0  0
  142.2620   75.1010  220.2450 C   0  0  0  0  0  0  0  0  0  0  0  0
  141.5120   74.6666  219.5677 H   0  0  0  0  0  0  0  0  0  0  0  0
  143.1520   74.4567  220.2963 H   0  0  0  0  0  0  0  0  0  0  0  0
  142.6800   76.4680  219.7160 C   0  0  0  0  0  0  0  0  0  0  0  0
  142.8858   77.1410  220.5614 H   0  0  0  0  0  0  0  0  0  0  0  0
  143.5868   76.3621  219.1024 H   0  0  0  0  0  0  0  0  0  0  0  0
  141.8690   76.8874  219.1024 H   0  0  0  0  0  0  0  0  0  0  0  0
  140.9800   77.3720  222.5040 C   0  0  0  0  0  0  0  0  0  0  0  0
  142.0277   77.6766  222.6441 H   0  0  0  0  0  0  0  0  0  0  0  0
  1  2  1  0
  2  3  1  0
  3  4  2  3
  4  5  1  0
  5  6  1  0
  5  7  1  0
  5  8  1  0
  8  9  1  0
  8 10  1  0
  3 11  1  0
 11 12  2  0
 12 13  1  0
 12 14  1  0
 14 15  1  0
 14 16  2  0
 16 17  1  0
 17 18  1  0
 18 19  1  0
 18 20  2  0
 20 21  1  0
 21 22  1  0
 22 23  2  0
 23 24  1  0
 23 25  1  0
 25 26  1  0
 26 27  2  0
 26 28  1  0
 25 29  2  0
 29 30  1  0
 29 31  1  0
 31 32  1  0
 31 33  2  0
 33 34  1  0
 20 35  1  0
 35 36  1  0
 16 37  1  0
 37 38  1  0
 38 39  1  0
 39 40  1  0
 39 41  1  0
 39 42  1  0
 42 43  1  0
 42 44  1  0
 42 45  1  0
 37 46  2  0
 46 47  1  0
  8  4  1  0
 46 11  1  0
 33 22  1  0
M  CHG  3  21  -1  26   1  28  -1
M  END
>  <UniqueID>  (41) 
7

>  <SMILES>  (41) 
CCOc1cc(C(O)=C2CC2)ccc1O/C=C(\O)[N-]c1cc([N+](=O)[O-])ccc1Cl

>  <Energy>  (41) 
226.2310573201046

>  <Genealogy>  (41) 
CCOc1cc(C(=O)C2CC2)ccc1OCC(=O)[N-]c1cc([N+](=O)[O-])ccc1Cl (protonated)
CCOc1cc(C(O)=C2CC2)ccc1OC=C(O)[N-]c1cc([N+](=O)[O-])ccc1Cl (tautomer)
CCOc1cc(C(O)=C2CC2)ccc1O/C=C(\O)[N-]c1cc([N+](=O)[O-])ccc1Cl (cis-trans isomerization)
CCOc1cc(C(O)=C2CC2)ccc1O/C=C(\O)[N-]c1cc([N+](=O)[O-])ccc1Cl (3D coordinates assigned)
CCOc1cc(C(O)=C2CC2)ccc1O/C=C(\O)[N-]c1cc([N+](=O)[O-])ccc1Cl (nonaromatic ring conformer: 226.2310573201046 kcal/mol)

>  <smiles>  (41) 
CCOc1cc(C(=O)C2CC2)ccc1OCC(=O)Nc1cc([N+](=O)[O-])ccc1Cl

>  <score_type>  (41) 
oracle

>  <origin>  (41) 
autodockgpu

>  <m_score__min__energy>  (41) 
-6.4500000000000002

>  <m_primary>  (41) 
energy

>  <meeko>  (41) 
{"free_energy": -6.43, "intermolecular_energy": -10.01, "internal_energy": -2.41, "cluster_size": 8, "cluster_id": 1, "rank_in_cluster": 3}

>  <energy>  (41) 
-6.45

>  <cluster_rmsd>  (41) 
0.0

>  <rmsd>  (41) 
271.81

>  <cluster>  (41) 
1

$$$$
VUCFXBNYDUPJQC-ODLFYWEKNA-N
     RDKit          3D

 47 49  0  0  0  0  0  0  0  0999 V2000
  146.3720   71.2150  220.0880 H   0  0  0  0  0  0  0  0  0  0  0  0
  146.4760   70.5540  219.3270 O   0  0  0  0  0  0  0  0  0  0  0  0
  145.4490   69.6820  218.9630 C   0  0  0  0  0  0  0  0  0  0  0  0
  145.7680   68.4300  218.6300 C   0  0  0  0  0  0  0  0  0  0  0  0
  145.9520   66.9600  218.9970 C   0  0  0  0  0  0  0  0  0  0  0  0
  146.7872   66.6626  219.6481 H   0  0  0  0  0  0  0  0  0  0  0  0
  145.3060   66.2020  219.4641 H   0  0  0  0  0  0  0  0  0  0  0  0
  146.2120   67.3460  217.6490 C   0  0  0  0  0  0  0  0  0  0  0  0
  147.2454   67.3435  217.2720 H   0  0  0  0  0  0  0  0  0  0  0  0
  145.8452   67.0028  216.6704 H   0  0  0  0  0  0  0  0  0  0  0  0
  144.0430   70.1690  218.9670 C   0  0  0  0  0  0  0  0  0  0  0  0
  143.6510   71.3230  218.2620 C   0  0  0  0  0  0  0  0  0  0  0  0
  144.3987   71.8893  217.6873 H   0  0  0  0  0  0  0  0  0  0  0  0
  142.3260   71.7560  218.2840 C   0  0  0  0  0  0  0  0  0  0  0  0
  142.0394   72.6626  217.7309 H   0  0  0  0  0  0  0  0  0  0  0  0
  141.3530   71.0440  219.0070 C   0  0  0  0  0  0  0  0  0  0  0  0
  140.0110   71.4510  219.0570 O   0  0  0  0  0  0  0  0  0  0  0  0
  139.4600   72.2640  220.0520 C   0  0  0  0  0  0  0  0  0  0  0  0
  138.5132   72.7912  219.8636 H   0  0  0  0  0  0  0  0  0  0  0  0
  140.0760   72.4060  221.2330 C   0  0  0  0  0  0  0  0  0  0  0  0
  140.6910   73.6480  221.6080 N   0  0  0  0  0  0  0  0  0  0  0  0
  141.8220   74.2580  220.9690 C   0  0  0  0  0  0  0  0  0  0  0  0
  143.0170   73.5320  220.8850 C   0  0  0  0  0  0  0  0  0  0  0  0
  143.0663   72.5170  221.3062 H   0  0  0  0  0  0  0  0  0  0  0  0
  144.1550   74.0840  220.2690 C   0  0  0  0  0  0  0  0  0  0  0  0
  145.3880   73.3430  220.2020 N   0  0  0  0  0  0  0  0  0  0  0  0
  145.8950   73.0490  219.0990 O   0  0  0  0  0  0  0  0  0  0  0  0
  146.0280   72.9440  221.3530 O   0  0  0  0  0  0  0  0  0  0  0  0
  144.0710   75.3740  219.7200 C   0  0  0  0  0  0  0  0  0  0  0  0
  144.9558   75.8243  219.2463 H   0  0  0  0  0  0  0  0  0  0  0  0
  142.8730   76.0890  219.7710 C   0  0  0  0  0  0  0  0  0  0  0  0
  142.8176   77.0938  219.3267 H   0  0  0  0  0  0  0  0  0  0  0  0
  141.7440   75.5380  220.3820 C   0  0  0  0  0  0  0  0  0  0  0  0
  140.2350   76.4420  220.3240 Cl  0  0  0  0  0  0  0  0  0  0  0  0
  140.1120   71.3540  222.1490 O   0  0  0  0  0  0  0  0  0  0  0  0
  140.2140   70.3870  221.8660 H   0  0  0  0  0  0  0  0  0  0  0  0
  141.7280   69.9010  219.7280 C   0  0  0  0  0  0  0  0  0  0  0  0
  140.7310   69.2270  220.4570 O   0  0  0  0  0  0  0  0  0  0  0  0
  139.9200   68.1560  219.9710 C   0  0  0  0  0  0  0  0  0  0  0  0
  139.2428   68.5406  219.1942 H   0  0  0  0  0  0  0  0  0  0  0  0
  139.3438   67.7415  220.8113 H   0  0  0  0  0  0  0  0  0  0  0  0
  140.7820   67.0490  219.3780 C   0  0  0  0  0  0  0  0  0  0  0  0
  141.2376   66.4640  220.1905 H   0  0  0  0  0  0  0  0  0  0  0  0
  140.1568   66.3900  218.7576 H   0  0  0  0  0  0  0  0  0  0  0  0
  141.5741   67.4936  218.7576 H   0  0  0  0  0  0  0  0  0  0  0  0
  143.0690   69.4710  219.7060 C   0  0  0  0  0  0  0  0  0  0  0  0
  143.3599   68.5758  220.2751 H   0  0  0  0  0  0  0  0  0  0  0  0
  1  2  1  0
  2  3  1  0
  3  4  2  3
  4  5  1  0
  5  6  1  0
  5  7  1  0
  5  8  1  0
  8  9  1  0
  8 10  1  0
  3 11  1  0
 11 12  2  0
 12 13  1  0
 12 14  1  0
 14 15  1  0
 14 16  2  0
 16 17  1  0
 17 18  1  0
 18 19  1  0
 18 20  2  0
 20 21  1  0
 21 22  1  0
 22 23  2  0
 23 24  1  0
 23 25  1  0
 25 26  1  0
 26 27  2  0
 26 28  1  0
 25 29  2  0
 29 30  1  0
 29 31  1  0
 31 32  1  0
 31 33  2  0
 33 34  1  0
 20 35  1  0
 35 36  1  0
 16 37  1  0
 37 38  1  0
 38 39  1  0
 39 40  1  0
 39 41  1  0
 39 42  1  0
 42 43  1  0
 42 44  1  0
 42 45  1  0
 37 46  2  0
 46 47  1  0
  8  4  1  0
 46 11  1  0
 33 22  1  0
M  CHG  3  21  -1  26   1  28  -1
M  END
>  <UniqueID>  (42) 
7

>  <SMILES>  (42) 
CCOc1cc(C(O)=C2CC2)ccc1O/C=C(\O)[N-]c1cc([N+](=O)[O-])ccc1Cl

>  <Energy>  (42) 
226.2310573201046

>  <Genealogy>  (42) 
CCOc1cc(C(=O)C2CC2)ccc1OCC(=O)[N-]c1cc([N+](=O)[O-])ccc1Cl (protonated)
CCOc1cc(C(O)=C2CC2)ccc1OC=C(O)[N-]c1cc([N+](=O)[O-])ccc1Cl (tautomer)
CCOc1cc(C(O)=C2CC2)ccc1O/C=C(\O)[N-]c1cc([N+](=O)[O-])ccc1Cl (cis-trans isomerization)
CCOc1cc(C(O)=C2CC2)ccc1O/C=C(\O)[N-]c1cc([N+](=O)[O-])ccc1Cl (3D coordinates assigned)
CCOc1cc(C(O)=C2CC2)ccc1O/C=C(\O)[N-]c1cc([N+](=O)[O-])ccc1Cl (nonaromatic ring conformer: 226.2310573201046 kcal/mol)

>  <smiles>  (42) 
CCOc1cc(C(=O)C2CC2)ccc1OCC(=O)Nc1cc([N+](=O)[O-])ccc1Cl

>  <score_type>  (42) 
oracle

>  <origin>  (42) 
autodockgpu

>  <m_score__min__energy>  (42) 
-6.4500000000000002

>  <m_primary>  (42) 
energy

>  <meeko>  (42) 
{"free_energy": -3.73, "intermolecular_energy": -7.31, "internal_energy": -4.48, "cluster_size": 2, "cluster_id": 6, "rank_in_cluster": 2}

>  <energy>  (42) 
-6.45

>  <cluster_rmsd>  (42) 
1.42

>  <rmsd>  (42) 
271.68

>  <cluster>  (42) 
1

$$$$
VUCFXBNYDUPJQC-ODLFYWEKNA-N
     RDKit          3D

 47 49  0  0  0  0  0  0  0  0999 V2000
  138.2740   80.1060  223.4430 H   0  0  0  0  0  0  0  0  0  0  0  0
  139.2310   80.4380  223.4160 O   0  0  0  0  0  0  0  0  0  0  0  0
  140.2990   79.5850  223.1330 C   0  0  0  0  0  0  0  0  0  0  0  0
  141.5390   80.0600  223.2490 C   0  0  0  0  0  0  0  0  0  0  0  0
  142.9920   80.1190  222.7840 C   0  0  0  0  0  0  0  0  0  0  0  0
  143.6494   79.2515  222.9429 H   0  0  0  0  0  0  0  0  0  0  0  0
  143.4780   80.3218  221.8183 H   0  0  0  0  0  0  0  0  0  0  0  0
  142.6160   80.9310  223.8940 C   0  0  0  0  0  0  0  0  0  0  0  0
  142.9862   80.6828  224.8997 H   0  0  0  0  0  0  0  0  0  0  0  0
  142.6983   82.0045  224.1192 H   0  0  0  0  0  0  0  0  0  0  0  0
  140.0210   78.1810  222.7220 C   0  0  0  0  0  0  0  0  0  0  0  0
  138.7450   77.6020  222.8600 C   0  0  0  0  0  0  0  0  0  0  0  0
  137.9208   78.1956  223.2823 H   0  0  0  0  0  0  0  0  0  0  0  0
  138.5150   76.2840  222.4670 C   0  0  0  0  0  0  0  0  0  0  0  0
  137.5132   75.8461  222.5877 H   0  0  0  0  0  0  0  0  0  0  0  0
  139.5520   75.5100  221.9180 C   0  0  0  0  0  0  0  0  0  0  0  0
  139.3600   74.1800  221.5150 O   0  0  0  0  0  0  0  0  0  0  0  0
  139.5020   73.0650  222.3460 C   0  0  0  0  0  0  0  0  0  0  0  0
  138.8301   72.9372  223.2075 H   0  0  0  0  0  0  0  0  0  0  0  0
  140.4510   72.1500  222.1010 C   0  0  0  0  0  0  0  0  0  0  0  0
  140.3980   70.8450  222.6960 N   0  0  0  0  0  0  0  0  0  0  0  0
  140.1190   70.5540  224.0730 C   0  0  0  0  0  0  0  0  0  0  0  0
  140.7730   71.3000  225.0620 C   0  0  0  0  0  0  0  0  0  0  0  0
  141.4817   72.0882  224.7679 H   0  0  0  0  0  0  0  0  0  0  0  0
  140.5350   71.0540  226.4270 C   0  0  0  0  0  0  0  0  0  0  0  0
  141.2230   71.8100  227.4410 N   0  0  0  0  0  0  0  0  0  0  0  0
  141.5320   73.0040  227.2460 O   0  0  0  0  0  0  0  0  0  0  0  0
  141.5550   71.2270  228.6420 O   0  0  0  0  0  0  0  0  0  0  0  0
  139.6140   70.0570  226.7860 C   0  0  0  0  0  0  0  0  0  0  0  0
  139.4267   69.8446  227.8489 H   0  0  0  0  0  0  0  0  0  0  0  0
  138.9340   69.3330  225.8050 C   0  0  0  0  0  0  0  0  0  0  0  0
  138.2061   68.5630  226.1003 H   0  0  0  0  0  0  0  0  0  0  0  0
  139.1720   69.5800  224.4500 C   0  0  0  0  0  0  0  0  0  0  0  0
  138.2110   68.7100  223.2600 Cl  0  0  0  0  0  0  0  0  0  0  0  0
  141.5060   72.4340  221.2340 O   0  0  0  0  0  0  0  0  0  0  0  0
  141.5820   73.3120  220.7340 H   0  0  0  0  0  0  0  0  0  0  0  0
  140.8330   76.0650  221.7870 C   0  0  0  0  0  0  0  0  0  0  0  0
  141.8500   75.2530  221.2530 O   0  0  0  0  0  0  0  0  0  0  0  0
  142.3410   75.3000  219.9130 C   0  0  0  0  0  0  0  0  0  0  0  0
  141.5167   75.0783  219.2191 H   0  0  0  0  0  0  0  0  0  0  0  0
  143.1434   74.5553  219.8057 H   0  0  0  0  0  0  0  0  0  0  0  0
  142.9080   76.6780  219.5910 C   0  0  0  0  0  0  0  0  0  0  0  0
  143.1277   77.2120  220.5273 H   0  0  0  0  0  0  0  0  0  0  0  0
  143.8333   76.5664  219.0067 H   0  0  0  0  0  0  0  0  0  0  0  0
  142.1721   77.2499  219.0067 H   0  0  0  0  0  0  0  0  0  0  0  0
  141.0600   77.3960  222.1910 C   0  0  0  0  0  0  0  0  0  0  0  0
  142.0665   77.8280  222.0893 H   0  0  0  0  0  0  0  0  0  0  0  0
  1  2  1  0
  2  3  1  0
  3  4  2  3
  4  5  1  0
  5  6  1  0
  5  7  1  0
  5  8  1  0
  8  9  1  0
  8 10  1  0
  3 11  1  0
 11 12  2  0
 12 13  1  0
 12 14  1  0
 14 15  1  0
 14 16  2  0
 16 17  1  0
 17 18  1  0
 18 19  1  0
 18 20  2  0
 20 21  1  0
 21 22  1  0
 22 23  2  0
 23 24  1  0
 23 25  1  0
 25 26  1  0
 26 27  2  0
 26 28  1  0
 25 29  2  0
 29 30  1  0
 29 31  1  0
 31 32  1  0
 31 33  2  0
 33 34  1  0
 20 35  1  0
 35 36  1  0
 16 37  1  0
 37 38  1  0
 38 39  1  0
 39 40  1  0
 39 41  1  0
 39 42  1  0
 42 43  1  0
 42 44  1  0
 42 45  1  0
 37 46  2  0
 46 47  1  0
  8  4  1  0
 46 11  1  0
 33 22  1  0
M  CHG  3  21  -1  26   1  28  -1
M  END
>  <UniqueID>  (43) 
7

>  <SMILES>  (43) 
CCOc1cc(C(O)=C2CC2)ccc1O/C=C(\O)[N-]c1cc([N+](=O)[O-])ccc1Cl

>  <Energy>  (43) 
226.2310573201046

>  <Genealogy>  (43) 
CCOc1cc(C(=O)C2CC2)ccc1OCC(=O)[N-]c1cc([N+](=O)[O-])ccc1Cl (protonated)
CCOc1cc(C(O)=C2CC2)ccc1OC=C(O)[N-]c1cc([N+](=O)[O-])ccc1Cl (tautomer)
CCOc1cc(C(O)=C2CC2)ccc1O/C=C(\O)[N-]c1cc([N+](=O)[O-])ccc1Cl (cis-trans isomerization)
CCOc1cc(C(O)=C2CC2)ccc1O/C=C(\O)[N-]c1cc([N+](=O)[O-])ccc1Cl (3D coordinates assigned)
CCOc1cc(C(O)=C2CC2)ccc1O/C=C(\O)[N-]c1cc([N+](=O)[O-])ccc1Cl (nonaromatic ring conformer: 226.2310573201046 kcal/mol)

>  <smiles>  (43) 
CCOc1cc(C(=O)C2CC2)ccc1OCC(=O)Nc1cc([N+](=O)[O-])ccc1Cl

>  <score_type>  (43) 
oracle

>  <origin>  (43) 
autodockgpu

>  <m_score__min__energy>  (43) 
-6.4500000000000002

>  <m_primary>  (43) 
energy

>  <meeko>  (43) 
{"free_energy": -5.85, "intermolecular_energy": -9.42, "internal_energy": -2.21, "cluster_size": 8, "cluster_id": 1, "rank_in_cluster": 7}

>  <energy>  (43) 
-6.43

>  <cluster_rmsd>  (43) 
0.38

>  <rmsd>  (43) 
271.84

>  <cluster>  (43) 
1

$$$$
VUCFXBNYDUPJQC-ODLFYWEKNA-N
     RDKit          3D

 47 49  0  0  0  0  0  0  0  0999 V2000
  142.1810   81.7780  221.8430 H   0  0  0  0  0  0  0  0  0  0  0  0
  141.5860   82.2390  221.1640 O   0  0  0  0  0  0  0  0  0  0  0  0
  141.4450   81.7580  219.8610 C   0  0  0  0  0  0  0  0  0  0  0  0
  141.6590   82.5990  218.8480 C   0  0  0  0  0  0  0  0  0  0  0  0
  142.4330   83.0090  217.5980 C   0  0  0  0  0  0  0  0  0  0  0  0
  143.4714   83.3594  217.6921 H   0  0  0  0  0  0  0  0  0  0  0  0
  142.6792   82.5050  216.6518 H   0  0  0  0  0  0  0  0  0  0  0  0
  141.3640   83.8510  218.0230 C   0  0  0  0  0  0  0  0  0  0  0  0
  141.5867   84.8435  218.4418 H   0  0  0  0  0  0  0  0  0  0  0  0
  140.4634   84.2502  217.5335 H   0  0  0  0  0  0  0  0  0  0  0  0
  141.0730   80.3330  219.6460 C   0  0  0  0  0  0  0  0  0  0  0  0
  139.7330   79.9240  219.5140 C   0  0  0  0  0  0  0  0  0  0  0  0
  138.9282   80.6718  219.5692 H   0  0  0  0  0  0  0  0  0  0  0  0
  139.4140   78.5810  219.3140 C   0  0  0  0  0  0  0  0  0  0  0  0
  138.3605   78.2791  219.2188 H   0  0  0  0  0  0  0  0  0  0  0  0
  140.4270   77.6100  219.2330 C   0  0  0  0  0  0  0  0  0  0  0  0
  140.1460   76.2500  219.0370 O   0  0  0  0  0  0  0  0  0  0  0  0
  140.0830   75.2920  220.0540 C   0  0  0  0  0  0  0  0  0  0  0  0
  139.3979   74.4368  219.9573 H   0  0  0  0  0  0  0  0  0  0  0  0
  140.8520   75.4090  221.1460 C   0  0  0  0  0  0  0  0  0  0  0  0
  140.3320   75.9580  222.3660 N   0  0  0  0  0  0  0  0  0  0  0  0
  140.1140   77.3490  222.6420 C   0  0  0  0  0  0  0  0  0  0  0  0
  141.2280   78.1880  222.7800 C   0  0  0  0  0  0  0  0  0  0  0  0
  142.2396   77.7690  222.6750 H   0  0  0  0  0  0  0  0  0  0  0  0
  141.0690   79.5590  223.0510 C   0  0  0  0  0  0  0  0  0  0  0  0
  142.2160   80.4150  223.2130 N   0  0  0  0  0  0  0  0  0  0  0  0
  143.3020   80.1350  222.6640 O   0  0  0  0  0  0  0  0  0  0  0  0
  142.1350   81.5560  223.9770 O   0  0  0  0  0  0  0  0  0  0  0  0
  139.7710   80.0830  223.1630 C   0  0  0  0  0  0  0  0  0  0  0  0
  139.6309   81.1509  223.3864 H   0  0  0  0  0  0  0  0  0  0  0  0
  138.6570   79.2590  222.9930 C   0  0  0  0  0  0  0  0  0  0  0  0
  137.6458   79.6848  223.0721 H   0  0  0  0  0  0  0  0  0  0  0  0
  138.8170   77.8970  222.7230 C   0  0  0  0  0  0  0  0  0  0  0  0
  137.3800   76.9290  222.4150 Cl  0  0  0  0  0  0  0  0  0  0  0  0
  142.1760   74.9710  221.1340 O   0  0  0  0  0  0  0  0  0  0  0  0
  142.9550   75.5890  220.9440 H   0  0  0  0  0  0  0  0  0  0  0  0
  141.7670   77.9970  219.3780 C   0  0  0  0  0  0  0  0  0  0  0  0
  142.7520   76.9940  219.3120 O   0  0  0  0  0  0  0  0  0  0  0  0
  143.2740   76.4120  218.1180 C   0  0  0  0  0  0  0  0  0  0  0  0
  142.8288   75.4159  217.9783 H   0  0  0  0  0  0  0  0  0  0  0  0
  144.3671   76.3340  218.2135 H   0  0  0  0  0  0  0  0  0  0  0  0
  142.9510   77.2780  216.9050 C   0  0  0  0  0  0  0  0  0  0  0  0
  142.5851   78.2591  217.2419 H   0  0  0  0  0  0  0  0  0  0  0  0
  143.8590   77.4136  216.2991 H   0  0  0  0  0  0  0  0  0  0  0  0
  142.1760   76.7859  216.2991 H   0  0  0  0  0  0  0  0  0  0  0  0
  142.0830   79.3550  219.5850 C   0  0  0  0  0  0  0  0  0  0  0  0
  143.1350   79.6548  219.7006 H   0  0  0  0  0  0  0  0  0  0  0  0
  1  2  1  0
  2  3  1  0
  3  4  2  3
  4  5  1  0
  5  6  1  0
  5  7  1  0
  5  8  1  0
  8  9  1  0
  8 10  1  0
  3 11  1  0
 11 12  2  0
 12 13  1  0
 12 14  1  0
 14 15  1  0
 14 16  2  0
 16 17  1  0
 17 18  1  0
 18 19  1  0
 18 20  2  0
 20 21  1  0
 21 22  1  0
 22 23  2  0
 23 24  1  0
 23 25  1  0
 25 26  1  0
 26 27  2  0
 26 28  1  0
 25 29  2  0
 29 30  1  0
 29 31  1  0
 31 32  1  0
 31 33  2  0
 33 34  1  0
 20 35  1  0
 35 36  1  0
 16 37  1  0
 37 38  1  0
 38 39  1  0
 39 40  1  0
 39 41  1  0
 39 42  1  0
 42 43  1  0
 42 44  1  0
 42 45  1  0
 37 46  2  0
 46 47  1  0
  8  4  1  0
 46 11  1  0
 33 22  1  0
M  CHG  3  21  -1  26   1  28  -1
M  END
>  <UniqueID>  (44) 
7

>  <SMILES>  (44) 
CCOc1cc(C(O)=C2CC2)ccc1O/C=C(\O)[N-]c1cc([N+](=O)[O-])ccc1Cl

>  <Energy>  (44) 
226.2310573201046

>  <Genealogy>  (44) 
CCOc1cc(C(=O)C2CC2)ccc1OCC(=O)[N-]c1cc([N+](=O)[O-])ccc1Cl (protonated)
CCOc1cc(C(O)=C2CC2)ccc1OC=C(O)[N-]c1cc([N+](=O)[O-])ccc1Cl (tautomer)
CCOc1cc(C(O)=C2CC2)ccc1O/C=C(\O)[N-]c1cc([N+](=O)[O-])ccc1Cl (cis-trans isomerization)
CCOc1cc(C(O)=C2CC2)ccc1O/C=C(\O)[N-]c1cc([N+](=O)[O-])ccc1Cl (3D coordinates assigned)
CCOc1cc(C(O)=C2CC2)ccc1O/C=C(\O)[N-]c1cc([N+](=O)[O-])ccc1Cl (nonaromatic ring conformer: 226.2310573201046 kcal/mol)

>  <smiles>  (44) 
CCOc1cc(C(=O)C2CC2)ccc1OCC(=O)Nc1cc([N+](=O)[O-])ccc1Cl

>  <score_type>  (44) 
oracle

>  <origin>  (44) 
autodockgpu

>  <m_score__min__energy>  (44) 
-6.4500000000000002

>  <m_primary>  (44) 
energy

>  <meeko>  (44) 
{"free_energy": -3.16, "intermolecular_energy": -6.73, "internal_energy": -4.83, "cluster_size": 2, "cluster_id": 10, "rank_in_cluster": 2}

>  <energy>  (44) 
-6.35

>  <cluster_rmsd>  (44) 
0.42

>  <rmsd>  (44) 
271.69

>  <cluster>  (44) 
1

$$$$
VUCFXBNYDUPJQC-ODLFYWEKNA-N
     RDKit          3D

 47 49  0  0  0  0  0  0  0  0999 V2000
  146.2130   74.0330  218.6390 H   0  0  0  0  0  0  0  0  0  0  0  0
  146.1970   73.0280  218.5080 O   0  0  0  0  0  0  0  0  0  0  0  0
  145.2700   72.2150  219.1620 C   0  0  0  0  0  0  0  0  0  0  0  0
  145.4480   70.8940  219.1280 C   0  0  0  0  0  0  0  0  0  0  0  0
  144.9020   69.4730  219.2380 C   0  0  0  0  0  0  0  0  0  0  0  0
  144.5866   69.0861  220.2182 H   0  0  0  0  0  0  0  0  0  0  0  0
  144.0797   68.9301  218.7490 H   0  0  0  0  0  0  0  0  0  0  0  0
  146.2920   69.6310  218.9560 C   0  0  0  0  0  0  0  0  0  0  0  0
  147.0362   69.3654  219.7213 H   0  0  0  0  0  0  0  0  0  0  0  0
  146.9599   69.2584  218.1653 H   0  0  0  0  0  0  0  0  0  0  0  0
  144.1250   72.8440  219.8770 C   0  0  0  0  0  0  0  0  0  0  0  0
  144.0480   74.2350  220.0840 C   0  0  0  0  0  0  0  0  0  0  0  0
  144.8519   74.8860  219.7098 H   0  0  0  0  0  0  0  0  0  0  0  0
  142.9640   74.7960  220.7580 C   0  0  0  0  0  0  0  0  0  0  0  0
  142.9233   75.8839  220.9156 H   0  0  0  0  0  0  0  0  0  0  0  0
  141.9220   73.9820  221.2380 C   0  0  0  0  0  0  0  0  0  0  0  0
  140.8170   74.5090  221.9240 O   0  0  0  0  0  0  0  0  0  0  0  0
  140.3190   75.8050  221.7580 C   0  0  0  0  0  0  0  0  0  0  0  0
  140.9876   76.6069  221.4117 H   0  0  0  0  0  0  0  0  0  0  0  0
  139.0320   76.0770  222.0180 C   0  0  0  0  0  0  0  0  0  0  0  0
  138.5070   77.4050  221.8690 N   0  0  0  0  0  0  0  0  0  0  0  0
  138.9690   78.5790  222.5540 C   0  0  0  0  0  0  0  0  0  0  0  0
  140.3410   78.8620  222.5480 C   0  0  0  0  0  0  0  0  0  0  0  0
  141.0327   78.1867  222.0230 H   0  0  0  0  0  0  0  0  0  0  0  0
  140.8450   79.9990  223.2050 C   0  0  0  0  0  0  0  0  0  0  0  0
  142.2580   80.2780  223.2140 N   0  0  0  0  0  0  0  0  0  0  0  0
  142.8750   80.4020  224.2930 O   0  0  0  0  0  0  0  0  0  0  0  0
  142.9520   80.4130  222.0340 O   0  0  0  0  0  0  0  0  0  0  0  0
  139.9470   80.8620  223.8540 C   0  0  0  0  0  0  0  0  0  0  0  0
  140.3274   81.7491  224.3815 H   0  0  0  0  0  0  0  0  0  0  0  0
  138.5760   80.6030  223.8350 C   0  0  0  0  0  0  0  0  0  0  0  0
  137.8829   81.2931  224.3384 H   0  0  0  0  0  0  0  0  0  0  0  0
  138.0770   79.4730  223.1810 C   0  0  0  0  0  0  0  0  0  0  0  0
  136.3330   79.2540  223.1000 Cl  0  0  0  0  0  0  0  0  0  0  0  0
  138.1570   75.0660  222.4140 O   0  0  0  0  0  0  0  0  0  0  0  0
  138.4770   74.1790  222.7840 H   0  0  0  0  0  0  0  0  0  0  0  0
  141.9890   72.5940  221.0540 C   0  0  0  0  0  0  0  0  0  0  0  0
  140.9380   71.8110  221.5660 O   0  0  0  0  0  0  0  0  0  0  0  0
  140.5630   71.7130  222.9400 C   0  0  0  0  0  0  0  0  0  0  0  0
  140.8252   72.6501  223.4530 H   0  0  0  0  0  0  0  0  0  0  0  0
  141.0993   70.8656  223.3919 H   0  0  0  0  0  0  0  0  0  0  0  0
  139.0640   71.4710  223.0770 C   0  0  0  0  0  0  0  0  0  0  0  0
  138.7955   71.4277  224.1428 H   0  0  0  0  0  0  0  0  0  0  0  0
  138.5143   72.2920  222.5935 H   0  0  0  0  0  0  0  0  0  0  0  0
  138.8006   70.5187  222.5935 H   0  0  0  0  0  0  0  0  0  0  0  0
  143.0900   72.0330  220.3760 C   0  0  0  0  0  0  0  0  0  0  0  0
  143.1406   70.9433  220.2349 H   0  0  0  0  0  0  0  0  0  0  0  0
  1  2  1  0
  2  3  1  0
  3  4  2  3
  4  5  1  0
  5  6  1  0
  5  7  1  0
  5  8  1  0
  8  9  1  0
  8 10  1  0
  3 11  1  0
 11 12  2  0
 12 13  1  0
 12 14  1  0
 14 15  1  0
 14 16  2  0
 16 17  1  0
 17 18  1  0
 18 19  1  0
 18 20  2  0
 20 21  1  0
 21 22  1  0
 22 23  2  0
 23 24  1  0
 23 25  1  0
 25 26  1  0
 26 27  2  0
 26 28  1  0
 25 29  2  0
 29 30  1  0
 29 31  1  0
 31 32  1  0
 31 33  2  0
 33 34  1  0
 20 35  1  0
 35 36  1  0
 16 37  1  0
 37 38  1  0
 38 39  1  0
 39 40  1  0
 39 41  1  0
 39 42  1  0
 42 43  1  0
 42 44  1  0
 42 45  1  0
 37 46  2  0
 46 47  1  0
  8  4  1  0
 46 11  1  0
 33 22  1  0
M  CHG  3  21  -1  26   1  28  -1
M  END
>  <UniqueID>  (45) 
7

>  <SMILES>  (45) 
CCOc1cc(C(O)=C2CC2)ccc1O/C=C(\O)[N-]c1cc([N+](=O)[O-])ccc1Cl

>  <Energy>  (45) 
226.2310573201046

>  <Genealogy>  (45) 
CCOc1cc(C(=O)C2CC2)ccc1OCC(=O)[N-]c1cc([N+](=O)[O-])ccc1Cl (protonated)
CCOc1cc(C(O)=C2CC2)ccc1OC=C(O)[N-]c1cc([N+](=O)[O-])ccc1Cl (tautomer)
CCOc1cc(C(O)=C2CC2)ccc1O/C=C(\O)[N-]c1cc([N+](=O)[O-])ccc1Cl (cis-trans isomerization)
CCOc1cc(C(O)=C2CC2)ccc1O/C=C(\O)[N-]c1cc([N+](=O)[O-])ccc1Cl (3D coordinates assigned)
CCOc1cc(C(O)=C2CC2)ccc1O/C=C(\O)[N-]c1cc([N+](=O)[O-])ccc1Cl (nonaromatic ring conformer: 226.2310573201046 kcal/mol)

>  <smiles>  (45) 
CCOc1cc(C(=O)C2CC2)ccc1OCC(=O)Nc1cc([N+](=O)[O-])ccc1Cl

>  <score_type>  (45) 
oracle

>  <origin>  (45) 
autodockgpu

>  <m_score__min__energy>  (45) 
-6.4500000000000002

>  <m_primary>  (45) 
energy

>  <meeko>  (45) 
{"free_energy": -6.04, "intermolecular_energy": -9.62, "internal_energy": -1.5, "cluster_size": 1, "cluster_id": 2, "rank_in_cluster": 1}

>  <energy>  (45) 
-6.31

>  <cluster_rmsd>  (45) 
0.32

>  <rmsd>  (45) 
271.79

>  <cluster>  (45) 
1

$$$$
VUCFXBNYDUPJQC-ODLFYWEKNA-N
     RDKit          3D

 47 49  0  0  0  0  0  0  0  0999 V2000
  141.5160   80.4660  219.7950 H   0  0  0  0  0  0  0  0  0  0  0  0
  141.4510   80.9410  220.6880 O   0  0  0  0  0  0  0  0  0  0  0  0
  141.3840   80.2390  221.8930 C   0  0  0  0  0  0  0  0  0  0  0  0
  142.0900   80.6910  222.9310 C   0  0  0  0  0  0  0  0  0  0  0  0
  142.2490   81.6230  224.1290 C   0  0  0  0  0  0  0  0  0  0  0  0
  142.4008   82.6999  223.9638 H   0  0  0  0  0  0  0  0  0  0  0  0
  141.6375   81.8365  225.0181 H   0  0  0  0  0  0  0  0  0  0  0  0
  143.3090   80.7110  223.8510 C   0  0  0  0  0  0  0  0  0  0  0  0
  144.2694   81.0919  223.4734 H   0  0  0  0  0  0  0  0  0  0  0  0
  143.8347   79.9460  224.4413 H   0  0  0  0  0  0  0  0  0  0  0  0
  140.5270   79.0250  221.9820 C   0  0  0  0  0  0  0  0  0  0  0  0
  140.9740   77.8400  222.5970 C   0  0  0  0  0  0  0  0  0  0  0  0
  141.9849   77.7995  223.0288 H   0  0  0  0  0  0  0  0  0  0  0  0
  140.1500   76.7170  222.6650 C   0  0  0  0  0  0  0  0  0  0  0  0
  140.5187   75.7976  223.1433 H   0  0  0  0  0  0  0  0  0  0  0  0
  138.8520   76.7510  222.1270 C   0  0  0  0  0  0  0  0  0  0  0  0
  137.9940   75.6410  222.1730 O   0  0  0  0  0  0  0  0  0  0  0  0
  138.2410   74.4150  221.5470 C   0  0  0  0  0  0  0  0  0  0  0  0
  137.4026   73.8328  221.1369 H   0  0  0  0  0  0  0  0  0  0  0  0
  139.4920   73.9440  221.4430 C   0  0  0  0  0  0  0  0  0  0  0  0
  140.2160   74.0230  220.2060 N   0  0  0  0  0  0  0  0  0  0  0  0
  141.2870   74.9320  219.9100 C   0  0  0  0  0  0  0  0  0  0  0  0
  140.9690   76.2480  219.5490 C   0  0  0  0  0  0  0  0  0  0  0  0
  139.9146   76.5578  219.5004 H   0  0  0  0  0  0  0  0  0  0  0  0
  141.9800   77.1780  219.2480 C   0  0  0  0  0  0  0  0  0  0  0  0
  141.6490   78.5240  218.8580 N   0  0  0  0  0  0  0  0  0  0  0  0
  140.4580   78.8880  218.7720 O   0  0  0  0  0  0  0  0  0  0  0  0
  142.6420   79.4330  218.5710 O   0  0  0  0  0  0  0  0  0  0  0  0
  143.3220   76.7730  219.3330 C   0  0  0  0  0  0  0  0  0  0  0  0
  144.1238   77.4854  219.0889 H   0  0  0  0  0  0  0  0  0  0  0  0
  143.6460   75.4730  219.7250 C   0  0  0  0  0  0  0  0  0  0  0  0
  144.7015   75.1724  219.7993 H   0  0  0  0  0  0  0  0  0  0  0  0
  142.6390   74.5500  220.0240 C   0  0  0  0  0  0  0  0  0  0  0  0
  143.1090   72.9600  220.6120 Cl  0  0  0  0  0  0  0  0  0  0  0  0
  140.1380   73.3890  222.5480 O   0  0  0  0  0  0  0  0  0  0  0  0
  139.7200   73.3640  223.4700 H   0  0  0  0  0  0  0  0  0  0  0  0
  138.3950   77.9180  221.4970 C   0  0  0  0  0  0  0  0  0  0  0  0
  137.0980   77.9050  220.9520 O   0  0  0  0  0  0  0  0  0  0  0  0
  136.7760   77.8750  219.5610 C   0  0  0  0  0  0  0  0  0  0  0  0
  136.8405   78.8949  219.1540 H   0  0  0  0  0  0  0  0  0  0  0  0
  135.7563   77.4794  219.4439 H   0  0  0  0  0  0  0  0  0  0  0  0
  137.7400   76.9720  218.8010 C   0  0  0  0  0  0  0  0  0  0  0  0
  138.3494   76.4011  219.5170 H   0  0  0  0  0  0  0  0  0  0  0  0
  137.1692   76.2760  218.1687 H   0  0  0  0  0  0  0  0  0  0  0  0
  138.3972   77.5870  218.1687 H   0  0  0  0  0  0  0  0  0  0  0  0
  139.2350   79.0470  221.4270 C   0  0  0  0  0  0  0  0  0  0  0  0
  138.8746   79.9600  220.9305 H   0  0  0  0  0  0  0  0  0  0  0  0
  1  2  1  0
  2  3  1  0
  3  4  2  3
  4  5  1  0
  5  6  1  0
  5  7  1  0
  5  8  1  0
  8  9  1  0
  8 10  1  0
  3 11  1  0
 11 12  2  0
 12 13  1  0
 12 14  1  0
 14 15  1  0
 14 16  2  0
 16 17  1  0
 17 18  1  0
 18 19  1  0
 18 20  2  0
 20 21  1  0
 21 22  1  0
 22 23  2  0
 23 24  1  0
 23 25  1  0
 25 26  1  0
 26 27  2  0
 26 28  1  0
 25 29  2  0
 29 30  1  0
 29 31  1  0
 31 32  1  0
 31 33  2  0
 33 34  1  0
 20 35  1  0
 35 36  1  0
 16 37  1  0
 37 38  1  0
 38 39  1  0
 39 40  1  0
 39 41  1  0
 39 42  1  0
 42 43  1  0
 42 44  1  0
 42 45  1  0
 37 46  2  0
 46 47  1  0
  8  4  1  0
 46 11  1  0
 33 22  1  0
M  CHG  3  21  -1  26   1  28  -1
M  END
>  <UniqueID>  (46) 
7

>  <SMILES>  (46) 
CCOc1cc(C(O)=C2CC2)ccc1O/C=C(\O)[N-]c1cc([N+](=O)[O-])ccc1Cl

>  <Energy>  (46) 
226.2310573201046

>  <Genealogy>  (46) 
CCOc1cc(C(=O)C2CC2)ccc1OCC(=O)[N-]c1cc([N+](=O)[O-])ccc1Cl (protonated)
CCOc1cc(C(O)=C2CC2)ccc1OC=C(O)[N-]c1cc([N+](=O)[O-])ccc1Cl (tautomer)
CCOc1cc(C(O)=C2CC2)ccc1O/C=C(\O)[N-]c1cc([N+](=O)[O-])ccc1Cl (cis-trans isomerization)
CCOc1cc(C(O)=C2CC2)ccc1O/C=C(\O)[N-]c1cc([N+](=O)[O-])ccc1Cl (3D coordinates assigned)
CCOc1cc(C(O)=C2CC2)ccc1O/C=C(\O)[N-]c1cc([N+](=O)[O-])ccc1Cl (nonaromatic ring conformer: 226.2310573201046 kcal/mol)

>  <smiles>  (46) 
CCOc1cc(C(=O)C2CC2)ccc1OCC(=O)Nc1cc([N+](=O)[O-])ccc1Cl

>  <score_type>  (46) 
oracle

>  <origin>  (46) 
autodockgpu

>  <m_score__min__energy>  (46) 
-6.4500000000000002

>  <m_primary>  (46) 
energy

>  <meeko>  (46) 
{"free_energy": -3.55, "intermolecular_energy": -7.13, "internal_energy": -4.18, "cluster_size": 1, "cluster_id": 8, "rank_in_cluster": 1}

>  <energy>  (46) 
-6.15

>  <cluster_rmsd>  (46) 
0.27

>  <rmsd>  (46) 
271.7

>  <cluster>  (46) 
1

$$$$
VUCFXBNYDUPJQC-ODLFYWEKNA-N
     RDKit          3D

 47 49  0  0  0  0  0  0  0  0999 V2000
  145.8720   71.5250  220.5300 H   0  0  0  0  0  0  0  0  0  0  0  0
  145.5510   71.0730  219.6810 O   0  0  0  0  0  0  0  0  0  0  0  0
  144.3790   70.3160  219.6470 C   0  0  0  0  0  0  0  0  0  0  0  0
  144.4820   68.9910  219.5350 C   0  0  0  0  0  0  0  0  0  0  0  0
  143.8480   67.6190  219.3210 C   0  0  0  0  0  0  0  0  0  0  0  0
  143.2108   67.1860  220.1062 H   0  0  0  0  0  0  0  0  0  0  0  0
  143.1978   67.1901  218.5443 H   0  0  0  0  0  0  0  0  0  0  0  0
  145.2610   67.6760  219.5110 C   0  0  0  0  0  0  0  0  0  0  0  0
  145.7011   67.2872  220.4411 H   0  0  0  0  0  0  0  0  0  0  0  0
  146.1257   67.3090  218.9386 H   0  0  0  0  0  0  0  0  0  0  0  0
  143.0630   71.0060  219.7420 C   0  0  0  0  0  0  0  0  0  0  0  0
  142.2600   71.2400  218.6100 C   0  0  0  0  0  0  0  0  0  0  0  0
  142.6053   70.9075  217.6199 H   0  0  0  0  0  0  0  0  0  0  0  0
  141.0310   71.8890  218.7300 C   0  0  0  0  0  0  0  0  0  0  0  0
  140.4187   72.0680  217.8339 H   0  0  0  0  0  0  0  0  0  0  0  0
  140.5690   72.3160  219.9870 C   0  0  0  0  0  0  0  0  0  0  0  0
  139.3400   72.9760  220.1470 O   0  0  0  0  0  0  0  0  0  0  0  0
  139.1910   74.3560  220.3140 C   0  0  0  0  0  0  0  0  0  0  0  0
  138.4229   74.8954  219.7403 H   0  0  0  0  0  0  0  0  0  0  0  0
  139.9770   75.0270  221.1680 C   0  0  0  0  0  0  0  0  0  0  0  0
  141.1100   75.7760  220.7060 N   0  0  0  0  0  0  0  0  0  0  0  0
  142.1680   75.2810  219.8710 C   0  0  0  0  0  0  0  0  0  0  0  0
  143.2890   74.7050  220.4810 C   0  0  0  0  0  0  0  0  0  0  0  0
  143.3384   74.6426  221.5781 H   0  0  0  0  0  0  0  0  0  0  0  0
  144.3530   74.2050  219.7080 C   0  0  0  0  0  0  0  0  0  0  0  0
  145.5140   73.6310  220.3380 N   0  0  0  0  0  0  0  0  0  0  0  0
  145.5150   73.3770  221.5610 O   0  0  0  0  0  0  0  0  0  0  0  0
  146.6430   73.3530  219.6030 O   0  0  0  0  0  0  0  0  0  0  0  0
  144.2670   74.2750  218.3080 C   0  0  0  0  0  0  0  0  0  0  0  0
  145.0962   73.8992  217.6907 H   0  0  0  0  0  0  0  0  0  0  0  0
  143.1370   74.8180  217.6940 C   0  0  0  0  0  0  0  0  0  0  0  0
  143.0777   74.8567  216.5963 H   0  0  0  0  0  0  0  0  0  0  0  0
  142.0800   75.3130  218.4640 C   0  0  0  0  0  0  0  0  0  0  0  0
  140.6390   75.8900  217.6360 Cl  0  0  0  0  0  0  0  0  0  0  0  0
  139.6950   75.0380  222.5340 O   0  0  0  0  0  0  0  0  0  0  0  0
  139.5660   74.1900  223.0730 H   0  0  0  0  0  0  0  0  0  0  0  0
  141.3620   72.1050  221.1230 C   0  0  0  0  0  0  0  0  0  0  0  0
  140.8750   72.5660  222.3600 O   0  0  0  0  0  0  0  0  0  0  0  0
  139.9350   71.8870  223.1940 C   0  0  0  0  0  0  0  0  0  0  0  0
  139.0306   72.5049  223.2950 H   0  0  0  0  0  0  0  0  0  0  0  0
  140.3956   71.7177  224.1785 H   0  0  0  0  0  0  0  0  0  0  0  0
  139.5540   70.5380  222.5950 C   0  0  0  0  0  0  0  0  0  0  0  0
  139.3516   69.8213  223.4046 H   0  0  0  0  0  0  0  0  0  0  0  0
  138.6534   70.6537  221.9741 H   0  0  0  0  0  0  0  0  0  0  0  0
  140.3821   70.1655  221.9741 H   0  0  0  0  0  0  0  0  0  0  0  0
  142.6050   71.4530  220.9950 C   0  0  0  0  0  0  0  0  0  0  0  0
  143.2264   71.2912  221.8881 H   0  0  0  0  0  0  0  0  0  0  0  0
  1  2  1  0
  2  3  1  0
  3  4  2  3
  4  5  1  0
  5  6  1  0
  5  7  1  0
  5  8  1  0
  8  9  1  0
  8 10  1  0
  3 11  1  0
 11 12  2  0
 12 13  1  0
 12 14  1  0
 14 15  1  0
 14 16  2  0
 16 17  1  0
 17 18  1  0
 18 19  1  0
 18 20  2  0
 20 21  1  0
 21 22  1  0
 22 23  2  0
 23 24  1  0
 23 25  1  0
 25 26  1  0
 26 27  2  0
 26 28  1  0
 25 29  2  0
 29 30  1  0
 29 31  1  0
 31 32  1  0
 31 33  2  0
 33 34  1  0
 20 35  1  0
 35 36  1  0
 16 37  1  0
 37 38  1  0
 38 39  1  0
 39 40  1  0
 39 41  1  0
 39 42  1  0
 42 43  1  0
 42 44  1  0
 42 45  1  0
 37 46  2  0
 46 47  1  0
  8  4  1  0
 46 11  1  0
 33 22  1  0
M  CHG  3  21  -1  26   1  28  -1
M  END
>  <UniqueID>  (47) 
7

>  <SMILES>  (47) 
CCOc1cc(C(O)=C2CC2)ccc1O/C=C(\O)[N-]c1cc([N+](=O)[O-])ccc1Cl

>  <Energy>  (47) 
226.2310573201046

>  <Genealogy>  (47) 
CCOc1cc(C(=O)C2CC2)ccc1OCC(=O)[N-]c1cc([N+](=O)[O-])ccc1Cl (protonated)
CCOc1cc(C(O)=C2CC2)ccc1OC=C(O)[N-]c1cc([N+](=O)[O-])ccc1Cl (tautomer)
CCOc1cc(C(O)=C2CC2)ccc1O/C=C(\O)[N-]c1cc([N+](=O)[O-])ccc1Cl (cis-trans isomerization)
CCOc1cc(C(O)=C2CC2)ccc1O/C=C(\O)[N-]c1cc([N+](=O)[O-])ccc1Cl (3D coordinates assigned)
CCOc1cc(C(O)=C2CC2)ccc1O/C=C(\O)[N-]c1cc([N+](=O)[O-])ccc1Cl (nonaromatic ring conformer: 226.2310573201046 kcal/mol)

>  <smiles>  (47) 
CCOc1cc(C(=O)C2CC2)ccc1OCC(=O)Nc1cc([N+](=O)[O-])ccc1Cl

>  <score_type>  (47) 
oracle

>  <origin>  (47) 
autodockgpu

>  <m_score__min__energy>  (47) 
-6.4500000000000002

>  <m_primary>  (47) 
energy

>  <meeko>  (47) 
{"free_energy": -3.78, "intermolecular_energy": -7.36, "internal_energy": -4.58, "cluster_size": 2, "cluster_id": 6, "rank_in_cluster": 1}

>  <energy>  (47) 
-5.85

>  <cluster_rmsd>  (47) 
0.81

>  <rmsd>  (47) 
271.75

>  <cluster>  (47) 
1

$$$$
VUCFXBNYDUPJQC-ODLFYWEKNA-N
     RDKit          3D

 47 49  0  0  0  0  0  0  0  0999 V2000
  146.3120   73.8120  218.6440 H   0  0  0  0  0  0  0  0  0  0  0  0
  145.9360   73.3760  217.8100 O   0  0  0  0  0  0  0  0  0  0  0  0
  144.9890   74.0140  217.0070 C   0  0  0  0  0  0  0  0  0  0  0  0
  145.2830   74.2230  215.7230 C   0  0  0  0  0  0  0  0  0  0  0  0
  146.2830   74.5810  214.6270 C   0  0  0  0  0  0  0  0  0  0  0  0
  146.6645   75.6102  214.5540 H   0  0  0  0  0  0  0  0  0  0  0  0
  147.2658   74.1862  214.3300 H   0  0  0  0  0  0  0  0  0  0  0  0
  144.9410   74.2970  214.2360 C   0  0  0  0  0  0  0  0  0  0  0  0
  144.2988   75.1095  213.8652 H   0  0  0  0  0  0  0  0  0  0  0  0
  144.4842   73.5978  213.5201 H   0  0  0  0  0  0  0  0  0  0  0  0
  143.6900   74.4290  217.6030 C   0  0  0  0  0  0  0  0  0  0  0  0
  142.4770   73.8040  217.2580 C   0  0  0  0  0  0  0  0  0  0  0  0
  142.4777   72.9819  216.5272 H   0  0  0  0  0  0  0  0  0  0  0  0
  141.2740   74.2150  217.8320 C   0  0  0  0  0  0  0  0  0  0  0  0
  140.3350   73.7189  217.5452 H   0  0  0  0  0  0  0  0  0  0  0  0
  141.2520   75.2580  218.7740 C   0  0  0  0  0  0  0  0  0  0  0  0
  140.0620   75.7020  219.3700 O   0  0  0  0  0  0  0  0  0  0  0  0
  139.5860   75.2790  220.6150 C   0  0  0  0  0  0  0  0  0  0  0  0
  138.5026   75.1944  220.7853 H   0  0  0  0  0  0  0  0  0  0  0  0
  140.4400   74.9760  221.6020 C   0  0  0  0  0  0  0  0  0  0  0  0
  140.7520   73.6120  221.9250 N   0  0  0  0  0  0  0  0  0  0  0  0
  141.7060   72.7800  221.2480 C   0  0  0  0  0  0  0  0  0  0  0  0
  143.0300   73.2250  221.1450 C   0  0  0  0  0  0  0  0  0  0  0  0
  143.3125   74.1945  221.5812 H   0  0  0  0  0  0  0  0  0  0  0  0
  144.0030   72.4480  220.4910 C   0  0  0  0  0  0  0  0  0  0  0  0
  145.3590   72.9170  220.3690 N   0  0  0  0  0  0  0  0  0  0  0  0
  145.6560   74.0920  220.6720 O   0  0  0  0  0  0  0  0  0  0  0  0
  146.3510   72.0790  219.9150 O   0  0  0  0  0  0  0  0  0  0  0  0
  143.6310   71.2040  219.9560 C   0  0  0  0  0  0  0  0  0  0  0  0
  144.3783   70.5902  219.4317 H   0  0  0  0  0  0  0  0  0  0  0  0
  142.3210   70.7400  220.0840 C   0  0  0  0  0  0  0  0  0  0  0  0
  142.0460   69.7587  219.6699 H   0  0  0  0  0  0  0  0  0  0  0  0
  141.3560   71.5140  220.7350 C   0  0  0  0  0  0  0  0  0  0  0  0
  139.7490   70.8330  220.9590 Cl  0  0  0  0  0  0  0  0  0  0  0  0
  141.0750   75.9840  222.3280 O   0  0  0  0  0  0  0  0  0  0  0  0
  141.8920   76.4740  221.9830 H   0  0  0  0  0  0  0  0  0  0  0  0
  142.4490   75.9030  219.1190 C   0  0  0  0  0  0  0  0  0  0  0  0
  142.3830   76.9570  220.0490 O   0  0  0  0  0  0  0  0  0  0  0  0
  141.8230   78.2480  219.8110 C   0  0  0  0  0  0  0  0  0  0  0  0
  142.1724   78.9415  220.5901 H   0  0  0  0  0  0  0  0  0  0  0  0
  140.7263   78.1655  219.8343 H   0  0  0  0  0  0  0  0  0  0  0  0
  142.2430   78.7790  218.4450 C   0  0  0  0  0  0  0  0  0  0  0  0
  142.9205   79.6355  218.5770 H   0  0  0  0  0  0  0  0  0  0  0  0
  142.7602   77.9851  217.8862 H   0  0  0  0  0  0  0  0  0  0  0  0
  141.3514   79.0995  217.8862 H   0  0  0  0  0  0  0  0  0  0  0  0
  143.6600   75.4860  218.5310 C   0  0  0  0  0  0  0  0  0  0  0  0
  144.5967   75.9951  218.8020 H   0  0  0  0  0  0  0  0  0  0  0  0
  1  2  1  0
  2  3  1  0
  3  4  2  3
  4  5  1  0
  5  6  1  0
  5  7  1  0
  5  8  1  0
  8  9  1  0
  8 10  1  0
  3 11  1  0
 11 12  2  0
 12 13  1  0
 12 14  1  0
 14 15  1  0
 14 16  2  0
 16 17  1  0
 17 18  1  0
 18 19  1  0
 18 20  2  0
 20 21  1  0
 21 22  1  0
 22 23  2  0
 23 24  1  0
 23 25  1  0
 25 26  1  0
 26 27  2  0
 26 28  1  0
 25 29  2  0
 29 30  1  0
 29 31  1  0
 31 32  1  0
 31 33  2  0
 33 34  1  0
 20 35  1  0
 35 36  1  0
 16 37  1  0
 37 38  1  0
 38 39  1  0
 39 40  1  0
 39 41  1  0
 39 42  1  0
 42 43  1  0
 42 44  1  0
 42 45  1  0
 37 46  2  0
 46 47  1  0
  8  4  1  0
 46 11  1  0
 33 22  1  0
M  CHG  3  21  -1  26   1  28  -1
M  END
>  <UniqueID>  (48) 
7

>  <SMILES>  (48) 
CCOc1cc(C(O)=C2CC2)ccc1O/C=C(\O)[N-]c1cc([N+](=O)[O-])ccc1Cl

>  <Energy>  (48) 
226.2310573201046

>  <Genealogy>  (48) 
CCOc1cc(C(=O)C2CC2)ccc1OCC(=O)[N-]c1cc([N+](=O)[O-])ccc1Cl (protonated)
CCOc1cc(C(O)=C2CC2)ccc1OC=C(O)[N-]c1cc([N+](=O)[O-])ccc1Cl (tautomer)
CCOc1cc(C(O)=C2CC2)ccc1O/C=C(\O)[N-]c1cc([N+](=O)[O-])ccc1Cl (cis-trans isomerization)
CCOc1cc(C(O)=C2CC2)ccc1O/C=C(\O)[N-]c1cc([N+](=O)[O-])ccc1Cl (3D coordinates assigned)
CCOc1cc(C(O)=C2CC2)ccc1O/C=C(\O)[N-]c1cc([N+](=O)[O-])ccc1Cl (nonaromatic ring conformer: 226.2310573201046 kcal/mol)

>  <smiles>  (48) 
CCOc1cc(C(=O)C2CC2)ccc1OCC(=O)Nc1cc([N+](=O)[O-])ccc1Cl

>  <score_type>  (48) 
oracle

>  <origin>  (48) 
autodockgpu

>  <m_score__min__energy>  (48) 
-6.4500000000000002

>  <m_primary>  (48) 
energy

>  <meeko>  (48) 
{"free_energy": -3.56, "intermolecular_energy": -7.14, "internal_energy": -4.72, "cluster_size": 1, "cluster_id": 7, "rank_in_cluster": 1}

>  <energy>  (48) 
-5.59

>  <cluster_rmsd>  (48) 
1.48

>  <rmsd>  (48) 
271.54

>  <cluster>  (48) 
1

$$$$
VUCFXBNYDUPJQC-ODLFYWEKNA-N
     RDKit          3D

 47 49  0  0  0  0  0  0  0  0999 V2000
  142.3410   81.5730  221.3670 H   0  0  0  0  0  0  0  0  0  0  0  0
  141.7760   81.8890  220.5870 O   0  0  0  0  0  0  0  0  0  0  0  0
  141.7020   81.1710  219.3930 C   0  0  0  0  0  0  0  0  0  0  0  0
  142.1850   81.7330  218.2840 C   0  0  0  0  0  0  0  0  0  0  0  0
  142.5830   81.6480  216.8120 C   0  0  0  0  0  0  0  0  0  0  0  0
  143.4670   81.0617  216.5207 H   0  0  0  0  0  0  0  0  0  0  0  0
  142.0615   81.3337  215.8959 H   0  0  0  0  0  0  0  0  0  0  0  0
  142.7540   82.8990  217.4760 C   0  0  0  0  0  0  0  0  0  0  0  0
  143.7682   83.2664  217.6913 H   0  0  0  0  0  0  0  0  0  0  0  0
  142.4160   83.9258  217.2724 H   0  0  0  0  0  0  0  0  0  0  0  0
  141.0990   79.8110  219.3970 C   0  0  0  0  0  0  0  0  0  0  0  0
  139.7060   79.6110  219.3360 C   0  0  0  0  0  0  0  0  0  0  0  0
  139.0339   80.4801  219.2822 H   0  0  0  0  0  0  0  0  0  0  0  0
  139.1690   78.3240  219.3430 C   0  0  0  0  0  0  0  0  0  0  0  0
  138.0782   78.1877  219.3028 H   0  0  0  0  0  0  0  0  0  0  0  0
  140.0100   77.2000  219.4010 C   0  0  0  0  0  0  0  0  0  0  0  0
  139.5070   75.8900  219.4130 O   0  0  0  0  0  0  0  0  0  0  0  0
  139.4460   75.0680  220.5430 C   0  0  0  0  0  0  0  0  0  0  0  0
  138.8707   74.1312  220.5061 H   0  0  0  0  0  0  0  0  0  0  0  0
  140.0830   75.4130  221.6700 C   0  0  0  0  0  0  0  0  0  0  0  0
  139.4400   76.2130  222.6740 N   0  0  0  0  0  0  0  0  0  0  0  0
  139.4580   77.6460  222.7530 C   0  0  0  0  0  0  0  0  0  0  0  0
  140.6960   78.3000  222.7960 C   0  0  0  0  0  0  0  0  0  0  0  0
  141.6233   77.7089  222.7684 H   0  0  0  0  0  0  0  0  0  0  0  0
  140.7690   79.7020  222.8740 C   0  0  0  0  0  0  0  0  0  0  0  0
  142.0430   80.3700  222.9390 N   0  0  0  0  0  0  0  0  0  0  0  0
  143.0660   79.8390  222.4570 O   0  0  0  0  0  0  0  0  0  0  0  0
  142.1560   81.6060  223.5330 O   0  0  0  0  0  0  0  0  0  0  0  0
  139.5770   80.4440  222.8890 C   0  0  0  0  0  0  0  0  0  0  0  0
  139.6175   81.5408  222.9620 H   0  0  0  0  0  0  0  0  0  0  0  0
  138.3410   79.8000  222.8120 C   0  0  0  0  0  0  0  0  0  0  0  0
  137.4151   80.3939  222.8127 H   0  0  0  0  0  0  0  0  0  0  0  0
  138.2710   78.4070  222.7340 C   0  0  0  0  0  0  0  0  0  0  0  0
  136.6910   77.6580  222.5340 Cl  0  0  0  0  0  0  0  0  0  0  0  0
  141.3850   74.9780  221.9130 O   0  0  0  0  0  0  0  0  0  0  0  0
  142.2010   75.4950  221.6080 H   0  0  0  0  0  0  0  0  0  0  0  0
  141.3990   77.3790  219.4760 C   0  0  0  0  0  0  0  0  0  0  0  0
  142.2070   76.2290  219.5550 O   0  0  0  0  0  0  0  0  0  0  0  0
  143.6300   76.2140  219.6720 C   0  0  0  0  0  0  0  0  0  0  0  0
  143.9364   76.9431  220.4366 H   0  0  0  0  0  0  0  0  0  0  0  0
  144.0661   76.4750  218.6965 H   0  0  0  0  0  0  0  0  0  0  0  0
  144.1270   74.8300  220.0740 C   0  0  0  0  0  0  0  0  0  0  0  0
  144.1541   74.7545  221.1711 H   0  0  0  0  0  0  0  0  0  0  0  0
  143.4475   74.0649  219.6705 H   0  0  0  0  0  0  0  0  0  0  0  0
  145.1380   74.6720  219.6705 H   0  0  0  0  0  0  0  0  0  0  0  0
  141.9350   78.6820  219.4750 C   0  0  0  0  0  0  0  0  0  0  0  0
  143.0247   78.8188  219.5362 H   0  0  0  0  0  0  0  0  0  0  0  0
  1  2  1  0
  2  3  1  0
  3  4  2  3
  4  5  1  0
  5  6  1  0
  5  7  1  0
  5  8  1  0
  8  9  1  0
  8 10  1  0
  3 11  1  0
 11 12  2  0
 12 13  1  0
 12 14  1  0
 14 15  1  0
 14 16  2  0
 16 17  1  0
 17 18  1  0
 18 19  1  0
 18 20  2  0
 20 21  1  0
 21 22  1  0
 22 23  2  0
 23 24  1  0
 23 25  1  0
 25 26  1  0
 26 27  2  0
 26 28  1  0
 25 29  2  0
 29 30  1  0
 29 31  1  0
 31 32  1  0
 31 33  2  0
 33 34  1  0
 20 35  1  0
 35 36  1  0
 16 37  1  0
 37 38  1  0
 38 39  1  0
 39 40  1  0
 39 41  1  0
 39 42  1  0
 42 43  1  0
 42 44  1  0
 42 45  1  0
 37 46  2  0
 46 47  1  0
  8  4  1  0
 46 11  1  0
 33 22  1  0
M  CHG  3  21  -1  26   1  28  -1
M  END
>  <UniqueID>  (49) 
7

>  <SMILES>  (49) 
CCOc1cc(C(O)=C2CC2)ccc1O/C=C(\O)[N-]c1cc([N+](=O)[O-])ccc1Cl

>  <Energy>  (49) 
226.2310573201046

>  <Genealogy>  (49) 
CCOc1cc(C(=O)C2CC2)ccc1OCC(=O)[N-]c1cc([N+](=O)[O-])ccc1Cl (protonated)
CCOc1cc(C(O)=C2CC2)ccc1OC=C(O)[N-]c1cc([N+](=O)[O-])ccc1Cl (tautomer)
CCOc1cc(C(O)=C2CC2)ccc1O/C=C(\O)[N-]c1cc([N+](=O)[O-])ccc1Cl (cis-trans isomerization)
CCOc1cc(C(O)=C2CC2)ccc1O/C=C(\O)[N-]c1cc([N+](=O)[O-])ccc1Cl (3D coordinates assigned)
CCOc1cc(C(O)=C2CC2)ccc1O/C=C(\O)[N-]c1cc([N+](=O)[O-])ccc1Cl (nonaromatic ring conformer: 226.2310573201046 kcal/mol)

>  <smiles>  (49) 
CCOc1cc(C(=O)C2CC2)ccc1OCC(=O)Nc1cc([N+](=O)[O-])ccc1Cl

>  <score_type>  (49) 
oracle

>  <origin>  (49) 
autodockgpu

>  <m_score__min__energy>  (49) 
-6.4500000000000002

>  <m_primary>  (49) 
energy

>  <meeko>  (49) 
{"free_energy": -3.32, "intermolecular_energy": -6.9, "internal_energy": -4.77, "cluster_size": 2, "cluster_id": 10, "rank_in_cluster": 1}

>  <energy>  (49) 
-6.04

>  <cluster_rmsd>  (49) 
0.0

>  <rmsd>  (49) 
271.07

>  <cluster>  (49) 
2

$$$$
VUCFXBNYDUPJQC-ODLFYWEKNA-N
     RDKit          3D

 47 49  0  0  0  0  0  0  0  0999 V2000
  138.1390   79.8040  223.8010 H   0  0  0  0  0  0  0  0  0  0  0  0
  139.0160   80.2820  223.6300 O   0  0  0  0  0  0  0  0  0  0  0  0
  140.1730   79.5930  223.2660 C   0  0  0  0  0  0  0  0  0  0  0  0
  141.3480   80.2130  223.3890 C   0  0  0  0  0  0  0  0  0  0  0  0
  142.1910   81.3800  223.8980 C   0  0  0  0  0  0  0  0  0  0  0  0
  142.0717   82.3753  223.4450 H   0  0  0  0  0  0  0  0  0  0  0  0
  142.3450   81.8384  224.8860 H   0  0  0  0  0  0  0  0  0  0  0  0
  142.8540   80.3480  223.1690 C   0  0  0  0  0  0  0  0  0  0  0  0
  143.2399   80.5563  222.1602 H   0  0  0  0  0  0  0  0  0  0  0  0
  143.7185   79.6998  223.3752 H   0  0  0  0  0  0  0  0  0  0  0  0
  140.0620   78.1960  222.7630 C   0  0  0  0  0  0  0  0  0  0  0  0
  141.1660   77.5030  222.2330 C   0  0  0  0  0  0  0  0  0  0  0  0
  142.1467   77.9989  222.1849 H   0  0  0  0  0  0  0  0  0  0  0  0
  141.0320   76.1950  221.7680 C   0  0  0  0  0  0  0  0  0  0  0  0
  141.9049   75.6718  221.3505 H   0  0  0  0  0  0  0  0  0  0  0  0
  139.7890   75.5400  221.8290 C   0  0  0  0  0  0  0  0  0  0  0  0
  139.6130   74.2260  221.3680 O   0  0  0  0  0  0  0  0  0  0  0  0
  140.0630   73.0810  222.0320 C   0  0  0  0  0  0  0  0  0  0  0  0
  141.1428   72.9051  222.1466 H   0  0  0  0  0  0  0  0  0  0  0  0
  139.1880   72.1960  222.5300 C   0  0  0  0  0  0  0  0  0  0  0  0
  139.6000   70.8730  222.9070 N   0  0  0  0  0  0  0  0  0  0  0  0
  139.7920   70.3990  224.2480 C   0  0  0  0  0  0  0  0  0  0  0  0
  140.2300   71.3030  225.2240 C   0  0  0  0  0  0  0  0  0  0  0  0
  140.4168   72.3513  224.9481 H   0  0  0  0  0  0  0  0  0  0  0  0
  140.4340   70.8880  226.5520 C   0  0  0  0  0  0  0  0  0  0  0  0
  140.9030   71.8160  227.5490 N   0  0  0  0  0  0  0  0  0  0  0  0
  140.3570   71.8760  228.6700 O   0  0  0  0  0  0  0  0  0  0  0  0
  141.9610   72.6540  227.2820 O   0  0  0  0  0  0  0  0  0  0  0  0
  140.1730   69.5510  226.8940 C   0  0  0  0  0  0  0  0  0  0  0  0
  140.3385   69.2090  227.9263 H   0  0  0  0  0  0  0  0  0  0  0  0
  139.7050   68.6530  225.9330 C   0  0  0  0  0  0  0  0  0  0  0  0
  139.4945   67.6111  226.2160 H   0  0  0  0  0  0  0  0  0  0  0  0
  139.5020   69.0680  224.6140 C   0  0  0  0  0  0  0  0  0  0  0  0
  138.8120   67.9200  223.4720 Cl  0  0  0  0  0  0  0  0  0  0  0  0
  137.8520   72.5470  222.7230 O   0  0  0  0  0  0  0  0  0  0  0  0
  137.5520   73.5060  222.8510 H   0  0  0  0  0  0  0  0  0  0  0  0
  138.6740   76.2190  222.3400 C   0  0  0  0  0  0  0  0  0  0  0  0
  137.4440   75.5380  222.3650 O   0  0  0  0  0  0  0  0  0  0  0  0
  136.2550   75.9820  223.0210 C   0  0  0  0  0  0  0  0  0  0  0  0
  135.4858   76.1989  222.2652 H   0  0  0  0  0  0  0  0  0  0  0  0
  136.4893   76.8874  223.6002 H   0  0  0  0  0  0  0  0  0  0  0  0
  135.7310   74.9140  223.9750 C   0  0  0  0  0  0  0  0  0  0  0  0
  135.8908   75.2397  225.0135 H   0  0  0  0  0  0  0  0  0  0  0  0
  134.6558   74.7616  223.7999 H   0  0  0  0  0  0  0  0  0  0  0  0
  136.2684   73.9703  223.7999 H   0  0  0  0  0  0  0  0  0  0  0  0
  138.8160   77.5430  222.8030 C   0  0  0  0  0  0  0  0  0  0  0  0
  137.9391   78.0740  223.2018 H   0  0  0  0  0  0  0  0  0  0  0  0
  1  2  1  0
  2  3  1  0
  3  4  2  3
  4  5  1  0
  5  6  1  0
  5  7  1  0
  5  8  1  0
  8  9  1  0
  8 10  1  0
  3 11  1  0
 11 12  2  0
 12 13  1  0
 12 14  1  0
 14 15  1  0
 14 16  2  0
 16 17  1  0
 17 18  1  0
 18 19  1  0
 18 20  2  0
 20 21  1  0
 21 22  1  0
 22 23  2  0
 23 24  1  0
 23 25  1  0
 25 26  1  0
 26 27  2  0
 26 28  1  0
 25 29  2  0
 29 30  1  0
 29 31  1  0
 31 32  1  0
 31 33  2  0
 33 34  1  0
 20 35  1  0
 35 36  1  0
 16 37  1  0
 37 38  1  0
 38 39  1  0
 39 40  1  0
 39 41  1  0
 39 42  1  0
 42 43  1  0
 42 44  1  0
 42 45  1  0
 37 46  2  0
 46 47  1  0
  8  4  1  0
 46 11  1  0
 33 22  1  0
M  CHG  3  21  -1  26   1  28  -1
M  END
>  <UniqueID>  (50) 
7

>  <SMILES>  (50) 
CCOc1cc(C(O)=C2CC2)ccc1O/C=C(\O)[N-]c1cc([N+](=O)[O-])ccc1Cl

>  <Energy>  (50) 
226.2310573201046

>  <Genealogy>  (50) 
CCOc1cc(C(=O)C2CC2)ccc1OCC(=O)[N-]c1cc([N+](=O)[O-])ccc1Cl (protonated)
CCOc1cc(C(O)=C2CC2)ccc1OC=C(O)[N-]c1cc([N+](=O)[O-])ccc1Cl (tautomer)
CCOc1cc(C(O)=C2CC2)ccc1O/C=C(\O)[N-]c1cc([N+](=O)[O-])ccc1Cl (cis-trans isomerization)
CCOc1cc(C(O)=C2CC2)ccc1O/C=C(\O)[N-]c1cc([N+](=O)[O-])ccc1Cl (3D coordinates assigned)
CCOc1cc(C(O)=C2CC2)ccc1O/C=C(\O)[N-]c1cc([N+](=O)[O-])ccc1Cl (nonaromatic ring conformer: 226.2310573201046 kcal/mol)

>  <smiles>  (50) 
CCOc1cc(C(=O)C2CC2)ccc1OCC(=O)Nc1cc([N+](=O)[O-])ccc1Cl

>  <score_type>  (50) 
oracle

>  <origin>  (50) 
autodockgpu

>  <m_score__min__energy>  (50) 
-6.4500000000000002

>  <m_primary>  (50) 
energy

>  <meeko>  (50) 
{"free_energy": -6.45, "intermolecular_energy": -10.03, "internal_energy": -2.09, "cluster_size": 8, "cluster_id": 1, "rank_in_cluster": 2}

>  <energy>  (50) 
-5.9

>  <cluster_rmsd>  (50) 
0.0

>  <rmsd>  (50) 
270.52

>  <cluster>  (50) 
3

$$$$
VUCFXBNYDUPJQC-ODLFYWEKNA-N
     RDKit          3D

 47 49  0  0  0  0  0  0  0  0999 V2000
  140.5170   72.3700  228.0650 H   0  0  0  0  0  0  0  0  0  0  0  0
  141.1190   71.7490  227.5370 O   0  0  0  0  0  0  0  0  0  0  0  0
  140.6250   70.6100  226.8990 C   0  0  0  0  0  0  0  0  0  0  0  0
  140.7910   69.4270  227.4920 C   0  0  0  0  0  0  0  0  0  0  0  0
  141.0150   67.9190  227.4170 C   0  0  0  0  0  0  0  0  0  0  0  0
  140.2073   67.2668  227.0534 H   0  0  0  0  0  0  0  0  0  0  0  0
  141.7639   67.2810  226.9250 H   0  0  0  0  0  0  0  0  0  0  0  0
  140.9140   68.5120  228.7100 C   0  0  0  0  0  0  0  0  0  0  0  0
  140.0292   68.3127  229.3324 H   0  0  0  0  0  0  0  0  0  0  0  0
  141.5541   68.5107  229.6046 H   0  0  0  0  0  0  0  0  0  0  0  0
  139.9270   70.7520  225.5910 C   0  0  0  0  0  0  0  0  0  0  0  0
  138.9100   69.8670  225.1890 C   0  0  0  0  0  0  0  0  0  0  0  0
  138.6129   69.0421  225.8533 H   0  0  0  0  0  0  0  0  0  0  0  0
  138.2740   70.0240  223.9570 C   0  0  0  0  0  0  0  0  0  0  0  0
  137.4855   69.3185  223.6561 H   0  0  0  0  0  0  0  0  0  0  0  0
  138.6330   71.0770  223.0970 C   0  0  0  0  0  0  0  0  0  0  0  0
  138.0190   71.2650  221.8500 O   0  0  0  0  0  0  0  0  0  0  0  0
  136.8020   71.9240  221.6500 C   0  0  0  0  0  0  0  0  0  0  0  0
  136.0630   71.5051  220.9512 H   0  0  0  0  0  0  0  0  0  0  0  0
  136.5290   73.0620  222.3030 C   0  0  0  0  0  0  0  0  0  0  0  0
  135.2620   73.2650  222.9470 N   0  0  0  0  0  0  0  0  0  0  0  0
  134.8120   72.6230  224.1490 C   0  0  0  0  0  0  0  0  0  0  0  0
  134.8360   71.2240  224.2120 C   0  0  0  0  0  0  0  0  0  0  0  0
  135.1969   70.6483  223.3470 H   0  0  0  0  0  0  0  0  0  0  0  0
  134.4050   70.5450  225.3660 C   0  0  0  0  0  0  0  0  0  0  0  0
  134.4120   69.1070  225.4200 N   0  0  0  0  0  0  0  0  0  0  0  0
  134.9590   68.4380  224.5170 O   0  0  0  0  0  0  0  0  0  0  0  0
  133.8160   68.4430  226.4670 O   0  0  0  0  0  0  0  0  0  0  0  0
  133.9660   71.2950  226.4700 C   0  0  0  0  0  0  0  0  0  0  0  0
  133.6157   70.7788  227.3760 H   0  0  0  0  0  0  0  0  0  0  0  0
  133.9710   72.6910  226.4260 C   0  0  0  0  0  0  0  0  0  0  0  0
  133.6344   73.2664  227.3010 H   0  0  0  0  0  0  0  0  0  0  0  0
  134.4010   73.3620  225.2770 C   0  0  0  0  0  0  0  0  0  0  0  0
  134.4840   75.1200  225.3170 Cl  0  0  0  0  0  0  0  0  0  0  0  0
  137.4850   74.0730  222.4010 O   0  0  0  0  0  0  0  0  0  0  0  0
  138.4210   73.9090  222.7530 H   0  0  0  0  0  0  0  0  0  0  0  0
  139.6540   71.9600  223.4750 C   0  0  0  0  0  0  0  0  0  0  0  0
  140.0000   72.9880  222.5790 O   0  0  0  0  0  0  0  0  0  0  0  0
  141.0540   72.9380  221.6170 C   0  0  0  0  0  0  0  0  0  0  0  0
  142.0144   73.1081  222.1257 H   0  0  0  0  0  0  0  0  0  0  0  0
  140.8769   73.7167  220.8606 H   0  0  0  0  0  0  0  0  0  0  0  0
  141.0910   71.5820  220.9210 C   0  0  0  0  0  0  0  0  0  0  0  0
  141.1128   70.7826  221.6763 H   0  0  0  0  0  0  0  0  0  0  0  0
  140.1956   71.4680  220.2923 H   0  0  0  0  0  0  0  0  0  0  0  0
  141.9913   71.5170  220.2923 H   0  0  0  0  0  0  0  0  0  0  0  0
  140.2960   71.7920  224.7180 C   0  0  0  0  0  0  0  0  0  0  0  0
  141.0986   72.4850  225.0106 H   0  0  0  0  0  0  0  0  0  0  0  0
  1  2  1  0
  2  3  1  0
  3  4  2  3
  4  5  1  0
  5  6  1  0
  5  7  1  0
  5  8  1  0
  8  9  1  0
  8 10  1  0
  3 11  1  0
 11 12  2  0
 12 13  1  0
 12 14  1  0
 14 15  1  0
 14 16  2  0
 16 17  1  0
 17 18  1  0
 18 19  1  0
 18 20  2  0
 20 21  1  0
 21 22  1  0
 22 23  2  0
 23 24  1  0
 23 25  1  0
 25 26  1  0
 26 27  2  0
 26 28  1  0
 25 29  2  0
 29 30  1  0
 29 31  1  0
 31 32  1  0
 31 33  2  0
 33 34  1  0
 20 35  1  0
 35 36  1  0
 16 37  1  0
 37 38  1  0
 38 39  1  0
 39 40  1  0
 39 41  1  0
 39 42  1  0
 42 43  1  0
 42 44  1  0
 42 45  1  0
 37 46  2  0
 46 47  1  0
  8  4  1  0
 46 11  1  0
 33 22  1  0
M  CHG  3  21  -1  26   1  28  -1
M  END
>  <UniqueID>  (51) 
7

>  <SMILES>  (51) 
CCOc1cc(C(O)=C2CC2)ccc1O/C=C(\O)[N-]c1cc([N+](=O)[O-])ccc1Cl

>  <Energy>  (51) 
226.2310573201046

>  <Genealogy>  (51) 
CCOc1cc(C(=O)C2CC2)ccc1OCC(=O)[N-]c1cc([N+](=O)[O-])ccc1Cl (protonated)
CCOc1cc(C(O)=C2CC2)ccc1OC=C(O)[N-]c1cc([N+](=O)[O-])ccc1Cl (tautomer)
CCOc1cc(C(O)=C2CC2)ccc1O/C=C(\O)[N-]c1cc([N+](=O)[O-])ccc1Cl (cis-trans isomerization)
CCOc1cc(C(O)=C2CC2)ccc1O/C=C(\O)[N-]c1cc([N+](=O)[O-])ccc1Cl (3D coordinates assigned)
CCOc1cc(C(O)=C2CC2)ccc1O/C=C(\O)[N-]c1cc([N+](=O)[O-])ccc1Cl (nonaromatic ring conformer: 226.2310573201046 kcal/mol)

>  <smiles>  (51) 
CCOc1cc(C(=O)C2CC2)ccc1OCC(=O)Nc1cc([N+](=O)[O-])ccc1Cl

>  <score_type>  (51) 
oracle

>  <origin>  (51) 
autodockgpu

>  <m_score__min__energy>  (51) 
-6.4500000000000002

>  <m_primary>  (51) 
energy

>  <meeko>  (51) 
{"free_energy": -5.9, "intermolecular_energy": -9.48, "internal_energy": -2.69, "cluster_size": 1, "cluster_id": 3, "rank_in_cluster": 1}

>  <energy>  (51) 
-5.63

>  <cluster_rmsd>  (51) 
0.0

>  <rmsd>  (51) 
270.58

>  <cluster>  (51) 
4

$$$$
VUCFXBNYDUPJQC-ODLFYWEKNA-N
     RDKit          3D

 47 49  0  0  0  0  0  0  0  0999 V2000
  140.5170   81.4440  223.3330 H   0  0  0  0  0  0  0  0  0  0  0  0
  139.5790   81.6400  223.0000 O   0  0  0  0  0  0  0  0  0  0  0  0
  138.5110   80.7790  223.2560 C   0  0  0  0  0  0  0  0  0  0  0  0
  137.6470   81.1090  224.2170 C   0  0  0  0  0  0  0  0  0  0  0  0
  136.2160   81.2390  224.7350 C   0  0  0  0  0  0  0  0  0  0  0  0
  135.5529   82.0089  224.3135 H   0  0  0  0  0  0  0  0  0  0  0  0
  135.3681   80.5436  224.8218 H   0  0  0  0  0  0  0  0  0  0  0  0
  137.2770   81.6230  225.6080 C   0  0  0  0  0  0  0  0  0  0  0  0
  137.4231   82.6856  225.8520 H   0  0  0  0  0  0  0  0  0  0  0  0
  137.5670   81.3395  226.6305 H   0  0  0  0  0  0  0  0  0  0  0  0
  138.3680   79.5360  222.4510 C   0  0  0  0  0  0  0  0  0  0  0  0
  138.5410   79.5280  221.0540 C   0  0  0  0  0  0  0  0  0  0  0  0
  138.7903   80.4634  220.5316 H   0  0  0  0  0  0  0  0  0  0  0  0
  138.4000   78.3480  220.3250 C   0  0  0  0  0  0  0  0  0  0  0  0
  138.5333   78.3624  219.2332 H   0  0  0  0  0  0  0  0  0  0  0  0
  138.0890   77.1400  220.9730 C   0  0  0  0  0  0  0  0  0  0  0  0
  137.9350   75.9330  220.2740 O   0  0  0  0  0  0  0  0  0  0  0  0
  138.8910   74.9140  220.2210 C   0  0  0  0  0  0  0  0  0  0  0  0
  138.8598   74.1786  219.4035 H   0  0  0  0  0  0  0  0  0  0  0  0
  139.8450   74.8260  221.1580 C   0  0  0  0  0  0  0  0  0  0  0  0
  141.1230   75.4550  220.9810 N   0  0  0  0  0  0  0  0  0  0  0  0
  141.3650   76.8680  220.9020 C   0  0  0  0  0  0  0  0  0  0  0  0
  141.4240   77.6060  222.0910 C   0  0  0  0  0  0  0  0  0  0  0  0
  141.2848   77.0947  223.0550 H   0  0  0  0  0  0  0  0  0  0  0  0
  141.6590   78.9930  222.0680 C   0  0  0  0  0  0  0  0  0  0  0  0
  141.6980   79.7520  223.2910 N   0  0  0  0  0  0  0  0  0  0  0  0
  140.9270   79.4810  224.2350 O   0  0  0  0  0  0  0  0  0  0  0  0
  142.5870   80.7920  223.4400 O   0  0  0  0  0  0  0  0  0  0  0  0
  141.8540   79.6280  220.8310 C   0  0  0  0  0  0  0  0  0  0  0  0
  142.0270   80.7137  220.7961 H   0  0  0  0  0  0  0  0  0  0  0  0
  141.8300   78.8920  219.6450 C   0  0  0  0  0  0  0  0  0  0  0  0
  141.9949   79.4004  218.6836 H   0  0  0  0  0  0  0  0  0  0  0  0
  141.5980   77.5140  219.6700 C   0  0  0  0  0  0  0  0  0  0  0  0
  141.6830   76.6230  218.1550 Cl  0  0  0  0  0  0  0  0  0  0  0  0
  139.6090   74.1410  222.3510 O   0  0  0  0  0  0  0  0  0  0  0  0
  138.8020   74.3220  222.9350 H   0  0  0  0  0  0  0  0  0  0  0  0
  137.8980   77.1310  222.3630 C   0  0  0  0  0  0  0  0  0  0  0  0
  137.5670   75.9080  222.9730 O   0  0  0  0  0  0  0  0  0  0  0  0
  136.2790   75.5430  223.4700 C   0  0  0  0  0  0  0  0  0  0  0  0
  136.3138   75.5063  224.5688 H   0  0  0  0  0  0  0  0  0  0  0  0
  136.0103   74.5575  223.0619 H   0  0  0  0  0  0  0  0  0  0  0  0
  135.2240   76.5550  223.0370 C   0  0  0  0  0  0  0  0  0  0  0  0
  134.7577   77.0023  223.9273 H   0  0  0  0  0  0  0  0  0  0  0  0
  135.6983   77.3446  222.4357 H   0  0  0  0  0  0  0  0  0  0  0  0
  134.4548   76.0483  222.4357 H   0  0  0  0  0  0  0  0  0  0  0  0
  138.0370   78.3280  223.0930 C   0  0  0  0  0  0  0  0  0  0  0  0
  137.8844   78.3183  224.1823 H   0  0  0  0  0  0  0  0  0  0  0  0
  1  2  1  0
  2  3  1  0
  3  4  2  3
  4  5  1  0
  5  6  1  0
  5  7  1  0
  5  8  1  0
  8  9  1  0
  8 10  1  0
  3 11  1  0
 11 12  2  0
 12 13  1  0
 12 14  1  0
 14 15  1  0
 14 16  2  0
 16 17  1  0
 17 18  1  0
 18 19  1  0
 18 20  2  0
 20 21  1  0
 21 22  1  0
 22 23  2  0
 23 24  1  0
 23 25  1  0
 25 26  1  0
 26 27  2  0
 26 28  1  0
 25 29  2  0
 29 30  1  0
 29 31  1  0
 31 32  1  0
 31 33  2  0
 33 34  1  0
 20 35  1  0
 35 36  1  0
 16 37  1  0
 37 38  1  0
 38 39  1  0
 39 40  1  0
 39 41  1  0
 39 42  1  0
 42 43  1  0
 42 44  1  0
 42 45  1  0
 37 46  2  0
 46 47  1  0
  8  4  1  0
 46 11  1  0
 33 22  1  0
M  CHG  3  21  -1  26   1  28  -1
M  END
>  <UniqueID>  (52) 
7

>  <SMILES>  (52) 
CCOc1cc(C(O)=C2CC2)ccc1O/C=C(\O)[N-]c1cc([N+](=O)[O-])ccc1Cl

>  <Energy>  (52) 
226.2310573201046

>  <Genealogy>  (52) 
CCOc1cc(C(=O)C2CC2)ccc1OCC(=O)[N-]c1cc([N+](=O)[O-])ccc1Cl (protonated)
CCOc1cc(C(O)=C2CC2)ccc1OC=C(O)[N-]c1cc([N+](=O)[O-])ccc1Cl (tautomer)
CCOc1cc(C(O)=C2CC2)ccc1O/C=C(\O)[N-]c1cc([N+](=O)[O-])ccc1Cl (cis-trans isomerization)
CCOc1cc(C(O)=C2CC2)ccc1O/C=C(\O)[N-]c1cc([N+](=O)[O-])ccc1Cl (3D coordinates assigned)
CCOc1cc(C(O)=C2CC2)ccc1O/C=C(\O)[N-]c1cc([N+](=O)[O-])ccc1Cl (nonaromatic ring conformer: 226.2310573201046 kcal/mol)

>  <smiles>  (52) 
CCOc1cc(C(=O)C2CC2)ccc1OCC(=O)Nc1cc([N+](=O)[O-])ccc1Cl

>  <score_type>  (52) 
oracle

>  <origin>  (52) 
autodockgpu

>  <m_score__min__energy>  (52) 
-6.4500000000000002

>  <m_primary>  (52) 
energy

>  <meeko>  (52) 
{"free_energy": -3.38, "intermolecular_energy": -6.96, "internal_energy": -4.82, "cluster_size": 2, "cluster_id": 9, "rank_in_cluster": 1}

>  <energy>  (52) 
-5.45

>  <cluster_rmsd>  (52) 
0.0

>  <rmsd>  (52) 
271.37

>  <cluster>  (52) 
5

$$$$
VUCFXBNYDUPJQC-ODLFYWEKNA-N
     RDKit          3D

 47 49  0  0  0  0  0  0  0  0999 V2000
  139.0850   68.1700  224.8960 H   0  0  0  0  0  0  0  0  0  0  0  0
  138.9080   68.8770  225.6010 O   0  0  0  0  0  0  0  0  0  0  0  0
  139.5510   70.1160  225.5810 C   0  0  0  0  0  0  0  0  0  0  0  0
  140.1610   70.5320  226.6910 C   0  0  0  0  0  0  0  0  0  0  0  0
  140.6870   71.6560  227.5810 C   0  0  0  0  0  0  0  0  0  0  0  0
  141.5634   72.2384  227.2605 H   0  0  0  0  0  0  0  0  0  0  0  0
  140.2363   72.5586  228.0194 H   0  0  0  0  0  0  0  0  0  0  0  0
  140.8590   70.3140  228.0330 C   0  0  0  0  0  0  0  0  0  0  0  0
  141.8664   69.8729  228.0569 H   0  0  0  0  0  0  0  0  0  0  0  0
  140.5928   69.7774  228.9556 H   0  0  0  0  0  0  0  0  0  0  0  0
  139.5410   70.9210  224.3290 C   0  0  0  0  0  0  0  0  0  0  0  0
  140.7100   71.1450  223.5770 C   0  0  0  0  0  0  0  0  0  0  0  0
  141.6648   70.7159  223.9151 H   0  0  0  0  0  0  0  0  0  0  0  0
  140.6710   71.9050  222.4080 C   0  0  0  0  0  0  0  0  0  0  0  0
  141.5953   72.0738  221.8359 H   0  0  0  0  0  0  0  0  0  0  0  0
  139.4600   72.4570  221.9550 C   0  0  0  0  0  0  0  0  0  0  0  0
  139.3810   73.2300  220.7870 O   0  0  0  0  0  0  0  0  0  0  0  0
  140.0000   74.4710  220.6070 C   0  0  0  0  0  0  0  0  0  0  0  0
  140.6444   74.6385  219.7314 H   0  0  0  0  0  0  0  0  0  0  0  0
  139.8130   75.4580  221.4950 C   0  0  0  0  0  0  0  0  0  0  0  0
  140.2330   76.8020  221.2130 N   0  0  0  0  0  0  0  0  0  0  0  0
  140.1750   77.9130  222.1190 C   0  0  0  0  0  0  0  0  0  0  0  0
  141.3530   78.6210  222.3880 C   0  0  0  0  0  0  0  0  0  0  0  0
  142.2923   78.3154  221.9040 H   0  0  0  0  0  0  0  0  0  0  0  0
  141.3510   79.7180  223.2690 C   0  0  0  0  0  0  0  0  0  0  0  0
  142.5680   80.4310  223.5590 N   0  0  0  0  0  0  0  0  0  0  0  0
  143.6350   80.1300  222.9840 O   0  0  0  0  0  0  0  0  0  0  0  0
  142.5760   81.4560  224.4760 O   0  0  0  0  0  0  0  0  0  0  0  0
  140.1410   80.1070  223.8650 C   0  0  0  0  0  0  0  0  0  0  0  0
  140.1255   80.9547  224.5658 H   0  0  0  0  0  0  0  0  0  0  0  0
  138.9570   79.4260  223.5750 C   0  0  0  0  0  0  0  0  0  0  0  0
  138.0139   79.7484  224.0404 H   0  0  0  0  0  0  0  0  0  0  0  0
  138.9610   78.3380  222.6980 C   0  0  0  0  0  0  0  0  0  0  0  0
  137.4240   77.5850  222.2900 Cl  0  0  0  0  0  0  0  0  0  0  0  0
  139.1760   75.2110  222.7110 O   0  0  0  0  0  0  0  0  0  0  0  0
  138.4800   74.4840  222.8260 H   0  0  0  0  0  0  0  0  0  0  0  0
  138.2880   72.2570  222.6990 C   0  0  0  0  0  0  0  0  0  0  0  0
  137.1000   72.8430  222.2250 O   0  0  0  0  0  0  0  0  0  0  0  0
  135.9360   73.1200  223.0040 C   0  0  0  0  0  0  0  0  0  0  0  0
  136.0202   72.6059  223.9728 H   0  0  0  0  0  0  0  0  0  0  0  0
  135.0523   72.7625  222.4551 H   0  0  0  0  0  0  0  0  0  0  0  0
  135.7870   74.6180  223.2450 C   0  0  0  0  0  0  0  0  0  0  0  0
  135.7674   74.8151  224.3270 H   0  0  0  0  0  0  0  0  0  0  0  0
  136.6368   75.1487  222.7909 H   0  0  0  0  0  0  0  0  0  0  0  0
  134.8493   74.9709  222.7909 H   0  0  0  0  0  0  0  0  0  0  0  0
  138.3360   71.4930  223.8820 C   0  0  0  0  0  0  0  0  0  0  0  0
  137.4160   71.3413  224.4657 H   0  0  0  0  0  0  0  0  0  0  0  0
  1  2  1  0
  2  3  1  0
  3  4  2  3
  4  5  1  0
  5  6  1  0
  5  7  1  0
  5  8  1  0
  8  9  1  0
  8 10  1  0
  3 11  1  0
 11 12  2  0
 12 13  1  0
 12 14  1  0
 14 15  1  0
 14 16  2  0
 16 17  1  0
 17 18  1  0
 18 19  1  0
 18 20  2  0
 20 21  1  0
 21 22  1  0
 22 23  2  0
 23 24  1  0
 23 25  1  0
 25 26  1  0
 26 27  2  0
 26 28  1  0
 25 29  2  0
 29 30  1  0
 29 31  1  0
 31 32  1  0
 31 33  2  0
 33 34  1  0
 20 35  1  0
 35 36  1  0
 16 37  1  0
 37 38  1  0
 38 39  1  0
 39 40  1  0
 39 41  1  0
 39 42  1  0
 42 43  1  0
 42 44  1  0
 42 45  1  0
 37 46  2  0
 46 47  1  0
  8  4  1  0
 46 11  1  0
 33 22  1  0
M  CHG  3  21  -1  26   1  28  -1
M  END
>  <UniqueID>  (53) 
7

>  <SMILES>  (53) 
CCOc1cc(C(O)=C2CC2)ccc1O/C=C(\O)[N-]c1cc([N+](=O)[O-])ccc1Cl

>  <Energy>  (53) 
226.2310573201046

>  <Genealogy>  (53) 
CCOc1cc(C(=O)C2CC2)ccc1OCC(=O)[N-]c1cc([N+](=O)[O-])ccc1Cl (protonated)
CCOc1cc(C(O)=C2CC2)ccc1OC=C(O)[N-]c1cc([N+](=O)[O-])ccc1Cl (tautomer)
CCOc1cc(C(O)=C2CC2)ccc1O/C=C(\O)[N-]c1cc([N+](=O)[O-])ccc1Cl (cis-trans isomerization)
CCOc1cc(C(O)=C2CC2)ccc1O/C=C(\O)[N-]c1cc([N+](=O)[O-])ccc1Cl (3D coordinates assigned)
CCOc1cc(C(O)=C2CC2)ccc1O/C=C(\O)[N-]c1cc([N+](=O)[O-])ccc1Cl (nonaromatic ring conformer: 226.2310573201046 kcal/mol)

>  <smiles>  (53) 
CCOc1cc(C(=O)C2CC2)ccc1OCC(=O)Nc1cc([N+](=O)[O-])ccc1Cl

>  <score_type>  (53) 
oracle

>  <origin>  (53) 
autodockgpu

>  <m_score__min__energy>  (53) 
-6.4500000000000002

>  <m_primary>  (53) 
energy

>  <meeko>  (53) 
{"free_energy": -5.45, "intermolecular_energy": -9.02, "internal_energy": -2.16, "cluster_size": 1, "cluster_id": 5, "rank_in_cluster": 1}

>  <energy>  (53) 
-3.78

>  <cluster_rmsd>  (53) 
0.0

>  <rmsd>  (53) 
269.68

>  <cluster>  (53) 
6

$$$$
VUCFXBNYDUPJQC-ODLFYWEKNA-N
     RDKit          3D

 47 49  0  0  0  0  0  0  0  0999 V2000
  133.7540   75.3370  225.5750 H   0  0  0  0  0  0  0  0  0  0  0  0
  134.1590   74.6350  226.1840 O   0  0  0  0  0  0  0  0  0  0  0  0
  134.3780   73.3250  225.7560 C   0  0  0  0  0  0  0  0  0  0  0  0
  133.8630   72.3270  226.4750 C   0  0  0  0  0  0  0  0  0  0  0  0
  132.6920   71.6840  227.2150 C   0  0  0  0  0  0  0  0  0  0  0  0
  132.3359   72.1256  228.1574 H   0  0  0  0  0  0  0  0  0  0  0  0
  131.6599   71.4261  226.9354 H   0  0  0  0  0  0  0  0  0  0  0  0
  133.9320   70.9780  227.1910 C   0  0  0  0  0  0  0  0  0  0  0  0
  134.5213   70.8819  228.1148 H   0  0  0  0  0  0  0  0  0  0  0  0
  134.2294   69.9639  226.8857 H   0  0  0  0  0  0  0  0  0  0  0  0
  135.1650   73.0860  224.5150 C   0  0  0  0  0  0  0  0  0  0  0  0
  135.2900   71.8040  223.9460 C   0  0  0  0  0  0  0  0  0  0  0  0
  134.7946   70.9461  224.4240 H   0  0  0  0  0  0  0  0  0  0  0  0
  136.0350   71.6100  222.7830 C   0  0  0  0  0  0  0  0  0  0  0  0
  136.1265   70.6004  222.3559 H   0  0  0  0  0  0  0  0  0  0  0  0
  136.6700   72.6940  222.1520 C   0  0  0  0  0  0  0  0  0  0  0  0
  137.4310   72.5380  220.9830 O   0  0  0  0  0  0  0  0  0  0  0  0
  138.8130   72.3280  220.9520 C   0  0  0  0  0  0  0  0  0  0  0  0
  139.3138   72.1278  219.9933 H   0  0  0  0  0  0  0  0  0  0  0  0
  139.5320   72.3690  222.0830 C   0  0  0  0  0  0  0  0  0  0  0  0
  140.0750   71.1730  222.6620 N   0  0  0  0  0  0  0  0  0  0  0  0
  139.9160   70.7460  224.0230 C   0  0  0  0  0  0  0  0  0  0  0  0
  140.4960   71.5150  225.0400 C   0  0  0  0  0  0  0  0  0  0  0  0
  141.0575   72.4243  224.7795 H   0  0  0  0  0  0  0  0  0  0  0  0
  140.3700   71.1400  226.3900 C   0  0  0  0  0  0  0  0  0  0  0  0
  140.9850   71.9220  227.4310 N   0  0  0  0  0  0  0  0  0  0  0  0
  141.9690   72.6500  227.1850 O   0  0  0  0  0  0  0  0  0  0  0  0
  140.4980   71.8790  228.7170 O   0  0  0  0  0  0  0  0  0  0  0  0
  139.6340   69.9870  226.7080 C   0  0  0  0  0  0  0  0  0  0  0  0
  139.5367   69.6740  227.7580 H   0  0  0  0  0  0  0  0  0  0  0  0
  139.0250   69.2350  225.7020 C   0  0  0  0  0  0  0  0  0  0  0  0
  138.4416   68.3407  225.9662 H   0  0  0  0  0  0  0  0  0  0  0  0
  139.1510   69.6100  224.3610 C   0  0  0  0  0  0  0  0  0  0  0  0
  138.2760   68.6850  223.1470 Cl  0  0  0  0  0  0  0  0  0  0  0  0
  139.7990   73.5840  222.7130 O   0  0  0  0  0  0  0  0  0  0  0  0
  139.0780   74.2680  222.9100 H   0  0  0  0  0  0  0  0  0  0  0  0
  136.5690   73.9760  222.7130 C   0  0  0  0  0  0  0  0  0  0  0  0
  137.2350   75.0320  222.0640 O   0  0  0  0  0  0  0  0  0  0  0  0
  137.5820   76.2860  222.6510 C   0  0  0  0  0  0  0  0  0  0  0  0
  137.4975   76.2076  223.7449 H   0  0  0  0  0  0  0  0  0  0  0  0
  136.8963   77.0560  222.2676 H   0  0  0  0  0  0  0  0  0  0  0  0
  139.0100   76.6790  222.2870 C   0  0  0  0  0  0  0  0  0  0  0  0
  139.5919   76.8392  223.2066 H   0  0  0  0  0  0  0  0  0  0  0  0
  139.4723   75.8747  221.6959 H   0  0  0  0  0  0  0  0  0  0  0  0
  138.9957   77.6066  221.6959 H   0  0  0  0  0  0  0  0  0  0  0  0
  135.8190   74.1640  223.8910 C   0  0  0  0  0  0  0  0  0  0  0  0
  135.7437   75.1699  224.3298 H   0  0  0  0  0  0  0  0  0  0  0  0
  1  2  1  0
  2  3  1  0
  3  4  2  3
  4  5  1  0
  5  6  1  0
  5  7  1  0
  5  8  1  0
  8  9  1  0
  8 10  1  0
  3 11  1  0
 11 12  2  0
 12 13  1  0
 12 14  1  0
 14 15  1  0
 14 16  2  0
 16 17  1  0
 17 18  1  0
 18 19  1  0
 18 20  2  0
 20 21  1  0
 21 22  1  0
 22 23  2  0
 23 24  1  0
 23 25  1  0
 25 26  1  0
 26 27  2  0
 26 28  1  0
 25 29  2  0
 29 30  1  0
 29 31  1  0
 31 32  1  0
 31 33  2  0
 33 34  1  0
 20 35  1  0
 35 36  1  0
 16 37  1  0
 37 38  1  0
 38 39  1  0
 39 40  1  0
 39 41  1  0
 39 42  1  0
 42 43  1  0
 42 44  1  0
 42 45  1  0
 37 46  2  0
 46 47  1  0
  8  4  1  0
 46 11  1  0
 33 22  1  0
M  CHG  3  21  -1  26   1  28  -1
M  END
>  <UniqueID>  (54) 
7

>  <SMILES>  (54) 
CCOc1cc(C(O)=C2CC2)ccc1O/C=C(\O)[N-]c1cc([N+](=O)[O-])ccc1Cl

>  <Energy>  (54) 
226.2310573201046

>  <Genealogy>  (54) 
CCOc1cc(C(=O)C2CC2)ccc1OCC(=O)[N-]c1cc([N+](=O)[O-])ccc1Cl (protonated)
CCOc1cc(C(O)=C2CC2)ccc1OC=C(O)[N-]c1cc([N+](=O)[O-])ccc1Cl (tautomer)
CCOc1cc(C(O)=C2CC2)ccc1O/C=C(\O)[N-]c1cc([N+](=O)[O-])ccc1Cl (cis-trans isomerization)
CCOc1cc(C(O)=C2CC2)ccc1O/C=C(\O)[N-]c1cc([N+](=O)[O-])ccc1Cl (3D coordinates assigned)
CCOc1cc(C(O)=C2CC2)ccc1O/C=C(\O)[N-]c1cc([N+](=O)[O-])ccc1Cl (nonaromatic ring conformer: 226.2310573201046 kcal/mol)

>  <smiles>  (54) 
CCOc1cc(C(=O)C2CC2)ccc1OCC(=O)Nc1cc([N+](=O)[O-])ccc1Cl

>  <score_type>  (54) 
oracle

>  <origin>  (54) 
autodockgpu

>  <m_score__min__energy>  (54) 
-6.4500000000000002

>  <m_primary>  (54) 
energy

>  <meeko>  (54) 
{"free_energy": -5.63, "intermolecular_energy": -9.21, "internal_energy": -2.67, "cluster_size": 1, "cluster_id": 4, "rank_in_cluster": 1}

>  <energy>  (54) 
-3.73

>  <cluster_rmsd>  (54) 
1.9

>  <rmsd>  (54) 
269.29

>  <cluster>  (54) 
6

$$$$
VUCFXBNYDUPJQC-ODLFYWEKNA-N
     RDKit          3D

 47 49  0  0  0  0  0  0  0  0999 V2000
  138.6150   80.7470  223.3940 H   0  0  0  0  0  0  0  0  0  0  0  0
  139.2590   80.1960  223.9490 O   0  0  0  0  0  0  0  0  0  0  0  0
  140.2550   79.4140  223.3620 C   0  0  0  0  0  0  0  0  0  0  0  0
  141.5020   79.8860  223.3390 C   0  0  0  0  0  0  0  0  0  0  0  0
  142.9160   79.8850  222.7640 C   0  0  0  0  0  0  0  0  0  0  0  0
  143.5806   79.0298  222.9564 H   0  0  0  0  0  0  0  0  0  0  0  0
  143.3289   79.9893  221.7498 H   0  0  0  0  0  0  0  0  0  0  0  0
  142.6270   80.8040  223.8160 C   0  0  0  0  0  0  0  0  0  0  0  0
  143.0706   80.6494  224.8107 H   0  0  0  0  0  0  0  0  0  0  0  0
  142.7294   81.8932  223.9303 H   0  0  0  0  0  0  0  0  0  0  0  0
  139.8970   78.0860  222.7930 C   0  0  0  0  0  0  0  0  0  0  0  0
  138.5600   77.6720  222.6480 C   0  0  0  0  0  0  0  0  0  0  0  0
  137.7461   78.3426  222.9609 H   0  0  0  0  0  0  0  0  0  0  0  0
  138.2550   76.4210  222.1120 C   0  0  0  0  0  0  0  0  0  0  0  0
  137.2040   76.1124  222.0116 H   0  0  0  0  0  0  0  0  0  0  0  0
  139.2790   75.5510  221.6990 C   0  0  0  0  0  0  0  0  0  0  0  0
  139.0120   74.2840  221.1590 O   0  0  0  0  0  0  0  0  0  0  0  0
  138.6000   73.1720  221.8990 C   0  0  0  0  0  0  0  0  0  0  0  0
  137.5306   72.9211  221.9574 H   0  0  0  0  0  0  0  0  0  0  0  0
  139.4980   72.4090  222.5380 C   0  0  0  0  0  0  0  0  0  0  0  0
  139.1380   71.1280  223.0760 N   0  0  0  0  0  0  0  0  0  0  0  0
  139.5840   70.5800  224.3260 C   0  0  0  0  0  0  0  0  0  0  0  0
  140.0510   71.4570  225.3130 C   0  0  0  0  0  0  0  0  0  0  0  0
  140.0676   72.5388  225.1144 H   0  0  0  0  0  0  0  0  0  0  0  0
  140.4990   70.9720  226.5550 C   0  0  0  0  0  0  0  0  0  0  0  0
  140.9980   71.8730  227.5610 N   0  0  0  0  0  0  0  0  0  0  0  0
  140.4750   71.9150  228.6950 O   0  0  0  0  0  0  0  0  0  0  0  0
  142.0580   72.7060  227.2900 O   0  0  0  0  0  0  0  0  0  0  0  0
  140.4540   69.5890  226.8000 C   0  0  0  0  0  0  0  0  0  0  0  0
  140.8116   69.1931  227.7620 H   0  0  0  0  0  0  0  0  0  0  0  0
  139.9590   68.7140  225.8320 C   0  0  0  0  0  0  0  0  0  0  0  0
  139.9197   67.6347  226.0405 H   0  0  0  0  0  0  0  0  0  0  0  0
  139.5130   69.1990  224.6000 C   0  0  0  0  0  0  0  0  0  0  0  0
  138.8020   68.0610  223.4600 Cl  0  0  0  0  0  0  0  0  0  0  0  0
  140.8210   72.8290  222.6720 O   0  0  0  0  0  0  0  0  0  0  0  0
  141.2020   73.6110  222.1540 H   0  0  0  0  0  0  0  0  0  0  0  0
  140.6180   75.9400  221.8500 C   0  0  0  0  0  0  0  0  0  0  0  0
  141.6160   75.0350  221.4460 O   0  0  0  0  0  0  0  0  0  0  0  0
  142.4130   75.1410  220.2650 C   0  0  0  0  0  0  0  0  0  0  0  0
  142.6083   76.2032  220.0561 H   0  0  0  0  0  0  0  0  0  0  0  0
  141.8667   74.6800  219.4289 H   0  0  0  0  0  0  0  0  0  0  0  0
  143.7410   74.4140  220.4400 C   0  0  0  0  0  0  0  0  0  0  0  0
  143.9560   74.2963  221.5123 H   0  0  0  0  0  0  0  0  0  0  0  0
  143.6814   73.4227  219.9670 H   0  0  0  0  0  0  0  0  0  0  0  0
  144.5440   74.9983  219.9670 H   0  0  0  0  0  0  0  0  0  0  0  0
  140.9200   77.2040  222.3970 C   0  0  0  0  0  0  0  0  0  0  0  0
  141.9712   77.5054  222.5161 H   0  0  0  0  0  0  0  0  0  0  0  0
  1  2  1  0
  2  3  1  0
  3  4  2  3
  4  5  1  0
  5  6  1  0
  5  7  1  0
  5  8  1  0
  8  9  1  0
  8 10  1  0
  3 11  1  0
 11 12  2  0
 12 13  1  0
 12 14  1  0
 14 15  1  0
 14 16  2  0
 16 17  1  0
 17 18  1  0
 18 19  1  0
 18 20  2  0
 20 21  1  0
 21 22  1  0
 22 23  2  0
 23 24  1  0
 23 25  1  0
 25 26  1  0
 26 27  2  0
 26 28  1  0
 25 29  2  0
 29 30  1  0
 29 31  1  0
 31 32  1  0
 31 33  2  0
 33 34  1  0
 20 35  1  0
 35 36  1  0
 16 37  1  0
 37 38  1  0
 38 39  1  0
 39 40  1  0
 39 41  1  0
 39 42  1  0
 42 43  1  0
 42 44  1  0
 42 45  1  0
 37 46  2  0
 46 47  1  0
  8  4  1  0
 46 11  1  0
 33 22  1  0
M  CHG  3  21  -1  26   1  28  -1
M  END
>  <UniqueID>  (55) 
7

>  <SMILES>  (55) 
CCOc1cc(C(O)=C2CC2)ccc1O/C=C(\O)[N-]c1cc([N+](=O)[O-])ccc1Cl

>  <Energy>  (55) 
226.2310573201046

>  <Genealogy>  (55) 
CCOc1cc(C(=O)C2CC2)ccc1OCC(=O)[N-]c1cc([N+](=O)[O-])ccc1Cl (protonated)
CCOc1cc(C(O)=C2CC2)ccc1OC=C(O)[N-]c1cc([N+](=O)[O-])ccc1Cl (tautomer)
CCOc1cc(C(O)=C2CC2)ccc1O/C=C(\O)[N-]c1cc([N+](=O)[O-])ccc1Cl (cis-trans isomerization)
CCOc1cc(C(O)=C2CC2)ccc1O/C=C(\O)[N-]c1cc([N+](=O)[O-])ccc1Cl (3D coordinates assigned)
CCOc1cc(C(O)=C2CC2)ccc1O/C=C(\O)[N-]c1cc([N+](=O)[O-])ccc1Cl (nonaromatic ring conformer: 226.2310573201046 kcal/mol)

>  <smiles>  (55) 
CCOc1cc(C(=O)C2CC2)ccc1OCC(=O)Nc1cc([N+](=O)[O-])ccc1Cl

>  <score_type>  (55) 
oracle

>  <origin>  (55) 
autodockgpu

>  <m_score__min__energy>  (55) 
-6.4500000000000002

>  <m_primary>  (55) 
energy

>  <meeko>  (55) 
{"free_energy": -6.45, "intermolecular_energy": -10.03, "internal_energy": -2.39, "cluster_size": 8, "cluster_id": 1, "rank_in_cluster": 1}

>  <energy>  (55) 
-3.56

>  <cluster_rmsd>  (55) 
0.0

>  <rmsd>  (55) 
269.62

>  <cluster>  (55) 
7

$$$$
VUCFXBNYDUPJQC-ODLFYWEKNA-N
     RDKit          3D

 47 49  0  0  0  0  0  0  0  0999 V2000
  138.7180   79.2820  224.4410 H   0  0  0  0  0  0  0  0  0  0  0  0
  139.4290   79.8650  224.0140 O   0  0  0  0  0  0  0  0  0  0  0  0
  140.5220   79.3190  223.3400 C   0  0  0  0  0  0  0  0  0  0  0  0
  141.6970   79.9440  223.4260 C   0  0  0  0  0  0  0  0  0  0  0  0
  142.5950   81.0140  224.0420 C   0  0  0  0  0  0  0  0  0  0  0  0
  142.4064   82.0750  223.8214 H   0  0  0  0  0  0  0  0  0  0  0  0
  142.8826   81.2700  225.0724 H   0  0  0  0  0  0  0  0  0  0  0  0
  143.1570   80.1740  223.0360 C   0  0  0  0  0  0  0  0  0  0  0  0
  143.3965   80.5940  222.0479 H   0  0  0  0  0  0  0  0  0  0  0  0
  144.0467   79.5290  222.9869 H   0  0  0  0  0  0  0  0  0  0  0  0
  140.3450   78.0640  222.5590 C   0  0  0  0  0  0  0  0  0  0  0  0
  141.3210   77.6030  221.6550 C   0  0  0  0  0  0  0  0  0  0  0  0
  142.2470   78.1797  221.5137 H   0  0  0  0  0  0  0  0  0  0  0  0
  141.1270   76.4240  220.9370 C   0  0  0  0  0  0  0  0  0  0  0  0
  141.8984   76.0822  220.2313 H   0  0  0  0  0  0  0  0  0  0  0  0
  139.9540   75.6680  221.1070 C   0  0  0  0  0  0  0  0  0  0  0  0
  139.7210   74.4790  220.4000 O   0  0  0  0  0  0  0  0  0  0  0  0
  140.1490   73.2110  220.8060 C   0  0  0  0  0  0  0  0  0  0  0  0
  140.8030   72.6190  220.1488 H   0  0  0  0  0  0  0  0  0  0  0  0
  139.7680   72.7120  221.9900 C   0  0  0  0  0  0  0  0  0  0  0  0
  140.6880   71.9930  222.8250 N   0  0  0  0  0  0  0  0  0  0  0  0
  140.3610   71.2870  224.0310 C   0  0  0  0  0  0  0  0  0  0  0  0
  140.6680   71.8830  225.2610 C   0  0  0  0  0  0  0  0  0  0  0  0
  141.1497   72.8717  225.2802 H   0  0  0  0  0  0  0  0  0  0  0  0
  140.3680   71.2330  226.4720 C   0  0  0  0  0  0  0  0  0  0  0  0
  140.7030   71.8390  227.7350 N   0  0  0  0  0  0  0  0  0  0  0  0
  139.9560   71.7010  228.7260 O   0  0  0  0  0  0  0  0  0  0  0  0
  141.8520   72.5830  227.8710 O   0  0  0  0  0  0  0  0  0  0  0  0
  139.7360   69.9800  226.4320 C   0  0  0  0  0  0  0  0  0  0  0  0
  139.5061   69.4544  227.3706 H   0  0  0  0  0  0  0  0  0  0  0  0
  139.3970   69.3960  225.2100 C   0  0  0  0  0  0  0  0  0  0  0  0
  138.8918   68.4190  225.1933 H   0  0  0  0  0  0  0  0  0  0  0  0
  139.6950   70.0440  224.0070 C   0  0  0  0  0  0  0  0  0  0  0  0
  139.1520   69.3100  222.5030 Cl  0  0  0  0  0  0  0  0  0  0  0  0
  138.4680   72.9030  222.4580 O   0  0  0  0  0  0  0  0  0  0  0  0
  138.1150   73.8110  222.7350 H   0  0  0  0  0  0  0  0  0  0  0  0
  138.9640   76.1190  221.9920 C   0  0  0  0  0  0  0  0  0  0  0  0
  137.7950   75.3470  222.1200 O   0  0  0  0  0  0  0  0  0  0  0  0
  136.7350   75.2710  221.1660 C   0  0  0  0  0  0  0  0  0  0  0  0
  135.8167   74.9404  221.6734 H   0  0  0  0  0  0  0  0  0  0  0  0
  137.0191   74.5547  220.3810 H   0  0  0  0  0  0  0  0  0  0  0  0
  136.4870   76.6290  220.5200 C   0  0  0  0  0  0  0  0  0  0  0  0
  136.3484   77.3881  221.3039 H   0  0  0  0  0  0  0  0  0  0  0  0
  137.3504   76.9008  219.8949 H   0  0  0  0  0  0  0  0  0  0  0  0
  135.5833   76.5781  219.8949 H   0  0  0  0  0  0  0  0  0  0  0  0
  139.1640   77.3150  222.7110 C   0  0  0  0  0  0  0  0  0  0  0  0
  138.3842   77.6681  223.4018 H   0  0  0  0  0  0  0  0  0  0  0  0
  1  2  1  0
  2  3  1  0
  3  4  2  3
  4  5  1  0
  5  6  1  0
  5  7  1  0
  5  8  1  0
  8  9  1  0
  8 10  1  0
  3 11  1  0
 11 12  2  0
 12 13  1  0
 12 14  1  0
 14 15  1  0
 14 16  2  0
 16 17  1  0
 17 18  1  0
 18 19  1  0
 18 20  2  0
 20 21  1  0
 21 22  1  0
 22 23  2  0
 23 24  1  0
 23 25  1  0
 25 26  1  0
 26 27  2  0
 26 28  1  0
 25 29  2  0
 29 30  1  0
 29 31  1  0
 31 32  1  0
 31 33  2  0
 33 34  1  0
 20 35  1  0
 35 36  1  0
 16 37  1  0
 37 38  1  0
 38 39  1  0
 39 40  1  0
 39 41  1  0
 39 42  1  0
 42 43  1  0
 42 44  1  0
 42 45  1  0
 37 46  2  0
 46 47  1  0
  8  4  1  0
 46 11  1  0
 33 22  1  0
M  CHG  3  21  -1  26   1  28  -1
M  END
>  <UniqueID>  (56) 
7

>  <SMILES>  (56) 
CCOc1cc(C(O)=C2CC2)ccc1O/C=C(\O)[N-]c1cc([N+](=O)[O-])ccc1Cl

>  <Energy>  (56) 
226.2310573201046

>  <Genealogy>  (56) 
CCOc1cc(C(=O)C2CC2)ccc1OCC(=O)[N-]c1cc([N+](=O)[O-])ccc1Cl (protonated)
CCOc1cc(C(O)=C2CC2)ccc1OC=C(O)[N-]c1cc([N+](=O)[O-])ccc1Cl (tautomer)
CCOc1cc(C(O)=C2CC2)ccc1O/C=C(\O)[N-]c1cc([N+](=O)[O-])ccc1Cl (cis-trans isomerization)
CCOc1cc(C(O)=C2CC2)ccc1O/C=C(\O)[N-]c1cc([N+](=O)[O-])ccc1Cl (3D coordinates assigned)
CCOc1cc(C(O)=C2CC2)ccc1O/C=C(\O)[N-]c1cc([N+](=O)[O-])ccc1Cl (nonaromatic ring conformer: 226.2310573201046 kcal/mol)

>  <smiles>  (56) 
CCOc1cc(C(=O)C2CC2)ccc1OCC(=O)Nc1cc([N+](=O)[O-])ccc1Cl

>  <score_type>  (56) 
oracle

>  <origin>  (56) 
autodockgpu

>  <m_score__min__energy>  (56) 
-6.4500000000000002

>  <m_primary>  (56) 
energy

>  <meeko>  (56) 
{"free_energy": -5.59, "intermolecular_energy": -9.17, "internal_energy": -2.17, "cluster_size": 8, "cluster_id": 1, "rank_in_cluster": 8}

>  <energy>  (56) 
-3.55

>  <cluster_rmsd>  (56) 
0.0

>  <rmsd>  (56) 
270.62

>  <cluster>  (56) 
8

$$$$
VUCFXBNYDUPJQC-ODLFYWEKNA-N
     RDKit          3D

 47 49  0  0  0  0  0  0  0  0999 V2000
  138.2000   80.4770  223.4130 H   0  0  0  0  0  0  0  0  0  0  0  0
  139.0060   80.1370  223.9250 O   0  0  0  0  0  0  0  0  0  0  0  0
  140.0010   79.3750  223.3110 C   0  0  0  0  0  0  0  0  0  0  0  0
  141.2310   79.8860  223.2280 C   0  0  0  0  0  0  0  0  0  0  0  0
  142.1730   81.0840  223.1540 C   0  0  0  0  0  0  0  0  0  0  0  0
  142.1969   81.7016  222.2440 H   0  0  0  0  0  0  0  0  0  0  0  0
  142.3222   81.9789  223.7760 H   0  0  0  0  0  0  0  0  0  0  0  0
  142.7520   79.7810  223.1370 C   0  0  0  0  0  0  0  0  0  0  0  0
  143.2171   79.4043  222.2141 H   0  0  0  0  0  0  0  0  0  0  0  0
  143.5218   79.2777  223.7404 H   0  0  0  0  0  0  0  0  0  0  0  0
  139.6630   78.0260  222.7820 C   0  0  0  0  0  0  0  0  0  0  0  0
  138.3810   77.4640  222.9330 C   0  0  0  0  0  0  0  0  0  0  0  0
  137.5972   78.0312  223.4564 H   0  0  0  0  0  0  0  0  0  0  0  0
  138.0930   76.1970  222.4270 C   0  0  0  0  0  0  0  0  0  0  0  0
  137.0873   75.7717  222.5602 H   0  0  0  0  0  0  0  0  0  0  0  0
  139.0780   75.4590  221.7480 C   0  0  0  0  0  0  0  0  0  0  0  0
  138.8270   74.1790  221.2280 O   0  0  0  0  0  0  0  0  0  0  0  0
  138.7420   73.0110  221.9910 C   0  0  0  0  0  0  0  0  0  0  0  0
  137.7554   72.6122  222.2696 H   0  0  0  0  0  0  0  0  0  0  0  0
  139.8520   72.3730  222.3860 C   0  0  0  0  0  0  0  0  0  0  0  0
  139.8100   71.0080  222.8290 N   0  0  0  0  0  0  0  0  0  0  0  0
  139.8480   70.5610  224.1930 C   0  0  0  0  0  0  0  0  0  0  0  0
  140.2780   71.4570  225.1800 C   0  0  0  0  0  0  0  0  0  0  0  0
  140.5748   72.4773  224.8954 H   0  0  0  0  0  0  0  0  0  0  0  0
  140.3350   71.0680  226.5310 C   0  0  0  0  0  0  0  0  0  0  0  0
  140.7970   71.9840  227.5420 N   0  0  0  0  0  0  0  0  0  0  0  0
  141.8390   72.6510  227.3680 O   0  0  0  0  0  0  0  0  0  0  0  0
  140.0980   72.1400  228.7160 O   0  0  0  0  0  0  0  0  0  0  0  0
  139.9330   69.7690  226.8810 C   0  0  0  0  0  0  0  0  0  0  0  0
  139.9825   69.4469  227.9316 H   0  0  0  0  0  0  0  0  0  0  0  0
  139.4710   68.8830  225.9060 C   0  0  0  0  0  0  0  0  0  0  0  0
  139.1488   67.8719  226.1955 H   0  0  0  0  0  0  0  0  0  0  0  0
  139.4150   69.2720  224.5640 C   0  0  0  0  0  0  0  0  0  0  0  0
  138.7280   68.1500  223.3960 Cl  0  0  0  0  0  0  0  0  0  0  0  0
  141.0920   73.0120  222.3480 O   0  0  0  0  0  0  0  0  0  0  0  0
  141.2670   73.8320  221.7800 H   0  0  0  0  0  0  0  0  0  0  0  0
  140.3650   75.9960  221.6000 C   0  0  0  0  0  0  0  0  0  0  0  0
  141.3290   75.2180  220.9330 O   0  0  0  0  0  0  0  0  0  0  0  0
  142.2860   75.7010  219.9890 C   0  0  0  0  0  0  0  0  0  0  0  0
  142.4869   76.7635  220.1909 H   0  0  0  0  0  0  0  0  0  0  0  0
  141.8765   75.5741  218.9760 H   0  0  0  0  0  0  0  0  0  0  0  0
  143.5900   74.9180  220.0900 C   0  0  0  0  0  0  0  0  0  0  0  0
  143.8447   74.7650  221.1491 H   0  0  0  0  0  0  0  0  0  0  0  0
  143.4708   73.9420  219.5969 H   0  0  0  0  0  0  0  0  0  0  0  0
  144.3955   75.4820  219.5969 H   0  0  0  0  0  0  0  0  0  0  0  0
  140.6500   77.2740  222.1180 C   0  0  0  0  0  0  0  0  0  0  0  0
  141.6610   77.6916  222.0017 H   0  0  0  0  0  0  0  0  0  0  0  0
  1  2  1  0
  2  3  1  0
  3  4  2  3
  4  5  1  0
  5  6  1  0
  5  7  1  0
  5  8  1  0
  8  9  1  0
  8 10  1  0
  3 11  1  0
 11 12  2  0
 12 13  1  0
 12 14  1  0
 14 15  1  0
 14 16  2  0
 16 17  1  0
 17 18  1  0
 18 19  1  0
 18 20  2  0
 20 21  1  0
 21 22  1  0
 22 23  2  0
 23 24  1  0
 23 25  1  0
 25 26  1  0
 26 27  2  0
 26 28  1  0
 25 29  2  0
 29 30  1  0
 29 31  1  0
 31 32  1  0
 31 33  2  0
 33 34  1  0
 20 35  1  0
 35 36  1  0
 16 37  1  0
 37 38  1  0
 38 39  1  0
 39 40  1  0
 39 41  1  0
 39 42  1  0
 42 43  1  0
 42 44  1  0
 42 45  1  0
 37 46  2  0
 46 47  1  0
  8  4  1  0
 46 11  1  0
 33 22  1  0
M  CHG  3  21  -1  26   1  28  -1
M  END
>  <UniqueID>  (57) 
7

>  <SMILES>  (57) 
CCOc1cc(C(O)=C2CC2)ccc1O/C=C(\O)[N-]c1cc([N+](=O)[O-])ccc1Cl

>  <Energy>  (57) 
226.2310573201046

>  <Genealogy>  (57) 
CCOc1cc(C(=O)C2CC2)ccc1OCC(=O)[N-]c1cc([N+](=O)[O-])ccc1Cl (protonated)
CCOc1cc(C(O)=C2CC2)ccc1OC=C(O)[N-]c1cc([N+](=O)[O-])ccc1Cl (tautomer)
CCOc1cc(C(O)=C2CC2)ccc1O/C=C(\O)[N-]c1cc([N+](=O)[O-])ccc1Cl (cis-trans isomerization)
CCOc1cc(C(O)=C2CC2)ccc1O/C=C(\O)[N-]c1cc([N+](=O)[O-])ccc1Cl (3D coordinates assigned)
CCOc1cc(C(O)=C2CC2)ccc1O/C=C(\O)[N-]c1cc([N+](=O)[O-])ccc1Cl (nonaromatic ring conformer: 226.2310573201046 kcal/mol)

>  <smiles>  (57) 
CCOc1cc(C(=O)C2CC2)ccc1OCC(=O)Nc1cc([N+](=O)[O-])ccc1Cl

>  <score_type>  (57) 
oracle

>  <origin>  (57) 
autodockgpu

>  <m_score__min__energy>  (57) 
-6.4500000000000002

>  <m_primary>  (57) 
energy

>  <meeko>  (57) 
{"free_energy": -6.35, "intermolecular_energy": -9.93, "internal_energy": -2.34, "cluster_size": 8, "cluster_id": 1, "rank_in_cluster": 4}

>  <energy>  (57) 
-3.38

>  <cluster_rmsd>  (57) 
0.0

>  <rmsd>  (57) 
271.17

>  <cluster>  (57) 
9

$$$$
VUCFXBNYDUPJQC-ODLFYWEKNA-N
     RDKit          3D

 47 49  0  0  0  0  0  0  0  0999 V2000
  138.2930   80.2810  223.6590 H   0  0  0  0  0  0  0  0  0  0  0  0
  139.2070   80.1130  224.0640 O   0  0  0  0  0  0  0  0  0  0  0  0
  140.1910   79.3910  223.3880 C   0  0  0  0  0  0  0  0  0  0  0  0
  141.4130   79.9190  223.2920 C   0  0  0  0  0  0  0  0  0  0  0  0
  142.6010   80.3820  222.4540 C   0  0  0  0  0  0  0  0  0  0  0  0
  143.2275   79.6376  221.9407 H   0  0  0  0  0  0  0  0  0  0  0  0
  142.7159   81.0753  221.6077 H   0  0  0  0  0  0  0  0  0  0  0  0
  142.6910   80.5230  223.8700 C   0  0  0  0  0  0  0  0  0  0  0  0
  143.3857   79.8860  224.4371 H   0  0  0  0  0  0  0  0  0  0  0  0
  142.9021   81.3671  224.5431 H   0  0  0  0  0  0  0  0  0  0  0  0
  139.8520   78.0630  222.8070 C   0  0  0  0  0  0  0  0  0  0  0  0
  138.5200   77.6670  222.5780 C   0  0  0  0  0  0  0  0  0  0  0  0
  137.6977   78.3524  222.8312 H   0  0  0  0  0  0  0  0  0  0  0  0
  138.2320   76.4160  222.0340 C   0  0  0  0  0  0  0  0  0  0  0  0
  137.1853   76.1210  221.8685 H   0  0  0  0  0  0  0  0  0  0  0  0
  139.2690   75.5280  221.6950 C   0  0  0  0  0  0  0  0  0  0  0  0
  139.0180   74.2600  221.1490 O   0  0  0  0  0  0  0  0  0  0  0  0
  138.5490   73.1590  221.8700 C   0  0  0  0  0  0  0  0  0  0  0  0
  137.4770   72.9129  221.8541 H   0  0  0  0  0  0  0  0  0  0  0  0
  139.3950   72.4000  222.5810 C   0  0  0  0  0  0  0  0  0  0  0  0
  138.9530   71.1980  223.2280 N   0  0  0  0  0  0  0  0  0  0  0  0
  139.5210   70.6170  224.4110 C   0  0  0  0  0  0  0  0  0  0  0  0
  140.0150   71.4700  225.4070 C   0  0  0  0  0  0  0  0  0  0  0  0
  139.9593   72.5594  225.2655 H   0  0  0  0  0  0  0  0  0  0  0  0
  140.5810   70.9510  226.5850 C   0  0  0  0  0  0  0  0  0  0  0  0
  141.1060   71.8300  227.5980 N   0  0  0  0  0  0  0  0  0  0  0  0
  140.5900   71.8730  228.7340 O   0  0  0  0  0  0  0  0  0  0  0  0
  142.1860   72.6400  227.3300 O   0  0  0  0  0  0  0  0  0  0  0  0
  140.6290   69.5580  226.7600 C   0  0  0  0  0  0  0  0  0  0  0  0
  141.0805   69.1373  227.6706 H   0  0  0  0  0  0  0  0  0  0  0  0
  140.1080   68.7040  225.7870 C   0  0  0  0  0  0  0  0  0  0  0  0
  140.1412   67.6154  225.9416 H   0  0  0  0  0  0  0  0  0  0  0  0
  139.5440   69.2220  224.6170 C   0  0  0  0  0  0  0  0  0  0  0  0
  138.8110   68.1020  223.4740 Cl  0  0  0  0  0  0  0  0  0  0  0  0
  140.7430   72.7450  222.6870 O   0  0  0  0  0  0  0  0  0  0  0  0
  141.1530   73.5140  222.1700 H   0  0  0  0  0  0  0  0  0  0  0  0
  140.6000   75.9000  221.9290 C   0  0  0  0  0  0  0  0  0  0  0  0
  141.6090   74.9760  221.5970 O   0  0  0  0  0  0  0  0  0  0  0  0
  142.4860   75.0650  220.4740 C   0  0  0  0  0  0  0  0  0  0  0  0
  142.2651   74.2420  219.7784 H   0  0  0  0  0  0  0  0  0  0  0  0
  143.5238   74.9971  220.8322 H   0  0  0  0  0  0  0  0  0  0  0  0
  142.3070   76.3940  219.7480 C   0  0  0  0  0  0  0  0  0  0  0  0
  142.1981   77.2029  220.4854 H   0  0  0  0  0  0  0  0  0  0  0  0
  143.1870   76.5888  219.1174 H   0  0  0  0  0  0  0  0  0  0  0  0
  141.4068   76.3490  219.1174 H   0  0  0  0  0  0  0  0  0  0  0  0
  140.8840   77.1630  222.4850 C   0  0  0  0  0  0  0  0  0  0  0  0
  141.9296   77.4499  222.6703 H   0  0  0  0  0  0  0  0  0  0  0  0
  1  2  1  0
  2  3  1  0
  3  4  2  3
  4  5  1  0
  5  6  1  0
  5  7  1  0
  5  8  1  0
  8  9  1  0
  8 10  1  0
  3 11  1  0
 11 12  2  0
 12 13  1  0
 12 14  1  0
 14 15  1  0
 14 16  2  0
 16 17  1  0
 17 18  1  0
 18 19  1  0
 18 20  2  0
 20 21  1  0
 21 22  1  0
 22 23  2  0
 23 24  1  0
 23 25  1  0
 25 26  1  0
 26 27  2  0
 26 28  1  0
 25 29  2  0
 29 30  1  0
 29 31  1  0
 31 32  1  0
 31 33  2  0
 33 34  1  0
 20 35  1  0
 35 36  1  0
 16 37  1  0
 37 38  1  0
 38 39  1  0
 39 40  1  0
 39 41  1  0
 39 42  1  0
 42 43  1  0
 42 44  1  0
 42 45  1  0
 37 46  2  0
 46 47  1  0
  8  4  1  0
 46 11  1  0
 33 22  1  0
M  CHG  3  21  -1  26   1  28  -1
M  END
>  <UniqueID>  (58) 
7

>  <SMILES>  (58) 
CCOc1cc(C(O)=C2CC2)ccc1O/C=C(\O)[N-]c1cc([N+](=O)[O-])ccc1Cl

>  <Energy>  (58) 
226.2310573201046

>  <Genealogy>  (58) 
CCOc1cc(C(=O)C2CC2)ccc1OCC(=O)[N-]c1cc([N+](=O)[O-])ccc1Cl (protonated)
CCOc1cc(C(O)=C2CC2)ccc1OC=C(O)[N-]c1cc([N+](=O)[O-])ccc1Cl (tautomer)
CCOc1cc(C(O)=C2CC2)ccc1O/C=C(\O)[N-]c1cc([N+](=O)[O-])ccc1Cl (cis-trans isomerization)
CCOc1cc(C(O)=C2CC2)ccc1O/C=C(\O)[N-]c1cc([N+](=O)[O-])ccc1Cl (3D coordinates assigned)
CCOc1cc(C(O)=C2CC2)ccc1O/C=C(\O)[N-]c1cc([N+](=O)[O-])ccc1Cl (nonaromatic ring conformer: 226.2310573201046 kcal/mol)

>  <smiles>  (58) 
CCOc1cc(C(=O)C2CC2)ccc1OCC(=O)Nc1cc([N+](=O)[O-])ccc1Cl

>  <score_type>  (58) 
oracle

>  <origin>  (58) 
autodockgpu

>  <m_score__min__energy>  (58) 
-6.4500000000000002

>  <m_primary>  (58) 
energy

>  <meeko>  (58) 
{"free_energy": -6.31, "intermolecular_energy": -9.89, "internal_energy": -2.44, "cluster_size": 8, "cluster_id": 1, "rank_in_cluster": 5}

>  <energy>  (58) 
-3.23

>  <cluster_rmsd>  (58) 
0.41

>  <rmsd>  (58) 
271.11

>  <cluster>  (58) 
9

$$$$
VUCFXBNYDUPJQC-ODLFYWEKNA-N
     RDKit          3D

 47 49  0  0  0  0  0  0  0  0999 V2000
  140.5940   81.3550  223.4070 H   0  0  0  0  0  0  0  0  0  0  0  0
  139.7250   81.6290  222.9640 O   0  0  0  0  0  0  0  0  0  0  0  0
  138.5430   80.9130  223.1540 C   0  0  0  0  0  0  0  0  0  0  0  0
  137.6320   81.4050  223.9960 C   0  0  0  0  0  0  0  0  0  0  0  0
  136.8450   81.3260  225.3020 C   0  0  0  0  0  0  0  0  0  0  0  0
  136.0795   80.5463  225.4293 H   0  0  0  0  0  0  0  0  0  0  0  0
  137.1281   81.2335  226.3609 H   0  0  0  0  0  0  0  0  0  0  0  0
  136.5890   82.4310  224.4370 C   0  0  0  0  0  0  0  0  0  0  0  0
  135.6286   82.4939  223.9044 H   0  0  0  0  0  0  0  0  0  0  0  0
  136.5977   83.5232  224.5678 H   0  0  0  0  0  0  0  0  0  0  0  0
  138.3340   79.6390  222.4130 C   0  0  0  0  0  0  0  0  0  0  0  0
  138.4390   79.5660  221.0110 C   0  0  0  0  0  0  0  0  0  0  0  0
  138.6821   80.4714  220.4356 H   0  0  0  0  0  0  0  0  0  0  0  0
  138.2380   78.3580  220.3440 C   0  0  0  0  0  0  0  0  0  0  0  0
  138.3189   78.3206  219.2476 H   0  0  0  0  0  0  0  0  0  0  0  0
  137.9330   77.1880  221.0600 C   0  0  0  0  0  0  0  0  0  0  0  0
  137.7200   75.9560  220.4240 O   0  0  0  0  0  0  0  0  0  0  0  0
  138.6930   74.9660  220.2540 C   0  0  0  0  0  0  0  0  0  0  0  0
  138.6103   74.2574  219.4167 H   0  0  0  0  0  0  0  0  0  0  0  0
  139.7260   74.8740  221.1040 C   0  0  0  0  0  0  0  0  0  0  0  0
  140.9940   75.4750  220.8020 N   0  0  0  0  0  0  0  0  0  0  0  0
  141.2790   76.8810  220.7770 C   0  0  0  0  0  0  0  0  0  0  0  0
  141.3530   77.5730  221.9930 C   0  0  0  0  0  0  0  0  0  0  0  0
  141.1932   77.0308  222.9366 H   0  0  0  0  0  0  0  0  0  0  0  0
  141.6290   78.9520  222.0230 C   0  0  0  0  0  0  0  0  0  0  0  0
  141.6850   79.6630  223.2740 N   0  0  0  0  0  0  0  0  0  0  0  0
  140.8820   79.3990  224.1940 O   0  0  0  0  0  0  0  0  0  0  0  0
  142.6240   80.6480  223.4760 O   0  0  0  0  0  0  0  0  0  0  0  0
  141.8480   79.6270  220.8110 C   0  0  0  0  0  0  0  0  0  0  0  0
  142.0526   80.7078  220.8173 H   0  0  0  0  0  0  0  0  0  0  0  0
  141.8080   78.9370  219.5990 C   0  0  0  0  0  0  0  0  0  0  0  0
  141.9927   79.4759  218.6580 H   0  0  0  0  0  0  0  0  0  0  0  0
  141.5350   77.5660  219.5710 C   0  0  0  0  0  0  0  0  0  0  0  0
  141.6010   76.7310  218.0240 Cl  0  0  0  0  0  0  0  0  0  0  0  0
  139.5860   74.2140  222.3250 O   0  0  0  0  0  0  0  0  0  0  0  0
  138.7940   74.3610  222.9380 H   0  0  0  0  0  0  0  0  0  0  0  0
  137.8100   77.2450  222.4560 C   0  0  0  0  0  0  0  0  0  0  0  0
  137.4840   76.0570  223.1360 O   0  0  0  0  0  0  0  0  0  0  0  0
  136.1640   75.5940  223.4220 C   0  0  0  0  0  0  0  0  0  0  0  0
  135.4368   76.3471  223.0842 H   0  0  0  0  0  0  0  0  0  0  0  0
  136.0744   75.4337  224.5066 H   0  0  0  0  0  0  0  0  0  0  0  0
  135.8850   74.2750  222.7090 C   0  0  0  0  0  0  0  0  0  0  0  0
  135.7176   73.4835  223.4544 H   0  0  0  0  0  0  0  0  0  0  0  0
  134.9894   74.3809  222.0792 H   0  0  0  0  0  0  0  0  0  0  0  0
  136.7468   74.0092  222.0792 H   0  0  0  0  0  0  0  0  0  0  0  0
  138.0100   78.4690  223.1240 C   0  0  0  0  0  0  0  0  0  0  0  0
  137.9113   78.5107  224.2188 H   0  0  0  0  0  0  0  0  0  0  0  0
  1  2  1  0
  2  3  1  0
  3  4  2  3
  4  5  1  0
  5  6  1  0
  5  7  1  0
  5  8  1  0
  8  9  1  0
  8 10  1  0
  3 11  1  0
 11 12  2  0
 12 13  1  0
 12 14  1  0
 14 15  1  0
 14 16  2  0
 16 17  1  0
 17 18  1  0
 18 19  1  0
 18 20  2  0
 20 21  1  0
 21 22  1  0
 22 23  2  0
 23 24  1  0
 23 25  1  0
 25 26  1  0
 26 27  2  0
 26 28  1  0
 25 29  2  0
 29 30  1  0
 29 31  1  0
 31 32  1  0
 31 33  2  0
 33 34  1  0
 20 35  1  0
 35 36  1  0
 16 37  1  0
 37 38  1  0
 38 39  1  0
 39 40  1  0
 39 41  1  0
 39 42  1  0
 42 43  1  0
 42 44  1  0
 42 45  1  0
 37 46  2  0
 46 47  1  0
  8  4  1  0
 46 11  1  0
 33 22  1  0
M  CHG  3  21  -1  26   1  28  -1
M  END
>  <UniqueID>  (59) 
7

>  <SMILES>  (59) 
CCOc1cc(C(O)=C2CC2)ccc1O/C=C(\O)[N-]c1cc([N+](=O)[O-])ccc1Cl

>  <Energy>  (59) 
226.2310573201046

>  <Genealogy>  (59) 
CCOc1cc(C(=O)C2CC2)ccc1OCC(=O)[N-]c1cc([N+](=O)[O-])ccc1Cl (protonated)
CCOc1cc(C(O)=C2CC2)ccc1OC=C(O)[N-]c1cc([N+](=O)[O-])ccc1Cl (tautomer)
CCOc1cc(C(O)=C2CC2)ccc1O/C=C(\O)[N-]c1cc([N+](=O)[O-])ccc1Cl (cis-trans isomerization)
CCOc1cc(C(O)=C2CC2)ccc1O/C=C(\O)[N-]c1cc([N+](=O)[O-])ccc1Cl (3D coordinates assigned)
CCOc1cc(C(O)=C2CC2)ccc1O/C=C(\O)[N-]c1cc([N+](=O)[O-])ccc1Cl (nonaromatic ring conformer: 226.2310573201046 kcal/mol)

>  <smiles>  (59) 
CCOc1cc(C(=O)C2CC2)ccc1OCC(=O)Nc1cc([N+](=O)[O-])ccc1Cl

>  <score_type>  (59) 
oracle

>  <origin>  (59) 
autodockgpu

>  <m_score__min__energy>  (59) 
-6.4500000000000002

>  <m_primary>  (59) 
energy

>  <meeko>  (59) 
{"free_energy": -3.23, "intermolecular_energy": -6.81, "internal_energy": -4.88, "cluster_size": 2, "cluster_id": 9, "rank_in_cluster": 2}

>  <energy>  (59) 
-3.32

>  <cluster_rmsd>  (59) 
0.0

>  <rmsd>  (59) 
271.05

>  <cluster>  (59) 
10

$$$$
VUCFXBNYDUPJQC-ODLFYWEKNA-N
     RDKit          3D

 47 49  0  0  0  0  0  0  0  0999 V2000
  138.6850   80.7560  223.2740 H   0  0  0  0  0  0  0  0  0  0  0  0
  139.1670   80.0570  223.8260 O   0  0  0  0  0  0  0  0  0  0  0  0
  140.1610   79.2430  223.2800 C   0  0  0  0  0  0  0  0  0  0  0  0
  141.4230   79.6750  223.3100 C   0  0  0  0  0  0  0  0  0  0  0  0
  142.8560   79.6390  222.7850 C   0  0  0  0  0  0  0  0  0  0  0  0
  143.4864   78.7599  222.9847 H   0  0  0  0  0  0  0  0  0  0  0  0
  143.3080   79.7478  221.7881 H   0  0  0  0  0  0  0  0  0  0  0  0
  142.5580   80.5480  223.8430 C   0  0  0  0  0  0  0  0  0  0  0  0
  142.9607   80.3621  224.8496 H   0  0  0  0  0  0  0  0  0  0  0  0
  142.6900   81.6313  223.9810 H   0  0  0  0  0  0  0  0  0  0  0  0
  139.7850   77.9280  222.6930 C   0  0  0  0  0  0  0  0  0  0  0  0
  138.4750   77.4200  222.7790 C   0  0  0  0  0  0  0  0  0  0  0  0
  137.6975   78.0046  223.2925 H   0  0  0  0  0  0  0  0  0  0  0  0
  138.1520   76.1830  222.2200 C   0  0  0  0  0  0  0  0  0  0  0  0
  137.1245   75.7988  222.3020 H   0  0  0  0  0  0  0  0  0  0  0  0
  139.1290   75.4240  221.5530 C   0  0  0  0  0  0  0  0  0  0  0  0
  138.8430   74.1740  220.9820 O   0  0  0  0  0  0  0  0  0  0  0  0
  138.4130   73.0500  221.6940 C   0  0  0  0  0  0  0  0  0  0  0  0
  137.3766   72.6981  221.5844 H   0  0  0  0  0  0  0  0  0  0  0  0
  139.2540   72.3980  222.5090 C   0  0  0  0  0  0  0  0  0  0  0  0
  138.8590   71.1880  223.1730 N   0  0  0  0  0  0  0  0  0  0  0  0
  139.4560   70.6410  224.3580 C   0  0  0  0  0  0  0  0  0  0  0  0
  139.9440   71.5220  225.3310 C   0  0  0  0  0  0  0  0  0  0  0  0
  139.8617   72.6072  225.1711 H   0  0  0  0  0  0  0  0  0  0  0  0
  140.5380   71.0370  226.5100 C   0  0  0  0  0  0  0  0  0  0  0  0
  141.0580   71.9450  227.4990 N   0  0  0  0  0  0  0  0  0  0  0  0
  142.0660   72.6410  227.2570 O   0  0  0  0  0  0  0  0  0  0  0  0
  140.4530   72.0600  228.7300 O   0  0  0  0  0  0  0  0  0  0  0  0
  140.6180   69.6490  226.7090 C   0  0  0  0  0  0  0  0  0  0  0  0
  141.0900   69.2546  227.6210 H   0  0  0  0  0  0  0  0  0  0  0  0
  140.1030   68.7660  225.7580 C   0  0  0  0  0  0  0  0  0  0  0  0
  140.1627   67.6814  225.9313 H   0  0  0  0  0  0  0  0  0  0  0  0
  139.5120   69.2500  224.5870 C   0  0  0  0  0  0  0  0  0  0  0  0
  138.7870   68.0950  223.4750 Cl  0  0  0  0  0  0  0  0  0  0  0  0
  140.5530   72.8630  222.7110 O   0  0  0  0  0  0  0  0  0  0  0  0
  140.9700   73.5880  222.1390 H   0  0  0  0  0  0  0  0  0  0  0  0
  140.4430   75.9070  221.4710 C   0  0  0  0  0  0  0  0  0  0  0  0
  141.3970   75.1080  220.8140 O   0  0  0  0  0  0  0  0  0  0  0  0
  142.5770   75.5810  220.1640 C   0  0  0  0  0  0  0  0  0  0  0  0
  142.8360   76.5725  220.5639 H   0  0  0  0  0  0  0  0  0  0  0  0
  142.3829   75.6422  219.0830 H   0  0  0  0  0  0  0  0  0  0  0  0
  143.7440   74.6280  220.3970 C   0  0  0  0  0  0  0  0  0  0  0  0
  143.9019   74.4991  221.4779 H   0  0  0  0  0  0  0  0  0  0  0  0
  143.5180   73.6530  219.9406 H   0  0  0  0  0  0  0  0  0  0  0  0
  144.6541   75.0443  219.9406 H   0  0  0  0  0  0  0  0  0  0  0  0
  140.7640   77.1550  222.0420 C   0  0  0  0  0  0  0  0  0  0  0  0
  141.7959   77.5305  221.9777 H   0  0  0  0  0  0  0  0  0  0  0  0
  1  2  1  0
  2  3  1  0
  3  4  2  3
  4  5  1  0
  5  6  1  0
  5  7  1  0
  5  8  1  0
  8  9  1  0
  8 10  1  0
  3 11  1  0
 11 12  2  0
 12 13  1  0
 12 14  1  0
 14 15  1  0
 14 16  2  0
 16 17  1  0
 17 18  1  0
 18 19  1  0
 18 20  2  0
 20 21  1  0
 21 22  1  0
 22 23  2  0
 23 24  1  0
 23 25  1  0
 25 26  1  0
 26 27  2  0
 26 28  1  0
 25 29  2  0
 29 30  1  0
 29 31  1  0
 31 32  1  0
 31 33  2  0
 33 34  1  0
 20 35  1  0
 35 36  1  0
 16 37  1  0
 37 38  1  0
 38 39  1  0
 39 40  1  0
 39 41  1  0
 39 42  1  0
 42 43  1  0
 42 44  1  0
 42 45  1  0
 37 46  2  0
 46 47  1  0
  8  4  1  0
 46 11  1  0
 33 22  1  0
M  CHG  3  21  -1  26   1  28  -1
M  END
>  <UniqueID>  (60) 
7

>  <SMILES>  (60) 
CCOc1cc(C(O)=C2CC2)ccc1O/C=C(\O)[N-]c1cc([N+](=O)[O-])ccc1Cl

>  <Energy>  (60) 
226.2310573201046

>  <Genealogy>  (60) 
CCOc1cc(C(=O)C2CC2)ccc1OCC(=O)[N-]c1cc([N+](=O)[O-])ccc1Cl (protonated)
CCOc1cc(C(O)=C2CC2)ccc1OC=C(O)[N-]c1cc([N+](=O)[O-])ccc1Cl (tautomer)
CCOc1cc(C(O)=C2CC2)ccc1O/C=C(\O)[N-]c1cc([N+](=O)[O-])ccc1Cl (cis-trans isomerization)
CCOc1cc(C(O)=C2CC2)ccc1O/C=C(\O)[N-]c1cc([N+](=O)[O-])ccc1Cl (3D coordinates assigned)
CCOc1cc(C(O)=C2CC2)ccc1O/C=C(\O)[N-]c1cc([N+](=O)[O-])ccc1Cl (nonaromatic ring conformer: 226.2310573201046 kcal/mol)

>  <smiles>  (60) 
CCOc1cc(C(=O)C2CC2)ccc1OCC(=O)Nc1cc([N+](=O)[O-])ccc1Cl

>  <score_type>  (60) 
oracle

>  <origin>  (60) 
autodockgpu

>  <m_score__min__energy>  (60) 
-6.4500000000000002

>  <m_primary>  (60) 
energy

>  <meeko>  (60) 
{"free_energy": -6.15, "intermolecular_energy": -9.73, "internal_energy": -2.32, "cluster_size": 8, "cluster_id": 1, "rank_in_cluster": 6}

>  <energy>  (60) 
-3.16

>  <cluster_rmsd>  (60) 
0.98

>  <rmsd>  (60) 
271.15

>  <cluster>  (60) 
10

$$$$
VUCFXBNYDUPJQC-ODLFYWEKNA-N
     RDKit          3D

 47 49  0  0  0  0  0  0  0  0999 V2000
  138.3350   79.9950  224.1560 H   0  0  0  0  0  0  0  0  0  0  0  0
  139.2950   80.3180  224.1070 O   0  0  0  0  0  0  0  0  0  0  0  0
  140.2900   79.5750  223.4690 C   0  0  0  0  0  0  0  0  0  0  0  0
  141.5220   80.0810  223.4110 C   0  0  0  0  0  0  0  0  0  0  0  0
  142.5990   81.0290  223.9340 C   0  0  0  0  0  0  0  0  0  0  0  0
  142.4881   82.1132  223.7850 H   0  0  0  0  0  0  0  0  0  0  0  0
  143.0512   81.2020  224.9217 H   0  0  0  0  0  0  0  0  0  0  0  0
  142.9290   80.1950  222.8250 C   0  0  0  0  0  0  0  0  0  0  0  0
  143.0693   80.6430  221.8302 H   0  0  0  0  0  0  0  0  0  0  0  0
  143.7345   79.4736  222.6232 H   0  0  0  0  0  0  0  0  0  0  0  0
  139.9480   78.2480  222.8860 C   0  0  0  0  0  0  0  0  0  0  0  0
  138.6140   77.8300  222.7140 C   0  0  0  0  0  0  0  0  0  0  0  0
  137.7920   78.4961  223.0152 H   0  0  0  0  0  0  0  0  0  0  0  0
  138.3240   76.5810  222.1660 C   0  0  0  0  0  0  0  0  0  0  0  0
  137.2764   76.2683  222.0449 H   0  0  0  0  0  0  0  0  0  0  0  0
  139.3600   75.7180  221.7670 C   0  0  0  0  0  0  0  0  0  0  0  0
  139.1070   74.4520  221.2150 O   0  0  0  0  0  0  0  0  0  0  0  0
  138.7260   73.3240  221.9470 C   0  0  0  0  0  0  0  0  0  0  0  0
  137.6589   73.1198  222.1191 H   0  0  0  0  0  0  0  0  0  0  0  0
  139.6510   72.4890  222.4410 C   0  0  0  0  0  0  0  0  0  0  0  0
  139.2930   71.1910  222.9390 N   0  0  0  0  0  0  0  0  0  0  0  0
  139.6430   70.6510  224.2220 C   0  0  0  0  0  0  0  0  0  0  0  0
  140.0970   71.5270  225.2170 C   0  0  0  0  0  0  0  0  0  0  0  0
  140.1760   72.6023  224.9989 H   0  0  0  0  0  0  0  0  0  0  0  0
  140.4530   71.0490  226.4910 C   0  0  0  0  0  0  0  0  0  0  0  0
  140.9380   71.9480  227.5050 N   0  0  0  0  0  0  0  0  0  0  0  0
  141.9390   72.6640  227.2960 O   0  0  0  0  0  0  0  0  0  0  0  0
  140.3060   72.0330  228.7240 O   0  0  0  0  0  0  0  0  0  0  0  0
  140.3300   69.6750  226.7590 C   0  0  0  0  0  0  0  0  0  0  0  0
  140.6169   69.2839  227.7463 H   0  0  0  0  0  0  0  0  0  0  0  0
  139.8470   68.8030  225.7830 C   0  0  0  0  0  0  0  0  0  0  0  0
  139.7440   67.7317  226.0105 H   0  0  0  0  0  0  0  0  0  0  0  0
  139.4930   69.2810  224.5180 C   0  0  0  0  0  0  0  0  0  0  0  0
  138.7930   68.1520  223.3630 Cl  0  0  0  0  0  0  0  0  0  0  0  0
  140.9990   72.8500  222.4590 O   0  0  0  0  0  0  0  0  0  0  0  0
  141.3480   73.6800  221.9960 H   0  0  0  0  0  0  0  0  0  0  0  0
  140.6940   76.1110  221.9450 C   0  0  0  0  0  0  0  0  0  0  0  0
  141.7020   75.2110  221.5540 O   0  0  0  0  0  0  0  0  0  0  0  0
  142.2620   75.1010  220.2450 C   0  0  0  0  0  0  0  0  0  0  0  0
  141.5120   74.6666  219.5677 H   0  0  0  0  0  0  0  0  0  0  0  0
  143.1520   74.4567  220.2963 H   0  0  0  0  0  0  0  0  0  0  0  0
  142.6800   76.4680  219.7160 C   0  0  0  0  0  0  0  0  0  0  0  0
  142.8858   77.1410  220.5614 H   0  0  0  0  0  0  0  0  0  0  0  0
  143.5868   76.3621  219.1024 H   0  0  0  0  0  0  0  0  0  0  0  0
  141.8690   76.8874  219.1024 H   0  0  0  0  0  0  0  0  0  0  0  0
  140.9800   77.3720  222.5040 C   0  0  0  0  0  0  0  0  0  0  0  0
  142.0277   77.6766  222.6441 H   0  0  0  0  0  0  0  0  0  0  0  0
  1  2  1  0
  2  3  1  0
  3  4  2  3
  4  5  1  0
  5  6  1  0
  5  7  1  0
  5  8  1  0
  8  9  1  0
  8 10  1  0
  3 11  1  0
 11 12  2  0
 12 13  1  0
 12 14  1  0
 14 15  1  0
 14 16  2  0
 16 17  1  0
 17 18  1  0
 18 19  1  0
 18 20  2  0
 20 21  1  0
 21 22  1  0
 22 23  2  0
 23 24  1  0
 23 25  1  0
 25 26  1  0
 26 27  2  0
 26 28  1  0
 25 29  2  0
 29 30  1  0
 29 31  1  0
 31 32  1  0
 31 33  2  0
 33 34  1  0
 20 35  1  0
 35 36  1  0
 16 37  1  0
 37 38  1  0
 38 39  1  0
 39 40  1  0
 39 41  1  0
 39 42  1  0
 42 43  1  0
 42 44  1  0
 42 45  1  0
 37 46  2  0
 46 47  1  0
  8  4  1  0
 46 11  1  0
 33 22  1  0
M  CHG  3  21  -1  26   1  28  -1
M  END
>  <UniqueID>  (61) 
8

>  <SMILES>  (61) 
CCOc1cc(C(O)=C2CC2)ccc1O/C=C(\O)[N-]c1cc([N+](=O)[O-])ccc1Cl

>  <Energy>  (61) 
226.5984288551089

>  <Genealogy>  (61) 
CCOc1cc(C(=O)C2CC2)ccc1OCC(=O)[N-]c1cc([N+](=O)[O-])ccc1Cl (protonated)
CCOc1cc(C(O)=C2CC2)ccc1OC=C(O)[N-]c1cc([N+](=O)[O-])ccc1Cl (tautomer)
CCOc1cc(C(O)=C2CC2)ccc1O/C=C(\O)[N-]c1cc([N+](=O)[O-])ccc1Cl (cis-trans isomerization)
CCOc1cc(C(O)=C2CC2)ccc1O/C=C(\O)[N-]c1cc([N+](=O)[O-])ccc1Cl (3D coordinates assigned)
CCOc1cc(C(O)=C2CC2)ccc1O/C=C(\O)[N-]c1cc([N+](=O)[O-])ccc1Cl (nonaromatic ring conformer: 226.5984288551089 kcal/mol)

>  <smiles>  (61) 
CCOc1cc(C(=O)C2CC2)ccc1OCC(=O)Nc1cc([N+](=O)[O-])ccc1Cl

>  <score_type>  (61) 
oracle

>  <origin>  (61) 
autodockgpu

>  <m_score__min__energy>  (61) 
-6.4500000000000002

>  <m_primary>  (61) 
energy

>  <meeko>  (61) 
{"free_energy": -6.43, "intermolecular_energy": -10.01, "internal_energy": -2.41, "cluster_size": 8, "cluster_id": 1, "rank_in_cluster": 3}

>  <energy>  (61) 
-6.45

>  <cluster_rmsd>  (61) 
0.0

>  <rmsd>  (61) 
271.81

>  <cluster>  (61) 
1

$$$$
VUCFXBNYDUPJQC-ODLFYWEKNA-N
     RDKit          3D

 47 49  0  0  0  0  0  0  0  0999 V2000
  146.3720   71.2150  220.0880 H   0  0  0  0  0  0  0  0  0  0  0  0
  146.4760   70.5540  219.3270 O   0  0  0  0  0  0  0  0  0  0  0  0
  145.4490   69.6820  218.9630 C   0  0  0  0  0  0  0  0  0  0  0  0
  145.7680   68.4300  218.6300 C   0  0  0  0  0  0  0  0  0  0  0  0
  145.9520   66.9600  218.9970 C   0  0  0  0  0  0  0  0  0  0  0  0
  146.7872   66.6626  219.6481 H   0  0  0  0  0  0  0  0  0  0  0  0
  145.3060   66.2020  219.4641 H   0  0  0  0  0  0  0  0  0  0  0  0
  146.2120   67.3460  217.6490 C   0  0  0  0  0  0  0  0  0  0  0  0
  147.2454   67.3435  217.2720 H   0  0  0  0  0  0  0  0  0  0  0  0
  145.8452   67.0028  216.6704 H   0  0  0  0  0  0  0  0  0  0  0  0
  144.0430   70.1690  218.9670 C   0  0  0  0  0  0  0  0  0  0  0  0
  143.6510   71.3230  218.2620 C   0  0  0  0  0  0  0  0  0  0  0  0
  144.3987   71.8893  217.6873 H   0  0  0  0  0  0  0  0  0  0  0  0
  142.3260   71.7560  218.2840 C   0  0  0  0  0  0  0  0  0  0  0  0
  142.0394   72.6626  217.7309 H   0  0  0  0  0  0  0  0  0  0  0  0
  141.3530   71.0440  219.0070 C   0  0  0  0  0  0  0  0  0  0  0  0
  140.0110   71.4510  219.0570 O   0  0  0  0  0  0  0  0  0  0  0  0
  139.4600   72.2640  220.0520 C   0  0  0  0  0  0  0  0  0  0  0  0
  138.5132   72.7912  219.8636 H   0  0  0  0  0  0  0  0  0  0  0  0
  140.0760   72.4060  221.2330 C   0  0  0  0  0  0  0  0  0  0  0  0
  140.6910   73.6480  221.6080 N   0  0  0  0  0  0  0  0  0  0  0  0
  141.8220   74.2580  220.9690 C   0  0  0  0  0  0  0  0  0  0  0  0
  143.0170   73.5320  220.8850 C   0  0  0  0  0  0  0  0  0  0  0  0
  143.0663   72.5170  221.3062 H   0  0  0  0  0  0  0  0  0  0  0  0
  144.1550   74.0840  220.2690 C   0  0  0  0  0  0  0  0  0  0  0  0
  145.3880   73.3430  220.2020 N   0  0  0  0  0  0  0  0  0  0  0  0
  145.8950   73.0490  219.0990 O   0  0  0  0  0  0  0  0  0  0  0  0
  146.0280   72.9440  221.3530 O   0  0  0  0  0  0  0  0  0  0  0  0
  144.0710   75.3740  219.7200 C   0  0  0  0  0  0  0  0  0  0  0  0
  144.9558   75.8243  219.2463 H   0  0  0  0  0  0  0  0  0  0  0  0
  142.8730   76.0890  219.7710 C   0  0  0  0  0  0  0  0  0  0  0  0
  142.8176   77.0938  219.3267 H   0  0  0  0  0  0  0  0  0  0  0  0
  141.7440   75.5380  220.3820 C   0  0  0  0  0  0  0  0  0  0  0  0
  140.2350   76.4420  220.3240 Cl  0  0  0  0  0  0  0  0  0  0  0  0
  140.1120   71.3540  222.1490 O   0  0  0  0  0  0  0  0  0  0  0  0
  140.2140   70.3870  221.8660 H   0  0  0  0  0  0  0  0  0  0  0  0
  141.7280   69.9010  219.7280 C   0  0  0  0  0  0  0  0  0  0  0  0
  140.7310   69.2270  220.4570 O   0  0  0  0  0  0  0  0  0  0  0  0
  139.9200   68.1560  219.9710 C   0  0  0  0  0  0  0  0  0  0  0  0
  139.2428   68.5406  219.1942 H   0  0  0  0  0  0  0  0  0  0  0  0
  139.3438   67.7415  220.8113 H   0  0  0  0  0  0  0  0  0  0  0  0
  140.7820   67.0490  219.3780 C   0  0  0  0  0  0  0  0  0  0  0  0
  141.2376   66.4640  220.1905 H   0  0  0  0  0  0  0  0  0  0  0  0
  140.1568   66.3900  218.7576 H   0  0  0  0  0  0  0  0  0  0  0  0
  141.5741   67.4936  218.7576 H   0  0  0  0  0  0  0  0  0  0  0  0
  143.0690   69.4710  219.7060 C   0  0  0  0  0  0  0  0  0  0  0  0
  143.3599   68.5758  220.2751 H   0  0  0  0  0  0  0  0  0  0  0  0
  1  2  1  0
  2  3  1  0
  3  4  2  3
  4  5  1  0
  5  6  1  0
  5  7  1  0
  5  8  1  0
  8  9  1  0
  8 10  1  0
  3 11  1  0
 11 12  2  0
 12 13  1  0
 12 14  1  0
 14 15  1  0
 14 16  2  0
 16 17  1  0
 17 18  1  0
 18 19  1  0
 18 20  2  0
 20 21  1  0
 21 22  1  0
 22 23  2  0
 23 24  1  0
 23 25  1  0
 25 26  1  0
 26 27  2  0
 26 28  1  0
 25 29  2  0
 29 30  1  0
 29 31  1  0
 31 32  1  0
 31 33  2  0
 33 34  1  0
 20 35  1  0
 35 36  1  0
 16 37  1  0
 37 38  1  0
 38 39  1  0
 39 40  1  0
 39 41  1  0
 39 42  1  0
 42 43  1  0
 42 44  1  0
 42 45  1  0
 37 46  2  0
 46 47  1  0
  8  4  1  0
 46 11  1  0
 33 22  1  0
M  CHG  3  21  -1  26   1  28  -1
M  END
>  <UniqueID>  (62) 
8

>  <SMILES>  (62) 
CCOc1cc(C(O)=C2CC2)ccc1O/C=C(\O)[N-]c1cc([N+](=O)[O-])ccc1Cl

>  <Energy>  (62) 
226.5984288551089

>  <Genealogy>  (62) 
CCOc1cc(C(=O)C2CC2)ccc1OCC(=O)[N-]c1cc([N+](=O)[O-])ccc1Cl (protonated)
CCOc1cc(C(O)=C2CC2)ccc1OC=C(O)[N-]c1cc([N+](=O)[O-])ccc1Cl (tautomer)
CCOc1cc(C(O)=C2CC2)ccc1O/C=C(\O)[N-]c1cc([N+](=O)[O-])ccc1Cl (cis-trans isomerization)
CCOc1cc(C(O)=C2CC2)ccc1O/C=C(\O)[N-]c1cc([N+](=O)[O-])ccc1Cl (3D coordinates assigned)
CCOc1cc(C(O)=C2CC2)ccc1O/C=C(\O)[N-]c1cc([N+](=O)[O-])ccc1Cl (nonaromatic ring conformer: 226.5984288551089 kcal/mol)

>  <smiles>  (62) 
CCOc1cc(C(=O)C2CC2)ccc1OCC(=O)Nc1cc([N+](=O)[O-])ccc1Cl

>  <score_type>  (62) 
oracle

>  <origin>  (62) 
autodockgpu

>  <m_score__min__energy>  (62) 
-6.4500000000000002

>  <m_primary>  (62) 
energy

>  <meeko>  (62) 
{"free_energy": -3.73, "intermolecular_energy": -7.31, "internal_energy": -4.48, "cluster_size": 2, "cluster_id": 6, "rank_in_cluster": 2}

>  <energy>  (62) 
-6.45

>  <cluster_rmsd>  (62) 
1.42

>  <rmsd>  (62) 
271.68

>  <cluster>  (62) 
1

$$$$
VUCFXBNYDUPJQC-ODLFYWEKNA-N
     RDKit          3D

 47 49  0  0  0  0  0  0  0  0999 V2000
  138.2740   80.1060  223.4430 H   0  0  0  0  0  0  0  0  0  0  0  0
  139.2310   80.4380  223.4160 O   0  0  0  0  0  0  0  0  0  0  0  0
  140.2990   79.5850  223.1330 C   0  0  0  0  0  0  0  0  0  0  0  0
  141.5390   80.0600  223.2490 C   0  0  0  0  0  0  0  0  0  0  0  0
  142.9920   80.1190  222.7840 C   0  0  0  0  0  0  0  0  0  0  0  0
  143.6494   79.2515  222.9429 H   0  0  0  0  0  0  0  0  0  0  0  0
  143.4780   80.3218  221.8183 H   0  0  0  0  0  0  0  0  0  0  0  0
  142.6160   80.9310  223.8940 C   0  0  0  0  0  0  0  0  0  0  0  0
  142.9862   80.6828  224.8997 H   0  0  0  0  0  0  0  0  0  0  0  0
  142.6983   82.0045  224.1192 H   0  0  0  0  0  0  0  0  0  0  0  0
  140.0210   78.1810  222.7220 C   0  0  0  0  0  0  0  0  0  0  0  0
  138.7450   77.6020  222.8600 C   0  0  0  0  0  0  0  0  0  0  0  0
  137.9208   78.1956  223.2823 H   0  0  0  0  0  0  0  0  0  0  0  0
  138.5150   76.2840  222.4670 C   0  0  0  0  0  0  0  0  0  0  0  0
  137.5132   75.8461  222.5877 H   0  0  0  0  0  0  0  0  0  0  0  0
  139.5520   75.5100  221.9180 C   0  0  0  0  0  0  0  0  0  0  0  0
  139.3600   74.1800  221.5150 O   0  0  0  0  0  0  0  0  0  0  0  0
  139.5020   73.0650  222.3460 C   0  0  0  0  0  0  0  0  0  0  0  0
  138.8301   72.9372  223.2075 H   0  0  0  0  0  0  0  0  0  0  0  0
  140.4510   72.1500  222.1010 C   0  0  0  0  0  0  0  0  0  0  0  0
  140.3980   70.8450  222.6960 N   0  0  0  0  0  0  0  0  0  0  0  0
  140.1190   70.5540  224.0730 C   0  0  0  0  0  0  0  0  0  0  0  0
  140.7730   71.3000  225.0620 C   0  0  0  0  0  0  0  0  0  0  0  0
  141.4817   72.0882  224.7679 H   0  0  0  0  0  0  0  0  0  0  0  0
  140.5350   71.0540  226.4270 C   0  0  0  0  0  0  0  0  0  0  0  0
  141.2230   71.8100  227.4410 N   0  0  0  0  0  0  0  0  0  0  0  0
  141.5320   73.0040  227.2460 O   0  0  0  0  0  0  0  0  0  0  0  0
  141.5550   71.2270  228.6420 O   0  0  0  0  0  0  0  0  0  0  0  0
  139.6140   70.0570  226.7860 C   0  0  0  0  0  0  0  0  0  0  0  0
  139.4267   69.8446  227.8489 H   0  0  0  0  0  0  0  0  0  0  0  0
  138.9340   69.3330  225.8050 C   0  0  0  0  0  0  0  0  0  0  0  0
  138.2061   68.5630  226.1003 H   0  0  0  0  0  0  0  0  0  0  0  0
  139.1720   69.5800  224.4500 C   0  0  0  0  0  0  0  0  0  0  0  0
  138.2110   68.7100  223.2600 Cl  0  0  0  0  0  0  0  0  0  0  0  0
  141.5060   72.4340  221.2340 O   0  0  0  0  0  0  0  0  0  0  0  0
  141.5820   73.3120  220.7340 H   0  0  0  0  0  0  0  0  0  0  0  0
  140.8330   76.0650  221.7870 C   0  0  0  0  0  0  0  0  0  0  0  0
  141.8500   75.2530  221.2530 O   0  0  0  0  0  0  0  0  0  0  0  0
  142.3410   75.3000  219.9130 C   0  0  0  0  0  0  0  0  0  0  0  0
  141.5167   75.0783  219.2191 H   0  0  0  0  0  0  0  0  0  0  0  0
  143.1434   74.5553  219.8057 H   0  0  0  0  0  0  0  0  0  0  0  0
  142.9080   76.6780  219.5910 C   0  0  0  0  0  0  0  0  0  0  0  0
  143.1277   77.2120  220.5273 H   0  0  0  0  0  0  0  0  0  0  0  0
  143.8333   76.5664  219.0067 H   0  0  0  0  0  0  0  0  0  0  0  0
  142.1721   77.2499  219.0067 H   0  0  0  0  0  0  0  0  0  0  0  0
  141.0600   77.3960  222.1910 C   0  0  0  0  0  0  0  0  0  0  0  0
  142.0665   77.8280  222.0893 H   0  0  0  0  0  0  0  0  0  0  0  0
  1  2  1  0
  2  3  1  0
  3  4  2  3
  4  5  1  0
  5  6  1  0
  5  7  1  0
  5  8  1  0
  8  9  1  0
  8 10  1  0
  3 11  1  0
 11 12  2  0
 12 13  1  0
 12 14  1  0
 14 15  1  0
 14 16  2  0
 16 17  1  0
 17 18  1  0
 18 19  1  0
 18 20  2  0
 20 21  1  0
 21 22  1  0
 22 23  2  0
 23 24  1  0
 23 25  1  0
 25 26  1  0
 26 27  2  0
 26 28  1  0
 25 29  2  0
 29 30  1  0
 29 31  1  0
 31 32  1  0
 31 33  2  0
 33 34  1  0
 20 35  1  0
 35 36  1  0
 16 37  1  0
 37 38  1  0
 38 39  1  0
 39 40  1  0
 39 41  1  0
 39 42  1  0
 42 43  1  0
 42 44  1  0
 42 45  1  0
 37 46  2  0
 46 47  1  0
  8  4  1  0
 46 11  1  0
 33 22  1  0
M  CHG  3  21  -1  26   1  28  -1
M  END
>  <UniqueID>  (63) 
8

>  <SMILES>  (63) 
CCOc1cc(C(O)=C2CC2)ccc1O/C=C(\O)[N-]c1cc([N+](=O)[O-])ccc1Cl

>  <Energy>  (63) 
226.5984288551089

>  <Genealogy>  (63) 
CCOc1cc(C(=O)C2CC2)ccc1OCC(=O)[N-]c1cc([N+](=O)[O-])ccc1Cl (protonated)
CCOc1cc(C(O)=C2CC2)ccc1OC=C(O)[N-]c1cc([N+](=O)[O-])ccc1Cl (tautomer)
CCOc1cc(C(O)=C2CC2)ccc1O/C=C(\O)[N-]c1cc([N+](=O)[O-])ccc1Cl (cis-trans isomerization)
CCOc1cc(C(O)=C2CC2)ccc1O/C=C(\O)[N-]c1cc([N+](=O)[O-])ccc1Cl (3D coordinates assigned)
CCOc1cc(C(O)=C2CC2)ccc1O/C=C(\O)[N-]c1cc([N+](=O)[O-])ccc1Cl (nonaromatic ring conformer: 226.5984288551089 kcal/mol)

>  <smiles>  (63) 
CCOc1cc(C(=O)C2CC2)ccc1OCC(=O)Nc1cc([N+](=O)[O-])ccc1Cl

>  <score_type>  (63) 
oracle

>  <origin>  (63) 
autodockgpu

>  <m_score__min__energy>  (63) 
-6.4500000000000002

>  <m_primary>  (63) 
energy

>  <meeko>  (63) 
{"free_energy": -5.85, "intermolecular_energy": -9.42, "internal_energy": -2.21, "cluster_size": 8, "cluster_id": 1, "rank_in_cluster": 7}

>  <energy>  (63) 
-6.43

>  <cluster_rmsd>  (63) 
0.38

>  <rmsd>  (63) 
271.84

>  <cluster>  (63) 
1

$$$$
VUCFXBNYDUPJQC-ODLFYWEKNA-N
     RDKit          3D

 47 49  0  0  0  0  0  0  0  0999 V2000
  142.1810   81.7780  221.8430 H   0  0  0  0  0  0  0  0  0  0  0  0
  141.5860   82.2390  221.1640 O   0  0  0  0  0  0  0  0  0  0  0  0
  141.4450   81.7580  219.8610 C   0  0  0  0  0  0  0  0  0  0  0  0
  141.6590   82.5990  218.8480 C   0  0  0  0  0  0  0  0  0  0  0  0
  142.4330   83.0090  217.5980 C   0  0  0  0  0  0  0  0  0  0  0  0
  143.4714   83.3594  217.6921 H   0  0  0  0  0  0  0  0  0  0  0  0
  142.6792   82.5050  216.6518 H   0  0  0  0  0  0  0  0  0  0  0  0
  141.3640   83.8510  218.0230 C   0  0  0  0  0  0  0  0  0  0  0  0
  141.5867   84.8435  218.4418 H   0  0  0  0  0  0  0  0  0  0  0  0
  140.4634   84.2502  217.5335 H   0  0  0  0  0  0  0  0  0  0  0  0
  141.0730   80.3330  219.6460 C   0  0  0  0  0  0  0  0  0  0  0  0
  139.7330   79.9240  219.5140 C   0  0  0  0  0  0  0  0  0  0  0  0
  138.9282   80.6718  219.5692 H   0  0  0  0  0  0  0  0  0  0  0  0
  139.4140   78.5810  219.3140 C   0  0  0  0  0  0  0  0  0  0  0  0
  138.3605   78.2791  219.2188 H   0  0  0  0  0  0  0  0  0  0  0  0
  140.4270   77.6100  219.2330 C   0  0  0  0  0  0  0  0  0  0  0  0
  140.1460   76.2500  219.0370 O   0  0  0  0  0  0  0  0  0  0  0  0
  140.0830   75.2920  220.0540 C   0  0  0  0  0  0  0  0  0  0  0  0
  139.3979   74.4368  219.9573 H   0  0  0  0  0  0  0  0  0  0  0  0
  140.8520   75.4090  221.1460 C   0  0  0  0  0  0  0  0  0  0  0  0
  140.3320   75.9580  222.3660 N   0  0  0  0  0  0  0  0  0  0  0  0
  140.1140   77.3490  222.6420 C   0  0  0  0  0  0  0  0  0  0  0  0
  141.2280   78.1880  222.7800 C   0  0  0  0  0  0  0  0  0  0  0  0
  142.2396   77.7690  222.6750 H   0  0  0  0  0  0  0  0  0  0  0  0
  141.0690   79.5590  223.0510 C   0  0  0  0  0  0  0  0  0  0  0  0
  142.2160   80.4150  223.2130 N   0  0  0  0  0  0  0  0  0  0  0  0
  143.3020   80.1350  222.6640 O   0  0  0  0  0  0  0  0  0  0  0  0
  142.1350   81.5560  223.9770 O   0  0  0  0  0  0  0  0  0  0  0  0
  139.7710   80.0830  223.1630 C   0  0  0  0  0  0  0  0  0  0  0  0
  139.6309   81.1509  223.3864 H   0  0  0  0  0  0  0  0  0  0  0  0
  138.6570   79.2590  222.9930 C   0  0  0  0  0  0  0  0  0  0  0  0
  137.6458   79.6848  223.0721 H   0  0  0  0  0  0  0  0  0  0  0  0
  138.8170   77.8970  222.7230 C   0  0  0  0  0  0  0  0  0  0  0  0
  137.3800   76.9290  222.4150 Cl  0  0  0  0  0  0  0  0  0  0  0  0
  142.1760   74.9710  221.1340 O   0  0  0  0  0  0  0  0  0  0  0  0
  142.9550   75.5890  220.9440 H   0  0  0  0  0  0  0  0  0  0  0  0
  141.7670   77.9970  219.3780 C   0  0  0  0  0  0  0  0  0  0  0  0
  142.7520   76.9940  219.3120 O   0  0  0  0  0  0  0  0  0  0  0  0
  143.2740   76.4120  218.1180 C   0  0  0  0  0  0  0  0  0  0  0  0
  142.8288   75.4159  217.9783 H   0  0  0  0  0  0  0  0  0  0  0  0
  144.3671   76.3340  218.2135 H   0  0  0  0  0  0  0  0  0  0  0  0
  142.9510   77.2780  216.9050 C   0  0  0  0  0  0  0  0  0  0  0  0
  142.5851   78.2591  217.2419 H   0  0  0  0  0  0  0  0  0  0  0  0
  143.8590   77.4136  216.2991 H   0  0  0  0  0  0  0  0  0  0  0  0
  142.1760   76.7859  216.2991 H   0  0  0  0  0  0  0  0  0  0  0  0
  142.0830   79.3550  219.5850 C   0  0  0  0  0  0  0  0  0  0  0  0
  143.1350   79.6548  219.7006 H   0  0  0  0  0  0  0  0  0  0  0  0
  1  2  1  0
  2  3  1  0
  3  4  2  3
  4  5  1  0
  5  6  1  0
  5  7  1  0
  5  8  1  0
  8  9  1  0
  8 10  1  0
  3 11  1  0
 11 12  2  0
 12 13  1  0
 12 14  1  0
 14 15  1  0
 14 16  2  0
 16 17  1  0
 17 18  1  0
 18 19  1  0
 18 20  2  0
 20 21  1  0
 21 22  1  0
 22 23  2  0
 23 24  1  0
 23 25  1  0
 25 26  1  0
 26 27  2  0
 26 28  1  0
 25 29  2  0
 29 30  1  0
 29 31  1  0
 31 32  1  0
 31 33  2  0
 33 34  1  0
 20 35  1  0
 35 36  1  0
 16 37  1  0
 37 38  1  0
 38 39  1  0
 39 40  1  0
 39 41  1  0
 39 42  1  0
 42 43  1  0
 42 44  1  0
 42 45  1  0
 37 46  2  0
 46 47  1  0
  8  4  1  0
 46 11  1  0
 33 22  1  0
M  CHG  3  21  -1  26   1  28  -1
M  END
>  <UniqueID>  (64) 
8

>  <SMILES>  (64) 
CCOc1cc(C(O)=C2CC2)ccc1O/C=C(\O)[N-]c1cc([N+](=O)[O-])ccc1Cl

>  <Energy>  (64) 
226.5984288551089

>  <Genealogy>  (64) 
CCOc1cc(C(=O)C2CC2)ccc1OCC(=O)[N-]c1cc([N+](=O)[O-])ccc1Cl (protonated)
CCOc1cc(C(O)=C2CC2)ccc1OC=C(O)[N-]c1cc([N+](=O)[O-])ccc1Cl (tautomer)
CCOc1cc(C(O)=C2CC2)ccc1O/C=C(\O)[N-]c1cc([N+](=O)[O-])ccc1Cl (cis-trans isomerization)
CCOc1cc(C(O)=C2CC2)ccc1O/C=C(\O)[N-]c1cc([N+](=O)[O-])ccc1Cl (3D coordinates assigned)
CCOc1cc(C(O)=C2CC2)ccc1O/C=C(\O)[N-]c1cc([N+](=O)[O-])ccc1Cl (nonaromatic ring conformer: 226.5984288551089 kcal/mol)

>  <smiles>  (64) 
CCOc1cc(C(=O)C2CC2)ccc1OCC(=O)Nc1cc([N+](=O)[O-])ccc1Cl

>  <score_type>  (64) 
oracle

>  <origin>  (64) 
autodockgpu

>  <m_score__min__energy>  (64) 
-6.4500000000000002

>  <m_primary>  (64) 
energy

>  <meeko>  (64) 
{"free_energy": -3.16, "intermolecular_energy": -6.73, "internal_energy": -4.83, "cluster_size": 2, "cluster_id": 10, "rank_in_cluster": 2}

>  <energy>  (64) 
-6.35

>  <cluster_rmsd>  (64) 
0.42

>  <rmsd>  (64) 
271.69

>  <cluster>  (64) 
1

$$$$
VUCFXBNYDUPJQC-ODLFYWEKNA-N
     RDKit          3D

 47 49  0  0  0  0  0  0  0  0999 V2000
  146.2130   74.0330  218.6390 H   0  0  0  0  0  0  0  0  0  0  0  0
  146.1970   73.0280  218.5080 O   0  0  0  0  0  0  0  0  0  0  0  0
  145.2700   72.2150  219.1620 C   0  0  0  0  0  0  0  0  0  0  0  0
  145.4480   70.8940  219.1280 C   0  0  0  0  0  0  0  0  0  0  0  0
  144.9020   69.4730  219.2380 C   0  0  0  0  0  0  0  0  0  0  0  0
  144.5866   69.0861  220.2182 H   0  0  0  0  0  0  0  0  0  0  0  0
  144.0797   68.9301  218.7490 H   0  0  0  0  0  0  0  0  0  0  0  0
  146.2920   69.6310  218.9560 C   0  0  0  0  0  0  0  0  0  0  0  0
  147.0362   69.3654  219.7213 H   0  0  0  0  0  0  0  0  0  0  0  0
  146.9599   69.2584  218.1653 H   0  0  0  0  0  0  0  0  0  0  0  0
  144.1250   72.8440  219.8770 C   0  0  0  0  0  0  0  0  0  0  0  0
  144.0480   74.2350  220.0840 C   0  0  0  0  0  0  0  0  0  0  0  0
  144.8519   74.8860  219.7098 H   0  0  0  0  0  0  0  0  0  0  0  0
  142.9640   74.7960  220.7580 C   0  0  0  0  0  0  0  0  0  0  0  0
  142.9233   75.8839  220.9156 H   0  0  0  0  0  0  0  0  0  0  0  0
  141.9220   73.9820  221.2380 C   0  0  0  0  0  0  0  0  0  0  0  0
  140.8170   74.5090  221.9240 O   0  0  0  0  0  0  0  0  0  0  0  0
  140.3190   75.8050  221.7580 C   0  0  0  0  0  0  0  0  0  0  0  0
  140.9876   76.6069  221.4117 H   0  0  0  0  0  0  0  0  0  0  0  0
  139.0320   76.0770  222.0180 C   0  0  0  0  0  0  0  0  0  0  0  0
  138.5070   77.4050  221.8690 N   0  0  0  0  0  0  0  0  0  0  0  0
  138.9690   78.5790  222.5540 C   0  0  0  0  0  0  0  0  0  0  0  0
  140.3410   78.8620  222.5480 C   0  0  0  0  0  0  0  0  0  0  0  0
  141.0327   78.1867  222.0230 H   0  0  0  0  0  0  0  0  0  0  0  0
  140.8450   79.9990  223.2050 C   0  0  0  0  0  0  0  0  0  0  0  0
  142.2580   80.2780  223.2140 N   0  0  0  0  0  0  0  0  0  0  0  0
  142.8750   80.4020  224.2930 O   0  0  0  0  0  0  0  0  0  0  0  0
  142.9520   80.4130  222.0340 O   0  0  0  0  0  0  0  0  0  0  0  0
  139.9470   80.8620  223.8540 C   0  0  0  0  0  0  0  0  0  0  0  0
  140.3274   81.7491  224.3815 H   0  0  0  0  0  0  0  0  0  0  0  0
  138.5760   80.6030  223.8350 C   0  0  0  0  0  0  0  0  0  0  0  0
  137.8829   81.2931  224.3384 H   0  0  0  0  0  0  0  0  0  0  0  0
  138.0770   79.4730  223.1810 C   0  0  0  0  0  0  0  0  0  0  0  0
  136.3330   79.2540  223.1000 Cl  0  0  0  0  0  0  0  0  0  0  0  0
  138.1570   75.0660  222.4140 O   0  0  0  0  0  0  0  0  0  0  0  0
  138.4770   74.1790  222.7840 H   0  0  0  0  0  0  0  0  0  0  0  0
  141.9890   72.5940  221.0540 C   0  0  0  0  0  0  0  0  0  0  0  0
  140.9380   71.8110  221.5660 O   0  0  0  0  0  0  0  0  0  0  0  0
  140.5630   71.7130  222.9400 C   0  0  0  0  0  0  0  0  0  0  0  0
  140.8252   72.6501  223.4530 H   0  0  0  0  0  0  0  0  0  0  0  0
  141.0993   70.8656  223.3919 H   0  0  0  0  0  0  0  0  0  0  0  0
  139.0640   71.4710  223.0770 C   0  0  0  0  0  0  0  0  0  0  0  0
  138.7955   71.4277  224.1428 H   0  0  0  0  0  0  0  0  0  0  0  0
  138.5143   72.2920  222.5935 H   0  0  0  0  0  0  0  0  0  0  0  0
  138.8006   70.5187  222.5935 H   0  0  0  0  0  0  0  0  0  0  0  0
  143.0900   72.0330  220.3760 C   0  0  0  0  0  0  0  0  0  0  0  0
  143.1406   70.9433  220.2349 H   0  0  0  0  0  0  0  0  0  0  0  0
  1  2  1  0
  2  3  1  0
  3  4  2  3
  4  5  1  0
  5  6  1  0
  5  7  1  0
  5  8  1  0
  8  9  1  0
  8 10  1  0
  3 11  1  0
 11 12  2  0
 12 13  1  0
 12 14  1  0
 14 15  1  0
 14 16  2  0
 16 17  1  0
 17 18  1  0
 18 19  1  0
 18 20  2  0
 20 21  1  0
 21 22  1  0
 22 23  2  0
 23 24  1  0
 23 25  1  0
 25 26  1  0
 26 27  2  0
 26 28  1  0
 25 29  2  0
 29 30  1  0
 29 31  1  0
 31 32  1  0
 31 33  2  0
 33 34  1  0
 20 35  1  0
 35 36  1  0
 16 37  1  0
 37 38  1  0
 38 39  1  0
 39 40  1  0
 39 41  1  0
 39 42  1  0
 42 43  1  0
 42 44  1  0
 42 45  1  0
 37 46  2  0
 46 47  1  0
  8  4  1  0
 46 11  1  0
 33 22  1  0
M  CHG  3  21  -1  26   1  28  -1
M  END
>  <UniqueID>  (65) 
8

>  <SMILES>  (65) 
CCOc1cc(C(O)=C2CC2)ccc1O/C=C(\O)[N-]c1cc([N+](=O)[O-])ccc1Cl

>  <Energy>  (65) 
226.5984288551089

>  <Genealogy>  (65) 
CCOc1cc(C(=O)C2CC2)ccc1OCC(=O)[N-]c1cc([N+](=O)[O-])ccc1Cl (protonated)
CCOc1cc(C(O)=C2CC2)ccc1OC=C(O)[N-]c1cc([N+](=O)[O-])ccc1Cl (tautomer)
CCOc1cc(C(O)=C2CC2)ccc1O/C=C(\O)[N-]c1cc([N+](=O)[O-])ccc1Cl (cis-trans isomerization)
CCOc1cc(C(O)=C2CC2)ccc1O/C=C(\O)[N-]c1cc([N+](=O)[O-])ccc1Cl (3D coordinates assigned)
CCOc1cc(C(O)=C2CC2)ccc1O/C=C(\O)[N-]c1cc([N+](=O)[O-])ccc1Cl (nonaromatic ring conformer: 226.5984288551089 kcal/mol)

>  <smiles>  (65) 
CCOc1cc(C(=O)C2CC2)ccc1OCC(=O)Nc1cc([N+](=O)[O-])ccc1Cl

>  <score_type>  (65) 
oracle

>  <origin>  (65) 
autodockgpu

>  <m_score__min__energy>  (65) 
-6.4500000000000002

>  <m_primary>  (65) 
energy

>  <meeko>  (65) 
{"free_energy": -6.04, "intermolecular_energy": -9.62, "internal_energy": -1.5, "cluster_size": 1, "cluster_id": 2, "rank_in_cluster": 1}

>  <energy>  (65) 
-6.31

>  <cluster_rmsd>  (65) 
0.32

>  <rmsd>  (65) 
271.79

>  <cluster>  (65) 
1

$$$$
VUCFXBNYDUPJQC-ODLFYWEKNA-N
     RDKit          3D

 47 49  0  0  0  0  0  0  0  0999 V2000
  141.5160   80.4660  219.7950 H   0  0  0  0  0  0  0  0  0  0  0  0
  141.4510   80.9410  220.6880 O   0  0  0  0  0  0  0  0  0  0  0  0
  141.3840   80.2390  221.8930 C   0  0  0  0  0  0  0  0  0  0  0  0
  142.0900   80.6910  222.9310 C   0  0  0  0  0  0  0  0  0  0  0  0
  142.2490   81.6230  224.1290 C   0  0  0  0  0  0  0  0  0  0  0  0
  142.4008   82.6999  223.9638 H   0  0  0  0  0  0  0  0  0  0  0  0
  141.6375   81.8365  225.0181 H   0  0  0  0  0  0  0  0  0  0  0  0
  143.3090   80.7110  223.8510 C   0  0  0  0  0  0  0  0  0  0  0  0
  144.2694   81.0919  223.4734 H   0  0  0  0  0  0  0  0  0  0  0  0
  143.8347   79.9460  224.4413 H   0  0  0  0  0  0  0  0  0  0  0  0
  140.5270   79.0250  221.9820 C   0  0  0  0  0  0  0  0  0  0  0  0
  140.9740   77.8400  222.5970 C   0  0  0  0  0  0  0  0  0  0  0  0
  141.9849   77.7995  223.0288 H   0  0  0  0  0  0  0  0  0  0  0  0
  140.1500   76.7170  222.6650 C   0  0  0  0  0  0  0  0  0  0  0  0
  140.5187   75.7976  223.1433 H   0  0  0  0  0  0  0  0  0  0  0  0
  138.8520   76.7510  222.1270 C   0  0  0  0  0  0  0  0  0  0  0  0
  137.9940   75.6410  222.1730 O   0  0  0  0  0  0  0  0  0  0  0  0
  138.2410   74.4150  221.5470 C   0  0  0  0  0  0  0  0  0  0  0  0
  137.4026   73.8328  221.1369 H   0  0  0  0  0  0  0  0  0  0  0  0
  139.4920   73.9440  221.4430 C   0  0  0  0  0  0  0  0  0  0  0  0
  140.2160   74.0230  220.2060 N   0  0  0  0  0  0  0  0  0  0  0  0
  141.2870   74.9320  219.9100 C   0  0  0  0  0  0  0  0  0  0  0  0
  140.9690   76.2480  219.5490 C   0  0  0  0  0  0  0  0  0  0  0  0
  139.9146   76.5578  219.5004 H   0  0  0  0  0  0  0  0  0  0  0  0
  141.9800   77.1780  219.2480 C   0  0  0  0  0  0  0  0  0  0  0  0
  141.6490   78.5240  218.8580 N   0  0  0  0  0  0  0  0  0  0  0  0
  140.4580   78.8880  218.7720 O   0  0  0  0  0  0  0  0  0  0  0  0
  142.6420   79.4330  218.5710 O   0  0  0  0  0  0  0  0  0  0  0  0
  143.3220   76.7730  219.3330 C   0  0  0  0  0  0  0  0  0  0  0  0
  144.1238   77.4854  219.0889 H   0  0  0  0  0  0  0  0  0  0  0  0
  143.6460   75.4730  219.7250 C   0  0  0  0  0  0  0  0  0  0  0  0
  144.7015   75.1724  219.7993 H   0  0  0  0  0  0  0  0  0  0  0  0
  142.6390   74.5500  220.0240 C   0  0  0  0  0  0  0  0  0  0  0  0
  143.1090   72.9600  220.6120 Cl  0  0  0  0  0  0  0  0  0  0  0  0
  140.1380   73.3890  222.5480 O   0  0  0  0  0  0  0  0  0  0  0  0
  139.7200   73.3640  223.4700 H   0  0  0  0  0  0  0  0  0  0  0  0
  138.3950   77.9180  221.4970 C   0  0  0  0  0  0  0  0  0  0  0  0
  137.0980   77.9050  220.9520 O   0  0  0  0  0  0  0  0  0  0  0  0
  136.7760   77.8750  219.5610 C   0  0  0  0  0  0  0  0  0  0  0  0
  136.8405   78.8949  219.1540 H   0  0  0  0  0  0  0  0  0  0  0  0
  135.7563   77.4794  219.4439 H   0  0  0  0  0  0  0  0  0  0  0  0
  137.7400   76.9720  218.8010 C   0  0  0  0  0  0  0  0  0  0  0  0
  138.3494   76.4011  219.5170 H   0  0  0  0  0  0  0  0  0  0  0  0
  137.1692   76.2760  218.1687 H   0  0  0  0  0  0  0  0  0  0  0  0
  138.3972   77.5870  218.1687 H   0  0  0  0  0  0  0  0  0  0  0  0
  139.2350   79.0470  221.4270 C   0  0  0  0  0  0  0  0  0  0  0  0
  138.8746   79.9600  220.9305 H   0  0  0  0  0  0  0  0  0  0  0  0
  1  2  1  0
  2  3  1  0
  3  4  2  3
  4  5  1  0
  5  6  1  0
  5  7  1  0
  5  8  1  0
  8  9  1  0
  8 10  1  0
  3 11  1  0
 11 12  2  0
 12 13  1  0
 12 14  1  0
 14 15  1  0
 14 16  2  0
 16 17  1  0
 17 18  1  0
 18 19  1  0
 18 20  2  0
 20 21  1  0
 21 22  1  0
 22 23  2  0
 23 24  1  0
 23 25  1  0
 25 26  1  0
 26 27  2  0
 26 28  1  0
 25 29  2  0
 29 30  1  0
 29 31  1  0
 31 32  1  0
 31 33  2  0
 33 34  1  0
 20 35  1  0
 35 36  1  0
 16 37  1  0
 37 38  1  0
 38 39  1  0
 39 40  1  0
 39 41  1  0
 39 42  1  0
 42 43  1  0
 42 44  1  0
 42 45  1  0
 37 46  2  0
 46 47  1  0
  8  4  1  0
 46 11  1  0
 33 22  1  0
M  CHG  3  21  -1  26   1  28  -1
M  END
>  <UniqueID>  (66) 
8

>  <SMILES>  (66) 
CCOc1cc(C(O)=C2CC2)ccc1O/C=C(\O)[N-]c1cc([N+](=O)[O-])ccc1Cl

>  <Energy>  (66) 
226.5984288551089

>  <Genealogy>  (66) 
CCOc1cc(C(=O)C2CC2)ccc1OCC(=O)[N-]c1cc([N+](=O)[O-])ccc1Cl (protonated)
CCOc1cc(C(O)=C2CC2)ccc1OC=C(O)[N-]c1cc([N+](=O)[O-])ccc1Cl (tautomer)
CCOc1cc(C(O)=C2CC2)ccc1O/C=C(\O)[N-]c1cc([N+](=O)[O-])ccc1Cl (cis-trans isomerization)
CCOc1cc(C(O)=C2CC2)ccc1O/C=C(\O)[N-]c1cc([N+](=O)[O-])ccc1Cl (3D coordinates assigned)
CCOc1cc(C(O)=C2CC2)ccc1O/C=C(\O)[N-]c1cc([N+](=O)[O-])ccc1Cl (nonaromatic ring conformer: 226.5984288551089 kcal/mol)

>  <smiles>  (66) 
CCOc1cc(C(=O)C2CC2)ccc1OCC(=O)Nc1cc([N+](=O)[O-])ccc1Cl

>  <score_type>  (66) 
oracle

>  <origin>  (66) 
autodockgpu

>  <m_score__min__energy>  (66) 
-6.4500000000000002

>  <m_primary>  (66) 
energy

>  <meeko>  (66) 
{"free_energy": -3.55, "intermolecular_energy": -7.13, "internal_energy": -4.18, "cluster_size": 1, "cluster_id": 8, "rank_in_cluster": 1}

>  <energy>  (66) 
-6.15

>  <cluster_rmsd>  (66) 
0.27

>  <rmsd>  (66) 
271.7

>  <cluster>  (66) 
1

$$$$
VUCFXBNYDUPJQC-ODLFYWEKNA-N
     RDKit          3D

 47 49  0  0  0  0  0  0  0  0999 V2000
  145.8720   71.5250  220.5300 H   0  0  0  0  0  0  0  0  0  0  0  0
  145.5510   71.0730  219.6810 O   0  0  0  0  0  0  0  0  0  0  0  0
  144.3790   70.3160  219.6470 C   0  0  0  0  0  0  0  0  0  0  0  0
  144.4820   68.9910  219.5350 C   0  0  0  0  0  0  0  0  0  0  0  0
  143.8480   67.6190  219.3210 C   0  0  0  0  0  0  0  0  0  0  0  0
  143.2108   67.1860  220.1062 H   0  0  0  0  0  0  0  0  0  0  0  0
  143.1978   67.1901  218.5443 H   0  0  0  0  0  0  0  0  0  0  0  0
  145.2610   67.6760  219.5110 C   0  0  0  0  0  0  0  0  0  0  0  0
  145.7011   67.2872  220.4411 H   0  0  0  0  0  0  0  0  0  0  0  0
  146.1257   67.3090  218.9386 H   0  0  0  0  0  0  0  0  0  0  0  0
  143.0630   71.0060  219.7420 C   0  0  0  0  0  0  0  0  0  0  0  0
  142.2600   71.2400  218.6100 C   0  0  0  0  0  0  0  0  0  0  0  0
  142.6053   70.9075  217.6199 H   0  0  0  0  0  0  0  0  0  0  0  0
  141.0310   71.8890  218.7300 C   0  0  0  0  0  0  0  0  0  0  0  0
  140.4187   72.0680  217.8339 H   0  0  0  0  0  0  0  0  0  0  0  0
  140.5690   72.3160  219.9870 C   0  0  0  0  0  0  0  0  0  0  0  0
  139.3400   72.9760  220.1470 O   0  0  0  0  0  0  0  0  0  0  0  0
  139.1910   74.3560  220.3140 C   0  0  0  0  0  0  0  0  0  0  0  0
  138.4229   74.8954  219.7403 H   0  0  0  0  0  0  0  0  0  0  0  0
  139.9770   75.0270  221.1680 C   0  0  0  0  0  0  0  0  0  0  0  0
  141.1100   75.7760  220.7060 N   0  0  0  0  0  0  0  0  0  0  0  0
  142.1680   75.2810  219.8710 C   0  0  0  0  0  0  0  0  0  0  0  0
  143.2890   74.7050  220.4810 C   0  0  0  0  0  0  0  0  0  0  0  0
  143.3384   74.6426  221.5781 H   0  0  0  0  0  0  0  0  0  0  0  0
  144.3530   74.2050  219.7080 C   0  0  0  0  0  0  0  0  0  0  0  0
  145.5140   73.6310  220.3380 N   0  0  0  0  0  0  0  0  0  0  0  0
  145.5150   73.3770  221.5610 O   0  0  0  0  0  0  0  0  0  0  0  0
  146.6430   73.3530  219.6030 O   0  0  0  0  0  0  0  0  0  0  0  0
  144.2670   74.2750  218.3080 C   0  0  0  0  0  0  0  0  0  0  0  0
  145.0962   73.8992  217.6907 H   0  0  0  0  0  0  0  0  0  0  0  0
  143.1370   74.8180  217.6940 C   0  0  0  0  0  0  0  0  0  0  0  0
  143.0777   74.8567  216.5963 H   0  0  0  0  0  0  0  0  0  0  0  0
  142.0800   75.3130  218.4640 C   0  0  0  0  0  0  0  0  0  0  0  0
  140.6390   75.8900  217.6360 Cl  0  0  0  0  0  0  0  0  0  0  0  0
  139.6950   75.0380  222.5340 O   0  0  0  0  0  0  0  0  0  0  0  0
  139.5660   74.1900  223.0730 H   0  0  0  0  0  0  0  0  0  0  0  0
  141.3620   72.1050  221.1230 C   0  0  0  0  0  0  0  0  0  0  0  0
  140.8750   72.5660  222.3600 O   0  0  0  0  0  0  0  0  0  0  0  0
  139.9350   71.8870  223.1940 C   0  0  0  0  0  0  0  0  0  0  0  0
  139.0306   72.5049  223.2950 H   0  0  0  0  0  0  0  0  0  0  0  0
  140.3956   71.7177  224.1785 H   0  0  0  0  0  0  0  0  0  0  0  0
  139.5540   70.5380  222.5950 C   0  0  0  0  0  0  0  0  0  0  0  0
  139.3516   69.8213  223.4046 H   0  0  0  0  0  0  0  0  0  0  0  0
  138.6534   70.6537  221.9741 H   0  0  0  0  0  0  0  0  0  0  0  0
  140.3821   70.1655  221.9741 H   0  0  0  0  0  0  0  0  0  0  0  0
  142.6050   71.4530  220.9950 C   0  0  0  0  0  0  0  0  0  0  0  0
  143.2264   71.2912  221.8881 H   0  0  0  0  0  0  0  0  0  0  0  0
  1  2  1  0
  2  3  1  0
  3  4  2  3
  4  5  1  0
  5  6  1  0
  5  7  1  0
  5  8  1  0
  8  9  1  0
  8 10  1  0
  3 11  1  0
 11 12  2  0
 12 13  1  0
 12 14  1  0
 14 15  1  0
 14 16  2  0
 16 17  1  0
 17 18  1  0
 18 19  1  0
 18 20  2  0
 20 21  1  0
 21 22  1  0
 22 23  2  0
 23 24  1  0
 23 25  1  0
 25 26  1  0
 26 27  2  0
 26 28  1  0
 25 29  2  0
 29 30  1  0
 29 31  1  0
 31 32  1  0
 31 33  2  0
 33 34  1  0
 20 35  1  0
 35 36  1  0
 16 37  1  0
 37 38  1  0
 38 39  1  0
 39 40  1  0
 39 41  1  0
 39 42  1  0
 42 43  1  0
 42 44  1  0
 42 45  1  0
 37 46  2  0
 46 47  1  0
  8  4  1  0
 46 11  1  0
 33 22  1  0
M  CHG  3  21  -1  26   1  28  -1
M  END
>  <UniqueID>  (67) 
8

>  <SMILES>  (67) 
CCOc1cc(C(O)=C2CC2)ccc1O/C=C(\O)[N-]c1cc([N+](=O)[O-])ccc1Cl

>  <Energy>  (67) 
226.5984288551089

>  <Genealogy>  (67) 
CCOc1cc(C(=O)C2CC2)ccc1OCC(=O)[N-]c1cc([N+](=O)[O-])ccc1Cl (protonated)
CCOc1cc(C(O)=C2CC2)ccc1OC=C(O)[N-]c1cc([N+](=O)[O-])ccc1Cl (tautomer)
CCOc1cc(C(O)=C2CC2)ccc1O/C=C(\O)[N-]c1cc([N+](=O)[O-])ccc1Cl (cis-trans isomerization)
CCOc1cc(C(O)=C2CC2)ccc1O/C=C(\O)[N-]c1cc([N+](=O)[O-])ccc1Cl (3D coordinates assigned)
CCOc1cc(C(O)=C2CC2)ccc1O/C=C(\O)[N-]c1cc([N+](=O)[O-])ccc1Cl (nonaromatic ring conformer: 226.5984288551089 kcal/mol)

>  <smiles>  (67) 
CCOc1cc(C(=O)C2CC2)ccc1OCC(=O)Nc1cc([N+](=O)[O-])ccc1Cl

>  <score_type>  (67) 
oracle

>  <origin>  (67) 
autodockgpu

>  <m_score__min__energy>  (67) 
-6.4500000000000002

>  <m_primary>  (67) 
energy

>  <meeko>  (67) 
{"free_energy": -3.78, "intermolecular_energy": -7.36, "internal_energy": -4.58, "cluster_size": 2, "cluster_id": 6, "rank_in_cluster": 1}

>  <energy>  (67) 
-5.85

>  <cluster_rmsd>  (67) 
0.81

>  <rmsd>  (67) 
271.75

>  <cluster>  (67) 
1

$$$$
VUCFXBNYDUPJQC-ODLFYWEKNA-N
     RDKit          3D

 47 49  0  0  0  0  0  0  0  0999 V2000
  146.3120   73.8120  218.6440 H   0  0  0  0  0  0  0  0  0  0  0  0
  145.9360   73.3760  217.8100 O   0  0  0  0  0  0  0  0  0  0  0  0
  144.9890   74.0140  217.0070 C   0  0  0  0  0  0  0  0  0  0  0  0
  145.2830   74.2230  215.7230 C   0  0  0  0  0  0  0  0  0  0  0  0
  146.2830   74.5810  214.6270 C   0  0  0  0  0  0  0  0  0  0  0  0
  146.6645   75.6102  214.5540 H   0  0  0  0  0  0  0  0  0  0  0  0
  147.2658   74.1862  214.3300 H   0  0  0  0  0  0  0  0  0  0  0  0
  144.9410   74.2970  214.2360 C   0  0  0  0  0  0  0  0  0  0  0  0
  144.2988   75.1095  213.8652 H   0  0  0  0  0  0  0  0  0  0  0  0
  144.4842   73.5978  213.5201 H   0  0  0  0  0  0  0  0  0  0  0  0
  143.6900   74.4290  217.6030 C   0  0  0  0  0  0  0  0  0  0  0  0
  142.4770   73.8040  217.2580 C   0  0  0  0  0  0  0  0  0  0  0  0
  142.4777   72.9819  216.5272 H   0  0  0  0  0  0  0  0  0  0  0  0
  141.2740   74.2150  217.8320 C   0  0  0  0  0  0  0  0  0  0  0  0
  140.3350   73.7189  217.5452 H   0  0  0  0  0  0  0  0  0  0  0  0
  141.2520   75.2580  218.7740 C   0  0  0  0  0  0  0  0  0  0  0  0
  140.0620   75.7020  219.3700 O   0  0  0  0  0  0  0  0  0  0  0  0
  139.5860   75.2790  220.6150 C   0  0  0  0  0  0  0  0  0  0  0  0
  138.5026   75.1944  220.7853 H   0  0  0  0  0  0  0  0  0  0  0  0
  140.4400   74.9760  221.6020 C   0  0  0  0  0  0  0  0  0  0  0  0
  140.7520   73.6120  221.9250 N   0  0  0  0  0  0  0  0  0  0  0  0
  141.7060   72.7800  221.2480 C   0  0  0  0  0  0  0  0  0  0  0  0
  143.0300   73.2250  221.1450 C   0  0  0  0  0  0  0  0  0  0  0  0
  143.3125   74.1945  221.5812 H   0  0  0  0  0  0  0  0  0  0  0  0
  144.0030   72.4480  220.4910 C   0  0  0  0  0  0  0  0  0  0  0  0
  145.3590   72.9170  220.3690 N   0  0  0  0  0  0  0  0  0  0  0  0
  145.6560   74.0920  220.6720 O   0  0  0  0  0  0  0  0  0  0  0  0
  146.3510   72.0790  219.9150 O   0  0  0  0  0  0  0  0  0  0  0  0
  143.6310   71.2040  219.9560 C   0  0  0  0  0  0  0  0  0  0  0  0
  144.3783   70.5902  219.4317 H   0  0  0  0  0  0  0  0  0  0  0  0
  142.3210   70.7400  220.0840 C   0  0  0  0  0  0  0  0  0  0  0  0
  142.0460   69.7587  219.6699 H   0  0  0  0  0  0  0  0  0  0  0  0
  141.3560   71.5140  220.7350 C   0  0  0  0  0  0  0  0  0  0  0  0
  139.7490   70.8330  220.9590 Cl  0  0  0  0  0  0  0  0  0  0  0  0
  141.0750   75.9840  222.3280 O   0  0  0  0  0  0  0  0  0  0  0  0
  141.8920   76.4740  221.9830 H   0  0  0  0  0  0  0  0  0  0  0  0
  142.4490   75.9030  219.1190 C   0  0  0  0  0  0  0  0  0  0  0  0
  142.3830   76.9570  220.0490 O   0  0  0  0  0  0  0  0  0  0  0  0
  141.8230   78.2480  219.8110 C   0  0  0  0  0  0  0  0  0  0  0  0
  142.1724   78.9415  220.5901 H   0  0  0  0  0  0  0  0  0  0  0  0
  140.7263   78.1655  219.8343 H   0  0  0  0  0  0  0  0  0  0  0  0
  142.2430   78.7790  218.4450 C   0  0  0  0  0  0  0  0  0  0  0  0
  142.9205   79.6355  218.5770 H   0  0  0  0  0  0  0  0  0  0  0  0
  142.7602   77.9851  217.8862 H   0  0  0  0  0  0  0  0  0  0  0  0
  141.3514   79.0995  217.8862 H   0  0  0  0  0  0  0  0  0  0  0  0
  143.6600   75.4860  218.5310 C   0  0  0  0  0  0  0  0  0  0  0  0
  144.5967   75.9951  218.8020 H   0  0  0  0  0  0  0  0  0  0  0  0
  1  2  1  0
  2  3  1  0
  3  4  2  3
  4  5  1  0
  5  6  1  0
  5  7  1  0
  5  8  1  0
  8  9  1  0
  8 10  1  0
  3 11  1  0
 11 12  2  0
 12 13  1  0
 12 14  1  0
 14 15  1  0
 14 16  2  0
 16 17  1  0
 17 18  1  0
 18 19  1  0
 18 20  2  0
 20 21  1  0
 21 22  1  0
 22 23  2  0
 23 24  1  0
 23 25  1  0
 25 26  1  0
 26 27  2  0
 26 28  1  0
 25 29  2  0
 29 30  1  0
 29 31  1  0
 31 32  1  0
 31 33  2  0
 33 34  1  0
 20 35  1  0
 35 36  1  0
 16 37  1  0
 37 38  1  0
 38 39  1  0
 39 40  1  0
 39 41  1  0
 39 42  1  0
 42 43  1  0
 42 44  1  0
 42 45  1  0
 37 46  2  0
 46 47  1  0
  8  4  1  0
 46 11  1  0
 33 22  1  0
M  CHG  3  21  -1  26   1  28  -1
M  END
>  <UniqueID>  (68) 
8

>  <SMILES>  (68) 
CCOc1cc(C(O)=C2CC2)ccc1O/C=C(\O)[N-]c1cc([N+](=O)[O-])ccc1Cl

>  <Energy>  (68) 
226.5984288551089

>  <Genealogy>  (68) 
CCOc1cc(C(=O)C2CC2)ccc1OCC(=O)[N-]c1cc([N+](=O)[O-])ccc1Cl (protonated)
CCOc1cc(C(O)=C2CC2)ccc1OC=C(O)[N-]c1cc([N+](=O)[O-])ccc1Cl (tautomer)
CCOc1cc(C(O)=C2CC2)ccc1O/C=C(\O)[N-]c1cc([N+](=O)[O-])ccc1Cl (cis-trans isomerization)
CCOc1cc(C(O)=C2CC2)ccc1O/C=C(\O)[N-]c1cc([N+](=O)[O-])ccc1Cl (3D coordinates assigned)
CCOc1cc(C(O)=C2CC2)ccc1O/C=C(\O)[N-]c1cc([N+](=O)[O-])ccc1Cl (nonaromatic ring conformer: 226.5984288551089 kcal/mol)

>  <smiles>  (68) 
CCOc1cc(C(=O)C2CC2)ccc1OCC(=O)Nc1cc([N+](=O)[O-])ccc1Cl

>  <score_type>  (68) 
oracle

>  <origin>  (68) 
autodockgpu

>  <m_score__min__energy>  (68) 
-6.4500000000000002

>  <m_primary>  (68) 
energy

>  <meeko>  (68) 
{"free_energy": -3.56, "intermolecular_energy": -7.14, "internal_energy": -4.72, "cluster_size": 1, "cluster_id": 7, "rank_in_cluster": 1}

>  <energy>  (68) 
-5.59

>  <cluster_rmsd>  (68) 
1.48

>  <rmsd>  (68) 
271.54

>  <cluster>  (68) 
1

$$$$
VUCFXBNYDUPJQC-ODLFYWEKNA-N
     RDKit          3D

 47 49  0  0  0  0  0  0  0  0999 V2000
  142.3410   81.5730  221.3670 H   0  0  0  0  0  0  0  0  0  0  0  0
  141.7760   81.8890  220.5870 O   0  0  0  0  0  0  0  0  0  0  0  0
  141.7020   81.1710  219.3930 C   0  0  0  0  0  0  0  0  0  0  0  0
  142.1850   81.7330  218.2840 C   0  0  0  0  0  0  0  0  0  0  0  0
  142.5830   81.6480  216.8120 C   0  0  0  0  0  0  0  0  0  0  0  0
  143.4670   81.0617  216.5207 H   0  0  0  0  0  0  0  0  0  0  0  0
  142.0615   81.3337  215.8959 H   0  0  0  0  0  0  0  0  0  0  0  0
  142.7540   82.8990  217.4760 C   0  0  0  0  0  0  0  0  0  0  0  0
  143.7682   83.2664  217.6913 H   0  0  0  0  0  0  0  0  0  0  0  0
  142.4160   83.9258  217.2724 H   0  0  0  0  0  0  0  0  0  0  0  0
  141.0990   79.8110  219.3970 C   0  0  0  0  0  0  0  0  0  0  0  0
  139.7060   79.6110  219.3360 C   0  0  0  0  0  0  0  0  0  0  0  0
  139.0339   80.4801  219.2822 H   0  0  0  0  0  0  0  0  0  0  0  0
  139.1690   78.3240  219.3430 C   0  0  0  0  0  0  0  0  0  0  0  0
  138.0782   78.1877  219.3028 H   0  0  0  0  0  0  0  0  0  0  0  0
  140.0100   77.2000  219.4010 C   0  0  0  0  0  0  0  0  0  0  0  0
  139.5070   75.8900  219.4130 O   0  0  0  0  0  0  0  0  0  0  0  0
  139.4460   75.0680  220.5430 C   0  0  0  0  0  0  0  0  0  0  0  0
  138.8707   74.1312  220.5061 H   0  0  0  0  0  0  0  0  0  0  0  0
  140.0830   75.4130  221.6700 C   0  0  0  0  0  0  0  0  0  0  0  0
  139.4400   76.2130  222.6740 N   0  0  0  0  0  0  0  0  0  0  0  0
  139.4580   77.6460  222.7530 C   0  0  0  0  0  0  0  0  0  0  0  0
  140.6960   78.3000  222.7960 C   0  0  0  0  0  0  0  0  0  0  0  0
  141.6233   77.7089  222.7684 H   0  0  0  0  0  0  0  0  0  0  0  0
  140.7690   79.7020  222.8740 C   0  0  0  0  0  0  0  0  0  0  0  0
  142.0430   80.3700  222.9390 N   0  0  0  0  0  0  0  0  0  0  0  0
  143.0660   79.8390  222.4570 O   0  0  0  0  0  0  0  0  0  0  0  0
  142.1560   81.6060  223.5330 O   0  0  0  0  0  0  0  0  0  0  0  0
  139.5770   80.4440  222.8890 C   0  0  0  0  0  0  0  0  0  0  0  0
  139.6175   81.5408  222.9620 H   0  0  0  0  0  0  0  0  0  0  0  0
  138.3410   79.8000  222.8120 C   0  0  0  0  0  0  0  0  0  0  0  0
  137.4151   80.3939  222.8127 H   0  0  0  0  0  0  0  0  0  0  0  0
  138.2710   78.4070  222.7340 C   0  0  0  0  0  0  0  0  0  0  0  0
  136.6910   77.6580  222.5340 Cl  0  0  0  0  0  0  0  0  0  0  0  0
  141.3850   74.9780  221.9130 O   0  0  0  0  0  0  0  0  0  0  0  0
  142.2010   75.4950  221.6080 H   0  0  0  0  0  0  0  0  0  0  0  0
  141.3990   77.3790  219.4760 C   0  0  0  0  0  0  0  0  0  0  0  0
  142.2070   76.2290  219.5550 O   0  0  0  0  0  0  0  0  0  0  0  0
  143.6300   76.2140  219.6720 C   0  0  0  0  0  0  0  0  0  0  0  0
  143.9364   76.9431  220.4366 H   0  0  0  0  0  0  0  0  0  0  0  0
  144.0661   76.4750  218.6965 H   0  0  0  0  0  0  0  0  0  0  0  0
  144.1270   74.8300  220.0740 C   0  0  0  0  0  0  0  0  0  0  0  0
  144.1541   74.7545  221.1711 H   0  0  0  0  0  0  0  0  0  0  0  0
  143.4475   74.0649  219.6705 H   0  0  0  0  0  0  0  0  0  0  0  0
  145.1380   74.6720  219.6705 H   0  0  0  0  0  0  0  0  0  0  0  0
  141.9350   78.6820  219.4750 C   0  0  0  0  0  0  0  0  0  0  0  0
  143.0247   78.8188  219.5362 H   0  0  0  0  0  0  0  0  0  0  0  0
  1  2  1  0
  2  3  1  0
  3  4  2  3
  4  5  1  0
  5  6  1  0
  5  7  1  0
  5  8  1  0
  8  9  1  0
  8 10  1  0
  3 11  1  0
 11 12  2  0
 12 13  1  0
 12 14  1  0
 14 15  1  0
 14 16  2  0
 16 17  1  0
 17 18  1  0
 18 19  1  0
 18 20  2  0
 20 21  1  0
 21 22  1  0
 22 23  2  0
 23 24  1  0
 23 25  1  0
 25 26  1  0
 26 27  2  0
 26 28  1  0
 25 29  2  0
 29 30  1  0
 29 31  1  0
 31 32  1  0
 31 33  2  0
 33 34  1  0
 20 35  1  0
 35 36  1  0
 16 37  1  0
 37 38  1  0
 38 39  1  0
 39 40  1  0
 39 41  1  0
 39 42  1  0
 42 43  1  0
 42 44  1  0
 42 45  1  0
 37 46  2  0
 46 47  1  0
  8  4  1  0
 46 11  1  0
 33 22  1  0
M  CHG  3  21  -1  26   1  28  -1
M  END
>  <UniqueID>  (69) 
8

>  <SMILES>  (69) 
CCOc1cc(C(O)=C2CC2)ccc1O/C=C(\O)[N-]c1cc([N+](=O)[O-])ccc1Cl

>  <Energy>  (69) 
226.5984288551089

>  <Genealogy>  (69) 
CCOc1cc(C(=O)C2CC2)ccc1OCC(=O)[N-]c1cc([N+](=O)[O-])ccc1Cl (protonated)
CCOc1cc(C(O)=C2CC2)ccc1OC=C(O)[N-]c1cc([N+](=O)[O-])ccc1Cl (tautomer)
CCOc1cc(C(O)=C2CC2)ccc1O/C=C(\O)[N-]c1cc([N+](=O)[O-])ccc1Cl (cis-trans isomerization)
CCOc1cc(C(O)=C2CC2)ccc1O/C=C(\O)[N-]c1cc([N+](=O)[O-])ccc1Cl (3D coordinates assigned)
CCOc1cc(C(O)=C2CC2)ccc1O/C=C(\O)[N-]c1cc([N+](=O)[O-])ccc1Cl (nonaromatic ring conformer: 226.5984288551089 kcal/mol)

>  <smiles>  (69) 
CCOc1cc(C(=O)C2CC2)ccc1OCC(=O)Nc1cc([N+](=O)[O-])ccc1Cl

>  <score_type>  (69) 
oracle

>  <origin>  (69) 
autodockgpu

>  <m_score__min__energy>  (69) 
-6.4500000000000002

>  <m_primary>  (69) 
energy

>  <meeko>  (69) 
{"free_energy": -3.32, "intermolecular_energy": -6.9, "internal_energy": -4.77, "cluster_size": 2, "cluster_id": 10, "rank_in_cluster": 1}

>  <energy>  (69) 
-6.04

>  <cluster_rmsd>  (69) 
0.0

>  <rmsd>  (69) 
271.07

>  <cluster>  (69) 
2

$$$$
VUCFXBNYDUPJQC-ODLFYWEKNA-N
     RDKit          3D

 47 49  0  0  0  0  0  0  0  0999 V2000
  138.1390   79.8040  223.8010 H   0  0  0  0  0  0  0  0  0  0  0  0
  139.0160   80.2820  223.6300 O   0  0  0  0  0  0  0  0  0  0  0  0
  140.1730   79.5930  223.2660 C   0  0  0  0  0  0  0  0  0  0  0  0
  141.3480   80.2130  223.3890 C   0  0  0  0  0  0  0  0  0  0  0  0
  142.1910   81.3800  223.8980 C   0  0  0  0  0  0  0  0  0  0  0  0
  142.0717   82.3753  223.4450 H   0  0  0  0  0  0  0  0  0  0  0  0
  142.3450   81.8384  224.8860 H   0  0  0  0  0  0  0  0  0  0  0  0
  142.8540   80.3480  223.1690 C   0  0  0  0  0  0  0  0  0  0  0  0
  143.2399   80.5563  222.1602 H   0  0  0  0  0  0  0  0  0  0  0  0
  143.7185   79.6998  223.3752 H   0  0  0  0  0  0  0  0  0  0  0  0
  140.0620   78.1960  222.7630 C   0  0  0  0  0  0  0  0  0  0  0  0
  141.1660   77.5030  222.2330 C   0  0  0  0  0  0  0  0  0  0  0  0
  142.1467   77.9989  222.1849 H   0  0  0  0  0  0  0  0  0  0  0  0
  141.0320   76.1950  221.7680 C   0  0  0  0  0  0  0  0  0  0  0  0
  141.9049   75.6718  221.3505 H   0  0  0  0  0  0  0  0  0  0  0  0
  139.7890   75.5400  221.8290 C   0  0  0  0  0  0  0  0  0  0  0  0
  139.6130   74.2260  221.3680 O   0  0  0  0  0  0  0  0  0  0  0  0
  140.0630   73.0810  222.0320 C   0  0  0  0  0  0  0  0  0  0  0  0
  141.1428   72.9051  222.1466 H   0  0  0  0  0  0  0  0  0  0  0  0
  139.1880   72.1960  222.5300 C   0  0  0  0  0  0  0  0  0  0  0  0
  139.6000   70.8730  222.9070 N   0  0  0  0  0  0  0  0  0  0  0  0
  139.7920   70.3990  224.2480 C   0  0  0  0  0  0  0  0  0  0  0  0
  140.2300   71.3030  225.2240 C   0  0  0  0  0  0  0  0  0  0  0  0
  140.4168   72.3513  224.9481 H   0  0  0  0  0  0  0  0  0  0  0  0
  140.4340   70.8880  226.5520 C   0  0  0  0  0  0  0  0  0  0  0  0
  140.9030   71.8160  227.5490 N   0  0  0  0  0  0  0  0  0  0  0  0
  140.3570   71.8760  228.6700 O   0  0  0  0  0  0  0  0  0  0  0  0
  141.9610   72.6540  227.2820 O   0  0  0  0  0  0  0  0  0  0  0  0
  140.1730   69.5510  226.8940 C   0  0  0  0  0  0  0  0  0  0  0  0
  140.3385   69.2090  227.9263 H   0  0  0  0  0  0  0  0  0  0  0  0
  139.7050   68.6530  225.9330 C   0  0  0  0  0  0  0  0  0  0  0  0
  139.4945   67.6111  226.2160 H   0  0  0  0  0  0  0  0  0  0  0  0
  139.5020   69.0680  224.6140 C   0  0  0  0  0  0  0  0  0  0  0  0
  138.8120   67.9200  223.4720 Cl  0  0  0  0  0  0  0  0  0  0  0  0
  137.8520   72.5470  222.7230 O   0  0  0  0  0  0  0  0  0  0  0  0
  137.5520   73.5060  222.8510 H   0  0  0  0  0  0  0  0  0  0  0  0
  138.6740   76.2190  222.3400 C   0  0  0  0  0  0  0  0  0  0  0  0
  137.4440   75.5380  222.3650 O   0  0  0  0  0  0  0  0  0  0  0  0
  136.2550   75.9820  223.0210 C   0  0  0  0  0  0  0  0  0  0  0  0
  135.4858   76.1989  222.2652 H   0  0  0  0  0  0  0  0  0  0  0  0
  136.4893   76.8874  223.6002 H   0  0  0  0  0  0  0  0  0  0  0  0
  135.7310   74.9140  223.9750 C   0  0  0  0  0  0  0  0  0  0  0  0
  135.8908   75.2397  225.0135 H   0  0  0  0  0  0  0  0  0  0  0  0
  134.6558   74.7616  223.7999 H   0  0  0  0  0  0  0  0  0  0  0  0
  136.2684   73.9703  223.7999 H   0  0  0  0  0  0  0  0  0  0  0  0
  138.8160   77.5430  222.8030 C   0  0  0  0  0  0  0  0  0  0  0  0
  137.9391   78.0740  223.2018 H   0  0  0  0  0  0  0  0  0  0  0  0
  1  2  1  0
  2  3  1  0
  3  4  2  3
  4  5  1  0
  5  6  1  0
  5  7  1  0
  5  8  1  0
  8  9  1  0
  8 10  1  0
  3 11  1  0
 11 12  2  0
 12 13  1  0
 12 14  1  0
 14 15  1  0
 14 16  2  0
 16 17  1  0
 17 18  1  0
 18 19  1  0
 18 20  2  0
 20 21  1  0
 21 22  1  0
 22 23  2  0
 23 24  1  0
 23 25  1  0
 25 26  1  0
 26 27  2  0
 26 28  1  0
 25 29  2  0
 29 30  1  0
 29 31  1  0
 31 32  1  0
 31 33  2  0
 33 34  1  0
 20 35  1  0
 35 36  1  0
 16 37  1  0
 37 38  1  0
 38 39  1  0
 39 40  1  0
 39 41  1  0
 39 42  1  0
 42 43  1  0
 42 44  1  0
 42 45  1  0
 37 46  2  0
 46 47  1  0
  8  4  1  0
 46 11  1  0
 33 22  1  0
M  CHG  3  21  -1  26   1  28  -1
M  END
>  <UniqueID>  (70) 
8

>  <SMILES>  (70) 
CCOc1cc(C(O)=C2CC2)ccc1O/C=C(\O)[N-]c1cc([N+](=O)[O-])ccc1Cl

>  <Energy>  (70) 
226.5984288551089

>  <Genealogy>  (70) 
CCOc1cc(C(=O)C2CC2)ccc1OCC(=O)[N-]c1cc([N+](=O)[O-])ccc1Cl (protonated)
CCOc1cc(C(O)=C2CC2)ccc1OC=C(O)[N-]c1cc([N+](=O)[O-])ccc1Cl (tautomer)
CCOc1cc(C(O)=C2CC2)ccc1O/C=C(\O)[N-]c1cc([N+](=O)[O-])ccc1Cl (cis-trans isomerization)
CCOc1cc(C(O)=C2CC2)ccc1O/C=C(\O)[N-]c1cc([N+](=O)[O-])ccc1Cl (3D coordinates assigned)
CCOc1cc(C(O)=C2CC2)ccc1O/C=C(\O)[N-]c1cc([N+](=O)[O-])ccc1Cl (nonaromatic ring conformer: 226.5984288551089 kcal/mol)

>  <smiles>  (70) 
CCOc1cc(C(=O)C2CC2)ccc1OCC(=O)Nc1cc([N+](=O)[O-])ccc1Cl

>  <score_type>  (70) 
oracle

>  <origin>  (70) 
autodockgpu

>  <m_score__min__energy>  (70) 
-6.4500000000000002

>  <m_primary>  (70) 
energy

>  <meeko>  (70) 
{"free_energy": -6.45, "intermolecular_energy": -10.03, "internal_energy": -2.09, "cluster_size": 8, "cluster_id": 1, "rank_in_cluster": 2}

>  <energy>  (70) 
-5.9

>  <cluster_rmsd>  (70) 
0.0

>  <rmsd>  (70) 
270.52

>  <cluster>  (70) 
3

$$$$
VUCFXBNYDUPJQC-ODLFYWEKNA-N
     RDKit          3D

 47 49  0  0  0  0  0  0  0  0999 V2000
  140.5170   72.3700  228.0650 H   0  0  0  0  0  0  0  0  0  0  0  0
  141.1190   71.7490  227.5370 O   0  0  0  0  0  0  0  0  0  0  0  0
  140.6250   70.6100  226.8990 C   0  0  0  0  0  0  0  0  0  0  0  0
  140.7910   69.4270  227.4920 C   0  0  0  0  0  0  0  0  0  0  0  0
  141.0150   67.9190  227.4170 C   0  0  0  0  0  0  0  0  0  0  0  0
  140.2073   67.2668  227.0534 H   0  0  0  0  0  0  0  0  0  0  0  0
  141.7639   67.2810  226.9250 H   0  0  0  0  0  0  0  0  0  0  0  0
  140.9140   68.5120  228.7100 C   0  0  0  0  0  0  0  0  0  0  0  0
  140.0292   68.3127  229.3324 H   0  0  0  0  0  0  0  0  0  0  0  0
  141.5541   68.5107  229.6046 H   0  0  0  0  0  0  0  0  0  0  0  0
  139.9270   70.7520  225.5910 C   0  0  0  0  0  0  0  0  0  0  0  0
  138.9100   69.8670  225.1890 C   0  0  0  0  0  0  0  0  0  0  0  0
  138.6129   69.0421  225.8533 H   0  0  0  0  0  0  0  0  0  0  0  0
  138.2740   70.0240  223.9570 C   0  0  0  0  0  0  0  0  0  0  0  0
  137.4855   69.3185  223.6561 H   0  0  0  0  0  0  0  0  0  0  0  0
  138.6330   71.0770  223.0970 C   0  0  0  0  0  0  0  0  0  0  0  0
  138.0190   71.2650  221.8500 O   0  0  0  0  0  0  0  0  0  0  0  0
  136.8020   71.9240  221.6500 C   0  0  0  0  0  0  0  0  0  0  0  0
  136.0630   71.5051  220.9512 H   0  0  0  0  0  0  0  0  0  0  0  0
  136.5290   73.0620  222.3030 C   0  0  0  0  0  0  0  0  0  0  0  0
  135.2620   73.2650  222.9470 N   0  0  0  0  0  0  0  0  0  0  0  0
  134.8120   72.6230  224.1490 C   0  0  0  0  0  0  0  0  0  0  0  0
  134.8360   71.2240  224.2120 C   0  0  0  0  0  0  0  0  0  0  0  0
  135.1969   70.6483  223.3470 H   0  0  0  0  0  0  0  0  0  0  0  0
  134.4050   70.5450  225.3660 C   0  0  0  0  0  0  0  0  0  0  0  0
  134.4120   69.1070  225.4200 N   0  0  0  0  0  0  0  0  0  0  0  0
  134.9590   68.4380  224.5170 O   0  0  0  0  0  0  0  0  0  0  0  0
  133.8160   68.4430  226.4670 O   0  0  0  0  0  0  0  0  0  0  0  0
  133.9660   71.2950  226.4700 C   0  0  0  0  0  0  0  0  0  0  0  0
  133.6157   70.7788  227.3760 H   0  0  0  0  0  0  0  0  0  0  0  0
  133.9710   72.6910  226.4260 C   0  0  0  0  0  0  0  0  0  0  0  0
  133.6344   73.2664  227.3010 H   0  0  0  0  0  0  0  0  0  0  0  0
  134.4010   73.3620  225.2770 C   0  0  0  0  0  0  0  0  0  0  0  0
  134.4840   75.1200  225.3170 Cl  0  0  0  0  0  0  0  0  0  0  0  0
  137.4850   74.0730  222.4010 O   0  0  0  0  0  0  0  0  0  0  0  0
  138.4210   73.9090  222.7530 H   0  0  0  0  0  0  0  0  0  0  0  0
  139.6540   71.9600  223.4750 C   0  0  0  0  0  0  0  0  0  0  0  0
  140.0000   72.9880  222.5790 O   0  0  0  0  0  0  0  0  0  0  0  0
  141.0540   72.9380  221.6170 C   0  0  0  0  0  0  0  0  0  0  0  0
  142.0144   73.1081  222.1257 H   0  0  0  0  0  0  0  0  0  0  0  0
  140.8769   73.7167  220.8606 H   0  0  0  0  0  0  0  0  0  0  0  0
  141.0910   71.5820  220.9210 C   0  0  0  0  0  0  0  0  0  0  0  0
  141.1128   70.7826  221.6763 H   0  0  0  0  0  0  0  0  0  0  0  0
  140.1956   71.4680  220.2923 H   0  0  0  0  0  0  0  0  0  0  0  0
  141.9913   71.5170  220.2923 H   0  0  0  0  0  0  0  0  0  0  0  0
  140.2960   71.7920  224.7180 C   0  0  0  0  0  0  0  0  0  0  0  0
  141.0986   72.4850  225.0106 H   0  0  0  0  0  0  0  0  0  0  0  0
  1  2  1  0
  2  3  1  0
  3  4  2  3
  4  5  1  0
  5  6  1  0
  5  7  1  0
  5  8  1  0
  8  9  1  0
  8 10  1  0
  3 11  1  0
 11 12  2  0
 12 13  1  0
 12 14  1  0
 14 15  1  0
 14 16  2  0
 16 17  1  0
 17 18  1  0
 18 19  1  0
 18 20  2  0
 20 21  1  0
 21 22  1  0
 22 23  2  0
 23 24  1  0
 23 25  1  0
 25 26  1  0
 26 27  2  0
 26 28  1  0
 25 29  2  0
 29 30  1  0
 29 31  1  0
 31 32  1  0
 31 33  2  0
 33 34  1  0
 20 35  1  0
 35 36  1  0
 16 37  1  0
 37 38  1  0
 38 39  1  0
 39 40  1  0
 39 41  1  0
 39 42  1  0
 42 43  1  0
 42 44  1  0
 42 45  1  0
 37 46  2  0
 46 47  1  0
  8  4  1  0
 46 11  1  0
 33 22  1  0
M  CHG  3  21  -1  26   1  28  -1
M  END
>  <UniqueID>  (71) 
8

>  <SMILES>  (71) 
CCOc1cc(C(O)=C2CC2)ccc1O/C=C(\O)[N-]c1cc([N+](=O)[O-])ccc1Cl

>  <Energy>  (71) 
226.5984288551089

>  <Genealogy>  (71) 
CCOc1cc(C(=O)C2CC2)ccc1OCC(=O)[N-]c1cc([N+](=O)[O-])ccc1Cl (protonated)
CCOc1cc(C(O)=C2CC2)ccc1OC=C(O)[N-]c1cc([N+](=O)[O-])ccc1Cl (tautomer)
CCOc1cc(C(O)=C2CC2)ccc1O/C=C(\O)[N-]c1cc([N+](=O)[O-])ccc1Cl (cis-trans isomerization)
CCOc1cc(C(O)=C2CC2)ccc1O/C=C(\O)[N-]c1cc([N+](=O)[O-])ccc1Cl (3D coordinates assigned)
CCOc1cc(C(O)=C2CC2)ccc1O/C=C(\O)[N-]c1cc([N+](=O)[O-])ccc1Cl (nonaromatic ring conformer: 226.5984288551089 kcal/mol)

>  <smiles>  (71) 
CCOc1cc(C(=O)C2CC2)ccc1OCC(=O)Nc1cc([N+](=O)[O-])ccc1Cl

>  <score_type>  (71) 
oracle

>  <origin>  (71) 
autodockgpu

>  <m_score__min__energy>  (71) 
-6.4500000000000002

>  <m_primary>  (71) 
energy

>  <meeko>  (71) 
{"free_energy": -5.9, "intermolecular_energy": -9.48, "internal_energy": -2.69, "cluster_size": 1, "cluster_id": 3, "rank_in_cluster": 1}

>  <energy>  (71) 
-5.63

>  <cluster_rmsd>  (71) 
0.0

>  <rmsd>  (71) 
270.58

>  <cluster>  (71) 
4

$$$$
VUCFXBNYDUPJQC-ODLFYWEKNA-N
     RDKit          3D

 47 49  0  0  0  0  0  0  0  0999 V2000
  140.5170   81.4440  223.3330 H   0  0  0  0  0  0  0  0  0  0  0  0
  139.5790   81.6400  223.0000 O   0  0  0  0  0  0  0  0  0  0  0  0
  138.5110   80.7790  223.2560 C   0  0  0  0  0  0  0  0  0  0  0  0
  137.6470   81.1090  224.2170 C   0  0  0  0  0  0  0  0  0  0  0  0
  136.2160   81.2390  224.7350 C   0  0  0  0  0  0  0  0  0  0  0  0
  135.5529   82.0089  224.3135 H   0  0  0  0  0  0  0  0  0  0  0  0
  135.3681   80.5436  224.8218 H   0  0  0  0  0  0  0  0  0  0  0  0
  137.2770   81.6230  225.6080 C   0  0  0  0  0  0  0  0  0  0  0  0
  137.4231   82.6856  225.8520 H   0  0  0  0  0  0  0  0  0  0  0  0
  137.5670   81.3395  226.6305 H   0  0  0  0  0  0  0  0  0  0  0  0
  138.3680   79.5360  222.4510 C   0  0  0  0  0  0  0  0  0  0  0  0
  138.5410   79.5280  221.0540 C   0  0  0  0  0  0  0  0  0  0  0  0
  138.7903   80.4634  220.5316 H   0  0  0  0  0  0  0  0  0  0  0  0
  138.4000   78.3480  220.3250 C   0  0  0  0  0  0  0  0  0  0  0  0
  138.5333   78.3624  219.2332 H   0  0  0  0  0  0  0  0  0  0  0  0
  138.0890   77.1400  220.9730 C   0  0  0  0  0  0  0  0  0  0  0  0
  137.9350   75.9330  220.2740 O   0  0  0  0  0  0  0  0  0  0  0  0
  138.8910   74.9140  220.2210 C   0  0  0  0  0  0  0  0  0  0  0  0
  138.8598   74.1786  219.4035 H   0  0  0  0  0  0  0  0  0  0  0  0
  139.8450   74.8260  221.1580 C   0  0  0  0  0  0  0  0  0  0  0  0
  141.1230   75.4550  220.9810 N   0  0  0  0  0  0  0  0  0  0  0  0
  141.3650   76.8680  220.9020 C   0  0  0  0  0  0  0  0  0  0  0  0
  141.4240   77.6060  222.0910 C   0  0  0  0  0  0  0  0  0  0  0  0
  141.2848   77.0947  223.0550 H   0  0  0  0  0  0  0  0  0  0  0  0
  141.6590   78.9930  222.0680 C   0  0  0  0  0  0  0  0  0  0  0  0
  141.6980   79.7520  223.2910 N   0  0  0  0  0  0  0  0  0  0  0  0
  140.9270   79.4810  224.2350 O   0  0  0  0  0  0  0  0  0  0  0  0
  142.5870   80.7920  223.4400 O   0  0  0  0  0  0  0  0  0  0  0  0
  141.8540   79.6280  220.8310 C   0  0  0  0  0  0  0  0  0  0  0  0
  142.0270   80.7137  220.7961 H   0  0  0  0  0  0  0  0  0  0  0  0
  141.8300   78.8920  219.6450 C   0  0  0  0  0  0  0  0  0  0  0  0
  141.9949   79.4004  218.6836 H   0  0  0  0  0  0  0  0  0  0  0  0
  141.5980   77.5140  219.6700 C   0  0  0  0  0  0  0  0  0  0  0  0
  141.6830   76.6230  218.1550 Cl  0  0  0  0  0  0  0  0  0  0  0  0
  139.6090   74.1410  222.3510 O   0  0  0  0  0  0  0  0  0  0  0  0
  138.8020   74.3220  222.9350 H   0  0  0  0  0  0  0  0  0  0  0  0
  137.8980   77.1310  222.3630 C   0  0  0  0  0  0  0  0  0  0  0  0
  137.5670   75.9080  222.9730 O   0  0  0  0  0  0  0  0  0  0  0  0
  136.2790   75.5430  223.4700 C   0  0  0  0  0  0  0  0  0  0  0  0
  136.3138   75.5063  224.5688 H   0  0  0  0  0  0  0  0  0  0  0  0
  136.0103   74.5575  223.0619 H   0  0  0  0  0  0  0  0  0  0  0  0
  135.2240   76.5550  223.0370 C   0  0  0  0  0  0  0  0  0  0  0  0
  134.7577   77.0023  223.9273 H   0  0  0  0  0  0  0  0  0  0  0  0
  135.6983   77.3446  222.4357 H   0  0  0  0  0  0  0  0  0  0  0  0
  134.4548   76.0483  222.4357 H   0  0  0  0  0  0  0  0  0  0  0  0
  138.0370   78.3280  223.0930 C   0  0  0  0  0  0  0  0  0  0  0  0
  137.8844   78.3183  224.1823 H   0  0  0  0  0  0  0  0  0  0  0  0
  1  2  1  0
  2  3  1  0
  3  4  2  3
  4  5  1  0
  5  6  1  0
  5  7  1  0
  5  8  1  0
  8  9  1  0
  8 10  1  0
  3 11  1  0
 11 12  2  0
 12 13  1  0
 12 14  1  0
 14 15  1  0
 14 16  2  0
 16 17  1  0
 17 18  1  0
 18 19  1  0
 18 20  2  0
 20 21  1  0
 21 22  1  0
 22 23  2  0
 23 24  1  0
 23 25  1  0
 25 26  1  0
 26 27  2  0
 26 28  1  0
 25 29  2  0
 29 30  1  0
 29 31  1  0
 31 32  1  0
 31 33  2  0
 33 34  1  0
 20 35  1  0
 35 36  1  0
 16 37  1  0
 37 38  1  0
 38 39  1  0
 39 40  1  0
 39 41  1  0
 39 42  1  0
 42 43  1  0
 42 44  1  0
 42 45  1  0
 37 46  2  0
 46 47  1  0
  8  4  1  0
 46 11  1  0
 33 22  1  0
M  CHG  3  21  -1  26   1  28  -1
M  END
>  <UniqueID>  (72) 
8

>  <SMILES>  (72) 
CCOc1cc(C(O)=C2CC2)ccc1O/C=C(\O)[N-]c1cc([N+](=O)[O-])ccc1Cl

>  <Energy>  (72) 
226.5984288551089

>  <Genealogy>  (72) 
CCOc1cc(C(=O)C2CC2)ccc1OCC(=O)[N-]c1cc([N+](=O)[O-])ccc1Cl (protonated)
CCOc1cc(C(O)=C2CC2)ccc1OC=C(O)[N-]c1cc([N+](=O)[O-])ccc1Cl (tautomer)
CCOc1cc(C(O)=C2CC2)ccc1O/C=C(\O)[N-]c1cc([N+](=O)[O-])ccc1Cl (cis-trans isomerization)
CCOc1cc(C(O)=C2CC2)ccc1O/C=C(\O)[N-]c1cc([N+](=O)[O-])ccc1Cl (3D coordinates assigned)
CCOc1cc(C(O)=C2CC2)ccc1O/C=C(\O)[N-]c1cc([N+](=O)[O-])ccc1Cl (nonaromatic ring conformer: 226.5984288551089 kcal/mol)

>  <smiles>  (72) 
CCOc1cc(C(=O)C2CC2)ccc1OCC(=O)Nc1cc([N+](=O)[O-])ccc1Cl

>  <score_type>  (72) 
oracle

>  <origin>  (72) 
autodockgpu

>  <m_score__min__energy>  (72) 
-6.4500000000000002

>  <m_primary>  (72) 
energy

>  <meeko>  (72) 
{"free_energy": -3.38, "intermolecular_energy": -6.96, "internal_energy": -4.82, "cluster_size": 2, "cluster_id": 9, "rank_in_cluster": 1}

>  <energy>  (72) 
-5.45

>  <cluster_rmsd>  (72) 
0.0

>  <rmsd>  (72) 
271.37

>  <cluster>  (72) 
5

$$$$
VUCFXBNYDUPJQC-ODLFYWEKNA-N
     RDKit          3D

 47 49  0  0  0  0  0  0  0  0999 V2000
  139.0850   68.1700  224.8960 H   0  0  0  0  0  0  0  0  0  0  0  0
  138.9080   68.8770  225.6010 O   0  0  0  0  0  0  0  0  0  0  0  0
  139.5510   70.1160  225.5810 C   0  0  0  0  0  0  0  0  0  0  0  0
  140.1610   70.5320  226.6910 C   0  0  0  0  0  0  0  0  0  0  0  0
  140.6870   71.6560  227.5810 C   0  0  0  0  0  0  0  0  0  0  0  0
  141.5634   72.2384  227.2605 H   0  0  0  0  0  0  0  0  0  0  0  0
  140.2363   72.5586  228.0194 H   0  0  0  0  0  0  0  0  0  0  0  0
  140.8590   70.3140  228.0330 C   0  0  0  0  0  0  0  0  0  0  0  0
  141.8664   69.8729  228.0569 H   0  0  0  0  0  0  0  0  0  0  0  0
  140.5928   69.7774  228.9556 H   0  0  0  0  0  0  0  0  0  0  0  0
  139.5410   70.9210  224.3290 C   0  0  0  0  0  0  0  0  0  0  0  0
  140.7100   71.1450  223.5770 C   0  0  0  0  0  0  0  0  0  0  0  0
  141.6648   70.7159  223.9151 H   0  0  0  0  0  0  0  0  0  0  0  0
  140.6710   71.9050  222.4080 C   0  0  0  0  0  0  0  0  0  0  0  0
  141.5953   72.0738  221.8359 H   0  0  0  0  0  0  0  0  0  0  0  0
  139.4600   72.4570  221.9550 C   0  0  0  0  0  0  0  0  0  0  0  0
  139.3810   73.2300  220.7870 O   0  0  0  0  0  0  0  0  0  0  0  0
  140.0000   74.4710  220.6070 C   0  0  0  0  0  0  0  0  0  0  0  0
  140.6444   74.6385  219.7314 H   0  0  0  0  0  0  0  0  0  0  0  0
  139.8130   75.4580  221.4950 C   0  0  0  0  0  0  0  0  0  0  0  0
  140.2330   76.8020  221.2130 N   0  0  0  0  0  0  0  0  0  0  0  0
  140.1750   77.9130  222.1190 C   0  0  0  0  0  0  0  0  0  0  0  0
  141.3530   78.6210  222.3880 C   0  0  0  0  0  0  0  0  0  0  0  0
  142.2923   78.3154  221.9040 H   0  0  0  0  0  0  0  0  0  0  0  0
  141.3510   79.7180  223.2690 C   0  0  0  0  0  0  0  0  0  0  0  0
  142.5680   80.4310  223.5590 N   0  0  0  0  0  0  0  0  0  0  0  0
  143.6350   80.1300  222.9840 O   0  0  0  0  0  0  0  0  0  0  0  0
  142.5760   81.4560  224.4760 O   0  0  0  0  0  0  0  0  0  0  0  0
  140.1410   80.1070  223.8650 C   0  0  0  0  0  0  0  0  0  0  0  0
  140.1255   80.9547  224.5658 H   0  0  0  0  0  0  0  0  0  0  0  0
  138.9570   79.4260  223.5750 C   0  0  0  0  0  0  0  0  0  0  0  0
  138.0139   79.7484  224.0404 H   0  0  0  0  0  0  0  0  0  0  0  0
  138.9610   78.3380  222.6980 C   0  0  0  0  0  0  0  0  0  0  0  0
  137.4240   77.5850  222.2900 Cl  0  0  0  0  0  0  0  0  0  0  0  0
  139.1760   75.2110  222.7110 O   0  0  0  0  0  0  0  0  0  0  0  0
  138.4800   74.4840  222.8260 H   0  0  0  0  0  0  0  0  0  0  0  0
  138.2880   72.2570  222.6990 C   0  0  0  0  0  0  0  0  0  0  0  0
  137.1000   72.8430  222.2250 O   0  0  0  0  0  0  0  0  0  0  0  0
  135.9360   73.1200  223.0040 C   0  0  0  0  0  0  0  0  0  0  0  0
  136.0202   72.6059  223.9728 H   0  0  0  0  0  0  0  0  0  0  0  0
  135.0523   72.7625  222.4551 H   0  0  0  0  0  0  0  0  0  0  0  0
  135.7870   74.6180  223.2450 C   0  0  0  0  0  0  0  0  0  0  0  0
  135.7674   74.8151  224.3270 H   0  0  0  0  0  0  0  0  0  0  0  0
  136.6368   75.1487  222.7909 H   0  0  0  0  0  0  0  0  0  0  0  0
  134.8493   74.9709  222.7909 H   0  0  0  0  0  0  0  0  0  0  0  0
  138.3360   71.4930  223.8820 C   0  0  0  0  0  0  0  0  0  0  0  0
  137.4160   71.3413  224.4657 H   0  0  0  0  0  0  0  0  0  0  0  0
  1  2  1  0
  2  3  1  0
  3  4  2  3
  4  5  1  0
  5  6  1  0
  5  7  1  0
  5  8  1  0
  8  9  1  0
  8 10  1  0
  3 11  1  0
 11 12  2  0
 12 13  1  0
 12 14  1  0
 14 15  1  0
 14 16  2  0
 16 17  1  0
 17 18  1  0
 18 19  1  0
 18 20  2  0
 20 21  1  0
 21 22  1  0
 22 23  2  0
 23 24  1  0
 23 25  1  0
 25 26  1  0
 26 27  2  0
 26 28  1  0
 25 29  2  0
 29 30  1  0
 29 31  1  0
 31 32  1  0
 31 33  2  0
 33 34  1  0
 20 35  1  0
 35 36  1  0
 16 37  1  0
 37 38  1  0
 38 39  1  0
 39 40  1  0
 39 41  1  0
 39 42  1  0
 42 43  1  0
 42 44  1  0
 42 45  1  0
 37 46  2  0
 46 47  1  0
  8  4  1  0
 46 11  1  0
 33 22  1  0
M  CHG  3  21  -1  26   1  28  -1
M  END
>  <UniqueID>  (73) 
8

>  <SMILES>  (73) 
CCOc1cc(C(O)=C2CC2)ccc1O/C=C(\O)[N-]c1cc([N+](=O)[O-])ccc1Cl

>  <Energy>  (73) 
226.5984288551089

>  <Genealogy>  (73) 
CCOc1cc(C(=O)C2CC2)ccc1OCC(=O)[N-]c1cc([N+](=O)[O-])ccc1Cl (protonated)
CCOc1cc(C(O)=C2CC2)ccc1OC=C(O)[N-]c1cc([N+](=O)[O-])ccc1Cl (tautomer)
CCOc1cc(C(O)=C2CC2)ccc1O/C=C(\O)[N-]c1cc([N+](=O)[O-])ccc1Cl (cis-trans isomerization)
CCOc1cc(C(O)=C2CC2)ccc1O/C=C(\O)[N-]c1cc([N+](=O)[O-])ccc1Cl (3D coordinates assigned)
CCOc1cc(C(O)=C2CC2)ccc1O/C=C(\O)[N-]c1cc([N+](=O)[O-])ccc1Cl (nonaromatic ring conformer: 226.5984288551089 kcal/mol)

>  <smiles>  (73) 
CCOc1cc(C(=O)C2CC2)ccc1OCC(=O)Nc1cc([N+](=O)[O-])ccc1Cl

>  <score_type>  (73) 
oracle

>  <origin>  (73) 
autodockgpu

>  <m_score__min__energy>  (73) 
-6.4500000000000002

>  <m_primary>  (73) 
energy

>  <meeko>  (73) 
{"free_energy": -5.45, "intermolecular_energy": -9.02, "internal_energy": -2.16, "cluster_size": 1, "cluster_id": 5, "rank_in_cluster": 1}

>  <energy>  (73) 
-3.78

>  <cluster_rmsd>  (73) 
0.0

>  <rmsd>  (73) 
269.68

>  <cluster>  (73) 
6

$$$$
VUCFXBNYDUPJQC-ODLFYWEKNA-N
     RDKit          3D

 47 49  0  0  0  0  0  0  0  0999 V2000
  133.7540   75.3370  225.5750 H   0  0  0  0  0  0  0  0  0  0  0  0
  134.1590   74.6350  226.1840 O   0  0  0  0  0  0  0  0  0  0  0  0
  134.3780   73.3250  225.7560 C   0  0  0  0  0  0  0  0  0  0  0  0
  133.8630   72.3270  226.4750 C   0  0  0  0  0  0  0  0  0  0  0  0
  132.6920   71.6840  227.2150 C   0  0  0  0  0  0  0  0  0  0  0  0
  132.3359   72.1256  228.1574 H   0  0  0  0  0  0  0  0  0  0  0  0
  131.6599   71.4261  226.9354 H   0  0  0  0  0  0  0  0  0  0  0  0
  133.9320   70.9780  227.1910 C   0  0  0  0  0  0  0  0  0  0  0  0
  134.5213   70.8819  228.1148 H   0  0  0  0  0  0  0  0  0  0  0  0
  134.2294   69.9639  226.8857 H   0  0  0  0  0  0  0  0  0  0  0  0
  135.1650   73.0860  224.5150 C   0  0  0  0  0  0  0  0  0  0  0  0
  135.2900   71.8040  223.9460 C   0  0  0  0  0  0  0  0  0  0  0  0
  134.7946   70.9461  224.4240 H   0  0  0  0  0  0  0  0  0  0  0  0
  136.0350   71.6100  222.7830 C   0  0  0  0  0  0  0  0  0  0  0  0
  136.1265   70.6004  222.3559 H   0  0  0  0  0  0  0  0  0  0  0  0
  136.6700   72.6940  222.1520 C   0  0  0  0  0  0  0  0  0  0  0  0
  137.4310   72.5380  220.9830 O   0  0  0  0  0  0  0  0  0  0  0  0
  138.8130   72.3280  220.9520 C   0  0  0  0  0  0  0  0  0  0  0  0
  139.3138   72.1278  219.9933 H   0  0  0  0  0  0  0  0  0  0  0  0
  139.5320   72.3690  222.0830 C   0  0  0  0  0  0  0  0  0  0  0  0
  140.0750   71.1730  222.6620 N   0  0  0  0  0  0  0  0  0  0  0  0
  139.9160   70.7460  224.0230 C   0  0  0  0  0  0  0  0  0  0  0  0
  140.4960   71.5150  225.0400 C   0  0  0  0  0  0  0  0  0  0  0  0
  141.0575   72.4243  224.7795 H   0  0  0  0  0  0  0  0  0  0  0  0
  140.3700   71.1400  226.3900 C   0  0  0  0  0  0  0  0  0  0  0  0
  140.9850   71.9220  227.4310 N   0  0  0  0  0  0  0  0  0  0  0  0
  141.9690   72.6500  227.1850 O   0  0  0  0  0  0  0  0  0  0  0  0
  140.4980   71.8790  228.7170 O   0  0  0  0  0  0  0  0  0  0  0  0
  139.6340   69.9870  226.7080 C   0  0  0  0  0  0  0  0  0  0  0  0
  139.5367   69.6740  227.7580 H   0  0  0  0  0  0  0  0  0  0  0  0
  139.0250   69.2350  225.7020 C   0  0  0  0  0  0  0  0  0  0  0  0
  138.4416   68.3407  225.9662 H   0  0  0  0  0  0  0  0  0  0  0  0
  139.1510   69.6100  224.3610 C   0  0  0  0  0  0  0  0  0  0  0  0
  138.2760   68.6850  223.1470 Cl  0  0  0  0  0  0  0  0  0  0  0  0
  139.7990   73.5840  222.7130 O   0  0  0  0  0  0  0  0  0  0  0  0
  139.0780   74.2680  222.9100 H   0  0  0  0  0  0  0  0  0  0  0  0
  136.5690   73.9760  222.7130 C   0  0  0  0  0  0  0  0  0  0  0  0
  137.2350   75.0320  222.0640 O   0  0  0  0  0  0  0  0  0  0  0  0
  137.5820   76.2860  222.6510 C   0  0  0  0  0  0  0  0  0  0  0  0
  137.4975   76.2076  223.7449 H   0  0  0  0  0  0  0  0  0  0  0  0
  136.8963   77.0560  222.2676 H   0  0  0  0  0  0  0  0  0  0  0  0
  139.0100   76.6790  222.2870 C   0  0  0  0  0  0  0  0  0  0  0  0
  139.5919   76.8392  223.2066 H   0  0  0  0  0  0  0  0  0  0  0  0
  139.4723   75.8747  221.6959 H   0  0  0  0  0  0  0  0  0  0  0  0
  138.9957   77.6066  221.6959 H   0  0  0  0  0  0  0  0  0  0  0  0
  135.8190   74.1640  223.8910 C   0  0  0  0  0  0  0  0  0  0  0  0
  135.7437   75.1699  224.3298 H   0  0  0  0  0  0  0  0  0  0  0  0
  1  2  1  0
  2  3  1  0
  3  4  2  3
  4  5  1  0
  5  6  1  0
  5  7  1  0
  5  8  1  0
  8  9  1  0
  8 10  1  0
  3 11  1  0
 11 12  2  0
 12 13  1  0
 12 14  1  0
 14 15  1  0
 14 16  2  0
 16 17  1  0
 17 18  1  0
 18 19  1  0
 18 20  2  0
 20 21  1  0
 21 22  1  0
 22 23  2  0
 23 24  1  0
 23 25  1  0
 25 26  1  0
 26 27  2  0
 26 28  1  0
 25 29  2  0
 29 30  1  0
 29 31  1  0
 31 32  1  0
 31 33  2  0
 33 34  1  0
 20 35  1  0
 35 36  1  0
 16 37  1  0
 37 38  1  0
 38 39  1  0
 39 40  1  0
 39 41  1  0
 39 42  1  0
 42 43  1  0
 42 44  1  0
 42 45  1  0
 37 46  2  0
 46 47  1  0
  8  4  1  0
 46 11  1  0
 33 22  1  0
M  CHG  3  21  -1  26   1  28  -1
M  END
>  <UniqueID>  (74) 
8

>  <SMILES>  (74) 
CCOc1cc(C(O)=C2CC2)ccc1O/C=C(\O)[N-]c1cc([N+](=O)[O-])ccc1Cl

>  <Energy>  (74) 
226.5984288551089

>  <Genealogy>  (74) 
CCOc1cc(C(=O)C2CC2)ccc1OCC(=O)[N-]c1cc([N+](=O)[O-])ccc1Cl (protonated)
CCOc1cc(C(O)=C2CC2)ccc1OC=C(O)[N-]c1cc([N+](=O)[O-])ccc1Cl (tautomer)
CCOc1cc(C(O)=C2CC2)ccc1O/C=C(\O)[N-]c1cc([N+](=O)[O-])ccc1Cl (cis-trans isomerization)
CCOc1cc(C(O)=C2CC2)ccc1O/C=C(\O)[N-]c1cc([N+](=O)[O-])ccc1Cl (3D coordinates assigned)
CCOc1cc(C(O)=C2CC2)ccc1O/C=C(\O)[N-]c1cc([N+](=O)[O-])ccc1Cl (nonaromatic ring conformer: 226.5984288551089 kcal/mol)

>  <smiles>  (74) 
CCOc1cc(C(=O)C2CC2)ccc1OCC(=O)Nc1cc([N+](=O)[O-])ccc1Cl

>  <score_type>  (74) 
oracle

>  <origin>  (74) 
autodockgpu

>  <m_score__min__energy>  (74) 
-6.4500000000000002

>  <m_primary>  (74) 
energy

>  <meeko>  (74) 
{"free_energy": -5.63, "intermolecular_energy": -9.21, "internal_energy": -2.67, "cluster_size": 1, "cluster_id": 4, "rank_in_cluster": 1}

>  <energy>  (74) 
-3.73

>  <cluster_rmsd>  (74) 
1.9

>  <rmsd>  (74) 
269.29

>  <cluster>  (74) 
6

$$$$
VUCFXBNYDUPJQC-ODLFYWEKNA-N
     RDKit          3D

 47 49  0  0  0  0  0  0  0  0999 V2000
  138.6150   80.7470  223.3940 H   0  0  0  0  0  0  0  0  0  0  0  0
  139.2590   80.1960  223.9490 O   0  0  0  0  0  0  0  0  0  0  0  0
  140.2550   79.4140  223.3620 C   0  0  0  0  0  0  0  0  0  0  0  0
  141.5020   79.8860  223.3390 C   0  0  0  0  0  0  0  0  0  0  0  0
  142.9160   79.8850  222.7640 C   0  0  0  0  0  0  0  0  0  0  0  0
  143.5806   79.0298  222.9564 H   0  0  0  0  0  0  0  0  0  0  0  0
  143.3289   79.9893  221.7498 H   0  0  0  0  0  0  0  0  0  0  0  0
  142.6270   80.8040  223.8160 C   0  0  0  0  0  0  0  0  0  0  0  0
  143.0706   80.6494  224.8107 H   0  0  0  0  0  0  0  0  0  0  0  0
  142.7294   81.8932  223.9303 H   0  0  0  0  0  0  0  0  0  0  0  0
  139.8970   78.0860  222.7930 C   0  0  0  0  0  0  0  0  0  0  0  0
  138.5600   77.6720  222.6480 C   0  0  0  0  0  0  0  0  0  0  0  0
  137.7461   78.3426  222.9609 H   0  0  0  0  0  0  0  0  0  0  0  0
  138.2550   76.4210  222.1120 C   0  0  0  0  0  0  0  0  0  0  0  0
  137.2040   76.1124  222.0116 H   0  0  0  0  0  0  0  0  0  0  0  0
  139.2790   75.5510  221.6990 C   0  0  0  0  0  0  0  0  0  0  0  0
  139.0120   74.2840  221.1590 O   0  0  0  0  0  0  0  0  0  0  0  0
  138.6000   73.1720  221.8990 C   0  0  0  0  0  0  0  0  0  0  0  0
  137.5306   72.9211  221.9574 H   0  0  0  0  0  0  0  0  0  0  0  0
  139.4980   72.4090  222.5380 C   0  0  0  0  0  0  0  0  0  0  0  0
  139.1380   71.1280  223.0760 N   0  0  0  0  0  0  0  0  0  0  0  0
  139.5840   70.5800  224.3260 C   0  0  0  0  0  0  0  0  0  0  0  0
  140.0510   71.4570  225.3130 C   0  0  0  0  0  0  0  0  0  0  0  0
  140.0676   72.5388  225.1144 H   0  0  0  0  0  0  0  0  0  0  0  0
  140.4990   70.9720  226.5550 C   0  0  0  0  0  0  0  0  0  0  0  0
  140.9980   71.8730  227.5610 N   0  0  0  0  0  0  0  0  0  0  0  0
  140.4750   71.9150  228.6950 O   0  0  0  0  0  0  0  0  0  0  0  0
  142.0580   72.7060  227.2900 O   0  0  0  0  0  0  0  0  0  0  0  0
  140.4540   69.5890  226.8000 C   0  0  0  0  0  0  0  0  0  0  0  0
  140.8116   69.1931  227.7620 H   0  0  0  0  0  0  0  0  0  0  0  0
  139.9590   68.7140  225.8320 C   0  0  0  0  0  0  0  0  0  0  0  0
  139.9197   67.6347  226.0405 H   0  0  0  0  0  0  0  0  0  0  0  0
  139.5130   69.1990  224.6000 C   0  0  0  0  0  0  0  0  0  0  0  0
  138.8020   68.0610  223.4600 Cl  0  0  0  0  0  0  0  0  0  0  0  0
  140.8210   72.8290  222.6720 O   0  0  0  0  0  0  0  0  0  0  0  0
  141.2020   73.6110  222.1540 H   0  0  0  0  0  0  0  0  0  0  0  0
  140.6180   75.9400  221.8500 C   0  0  0  0  0  0  0  0  0  0  0  0
  141.6160   75.0350  221.4460 O   0  0  0  0  0  0  0  0  0  0  0  0
  142.4130   75.1410  220.2650 C   0  0  0  0  0  0  0  0  0  0  0  0
  142.6083   76.2032  220.0561 H   0  0  0  0  0  0  0  0  0  0  0  0
  141.8667   74.6800  219.4289 H   0  0  0  0  0  0  0  0  0  0  0  0
  143.7410   74.4140  220.4400 C   0  0  0  0  0  0  0  0  0  0  0  0
  143.9560   74.2963  221.5123 H   0  0  0  0  0  0  0  0  0  0  0  0
  143.6814   73.4227  219.9670 H   0  0  0  0  0  0  0  0  0  0  0  0
  144.5440   74.9983  219.9670 H   0  0  0  0  0  0  0  0  0  0  0  0
  140.9200   77.2040  222.3970 C   0  0  0  0  0  0  0  0  0  0  0  0
  141.9712   77.5054  222.5161 H   0  0  0  0  0  0  0  0  0  0  0  0
  1  2  1  0
  2  3  1  0
  3  4  2  3
  4  5  1  0
  5  6  1  0
  5  7  1  0
  5  8  1  0
  8  9  1  0
  8 10  1  0
  3 11  1  0
 11 12  2  0
 12 13  1  0
 12 14  1  0
 14 15  1  0
 14 16  2  0
 16 17  1  0
 17 18  1  0
 18 19  1  0
 18 20  2  0
 20 21  1  0
 21 22  1  0
 22 23  2  0
 23 24  1  0
 23 25  1  0
 25 26  1  0
 26 27  2  0
 26 28  1  0
 25 29  2  0
 29 30  1  0
 29 31  1  0
 31 32  1  0
 31 33  2  0
 33 34  1  0
 20 35  1  0
 35 36  1  0
 16 37  1  0
 37 38  1  0
 38 39  1  0
 39 40  1  0
 39 41  1  0
 39 42  1  0
 42 43  1  0
 42 44  1  0
 42 45  1  0
 37 46  2  0
 46 47  1  0
  8  4  1  0
 46 11  1  0
 33 22  1  0
M  CHG  3  21  -1  26   1  28  -1
M  END
>  <UniqueID>  (75) 
8

>  <SMILES>  (75) 
CCOc1cc(C(O)=C2CC2)ccc1O/C=C(\O)[N-]c1cc([N+](=O)[O-])ccc1Cl

>  <Energy>  (75) 
226.5984288551089

>  <Genealogy>  (75) 
CCOc1cc(C(=O)C2CC2)ccc1OCC(=O)[N-]c1cc([N+](=O)[O-])ccc1Cl (protonated)
CCOc1cc(C(O)=C2CC2)ccc1OC=C(O)[N-]c1cc([N+](=O)[O-])ccc1Cl (tautomer)
CCOc1cc(C(O)=C2CC2)ccc1O/C=C(\O)[N-]c1cc([N+](=O)[O-])ccc1Cl (cis-trans isomerization)
CCOc1cc(C(O)=C2CC2)ccc1O/C=C(\O)[N-]c1cc([N+](=O)[O-])ccc1Cl (3D coordinates assigned)
CCOc1cc(C(O)=C2CC2)ccc1O/C=C(\O)[N-]c1cc([N+](=O)[O-])ccc1Cl (nonaromatic ring conformer: 226.5984288551089 kcal/mol)

>  <smiles>  (75) 
CCOc1cc(C(=O)C2CC2)ccc1OCC(=O)Nc1cc([N+](=O)[O-])ccc1Cl

>  <score_type>  (75) 
oracle

>  <origin>  (75) 
autodockgpu

>  <m_score__min__energy>  (75) 
-6.4500000000000002

>  <m_primary>  (75) 
energy

>  <meeko>  (75) 
{"free_energy": -6.45, "intermolecular_energy": -10.03, "internal_energy": -2.39, "cluster_size": 8, "cluster_id": 1, "rank_in_cluster": 1}

>  <energy>  (75) 
-3.56

>  <cluster_rmsd>  (75) 
0.0

>  <rmsd>  (75) 
269.62

>  <cluster>  (75) 
7

$$$$
VUCFXBNYDUPJQC-ODLFYWEKNA-N
     RDKit          3D

 47 49  0  0  0  0  0  0  0  0999 V2000
  138.7180   79.2820  224.4410 H   0  0  0  0  0  0  0  0  0  0  0  0
  139.4290   79.8650  224.0140 O   0  0  0  0  0  0  0  0  0  0  0  0
  140.5220   79.3190  223.3400 C   0  0  0  0  0  0  0  0  0  0  0  0
  141.6970   79.9440  223.4260 C   0  0  0  0  0  0  0  0  0  0  0  0
  142.5950   81.0140  224.0420 C   0  0  0  0  0  0  0  0  0  0  0  0
  142.4064   82.0750  223.8214 H   0  0  0  0  0  0  0  0  0  0  0  0
  142.8826   81.2700  225.0724 H   0  0  0  0  0  0  0  0  0  0  0  0
  143.1570   80.1740  223.0360 C   0  0  0  0  0  0  0  0  0  0  0  0
  143.3965   80.5940  222.0479 H   0  0  0  0  0  0  0  0  0  0  0  0
  144.0467   79.5290  222.9869 H   0  0  0  0  0  0  0  0  0  0  0  0
  140.3450   78.0640  222.5590 C   0  0  0  0  0  0  0  0  0  0  0  0
  141.3210   77.6030  221.6550 C   0  0  0  0  0  0  0  0  0  0  0  0
  142.2470   78.1797  221.5137 H   0  0  0  0  0  0  0  0  0  0  0  0
  141.1270   76.4240  220.9370 C   0  0  0  0  0  0  0  0  0  0  0  0
  141.8984   76.0822  220.2313 H   0  0  0  0  0  0  0  0  0  0  0  0
  139.9540   75.6680  221.1070 C   0  0  0  0  0  0  0  0  0  0  0  0
  139.7210   74.4790  220.4000 O   0  0  0  0  0  0  0  0  0  0  0  0
  140.1490   73.2110  220.8060 C   0  0  0  0  0  0  0  0  0  0  0  0
  140.8030   72.6190  220.1488 H   0  0  0  0  0  0  0  0  0  0  0  0
  139.7680   72.7120  221.9900 C   0  0  0  0  0  0  0  0  0  0  0  0
  140.6880   71.9930  222.8250 N   0  0  0  0  0  0  0  0  0  0  0  0
  140.3610   71.2870  224.0310 C   0  0  0  0  0  0  0  0  0  0  0  0
  140.6680   71.8830  225.2610 C   0  0  0  0  0  0  0  0  0  0  0  0
  141.1497   72.8717  225.2802 H   0  0  0  0  0  0  0  0  0  0  0  0
  140.3680   71.2330  226.4720 C   0  0  0  0  0  0  0  0  0  0  0  0
  140.7030   71.8390  227.7350 N   0  0  0  0  0  0  0  0  0  0  0  0
  139.9560   71.7010  228.7260 O   0  0  0  0  0  0  0  0  0  0  0  0
  141.8520   72.5830  227.8710 O   0  0  0  0  0  0  0  0  0  0  0  0
  139.7360   69.9800  226.4320 C   0  0  0  0  0  0  0  0  0  0  0  0
  139.5061   69.4544  227.3706 H   0  0  0  0  0  0  0  0  0  0  0  0
  139.3970   69.3960  225.2100 C   0  0  0  0  0  0  0  0  0  0  0  0
  138.8918   68.4190  225.1933 H   0  0  0  0  0  0  0  0  0  0  0  0
  139.6950   70.0440  224.0070 C   0  0  0  0  0  0  0  0  0  0  0  0
  139.1520   69.3100  222.5030 Cl  0  0  0  0  0  0  0  0  0  0  0  0
  138.4680   72.9030  222.4580 O   0  0  0  0  0  0  0  0  0  0  0  0
  138.1150   73.8110  222.7350 H   0  0  0  0  0  0  0  0  0  0  0  0
  138.9640   76.1190  221.9920 C   0  0  0  0  0  0  0  0  0  0  0  0
  137.7950   75.3470  222.1200 O   0  0  0  0  0  0  0  0  0  0  0  0
  136.7350   75.2710  221.1660 C   0  0  0  0  0  0  0  0  0  0  0  0
  135.8167   74.9404  221.6734 H   0  0  0  0  0  0  0  0  0  0  0  0
  137.0191   74.5547  220.3810 H   0  0  0  0  0  0  0  0  0  0  0  0
  136.4870   76.6290  220.5200 C   0  0  0  0  0  0  0  0  0  0  0  0
  136.3484   77.3881  221.3039 H   0  0  0  0  0  0  0  0  0  0  0  0
  137.3504   76.9008  219.8949 H   0  0  0  0  0  0  0  0  0  0  0  0
  135.5833   76.5781  219.8949 H   0  0  0  0  0  0  0  0  0  0  0  0
  139.1640   77.3150  222.7110 C   0  0  0  0  0  0  0  0  0  0  0  0
  138.3842   77.6681  223.4018 H   0  0  0  0  0  0  0  0  0  0  0  0
  1  2  1  0
  2  3  1  0
  3  4  2  3
  4  5  1  0
  5  6  1  0
  5  7  1  0
  5  8  1  0
  8  9  1  0
  8 10  1  0
  3 11  1  0
 11 12  2  0
 12 13  1  0
 12 14  1  0
 14 15  1  0
 14 16  2  0
 16 17  1  0
 17 18  1  0
 18 19  1  0
 18 20  2  0
 20 21  1  0
 21 22  1  0
 22 23  2  0
 23 24  1  0
 23 25  1  0
 25 26  1  0
 26 27  2  0
 26 28  1  0
 25 29  2  0
 29 30  1  0
 29 31  1  0
 31 32  1  0
 31 33  2  0
 33 34  1  0
 20 35  1  0
 35 36  1  0
 16 37  1  0
 37 38  1  0
 38 39  1  0
 39 40  1  0
 39 41  1  0
 39 42  1  0
 42 43  1  0
 42 44  1  0
 42 45  1  0
 37 46  2  0
 46 47  1  0
  8  4  1  0
 46 11  1  0
 33 22  1  0
M  CHG  3  21  -1  26   1  28  -1
M  END
>  <UniqueID>  (76) 
8

>  <SMILES>  (76) 
CCOc1cc(C(O)=C2CC2)ccc1O/C=C(\O)[N-]c1cc([N+](=O)[O-])ccc1Cl

>  <Energy>  (76) 
226.5984288551089

>  <Genealogy>  (76) 
CCOc1cc(C(=O)C2CC2)ccc1OCC(=O)[N-]c1cc([N+](=O)[O-])ccc1Cl (protonated)
CCOc1cc(C(O)=C2CC2)ccc1OC=C(O)[N-]c1cc([N+](=O)[O-])ccc1Cl (tautomer)
CCOc1cc(C(O)=C2CC2)ccc1O/C=C(\O)[N-]c1cc([N+](=O)[O-])ccc1Cl (cis-trans isomerization)
CCOc1cc(C(O)=C2CC2)ccc1O/C=C(\O)[N-]c1cc([N+](=O)[O-])ccc1Cl (3D coordinates assigned)
CCOc1cc(C(O)=C2CC2)ccc1O/C=C(\O)[N-]c1cc([N+](=O)[O-])ccc1Cl (nonaromatic ring conformer: 226.5984288551089 kcal/mol)

>  <smiles>  (76) 
CCOc1cc(C(=O)C2CC2)ccc1OCC(=O)Nc1cc([N+](=O)[O-])ccc1Cl

>  <score_type>  (76) 
oracle

>  <origin>  (76) 
autodockgpu

>  <m_score__min__energy>  (76) 
-6.4500000000000002

>  <m_primary>  (76) 
energy

>  <meeko>  (76) 
{"free_energy": -5.59, "intermolecular_energy": -9.17, "internal_energy": -2.17, "cluster_size": 8, "cluster_id": 1, "rank_in_cluster": 8}

>  <energy>  (76) 
-3.55

>  <cluster_rmsd>  (76) 
0.0

>  <rmsd>  (76) 
270.62

>  <cluster>  (76) 
8

$$$$
VUCFXBNYDUPJQC-ODLFYWEKNA-N
     RDKit          3D

 47 49  0  0  0  0  0  0  0  0999 V2000
  138.2000   80.4770  223.4130 H   0  0  0  0  0  0  0  0  0  0  0  0
  139.0060   80.1370  223.9250 O   0  0  0  0  0  0  0  0  0  0  0  0
  140.0010   79.3750  223.3110 C   0  0  0  0  0  0  0  0  0  0  0  0
  141.2310   79.8860  223.2280 C   0  0  0  0  0  0  0  0  0  0  0  0
  142.1730   81.0840  223.1540 C   0  0  0  0  0  0  0  0  0  0  0  0
  142.1969   81.7016  222.2440 H   0  0  0  0  0  0  0  0  0  0  0  0
  142.3222   81.9789  223.7760 H   0  0  0  0  0  0  0  0  0  0  0  0
  142.7520   79.7810  223.1370 C   0  0  0  0  0  0  0  0  0  0  0  0
  143.2171   79.4043  222.2141 H   0  0  0  0  0  0  0  0  0  0  0  0
  143.5218   79.2777  223.7404 H   0  0  0  0  0  0  0  0  0  0  0  0
  139.6630   78.0260  222.7820 C   0  0  0  0  0  0  0  0  0  0  0  0
  138.3810   77.4640  222.9330 C   0  0  0  0  0  0  0  0  0  0  0  0
  137.5972   78.0312  223.4564 H   0  0  0  0  0  0  0  0  0  0  0  0
  138.0930   76.1970  222.4270 C   0  0  0  0  0  0  0  0  0  0  0  0
  137.0873   75.7717  222.5602 H   0  0  0  0  0  0  0  0  0  0  0  0
  139.0780   75.4590  221.7480 C   0  0  0  0  0  0  0  0  0  0  0  0
  138.8270   74.1790  221.2280 O   0  0  0  0  0  0  0  0  0  0  0  0
  138.7420   73.0110  221.9910 C   0  0  0  0  0  0  0  0  0  0  0  0
  137.7554   72.6122  222.2696 H   0  0  0  0  0  0  0  0  0  0  0  0
  139.8520   72.3730  222.3860 C   0  0  0  0  0  0  0  0  0  0  0  0
  139.8100   71.0080  222.8290 N   0  0  0  0  0  0  0  0  0  0  0  0
  139.8480   70.5610  224.1930 C   0  0  0  0  0  0  0  0  0  0  0  0
  140.2780   71.4570  225.1800 C   0  0  0  0  0  0  0  0  0  0  0  0
  140.5748   72.4773  224.8954 H   0  0  0  0  0  0  0  0  0  0  0  0
  140.3350   71.0680  226.5310 C   0  0  0  0  0  0  0  0  0  0  0  0
  140.7970   71.9840  227.5420 N   0  0  0  0  0  0  0  0  0  0  0  0
  141.8390   72.6510  227.3680 O   0  0  0  0  0  0  0  0  0  0  0  0
  140.0980   72.1400  228.7160 O   0  0  0  0  0  0  0  0  0  0  0  0
  139.9330   69.7690  226.8810 C   0  0  0  0  0  0  0  0  0  0  0  0
  139.9825   69.4469  227.9316 H   0  0  0  0  0  0  0  0  0  0  0  0
  139.4710   68.8830  225.9060 C   0  0  0  0  0  0  0  0  0  0  0  0
  139.1488   67.8719  226.1955 H   0  0  0  0  0  0  0  0  0  0  0  0
  139.4150   69.2720  224.5640 C   0  0  0  0  0  0  0  0  0  0  0  0
  138.7280   68.1500  223.3960 Cl  0  0  0  0  0  0  0  0  0  0  0  0
  141.0920   73.0120  222.3480 O   0  0  0  0  0  0  0  0  0  0  0  0
  141.2670   73.8320  221.7800 H   0  0  0  0  0  0  0  0  0  0  0  0
  140.3650   75.9960  221.6000 C   0  0  0  0  0  0  0  0  0  0  0  0
  141.3290   75.2180  220.9330 O   0  0  0  0  0  0  0  0  0  0  0  0
  142.2860   75.7010  219.9890 C   0  0  0  0  0  0  0  0  0  0  0  0
  142.4869   76.7635  220.1909 H   0  0  0  0  0  0  0  0  0  0  0  0
  141.8765   75.5741  218.9760 H   0  0  0  0  0  0  0  0  0  0  0  0
  143.5900   74.9180  220.0900 C   0  0  0  0  0  0  0  0  0  0  0  0
  143.8447   74.7650  221.1491 H   0  0  0  0  0  0  0  0  0  0  0  0
  143.4708   73.9420  219.5969 H   0  0  0  0  0  0  0  0  0  0  0  0
  144.3955   75.4820  219.5969 H   0  0  0  0  0  0  0  0  0  0  0  0
  140.6500   77.2740  222.1180 C   0  0  0  0  0  0  0  0  0  0  0  0
  141.6610   77.6916  222.0017 H   0  0  0  0  0  0  0  0  0  0  0  0
  1  2  1  0
  2  3  1  0
  3  4  2  3
  4  5  1  0
  5  6  1  0
  5  7  1  0
  5  8  1  0
  8  9  1  0
  8 10  1  0
  3 11  1  0
 11 12  2  0
 12 13  1  0
 12 14  1  0
 14 15  1  0
 14 16  2  0
 16 17  1  0
 17 18  1  0
 18 19  1  0
 18 20  2  0
 20 21  1  0
 21 22  1  0
 22 23  2  0
 23 24  1  0
 23 25  1  0
 25 26  1  0
 26 27  2  0
 26 28  1  0
 25 29  2  0
 29 30  1  0
 29 31  1  0
 31 32  1  0
 31 33  2  0
 33 34  1  0
 20 35  1  0
 35 36  1  0
 16 37  1  0
 37 38  1  0
 38 39  1  0
 39 40  1  0
 39 41  1  0
 39 42  1  0
 42 43  1  0
 42 44  1  0
 42 45  1  0
 37 46  2  0
 46 47  1  0
  8  4  1  0
 46 11  1  0
 33 22  1  0
M  CHG  3  21  -1  26   1  28  -1
M  END
>  <UniqueID>  (77) 
8

>  <SMILES>  (77) 
CCOc1cc(C(O)=C2CC2)ccc1O/C=C(\O)[N-]c1cc([N+](=O)[O-])ccc1Cl

>  <Energy>  (77) 
226.5984288551089

>  <Genealogy>  (77) 
CCOc1cc(C(=O)C2CC2)ccc1OCC(=O)[N-]c1cc([N+](=O)[O-])ccc1Cl (protonated)
CCOc1cc(C(O)=C2CC2)ccc1OC=C(O)[N-]c1cc([N+](=O)[O-])ccc1Cl (tautomer)
CCOc1cc(C(O)=C2CC2)ccc1O/C=C(\O)[N-]c1cc([N+](=O)[O-])ccc1Cl (cis-trans isomerization)
CCOc1cc(C(O)=C2CC2)ccc1O/C=C(\O)[N-]c1cc([N+](=O)[O-])ccc1Cl (3D coordinates assigned)
CCOc1cc(C(O)=C2CC2)ccc1O/C=C(\O)[N-]c1cc([N+](=O)[O-])ccc1Cl (nonaromatic ring conformer: 226.5984288551089 kcal/mol)

>  <smiles>  (77) 
CCOc1cc(C(=O)C2CC2)ccc1OCC(=O)Nc1cc([N+](=O)[O-])ccc1Cl

>  <score_type>  (77) 
oracle

>  <origin>  (77) 
autodockgpu

>  <m_score__min__energy>  (77) 
-6.4500000000000002

>  <m_primary>  (77) 
energy

>  <meeko>  (77) 
{"free_energy": -6.35, "intermolecular_energy": -9.93, "internal_energy": -2.34, "cluster_size": 8, "cluster_id": 1, "rank_in_cluster": 4}

>  <energy>  (77) 
-3.38

>  <cluster_rmsd>  (77) 
0.0

>  <rmsd>  (77) 
271.17

>  <cluster>  (77) 
9

$$$$
VUCFXBNYDUPJQC-ODLFYWEKNA-N
     RDKit          3D

 47 49  0  0  0  0  0  0  0  0999 V2000
  138.2930   80.2810  223.6590 H   0  0  0  0  0  0  0  0  0  0  0  0
  139.2070   80.1130  224.0640 O   0  0  0  0  0  0  0  0  0  0  0  0
  140.1910   79.3910  223.3880 C   0  0  0  0  0  0  0  0  0  0  0  0
  141.4130   79.9190  223.2920 C   0  0  0  0  0  0  0  0  0  0  0  0
  142.6010   80.3820  222.4540 C   0  0  0  0  0  0  0  0  0  0  0  0
  143.2275   79.6376  221.9407 H   0  0  0  0  0  0  0  0  0  0  0  0
  142.7159   81.0753  221.6077 H   0  0  0  0  0  0  0  0  0  0  0  0
  142.6910   80.5230  223.8700 C   0  0  0  0  0  0  0  0  0  0  0  0
  143.3857   79.8860  224.4371 H   0  0  0  0  0  0  0  0  0  0  0  0
  142.9021   81.3671  224.5431 H   0  0  0  0  0  0  0  0  0  0  0  0
  139.8520   78.0630  222.8070 C   0  0  0  0  0  0  0  0  0  0  0  0
  138.5200   77.6670  222.5780 C   0  0  0  0  0  0  0  0  0  0  0  0
  137.6977   78.3524  222.8312 H   0  0  0  0  0  0  0  0  0  0  0  0
  138.2320   76.4160  222.0340 C   0  0  0  0  0  0  0  0  0  0  0  0
  137.1853   76.1210  221.8685 H   0  0  0  0  0  0  0  0  0  0  0  0
  139.2690   75.5280  221.6950 C   0  0  0  0  0  0  0  0  0  0  0  0
  139.0180   74.2600  221.1490 O   0  0  0  0  0  0  0  0  0  0  0  0
  138.5490   73.1590  221.8700 C   0  0  0  0  0  0  0  0  0  0  0  0
  137.4770   72.9129  221.8541 H   0  0  0  0  0  0  0  0  0  0  0  0
  139.3950   72.4000  222.5810 C   0  0  0  0  0  0  0  0  0  0  0  0
  138.9530   71.1980  223.2280 N   0  0  0  0  0  0  0  0  0  0  0  0
  139.5210   70.6170  224.4110 C   0  0  0  0  0  0  0  0  0  0  0  0
  140.0150   71.4700  225.4070 C   0  0  0  0  0  0  0  0  0  0  0  0
  139.9593   72.5594  225.2655 H   0  0  0  0  0  0  0  0  0  0  0  0
  140.5810   70.9510  226.5850 C   0  0  0  0  0  0  0  0  0  0  0  0
  141.1060   71.8300  227.5980 N   0  0  0  0  0  0  0  0  0  0  0  0
  140.5900   71.8730  228.7340 O   0  0  0  0  0  0  0  0  0  0  0  0
  142.1860   72.6400  227.3300 O   0  0  0  0  0  0  0  0  0  0  0  0
  140.6290   69.5580  226.7600 C   0  0  0  0  0  0  0  0  0  0  0  0
  141.0805   69.1373  227.6706 H   0  0  0  0  0  0  0  0  0  0  0  0
  140.1080   68.7040  225.7870 C   0  0  0  0  0  0  0  0  0  0  0  0
  140.1412   67.6154  225.9416 H   0  0  0  0  0  0  0  0  0  0  0  0
  139.5440   69.2220  224.6170 C   0  0  0  0  0  0  0  0  0  0  0  0
  138.8110   68.1020  223.4740 Cl  0  0  0  0  0  0  0  0  0  0  0  0
  140.7430   72.7450  222.6870 O   0  0  0  0  0  0  0  0  0  0  0  0
  141.1530   73.5140  222.1700 H   0  0  0  0  0  0  0  0  0  0  0  0
  140.6000   75.9000  221.9290 C   0  0  0  0  0  0  0  0  0  0  0  0
  141.6090   74.9760  221.5970 O   0  0  0  0  0  0  0  0  0  0  0  0
  142.4860   75.0650  220.4740 C   0  0  0  0  0  0  0  0  0  0  0  0
  142.2651   74.2420  219.7784 H   0  0  0  0  0  0  0  0  0  0  0  0
  143.5238   74.9971  220.8322 H   0  0  0  0  0  0  0  0  0  0  0  0
  142.3070   76.3940  219.7480 C   0  0  0  0  0  0  0  0  0  0  0  0
  142.1981   77.2029  220.4854 H   0  0  0  0  0  0  0  0  0  0  0  0
  143.1870   76.5888  219.1174 H   0  0  0  0  0  0  0  0  0  0  0  0
  141.4068   76.3490  219.1174 H   0  0  0  0  0  0  0  0  0  0  0  0
  140.8840   77.1630  222.4850 C   0  0  0  0  0  0  0  0  0  0  0  0
  141.9296   77.4499  222.6703 H   0  0  0  0  0  0  0  0  0  0  0  0
  1  2  1  0
  2  3  1  0
  3  4  2  3
  4  5  1  0
  5  6  1  0
  5  7  1  0
  5  8  1  0
  8  9  1  0
  8 10  1  0
  3 11  1  0
 11 12  2  0
 12 13  1  0
 12 14  1  0
 14 15  1  0
 14 16  2  0
 16 17  1  0
 17 18  1  0
 18 19  1  0
 18 20  2  0
 20 21  1  0
 21 22  1  0
 22 23  2  0
 23 24  1  0
 23 25  1  0
 25 26  1  0
 26 27  2  0
 26 28  1  0
 25 29  2  0
 29 30  1  0
 29 31  1  0
 31 32  1  0
 31 33  2  0
 33 34  1  0
 20 35  1  0
 35 36  1  0
 16 37  1  0
 37 38  1  0
 38 39  1  0
 39 40  1  0
 39 41  1  0
 39 42  1  0
 42 43  1  0
 42 44  1  0
 42 45  1  0
 37 46  2  0
 46 47  1  0
  8  4  1  0
 46 11  1  0
 33 22  1  0
M  CHG  3  21  -1  26   1  28  -1
M  END
>  <UniqueID>  (78) 
8

>  <SMILES>  (78) 
CCOc1cc(C(O)=C2CC2)ccc1O/C=C(\O)[N-]c1cc([N+](=O)[O-])ccc1Cl

>  <Energy>  (78) 
226.5984288551089

>  <Genealogy>  (78) 
CCOc1cc(C(=O)C2CC2)ccc1OCC(=O)[N-]c1cc([N+](=O)[O-])ccc1Cl (protonated)
CCOc1cc(C(O)=C2CC2)ccc1OC=C(O)[N-]c1cc([N+](=O)[O-])ccc1Cl (tautomer)
CCOc1cc(C(O)=C2CC2)ccc1O/C=C(\O)[N-]c1cc([N+](=O)[O-])ccc1Cl (cis-trans isomerization)
CCOc1cc(C(O)=C2CC2)ccc1O/C=C(\O)[N-]c1cc([N+](=O)[O-])ccc1Cl (3D coordinates assigned)
CCOc1cc(C(O)=C2CC2)ccc1O/C=C(\O)[N-]c1cc([N+](=O)[O-])ccc1Cl (nonaromatic ring conformer: 226.5984288551089 kcal/mol)

>  <smiles>  (78) 
CCOc1cc(C(=O)C2CC2)ccc1OCC(=O)Nc1cc([N+](=O)[O-])ccc1Cl

>  <score_type>  (78) 
oracle

>  <origin>  (78) 
autodockgpu

>  <m_score__min__energy>  (78) 
-6.4500000000000002

>  <m_primary>  (78) 
energy

>  <meeko>  (78) 
{"free_energy": -6.31, "intermolecular_energy": -9.89, "internal_energy": -2.44, "cluster_size": 8, "cluster_id": 1, "rank_in_cluster": 5}

>  <energy>  (78) 
-3.23

>  <cluster_rmsd>  (78) 
0.41

>  <rmsd>  (78) 
271.11

>  <cluster>  (78) 
9

$$$$
VUCFXBNYDUPJQC-ODLFYWEKNA-N
     RDKit          3D

 47 49  0  0  0  0  0  0  0  0999 V2000
  140.5940   81.3550  223.4070 H   0  0  0  0  0  0  0  0  0  0  0  0
  139.7250   81.6290  222.9640 O   0  0  0  0  0  0  0  0  0  0  0  0
  138.5430   80.9130  223.1540 C   0  0  0  0  0  0  0  0  0  0  0  0
  137.6320   81.4050  223.9960 C   0  0  0  0  0  0  0  0  0  0  0  0
  136.8450   81.3260  225.3020 C   0  0  0  0  0  0  0  0  0  0  0  0
  136.0795   80.5463  225.4293 H   0  0  0  0  0  0  0  0  0  0  0  0
  137.1281   81.2335  226.3609 H   0  0  0  0  0  0  0  0  0  0  0  0
  136.5890   82.4310  224.4370 C   0  0  0  0  0  0  0  0  0  0  0  0
  135.6286   82.4939  223.9044 H   0  0  0  0  0  0  0  0  0  0  0  0
  136.5977   83.5232  224.5678 H   0  0  0  0  0  0  0  0  0  0  0  0
  138.3340   79.6390  222.4130 C   0  0  0  0  0  0  0  0  0  0  0  0
  138.4390   79.5660  221.0110 C   0  0  0  0  0  0  0  0  0  0  0  0
  138.6821   80.4714  220.4356 H   0  0  0  0  0  0  0  0  0  0  0  0
  138.2380   78.3580  220.3440 C   0  0  0  0  0  0  0  0  0  0  0  0
  138.3189   78.3206  219.2476 H   0  0  0  0  0  0  0  0  0  0  0  0
  137.9330   77.1880  221.0600 C   0  0  0  0  0  0  0  0  0  0  0  0
  137.7200   75.9560  220.4240 O   0  0  0  0  0  0  0  0  0  0  0  0
  138.6930   74.9660  220.2540 C   0  0  0  0  0  0  0  0  0  0  0  0
  138.6103   74.2574  219.4167 H   0  0  0  0  0  0  0  0  0  0  0  0
  139.7260   74.8740  221.1040 C   0  0  0  0  0  0  0  0  0  0  0  0
  140.9940   75.4750  220.8020 N   0  0  0  0  0  0  0  0  0  0  0  0
  141.2790   76.8810  220.7770 C   0  0  0  0  0  0  0  0  0  0  0  0
  141.3530   77.5730  221.9930 C   0  0  0  0  0  0  0  0  0  0  0  0
  141.1932   77.0308  222.9366 H   0  0  0  0  0  0  0  0  0  0  0  0
  141.6290   78.9520  222.0230 C   0  0  0  0  0  0  0  0  0  0  0  0
  141.6850   79.6630  223.2740 N   0  0  0  0  0  0  0  0  0  0  0  0
  140.8820   79.3990  224.1940 O   0  0  0  0  0  0  0  0  0  0  0  0
  142.6240   80.6480  223.4760 O   0  0  0  0  0  0  0  0  0  0  0  0
  141.8480   79.6270  220.8110 C   0  0  0  0  0  0  0  0  0  0  0  0
  142.0526   80.7078  220.8173 H   0  0  0  0  0  0  0  0  0  0  0  0
  141.8080   78.9370  219.5990 C   0  0  0  0  0  0  0  0  0  0  0  0
  141.9927   79.4759  218.6580 H   0  0  0  0  0  0  0  0  0  0  0  0
  141.5350   77.5660  219.5710 C   0  0  0  0  0  0  0  0  0  0  0  0
  141.6010   76.7310  218.0240 Cl  0  0  0  0  0  0  0  0  0  0  0  0
  139.5860   74.2140  222.3250 O   0  0  0  0  0  0  0  0  0  0  0  0
  138.7940   74.3610  222.9380 H   0  0  0  0  0  0  0  0  0  0  0  0
  137.8100   77.2450  222.4560 C   0  0  0  0  0  0  0  0  0  0  0  0
  137.4840   76.0570  223.1360 O   0  0  0  0  0  0  0  0  0  0  0  0
  136.1640   75.5940  223.4220 C   0  0  0  0  0  0  0  0  0  0  0  0
  135.4368   76.3471  223.0842 H   0  0  0  0  0  0  0  0  0  0  0  0
  136.0744   75.4337  224.5066 H   0  0  0  0  0  0  0  0  0  0  0  0
  135.8850   74.2750  222.7090 C   0  0  0  0  0  0  0  0  0  0  0  0
  135.7176   73.4835  223.4544 H   0  0  0  0  0  0  0  0  0  0  0  0
  134.9894   74.3809  222.0792 H   0  0  0  0  0  0  0  0  0  0  0  0
  136.7468   74.0092  222.0792 H   0  0  0  0  0  0  0  0  0  0  0  0
  138.0100   78.4690  223.1240 C   0  0  0  0  0  0  0  0  0  0  0  0
  137.9113   78.5107  224.2188 H   0  0  0  0  0  0  0  0  0  0  0  0
  1  2  1  0
  2  3  1  0
  3  4  2  3
  4  5  1  0
  5  6  1  0
  5  7  1  0
  5  8  1  0
  8  9  1  0
  8 10  1  0
  3 11  1  0
 11 12  2  0
 12 13  1  0
 12 14  1  0
 14 15  1  0
 14 16  2  0
 16 17  1  0
 17 18  1  0
 18 19  1  0
 18 20  2  0
 20 21  1  0
 21 22  1  0
 22 23  2  0
 23 24  1  0
 23 25  1  0
 25 26  1  0
 26 27  2  0
 26 28  1  0
 25 29  2  0
 29 30  1  0
 29 31  1  0
 31 32  1  0
 31 33  2  0
 33 34  1  0
 20 35  1  0
 35 36  1  0
 16 37  1  0
 37 38  1  0
 38 39  1  0
 39 40  1  0
 39 41  1  0
 39 42  1  0
 42 43  1  0
 42 44  1  0
 42 45  1  0
 37 46  2  0
 46 47  1  0
  8  4  1  0
 46 11  1  0
 33 22  1  0
M  CHG  3  21  -1  26   1  28  -1
M  END
>  <UniqueID>  (79) 
8

>  <SMILES>  (79) 
CCOc1cc(C(O)=C2CC2)ccc1O/C=C(\O)[N-]c1cc([N+](=O)[O-])ccc1Cl

>  <Energy>  (79) 
226.5984288551089

>  <Genealogy>  (79) 
CCOc1cc(C(=O)C2CC2)ccc1OCC(=O)[N-]c1cc([N+](=O)[O-])ccc1Cl (protonated)
CCOc1cc(C(O)=C2CC2)ccc1OC=C(O)[N-]c1cc([N+](=O)[O-])ccc1Cl (tautomer)
CCOc1cc(C(O)=C2CC2)ccc1O/C=C(\O)[N-]c1cc([N+](=O)[O-])ccc1Cl (cis-trans isomerization)
CCOc1cc(C(O)=C2CC2)ccc1O/C=C(\O)[N-]c1cc([N+](=O)[O-])ccc1Cl (3D coordinates assigned)
CCOc1cc(C(O)=C2CC2)ccc1O/C=C(\O)[N-]c1cc([N+](=O)[O-])ccc1Cl (nonaromatic ring conformer: 226.5984288551089 kcal/mol)

>  <smiles>  (79) 
CCOc1cc(C(=O)C2CC2)ccc1OCC(=O)Nc1cc([N+](=O)[O-])ccc1Cl

>  <score_type>  (79) 
oracle

>  <origin>  (79) 
autodockgpu

>  <m_score__min__energy>  (79) 
-6.4500000000000002

>  <m_primary>  (79) 
energy

>  <meeko>  (79) 
{"free_energy": -3.23, "intermolecular_energy": -6.81, "internal_energy": -4.88, "cluster_size": 2, "cluster_id": 9, "rank_in_cluster": 2}

>  <energy>  (79) 
-3.32

>  <cluster_rmsd>  (79) 
0.0

>  <rmsd>  (79) 
271.05

>  <cluster>  (79) 
10

$$$$
VUCFXBNYDUPJQC-ODLFYWEKNA-N
     RDKit          3D

 47 49  0  0  0  0  0  0  0  0999 V2000
  138.6850   80.7560  223.2740 H   0  0  0  0  0  0  0  0  0  0  0  0
  139.1670   80.0570  223.8260 O   0  0  0  0  0  0  0  0  0  0  0  0
  140.1610   79.2430  223.2800 C   0  0  0  0  0  0  0  0  0  0  0  0
  141.4230   79.6750  223.3100 C   0  0  0  0  0  0  0  0  0  0  0  0
  142.8560   79.6390  222.7850 C   0  0  0  0  0  0  0  0  0  0  0  0
  143.4864   78.7599  222.9847 H   0  0  0  0  0  0  0  0  0  0  0  0
  143.3080   79.7478  221.7881 H   0  0  0  0  0  0  0  0  0  0  0  0
  142.5580   80.5480  223.8430 C   0  0  0  0  0  0  0  0  0  0  0  0
  142.9607   80.3621  224.8496 H   0  0  0  0  0  0  0  0  0  0  0  0
  142.6900   81.6313  223.9810 H   0  0  0  0  0  0  0  0  0  0  0  0
  139.7850   77.9280  222.6930 C   0  0  0  0  0  0  0  0  0  0  0  0
  138.4750   77.4200  222.7790 C   0  0  0  0  0  0  0  0  0  0  0  0
  137.6975   78.0046  223.2925 H   0  0  0  0  0  0  0  0  0  0  0  0
  138.1520   76.1830  222.2200 C   0  0  0  0  0  0  0  0  0  0  0  0
  137.1245   75.7988  222.3020 H   0  0  0  0  0  0  0  0  0  0  0  0
  139.1290   75.4240  221.5530 C   0  0  0  0  0  0  0  0  0  0  0  0
  138.8430   74.1740  220.9820 O   0  0  0  0  0  0  0  0  0  0  0  0
  138.4130   73.0500  221.6940 C   0  0  0  0  0  0  0  0  0  0  0  0
  137.3766   72.6981  221.5844 H   0  0  0  0  0  0  0  0  0  0  0  0
  139.2540   72.3980  222.5090 C   0  0  0  0  0  0  0  0  0  0  0  0
  138.8590   71.1880  223.1730 N   0  0  0  0  0  0  0  0  0  0  0  0
  139.4560   70.6410  224.3580 C   0  0  0  0  0  0  0  0  0  0  0  0
  139.9440   71.5220  225.3310 C   0  0  0  0  0  0  0  0  0  0  0  0
  139.8617   72.6072  225.1711 H   0  0  0  0  0  0  0  0  0  0  0  0
  140.5380   71.0370  226.5100 C   0  0  0  0  0  0  0  0  0  0  0  0
  141.0580   71.9450  227.4990 N   0  0  0  0  0  0  0  0  0  0  0  0
  142.0660   72.6410  227.2570 O   0  0  0  0  0  0  0  0  0  0  0  0
  140.4530   72.0600  228.7300 O   0  0  0  0  0  0  0  0  0  0  0  0
  140.6180   69.6490  226.7090 C   0  0  0  0  0  0  0  0  0  0  0  0
  141.0900   69.2546  227.6210 H   0  0  0  0  0  0  0  0  0  0  0  0
  140.1030   68.7660  225.7580 C   0  0  0  0  0  0  0  0  0  0  0  0
  140.1627   67.6814  225.9313 H   0  0  0  0  0  0  0  0  0  0  0  0
  139.5120   69.2500  224.5870 C   0  0  0  0  0  0  0  0  0  0  0  0
  138.7870   68.0950  223.4750 Cl  0  0  0  0  0  0  0  0  0  0  0  0
  140.5530   72.8630  222.7110 O   0  0  0  0  0  0  0  0  0  0  0  0
  140.9700   73.5880  222.1390 H   0  0  0  0  0  0  0  0  0  0  0  0
  140.4430   75.9070  221.4710 C   0  0  0  0  0  0  0  0  0  0  0  0
  141.3970   75.1080  220.8140 O   0  0  0  0  0  0  0  0  0  0  0  0
  142.5770   75.5810  220.1640 C   0  0  0  0  0  0  0  0  0  0  0  0
  142.8360   76.5725  220.5639 H   0  0  0  0  0  0  0  0  0  0  0  0
  142.3829   75.6422  219.0830 H   0  0  0  0  0  0  0  0  0  0  0  0
  143.7440   74.6280  220.3970 C   0  0  0  0  0  0  0  0  0  0  0  0
  143.9019   74.4991  221.4779 H   0  0  0  0  0  0  0  0  0  0  0  0
  143.5180   73.6530  219.9406 H   0  0  0  0  0  0  0  0  0  0  0  0
  144.6541   75.0443  219.9406 H   0  0  0  0  0  0  0  0  0  0  0  0
  140.7640   77.1550  222.0420 C   0  0  0  0  0  0  0  0  0  0  0  0
  141.7959   77.5305  221.9777 H   0  0  0  0  0  0  0  0  0  0  0  0
  1  2  1  0
  2  3  1  0
  3  4  2  3
  4  5  1  0
  5  6  1  0
  5  7  1  0
  5  8  1  0
  8  9  1  0
  8 10  1  0
  3 11  1  0
 11 12  2  0
 12 13  1  0
 12 14  1  0
 14 15  1  0
 14 16  2  0
 16 17  1  0
 17 18  1  0
 18 19  1  0
 18 20  2  0
 20 21  1  0
 21 22  1  0
 22 23  2  0
 23 24  1  0
 23 25  1  0
 25 26  1  0
 26 27  2  0
 26 28  1  0
 25 29  2  0
 29 30  1  0
 29 31  1  0
 31 32  1  0
 31 33  2  0
 33 34  1  0
 20 35  1  0
 35 36  1  0
 16 37  1  0
 37 38  1  0
 38 39  1  0
 39 40  1  0
 39 41  1  0
 39 42  1  0
 42 43  1  0
 42 44  1  0
 42 45  1  0
 37 46  2  0
 46 47  1  0
  8  4  1  0
 46 11  1  0
 33 22  1  0
M  CHG  3  21  -1  26   1  28  -1
M  END
>  <UniqueID>  (80) 
8

>  <SMILES>  (80) 
CCOc1cc(C(O)=C2CC2)ccc1O/C=C(\O)[N-]c1cc([N+](=O)[O-])ccc1Cl

>  <Energy>  (80) 
226.5984288551089

>  <Genealogy>  (80) 
CCOc1cc(C(=O)C2CC2)ccc1OCC(=O)[N-]c1cc([N+](=O)[O-])ccc1Cl (protonated)
CCOc1cc(C(O)=C2CC2)ccc1OC=C(O)[N-]c1cc([N+](=O)[O-])ccc1Cl (tautomer)
CCOc1cc(C(O)=C2CC2)ccc1O/C=C(\O)[N-]c1cc([N+](=O)[O-])ccc1Cl (cis-trans isomerization)
CCOc1cc(C(O)=C2CC2)ccc1O/C=C(\O)[N-]c1cc([N+](=O)[O-])ccc1Cl (3D coordinates assigned)
CCOc1cc(C(O)=C2CC2)ccc1O/C=C(\O)[N-]c1cc([N+](=O)[O-])ccc1Cl (nonaromatic ring conformer: 226.5984288551089 kcal/mol)

>  <smiles>  (80) 
CCOc1cc(C(=O)C2CC2)ccc1OCC(=O)Nc1cc([N+](=O)[O-])ccc1Cl

>  <score_type>  (80) 
oracle

>  <origin>  (80) 
autodockgpu

>  <m_score__min__energy>  (80) 
-6.4500000000000002

>  <m_primary>  (80) 
energy

>  <meeko>  (80) 
{"free_energy": -6.15, "intermolecular_energy": -9.73, "internal_energy": -2.32, "cluster_size": 8, "cluster_id": 1, "rank_in_cluster": 6}

>  <energy>  (80) 
-3.16

>  <cluster_rmsd>  (80) 
0.98

>  <rmsd>  (80) 
271.15

>  <cluster>  (80) 
10

$$$$
