
     RDKit          3D

 60 63  0  0  0  0  0  0  0  0999 V2000
  137.3220   69.7870  222.5380 O   0  0  0  0  0  0  0  0  0  0  0  0
  137.6940   70.4400  223.5530 C   0  0  0  0  0  0  0  0  0  0  0  0
  137.2820   71.8190  223.6190 N   0  0  0  0  0  0  0  0  0  0  0  0
  136.4980   72.3000  222.5310 C   0  0  0  0  0  0  0  0  0  0  0  0
  137.1010   72.4720  221.2200 C   0  0  0  0  0  0  0  0  0  0  0  0
  136.6510   73.5130  220.5710 O   0  0  0  0  0  0  0  0  0  0  0  0
  138.0840   71.6870  220.5630 N   0  0  0  0  0  0  0  0  0  0  0  0
  138.0450   70.9770  219.3040 C   0  0  0  0  0  0  0  0  0  0  0  0
  139.2970   70.0870  219.3110 C   0  0  2  0  0  0  0  0  0  0  0  0
  138.9710   68.9750  220.0790 O   0  0  0  0  0  0  0  0  0  0  0  0
  140.2470   70.9710  220.0560 C   0  0  0  0  0  0  0  0  0  0  0  0
  139.4210   71.5230  221.1780 C   0  0  1  0  0  0  0  0  0  0  0  0
  139.9790   72.8480  221.6000 C   0  0  0  0  0  0  0  0  0  0  0  0
  140.9340   72.8490  222.4480 O   0  0  0  0  0  0  0  0  0  0  0  0
  139.4910   74.0830  221.0960 N   0  0  0  0  0  0  0  0  0  0  0  0
  140.0630   75.3410  221.5420 C   0  0  2  0  0  0  0  0  0  0  0  0
  139.1260   76.5020  221.4410 C   0  0  0  0  0  0  0  0  0  0  0  0
  137.9600   76.1590  220.7700 O   0  0  0  0  0  0  0  0  0  0  0  0
  141.3380   75.6080  220.8250 C   0  0  0  0  0  0  0  0  0  0  0  0
  141.4330   76.8230  220.1660 C   0  0  0  0  0  0  0  0  0  0  0  0
  142.5950   77.1260  219.4820 C   0  0  0  0  0  0  0  0  0  0  0  0
  143.6680   76.2710  219.4250 C   0  0  0  0  0  0  0  0  0  0  0  0
  143.5370   75.0630  220.0960 C   0  0  0  0  0  0  0  0  0  0  0  0
  144.8720   73.9460  220.0520 Cl  0  0  0  0  0  0  0  0  0  0  0  0
  142.3840   74.7270  220.7920 C   0  0  0  0  0  0  0  0  0  0  0  0
  138.4960   69.8690  224.6210 C   0  0  0  0  0  0  0  0  0  0  0  0
  138.5290   68.4890  224.7110 C   0  0  0  0  0  0  0  0  0  0  0  0
  139.2630   67.8580  225.6930 C   0  0  0  0  0  0  0  0  0  0  0  0
  139.9690   68.6500  226.5860 C   0  0  0  0  0  0  0  0  0  0  0  0
  140.7250   68.0900  227.5940 C   0  0  0  0  0  0  0  0  0  0  0  0
  141.4300   68.8700  228.4880 C   0  0  0  0  0  0  0  0  0  0  0  0
  142.1670   68.2820  229.4720 F   0  0  0  0  0  0  0  0  0  0  0  0
  141.3720   70.2460  228.3630 C   0  0  0  0  0  0  0  0  0  0  0  0
  140.6230   70.8410  227.3640 C   0  0  0  0  0  0  0  0  0  0  0  0
  139.9240   70.0270  226.4800 C   0  0  0  0  0  0  0  0  0  0  0  0
  139.1910   70.6250  225.5020 N   0  0  0  0  0  0  0  0  0  0  0  0
  137.6130   72.3290  224.4510 H   0  0  0  0  0  0  0  0  0  0  0  0
  135.6624   71.5956  222.4061 H   0  0  0  0  0  0  0  0  0  0  0  0
  136.2519   73.3288  222.8326 H   0  0  0  0  0  0  0  0  0  0  0  0
  137.1347   70.3634  219.2342 H   0  0  0  0  0  0  0  0  0  0  0  0
  138.0296   71.6620  218.4435 H   0  0  0  0  0  0  0  0  0  0  0  0
  139.6821   69.7431  218.3397 H   0  0  0  0  0  0  0  0  0  0  0  0
  138.2500   69.2750  220.7060 H   0  0  0  0  0  0  0  0  0  0  0  0
  141.0977   70.3919  220.4444 H   0  0  0  0  0  0  0  0  0  0  0  0
  140.6806   71.7579  219.4214 H   0  0  0  0  0  0  0  0  0  0  0  0
  139.4000   70.8861  222.0746 H   0  0  0  0  0  0  0  0  0  0  0  0
  138.7280   74.1470  220.3900 H   0  0  0  0  0  0  0  0  0  0  0  0
  140.2675   75.2285  222.6170 H   0  0  0  0  0  0  0  0  0  0  0  0
  138.8680   76.8421  222.4548 H   0  0  0  0  0  0  0  0  0  0  0  0
  139.6271   77.3011  220.8750 H   0  0  0  0  0  0  0  0  0  0  0  0
  137.6430   75.3190  221.2040 H   0  0  0  0  0  0  0  0  0  0  0  0
  140.5957   77.5361  220.1869 H   0  0  0  0  0  0  0  0  0  0  0  0
  142.6632   78.0926  218.9614 H   0  0  0  0  0  0  0  0  0  0  0  0
  144.5849   76.5303  218.8754 H   0  0  0  0  0  0  0  0  0  0  0  0
  142.3120   73.7606  221.3126 H   0  0  0  0  0  0  0  0  0  0  0  0
  137.9608   67.8856  223.9878 H   0  0  0  0  0  0  0  0  0  0  0  0
  139.2878   66.7607  225.7658 H   0  0  0  0  0  0  0  0  0  0  0  0
  140.7673   66.9948  227.6879 H   0  0  0  0  0  0  0  0  0  0  0  0
  141.9306   70.8775  229.0695 H   0  0  0  0  0  0  0  0  0  0  0  0
  140.5813   71.9363  227.2708 H   0  0  0  0  0  0  0  0  0  0  0  0
  1  2  2  0
  2  3  1  0
  3  4  1  0
  4  5  1  0
  5  6  2  0
  5  7  1  0
  7  8  1  0
  8  9  1  0
  9 10  1  0
  9 11  1  0
 11 12  1  0
 12 13  1  0
 13 14  2  0
 13 15  1  0
 15 16  1  0
 16 17  1  0
 17 18  1  0
 16 19  1  0
 19 20  2  0
 20 21  1  0
 21 22  2  0
 22 23  1  0
 23 24  1  0
 23 25  2  0
  2 26  1  0
 26 27  2  0
 27 28  1  0
 28 29  2  0
 29 30  1  0
 30 31  2  0
 31 32  1  0
 31 33  1  0
 33 34  2  0
 34 35  1  0
 35 36  2  0
 12  7  1  0
 25 19  1  0
 36 26  1  0
 35 29  1  0
  3 37  1  0
  4 38  1  0
  4 39  1  0
  8 40  1  0
  8 41  1  0
  9 42  1  6
 10 43  1  0
 11 44  1  0
 11 45  1  0
 12 46  1  1
 15 47  1  0
 16 48  1  1
 17 49  1  0
 17 50  1  0
 18 51  1  0
 20 52  1  0
 21 53  1  0
 22 54  1  0
 25 55  1  0
 27 56  1  0
 28 57  1  0
 30 58  1  0
 33 59  1  0
 34 60  1  0
M  END
>  <smiles>  (1) 
O=C(NCC(=O)N1C[C@H](O)C[C@H]1C(=O)N[C@H](CO)c1cccc(Cl)c1)c1ccc2cc(F)ccc2n1

>  <score_type>  (1) 
oracle

>  <origin>  (1) 
autodockgpu

>  <m_score__min__energy>  (1) 
-9.3200000000000003

>  <m_primary>  (1) 
energy

>  <meeko>  (1) 
{"free_energy": -6.37, "intermolecular_energy": -9.36, "internal_energy": -5.25, "cluster_size": 1, "cluster_id": 5, "rank_in_cluster": 1}

>  <energy>  (1) 
-9.32

>  <cluster_rmsd>  (1) 
0.0

>  <rmsd>  (1) 
271.03

>  <cluster>  (1) 
1

$$$$

     RDKit          3D

 60 63  0  0  0  0  0  0  0  0999 V2000
  140.9890   77.1910  217.8650 O   0  0  0  0  0  0  0  0  0  0  0  0
  141.9890   77.0910  218.6300 C   0  0  0  0  0  0  0  0  0  0  0  0
  142.2900   78.2360  219.4510 N   0  0  0  0  0  0  0  0  0  0  0  0
  141.4260   79.3620  219.3110 C   0  0  0  0  0  0  0  0  0  0  0  0
  141.0450   80.1350  220.4800 C   0  0  0  0  0  0  0  0  0  0  0  0
  140.0450   80.9480  220.2650 O   0  0  0  0  0  0  0  0  0  0  0  0
  141.5940   80.1330  221.7890 N   0  0  0  0  0  0  0  0  0  0  0  0
  141.7940   81.2060  222.7360 C   0  0  0  0  0  0  0  0  0  0  0  0
  142.6980   80.6110  223.8260 C   0  0  2  0  0  0  0  0  0  0  0  0
  143.9920   80.6630  223.3200 O   0  0  0  0  0  0  0  0  0  0  0  0
  142.2020   79.2000  223.8400 C   0  0  0  0  0  0  0  0  0  0  0  0
  142.0480   78.8570  222.3900 C   0  0  1  0  0  0  0  0  0  0  0  0
  141.0030   77.7950  222.2390 C   0  0  0  0  0  0  0  0  0  0  0  0
  139.8210   78.0590  222.6450 O   0  0  0  0  0  0  0  0  0  0  0  0
  141.2760   76.5240  221.6670 N   0  0  0  0  0  0  0  0  0  0  0  0
  140.2290   75.5260  221.5480 C   0  0  2  0  0  0  0  0  0  0  0  0
  140.7260   74.1170  221.5930 C   0  0  0  0  0  0  0  0  0  0  0  0
  142.0600   74.0350  221.2160 O   0  0  0  0  0  0  0  0  0  0  0  0
  139.4170   75.7770  220.3280 C   0  0  0  0  0  0  0  0  0  0  0  0
  139.3580   74.7460  219.4040 C   0  0  0  0  0  0  0  0  0  0  0  0
  138.6180   74.9210  218.2490 C   0  0  0  0  0  0  0  0  0  0  0  0
  137.9350   76.0810  217.9750 C   0  0  0  0  0  0  0  0  0  0  0  0
  138.0170   77.0910  218.9220 C   0  0  0  0  0  0  0  0  0  0  0  0
  137.1670   78.5790  218.6170 Cl  0  0  0  0  0  0  0  0  0  0  0  0
  138.7510   76.9470  220.0910 C   0  0  0  0  0  0  0  0  0  0  0  0
  142.8190   75.9020  218.7110 C   0  0  0  0  0  0  0  0  0  0  0  0
  142.7270   75.0010  217.6650 C   0  0  0  0  0  0  0  0  0  0  0  0
  143.4770   73.8440  217.6550 C   0  0  0  0  0  0  0  0  0  0  0  0
  144.3270   73.6120  218.7260 C   0  0  0  0  0  0  0  0  0  0  0  0
  145.1080   72.4770  218.7850 C   0  0  0  0  0  0  0  0  0  0  0  0
  145.9550   72.2370  219.8470 C   0  0  0  0  0  0  0  0  0  0  0  0
  146.7130   71.1050  219.8730 F   0  0  0  0  0  0  0  0  0  0  0  0
  146.0180   73.1620  220.8730 C   0  0  0  0  0  0  0  0  0  0  0  0
  145.2490   74.3120  220.8460 C   0  0  0  0  0  0  0  0  0  0  0  0
  144.4050   74.5230  219.7620 C   0  0  0  0  0  0  0  0  0  0  0  0
  143.6540   75.6580  219.7480 N   0  0  0  0  0  0  0  0  0  0  0  0
  143.1180   78.1300  220.0540 H   0  0  0  0  0  0  0  0  0  0  0  0
  141.9211   80.0579  218.6178 H   0  0  0  0  0  0  0  0  0  0  0  0
  140.4764   78.9129  218.9845 H   0  0  0  0  0  0  0  0  0  0  0  0
  142.2852   82.0627  222.2515 H   0  0  0  0  0  0  0  0  0  0  0  0
  140.8433   81.5782  223.1454 H   0  0  0  0  0  0  0  0  0  0  0  0
  142.6882   81.0929  224.8148 H   0  0  0  0  0  0  0  0  0  0  0  0
  143.9730   80.1440  222.4650 H   0  0  0  0  0  0  0  0  0  0  0  0
  142.9311   78.5338  224.3243 H   0  0  0  0  0  0  0  0  0  0  0  0
  141.2648   79.0857  224.4045 H   0  0  0  0  0  0  0  0  0  0  0  0
  142.9644   78.4697  221.9208 H   0  0  0  0  0  0  0  0  0  0  0  0
  142.2140   76.2560  221.3010 H   0  0  0  0  0  0  0  0  0  0  0  0
  139.5913   75.6342  222.4377 H   0  0  0  0  0  0  0  0  0  0  0  0
  140.6203   73.7334  222.6185 H   0  0  0  0  0  0  0  0  0  0  0  0
  140.1308   73.5187  220.8875 H   0  0  0  0  0  0  0  0  0  0  0  0
  142.4550   74.9210  221.4490 H   0  0  0  0  0  0  0  0  0  0  0  0
  139.8922   73.8019  219.5867 H   0  0  0  0  0  0  0  0  0  0  0  0
  138.5745   74.0982  217.5202 H   0  0  0  0  0  0  0  0  0  0  0  0
  137.3519   76.2028  217.0503 H   0  0  0  0  0  0  0  0  0  0  0  0
  138.7965   77.7682  220.8214 H   0  0  0  0  0  0  0  0  0  0  0  0
  142.0447   75.2110  216.8281 H   0  0  0  0  0  0  0  0  0  0  0  0
  143.4035   73.1275  216.8236 H   0  0  0  0  0  0  0  0  0  0  0  0
  145.0543   71.7453  217.9654 H   0  0  0  0  0  0  0  0  0  0  0  0
  146.6904   72.9806  221.7245 H   0  0  0  0  0  0  0  0  0  0  0  0
  145.3044   75.0439  221.6653 H   0  0  0  0  0  0  0  0  0  0  0  0
  1  2  2  0
  2  3  1  0
  3  4  1  0
  4  5  1  0
  5  6  2  0
  5  7  1  0
  7  8  1  0
  8  9  1  0
  9 10  1  0
  9 11  1  0
 11 12  1  0
 12 13  1  0
 13 14  2  0
 13 15  1  0
 15 16  1  0
 16 17  1  0
 17 18  1  0
 16 19  1  0
 19 20  2  0
 20 21  1  0
 21 22  2  0
 22 23  1  0
 23 24  1  0
 23 25  2  0
  2 26  1  0
 26 27  2  0
 27 28  1  0
 28 29  2  0
 29 30  1  0
 30 31  2  0
 31 32  1  0
 31 33  1  0
 33 34  2  0
 34 35  1  0
 35 36  2  0
 12  7  1  0
 25 19  1  0
 36 26  1  0
 35 29  1  0
  3 37  1  0
  4 38  1  0
  4 39  1  0
  8 40  1  0
  8 41  1  0
  9 42  1  1
 10 43  1  0
 11 44  1  0
 11 45  1  0
 12 46  1  6
 15 47  1  0
 16 48  1  1
 17 49  1  0
 17 50  1  0
 18 51  1  0
 20 52  1  0
 21 53  1  0
 22 54  1  0
 25 55  1  0
 27 56  1  0
 28 57  1  0
 30 58  1  0
 33 59  1  0
 34 60  1  0
M  END
>  <smiles>  (2) 
O=C(NCC(=O)N1C[C@H](O)C[C@H]1C(=O)N[C@H](CO)c1cccc(Cl)c1)c1ccc2cc(F)ccc2n1

>  <score_type>  (2) 
oracle

>  <origin>  (2) 
autodockgpu

>  <m_score__min__energy>  (2) 
-9.3200000000000003

>  <m_primary>  (2) 
energy

>  <meeko>  (2) 
{"free_energy": -6.17, "intermolecular_energy": -9.16, "internal_energy": -5.64, "cluster_size": 1, "cluster_id": 6, "rank_in_cluster": 1}

>  <energy>  (2) 
-9.25

>  <cluster_rmsd>  (2) 
1.95

>  <rmsd>  (2) 
270.8

>  <cluster>  (2) 
1

$$$$

     RDKit          3D

 60 63  0  0  0  0  0  0  0  0999 V2000
  137.0380   70.1100  222.1780 O   0  0  0  0  0  0  0  0  0  0  0  0
  137.8200   70.7600  222.9280 C   0  0  0  0  0  0  0  0  0  0  0  0
  137.9980   72.1560  222.6190 N   0  0  0  0  0  0  0  0  0  0  0  0
  137.2730   72.6550  221.4980 C   0  0  0  0  0  0  0  0  0  0  0  0
  136.0180   73.3590  221.7000 C   0  0  0  0  0  0  0  0  0  0  0  0
  135.1730   73.2120  220.7140 O   0  0  0  0  0  0  0  0  0  0  0  0
  135.5930   74.1640  222.7890 N   0  0  0  0  0  0  0  0  0  0  0  0
  135.1890   73.8080  224.1300 C   0  0  0  0  0  0  0  0  0  0  0  0
  134.5610   75.0860  224.7080 C   0  0  2  0  0  0  0  0  0  0  0  0
  133.2650   75.1350  224.2090 O   0  0  0  0  0  0  0  0  0  0  0  0
  135.4130   76.1220  224.0460 C   0  0  0  0  0  0  0  0  0  0  0  0
  135.5400   75.6350  222.6340 C   0  0  1  0  0  0  0  0  0  0  0  0
  136.8140   76.1550  222.0420 C   0  0  0  0  0  0  0  0  0  0  0  0
  136.7320   77.0970  221.1830 O   0  0  0  0  0  0  0  0  0  0  0  0
  138.0910   75.6450  222.3980 N   0  0  0  0  0  0  0  0  0  0  0  0
  139.2960   76.1780  221.7910 C   0  0  2  0  0  0  0  0  0  0  0  0
  140.4100   75.1870  221.6800 C   0  0  0  0  0  0  0  0  0  0  0  0
  140.1010   74.0000  222.3300 O   0  0  0  0  0  0  0  0  0  0  0  0
  139.7310   77.4060  222.5080 C   0  0  0  0  0  0  0  0  0  0  0  0
  141.0930   77.5480  222.7180 C   0  0  0  0  0  0  0  0  0  0  0  0
  141.5570   78.6700  223.3800 C   0  0  0  0  0  0  0  0  0  0  0  0
  140.7220   79.6570  223.8420 C   0  0  0  0  0  0  0  0  0  0  0  0
  139.3650   79.4810  223.6140 C   0  0  0  0  0  0  0  0  0  0  0  0
  138.2680   80.7080  224.1820 Cl  0  0  0  0  0  0  0  0  0  0  0  0
  138.8660   78.3670  222.9530 C   0  0  0  0  0  0  0  0  0  0  0  0
  138.5230   70.1710  224.0540 C   0  0  0  0  0  0  0  0  0  0  0  0
  138.5290   68.7900  224.1350 C   0  0  0  0  0  0  0  0  0  0  0  0
  139.1710   68.1410  225.1700 C   0  0  0  0  0  0  0  0  0  0  0  0
  139.8100   68.9170  226.1250 C   0  0  0  0  0  0  0  0  0  0  0  0
  140.4720   68.3390  227.1880 C   0  0  0  0  0  0  0  0  0  0  0  0
  141.1100   69.1020  228.1440 C   0  0  0  0  0  0  0  0  0  0  0  0
  141.7550   68.4980  229.1810 F   0  0  0  0  0  0  0  0  0  0  0  0
  141.0800   70.4800  228.0270 C   0  0  0  0  0  0  0  0  0  0  0  0
  140.4250   71.0930  226.9730 C   0  0  0  0  0  0  0  0  0  0  0  0
  139.7920   70.2950  226.0270 C   0  0  0  0  0  0  0  0  0  0  0  0
  139.1520   70.9110  224.9970 N   0  0  0  0  0  0  0  0  0  0  0  0
  138.6520   72.6560  223.2390 H   0  0  0  0  0  0  0  0  0  0  0  0
  137.9439   73.3474  220.9684 H   0  0  0  0  0  0  0  0  0  0  0  0
  136.9680   71.7413  220.9668 H   0  0  0  0  0  0  0  0  0  0  0  0
  134.4527   72.9911  224.1080 H   0  0  0  0  0  0  0  0  0  0  0  0
  136.0353   73.4526  224.7361 H   0  0  0  0  0  0  0  0  0  0  0  0
  134.5186   75.1824  225.8029 H   0  0  0  0  0  0  0  0  0  0  0  0
  133.2660   74.5670  223.3850 H   0  0  0  0  0  0  0  0  0  0  0  0
  134.9261   77.1079  224.0778 H   0  0  0  0  0  0  0  0  0  0  0  0
  136.3874   76.2494  224.5403 H   0  0  0  0  0  0  0  0  0  0  0  0
  134.7250   75.9622  221.9716 H   0  0  0  0  0  0  0  0  0  0  0  0
  138.2240   74.8910  223.1040 H   0  0  0  0  0  0  0  0  0  0  0  0
  139.0361   76.4347  220.7534 H   0  0  0  0  0  0  0  0  0  0  0  0
  140.5950   74.9747  220.6167 H   0  0  0  0  0  0  0  0  0  0  0  0
  141.3041   75.6179  222.1543 H   0  0  0  0  0  0  0  0  0  0  0  0
  139.5470   74.2650  223.1150 H   0  0  0  0  0  0  0  0  0  0  0  0
  141.7953   76.7793  222.3633 H   0  0  0  0  0  0  0  0  0  0  0  0
  142.6397   78.7760  223.5431 H   0  0  0  0  0  0  0  0  0  0  0  0
  141.1095   80.5428  224.3666 H   0  0  0  0  0  0  0  0  0  0  0  0
  137.7838   78.2582  222.7886 H   0  0  0  0  0  0  0  0  0  0  0  0
  138.0141   68.2000  223.3625 H   0  0  0  0  0  0  0  0  0  0  0  0
  139.1756   67.0429  225.2352 H   0  0  0  0  0  0  0  0  0  0  0  0
  140.4917   67.2427  227.2757 H   0  0  0  0  0  0  0  0  0  0  0  0
  141.5848   71.0985  228.7837 H   0  0  0  0  0  0  0  0  0  0  0  0
  140.4057   72.1894  226.8857 H   0  0  0  0  0  0  0  0  0  0  0  0
  1  2  2  0
  2  3  1  0
  3  4  1  0
  4  5  1  0
  5  6  2  0
  5  7  1  0
  7  8  1  0
  8  9  1  0
  9 10  1  0
  9 11  1  0
 11 12  1  0
 12 13  1  0
 13 14  2  0
 13 15  1  0
 15 16  1  0
 16 17  1  0
 17 18  1  0
 16 19  1  0
 19 20  2  0
 20 21  1  0
 21 22  2  0
 22 23  1  0
 23 24  1  0
 23 25  2  0
  2 26  1  0
 26 27  2  0
 27 28  1  0
 28 29  2  0
 29 30  1  0
 30 31  2  0
 31 32  1  0
 31 33  1  0
 33 34  2  0
 34 35  1  0
 35 36  2  0
 12  7  1  0
 25 19  1  0
 36 26  1  0
 35 29  1  0
  3 37  1  0
  4 38  1  0
  4 39  1  0
  8 40  1  0
  8 41  1  0
  9 42  1  1
 10 43  1  0
 11 44  1  0
 11 45  1  0
 12 46  1  6
 15 47  1  0
 16 48  1  6
 17 49  1  0
 17 50  1  0
 18 51  1  0
 20 52  1  0
 21 53  1  0
 22 54  1  0
 25 55  1  0
 27 56  1  0
 28 57  1  0
 30 58  1  0
 33 59  1  0
 34 60  1  0
M  END
>  <smiles>  (3) 
O=C(NCC(=O)N1C[C@H](O)C[C@H]1C(=O)N[C@H](CO)c1cccc(Cl)c1)c1ccc2cc(F)ccc2n1

>  <score_type>  (3) 
oracle

>  <origin>  (3) 
autodockgpu

>  <m_score__min__energy>  (3) 
-9.3200000000000003

>  <m_primary>  (3) 
energy

>  <meeko>  (3) 
{"free_energy": -8.93, "intermolecular_energy": -11.91, "internal_energy": -3.66, "cluster_size": 12, "cluster_id": 2, "rank_in_cluster": 4}

>  <energy>  (3) 
-8.58

>  <cluster_rmsd>  (3) 
1.86

>  <rmsd>  (3) 
270.55

>  <cluster>  (3) 
1

$$$$

     RDKit          3D

 60 63  0  0  0  0  0  0  0  0999 V2000
  137.0040   70.1690  222.2830 O   0  0  0  0  0  0  0  0  0  0  0  0
  137.8110   70.8040  223.0190 C   0  0  0  0  0  0  0  0  0  0  0  0
  138.0130   72.1950  222.7050 N   0  0  0  0  0  0  0  0  0  0  0  0
  137.2800   72.7080  221.5960 C   0  0  0  0  0  0  0  0  0  0  0  0
  136.0220   73.4030  221.8140 C   0  0  0  0  0  0  0  0  0  0  0  0
  135.1620   73.2430  220.8430 O   0  0  0  0  0  0  0  0  0  0  0  0
  135.6080   74.2100  222.9050 N   0  0  0  0  0  0  0  0  0  0  0  0
  135.2290   73.8590  224.2550 C   0  0  0  0  0  0  0  0  0  0  0  0
  134.6020   75.1350  224.8370 C   0  0  2  0  0  0  0  0  0  0  0  0
  133.2970   75.1710  224.3580 O   0  0  0  0  0  0  0  0  0  0  0  0
  135.4340   76.1740  224.1550 C   0  0  0  0  0  0  0  0  0  0  0  0
  135.5420   75.6810  222.7440 C   0  0  1  0  0  0  0  0  0  0  0  0
  136.8020   76.2070  222.1280 C   0  0  0  0  0  0  0  0  0  0  0  0
  136.7040   77.1840  221.3120 O   0  0  0  0  0  0  0  0  0  0  0  0
  138.0830   75.6650  222.4170 N   0  0  0  0  0  0  0  0  0  0  0  0
  139.2740   76.2070  221.7900 C   0  0  2  0  0  0  0  0  0  0  0  0
  140.3910   75.2230  221.6580 C   0  0  0  0  0  0  0  0  0  0  0  0
  140.0950   74.0270  222.2970 O   0  0  0  0  0  0  0  0  0  0  0  0
  139.7140   77.4360  222.5010 C   0  0  0  0  0  0  0  0  0  0  0  0
  141.0780   77.5770  222.7030 C   0  0  0  0  0  0  0  0  0  0  0  0
  141.5470   78.7000  223.3600 C   0  0  0  0  0  0  0  0  0  0  0  0
  140.7150   79.6890  223.8230 C   0  0  0  0  0  0  0  0  0  0  0  0
  139.3560   79.5150  223.6030 C   0  0  0  0  0  0  0  0  0  0  0  0
  138.2640   80.7440  224.1730 Cl  0  0  0  0  0  0  0  0  0  0  0  0
  138.8530   78.3990  222.9480 C   0  0  0  0  0  0  0  0  0  0  0  0
  138.5200   70.2010  224.1350 C   0  0  0  0  0  0  0  0  0  0  0  0
  138.5050   68.8200  224.2140 C   0  0  0  0  0  0  0  0  0  0  0  0
  139.1500   68.1600  225.2380 C   0  0  0  0  0  0  0  0  0  0  0  0
  139.8160   68.9230  226.1850 C   0  0  0  0  0  0  0  0  0  0  0  0
  140.4830   68.3330  227.2380 C   0  0  0  0  0  0  0  0  0  0  0  0
  141.1460   69.0840  228.1860 C   0  0  0  0  0  0  0  0  0  0  0  0
  141.7960   68.4680  229.2130 F   0  0  0  0  0  0  0  0  0  0  0  0
  141.1380   70.4620  228.0710 C   0  0  0  0  0  0  0  0  0  0  0  0
  140.4780   71.0880  227.0270 C   0  0  0  0  0  0  0  0  0  0  0  0
  139.8190   70.3020  226.0900 C   0  0  0  0  0  0  0  0  0  0  0  0
  139.1740   70.9290  225.0690 N   0  0  0  0  0  0  0  0  0  0  0  0
  138.6870   72.6830  223.3140 H   0  0  0  0  0  0  0  0  0  0  0  0
  137.9451   73.4118  221.0742 H   0  0  0  0  0  0  0  0  0  0  0  0
  136.9764   71.8010  221.0528 H   0  0  0  0  0  0  0  0  0  0  0  0
  134.4982   73.0369  224.2499 H   0  0  0  0  0  0  0  0  0  0  0  0
  136.0882   73.5133  224.8485 H   0  0  0  0  0  0  0  0  0  0  0  0
  134.5779   75.2372  225.9320 H   0  0  0  0  0  0  0  0  0  0  0  0
  133.3110   74.6840  223.4840 H   0  0  0  0  0  0  0  0  0  0  0  0
  134.9394   77.1559  224.1896 H   0  0  0  0  0  0  0  0  0  0  0  0
  136.4154   76.3117  224.6323 H   0  0  0  0  0  0  0  0  0  0  0  0
  134.7140   75.9995  222.0937 H   0  0  0  0  0  0  0  0  0  0  0  0
  138.2300   74.8810  223.0870 H   0  0  0  0  0  0  0  0  0  0  0  0
  138.9945   76.4646  220.7578 H   0  0  0  0  0  0  0  0  0  0  0  0
  140.5672   75.0237  220.5907 H   0  0  0  0  0  0  0  0  0  0  0  0
  141.2868   75.6532  222.1297 H   0  0  0  0  0  0  0  0  0  0  0  0
  139.5480   74.2800  223.0910 H   0  0  0  0  0  0  0  0  0  0  0  0
  141.7774   76.8068  222.3459 H   0  0  0  0  0  0  0  0  0  0  0  0
  142.6305   78.8050  223.5180 H   0  0  0  0  0  0  0  0  0  0  0  0
  141.1064   80.5759  224.3429 H   0  0  0  0  0  0  0  0  0  0  0  0
  137.7698   78.2906  222.7899 H   0  0  0  0  0  0  0  0  0  0  0  0
  137.9701   68.2396  223.4479 H   0  0  0  0  0  0  0  0  0  0  0  0
  139.1367   67.0619  225.3019 H   0  0  0  0  0  0  0  0  0  0  0  0
  140.4863   67.2364  227.3240 H   0  0  0  0  0  0  0  0  0  0  0  0
  141.6644   71.0707  228.8209 H   0  0  0  0  0  0  0  0  0  0  0  0
  140.4755   72.1847  226.9413 H   0  0  0  0  0  0  0  0  0  0  0  0
  1  2  2  0
  2  3  1  0
  3  4  1  0
  4  5  1  0
  5  6  2  0
  5  7  1  0
  7  8  1  0
  8  9  1  0
  9 10  1  0
  9 11  1  0
 11 12  1  0
 12 13  1  0
 13 14  2  0
 13 15  1  0
 15 16  1  0
 16 17  1  0
 17 18  1  0
 16 19  1  0
 19 20  2  0
 20 21  1  0
 21 22  2  0
 22 23  1  0
 23 24  1  0
 23 25  2  0
  2 26  1  0
 26 27  2  0
 27 28  1  0
 28 29  2  0
 29 30  1  0
 30 31  2  0
 31 32  1  0
 31 33  1  0
 33 34  2  0
 34 35  1  0
 35 36  2  0
 12  7  1  0
 25 19  1  0
 36 26  1  0
 35 29  1  0
  3 37  1  0
  4 38  1  0
  4 39  1  0
  8 40  1  0
  8 41  1  0
  9 42  1  1
 10 43  1  0
 11 44  1  0
 11 45  1  0
 12 46  1  6
 15 47  1  0
 16 48  1  6
 17 49  1  0
 17 50  1  0
 18 51  1  0
 20 52  1  0
 21 53  1  0
 22 54  1  0
 25 55  1  0
 27 56  1  0
 28 57  1  0
 30 58  1  0
 33 59  1  0
 34 60  1  0
M  END
>  <smiles>  (4) 
O=C(NCC(=O)N1C[C@H](O)C[C@H]1C(=O)N[C@H](CO)c1cccc(Cl)c1)c1ccc2cc(F)ccc2n1

>  <score_type>  (4) 
oracle

>  <origin>  (4) 
autodockgpu

>  <m_score__min__energy>  (4) 
-9.3200000000000003

>  <m_primary>  (4) 
energy

>  <meeko>  (4) 
{"free_energy": -8.95, "intermolecular_energy": -11.94, "internal_energy": -3.62, "cluster_size": 12, "cluster_id": 2, "rank_in_cluster": 2}

>  <energy>  (4) 
-8.58

>  <cluster_rmsd>  (4) 
1.95

>  <rmsd>  (4) 
270.73

>  <cluster>  (4) 
1

$$$$

     RDKit          3D

 60 63  0  0  0  0  0  0  0  0999 V2000
  138.9170   73.0320  222.3690 O   0  0  0  0  0  0  0  0  0  0  0  0
  138.5780   71.8840  222.7730 C   0  0  0  0  0  0  0  0  0  0  0  0
  137.4810   71.2550  222.0830 N   0  0  0  0  0  0  0  0  0  0  0  0
  136.8940   71.9960  221.0160 C   0  0  0  0  0  0  0  0  0  0  0  0
  136.2240   73.2560  221.2890 C   0  0  0  0  0  0  0  0  0  0  0  0
  135.8640   73.9000  220.2110 O   0  0  0  0  0  0  0  0  0  0  0  0
  135.9150   73.8700  222.5310 N   0  0  0  0  0  0  0  0  0  0  0  0
  135.7080   73.3020  223.8440 C   0  0  0  0  0  0  0  0  0  0  0  0
  135.1120   74.4440  224.6810 C   0  0  2  0  0  0  0  0  0  0  0  0
  133.7590   74.4870  224.3620 O   0  0  0  0  0  0  0  0  0  0  0  0
  135.8240   75.6140  224.0790 C   0  0  0  0  0  0  0  0  0  0  0  0
  135.7820   75.3430  222.6060 C   0  0  1  0  0  0  0  0  0  0  0  0
  136.9430   76.0170  221.9430 C   0  0  0  0  0  0  0  0  0  0  0  0
  136.6940   76.8740  221.0290 O   0  0  0  0  0  0  0  0  0  0  0  0
  138.2930   75.7420  222.2910 N   0  0  0  0  0  0  0  0  0  0  0  0
  139.3840   76.4180  221.6140 C   0  0  2  0  0  0  0  0  0  0  0  0
  140.5680   75.5450  221.3490 C   0  0  0  0  0  0  0  0  0  0  0  0
  140.7290   74.5900  222.3440 O   0  0  0  0  0  0  0  0  0  0  0  0
  139.7700   77.6440  222.3610 C   0  0  0  0  0  0  0  0  0  0  0  0
  138.7640   78.2710  223.0790 C   0  0  0  0  0  0  0  0  0  0  0  0
  139.0630   79.4170  223.7940 C   0  0  0  0  0  0  0  0  0  0  0  0
  140.3220   79.9640  223.8240 C   0  0  0  0  0  0  0  0  0  0  0  0
  141.3040   79.3100  223.0930 C   0  0  0  0  0  0  0  0  0  0  0  0
  142.9150   79.9690  223.1020 Cl  0  0  0  0  0  0  0  0  0  0  0  0
  141.0360   78.1590  222.3650 C   0  0  0  0  0  0  0  0  0  0  0  0
  139.2330   71.1970  223.8730 C   0  0  0  0  0  0  0  0  0  0  0  0
  140.3140   71.8350  224.4550 C   0  0  0  0  0  0  0  0  0  0  0  0
  140.9980   71.2600  225.5050 C   0  0  0  0  0  0  0  0  0  0  0  0
  140.5690   70.0220  225.9590 C   0  0  0  0  0  0  0  0  0  0  0  0
  141.2040   69.3850  227.0050 C   0  0  0  0  0  0  0  0  0  0  0  0
  140.7850   68.1530  227.4620 C   0  0  0  0  0  0  0  0  0  0  0  0
  141.4360   67.5530  228.4980 F   0  0  0  0  0  0  0  0  0  0  0  0
  139.7000   67.5490  226.8540 C   0  0  0  0  0  0  0  0  0  0  0  0
  139.0390   68.1590  225.8020 C   0  0  0  0  0  0  0  0  0  0  0  0
  139.4880   69.4000  225.3640 C   0  0  0  0  0  0  0  0  0  0  0  0
  138.8290   69.9890  224.3300 N   0  0  0  0  0  0  0  0  0  0  0  0
  137.2190   70.3260  222.4440 H   0  0  0  0  0  0  0  0  0  0  0  0
  137.6998   72.2136  220.2995 H   0  0  0  0  0  0  0  0  0  0  0  0
  136.0766   71.3437  220.6750 H   0  0  0  0  0  0  0  0  0  0  0  0
  135.0088   72.4544  223.7928 H   0  0  0  0  0  0  0  0  0  0  0  0
  136.6412   72.9143  224.2786 H   0  0  0  0  0  0  0  0  0  0  0  0
  135.2133   74.3793  225.7744 H   0  0  0  0  0  0  0  0  0  0  0  0
  133.6590   73.9520  223.5220 H   0  0  0  0  0  0  0  0  0  0  0  0
  135.3049   76.5537  224.3189 H   0  0  0  0  0  0  0  0  0  0  0  0
  136.8496   75.7282  224.4601 H   0  0  0  0  0  0  0  0  0  0  0  0
  134.8736   75.7128  222.1080 H   0  0  0  0  0  0  0  0  0  0  0  0
  138.5600   75.0680  223.0390 H   0  0  0  0  0  0  0  0  0  0  0  0
  139.0075   76.7008  220.6199 H   0  0  0  0  0  0  0  0  0  0  0  0
  140.4278   75.0357  220.3841 H   0  0  0  0  0  0  0  0  0  0  0  0
  141.4668   76.1788  221.3303 H   0  0  0  0  0  0  0  0  0  0  0  0
  139.8060   74.3720  222.6530 H   0  0  0  0  0  0  0  0  0  0  0  0
  137.7424   77.8633  223.0803 H   0  0  0  0  0  0  0  0  0  0  0  0
  138.2597   79.9098  224.3613 H   0  0  0  0  0  0  0  0  0  0  0  0
  140.5416   80.8756  224.3991 H   0  0  0  0  0  0  0  0  0  0  0  0
  141.8368   77.6648  221.7954 H   0  0  0  0  0  0  0  0  0  0  0  0
  140.6327   72.8164  224.0740 H   0  0  0  0  0  0  0  0  0  0  0  0
  141.8571   71.7674  225.9681 H   0  0  0  0  0  0  0  0  0  0  0  0
  142.0653   69.8714  227.4862 H   0  0  0  0  0  0  0  0  0  0  0  0
  139.3564   66.5674  227.2123 H   0  0  0  0  0  0  0  0  0  0  0  0
  138.1768   67.6724  225.3226 H   0  0  0  0  0  0  0  0  0  0  0  0
  1  2  2  0
  2  3  1  0
  3  4  1  0
  4  5  1  0
  5  6  2  0
  5  7  1  0
  7  8  1  0
  8  9  1  0
  9 10  1  0
  9 11  1  0
 11 12  1  0
 12 13  1  0
 13 14  2  0
 13 15  1  0
 15 16  1  0
 16 17  1  0
 17 18  1  0
 16 19  1  0
 19 20  2  0
 20 21  1  0
 21 22  2  0
 22 23  1  0
 23 24  1  0
 23 25  2  0
  2 26  1  0
 26 27  2  0
 27 28  1  0
 28 29  2  0
 29 30  1  0
 30 31  2  0
 31 32  1  0
 31 33  1  0
 33 34  2  0
 34 35  1  0
 35 36  2  0
 12  7  1  0
 25 19  1  0
 36 26  1  0
 35 29  1  0
  3 37  1  0
  4 38  1  0
  4 39  1  0
  8 40  1  0
  8 41  1  0
  9 42  1  1
 10 43  1  0
 11 44  1  0
 11 45  1  0
 12 46  1  6
 15 47  1  0
 16 48  1  6
 17 49  1  0
 17 50  1  0
 18 51  1  0
 20 52  1  0
 21 53  1  0
 22 54  1  0
 25 55  1  0
 27 56  1  0
 28 57  1  0
 30 58  1  0
 33 59  1  0
 34 60  1  0
M  END
>  <smiles>  (5) 
O=C(NCC(=O)N1C[C@H](O)C[C@H]1C(=O)N[C@H](CO)c1cccc(Cl)c1)c1ccc2cc(F)ccc2n1

>  <score_type>  (5) 
oracle

>  <origin>  (5) 
autodockgpu

>  <m_score__min__energy>  (5) 
-9.3200000000000003

>  <m_primary>  (5) 
energy

>  <meeko>  (5) 
{"free_energy": -8.05, "intermolecular_energy": -11.03, "internal_energy": -4.36, "cluster_size": 12, "cluster_id": 2, "rank_in_cluster": 11}

>  <energy>  (5) 
-8.99

>  <cluster_rmsd>  (5) 
0.0

>  <rmsd>  (5) 
270.48

>  <cluster>  (5) 
2

$$$$

     RDKit          3D

 60 63  0  0  0  0  0  0  0  0999 V2000
  140.1890   73.7870  222.3160 O   0  0  0  0  0  0  0  0  0  0  0  0
  140.3710   72.5390  222.2540 C   0  0  0  0  0  0  0  0  0  0  0  0
  140.7120   72.0020  220.9610 N   0  0  0  0  0  0  0  0  0  0  0  0
  140.8080   72.9370  219.8900 C   0  0  0  0  0  0  0  0  0  0  0  0
  141.9150   73.8760  219.8420 C   0  0  0  0  0  0  0  0  0  0  0  0
  142.7330   73.7720  220.8550 O   0  0  0  0  0  0  0  0  0  0  0  0
  142.2240   74.8660  218.8730 N   0  0  0  0  0  0  0  0  0  0  0  0
  142.3430   74.7820  217.4350 C   0  0  0  0  0  0  0  0  0  0  0  0
  142.9900   76.1100  217.0120 C   0  0  2  0  0  0  0  0  0  0  0  0
  144.3530   75.9640  217.2470 O   0  0  0  0  0  0  0  0  0  0  0  0
  142.3840   77.0340  218.0210 C   0  0  0  0  0  0  0  0  0  0  0  0
  142.4590   76.2640  219.3040 C   0  0  1  0  0  0  0  0  0  0  0  0
  141.3730   76.7270  220.2250 C   0  0  0  0  0  0  0  0  0  0  0  0
  140.6350   77.6960  219.8380 O   0  0  0  0  0  0  0  0  0  0  0  0
  141.1360   76.1360  221.4950 N   0  0  0  0  0  0  0  0  0  0  0  0
  140.0730   76.6250  222.3530 C   0  0  2  0  0  0  0  0  0  0  0  0
  138.7040   76.4580  221.7780 C   0  0  0  0  0  0  0  0  0  0  0  0
  138.6370   75.3600  220.9320 O   0  0  0  0  0  0  0  0  0  0  0  0
  140.3330   78.0390  222.7350 C   0  0  0  0  0  0  0  0  0  0  0  0
  139.2210   78.8500  222.8900 C   0  0  0  0  0  0  0  0  0  0  0  0
  139.4000   80.1750  223.2440 C   0  0  0  0  0  0  0  0  0  0  0  0
  140.6410   80.7250  223.4520 C   0  0  0  0  0  0  0  0  0  0  0  0
  141.7310   79.8830  223.2880 C   0  0  0  0  0  0  0  0  0  0  0  0
  143.3250   80.5380  223.5400 Cl  0  0  0  0  0  0  0  0  0  0  0  0
  141.5860   78.5490  222.9320 C   0  0  0  0  0  0  0  0  0  0  0  0
  140.2540   71.6550  223.4000 C   0  0  0  0  0  0  0  0  0  0  0  0
  139.6580   70.4250  223.1850 C   0  0  0  0  0  0  0  0  0  0  0  0
  139.5030   69.5200  224.2140 C   0  0  0  0  0  0  0  0  0  0  0  0
  139.9650   69.8800  225.4700 C   0  0  0  0  0  0  0  0  0  0  0  0
  139.8460   69.0280  226.5480 C   0  0  0  0  0  0  0  0  0  0  0  0
  140.3010   69.3790  227.8020 C   0  0  0  0  0  0  0  0  0  0  0  0
  140.1660   68.5110  228.8430 F   0  0  0  0  0  0  0  0  0  0  0  0
  140.8910   70.6170  227.9750 C   0  0  0  0  0  0  0  0  0  0  0  0
  141.0280   71.4980  226.9160 C   0  0  0  0  0  0  0  0  0  0  0  0
  140.5570   71.1140  225.6660 C   0  0  0  0  0  0  0  0  0  0  0  0
  140.6980   71.9890  224.6340 N   0  0  0  0  0  0  0  0  0  0  0  0
  140.8410   70.9790  220.9380 H   0  0  0  0  0  0  0  0  0  0  0  0
  140.8481   72.3512  218.9598 H   0  0  0  0  0  0  0  0  0  0  0  0
  139.9329   73.5859  220.0420 H   0  0  0  0  0  0  0  0  0  0  0  0
  142.9806   73.9326  217.1487 H   0  0  0  0  0  0  0  0  0  0  0  0
  141.3695   74.6228  216.9481 H   0  0  0  0  0  0  0  0  0  0  0  0
  142.8468   76.4372  215.9716 H   0  0  0  0  0  0  0  0  0  0  0  0
  144.4340   75.2680  217.9620 H   0  0  0  0  0  0  0  0  0  0  0  0
  142.9595   77.9688  218.0912 H   0  0  0  0  0  0  0  0  0  0  0  0
  141.3565   77.3298  217.7627 H   0  0  0  0  0  0  0  0  0  0  0  0
  143.4088   76.3864  219.8452 H   0  0  0  0  0  0  0  0  0  0  0  0
  141.6900   75.3320  221.8580 H   0  0  0  0  0  0  0  0  0  0  0  0
  140.0840   75.9957  223.2552 H   0  0  0  0  0  0  0  0  0  0  0  0
  137.9858   76.3202  222.5997 H   0  0  0  0  0  0  0  0  0  0  0  0
  138.4634   77.3584  221.1937 H   0  0  0  0  0  0  0  0  0  0  0  0
  139.3340   74.7280  221.2630 H   0  0  0  0  0  0  0  0  0  0  0  0
  138.2098   78.4461  222.7338 H   0  0  0  0  0  0  0  0  0  0  0  0
  138.5126   80.8139  223.3638 H   0  0  0  0  0  0  0  0  0  0  0  0
  140.7645   81.7809  223.7346 H   0  0  0  0  0  0  0  0  0  0  0  0
  142.4715   77.9080  222.8095 H   0  0  0  0  0  0  0  0  0  0  0  0
  139.3021   70.1648  222.1772 H   0  0  0  0  0  0  0  0  0  0  0  0
  139.0275   68.5429  224.0432 H   0  0  0  0  0  0  0  0  0  0  0  0
  139.3764   68.0437  226.4042 H   0  0  0  0  0  0  0  0  0  0  0  0
  141.2578   70.9070  228.9707 H   0  0  0  0  0  0  0  0  0  0  0  0
  141.4996   72.4812  227.0607 H   0  0  0  0  0  0  0  0  0  0  0  0
  1  2  2  0
  2  3  1  0
  3  4  1  0
  4  5  1  0
  5  6  2  0
  5  7  1  0
  7  8  1  0
  8  9  1  0
  9 10  1  0
  9 11  1  0
 11 12  1  0
 12 13  1  0
 13 14  2  0
 13 15  1  0
 15 16  1  0
 16 17  1  0
 17 18  1  0
 16 19  1  0
 19 20  2  0
 20 21  1  0
 21 22  2  0
 22 23  1  0
 23 24  1  0
 23 25  2  0
  2 26  1  0
 26 27  2  0
 27 28  1  0
 28 29  2  0
 29 30  1  0
 30 31  2  0
 31 32  1  0
 31 33  1  0
 33 34  2  0
 34 35  1  0
 35 36  2  0
 12  7  1  0
 25 19  1  0
 36 26  1  0
 35 29  1  0
  3 37  1  0
  4 38  1  0
  4 39  1  0
  8 40  1  0
  8 41  1  0
  9 42  1  6
 10 43  1  0
 11 44  1  0
 11 45  1  0
 12 46  1  1
 15 47  1  0
 16 48  1  1
 17 49  1  0
 17 50  1  0
 18 51  1  0
 20 52  1  0
 21 53  1  0
 22 54  1  0
 25 55  1  0
 27 56  1  0
 28 57  1  0
 30 58  1  0
 33 59  1  0
 34 60  1  0
M  END
>  <smiles>  (6) 
O=C(NCC(=O)N1C[C@H](O)C[C@H]1C(=O)N[C@H](CO)c1cccc(Cl)c1)c1ccc2cc(F)ccc2n1

>  <score_type>  (6) 
oracle

>  <origin>  (6) 
autodockgpu

>  <m_score__min__energy>  (6) 
-9.3200000000000003

>  <m_primary>  (6) 
energy

>  <meeko>  (6) 
{"free_energy": -8.58, "intermolecular_energy": -11.57, "internal_energy": -4.21, "cluster_size": 4, "cluster_id": 1, "rank_in_cluster": 4}

>  <energy>  (6) 
-8.95

>  <cluster_rmsd>  (6) 
0.82

>  <rmsd>  (6) 
270.49

>  <cluster>  (6) 
2

$$$$

     RDKit          3D

 60 63  0  0  0  0  0  0  0  0999 V2000
  141.0510   72.2130  221.3480 O   0  0  0  0  0  0  0  0  0  0  0  0
  140.3060   72.4720  222.3350 C   0  0  0  0  0  0  0  0  0  0  0  0
  139.5550   73.7000  222.2700 N   0  0  0  0  0  0  0  0  0  0  0  0
  139.7330   74.4930  221.1000 C   0  0  0  0  0  0  0  0  0  0  0  0
  140.9730   75.2230  220.8980 C   0  0  0  0  0  0  0  0  0  0  0  0
  141.4240   75.7960  221.9820 O   0  0  0  0  0  0  0  0  0  0  0  0
  141.7410   75.3990  219.7180 N   0  0  0  0  0  0  0  0  0  0  0  0
  141.7720   74.6460  218.4850 C   0  0  0  0  0  0  0  0  0  0  0  0
  143.0160   75.1540  217.7390 C   0  0  2  0  0  0  0  0  0  0  0  0
  144.0980   74.4890  218.3050 O   0  0  0  0  0  0  0  0  0  0  0  0
  143.0100   76.5890  218.1610 C   0  0  0  0  0  0  0  0  0  0  0  0
  142.6890   76.5340  219.6240 C   0  0  1  0  0  0  0  0  0  0  0  0
  142.0290   77.8140  220.0360 C   0  0  0  0  0  0  0  0  0  0  0  0
  141.4510   78.5060  219.1310 O   0  0  0  0  0  0  0  0  0  0  0  0
  142.0240   78.2780  221.3780 N   0  0  0  0  0  0  0  0  0  0  0  0
  141.3760   79.5290  221.7260 C   0  0  2  0  0  0  0  0  0  0  0  0
  142.1510   80.3660  222.6930 C   0  0  0  0  0  0  0  0  0  0  0  0
  143.3080   79.7220  223.1100 O   0  0  0  0  0  0  0  0  0  0  0  0
  139.9950   79.2730  222.2140 C   0  0  0  0  0  0  0  0  0  0  0  0
  139.2900   80.3730  222.6740 C   0  0  0  0  0  0  0  0  0  0  0  0
  138.0000   80.1970  223.1410 C   0  0  0  0  0  0  0  0  0  0  0  0
  137.3830   78.9700  223.1700 C   0  0  0  0  0  0  0  0  0  0  0  0
  138.1200   77.8910  222.7020 C   0  0  0  0  0  0  0  0  0  0  0  0
  137.3780   76.3170  222.7200 Cl  0  0  0  0  0  0  0  0  0  0  0  0
  139.4160   78.0350  222.2270 C   0  0  0  0  0  0  0  0  0  0  0  0
  140.1830   71.6050  223.4930 C   0  0  0  0  0  0  0  0  0  0  0  0
  139.5240   70.4030  223.3090 C   0  0  0  0  0  0  0  0  0  0  0  0
  139.3590   69.5150  224.3520 C   0  0  0  0  0  0  0  0  0  0  0  0
  139.8760   69.8650  225.5900 C   0  0  0  0  0  0  0  0  0  0  0  0
  139.7490   69.0290  226.6790 C   0  0  0  0  0  0  0  0  0  0  0  0
  140.2590   69.3690  227.9150 C   0  0  0  0  0  0  0  0  0  0  0  0
  140.1160   68.5180  228.9690 F   0  0  0  0  0  0  0  0  0  0  0  0
  140.9110   70.5800  228.0580 C   0  0  0  0  0  0  0  0  0  0  0  0
  141.0560   71.4440  226.9860 C   0  0  0  0  0  0  0  0  0  0  0  0
  140.5300   71.0710  225.7550 C   0  0  0  0  0  0  0  0  0  0  0  0
  140.6800   71.9300  224.7100 N   0  0  0  0  0  0  0  0  0  0  0  0
  138.9680   73.8910  223.0950 H   0  0  0  0  0  0  0  0  0  0  0  0
  139.6179   73.8184  220.2388 H   0  0  0  0  0  0  0  0  0  0  0  0
  138.9865   75.2919  221.2204 H   0  0  0  0  0  0  0  0  0  0  0  0
  141.8583   73.5691  218.6919 H   0  0  0  0  0  0  0  0  0  0  0  0
  140.8532   74.7811  217.8955 H   0  0  0  0  0  0  0  0  0  0  0  0
  143.0487   75.0142  216.6484 H   0  0  0  0  0  0  0  0  0  0  0  0
  144.9150   74.8900  217.8880 H   0  0  0  0  0  0  0  0  0  0  0  0
  143.9945   77.0502  217.9935 H   0  0  0  0  0  0  0  0  0  0  0  0
  142.2901   77.1953  217.5916 H   0  0  0  0  0  0  0  0  0  0  0  0
  143.5689   76.4067  220.2717 H   0  0  0  0  0  0  0  0  0  0  0  0
  142.4620   77.7510  222.1630 H   0  0  0  0  0  0  0  0  0  0  0  0
  141.3308   80.1251  220.8026 H   0  0  0  0  0  0  0  0  0  0  0  0
  142.4250   81.3135  222.2060 H   0  0  0  0  0  0  0  0  0  0  0  0
  141.5199   80.5475  223.5754 H   0  0  0  0  0  0  0  0  0  0  0  0
  143.7310   79.3730  222.2780 H   0  0  0  0  0  0  0  0  0  0  0  0
  139.7495   81.3724  222.6680 H   0  0  0  0  0  0  0  0  0  0  0  0
  137.4457   81.0751  223.5039 H   0  0  0  0  0  0  0  0  0  0  0  0
  136.3562   78.8487  223.5454 H   0  0  0  0  0  0  0  0  0  0  0  0
  139.9733   77.1590  221.8636 H   0  0  0  0  0  0  0  0  0  0  0  0
  139.1251   70.1510  222.3153 H   0  0  0  0  0  0  0  0  0  0  0  0
  138.8339   68.5595  224.2060 H   0  0  0  0  0  0  0  0  0  0  0  0
  139.2283   68.0674  226.5594 H   0  0  0  0  0  0  0  0  0  0  0  0
  141.3210   70.8614  229.0392 H   0  0  0  0  0  0  0  0  0  0  0  0
  141.5766   72.4055  227.1061 H   0  0  0  0  0  0  0  0  0  0  0  0
  1  2  2  0
  2  3  1  0
  3  4  1  0
  4  5  1  0
  5  6  2  0
  5  7  1  0
  7  8  1  0
  8  9  1  0
  9 10  1  0
  9 11  1  0
 11 12  1  0
 12 13  1  0
 13 14  2  0
 13 15  1  0
 15 16  1  0
 16 17  1  0
 17 18  1  0
 16 19  1  0
 19 20  2  0
 20 21  1  0
 21 22  2  0
 22 23  1  0
 23 24  1  0
 23 25  2  0
  2 26  1  0
 26 27  2  0
 27 28  1  0
 28 29  2  0
 29 30  1  0
 30 31  2  0
 31 32  1  0
 31 33  1  0
 33 34  2  0
 34 35  1  0
 35 36  2  0
 12  7  1  0
 25 19  1  0
 36 26  1  0
 35 29  1  0
  3 37  1  0
  4 38  1  0
  4 39  1  0
  8 40  1  0
  8 41  1  0
  9 42  1  6
 10 43  1  0
 11 44  1  0
 11 45  1  0
 12 46  1  1
 15 47  1  0
 16 48  1  6
 17 49  1  0
 17 50  1  0
 18 51  1  0
 20 52  1  0
 21 53  1  0
 22 54  1  0
 25 55  1  0
 27 56  1  0
 28 57  1  0
 30 58  1  0
 33 59  1  0
 34 60  1  0
M  END
>  <smiles>  (7) 
O=C(NCC(=O)N1C[C@H](O)C[C@H]1C(=O)N[C@H](CO)c1cccc(Cl)c1)c1ccc2cc(F)ccc2n1

>  <score_type>  (7) 
oracle

>  <origin>  (7) 
autodockgpu

>  <m_score__min__energy>  (7) 
-9.3200000000000003

>  <m_primary>  (7) 
energy

>  <meeko>  (7) 
{"free_energy": -9.32, "intermolecular_energy": -12.3, "internal_energy": -3.35, "cluster_size": 4, "cluster_id": 1, "rank_in_cluster": 1}

>  <energy>  (7) 
-8.94

>  <cluster_rmsd>  (7) 
0.82

>  <rmsd>  (7) 
270.46

>  <cluster>  (7) 
2

$$$$

     RDKit          3D

 60 63  0  0  0  0  0  0  0  0999 V2000
  137.2960   69.8580  222.2310 O   0  0  0  0  0  0  0  0  0  0  0  0
  137.9820   70.6560  222.9310 C   0  0  0  0  0  0  0  0  0  0  0  0
  138.0060   72.0320  222.5030 N   0  0  0  0  0  0  0  0  0  0  0  0
  137.2530   72.3450  221.3340 C   0  0  0  0  0  0  0  0  0  0  0  0
  136.5550   73.6160  221.2380 C   0  0  0  0  0  0  0  0  0  0  0  0
  136.5810   74.1370  220.0400 O   0  0  0  0  0  0  0  0  0  0  0  0
  135.8680   74.3520  222.2380 N   0  0  0  0  0  0  0  0  0  0  0  0
  134.9440   73.9240  223.2640 C   0  0  0  0  0  0  0  0  0  0  0  0
  134.3290   75.2210  223.8120 C   0  0  2  0  0  0  0  0  0  0  0  0
  133.3350   75.5830  222.9090 O   0  0  0  0  0  0  0  0  0  0  0  0
  135.5020   76.1420  223.6910 C   0  0  0  0  0  0  0  0  0  0  0  0
  136.0810   75.8130  222.3480 C   0  0  1  0  0  0  0  0  0  0  0  0
  137.5430   76.1400  222.3450 C   0  0  0  0  0  0  0  0  0  0  0  0
  138.0860   76.4580  223.4570 O   0  0  0  0  0  0  0  0  0  0  0  0
  138.3350   76.1070  221.1660 N   0  0  0  0  0  0  0  0  0  0  0  0
  139.7470   76.4380  221.2150 C   0  0  2  0  0  0  0  0  0  0  0  0
  140.5770   75.4480  221.9680 C   0  0  0  0  0  0  0  0  0  0  0  0
  139.8320   74.3360  222.3370 O   0  0  0  0  0  0  0  0  0  0  0  0
  139.9340   77.8160  221.7420 C   0  0  0  0  0  0  0  0  0  0  0  0
  138.9110   78.7160  221.4910 C   0  0  0  0  0  0  0  0  0  0  0  0
  139.0290   80.0130  221.9560 C   0  0  0  0  0  0  0  0  0  0  0  0
  140.1220   80.4510  222.6620 C   0  0  0  0  0  0  0  0  0  0  0  0
  141.1260   79.5220  222.8950 C   0  0  0  0  0  0  0  0  0  0  0  0
  142.5320   80.0330  223.7850 Cl  0  0  0  0  0  0  0  0  0  0  0  0
  141.0390   78.2130  222.4410 C   0  0  0  0  0  0  0  0  0  0  0  0
  138.7210   70.2510  224.1130 C   0  0  0  0  0  0  0  0  0  0  0  0
  138.7990   68.8930  224.3690 C   0  0  0  0  0  0  0  0  0  0  0  0
  139.4810   68.4150  225.4680 C   0  0  0  0  0  0  0  0  0  0  0  0
  140.0860   69.3370  226.3090 C   0  0  0  0  0  0  0  0  0  0  0  0
  140.7850   68.9330  227.4270 C   0  0  0  0  0  0  0  0  0  0  0  0
  141.3890   69.8430  228.2700 C   0  0  0  0  0  0  0  0  0  0  0  0
  142.0710   69.4080  229.3660 F   0  0  0  0  0  0  0  0  0  0  0  0
  141.2880   71.1910  227.9790 C   0  0  0  0  0  0  0  0  0  0  0  0
  140.5950   71.6320  226.8650 C   0  0  0  0  0  0  0  0  0  0  0  0
  139.9970   70.6890  226.0370 C   0  0  0  0  0  0  0  0  0  0  0  0
  139.3180   71.1350  224.9450 N   0  0  0  0  0  0  0  0  0  0  0  0
  138.5840   72.6560  223.0850 H   0  0  0  0  0  0  0  0  0  0  0  0
  137.9514   72.3014  220.4853 H   0  0  0  0  0  0  0  0  0  0  0  0
  136.4360   71.6088  221.3549 H   0  0  0  0  0  0  0  0  0  0  0  0
  134.1640   73.2770  222.8363 H   0  0  0  0  0  0  0  0  0  0  0  0
  135.4425   73.3387  224.0507 H   0  0  0  0  0  0  0  0  0  0  0  0
  133.8929   75.1916  224.8214 H   0  0  0  0  0  0  0  0  0  0  0  0
  133.7680   76.2130  222.2630 H   0  0  0  0  0  0  0  0  0  0  0  0
  135.1802   77.1931  223.7317 H   0  0  0  0  0  0  0  0  0  0  0  0
  136.2271   76.0154  224.5084 H   0  0  0  0  0  0  0  0  0  0  0  0
  135.6280   76.3709  221.5152 H   0  0  0  0  0  0  0  0  0  0  0  0
  137.9550   75.8370  220.2340 H   0  0  0  0  0  0  0  0  0  0  0  0
  140.1143   76.3922  220.1791 H   0  0  0  0  0  0  0  0  0  0  0  0
  141.4122   75.1231  221.3302 H   0  0  0  0  0  0  0  0  0  0  0  0
  140.9486   75.9336  222.8824 H   0  0  0  0  0  0  0  0  0  0  0  0
  139.2140   74.6570  223.0510 H   0  0  0  0  0  0  0  0  0  0  0  0
  138.0179   78.4034  220.9300 H   0  0  0  0  0  0  0  0  0  0  0  0
  138.2138   80.7228  221.7519 H   0  0  0  0  0  0  0  0  0  0  0  0
  140.1980   81.4867  223.0248 H   0  0  0  0  0  0  0  0  0  0  0  0
  141.8530   77.5011  222.6423 H   0  0  0  0  0  0  0  0  0  0  0  0
  138.3093   68.1841  223.6851 H   0  0  0  0  0  0  0  0  0  0  0  0
  139.5433   67.3358  225.6714 H   0  0  0  0  0  0  0  0  0  0  0  0
  140.8629   67.8591  227.6522 H   0  0  0  0  0  0  0  0  0  0  0  0
  141.7664   71.9251  228.6440 H   0  0  0  0  0  0  0  0  0  0  0  0
  140.5191   72.7060  226.6396 H   0  0  0  0  0  0  0  0  0  0  0  0
  1  2  2  0
  2  3  1  0
  3  4  1  0
  4  5  1  0
  5  6  2  0
  5  7  1  0
  7  8  1  0
  8  9  1  0
  9 10  1  0
  9 11  1  0
 11 12  1  0
 12 13  1  0
 13 14  2  0
 13 15  1  0
 15 16  1  0
 16 17  1  0
 17 18  1  0
 16 19  1  0
 19 20  2  0
 20 21  1  0
 21 22  2  0
 22 23  1  0
 23 24  1  0
 23 25  2  0
  2 26  1  0
 26 27  2  0
 27 28  1  0
 28 29  2  0
 29 30  1  0
 30 31  2  0
 31 32  1  0
 31 33  1  0
 33 34  2  0
 34 35  1  0
 35 36  2  0
 12  7  1  0
 25 19  1  0
 36 26  1  0
 35 29  1  0
  3 37  1  0
  4 38  1  0
  4 39  1  0
  8 40  1  0
  8 41  1  0
  9 42  1  1
 10 43  1  0
 11 44  1  0
 11 45  1  0
 12 46  1  6
 15 47  1  0
 16 48  1  6
 17 49  1  0
 17 50  1  0
 18 51  1  0
 20 52  1  0
 21 53  1  0
 22 54  1  0
 25 55  1  0
 27 56  1  0
 28 57  1  0
 30 58  1  0
 33 59  1  0
 34 60  1  0
M  END
>  <smiles>  (8) 
O=C(NCC(=O)N1C[C@H](O)C[C@H]1C(=O)N[C@H](CO)c1cccc(Cl)c1)c1ccc2cc(F)ccc2n1

>  <score_type>  (8) 
oracle

>  <origin>  (8) 
autodockgpu

>  <m_score__min__energy>  (8) 
-9.3200000000000003

>  <m_primary>  (8) 
energy

>  <meeko>  (8) 
{"free_energy": -7.57, "intermolecular_energy": -10.55, "internal_energy": -4.19, "cluster_size": 12, "cluster_id": 2, "rank_in_cluster": 12}

>  <energy>  (8) 
-8.93

>  <cluster_rmsd>  (8) 
0.82

>  <rmsd>  (8) 
270.44

>  <cluster>  (8) 
2

$$$$

     RDKit          3D

 60 63  0  0  0  0  0  0  0  0999 V2000
  138.9350   72.4670  222.7120 O   0  0  0  0  0  0  0  0  0  0  0  0
  138.4080   71.3760  223.0680 C   0  0  0  0  0  0  0  0  0  0  0  0
  137.2550   70.9430  222.3210 N   0  0  0  0  0  0  0  0  0  0  0  0
  136.8310   71.7920  221.2590 C   0  0  0  0  0  0  0  0  0  0  0  0
  136.0910   73.0080  221.5510 C   0  0  0  0  0  0  0  0  0  0  0  0
  135.6100   73.5950  220.4870 O   0  0  0  0  0  0  0  0  0  0  0  0
  135.8250   73.6320  222.7980 N   0  0  0  0  0  0  0  0  0  0  0  0
  135.6460   73.0730  224.1190 C   0  0  0  0  0  0  0  0  0  0  0  0
  135.0900   74.2280  224.9660 C   0  0  2  0  0  0  0  0  0  0  0  0
  133.7300   74.2900  224.6840 O   0  0  0  0  0  0  0  0  0  0  0  0
  135.8050   75.3840  224.3400 C   0  0  0  0  0  0  0  0  0  0  0  0
  135.7180   75.1070  222.8700 C   0  0  1  0  0  0  0  0  0  0  0  0
  136.8710   75.7600  222.1730 C   0  0  0  0  0  0  0  0  0  0  0  0
  136.6200   76.7420  221.3950 O   0  0  0  0  0  0  0  0  0  0  0  0
  138.2150   75.3330  222.3440 N   0  0  0  0  0  0  0  0  0  0  0  0
  139.2980   75.9950  221.6410 C   0  0  2  0  0  0  0  0  0  0  0  0
  140.4630   75.1070  221.3460 C   0  0  0  0  0  0  0  0  0  0  0  0
  140.6320   74.1450  222.3320 O   0  0  0  0  0  0  0  0  0  0  0  0
  139.7180   77.2160  222.3790 C   0  0  0  0  0  0  0  0  0  0  0  0
  141.0670   77.3250  222.6730 C   0  0  0  0  0  0  0  0  0  0  0  0
  141.5170   78.4390  223.3580 C   0  0  0  0  0  0  0  0  0  0  0  0
  140.6790   79.4490  223.7640 C   0  0  0  0  0  0  0  0  0  0  0  0
  139.3350   79.3050  223.4520 C   0  0  0  0  0  0  0  0  0  0  0  0
  138.2360   80.5610  223.9460 Cl  0  0  0  0  0  0  0  0  0  0  0  0
  138.8510   78.2000  222.7660 C   0  0  0  0  0  0  0  0  0  0  0  0
  138.9070   70.5690  224.1680 C   0  0  0  0  0  0  0  0  0  0  0  0
  138.7030   69.2030  224.0860 C   0  0  0  0  0  0  0  0  0  0  0  0
  139.1420   68.3570  225.0830 C   0  0  0  0  0  0  0  0  0  0  0  0
  139.7960   68.9180  226.1690 C   0  0  0  0  0  0  0  0  0  0  0  0
  140.2630   68.1360  227.2040 C   0  0  0  0  0  0  0  0  0  0  0  0
  140.9140   68.6860  228.2890 C   0  0  0  0  0  0  0  0  0  0  0  0
  141.3630   67.8820  229.2940 F   0  0  0  0  0  0  0  0  0  0  0  0
  141.0980   70.0550  228.3330 C   0  0  0  0  0  0  0  0  0  0  0  0
  140.6420   70.8710  227.3120 C   0  0  0  0  0  0  0  0  0  0  0  0
  139.9900   70.2850  226.2330 C   0  0  0  0  0  0  0  0  0  0  0  0
  139.5470   71.0980  225.2360 N   0  0  0  0  0  0  0  0  0  0  0  0
  136.8390   70.0570  222.6440 H   0  0  0  0  0  0  0  0  0  0  0  0
  137.7371   72.0951  220.7139 H   0  0  0  0  0  0  0  0  0  0  0  0
  136.0983   71.1742  220.7191 H   0  0  0  0  0  0  0  0  0  0  0  0
  134.9333   72.2356  224.0914 H   0  0  0  0  0  0  0  0  0  0  0  0
  136.5849   72.6733  224.5298 H   0  0  0  0  0  0  0  0  0  0  0  0
  135.2189   74.1672  226.0567 H   0  0  0  0  0  0  0  0  0  0  0  0
  133.5970   73.7450  223.8550 H   0  0  0  0  0  0  0  0  0  0  0  0
  135.3083   76.3332  224.5896 H   0  0  0  0  0  0  0  0  0  0  0  0
  136.8422   75.4832  224.6927 H   0  0  0  0  0  0  0  0  0  0  0  0
  134.8021   75.4886  222.3951 H   0  0  0  0  0  0  0  0  0  0  0  0
  138.4860   74.5510  222.9780 H   0  0  0  0  0  0  0  0  0  0  0  0
  138.9012   76.2835  220.6565 H   0  0  0  0  0  0  0  0  0  0  0  0
  140.2945   74.6049  220.3819 H   0  0  0  0  0  0  0  0  0  0  0  0
  141.3701   75.7282  221.3109 H   0  0  0  0  0  0  0  0  0  0  0  0
  139.7120   73.9350  222.6570 H   0  0  0  0  0  0  0  0  0  0  0  0
  141.7704   76.5369  222.3661 H   0  0  0  0  0  0  0  0  0  0  0  0
  142.5899   78.5196  223.5871 H   0  0  0  0  0  0  0  0  0  0  0  0
  141.0547   80.3275  224.3090 H   0  0  0  0  0  0  0  0  0  0  0  0
  137.7787   78.1164  222.5355 H   0  0  0  0  0  0  0  0  0  0  0  0
  138.1824   68.7850  223.2118 H   0  0  0  0  0  0  0  0  0  0  0  0
  138.9783   67.2712  225.0184 H   0  0  0  0  0  0  0  0  0  0  0  0
  140.1129   67.0470  227.1637 H   0  0  0  0  0  0  0  0  0  0  0  0
  141.6155   70.5037  229.1937 H   0  0  0  0  0  0  0  0  0  0  0  0
  140.7923   71.9599  227.3535 H   0  0  0  0  0  0  0  0  0  0  0  0
  1  2  2  0
  2  3  1  0
  3  4  1  0
  4  5  1  0
  5  6  2  0
  5  7  1  0
  7  8  1  0
  8  9  1  0
  9 10  1  0
  9 11  1  0
 11 12  1  0
 12 13  1  0
 13 14  2  0
 13 15  1  0
 15 16  1  0
 16 17  1  0
 17 18  1  0
 16 19  1  0
 19 20  2  0
 20 21  1  0
 21 22  2  0
 22 23  1  0
 23 24  1  0
 23 25  2  0
  2 26  1  0
 26 27  2  0
 27 28  1  0
 28 29  2  0
 29 30  1  0
 30 31  2  0
 31 32  1  0
 31 33  1  0
 33 34  2  0
 34 35  1  0
 35 36  2  0
 12  7  1  0
 25 19  1  0
 36 26  1  0
 35 29  1  0
  3 37  1  0
  4 38  1  0
  4 39  1  0
  8 40  1  0
  8 41  1  0
  9 42  1  1
 10 43  1  0
 11 44  1  0
 11 45  1  0
 12 46  1  6
 15 47  1  0
 16 48  1  6
 17 49  1  0
 17 50  1  0
 18 51  1  0
 20 52  1  0
 21 53  1  0
 22 54  1  0
 25 55  1  0
 27 56  1  0
 28 57  1  0
 30 58  1  0
 33 59  1  0
 34 60  1  0
M  END
>  <smiles>  (9) 
O=C(NCC(=O)N1C[C@H](O)C[C@H]1C(=O)N[C@H](CO)c1cccc(Cl)c1)c1ccc2cc(F)ccc2n1

>  <score_type>  (9) 
oracle

>  <origin>  (9) 
autodockgpu

>  <m_score__min__energy>  (9) 
-9.3200000000000003

>  <m_primary>  (9) 
energy

>  <meeko>  (9) 
{"free_energy": -8.41, "intermolecular_energy": -11.39, "internal_energy": -4.12, "cluster_size": 12, "cluster_id": 2, "rank_in_cluster": 8}

>  <energy>  (9) 
-8.76

>  <cluster_rmsd>  (9) 
0.85

>  <rmsd>  (9) 
270.44

>  <cluster>  (9) 
2

$$$$

     RDKit          3D

 60 63  0  0  0  0  0  0  0  0999 V2000
  136.8980   70.2150  222.2500 O   0  0  0  0  0  0  0  0  0  0  0  0
  137.7290   70.8350  222.9710 C   0  0  0  0  0  0  0  0  0  0  0  0
  137.9490   72.2230  222.6530 N   0  0  0  0  0  0  0  0  0  0  0  0
  137.2040   72.7490  221.5580 C   0  0  0  0  0  0  0  0  0  0  0  0
  135.9500   73.4420  221.7980 C   0  0  0  0  0  0  0  0  0  0  0  0
  135.0750   73.2840  220.8410 O   0  0  0  0  0  0  0  0  0  0  0  0
  135.5530   74.2470  222.8970 N   0  0  0  0  0  0  0  0  0  0  0  0
  135.1720   73.8900  224.2450 C   0  0  0  0  0  0  0  0  0  0  0  0
  134.5680   75.1720  224.8400 C   0  0  2  0  0  0  0  0  0  0  0  0
  133.2620   75.2340  224.3660 O   0  0  0  0  0  0  0  0  0  0  0  0
  135.4160   76.2030  224.1640 C   0  0  0  0  0  0  0  0  0  0  0  0
  135.5110   75.7200  222.7490 C   0  0  1  0  0  0  0  0  0  0  0  0
  136.7780   76.2300  222.1340 C   0  0  0  0  0  0  0  0  0  0  0  0
  136.6920   77.2100  221.3190 O   0  0  0  0  0  0  0  0  0  0  0  0
  138.0510   75.6710  222.4220 N   0  0  0  0  0  0  0  0  0  0  0  0
  139.2490   76.1980  221.7960 C   0  0  2  0  0  0  0  0  0  0  0  0
  140.3520   75.1980  221.6570 C   0  0  0  0  0  0  0  0  0  0  0  0
  140.0570   74.0200  222.3290 O   0  0  0  0  0  0  0  0  0  0  0  0
  139.7090   77.4180  222.5120 C   0  0  0  0  0  0  0  0  0  0  0  0
  141.0740   77.5340  222.7190 C   0  0  0  0  0  0  0  0  0  0  0  0
  141.5600   78.6470  223.3800 C   0  0  0  0  0  0  0  0  0  0  0  0
  140.7450   79.6490  223.8440 C   0  0  0  0  0  0  0  0  0  0  0  0
  139.3840   79.4990  223.6180 C   0  0  0  0  0  0  0  0  0  0  0  0
  138.3110   80.7460  224.1890 Cl  0  0  0  0  0  0  0  0  0  0  0  0
  138.8630   78.3950  222.9590 C   0  0  0  0  0  0  0  0  0  0  0  0
  138.4480   70.2190  224.0730 C   0  0  0  0  0  0  0  0  0  0  0  0
  138.4450   68.8370  224.1280 C   0  0  0  0  0  0  0  0  0  0  0  0
  139.1010   68.1650  225.1380 C   0  0  0  0  0  0  0  0  0  0  0  0
  139.7640   68.9180  226.0950 C   0  0  0  0  0  0  0  0  0  0  0  0
  140.4410   68.3150  227.1350 C   0  0  0  0  0  0  0  0  0  0  0  0
  141.1020   69.0560  228.0930 C   0  0  0  0  0  0  0  0  0  0  0  0
  141.7610   68.4270  229.1060 F   0  0  0  0  0  0  0  0  0  0  0  0
  141.0810   70.4360  228.0010 C   0  0  0  0  0  0  0  0  0  0  0  0
  140.4110   71.0730  226.9720 C   0  0  0  0  0  0  0  0  0  0  0  0
  139.7540   70.2980  226.0240 C   0  0  0  0  0  0  0  0  0  0  0  0
  139.1000   70.9370  225.0160 N   0  0  0  0  0  0  0  0  0  0  0  0
  138.6430   72.6980  223.2490 H   0  0  0  0  0  0  0  0  0  0  0  0
  137.8638   73.4581  221.0366 H   0  0  0  0  0  0  0  0  0  0  0  0
  136.8936   71.8484  221.0079 H   0  0  0  0  0  0  0  0  0  0  0  0
  134.4274   73.0803  224.2348 H   0  0  0  0  0  0  0  0  0  0  0  0
  136.0267   73.5243  224.8330 H   0  0  0  0  0  0  0  0  0  0  0  0
  134.5488   75.2653  225.9359 H   0  0  0  0  0  0  0  0  0  0  0  0
  133.2530   74.7050  223.5160 H   0  0  0  0  0  0  0  0  0  0  0  0
  134.9384   77.1929  224.2084 H   0  0  0  0  0  0  0  0  0  0  0  0
  136.4011   76.3201  224.6393 H   0  0  0  0  0  0  0  0  0  0  0  0
  134.6862   76.0575  222.1042 H   0  0  0  0  0  0  0  0  0  0  0  0
  138.1880   74.8850  223.0920 H   0  0  0  0  0  0  0  0  0  0  0  0
  138.9710   76.4643  220.7655 H   0  0  0  0  0  0  0  0  0  0  0  0
  140.4992   74.9739  220.5902 H   0  0  0  0  0  0  0  0  0  0  0  0
  141.2648   75.6270  222.0961 H   0  0  0  0  0  0  0  0  0  0  0  0
  139.5360   74.2970  223.1320 H   0  0  0  0  0  0  0  0  0  0  0  0
  141.7610   76.7522  222.3628 H   0  0  0  0  0  0  0  0  0  0  0  0
  142.6448   78.7329  223.5406 H   0  0  0  0  0  0  0  0  0  0  0  0
  141.1502   80.5268  224.3686 H   0  0  0  0  0  0  0  0  0  0  0  0
  137.7786   78.3062  222.7974 H   0  0  0  0  0  0  0  0  0  0  0  0
  137.9114   68.2652  223.3545 H   0  0  0  0  0  0  0  0  0  0  0  0
  139.0983   67.0659  225.1829 H   0  0  0  0  0  0  0  0  0  0  0  0
  140.4541   67.2171  227.2020 H   0  0  0  0  0  0  0  0  0  0  0  0
  141.6057   71.0367  228.7585 H   0  0  0  0  0  0  0  0  0  0  0  0
  140.3985   72.1709  226.9055 H   0  0  0  0  0  0  0  0  0  0  0  0
  1  2  2  0
  2  3  1  0
  3  4  1  0
  4  5  1  0
  5  6  2  0
  5  7  1  0
  7  8  1  0
  8  9  1  0
  9 10  1  0
  9 11  1  0
 11 12  1  0
 12 13  1  0
 13 14  2  0
 13 15  1  0
 15 16  1  0
 16 17  1  0
 17 18  1  0
 16 19  1  0
 19 20  2  0
 20 21  1  0
 21 22  2  0
 22 23  1  0
 23 24  1  0
 23 25  2  0
  2 26  1  0
 26 27  2  0
 27 28  1  0
 28 29  2  0
 29 30  1  0
 30 31  2  0
 31 32  1  0
 31 33  1  0
 33 34  2  0
 34 35  1  0
 35 36  2  0
 12  7  1  0
 25 19  1  0
 36 26  1  0
 35 29  1  0
  3 37  1  0
  4 38  1  0
  4 39  1  0
  8 40  1  0
  8 41  1  0
  9 42  1  1
 10 43  1  0
 11 44  1  0
 11 45  1  0
 12 46  1  6
 15 47  1  0
 16 48  1  6
 17 49  1  0
 17 50  1  0
 18 51  1  0
 20 52  1  0
 21 53  1  0
 22 54  1  0
 25 55  1  0
 27 56  1  0
 28 57  1  0
 30 58  1  0
 33 59  1  0
 34 60  1  0
M  END
>  <smiles>  (10) 
O=C(NCC(=O)N1C[C@H](O)C[C@H]1C(=O)N[C@H](CO)c1cccc(Cl)c1)c1ccc2cc(F)ccc2n1

>  <score_type>  (10) 
oracle

>  <origin>  (10) 
autodockgpu

>  <m_score__min__energy>  (10) 
-9.3200000000000003

>  <m_primary>  (10) 
energy

>  <meeko>  (10) 
{"free_energy": -8.94, "intermolecular_energy": -11.92, "internal_energy": -3.66, "cluster_size": 12, "cluster_id": 2, "rank_in_cluster": 3}

>  <energy>  (10) 
-8.42

>  <cluster_rmsd>  (10) 
1.22

>  <rmsd>  (10) 
270.44

>  <cluster>  (10) 
2

$$$$

     RDKit          3D

 60 63  0  0  0  0  0  0  0  0999 V2000
  139.4260   70.5740  220.7140 O   0  0  0  0  0  0  0  0  0  0  0  0
  139.3800   71.2520  221.7790 C   0  0  0  0  0  0  0  0  0  0  0  0
  139.2370   72.6780  221.6300 N   0  0  0  0  0  0  0  0  0  0  0  0
  139.1640   73.1720  220.2950 C   0  0  0  0  0  0  0  0  0  0  0  0
  140.3230   73.0830  219.4220 C   0  0  0  0  0  0  0  0  0  0  0  0
  140.4490   71.9190  218.8400 O   0  0  0  0  0  0  0  0  0  0  0  0
  141.3110   74.0560  219.1220 N   0  0  0  0  0  0  0  0  0  0  0  0
  141.6940   74.6630  217.8680 C   0  0  0  0  0  0  0  0  0  0  0  0
  143.0120   75.3950  218.1670 C   0  0  2  0  0  0  0  0  0  0  0  0
  144.0050   74.4230  218.1300 O   0  0  0  0  0  0  0  0  0  0  0  0
  142.7610   75.8280  219.5760 C   0  0  0  0  0  0  0  0  0  0  0  0
  142.1300   74.6280  220.2150 C   0  0  1  0  0  0  0  0  0  0  0  0
  141.2650   75.0690  221.3550 C   0  0  0  0  0  0  0  0  0  0  0  0
  141.0410   74.2310  222.2940 O   0  0  0  0  0  0  0  0  0  0  0  0
  140.6930   76.3670  221.4290 N   0  0  0  0  0  0  0  0  0  0  0  0
  139.8560   76.7440  222.5520 C   0  0  2  0  0  0  0  0  0  0  0  0
  138.4050   76.4410  222.3570 C   0  0  0  0  0  0  0  0  0  0  0  0
  138.1650   75.0740  222.3610 O   0  0  0  0  0  0  0  0  0  0  0  0
  140.0700   78.1750  222.8940 C   0  0  0  0  0  0  0  0  0  0  0  0
  138.9390   78.9740  222.9430 C   0  0  0  0  0  0  0  0  0  0  0  0
  139.0770   80.3140  223.2550 C   0  0  0  0  0  0  0  0  0  0  0  0
  140.2930   80.8920  223.5220 C   0  0  0  0  0  0  0  0  0  0  0  0
  141.4040   80.0620  223.4640 C   0  0  0  0  0  0  0  0  0  0  0  0
  142.9670   80.7520  223.7950 Cl  0  0  0  0  0  0  0  0  0  0  0  0
  141.3000   78.7130  223.1530 C   0  0  0  0  0  0  0  0  0  0  0  0
  139.4610   70.6650  223.1050 C   0  0  0  0  0  0  0  0  0  0  0  0
  138.9320   69.3960  223.2620 C   0  0  0  0  0  0  0  0  0  0  0  0
  138.9640   68.7590  224.4840 C   0  0  0  0  0  0  0  0  0  0  0  0
  139.5450   69.4290  225.5510 C   0  0  0  0  0  0  0  0  0  0  0  0
  139.6130   68.8550  226.8030 C   0  0  0  0  0  0  0  0  0  0  0  0
  140.1870   69.5140  227.8700 C   0  0  0  0  0  0  0  0  0  0  0  0
  140.2380   68.9170  229.0930 F   0  0  0  0  0  0  0  0  0  0  0  0
  140.7050   70.7810  227.6710 C   0  0  0  0  0  0  0  0  0  0  0  0
  140.6540   71.3870  226.4280 C   0  0  0  0  0  0  0  0  0  0  0  0
  140.0670   70.6960  225.3740 C   0  0  0  0  0  0  0  0  0  0  0  0
  140.0230   71.3030  224.1570 N   0  0  0  0  0  0  0  0  0  0  0  0
  139.2160   73.2050  222.5150 H   0  0  0  0  0  0  0  0  0  0  0  0
  138.3495   72.6245  219.7981 H   0  0  0  0  0  0  0  0  0  0  0  0
  139.0347   74.2556  220.4334 H   0  0  0  0  0  0  0  0  0  0  0  0
  141.8453   73.8938  217.0963 H   0  0  0  0  0  0  0  0  0  0  0  0
  140.9202   75.3447  217.4854 H   0  0  0  0  0  0  0  0  0  0  0  0
  143.3010   76.2181  217.4970 H   0  0  0  0  0  0  0  0  0  0  0  0
  144.8410   74.8960  217.8490 H   0  0  0  0  0  0  0  0  0  0  0  0
  143.7038   76.0889  220.0791 H   0  0  0  0  0  0  0  0  0  0  0  0
  142.1264   76.7244  219.6376 H   0  0  0  0  0  0  0  0  0  0  0  0
  142.8522   73.9068  220.6252 H   0  0  0  0  0  0  0  0  0  0  0  0
  140.8530   77.1000  220.7050 H   0  0  0  0  0  0  0  0  0  0  0  0
  140.1694   76.1163  223.3992 H   0  0  0  0  0  0  0  0  0  0  0  0
  137.8302   76.9070  223.1709 H   0  0  0  0  0  0  0  0  0  0  0  0
  138.0973   76.8422  221.3801 H   0  0  0  0  0  0  0  0  0  0  0  0
  138.9650   74.6670  222.7950 H   0  0  0  0  0  0  0  0  0  0  0  0
  137.9458   78.5485  222.7367 H   0  0  0  0  0  0  0  0  0  0  0  0
  138.1751   80.9427  223.2907 H   0  0  0  0  0  0  0  0  0  0  0  0
  140.3826   81.9600  223.7697 H   0  0  0  0  0  0  0  0  0  0  0  0
  142.2001   78.0819  223.1152 H   0  0  0  0  0  0  0  0  0  0  0  0
  138.4789   68.8876  222.3981 H   0  0  0  0  0  0  0  0  0  0  0  0
  138.5421   67.7509  224.6093 H   0  0  0  0  0  0  0  0  0  0  0  0
  139.1994   67.8470  226.9544 H   0  0  0  0  0  0  0  0  0  0  0  0
  141.1652   71.3158  228.5149 H   0  0  0  0  0  0  0  0  0  0  0  0
  141.0692   72.3944  226.2770 H   0  0  0  0  0  0  0  0  0  0  0  0
  1  2  2  0
  2  3  1  0
  3  4  1  0
  4  5  1  0
  5  6  2  0
  5  7  1  0
  7  8  1  0
  8  9  1  0
  9 10  1  0
  9 11  1  0
 11 12  1  0
 12 13  1  0
 13 14  2  0
 13 15  1  0
 15 16  1  0
 16 17  1  0
 17 18  1  0
 16 19  1  0
 19 20  2  0
 20 21  1  0
 21 22  2  0
 22 23  1  0
 23 24  1  0
 23 25  2  0
  2 26  1  0
 26 27  2  0
 27 28  1  0
 28 29  2  0
 29 30  1  0
 30 31  2  0
 31 32  1  0
 31 33  1  0
 33 34  2  0
 34 35  1  0
 35 36  2  0
 12  7  1  0
 25 19  1  0
 36 26  1  0
 35 29  1  0
  3 37  1  0
  4 38  1  0
  4 39  1  0
  8 40  1  0
  8 41  1  0
  9 42  1  6
 10 43  1  0
 11 44  1  0
 11 45  1  0
 12 46  1  1
 15 47  1  0
 16 48  1  1
 17 49  1  0
 17 50  1  0
 18 51  1  0
 20 52  1  0
 21 53  1  0
 22 54  1  0
 25 55  1  0
 27 56  1  0
 28 57  1  0
 30 58  1  0
 33 59  1  0
 34 60  1  0
M  END
>  <smiles>  (11) 
O=C(NCC(=O)N1C[C@H](O)C[C@H]1C(=O)N[C@H](CO)c1cccc(Cl)c1)c1ccc2cc(F)ccc2n1

>  <score_type>  (11) 
oracle

>  <origin>  (11) 
autodockgpu

>  <m_score__min__energy>  (11) 
-9.3200000000000003

>  <m_primary>  (11) 
energy

>  <meeko>  (11) 
{"free_energy": -8.58, "intermolecular_energy": -11.57, "internal_energy": -3.67, "cluster_size": 4, "cluster_id": 1, "rank_in_cluster": 3}

>  <energy>  (11) 
-8.42

>  <cluster_rmsd>  (11) 
1.22

>  <rmsd>  (11) 
270.44

>  <cluster>  (11) 
2

$$$$

     RDKit          3D

 60 63  0  0  0  0  0  0  0  0999 V2000
  138.9380   72.4680  222.7070 O   0  0  0  0  0  0  0  0  0  0  0  0
  138.3950   71.3890  223.0760 C   0  0  0  0  0  0  0  0  0  0  0  0
  137.2290   70.9700  222.3410 N   0  0  0  0  0  0  0  0  0  0  0  0
  136.8120   71.8180  221.2750 C   0  0  0  0  0  0  0  0  0  0  0  0
  136.1000   73.0510  221.5630 C   0  0  0  0  0  0  0  0  0  0  0  0
  135.6560   73.6600  220.4950 O   0  0  0  0  0  0  0  0  0  0  0  0
  135.8280   73.6720  222.8090 N   0  0  0  0  0  0  0  0  0  0  0  0
  135.6410   73.1110  224.1280 C   0  0  0  0  0  0  0  0  0  0  0  0
  135.0810   74.2640  224.9750 C   0  0  2  0  0  0  0  0  0  0  0  0
  133.7220   74.3260  224.6850 O   0  0  0  0  0  0  0  0  0  0  0  0
  135.7980   75.4210  224.3550 C   0  0  0  0  0  0  0  0  0  0  0  0
  135.7190   75.1480  222.8840 C   0  0  1  0  0  0  0  0  0  0  0  0
  136.8760   75.8020  222.1940 C   0  0  0  0  0  0  0  0  0  0  0  0
  136.6310   76.8040  221.4390 O   0  0  0  0  0  0  0  0  0  0  0  0
  138.2160   75.3560  222.3480 N   0  0  0  0  0  0  0  0  0  0  0  0
  139.3020   76.0220  221.6520 C   0  0  2  0  0  0  0  0  0  0  0  0
  140.4680   75.1340  221.3570 C   0  0  0  0  0  0  0  0  0  0  0  0
  140.6200   74.1540  222.3280 O   0  0  0  0  0  0  0  0  0  0  0  0
  139.7210   77.2370  222.4000 C   0  0  0  0  0  0  0  0  0  0  0  0
  141.0690   77.3420  222.7010 C   0  0  0  0  0  0  0  0  0  0  0  0
  141.5180   78.4500  223.3950 C   0  0  0  0  0  0  0  0  0  0  0  0
  140.6800   79.4600  223.8020 C   0  0  0  0  0  0  0  0  0  0  0  0
  139.3370   79.3210  223.4830 C   0  0  0  0  0  0  0  0  0  0  0  0
  138.2380   80.5770  223.9780 Cl  0  0  0  0  0  0  0  0  0  0  0  0
  138.8540   78.2210  222.7880 C   0  0  0  0  0  0  0  0  0  0  0  0
  138.8870   70.5820  224.1790 C   0  0  0  0  0  0  0  0  0  0  0  0
  138.6630   69.2190  224.1070 C   0  0  0  0  0  0  0  0  0  0  0  0
  139.0950   68.3730  225.1070 C   0  0  0  0  0  0  0  0  0  0  0  0
  139.7630   68.9320  226.1860 C   0  0  0  0  0  0  0  0  0  0  0  0
  140.2240   68.1500  227.2240 C   0  0  0  0  0  0  0  0  0  0  0  0
  140.8880   68.6970  228.3020 C   0  0  0  0  0  0  0  0  0  0  0  0
  141.3310   67.8940  229.3100 F   0  0  0  0  0  0  0  0  0  0  0  0
  141.0940   70.0640  228.3360 C   0  0  0  0  0  0  0  0  0  0  0  0
  140.6440   70.8790  227.3120 C   0  0  0  0  0  0  0  0  0  0  0  0
  139.9770   70.2960  226.2400 C   0  0  0  0  0  0  0  0  0  0  0  0
  139.5410   71.1090  225.2400 N   0  0  0  0  0  0  0  0  0  0  0  0
  136.8000   70.0930  222.6730 H   0  0  0  0  0  0  0  0  0  0  0  0
  137.7187   72.0976  220.7185 H   0  0  0  0  0  0  0  0  0  0  0  0
  136.0618   71.2104  220.7476 H   0  0  0  0  0  0  0  0  0  0  0  0
  134.9279   72.2741  224.0946 H   0  0  0  0  0  0  0  0  0  0  0  0
  136.5776   72.7105  224.5432 H   0  0  0  0  0  0  0  0  0  0  0  0
  135.2047   74.2011  226.0662 H   0  0  0  0  0  0  0  0  0  0  0  0
  133.5980   73.8040  223.8410 H   0  0  0  0  0  0  0  0  0  0  0  0
  135.2995   76.3694  224.6043 H   0  0  0  0  0  0  0  0  0  0  0  0
  136.8334   75.5194  224.7130 H   0  0  0  0  0  0  0  0  0  0  0  0
  134.8054   75.5312  222.4059 H   0  0  0  0  0  0  0  0  0  0  0  0
  138.4810   74.5580  222.9620 H   0  0  0  0  0  0  0  0  0  0  0  0
  138.9090   76.3174  220.6680 H   0  0  0  0  0  0  0  0  0  0  0  0
  140.3107   74.6496  220.3820 H   0  0  0  0  0  0  0  0  0  0  0  0
  141.3779   75.7520  221.3452 H   0  0  0  0  0  0  0  0  0  0  0  0
  139.6970   73.9490  222.6440 H   0  0  0  0  0  0  0  0  0  0  0  0
  141.7724   76.5547  222.3921 H   0  0  0  0  0  0  0  0  0  0  0  0
  142.5897   78.5262  223.6310 H   0  0  0  0  0  0  0  0  0  0  0  0
  141.0552   80.3349  224.3531 H   0  0  0  0  0  0  0  0  0  0  0  0
  137.7828   78.1413  222.5512 H   0  0  0  0  0  0  0  0  0  0  0  0
  138.1318   68.8031  223.2382 H   0  0  0  0  0  0  0  0  0  0  0  0
  138.9154   67.2892  225.0504 H   0  0  0  0  0  0  0  0  0  0  0  0
  140.0581   67.0631  227.1914 H   0  0  0  0  0  0  0  0  0  0  0  0
  141.6238   70.5106  229.1903 H   0  0  0  0  0  0  0  0  0  0  0  0
  140.8105   71.9658  227.3453 H   0  0  0  0  0  0  0  0  0  0  0  0
  1  2  2  0
  2  3  1  0
  3  4  1  0
  4  5  1  0
  5  6  2  0
  5  7  1  0
  7  8  1  0
  8  9  1  0
  9 10  1  0
  9 11  1  0
 11 12  1  0
 12 13  1  0
 13 14  2  0
 13 15  1  0
 15 16  1  0
 16 17  1  0
 17 18  1  0
 16 19  1  0
 19 20  2  0
 20 21  1  0
 21 22  2  0
 22 23  1  0
 23 24  1  0
 23 25  2  0
  2 26  1  0
 26 27  2  0
 27 28  1  0
 28 29  2  0
 29 30  1  0
 30 31  2  0
 31 32  1  0
 31 33  1  0
 33 34  2  0
 34 35  1  0
 35 36  2  0
 12  7  1  0
 25 19  1  0
 36 26  1  0
 35 29  1  0
  3 37  1  0
  4 38  1  0
  4 39  1  0
  8 40  1  0
  8 41  1  0
  9 42  1  1
 10 43  1  0
 11 44  1  0
 11 45  1  0
 12 46  1  6
 15 47  1  0
 16 48  1  6
 17 49  1  0
 17 50  1  0
 18 51  1  0
 20 52  1  0
 21 53  1  0
 22 54  1  0
 25 55  1  0
 27 56  1  0
 28 57  1  0
 30 58  1  0
 33 59  1  0
 34 60  1  0
M  END
>  <smiles>  (12) 
O=C(NCC(=O)N1C[C@H](O)C[C@H]1C(=O)N[C@H](CO)c1cccc(Cl)c1)c1ccc2cc(F)ccc2n1

>  <score_type>  (12) 
oracle

>  <origin>  (12) 
autodockgpu

>  <m_score__min__energy>  (12) 
-9.3200000000000003

>  <m_primary>  (12) 
energy

>  <meeko>  (12) 
{"free_energy": -8.42, "intermolecular_energy": -11.4, "internal_energy": -4.1, "cluster_size": 12, "cluster_id": 2, "rank_in_cluster": 7}

>  <energy>  (12) 
-8.41

>  <cluster_rmsd>  (12) 
1.22

>  <rmsd>  (12) 
270.43

>  <cluster>  (12) 
2

$$$$

     RDKit          3D

 60 63  0  0  0  0  0  0  0  0999 V2000
  138.8980   72.4650  222.7190 O   0  0  0  0  0  0  0  0  0  0  0  0
  138.3740   71.3730  223.0790 C   0  0  0  0  0  0  0  0  0  0  0  0
  137.2240   70.9320  222.3310 N   0  0  0  0  0  0  0  0  0  0  0  0
  136.7990   71.7760  221.2640 C   0  0  0  0  0  0  0  0  0  0  0  0
  136.1140   73.0240  221.5540 C   0  0  0  0  0  0  0  0  0  0  0  0
  135.7050   73.6550  220.4850 O   0  0  0  0  0  0  0  0  0  0  0  0
  135.8360   73.6390  222.8020 N   0  0  0  0  0  0  0  0  0  0  0  0
  135.6510   73.0720  224.1180 C   0  0  0  0  0  0  0  0  0  0  0  0
  135.0830   74.2190  224.9690 C   0  0  2  0  0  0  0  0  0  0  0  0
  133.7240   74.2740  224.6770 O   0  0  0  0  0  0  0  0  0  0  0  0
  135.7940   75.3830  224.3540 C   0  0  0  0  0  0  0  0  0  0  0  0
  135.7190   75.1140  222.8820 C   0  0  1  0  0  0  0  0  0  0  0  0
  136.8720   75.7780  222.1960 C   0  0  0  0  0  0  0  0  0  0  0  0
  136.6210   76.7690  221.4300 O   0  0  0  0  0  0  0  0  0  0  0  0
  138.2170   75.3520  222.3650 N   0  0  0  0  0  0  0  0  0  0  0  0
  139.3000   76.0260  221.6740 C   0  0  2  0  0  0  0  0  0  0  0  0
  140.4790   75.1500  221.3940 C   0  0  0  0  0  0  0  0  0  0  0  0
  140.6020   74.1430  222.3420 O   0  0  0  0  0  0  0  0  0  0  0  0
  139.6980   77.2520  222.4150 C   0  0  0  0  0  0  0  0  0  0  0  0
  141.0440   77.3820  222.7130 C   0  0  0  0  0  0  0  0  0  0  0  0
  141.4740   78.5020  223.4020 C   0  0  0  0  0  0  0  0  0  0  0  0
  140.6180   79.4970  223.8060 C   0  0  0  0  0  0  0  0  0  0  0  0
  139.2780   79.3330  223.4900 C   0  0  0  0  0  0  0  0  0  0  0  0
  138.1560   80.5700  223.9820 Cl  0  0  0  0  0  0  0  0  0  0  0  0
  138.8140   78.2210  222.8000 C   0  0  0  0  0  0  0  0  0  0  0  0
  138.8740   70.5720  224.1820 C   0  0  0  0  0  0  0  0  0  0  0  0
  138.6620   69.2070  224.1130 C   0  0  0  0  0  0  0  0  0  0  0  0
  139.1010   68.3670  225.1140 C   0  0  0  0  0  0  0  0  0  0  0  0
  139.7640   68.9330  226.1920 C   0  0  0  0  0  0  0  0  0  0  0  0
  140.2320   68.1560  227.2310 C   0  0  0  0  0  0  0  0  0  0  0  0
  140.8910   68.7110  228.3090 C   0  0  0  0  0  0  0  0  0  0  0  0
  141.3410   67.9130  229.3180 F   0  0  0  0  0  0  0  0  0  0  0  0
  141.0840   70.0800  228.3400 C   0  0  0  0  0  0  0  0  0  0  0  0
  140.6280   70.8900  227.3150 C   0  0  0  0  0  0  0  0  0  0  0  0
  139.9660   70.2990  226.2440 C   0  0  0  0  0  0  0  0  0  0  0  0
  139.5230   71.1070  225.2430 N   0  0  0  0  0  0  0  0  0  0  0  0
  136.8110   70.0460  222.6560 H   0  0  0  0  0  0  0  0  0  0  0  0
  137.6984   72.0343  220.6858 H   0  0  0  0  0  0  0  0  0  0  0  0
  136.0281   71.1759  220.7585 H   0  0  0  0  0  0  0  0  0  0  0  0
  134.9430   72.2310  224.0806 H   0  0  0  0  0  0  0  0  0  0  0  0
  136.5895   72.6753  224.5327 H   0  0  0  0  0  0  0  0  0  0  0  0
  135.2058   74.1528  226.0601 H   0  0  0  0  0  0  0  0  0  0  0  0
  133.6060   73.7650  223.8240 H   0  0  0  0  0  0  0  0  0  0  0  0
  135.2892   76.3274  224.6055 H   0  0  0  0  0  0  0  0  0  0  0  0
  136.8282   75.4870  224.7142 H   0  0  0  0  0  0  0  0  0  0  0  0
  134.8039   75.4929  222.4035 H   0  0  0  0  0  0  0  0  0  0  0  0
  138.4870   74.5630  222.9900 H   0  0  0  0  0  0  0  0  0  0  0  0
  138.9111   76.3097  220.6849 H   0  0  0  0  0  0  0  0  0  0  0  0
  140.3567   74.6929  220.4010 H   0  0  0  0  0  0  0  0  0  0  0  0
  141.3863   75.7708  221.4306 H   0  0  0  0  0  0  0  0  0  0  0  0
  139.6700   73.9350  222.6290 H   0  0  0  0  0  0  0  0  0  0  0  0
  141.7609   76.6061  222.4064 H   0  0  0  0  0  0  0  0  0  0  0  0
  142.5445   78.5994  223.6356 H   0  0  0  0  0  0  0  0  0  0  0  0
  140.9778   80.3807  224.3534 H   0  0  0  0  0  0  0  0  0  0  0  0
  137.7441   78.1206  222.5652 H   0  0  0  0  0  0  0  0  0  0  0  0
  138.1344   68.7847  223.2451 H   0  0  0  0  0  0  0  0  0  0  0  0
  138.9306   67.2817  225.0591 H   0  0  0  0  0  0  0  0  0  0  0  0
  140.0762   67.0675  227.1996 H   0  0  0  0  0  0  0  0  0  0  0  0
  141.6090   70.5328  229.1941 H   0  0  0  0  0  0  0  0  0  0  0  0
  140.7857   71.9782  227.3465 H   0  0  0  0  0  0  0  0  0  0  0  0
  1  2  2  0
  2  3  1  0
  3  4  1  0
  4  5  1  0
  5  6  2  0
  5  7  1  0
  7  8  1  0
  8  9  1  0
  9 10  1  0
  9 11  1  0
 11 12  1  0
 12 13  1  0
 13 14  2  0
 13 15  1  0
 15 16  1  0
 16 17  1  0
 17 18  1  0
 16 19  1  0
 19 20  2  0
 20 21  1  0
 21 22  2  0
 22 23  1  0
 23 24  1  0
 23 25  2  0
  2 26  1  0
 26 27  2  0
 27 28  1  0
 28 29  2  0
 29 30  1  0
 30 31  2  0
 31 32  1  0
 31 33  1  0
 33 34  2  0
 34 35  1  0
 35 36  2  0
 12  7  1  0
 25 19  1  0
 36 26  1  0
 35 29  1  0
  3 37  1  0
  4 38  1  0
  4 39  1  0
  8 40  1  0
  8 41  1  0
  9 42  1  1
 10 43  1  0
 11 44  1  0
 11 45  1  0
 12 46  1  6
 15 47  1  0
 16 48  1  6
 17 49  1  0
 17 50  1  0
 18 51  1  0
 20 52  1  0
 21 53  1  0
 22 54  1  0
 25 55  1  0
 27 56  1  0
 28 57  1  0
 30 58  1  0
 33 59  1  0
 34 60  1  0
M  END
>  <smiles>  (13) 
O=C(NCC(=O)N1C[C@H](O)C[C@H]1C(=O)N[C@H](CO)c1cccc(Cl)c1)c1ccc2cc(F)ccc2n1

>  <score_type>  (13) 
oracle

>  <origin>  (13) 
autodockgpu

>  <m_score__min__energy>  (13) 
-9.3200000000000003

>  <m_primary>  (13) 
energy

>  <meeko>  (13) 
{"free_energy": -8.39, "intermolecular_energy": -11.38, "internal_energy": -4.13, "cluster_size": 12, "cluster_id": 2, "rank_in_cluster": 10}

>  <energy>  (13) 
-8.4

>  <cluster_rmsd>  (13) 
1.22

>  <rmsd>  (13) 
270.44

>  <cluster>  (13) 
2

$$$$

     RDKit          3D

 60 63  0  0  0  0  0  0  0  0999 V2000
  136.8180   70.0540  222.2910 O   0  0  0  0  0  0  0  0  0  0  0  0
  137.6130   70.7650  222.9680 C   0  0  0  0  0  0  0  0  0  0  0  0
  137.7530   72.1400  222.5610 N   0  0  0  0  0  0  0  0  0  0  0  0
  136.9790   72.5520  221.4370 C   0  0  0  0  0  0  0  0  0  0  0  0
  135.8740   73.4780  221.6150 C   0  0  0  0  0  0  0  0  0  0  0  0
  135.1300   73.6150  220.5500 O   0  0  0  0  0  0  0  0  0  0  0  0
  135.5010   74.2380  222.7550 N   0  0  0  0  0  0  0  0  0  0  0  0
  135.1090   73.8250  224.0830 C   0  0  0  0  0  0  0  0  0  0  0  0
  134.5420   75.0920  224.7420 C   0  0  2  0  0  0  0  0  0  0  0  0
  133.2400   75.2170  224.2730 O   0  0  0  0  0  0  0  0  0  0  0  0
  135.4210   76.1300  224.1190 C   0  0  0  0  0  0  0  0  0  0  0  0
  135.5030   75.7170  222.6810 C   0  0  1  0  0  0  0  0  0  0  0  0
  136.7850   76.2190  222.0920 C   0  0  0  0  0  0  0  0  0  0  0  0
  136.7200   77.1870  221.2610 O   0  0  0  0  0  0  0  0  0  0  0  0
  138.0510   75.6660  222.4210 N   0  0  0  0  0  0  0  0  0  0  0  0
  139.2650   76.1850  221.8180 C   0  0  2  0  0  0  0  0  0  0  0  0
  140.3710   75.1840  221.7230 C   0  0  0  0  0  0  0  0  0  0  0  0
  140.0090   73.9700  222.2910 O   0  0  0  0  0  0  0  0  0  0  0  0
  139.7040   77.4150  222.5280 C   0  0  0  0  0  0  0  0  0  0  0  0
  141.0680   77.5610  222.7220 C   0  0  0  0  0  0  0  0  0  0  0  0
  141.5370   78.6850  223.3770 C   0  0  0  0  0  0  0  0  0  0  0  0
  140.7040   79.6710  223.8460 C   0  0  0  0  0  0  0  0  0  0  0  0
  139.3450   79.4920  223.6340 C   0  0  0  0  0  0  0  0  0  0  0  0
  138.2510   80.7160  224.2120 Cl  0  0  0  0  0  0  0  0  0  0  0  0
  138.8420   78.3750  222.9810 C   0  0  0  0  0  0  0  0  0  0  0  0
  138.3660   70.2630  224.1040 C   0  0  0  0  0  0  0  0  0  0  0  0
  138.3710   68.8940  224.2970 C   0  0  0  0  0  0  0  0  0  0  0  0
  139.0580   68.3260  225.3500 C   0  0  0  0  0  0  0  0  0  0  0  0
  139.7450   69.1720  226.2070 C   0  0  0  0  0  0  0  0  0  0  0  0
  140.4550   68.6770  227.2810 C   0  0  0  0  0  0  0  0  0  0  0  0
  141.1400   69.5110  228.1400 C   0  0  0  0  0  0  0  0  0  0  0  0
  141.8320   68.9870  229.1910 F   0  0  0  0  0  0  0  0  0  0  0  0
  141.1110   70.8740  227.9130 C   0  0  0  0  0  0  0  0  0  0  0  0
  140.4090   71.4050  226.8440 C   0  0  0  0  0  0  0  0  0  0  0  0
  139.7280   70.5380  225.9980 C   0  0  0  0  0  0  0  0  0  0  0  0
  139.0420   71.0730  224.9520 N   0  0  0  0  0  0  0  0  0  0  0  0
  138.4180   72.6910  223.1230 H   0  0  0  0  0  0  0  0  0  0  0  0
  137.6756   73.0219  220.7271 H   0  0  0  0  0  0  0  0  0  0  0  0
  136.4817   71.6238  221.1191 H   0  0  0  0  0  0  0  0  0  0  0  0
  134.3414   73.0387  224.0326 H   0  0  0  0  0  0  0  0  0  0  0  0
  135.9523   73.4056  224.6512 H   0  0  0  0  0  0  0  0  0  0  0  0
  134.5239   75.1299  225.8412 H   0  0  0  0  0  0  0  0  0  0  0  0
  133.2090   74.7130  223.4090 H   0  0  0  0  0  0  0  0  0  0  0  0
  134.9732   77.1302  224.2140 H   0  0  0  0  0  0  0  0  0  0  0  0
  136.4087   76.1932  224.5992 H   0  0  0  0  0  0  0  0  0  0  0  0
  134.6896   76.1114  222.0543 H   0  0  0  0  0  0  0  0  0  0  0  0
  138.1710   74.8890  223.1050 H   0  0  0  0  0  0  0  0  0  0  0  0
  139.0153   76.4359  220.7765 H   0  0  0  0  0  0  0  0  0  0  0  0
  140.6175   75.0233  220.6631 H   0  0  0  0  0  0  0  0  0  0  0  0
  141.2396   75.5764  222.2721 H   0  0  0  0  0  0  0  0  0  0  0  0
  139.4820   74.2050  223.1040 H   0  0  0  0  0  0  0  0  0  0  0  0
  141.7681   76.7936  222.3601 H   0  0  0  0  0  0  0  0  0  0  0  0
  142.6211   78.7937  223.5285 H   0  0  0  0  0  0  0  0  0  0  0  0
  141.0952   80.5589  224.3642 H   0  0  0  0  0  0  0  0  0  0  0  0
  137.7583   78.2630  222.8291 H   0  0  0  0  0  0  0  0  0  0  0  0
  137.8183   68.2472  223.5997 H   0  0  0  0  0  0  0  0  0  0  0  0
  139.0606   67.2369  225.5046 H   0  0  0  0  0  0  0  0  0  0  0  0
  140.4754   67.5913  227.4567 H   0  0  0  0  0  0  0  0  0  0  0  0
  141.6541   71.5476  228.5922 H   0  0  0  0  0  0  0  0  0  0  0  0
  140.3908   72.4907  226.6681 H   0  0  0  0  0  0  0  0  0  0  0  0
  1  2  2  0
  2  3  1  0
  3  4  1  0
  4  5  1  0
  5  6  2  0
  5  7  1  0
  7  8  1  0
  8  9  1  0
  9 10  1  0
  9 11  1  0
 11 12  1  0
 12 13  1  0
 13 14  2  0
 13 15  1  0
 15 16  1  0
 16 17  1  0
 17 18  1  0
 16 19  1  0
 19 20  2  0
 20 21  1  0
 21 22  2  0
 22 23  1  0
 23 24  1  0
 23 25  2  0
  2 26  1  0
 26 27  2  0
 27 28  1  0
 28 29  2  0
 29 30  1  0
 30 31  2  0
 31 32  1  0
 31 33  1  0
 33 34  2  0
 34 35  1  0
 35 36  2  0
 12  7  1  0
 25 19  1  0
 36 26  1  0
 35 29  1  0
  3 37  1  0
  4 38  1  0
  4 39  1  0
  8 40  1  0
  8 41  1  0
  9 42  1  1
 10 43  1  0
 11 44  1  0
 11 45  1  0
 12 46  1  6
 15 47  1  0
 16 48  1  6
 17 49  1  0
 17 50  1  0
 18 51  1  0
 20 52  1  0
 21 53  1  0
 22 54  1  0
 25 55  1  0
 27 56  1  0
 28 57  1  0
 30 58  1  0
 33 59  1  0
 34 60  1  0
M  END
>  <smiles>  (14) 
O=C(NCC(=O)N1C[C@H](O)C[C@H]1C(=O)N[C@H](CO)c1cccc(Cl)c1)c1ccc2cc(F)ccc2n1

>  <score_type>  (14) 
oracle

>  <origin>  (14) 
autodockgpu

>  <m_score__min__energy>  (14) 
-9.3200000000000003

>  <m_primary>  (14) 
energy

>  <meeko>  (14) 
{"free_energy": -8.76, "intermolecular_energy": -11.74, "internal_energy": -3.68, "cluster_size": 12, "cluster_id": 2, "rank_in_cluster": 5}

>  <energy>  (14) 
-8.39

>  <cluster_rmsd>  (14) 
1.23

>  <rmsd>  (14) 
270.44

>  <cluster>  (14) 
2

$$$$

     RDKit          3D

 60 63  0  0  0  0  0  0  0  0999 V2000
  141.3920   73.4420  221.9600 O   0  0  0  0  0  0  0  0  0  0  0  0
  141.1000   72.2160  222.0360 C   0  0  0  0  0  0  0  0  0  0  0  0
  141.2610   71.4390  220.8330 N   0  0  0  0  0  0  0  0  0  0  0  0
  141.7330   72.1380  219.6850 C   0  0  0  0  0  0  0  0  0  0  0  0
  141.1180   73.3960  219.2950 C   0  0  0  0  0  0  0  0  0  0  0  0
  139.8720   73.5080  219.6740 O   0  0  0  0  0  0  0  0  0  0  0  0
  141.6660   74.4910  218.5780 N   0  0  0  0  0  0  0  0  0  0  0  0
  141.8170   74.7140  217.1580 C   0  0  0  0  0  0  0  0  0  0  0  0
  142.7480   75.9310  217.0440 C   0  0  2  0  0  0  0  0  0  0  0  0
  144.0380   75.4430  217.2200 O   0  0  0  0  0  0  0  0  0  0  0  0
  142.3180   76.7080  218.2490 C   0  0  0  0  0  0  0  0  0  0  0  0
  142.1800   75.6670  219.3180 C   0  0  1  0  0  0  0  0  0  0  0  0
  141.1850   76.1310  220.3360 C   0  0  0  0  0  0  0  0  0  0  0  0
  140.1140   76.6870  219.9150 O   0  0  0  0  0  0  0  0  0  0  0  0
  141.3860   75.9760  221.7340 N   0  0  0  0  0  0  0  0  0  0  0  0
  140.3940   76.4480  222.6810 C   0  0  2  0  0  0  0  0  0  0  0  0
  139.0020   75.9910  222.3810 C   0  0  0  0  0  0  0  0  0  0  0  0
  138.9900   74.7020  221.8660 O   0  0  0  0  0  0  0  0  0  0  0  0
  140.4640   77.9280  222.8030 C   0  0  0  0  0  0  0  0  0  0  0  0
  139.3130   78.6290  222.4810 C   0  0  0  0  0  0  0  0  0  0  0  0
  139.3190   80.0090  222.5750 C   0  0  0  0  0  0  0  0  0  0  0  0
  140.4230   80.7200  222.9760 C   0  0  0  0  0  0  0  0  0  0  0  0
  141.5570   79.9860  223.2900 C   0  0  0  0  0  0  0  0  0  0  0  0
  142.9810   80.8460  223.8030 Cl  0  0  0  0  0  0  0  0  0  0  0  0
  141.5840   78.6000  223.2060 C   0  0  0  0  0  0  0  0  0  0  0  0
  140.6240   71.5810  223.2520 C   0  0  0  0  0  0  0  0  0  0  0  0
  139.6760   70.5830  223.1090 C   0  0  0  0  0  0  0  0  0  0  0  0
  139.1660   69.9240  224.2080 C   0  0  0  0  0  0  0  0  0  0  0  0
  139.6340   70.2920  225.4610 C   0  0  0  0  0  0  0  0  0  0  0  0
  139.1700   69.6780  226.6050 C   0  0  0  0  0  0  0  0  0  0  0  0
  139.6280   70.0380  227.8550 C   0  0  0  0  0  0  0  0  0  0  0  0
  139.1490   69.4100  228.9650 F   0  0  0  0  0  0  0  0  0  0  0  0
  140.5760   71.0400  227.9560 C   0  0  0  0  0  0  0  0  0  0  0  0
  141.0640   71.6780  226.8280 C   0  0  0  0  0  0  0  0  0  0  0  0
  140.5800   71.2920  225.5830 C   0  0  0  0  0  0  0  0  0  0  0  0
  141.0680   71.9270  224.4830 N   0  0  0  0  0  0  0  0  0  0  0  0
  141.0010   70.4460  220.9220 H   0  0  0  0  0  0  0  0  0  0  0  0
  142.7995   72.3458  219.8563 H   0  0  0  0  0  0  0  0  0  0  0  0
  141.4755   71.4633  218.8552 H   0  0  0  0  0  0  0  0  0  0  0  0
  142.2684   73.8352  216.6744 H   0  0  0  0  0  0  0  0  0  0  0  0
  140.8505   74.8848  216.6613 H   0  0  0  0  0  0  0  0  0  0  0  0
  142.7159   76.5106  216.1097 H   0  0  0  0  0  0  0  0  0  0  0  0
  144.5320   76.1500  217.7280 H   0  0  0  0  0  0  0  0  0  0  0  0
  143.0775   77.4543  218.5251 H   0  0  0  0  0  0  0  0  0  0  0  0
  141.3876   77.2704  218.0816 H   0  0  0  0  0  0  0  0  0  0  0  0
  143.1135   75.4530  219.8591 H   0  0  0  0  0  0  0  0  0  0  0  0
  142.2280   75.5150  222.1380 H   0  0  0  0  0  0  0  0  0  0  0  0
  140.6447   75.9905  223.6494 H   0  0  0  0  0  0  0  0  0  0  0  0
  138.4114   76.0108  223.3088 H   0  0  0  0  0  0  0  0  0  0  0  0
  138.5711   76.6676  221.6283 H   0  0  0  0  0  0  0  0  0  0  0  0
  139.7330   74.6760  221.2010 H   0  0  0  0  0  0  0  0  0  0  0  0
  138.4076   78.0958  222.1554 H   0  0  0  0  0  0  0  0  0  0  0  0
  138.4019   80.5593  222.3180 H   0  0  0  0  0  0  0  0  0  0  0  0
  140.4087   81.8178  223.0448 H   0  0  0  0  0  0  0  0  0  0  0  0
  142.4999   78.0471  223.4619 H   0  0  0  0  0  0  0  0  0  0  0  0
  139.3237   70.3111  222.1030 H   0  0  0  0  0  0  0  0  0  0  0  0
  138.4117   69.1314  224.0945 H   0  0  0  0  0  0  0  0  0  0  0  0
  138.4161   68.8816  226.5185 H   0  0  0  0  0  0  0  0  0  0  0  0
  140.9483   71.3348  228.9482 H   0  0  0  0  0  0  0  0  0  0  0  0
  141.8187   72.4735  226.9151 H   0  0  0  0  0  0  0  0  0  0  0  0
  1  2  2  0
  2  3  1  0
  3  4  1  0
  4  5  1  0
  5  6  2  0
  5  7  1  0
  7  8  1  0
  8  9  1  0
  9 10  1  0
  9 11  1  0
 11 12  1  0
 12 13  1  0
 13 14  2  0
 13 15  1  0
 15 16  1  0
 16 17  1  0
 17 18  1  0
 16 19  1  0
 19 20  2  0
 20 21  1  0
 21 22  2  0
 22 23  1  0
 23 24  1  0
 23 25  2  0
  2 26  1  0
 26 27  2  0
 27 28  1  0
 28 29  2  0
 29 30  1  0
 30 31  2  0
 31 32  1  0
 31 33  1  0
 33 34  2  0
 34 35  1  0
 35 36  2  0
 12  7  1  0
 25 19  1  0
 36 26  1  0
 35 29  1  0
  3 37  1  0
  4 38  1  0
  4 39  1  0
  8 40  1  0
  8 41  1  0
  9 42  1  6
 10 43  1  0
 11 44  1  0
 11 45  1  0
 12 46  1  1
 15 47  1  0
 16 48  1  1
 17 49  1  0
 17 50  1  0
 18 51  1  0
 20 52  1  0
 21 53  1  0
 22 54  1  0
 25 55  1  0
 27 56  1  0
 28 57  1  0
 30 58  1  0
 33 59  1  0
 34 60  1  0
M  END
>  <smiles>  (15) 
O=C(NCC(=O)N1C[C@H](O)C[C@H]1C(=O)N[C@H](CO)c1cccc(Cl)c1)c1ccc2cc(F)ccc2n1

>  <score_type>  (15) 
oracle

>  <origin>  (15) 
autodockgpu

>  <m_score__min__energy>  (15) 
-9.3200000000000003

>  <m_primary>  (15) 
energy

>  <meeko>  (15) 
{"free_energy": -7.66, "intermolecular_energy": -10.65, "internal_energy": -4.26, "cluster_size": 1, "cluster_id": 4, "rank_in_cluster": 1}

>  <energy>  (15) 
-8.05

>  <cluster_rmsd>  (15) 
0.99

>  <rmsd>  (15) 
270.35

>  <cluster>  (15) 
2

$$$$

     RDKit          3D

 60 63  0  0  0  0  0  0  0  0999 V2000
  138.9460   72.4900  222.7260 O   0  0  0  0  0  0  0  0  0  0  0  0
  138.4310   71.3880  223.0660 C   0  0  0  0  0  0  0  0  0  0  0  0
  137.2950   70.9430  222.2990 N   0  0  0  0  0  0  0  0  0  0  0  0
  136.8740   71.7960  221.2370 C   0  0  0  0  0  0  0  0  0  0  0  0
  136.1340   73.0110  221.5310 C   0  0  0  0  0  0  0  0  0  0  0  0
  135.6690   73.6100  220.4670 O   0  0  0  0  0  0  0  0  0  0  0  0
  135.8540   73.6240  222.7800 N   0  0  0  0  0  0  0  0  0  0  0  0
  135.6700   73.0550  224.0960 C   0  0  0  0  0  0  0  0  0  0  0  0
  135.0980   74.2000  224.9470 C   0  0  2  0  0  0  0  0  0  0  0  0
  133.7400   74.2520  224.6550 O   0  0  0  0  0  0  0  0  0  0  0  0
  135.8070   75.3660  224.3340 C   0  0  0  0  0  0  0  0  0  0  0  0
  135.7330   75.0980  222.8610 C   0  0  1  0  0  0  0  0  0  0  0  0
  136.8850   75.7660  222.1760 C   0  0  0  0  0  0  0  0  0  0  0  0
  136.6290   76.7400  221.3900 O   0  0  0  0  0  0  0  0  0  0  0  0
  138.2330   75.3610  222.3680 N   0  0  0  0  0  0  0  0  0  0  0  0
  139.3150   76.0370  221.6760 C   0  0  2  0  0  0  0  0  0  0  0  0
  140.4930   75.1630  221.3910 C   0  0  0  0  0  0  0  0  0  0  0  0
  140.6280   74.1630  222.3450 O   0  0  0  0  0  0  0  0  0  0  0  0
  139.7140   77.2610  222.4210 C   0  0  0  0  0  0  0  0  0  0  0  0
  141.0600   77.3870  222.7220 C   0  0  0  0  0  0  0  0  0  0  0  0
  141.4910   78.5040  223.4140 C   0  0  0  0  0  0  0  0  0  0  0  0
  140.6380   79.5010  223.8190 C   0  0  0  0  0  0  0  0  0  0  0  0
  139.2970   79.3410  223.4990 C   0  0  0  0  0  0  0  0  0  0  0  0
  138.1780   80.5800  223.9920 Cl  0  0  0  0  0  0  0  0  0  0  0  0
  138.8320   78.2310  222.8070 C   0  0  0  0  0  0  0  0  0  0  0  0
  138.9260   70.5790  224.1650 C   0  0  0  0  0  0  0  0  0  0  0  0
  138.7160   69.2140  224.0840 C   0  0  0  0  0  0  0  0  0  0  0  0
  139.1520   68.3670  225.0810 C   0  0  0  0  0  0  0  0  0  0  0  0
  139.8090   68.9250  226.1670 C   0  0  0  0  0  0  0  0  0  0  0  0
  140.2730   68.1410  227.2020 C   0  0  0  0  0  0  0  0  0  0  0  0
  140.9260   68.6890  228.2870 C   0  0  0  0  0  0  0  0  0  0  0  0
  141.3720   67.8830  229.2920 F   0  0  0  0  0  0  0  0  0  0  0  0
  141.1170   70.0570  228.3300 C   0  0  0  0  0  0  0  0  0  0  0  0
  140.6640   70.8750  227.3090 C   0  0  0  0  0  0  0  0  0  0  0  0
  140.0090   70.2910  226.2310 C   0  0  0  0  0  0  0  0  0  0  0  0
  139.5690   71.1060  225.2330 N   0  0  0  0  0  0  0  0  0  0  0  0
  136.8880   70.0490  222.6080 H   0  0  0  0  0  0  0  0  0  0  0  0
  137.7817   72.1003  220.6953 H   0  0  0  0  0  0  0  0  0  0  0  0
  136.1428   71.1801  220.6928 H   0  0  0  0  0  0  0  0  0  0  0  0
  134.9645   72.2119  224.0576 H   0  0  0  0  0  0  0  0  0  0  0  0
  136.6092   72.6606  224.5110 H   0  0  0  0  0  0  0  0  0  0  0  0
  135.2197   74.1332  226.0382 H   0  0  0  0  0  0  0  0  0  0  0  0
  133.6130   73.6860  223.8390 H   0  0  0  0  0  0  0  0  0  0  0  0
  135.3002   76.3091  224.5863 H   0  0  0  0  0  0  0  0  0  0  0  0
  136.8407   75.4719  224.6949 H   0  0  0  0  0  0  0  0  0  0  0  0
  134.8171   75.4747  222.3823 H   0  0  0  0  0  0  0  0  0  0  0  0
  138.5070   74.5860  223.0090 H   0  0  0  0  0  0  0  0  0  0  0  0
  138.9245   76.3229  220.6882 H   0  0  0  0  0  0  0  0  0  0  0  0
  140.3625   74.6985  220.4025 H   0  0  0  0  0  0  0  0  0  0  0  0
  141.3988   75.7866  221.4145 H   0  0  0  0  0  0  0  0  0  0  0  0
  139.7000   73.9580  222.6460 H   0  0  0  0  0  0  0  0  0  0  0  0
  141.7756   76.6100  222.4151 H   0  0  0  0  0  0  0  0  0  0  0  0
  142.5613   78.5977  223.6498 H   0  0  0  0  0  0  0  0  0  0  0  0
  140.9994   80.3822  224.3694 H   0  0  0  0  0  0  0  0  0  0  0  0
  137.7621   78.1330  222.5712 H   0  0  0  0  0  0  0  0  0  0  0  0
  138.1929   68.7977  223.2104 H   0  0  0  0  0  0  0  0  0  0  0  0
  138.9837   67.2819  225.0167 H   0  0  0  0  0  0  0  0  0  0  0  0
  140.1189   67.0526  227.1618 H   0  0  0  0  0  0  0  0  0  0  0  0
  141.6377   70.5035  229.1899 H   0  0  0  0  0  0  0  0  0  0  0  0
  140.8190   71.9633  227.3500 H   0  0  0  0  0  0  0  0  0  0  0  0
  1  2  2  0
  2  3  1  0
  3  4  1  0
  4  5  1  0
  5  6  2  0
  5  7  1  0
  7  8  1  0
  8  9  1  0
  9 10  1  0
  9 11  1  0
 11 12  1  0
 12 13  1  0
 13 14  2  0
 13 15  1  0
 15 16  1  0
 16 17  1  0
 17 18  1  0
 16 19  1  0
 19 20  2  0
 20 21  1  0
 21 22  2  0
 22 23  1  0
 23 24  1  0
 23 25  2  0
  2 26  1  0
 26 27  2  0
 27 28  1  0
 28 29  2  0
 29 30  1  0
 30 31  2  0
 31 32  1  0
 31 33  1  0
 33 34  2  0
 34 35  1  0
 35 36  2  0
 12  7  1  0
 25 19  1  0
 36 26  1  0
 35 29  1  0
  3 37  1  0
  4 38  1  0
  4 39  1  0
  8 40  1  0
  8 41  1  0
  9 42  1  1
 10 43  1  0
 11 44  1  0
 11 45  1  0
 12 46  1  6
 15 47  1  0
 16 48  1  6
 17 49  1  0
 17 50  1  0
 18 51  1  0
 20 52  1  0
 21 53  1  0
 22 54  1  0
 25 55  1  0
 27 56  1  0
 28 57  1  0
 30 58  1  0
 33 59  1  0
 34 60  1  0
M  END
>  <smiles>  (16) 
O=C(NCC(=O)N1C[C@H](O)C[C@H]1C(=O)N[C@H](CO)c1cccc(Cl)c1)c1ccc2cc(F)ccc2n1

>  <score_type>  (16) 
oracle

>  <origin>  (16) 
autodockgpu

>  <m_score__min__energy>  (16) 
-9.3200000000000003

>  <m_primary>  (16) 
energy

>  <meeko>  (16) 
{"free_energy": -8.4, "intermolecular_energy": -11.39, "internal_energy": -4.11, "cluster_size": 12, "cluster_id": 2, "rank_in_cluster": 9}

>  <energy>  (16) 
-7.57

>  <cluster_rmsd>  (16) 
1.05

>  <rmsd>  (16) 
270.38

>  <cluster>  (16) 
2

$$$$

     RDKit          3D

 60 63  0  0  0  0  0  0  0  0999 V2000
  140.1870   71.2000  221.4360 O   0  0  0  0  0  0  0  0  0  0  0  0
  139.5960   71.5470  222.4980 C   0  0  0  0  0  0  0  0  0  0  0  0
  138.5140   72.4870  222.3560 N   0  0  0  0  0  0  0  0  0  0  0  0
  138.2250   72.9280  221.0320 C   0  0  0  0  0  0  0  0  0  0  0  0
  139.0800   73.9110  220.3900 C   0  0  0  0  0  0  0  0  0  0  0  0
  138.4200   74.8820  219.8160 O   0  0  0  0  0  0  0  0  0  0  0  0
  140.4950   73.9630  220.2990 N   0  0  0  0  0  0  0  0  0  0  0  0
  141.4040   73.4130  219.3190 C   0  0  0  0  0  0  0  0  0  0  0  0
  142.7990   73.5520  219.9480 C   0  0  2  0  0  0  0  0  0  0  0  0
  142.9280   72.4870  220.8320 O   0  0  0  0  0  0  0  0  0  0  0  0
  142.6240   74.8340  220.6990 C   0  0  0  0  0  0  0  0  0  0  0  0
  141.2680   74.7030  221.3240 C   0  0  1  0  0  0  0  0  0  0  0  0
  140.6890   76.0660  221.5450 C   0  0  0  0  0  0  0  0  0  0  0  0
  141.0840   77.0130  220.7830 O   0  0  0  0  0  0  0  0  0  0  0  0
  139.7310   76.3400  222.5570 N   0  0  0  0  0  0  0  0  0  0  0  0
  139.2050   77.6810  222.7350 C   0  0  2  0  0  0  0  0  0  0  0  0
  138.1020   78.0300  221.7890 C   0  0  0  0  0  0  0  0  0  0  0  0
  138.4180   77.6770  220.4840 O   0  0  0  0  0  0  0  0  0  0  0  0
  140.3080   78.6770  222.6740 C   0  0  0  0  0  0  0  0  0  0  0  0
  141.4030   78.4340  223.4860 C   0  0  0  0  0  0  0  0  0  0  0  0
  142.4600   79.3260  223.4730 C   0  0  0  0  0  0  0  0  0  0  0  0
  142.4710   80.4500  222.6840 C   0  0  0  0  0  0  0  0  0  0  0  0
  141.3570   80.6610  221.8850 C   0  0  0  0  0  0  0  0  0  0  0  0
  141.3270   82.0740  220.8680 Cl  0  0  0  0  0  0  0  0  0  0  0  0
  140.2800   79.7850  221.8750 C   0  0  0  0  0  0  0  0  0  0  0  0
  139.9570   71.0460  223.8120 C   0  0  0  0  0  0  0  0  0  0  0  0
  140.7030   71.8860  224.6200 C   0  0  0  0  0  0  0  0  0  0  0  0
  141.0920   71.4960  225.8840 C   0  0  0  0  0  0  0  0  0  0  0  0
  140.7100   70.2380  226.3220 C   0  0  0  0  0  0  0  0  0  0  0  0
  141.0610   69.7790  227.5740 C   0  0  0  0  0  0  0  0  0  0  0  0
  140.6870   68.5280  228.0170 C   0  0  0  0  0  0  0  0  0  0  0  0
  141.0520   68.1080  229.2610 F   0  0  0  0  0  0  0  0  0  0  0  0
  139.9400   67.7190  227.1800 C   0  0  0  0  0  0  0  0  0  0  0  0
  139.5700   68.1470  225.9170 C   0  0  0  0  0  0  0  0  0  0  0  0
  139.9650   69.4130  225.5010 C   0  0  0  0  0  0  0  0  0  0  0  0
  139.5930   69.8210  224.2570 N   0  0  0  0  0  0  0  0  0  0  0  0
  138.0610   72.7610  223.2400 H   0  0  0  0  0  0  0  0  0  0  0  0
  138.2325   72.0341  220.3911 H   0  0  0  0  0  0  0  0  0  0  0  0
  137.2696   73.4610  221.1465 H   0  0  0  0  0  0  0  0  0  0  0  0
  141.1707   72.3555  219.1259 H   0  0  0  0  0  0  0  0  0  0  0  0
  141.3331   73.9329  218.3522 H   0  0  0  0  0  0  0  0  0  0  0  0
  143.6656   73.5517  219.2706 H   0  0  0  0  0  0  0  0  0  0  0  0
  142.0150   72.0860  220.9140 H   0  0  0  0  0  0  0  0  0  0  0  0
  143.4011   74.9455  221.4696 H   0  0  0  0  0  0  0  0  0  0  0  0
  142.7094   75.7197  220.0523 H   0  0  0  0  0  0  0  0  0  0  0  0
  141.2717   74.1967  222.3005 H   0  0  0  0  0  0  0  0  0  0  0  0
  139.3560   75.6080  223.1970 H   0  0  0  0  0  0  0  0  0  0  0  0
  138.7460   77.7070  223.7343 H   0  0  0  0  0  0  0  0  0  0  0  0
  137.1892   77.4963  222.0923 H   0  0  0  0  0  0  0  0  0  0  0  0
  137.9500   79.1189  221.8240 H   0  0  0  0  0  0  0  0  0  0  0  0
  138.9540   76.8390  220.5600 H   0  0  0  0  0  0  0  0  0  0  0  0
  141.4318   77.5442  224.1321 H   0  0  0  0  0  0  0  0  0  0  0  0
  143.3266   79.1271  224.1206 H   0  0  0  0  0  0  0  0  0  0  0  0
  143.3210   81.1482  222.6856 H   0  0  0  0  0  0  0  0  0  0  0  0
  139.4114   79.9813  221.2292 H   0  0  0  0  0  0  0  0  0  0  0  0
  140.9902   72.8806  224.2480 H   0  0  0  0  0  0  0  0  0  0  0  0
  141.6872   72.1629  226.5250 H   0  0  0  0  0  0  0  0  0  0  0  0
  141.6542   70.4271  228.2359 H   0  0  0  0  0  0  0  0  0  0  0  0
  139.6352   66.7195  227.5237 H   0  0  0  0  0  0  0  0  0  0  0  0
  138.9757   67.4988  225.2562 H   0  0  0  0  0  0  0  0  0  0  0  0
  1  2  2  0
  2  3  1  0
  3  4  1  0
  4  5  1  0
  5  6  2  0
  5  7  1  0
  7  8  1  0
  8  9  1  0
  9 10  1  0
  9 11  1  0
 11 12  1  0
 12 13  1  0
 13 14  2  0
 13 15  1  0
 15 16  1  0
 16 17  1  0
 17 18  1  0
 16 19  1  0
 19 20  2  0
 20 21  1  0
 21 22  2  0
 22 23  1  0
 23 24  1  0
 23 25  2  0
  2 26  1  0
 26 27  2  0
 27 28  1  0
 28 29  2  0
 29 30  1  0
 30 31  2  0
 31 32  1  0
 31 33  1  0
 33 34  2  0
 34 35  1  0
 35 36  2  0
 12  7  1  0
 25 19  1  0
 36 26  1  0
 35 29  1  0
  3 37  1  0
  4 38  1  0
  4 39  1  0
  8 40  1  0
  8 41  1  0
  9 42  1  6
 10 43  1  0
 11 44  1  0
 11 45  1  0
 12 46  1  1
 15 47  1  0
 16 48  1  1
 17 49  1  0
 17 50  1  0
 18 51  1  0
 20 52  1  0
 21 53  1  0
 22 54  1  0
 25 55  1  0
 27 56  1  0
 28 57  1  0
 30 58  1  0
 33 59  1  0
 34 60  1  0
M  END
>  <smiles>  (17) 
O=C(NCC(=O)N1C[C@H](O)C[C@H]1C(=O)N[C@H](CO)c1cccc(Cl)c1)c1ccc2cc(F)ccc2n1

>  <score_type>  (17) 
oracle

>  <origin>  (17) 
autodockgpu

>  <m_score__min__energy>  (17) 
-9.3200000000000003

>  <m_primary>  (17) 
energy

>  <meeko>  (17) 
{"free_energy": -7.82, "intermolecular_energy": -10.8, "internal_energy": -4.17, "cluster_size": 1, "cluster_id": 3, "rank_in_cluster": 1}

>  <energy>  (17) 
-7.82

>  <cluster_rmsd>  (17) 
0.0

>  <rmsd>  (17) 
270.81

>  <cluster>  (17) 
3

$$$$

     RDKit          3D

 60 63  0  0  0  0  0  0  0  0999 V2000
  137.0760   70.3240  222.1360 O   0  0  0  0  0  0  0  0  0  0  0  0
  137.8850   70.9380  222.8880 C   0  0  0  0  0  0  0  0  0  0  0  0
  138.1250   72.3240  222.5800 N   0  0  0  0  0  0  0  0  0  0  0  0
  137.4230   72.8570  221.4600 C   0  0  0  0  0  0  0  0  0  0  0  0
  136.1310   73.4950  221.6470 C   0  0  0  0  0  0  0  0  0  0  0  0
  135.2820   73.2480  220.6860 O   0  0  0  0  0  0  0  0  0  0  0  0
  135.6750   74.3290  222.7010 N   0  0  0  0  0  0  0  0  0  0  0  0
  135.2510   74.0120  224.0460 C   0  0  0  0  0  0  0  0  0  0  0  0
  134.5960   75.2990  224.5700 C   0  0  2  0  0  0  0  0  0  0  0  0
  133.3090   75.3140  224.0460 O   0  0  0  0  0  0  0  0  0  0  0  0
  135.4460   76.3250  223.8890 C   0  0  0  0  0  0  0  0  0  0  0  0
  135.6050   75.7940  222.4970 C   0  0  1  0  0  0  0  0  0  0  0  0
  136.8830   76.3120  221.9120 C   0  0  0  0  0  0  0  0  0  0  0  0
  136.8020   77.1810  220.9780 O   0  0  0  0  0  0  0  0  0  0  0  0
  138.1620   75.8780  222.3510 N   0  0  0  0  0  0  0  0  0  0  0  0
  139.3710   76.4060  221.7470 C   0  0  2  0  0  0  0  0  0  0  0  0
  140.4980   75.4260  221.6880 C   0  0  0  0  0  0  0  0  0  0  0  0
  140.1750   74.2400  222.3330 O   0  0  0  0  0  0  0  0  0  0  0  0
  139.7790   77.6620  222.4300 C   0  0  0  0  0  0  0  0  0  0  0  0
  138.7800   78.3560  223.0940 C   0  0  0  0  0  0  0  0  0  0  0  0
  139.1010   79.5320  223.7470 C   0  0  0  0  0  0  0  0  0  0  0  0
  140.3740   80.0460  223.7670 C   0  0  0  0  0  0  0  0  0  0  0  0
  141.3480   79.3250  223.0930 C   0  0  0  0  0  0  0  0  0  0  0  0
  142.9770   79.9390  223.0920 Cl  0  0  0  0  0  0  0  0  0  0  0  0
  141.0600   78.1410  222.4260 C   0  0  0  0  0  0  0  0  0  0  0  0
  138.5590   70.3160  224.0130 C   0  0  0  0  0  0  0  0  0  0  0  0
  138.5020   68.9360  224.0940 C   0  0  0  0  0  0  0  0  0  0  0  0
  139.1140   68.2590  225.1280 C   0  0  0  0  0  0  0  0  0  0  0  0
  139.7880   69.0030  226.0840 C   0  0  0  0  0  0  0  0  0  0  0  0
  140.4230   68.3960  227.1460 C   0  0  0  0  0  0  0  0  0  0  0  0
  141.0960   69.1290  228.1020 C   0  0  0  0  0  0  0  0  0  0  0  0
  141.7130   68.4940  229.1380 F   0  0  0  0  0  0  0  0  0  0  0  0
  141.1300   70.5060  227.9850 C   0  0  0  0  0  0  0  0  0  0  0  0
  140.5040   71.1490  226.9310 C   0  0  0  0  0  0  0  0  0  0  0  0
  139.8340   70.3810  225.9860 C   0  0  0  0  0  0  0  0  0  0  0  0
  139.2230   71.0260  224.9560 N   0  0  0  0  0  0  0  0  0  0  0  0
  138.7990   72.7950  223.2010 H   0  0  0  0  0  0  0  0  0  0  0  0
  138.0832   73.6066  220.9993 H   0  0  0  0  0  0  0  0  0  0  0  0
  137.1793   71.9634  220.8667 H   0  0  0  0  0  0  0  0  0  0  0  0
  134.5260   73.1848  224.0380 H   0  0  0  0  0  0  0  0  0  0  0  0
  136.0908   73.6886  224.6786 H   0  0  0  0  0  0  0  0  0  0  0  0
  134.5325   75.4303  225.6603 H   0  0  0  0  0  0  0  0  0  0  0  0
  133.3110   74.6520  223.2950 H   0  0  0  0  0  0  0  0  0  0  0  0
  134.9454   77.3044  223.8796 H   0  0  0  0  0  0  0  0  0  0  0  0
  136.4095   76.4823  224.3959 H   0  0  0  0  0  0  0  0  0  0  0  0
  134.7979   76.0878  221.8098 H   0  0  0  0  0  0  0  0  0  0  0  0
  138.2930   75.1860  223.1200 H   0  0  0  0  0  0  0  0  0  0  0  0
  139.1260   76.6254  220.6973 H   0  0  0  0  0  0  0  0  0  0  0  0
  140.7281   75.2088  220.6345 H   0  0  0  0  0  0  0  0  0  0  0  0
  141.3676   75.8691  222.1954 H   0  0  0  0  0  0  0  0  0  0  0  0
  139.5770   74.5030  223.0860 H   0  0  0  0  0  0  0  0  0  0  0  0
  137.7473   77.9772  223.1015 H   0  0  0  0  0  0  0  0  0  0  0  0
  138.3035   80.0782  224.2721 H   0  0  0  0  0  0  0  0  0  0  0  0
  140.6096   80.9836  224.2918 H   0  0  0  0  0  0  0  0  0  0  0  0
  141.8554   77.5934  221.8992 H   0  0  0  0  0  0  0  0  0  0  0  0
  137.9602   68.3701  223.3218 H   0  0  0  0  0  0  0  0  0  0  0  0
  139.0687   67.1618  225.1922 H   0  0  0  0  0  0  0  0  0  0  0  0
  140.3926   67.2999  227.2337 H   0  0  0  0  0  0  0  0  0  0  0  0
  141.6631   71.1004  228.7417 H   0  0  0  0  0  0  0  0  0  0  0  0
  140.5361   72.2450  226.8432 H   0  0  0  0  0  0  0  0  0  0  0  0
  1  2  2  0
  2  3  1  0
  3  4  1  0
  4  5  1  0
  5  6  2  0
  5  7  1  0
  7  8  1  0
  8  9  1  0
  9 10  1  0
  9 11  1  0
 11 12  1  0
 12 13  1  0
 13 14  2  0
 13 15  1  0
 15 16  1  0
 16 17  1  0
 17 18  1  0
 16 19  1  0
 19 20  2  0
 20 21  1  0
 21 22  2  0
 22 23  1  0
 23 24  1  0
 23 25  2  0
  2 26  1  0
 26 27  2  0
 27 28  1  0
 28 29  2  0
 29 30  1  0
 30 31  2  0
 31 32  1  0
 31 33  1  0
 33 34  2  0
 34 35  1  0
 35 36  2  0
 12  7  1  0
 25 19  1  0
 36 26  1  0
 35 29  1  0
  3 37  1  0
  4 38  1  0
  4 39  1  0
  8 40  1  0
  8 41  1  0
  9 42  1  1
 10 43  1  0
 11 44  1  0
 11 45  1  0
 12 46  1  6
 15 47  1  0
 16 48  1  6
 17 49  1  0
 17 50  1  0
 18 51  1  0
 20 52  1  0
 21 53  1  0
 22 54  1  0
 25 55  1  0
 27 56  1  0
 28 57  1  0
 30 58  1  0
 33 59  1  0
 34 60  1  0
M  END
>  <smiles>  (18) 
O=C(NCC(=O)N1C[C@H](O)C[C@H]1C(=O)N[C@H](CO)c1cccc(Cl)c1)c1ccc2cc(F)ccc2n1

>  <score_type>  (18) 
oracle

>  <origin>  (18) 
autodockgpu

>  <m_score__min__energy>  (18) 
-9.3200000000000003

>  <m_primary>  (18) 
energy

>  <meeko>  (18) 
{"free_energy": -8.99, "intermolecular_energy": -11.97, "internal_energy": -3.54, "cluster_size": 12, "cluster_id": 2, "rank_in_cluster": 1}

>  <energy>  (18) 
-7.66

>  <cluster_rmsd>  (18) 
0.0

>  <rmsd>  (18) 
270.62

>  <cluster>  (18) 
4

$$$$

     RDKit          3D

 60 63  0  0  0  0  0  0  0  0999 V2000
  140.2880   73.7260  222.3290 O   0  0  0  0  0  0  0  0  0  0  0  0
  140.4200   72.4700  222.2750 C   0  0  0  0  0  0  0  0  0  0  0  0
  140.7160   71.9080  220.9820 N   0  0  0  0  0  0  0  0  0  0  0  0
  140.8290   72.8290  219.9010 C   0  0  0  0  0  0  0  0  0  0  0  0
  141.9330   73.7730  219.8610 C   0  0  0  0  0  0  0  0  0  0  0  0
  142.7440   73.6710  220.8810 O   0  0  0  0  0  0  0  0  0  0  0  0
  142.2450   74.7650  218.8960 N   0  0  0  0  0  0  0  0  0  0  0  0
  142.3690   74.6840  217.4580 C   0  0  0  0  0  0  0  0  0  0  0  0
  143.0180   76.0130  217.0400 C   0  0  2  0  0  0  0  0  0  0  0  0
  144.3800   75.8640  217.2790 O   0  0  0  0  0  0  0  0  0  0  0  0
  142.4110   76.9340  218.0490 C   0  0  0  0  0  0  0  0  0  0  0  0
  142.4810   76.1610  219.3310 C   0  0  1  0  0  0  0  0  0  0  0  0
  141.3920   76.6240  220.2500 C   0  0  0  0  0  0  0  0  0  0  0  0
  140.6160   77.5510  219.8360 O   0  0  0  0  0  0  0  0  0  0  0  0
  141.1950   76.0750  221.5450 N   0  0  0  0  0  0  0  0  0  0  0  0
  140.1280   76.5620  222.4000 C   0  0  2  0  0  0  0  0  0  0  0  0
  138.7600   76.3830  221.8250 C   0  0  0  0  0  0  0  0  0  0  0  0
  138.1480   75.2370  222.3170 O   0  0  0  0  0  0  0  0  0  0  0  0
  140.3780   77.9790  222.7750 C   0  0  0  0  0  0  0  0  0  0  0  0
  139.2590   78.7790  222.9440 C   0  0  0  0  0  0  0  0  0  0  0  0
  139.4290   80.1060  223.2920 C   0  0  0  0  0  0  0  0  0  0  0  0
  140.6660   80.6710  223.4800 C   0  0  0  0  0  0  0  0  0  0  0  0
  141.7640   79.8410  223.3030 C   0  0  0  0  0  0  0  0  0  0  0  0
  143.3530   80.5140  223.5300 Cl  0  0  0  0  0  0  0  0  0  0  0  0
  141.6280   78.5040  222.9520 C   0  0  0  0  0  0  0  0  0  0  0  0
  140.2880   71.6020  223.4320 C   0  0  0  0  0  0  0  0  0  0  0  0
  139.6650   70.3830  223.2330 C   0  0  0  0  0  0  0  0  0  0  0  0
  139.4960   69.4930  224.2730 C   0  0  0  0  0  0  0  0  0  0  0  0
  139.9710   69.8580  225.5240 C   0  0  0  0  0  0  0  0  0  0  0  0
  139.8370   69.0200  226.6110 C   0  0  0  0  0  0  0  0  0  0  0  0
  140.3060   69.3750  227.8590 C   0  0  0  0  0  0  0  0  0  0  0  0
  140.1570   68.5220  228.9110 F   0  0  0  0  0  0  0  0  0  0  0  0
  140.9240   70.6020  228.0160 C   0  0  0  0  0  0  0  0  0  0  0  0
  141.0750   71.4680  226.9470 C   0  0  0  0  0  0  0  0  0  0  0  0
  140.5910   71.0800  225.7030 C   0  0  0  0  0  0  0  0  0  0  0  0
  140.7460   71.9410  224.6600 N   0  0  0  0  0  0  0  0  0  0  0  0
  140.8050   70.8820  220.9670 H   0  0  0  0  0  0  0  0  0  0  0  0
  140.8895   72.2309  218.9798 H   0  0  0  0  0  0  0  0  0  0  0  0
  139.9486   73.4761  220.0282 H   0  0  0  0  0  0  0  0  0  0  0  0
  143.0074   73.8351  217.1721 H   0  0  0  0  0  0  0  0  0  0  0  0
  141.3972   74.5261  216.9674 H   0  0  0  0  0  0  0  0  0  0  0  0
  142.8777   76.3436  216.0003 H   0  0  0  0  0  0  0  0  0  0  0  0
  144.4550   75.2660  218.0780 H   0  0  0  0  0  0  0  0  0  0  0  0
  142.9875   77.8679  218.1232 H   0  0  0  0  0  0  0  0  0  0  0  0
  141.3845   77.2313  217.7885 H   0  0  0  0  0  0  0  0  0  0  0  0
  143.4292   76.2807  219.8756 H   0  0  0  0  0  0  0  0  0  0  0  0
  141.7820   75.3060  221.9320 H   0  0  0  0  0  0  0  0  0  0  0  0
  140.1430   75.9375  223.3054 H   0  0  0  0  0  0  0  0  0  0  0  0
  138.1452   77.2570  222.0861 H   0  0  0  0  0  0  0  0  0  0  0  0
  138.8542   76.2831  220.7336 H   0  0  0  0  0  0  0  0  0  0  0  0
  138.8050   74.8380  222.9510 H   0  0  0  0  0  0  0  0  0  0  0  0
  138.2501   78.3640  222.8032 H   0  0  0  0  0  0  0  0  0  0  0  0
  138.5364   80.7352  223.4237 H   0  0  0  0  0  0  0  0  0  0  0  0
  140.7811   81.7293  223.7572 H   0  0  0  0  0  0  0  0  0  0  0  0
  142.5187   77.8727  222.8175 H   0  0  0  0  0  0  0  0  0  0  0  0
  139.2987   70.1195  222.2298 H   0  0  0  0  0  0  0  0  0  0  0  0
  139.0000   68.5239  224.1152 H   0  0  0  0  0  0  0  0  0  0  0  0
  139.3444   68.0452  226.4799 H   0  0  0  0  0  0  0  0  0  0  0  0
  141.3018   70.8946  229.0068 H   0  0  0  0  0  0  0  0  0  0  0  0
  141.5676   72.4427  227.0790 H   0  0  0  0  0  0  0  0  0  0  0  0
  1  2  2  0
  2  3  1  0
  3  4  1  0
  4  5  1  0
  5  6  2  0
  5  7  1  0
  7  8  1  0
  8  9  1  0
  9 10  1  0
  9 11  1  0
 11 12  1  0
 12 13  1  0
 13 14  2  0
 13 15  1  0
 15 16  1  0
 16 17  1  0
 17 18  1  0
 16 19  1  0
 19 20  2  0
 20 21  1  0
 21 22  2  0
 22 23  1  0
 23 24  1  0
 23 25  2  0
  2 26  1  0
 26 27  2  0
 27 28  1  0
 28 29  2  0
 29 30  1  0
 30 31  2  0
 31 32  1  0
 31 33  1  0
 33 34  2  0
 34 35  1  0
 35 36  2  0
 12  7  1  0
 25 19  1  0
 36 26  1  0
 35 29  1  0
  3 37  1  0
  4 38  1  0
  4 39  1  0
  8 40  1  0
  8 41  1  0
  9 42  1  6
 10 43  1  0
 11 44  1  0
 11 45  1  0
 12 46  1  1
 15 47  1  0
 16 48  1  1
 17 49  1  0
 17 50  1  0
 18 51  1  0
 20 52  1  0
 21 53  1  0
 22 54  1  0
 25 55  1  0
 27 56  1  0
 28 57  1  0
 30 58  1  0
 33 59  1  0
 34 60  1  0
M  END
>  <smiles>  (19) 
O=C(NCC(=O)N1C[C@H](O)C[C@H]1C(=O)N[C@H](CO)c1cccc(Cl)c1)c1ccc2cc(F)ccc2n1

>  <score_type>  (19) 
oracle

>  <origin>  (19) 
autodockgpu

>  <m_score__min__energy>  (19) 
-9.3200000000000003

>  <m_primary>  (19) 
energy

>  <meeko>  (19) 
{"free_energy": -9.25, "intermolecular_energy": -12.24, "internal_energy": -3.97, "cluster_size": 4, "cluster_id": 1, "rank_in_cluster": 2}

>  <energy>  (19) 
-6.37

>  <cluster_rmsd>  (19) 
0.0

>  <rmsd>  (19) 
269.77

>  <cluster>  (19) 
5

$$$$

     RDKit          3D

 60 63  0  0  0  0  0  0  0  0999 V2000
  138.9340   72.4630  222.7170 O   0  0  0  0  0  0  0  0  0  0  0  0
  138.4030   71.3750  223.0780 C   0  0  0  0  0  0  0  0  0  0  0  0
  137.2470   70.9440  222.3350 N   0  0  0  0  0  0  0  0  0  0  0  0
  136.8230   71.7920  221.2710 C   0  0  0  0  0  0  0  0  0  0  0  0
  136.0980   73.0170  221.5620 C   0  0  0  0  0  0  0  0  0  0  0  0
  135.6410   73.6190  220.4970 O   0  0  0  0  0  0  0  0  0  0  0  0
  135.8240   73.6350  222.8100 N   0  0  0  0  0  0  0  0  0  0  0  0
  135.6410   73.0720  224.1280 C   0  0  0  0  0  0  0  0  0  0  0  0
  135.0770   74.2210  224.9770 C   0  0  2  0  0  0  0  0  0  0  0  0
  133.7180   74.2800  224.6880 O   0  0  0  0  0  0  0  0  0  0  0  0
  135.7900   75.3820  224.3580 C   0  0  0  0  0  0  0  0  0  0  0  0
  135.7110   75.1100  222.8870 C   0  0  1  0  0  0  0  0  0  0  0  0
  136.8650   75.7690  222.1970 C   0  0  0  0  0  0  0  0  0  0  0  0
  136.6160   76.7630  221.4340 O   0  0  0  0  0  0  0  0  0  0  0  0
  138.2080   75.3360  222.3600 N   0  0  0  0  0  0  0  0  0  0  0  0
  139.2910   76.0050  221.6650 C   0  0  2  0  0  0  0  0  0  0  0  0
  140.4620   75.1230  221.3730 C   0  0  0  0  0  0  0  0  0  0  0  0
  140.6150   74.1420  222.3440 O   0  0  0  0  0  0  0  0  0  0  0  0
  139.7030   77.2250  222.4090 C   0  0  0  0  0  0  0  0  0  0  0  0
  141.0480   77.3330  222.7200 C   0  0  0  0  0  0  0  0  0  0  0  0
  141.4900   78.4460  223.4130 C   0  0  0  0  0  0  0  0  0  0  0  0
  140.6480   79.4560  223.8080 C   0  0  0  0  0  0  0  0  0  0  0  0
  139.3070   79.3140  223.4790 C   0  0  0  0  0  0  0  0  0  0  0  0
  138.2020   80.5700  223.9600 Cl  0  0  0  0  0  0  0  0  0  0  0  0
  138.8320   78.2090  222.7860 C   0  0  0  0  0  0  0  0  0  0  0  0
  138.9020   70.5690  224.1790 C   0  0  0  0  0  0  0  0  0  0  0  0
  138.6920   69.2040  224.1020 C   0  0  0  0  0  0  0  0  0  0  0  0
  139.1300   68.3600  225.1000 C   0  0  0  0  0  0  0  0  0  0  0  0
  139.7900   68.9220  226.1830 C   0  0  0  0  0  0  0  0  0  0  0  0
  140.2570   68.1410  227.2190 C   0  0  0  0  0  0  0  0  0  0  0  0
  140.9130   68.6910  228.3000 C   0  0  0  0  0  0  0  0  0  0  0  0
  141.3620   67.8890  229.3060 F   0  0  0  0  0  0  0  0  0  0  0  0
  141.1040   70.0600  228.3390 C   0  0  0  0  0  0  0  0  0  0  0  0
  140.6490   70.8740  227.3170 C   0  0  0  0  0  0  0  0  0  0  0  0
  139.9900   70.2880  226.2420 C   0  0  0  0  0  0  0  0  0  0  0  0
  139.5480   71.1000  225.2430 N   0  0  0  0  0  0  0  0  0  0  0  0
  136.8280   70.0610  222.6620 H   0  0  0  0  0  0  0  0  0  0  0  0
  137.7278   72.0827  220.7171 H   0  0  0  0  0  0  0  0  0  0  0  0
  136.0797   71.1788  220.7404 H   0  0  0  0  0  0  0  0  0  0  0  0
  134.9316   72.2320  224.0944 H   0  0  0  0  0  0  0  0  0  0  0  0
  136.5799   72.6753  224.5416 H   0  0  0  0  0  0  0  0  0  0  0  0
  135.2011   74.1558  226.0680 H   0  0  0  0  0  0  0  0  0  0  0  0
  133.6170   73.9020  223.7670 H   0  0  0  0  0  0  0  0  0  0  0  0
  135.2883   76.3283  224.6086 H   0  0  0  0  0  0  0  0  0  0  0  0
  136.8252   75.4841  224.7157 H   0  0  0  0  0  0  0  0  0  0  0  0
  134.7959   75.4905  222.4098 H   0  0  0  0  0  0  0  0  0  0  0  0
  138.4770   74.5450  222.9820 H   0  0  0  0  0  0  0  0  0  0  0  0
  138.8969   76.2952  220.6799 H   0  0  0  0  0  0  0  0  0  0  0  0
  140.3104   74.6391  220.3968 H   0  0  0  0  0  0  0  0  0  0  0  0
  141.3691   75.7451  221.3651 H   0  0  0  0  0  0  0  0  0  0  0  0
  139.6920   73.9370  222.6590 H   0  0  0  0  0  0  0  0  0  0  0  0
  141.7549   76.5453  222.4204 H   0  0  0  0  0  0  0  0  0  0  0  0
  142.5596   78.5249  223.6574 H   0  0  0  0  0  0  0  0  0  0  0  0
  141.0177   80.3340  224.3578 H   0  0  0  0  0  0  0  0  0  0  0  0
  137.7626   78.1257  222.5420 H   0  0  0  0  0  0  0  0  0  0  0  0
  138.1672   68.7854  223.2306 H   0  0  0  0  0  0  0  0  0  0  0  0
  138.9614   67.2747  225.0395 H   0  0  0  0  0  0  0  0  0  0  0  0
  140.1025   67.0525  227.1822 H   0  0  0  0  0  0  0  0  0  0  0  0
  141.6262   70.5092  229.1966 H   0  0  0  0  0  0  0  0  0  0  0  0
  140.8053   71.9622  227.3541 H   0  0  0  0  0  0  0  0  0  0  0  0
  1  2  2  0
  2  3  1  0
  3  4  1  0
  4  5  1  0
  5  6  2  0
  5  7  1  0
  7  8  1  0
  8  9  1  0
  9 10  1  0
  9 11  1  0
 11 12  1  0
 12 13  1  0
 13 14  2  0
 13 15  1  0
 15 16  1  0
 16 17  1  0
 17 18  1  0
 16 19  1  0
 19 20  2  0
 20 21  1  0
 21 22  2  0
 22 23  1  0
 23 24  1  0
 23 25  2  0
  2 26  1  0
 26 27  2  0
 27 28  1  0
 28 29  2  0
 29 30  1  0
 30 31  2  0
 31 32  1  0
 31 33  1  0
 33 34  2  0
 34 35  1  0
 35 36  2  0
 12  7  1  0
 25 19  1  0
 36 26  1  0
 35 29  1  0
  3 37  1  0
  4 38  1  0
  4 39  1  0
  8 40  1  0
  8 41  1  0
  9 42  1  1
 10 43  1  0
 11 44  1  0
 11 45  1  0
 12 46  1  6
 15 47  1  0
 16 48  1  6
 17 49  1  0
 17 50  1  0
 18 51  1  0
 20 52  1  0
 21 53  1  0
 22 54  1  0
 25 55  1  0
 27 56  1  0
 28 57  1  0
 30 58  1  0
 33 59  1  0
 34 60  1  0
M  END
>  <smiles>  (20) 
O=C(NCC(=O)N1C[C@H](O)C[C@H]1C(=O)N[C@H](CO)c1cccc(Cl)c1)c1ccc2cc(F)ccc2n1

>  <score_type>  (20) 
oracle

>  <origin>  (20) 
autodockgpu

>  <m_score__min__energy>  (20) 
-9.3200000000000003

>  <m_primary>  (20) 
energy

>  <meeko>  (20) 
{"free_energy": -8.42, "intermolecular_energy": -11.4, "internal_energy": -4.11, "cluster_size": 12, "cluster_id": 2, "rank_in_cluster": 6}

>  <energy>  (20) 
-6.17

>  <cluster_rmsd>  (20) 
0.0

>  <rmsd>  (20) 
270.32

>  <cluster>  (20) 
6

$$$$
