
     RDKit          3D

 49 52  0  0  0  0  0  0  0  0999 V2000
  143.8190   76.7710  219.4320 O   0  0  0  0  0  0  0  0  0  0  0  0
  142.8450   76.2870  220.0440 C   0  0  0  0  0  0  0  0  0  0  0  0
  142.8810   74.9140  220.2730 C   0  0  0  0  0  0  0  0  0  0  0  0
  143.9140   74.1140  219.8610 C   0  0  0  0  0  0  0  0  0  0  0  0
  143.8830   72.7600  220.1230 C   0  0  0  0  0  0  0  0  0  0  0  0
  142.8090   72.1810  220.8050 C   0  0  0  0  0  0  0  0  0  0  0  0
  141.7630   72.9880  221.2220 C   0  0  0  0  0  0  0  0  0  0  0  0
  140.4100   72.2920  222.0770 Cl  0  0  0  0  0  0  0  0  0  0  0  0
  141.8260   74.3430  220.9440 C   0  0  0  0  0  0  0  0  0  0  0  0
  140.7980   75.0950  221.3600 N   0  0  0  0  0  0  0  0  0  0  0  0
  140.7840   76.4160  221.1300 C   0  0  0  0  0  0  0  0  0  0  0  0
  139.6310   77.2090  221.6030 C   0  0  0  0  0  0  0  0  0  0  0  0
  139.7150   77.8550  222.7430 C   0  0  0  0  0  0  0  0  0  0  0  0
  140.5410   79.0310  222.9680 C   0  0  0  0  0  0  0  0  0  0  0  0
  140.1780   80.3020  222.5810 C   0  0  0  0  0  0  0  0  0  0  0  0
  140.9860   81.4100  222.8090 C   0  0  0  0  0  0  0  0  0  0  0  0
  142.2140   81.2460  223.4500 C   0  0  0  0  0  0  0  0  0  0  0  0
  142.5950   79.9700  223.8450 C   0  0  0  0  0  0  0  0  0  0  0  0
  141.7660   78.9090  223.6010 C   0  0  0  0  0  0  0  0  0  0  0  0
  141.7920   77.0440  220.4740 N   0  0  0  0  0  0  0  0  0  0  0  0
  141.8380   78.4380  220.2080 C   0  0  0  0  0  0  0  0  0  0  0  0
  141.9730   78.8330  218.7690 C   0  0  0  0  0  0  0  0  0  0  0  0
  141.7650   80.3110  218.5200 C   0  0  0  0  0  0  0  0  0  0  0  0
  141.8320   80.5310  217.0060 C   0  0  0  0  0  0  0  0  0  0  0  0
  142.1860   79.3390  216.3030 N   0  0  0  0  0  0  0  0  0  0  0  0
  141.3200   78.2200  216.4990 C   0  0  0  0  0  0  0  0  0  0  0  0
  140.8900   78.1620  217.9420 C   0  0  0  0  0  0  0  0  0  0  0  0
  144.7674   74.5510  219.3217 H   0  0  0  0  0  0  0  0  0  0  0  0
  144.7174   72.1254  219.7897 H   0  0  0  0  0  0  0  0  0  0  0  0
  142.7946   71.0999  221.0077 H   0  0  0  0  0  0  0  0  0  0  0  0
  138.7092   77.2579  221.0048 H   0  0  0  0  0  0  0  0  0  0  0  0
  139.1184   77.4803  223.5878 H   0  0  0  0  0  0  0  0  0  0  0  0
  139.2131   80.4457  222.0727 H   0  0  0  0  0  0  0  0  0  0  0  0
  140.6591   82.4094  222.4861 H   0  0  0  0  0  0  0  0  0  0  0  0
  142.8678   82.1102  223.6389 H   0  0  0  0  0  0  0  0  0  0  0  0
  143.5587   79.8131  224.3516 H   0  0  0  0  0  0  0  0  0  0  0  0
  142.0894   77.9085  223.9242 H   0  0  0  0  0  0  0  0  0  0  0  0
  140.9088   78.8838  220.5926 H   0  0  0  0  0  0  0  0  0  0  0  0
  142.7523   78.8014  220.6999 H   0  0  0  0  0  0  0  0  0  0  0  0
  142.9967   78.5377  218.4954 H   0  0  0  0  0  0  0  0  0  0  0  0
  140.7819   80.6226  218.9026 H   0  0  0  0  0  0  0  0  0  0  0  0
  142.5347   80.9050  219.0345 H   0  0  0  0  0  0  0  0  0  0  0  0
  140.8471   80.8710  216.6534 H   0  0  0  0  0  0  0  0  0  0  0  0
  142.6095   81.2835  216.8080 H   0  0  0  0  0  0  0  0  0  0  0  0
  143.1770   79.0620  216.3680 H   0  0  0  0  0  0  0  0  0  0  0  0
  140.4334   78.3259  215.8565 H   0  0  0  0  0  0  0  0  0  0  0  0
  141.8539   77.2941  216.2388 H   0  0  0  0  0  0  0  0  0  0  0  0
  139.9356   78.6935  218.0710 H   0  0  0  0  0  0  0  0  0  0  0  0
  140.7485   77.1192  218.2623 H   0  0  0  0  0  0  0  0  0  0  0  0
  1  2  2  0
  2  3  1  0
  3  4  2  0
  4  5  1  0
  5  6  2  0
  6  7  1  0
  7  8  1  0
  7  9  2  0
  9 10  1  0
 10 11  2  0
 11 12  1  0
 12 13  2  0
 13 14  1  0
 14 15  2  0
 15 16  1  0
 16 17  2  0
 17 18  1  0
 18 19  2  0
 11 20  1  0
 20 21  1  0
 21 22  1  0
 22 23  1  0
 23 24  1  0
 24 25  1  0
 25 26  1  0
 26 27  1  0
 20  2  1  0
 27 22  1  0
  9  3  1  0
 19 14  1  0
  4 28  1  0
  5 29  1  0
  6 30  1  0
 12 31  1  0
 13 32  1  0
 15 33  1  0
 16 34  1  0
 17 35  1  0
 18 36  1  0
 19 37  1  0
 21 38  1  0
 21 39  1  0
 22 40  1  0
 23 41  1  0
 23 42  1  0
 24 43  1  0
 24 44  1  0
 25 45  1  0
 26 46  1  0
 26 47  1  0
 27 48  1  0
 27 49  1  0
M  END
>  <smiles>  (1) 
O=c1c2cccc(Cl)c2nc(/C=C/c2ccccc2)n1CC1CCNCC1

>  <score_type>  (1) 
oracle

>  <origin>  (1) 
autodockgpu

>  <m_score__min__energy>  (1) 
-8

>  <m_primary>  (1) 
energy

>  <meeko>  (1) 
{"free_energy": -7.1, "intermolecular_energy": -8.59, "internal_energy": -1.61, "cluster_size": 4, "cluster_id": 4, "rank_in_cluster": 4}

>  <energy>  (1) 
-8.0

>  <cluster_rmsd>  (1) 
0.0

>  <rmsd>  (1) 
269.6

>  <cluster>  (1) 
1

$$$$

     RDKit          3D

 49 52  0  0  0  0  0  0  0  0999 V2000
  138.4210   76.4430  221.5110 O   0  0  0  0  0  0  0  0  0  0  0  0
  138.7830   77.3940  222.2320 C   0  0  0  0  0  0  0  0  0  0  0  0
  137.7780   78.2550  222.6680 C   0  0  0  0  0  0  0  0  0  0  0  0
  136.4580   78.0910  222.3370 C   0  0  0  0  0  0  0  0  0  0  0  0
  135.5150   78.9820  222.8040 C   0  0  0  0  0  0  0  0  0  0  0  0
  135.8810   80.0610  223.6140 C   0  0  0  0  0  0  0  0  0  0  0  0
  137.2150   80.2300  223.9490 C   0  0  0  0  0  0  0  0  0  0  0  0
  137.6990   81.5680  224.9600 Cl  0  0  0  0  0  0  0  0  0  0  0  0
  138.1350   79.3160  223.4640 C   0  0  0  0  0  0  0  0  0  0  0  0
  139.4160   79.5080  223.8060 N   0  0  0  0  0  0  0  0  0  0  0  0
  140.3680   78.6670  223.3770 C   0  0  0  0  0  0  0  0  0  0  0  0
  141.7700   78.9160  223.7740 C   0  0  0  0  0  0  0  0  0  0  0  0
  142.4680   79.8280  223.1370 C   0  0  0  0  0  0  0  0  0  0  0  0
  141.9220   80.7520  222.1560 C   0  0  0  0  0  0  0  0  0  0  0  0
  141.2560   81.9110  222.4890 C   0  0  0  0  0  0  0  0  0  0  0  0
  140.7440   82.7780  221.5310 C   0  0  0  0  0  0  0  0  0  0  0  0
  140.9000   82.4770  220.1770 C   0  0  0  0  0  0  0  0  0  0  0  0
  141.5680   81.3120  219.8250 C   0  0  0  0  0  0  0  0  0  0  0  0
  142.0570   80.4880  220.8030 C   0  0  0  0  0  0  0  0  0  0  0  0
  140.0850   77.6000  222.5880 N   0  0  0  0  0  0  0  0  0  0  0  0
  141.0470   76.6710  222.1100 C   0  0  0  0  0  0  0  0  0  0  0  0
  141.7210   77.0220  220.8190 C   0  0  0  0  0  0  0  0  0  0  0  0
  140.8000   77.6660  219.8050 C   0  0  0  0  0  0  0  0  0  0  0  0
  141.6080   77.8640  218.5190 C   0  0  0  0  0  0  0  0  0  0  0  0
  142.9820   77.5140  218.6870 N   0  0  0  0  0  0  0  0  0  0  0  0
  143.2370   76.1730  219.1060 C   0  0  0  0  0  0  0  0  0  0  0  0
  142.2090   75.7610  220.1290 C   0  0  0  0  0  0  0  0  0  0  0  0
  136.1511   77.2490  221.6991 H   0  0  0  0  0  0  0  0  0  0  0  0
  134.4577   78.8415  222.5349 H   0  0  0  0  0  0  0  0  0  0  0  0
  135.1205   80.7662  223.9804 H   0  0  0  0  0  0  0  0  0  0  0  0
  142.2245   78.3427  224.5954 H   0  0  0  0  0  0  0  0  0  0  0  0
  143.5426   79.8979  223.3616 H   0  0  0  0  0  0  0  0  0  0  0  0
  141.1246   82.1595  223.5525 H   0  0  0  0  0  0  0  0  0  0  0  0
  140.2195   83.6950  221.8377 H   0  0  0  0  0  0  0  0  0  0  0  0
  140.5013   83.1500  219.4036 H   0  0  0  0  0  0  0  0  0  0  0  0
  141.7038   81.0520  218.7648 H   0  0  0  0  0  0  0  0  0  0  0  0
  142.5831   79.5710  220.4992 H   0  0  0  0  0  0  0  0  0  0  0  0
  141.8269   76.5699  222.8791 H   0  0  0  0  0  0  0  0  0  0  0  0
  140.4876   75.7457  221.9079 H   0  0  0  0  0  0  0  0  0  0  0  0
  142.5232   77.7182  221.1049 H   0  0  0  0  0  0  0  0  0  0  0  0
  139.9373   77.0118  219.6108 H   0  0  0  0  0  0  0  0  0  0  0  0
  140.4202   78.6282  220.1790 H   0  0  0  0  0  0  0  0  0  0  0  0
  141.1757   77.2333  217.7282 H   0  0  0  0  0  0  0  0  0  0  0  0
  141.5610   78.9298  218.2509 H   0  0  0  0  0  0  0  0  0  0  0  0
  143.5510   78.1890  219.2200 H   0  0  0  0  0  0  0  0  0  0  0  0
  143.1797   75.5005  218.2374 H   0  0  0  0  0  0  0  0  0  0  0  0
  144.2411   76.1130  219.5511 H   0  0  0  0  0  0  0  0  0  0  0  0
  141.3677   75.2546  219.6332 H   0  0  0  0  0  0  0  0  0  0  0  0
  142.6467   75.0644  220.8592 H   0  0  0  0  0  0  0  0  0  0  0  0
  1  2  2  0
  2  3  1  0
  3  4  2  0
  4  5  1  0
  5  6  2  0
  6  7  1  0
  7  8  1  0
  7  9  2  0
  9 10  1  0
 10 11  2  0
 11 12  1  0
 12 13  2  0
 13 14  1  0
 14 15  2  0
 15 16  1  0
 16 17  2  0
 17 18  1  0
 18 19  2  0
 11 20  1  0
 20 21  1  0
 21 22  1  0
 22 23  1  0
 23 24  1  0
 24 25  1  0
 25 26  1  0
 26 27  1  0
 20  2  1  0
 27 22  1  0
  9  3  1  0
 19 14  1  0
  4 28  1  0
  5 29  1  0
  6 30  1  0
 12 31  1  0
 13 32  1  0
 15 33  1  0
 16 34  1  0
 17 35  1  0
 18 36  1  0
 19 37  1  0
 21 38  1  0
 21 39  1  0
 22 40  1  0
 23 41  1  0
 23 42  1  0
 24 43  1  0
 24 44  1  0
 25 45  1  0
 26 46  1  0
 26 47  1  0
 27 48  1  0
 27 49  1  0
M  END
>  <smiles>  (2) 
O=c1c2cccc(Cl)c2nc(/C=C/c2ccccc2)n1CC1CCNCC1

>  <score_type>  (2) 
oracle

>  <origin>  (2) 
autodockgpu

>  <m_score__min__energy>  (2) 
-8

>  <m_primary>  (2) 
energy

>  <meeko>  (2) 
{"free_energy": -6.48, "intermolecular_energy": -7.97, "internal_energy": -2.18, "cluster_size": 4, "cluster_id": 5, "rank_in_cluster": 3}

>  <energy>  (2) 
-7.96

>  <cluster_rmsd>  (2) 
0.73

>  <rmsd>  (2) 
269.62

>  <cluster>  (2) 
1

$$$$

     RDKit          3D

 49 52  0  0  0  0  0  0  0  0999 V2000
  138.9540   67.4020  224.6600 O   0  0  0  0  0  0  0  0  0  0  0  0
  139.3040   68.5910  224.7980 C   0  0  0  0  0  0  0  0  0  0  0  0
  139.9260   68.9160  226.0000 C   0  0  0  0  0  0  0  0  0  0  0  0
  140.1530   68.0030  226.9960 C   0  0  0  0  0  0  0  0  0  0  0  0
  140.7760   68.3940  228.1630 C   0  0  0  0  0  0  0  0  0  0  0  0
  141.1820   69.7180  228.3540 C   0  0  0  0  0  0  0  0  0  0  0  0
  140.9530   70.6450  227.3490 C   0  0  0  0  0  0  0  0  0  0  0  0
  141.4520   72.3030  227.5610 Cl  0  0  0  0  0  0  0  0  0  0  0  0
  140.3270   70.2170  226.1910 C   0  0  0  0  0  0  0  0  0  0  0  0
  140.1200   71.1380  225.2390 N   0  0  0  0  0  0  0  0  0  0  0  0
  139.5200   70.8030  224.0880 C   0  0  0  0  0  0  0  0  0  0  0  0
  139.3070   71.8490  223.0660 C   0  0  0  0  0  0  0  0  0  0  0  0
  139.8920   71.7360  221.8960 C   0  0  0  0  0  0  0  0  0  0  0  0
  141.0200   72.5400  221.4540 C   0  0  0  0  0  0  0  0  0  0  0  0
  140.9560   73.9030  221.2630 C   0  0  0  0  0  0  0  0  0  0  0  0
  142.0500   74.6490  220.8400 C   0  0  0  0  0  0  0  0  0  0  0  0
  143.2660   74.0080  220.5930 C   0  0  0  0  0  0  0  0  0  0  0  0
  143.3460   72.6350  220.7800 C   0  0  0  0  0  0  0  0  0  0  0  0
  142.2420   71.9410  221.1990 C   0  0  0  0  0  0  0  0  0  0  0  0
  139.0990   69.5380  223.8350 N   0  0  0  0  0  0  0  0  0  0  0  0
  138.4660   69.1230  222.6340 C   0  0  0  0  0  0  0  0  0  0  0  0
  137.0600   68.6230  222.7660 C   0  0  0  0  0  0  0  0  0  0  0  0
  136.3120   68.5520  221.4520 C   0  0  0  0  0  0  0  0  0  0  0  0
  134.8750   68.1270  221.7700 C   0  0  0  0  0  0  0  0  0  0  0  0
  134.7000   67.8080  223.1500 N   0  0  0  0  0  0  0  0  0  0  0  0
  135.0130   68.8510  224.0750 C   0  0  0  0  0  0  0  0  0  0  0  0
  136.2420   69.5870  223.6070 C   0  0  0  0  0  0  0  0  0  0  0  0
  139.8382   66.9572  226.8650 H   0  0  0  0  0  0  0  0  0  0  0  0
  140.9561   67.6526  228.9554 H   0  0  0  0  0  0  0  0  0  0  0  0
  141.6764   70.0201  229.2890 H   0  0  0  0  0  0  0  0  0  0  0  0
  138.6640   72.7146  223.2836 H   0  0  0  0  0  0  0  0  0  0  0  0
  139.5008   70.9790  221.2004 H   0  0  0  0  0  0  0  0  0  0  0  0
  140.0037   74.4201  221.4523 H   0  0  0  0  0  0  0  0  0  0  0  0
  141.9586   75.7363  220.7008 H   0  0  0  0  0  0  0  0  0  0  0  0
  144.1433   74.5801  220.2568 H   0  0  0  0  0  0  0  0  0  0  0  0
  144.2922   72.1064  220.5924 H   0  0  0  0  0  0  0  0  0  0  0  0
  142.3306   70.8537  221.3399 H   0  0  0  0  0  0  0  0  0  0  0  0
  138.4536   69.9820  221.9470 H   0  0  0  0  0  0  0  0  0  0  0  0
  139.0514   68.2639  222.2744 H   0  0  0  0  0  0  0  0  0  0  0  0
  137.1627   67.6193  223.2042 H   0  0  0  0  0  0  0  0  0  0  0  0
  136.3140   69.5377  220.9637 H   0  0  0  0  0  0  0  0  0  0  0  0
  136.7894   67.8333  220.7697 H   0  0  0  0  0  0  0  0  0  0  0  0
  134.1956   68.9515  221.5081 H   0  0  0  0  0  0  0  0  0  0  0  0
  134.6526   67.2233  221.1837 H   0  0  0  0  0  0  0  0  0  0  0  0
  135.0980   66.9060  223.4530 H   0  0  0  0  0  0  0  0  0  0  0  0
  134.1675   69.5519  224.1369 H   0  0  0  0  0  0  0  0  0  0  0  0
  135.2025   68.4157  225.0673 H   0  0  0  0  0  0  0  0  0  0  0  0
  135.9502   70.4583  223.0022 H   0  0  0  0  0  0  0  0  0  0  0  0
  136.8288   69.9455  224.4656 H   0  0  0  0  0  0  0  0  0  0  0  0
  1  2  2  0
  2  3  1  0
  3  4  2  0
  4  5  1  0
  5  6  2  0
  6  7  1  0
  7  8  1  0
  7  9  2  0
  9 10  1  0
 10 11  2  0
 11 12  1  0
 12 13  2  0
 13 14  1  0
 14 15  2  0
 15 16  1  0
 16 17  2  0
 17 18  1  0
 18 19  2  0
 11 20  1  0
 20 21  1  0
 21 22  1  0
 22 23  1  0
 23 24  1  0
 24 25  1  0
 25 26  1  0
 26 27  1  0
 20  2  1  0
 27 22  1  0
  9  3  1  0
 19 14  1  0
  4 28  1  0
  5 29  1  0
  6 30  1  0
 12 31  1  0
 13 32  1  0
 15 33  1  0
 16 34  1  0
 17 35  1  0
 18 36  1  0
 19 37  1  0
 21 38  1  0
 21 39  1  0
 22 40  1  0
 23 41  1  0
 23 42  1  0
 24 43  1  0
 24 44  1  0
 25 45  1  0
 26 46  1  0
 26 47  1  0
 27 48  1  0
 27 49  1  0
M  END
>  <smiles>  (3) 
O=c1c2cccc(Cl)c2nc(/C=C/c2ccccc2)n1CC1CCNCC1

>  <score_type>  (3) 
oracle

>  <origin>  (3) 
autodockgpu

>  <m_score__min__energy>  (3) 
-8

>  <m_primary>  (3) 
energy

>  <meeko>  (3) 
{"free_energy": -7.96, "intermolecular_energy": -9.45, "internal_energy": -1.16, "cluster_size": 4, "cluster_id": 1, "rank_in_cluster": 2}

>  <energy>  (3) 
-7.76

>  <cluster_rmsd>  (3) 
0.79

>  <rmsd>  (3) 
269.71

>  <cluster>  (3) 
1

$$$$

     RDKit          3D

 49 52  0  0  0  0  0  0  0  0999 V2000
  143.8240   76.7470  219.4450 O   0  0  0  0  0  0  0  0  0  0  0  0
  142.8450   76.2690  220.0520 C   0  0  0  0  0  0  0  0  0  0  0  0
  142.8750   74.8970  220.2880 C   0  0  0  0  0  0  0  0  0  0  0  0
  143.9090   74.0910  219.8880 C   0  0  0  0  0  0  0  0  0  0  0  0
  143.8730   72.7390  220.1570 C   0  0  0  0  0  0  0  0  0  0  0  0
  142.7930   72.1670  220.8330 C   0  0  0  0  0  0  0  0  0  0  0  0
  141.7450   72.9780  221.2390 C   0  0  0  0  0  0  0  0  0  0  0  0
  140.3840   72.2900  222.0870 Cl  0  0  0  0  0  0  0  0  0  0  0  0
  141.8140   74.3310  220.9540 C   0  0  0  0  0  0  0  0  0  0  0  0
  140.7850   75.0880  221.3590 N   0  0  0  0  0  0  0  0  0  0  0  0
  140.7760   76.4080  221.1220 C   0  0  0  0  0  0  0  0  0  0  0  0
  139.6210   77.2070  221.5820 C   0  0  0  0  0  0  0  0  0  0  0  0
  139.6960   77.8510  222.7230 C   0  0  0  0  0  0  0  0  0  0  0  0
  140.5210   79.0260  222.9570 C   0  0  0  0  0  0  0  0  0  0  0  0
  140.1580   80.2990  222.5760 C   0  0  0  0  0  0  0  0  0  0  0  0
  140.9650   81.4060  222.8120 C   0  0  0  0  0  0  0  0  0  0  0  0
  142.1930   81.2380  223.4550 C   0  0  0  0  0  0  0  0  0  0  0  0
  142.5730   79.9610  223.8440 C   0  0  0  0  0  0  0  0  0  0  0  0
  141.7450   78.9000  223.5920 C   0  0  0  0  0  0  0  0  0  0  0  0
  141.7910   77.0300  220.4700 N   0  0  0  0  0  0  0  0  0  0  0  0
  141.8420   78.4220  220.1970 C   0  0  0  0  0  0  0  0  0  0  0  0
  141.9770   78.8100  218.7560 C   0  0  0  0  0  0  0  0  0  0  0  0
  141.7120   80.2760  218.4910 C   0  0  0  0  0  0  0  0  0  0  0  0
  141.7880   80.4850  216.9760 C   0  0  0  0  0  0  0  0  0  0  0  0
  142.1990   79.3030  216.2890 N   0  0  0  0  0  0  0  0  0  0  0  0
  141.3770   78.1510  216.4850 C   0  0  0  0  0  0  0  0  0  0  0  0
  140.9320   78.0880  217.9240 C   0  0  0  0  0  0  0  0  0  0  0  0
  144.7674   74.5226  219.3525 H   0  0  0  0  0  0  0  0  0  0  0  0
  144.7085   72.1006  219.8339 H   0  0  0  0  0  0  0  0  0  0  0  0
  142.7744   71.0869  221.0405 H   0  0  0  0  0  0  0  0  0  0  0  0
  138.7064   77.2615  220.9733 H   0  0  0  0  0  0  0  0  0  0  0  0
  139.0920   77.4755  223.5622 H   0  0  0  0  0  0  0  0  0  0  0  0
  139.1942   80.4449  222.0663 H   0  0  0  0  0  0  0  0  0  0  0  0
  140.6385   82.4073  222.4944 H   0  0  0  0  0  0  0  0  0  0  0  0
  142.8466   82.1011  223.6495 H   0  0  0  0  0  0  0  0  0  0  0  0
  143.5353   79.8020  224.3526 H   0  0  0  0  0  0  0  0  0  0  0  0
  142.0682   77.8977  223.9098 H   0  0  0  0  0  0  0  0  0  0  0  0
  140.9149   78.8732  220.5804 H   0  0  0  0  0  0  0  0  0  0  0  0
  142.7584   78.7841  220.6860 H   0  0  0  0  0  0  0  0  0  0  0  0
  143.0150   78.5548  218.4962 H   0  0  0  0  0  0  0  0  0  0  0  0
  140.7126   80.5506  218.8594 H   0  0  0  0  0  0  0  0  0  0  0  0
  142.4507   80.9054  219.0088 H   0  0  0  0  0  0  0  0  0  0  0  0
  140.7942   80.7808  216.6088 H   0  0  0  0  0  0  0  0  0  0  0  0
  142.5361   81.2672  216.7799 H   0  0  0  0  0  0  0  0  0  0  0  0
  143.1990   79.0670  216.3670 H   0  0  0  0  0  0  0  0  0  0  0  0
  140.4947   78.2149  215.8312 H   0  0  0  0  0  0  0  0  0  0  0  0
  141.9514   77.2456  216.2396 H   0  0  0  0  0  0  0  0  0  0  0  0
  139.9553   78.5811  218.0372 H   0  0  0  0  0  0  0  0  0  0  0  0
  140.8287   77.0433  218.2526 H   0  0  0  0  0  0  0  0  0  0  0  0
  1  2  2  0
  2  3  1  0
  3  4  2  0
  4  5  1  0
  5  6  2  0
  6  7  1  0
  7  8  1  0
  7  9  2  0
  9 10  1  0
 10 11  2  0
 11 12  1  0
 12 13  2  0
 13 14  1  0
 14 15  2  0
 15 16  1  0
 16 17  2  0
 17 18  1  0
 18 19  2  0
 11 20  1  0
 20 21  1  0
 21 22  1  0
 22 23  1  0
 23 24  1  0
 24 25  1  0
 25 26  1  0
 26 27  1  0
 20  2  1  0
 27 22  1  0
  9  3  1  0
 19 14  1  0
  4 28  1  0
  5 29  1  0
  6 30  1  0
 12 31  1  0
 13 32  1  0
 15 33  1  0
 16 34  1  0
 17 35  1  0
 18 36  1  0
 19 37  1  0
 21 38  1  0
 21 39  1  0
 22 40  1  0
 23 41  1  0
 23 42  1  0
 24 43  1  0
 24 44  1  0
 25 45  1  0
 26 46  1  0
 26 47  1  0
 27 48  1  0
 27 49  1  0
M  END
>  <smiles>  (4) 
O=c1c2cccc(Cl)c2nc(/C=C/c2ccccc2)n1CC1CCNCC1

>  <score_type>  (4) 
oracle

>  <origin>  (4) 
autodockgpu

>  <m_score__min__energy>  (4) 
-8

>  <m_primary>  (4) 
energy

>  <meeko>  (4) 
{"free_energy": -7.1, "intermolecular_energy": -8.6, "internal_energy": -1.61, "cluster_size": 4, "cluster_id": 4, "rank_in_cluster": 1}

>  <energy>  (4) 
-7.72

>  <cluster_rmsd>  (4) 
0.79

>  <rmsd>  (4) 
269.71

>  <cluster>  (4) 
1

$$$$

     RDKit          3D

 49 52  0  0  0  0  0  0  0  0999 V2000
  142.8760   75.7140  217.5640 O   0  0  0  0  0  0  0  0  0  0  0  0
  142.3560   76.4470  218.4300 C   0  0  0  0  0  0  0  0  0  0  0  0
  142.1370   77.7730  218.0650 C   0  0  0  0  0  0  0  0  0  0  0  0
  142.4640   78.2740  216.8320 C   0  0  0  0  0  0  0  0  0  0  0  0
  142.2180   79.5990  216.5380 C   0  0  0  0  0  0  0  0  0  0  0  0
  141.6390   80.4510  217.4820 C   0  0  0  0  0  0  0  0  0  0  0  0
  141.3070   79.9480  218.7300 C   0  0  0  0  0  0  0  0  0  0  0  0
  140.5800   80.9900  219.9270 Cl  0  0  0  0  0  0  0  0  0  0  0  0
  141.5660   78.6130  218.9910 C   0  0  0  0  0  0  0  0  0  0  0  0
  141.2340   78.1590  220.2070 N   0  0  0  0  0  0  0  0  0  0  0  0
  141.4530   76.8780  220.5380 C   0  0  0  0  0  0  0  0  0  0  0  0
  141.0760   76.4170  221.8900 C   0  0  0  0  0  0  0  0  0  0  0  0
  140.4300   77.2320  222.6930 C   0  0  0  0  0  0  0  0  0  0  0  0
  140.8660   78.5770  223.0310 C   0  0  0  0  0  0  0  0  0  0  0  0
  142.1860   78.9290  223.2060 C   0  0  0  0  0  0  0  0  0  0  0  0
  142.5770   80.2230  223.5290 C   0  0  0  0  0  0  0  0  0  0  0  0
  141.6080   81.2150  223.6870 C   0  0  0  0  0  0  0  0  0  0  0  0
  140.2720   80.8770  223.5140 C   0  0  0  0  0  0  0  0  0  0  0  0
  139.9350   79.5880  223.1960 C   0  0  0  0  0  0  0  0  0  0  0  0
  142.0130   75.9950  219.6720 N   0  0  0  0  0  0  0  0  0  0  0  0
  142.2610   74.6280  219.9610 C   0  0  0  0  0  0  0  0  0  0  0  0
  143.6150   74.1070  219.5860 C   0  0  0  0  0  0  0  0  0  0  0  0
  143.5800   72.7750  218.8690 C   0  0  0  0  0  0  0  0  0  0  0  0
  145.0320   72.3380  218.6520 C   0  0  0  0  0  0  0  0  0  0  0  0
  145.9630   73.3400  219.0600 N   0  0  0  0  0  0  0  0  0  0  0  0
  145.8790   73.7500  220.4260 C   0  0  0  0  0  0  0  0  0  0  0  0
  144.4310   73.8340  220.8380 C   0  0  0  0  0  0  0  0  0  0  0  0
  142.9228   77.6192  216.0765 H   0  0  0  0  0  0  0  0  0  0  0  0
  142.4818   79.9911  215.5447 H   0  0  0  0  0  0  0  0  0  0  0  0
  141.4493   81.5067  217.2379 H   0  0  0  0  0  0  0  0  0  0  0  0
  141.3339   75.4003  222.2215 H   0  0  0  0  0  0  0  0  0  0  0  0
  139.4926   76.8710  223.1413 H   0  0  0  0  0  0  0  0  0  0  0  0
  142.9601   78.1568  223.0855 H   0  0  0  0  0  0  0  0  0  0  0  0
  143.6424   80.4636  223.6592 H   0  0  0  0  0  0  0  0  0  0  0  0
  141.8969   82.2449  223.9436 H   0  0  0  0  0  0  0  0  0  0  0  0
  139.4888   81.6403  223.6317 H   0  0  0  0  0  0  0  0  0  0  0  0
  138.8705   79.3438  223.0651 H   0  0  0  0  0  0  0  0  0  0  0  0
  142.1352   74.4860  221.0445 H   0  0  0  0  0  0  0  0  0  0  0  0
  141.5471   74.0627  219.3439 H   0  0  0  0  0  0  0  0  0  0  0  0
  144.0394   74.8829  218.9319 H   0  0  0  0  0  0  0  0  0  0  0  0
  143.0503   72.0310  219.4821 H   0  0  0  0  0  0  0  0  0  0  0  0
  143.0514   72.8629  217.9084 H   0  0  0  0  0  0  0  0  0  0  0  0
  145.2176   71.4236  219.2346 H   0  0  0  0  0  0  0  0  0  0  0  0
  145.1747   72.1625  217.5755 H   0  0  0  0  0  0  0  0  0  0  0  0
  146.0500   74.1510  218.4290 H   0  0  0  0  0  0  0  0  0  0  0  0
  146.3989   73.0177  221.0611 H   0  0  0  0  0  0  0  0  0  0  0  0
  146.3508   74.7369  220.5420 H   0  0  0  0  0  0  0  0  0  0  0  0
  144.1143   72.8839  221.2929 H   0  0  0  0  0  0  0  0  0  0  0  0
  144.2846   74.6346  221.5780 H   0  0  0  0  0  0  0  0  0  0  0  0
  1  2  2  0
  2  3  1  0
  3  4  2  0
  4  5  1  0
  5  6  2  0
  6  7  1  0
  7  8  1  0
  7  9  2  0
  9 10  1  0
 10 11  2  0
 11 12  1  0
 12 13  2  0
 13 14  1  0
 14 15  2  0
 15 16  1  0
 16 17  2  0
 17 18  1  0
 18 19  2  0
 11 20  1  0
 20 21  1  0
 21 22  1  0
 22 23  1  0
 23 24  1  0
 24 25  1  0
 25 26  1  0
 26 27  1  0
 20  2  1  0
 27 22  1  0
  9  3  1  0
 19 14  1  0
  4 28  1  0
  5 29  1  0
  6 30  1  0
 12 31  1  0
 13 32  1  0
 15 33  1  0
 16 34  1  0
 17 35  1  0
 18 36  1  0
 19 37  1  0
 21 38  1  0
 21 39  1  0
 22 40  1  0
 23 41  1  0
 23 42  1  0
 24 43  1  0
 24 44  1  0
 25 45  1  0
 26 46  1  0
 26 47  1  0
 27 48  1  0
 27 49  1  0
M  END
>  <smiles>  (5) 
O=c1c2cccc(Cl)c2nc(/C=C/c2ccccc2)n1CC1CCNCC1

>  <score_type>  (5) 
oracle

>  <origin>  (5) 
autodockgpu

>  <m_score__min__energy>  (5) 
-8

>  <m_primary>  (5) 
energy

>  <meeko>  (5) 
{"free_energy": -7.67, "intermolecular_energy": -9.16, "internal_energy": -1.44, "cluster_size": 7, "cluster_id": 2, "rank_in_cluster": 3}

>  <energy>  (5) 
-7.68

>  <cluster_rmsd>  (5) 
0.0

>  <rmsd>  (5) 
270.05

>  <cluster>  (5) 
2

$$$$

     RDKit          3D

 49 52  0  0  0  0  0  0  0  0999 V2000
  138.4430   76.4920  221.5150 O   0  0  0  0  0  0  0  0  0  0  0  0
  138.8000   77.4440  222.2380 C   0  0  0  0  0  0  0  0  0  0  0  0
  137.7920   78.2970  222.6770 C   0  0  0  0  0  0  0  0  0  0  0  0
  136.4720   78.1270  222.3510 C   0  0  0  0  0  0  0  0  0  0  0  0
  135.5250   79.0110  222.8220 C   0  0  0  0  0  0  0  0  0  0  0  0
  135.8860   80.0900  223.6330 C   0  0  0  0  0  0  0  0  0  0  0  0
  137.2210   80.2660  223.9650 C   0  0  0  0  0  0  0  0  0  0  0  0
  137.7000   81.6040  224.9770 Cl  0  0  0  0  0  0  0  0  0  0  0  0
  138.1450   79.3590  223.4750 C   0  0  0  0  0  0  0  0  0  0  0  0
  139.4260   79.5580  223.8140 N   0  0  0  0  0  0  0  0  0  0  0  0
  140.3820   78.7240  223.3810 C   0  0  0  0  0  0  0  0  0  0  0  0
  141.7830   78.9800  223.7740 C   0  0  0  0  0  0  0  0  0  0  0  0
  142.4010   80.0380  223.3040 C   0  0  0  0  0  0  0  0  0  0  0  0
  141.9110   80.8670  222.2130 C   0  0  0  0  0  0  0  0  0  0  0  0
  141.1710   82.0130  222.4010 C   0  0  0  0  0  0  0  0  0  0  0  0
  140.7150   82.7870  221.3410 C   0  0  0  0  0  0  0  0  0  0  0  0
  141.0070   82.4020  220.0320 C   0  0  0  0  0  0  0  0  0  0  0  0
  141.7520   81.2480  219.8260 C   0  0  0  0  0  0  0  0  0  0  0  0
  142.1810   80.5180  220.9010 C   0  0  0  0  0  0  0  0  0  0  0  0
  140.1030   77.6570  222.5900 N   0  0  0  0  0  0  0  0  0  0  0  0
  141.0690   76.7350  222.1070 C   0  0  0  0  0  0  0  0  0  0  0  0
  141.7330   77.0900  220.8120 C   0  0  0  0  0  0  0  0  0  0  0  0
  140.8030   77.7330  219.8060 C   0  0  0  0  0  0  0  0  0  0  0  0
  141.6020   77.9360  218.5150 C   0  0  0  0  0  0  0  0  0  0  0  0
  142.9780   77.5890  218.6720 N   0  0  0  0  0  0  0  0  0  0  0  0
  143.2390   76.2470  219.0860 C   0  0  0  0  0  0  0  0  0  0  0  0
  142.2190   75.8310  220.1160 C   0  0  0  0  0  0  0  0  0  0  0  0
  136.1678   77.2843  221.7128 H   0  0  0  0  0  0  0  0  0  0  0  0
  134.4680   78.8646  222.5551 H   0  0  0  0  0  0  0  0  0  0  0  0
  135.1222   80.7899  224.0029 H   0  0  0  0  0  0  0  0  0  0  0  0
  142.3034   78.2900  224.4545 H   0  0  0  0  0  0  0  0  0  0  0  0
  143.3581   80.3183  223.7681 H   0  0  0  0  0  0  0  0  0  0  0  0
  140.9322   82.3271  223.4278 H   0  0  0  0  0  0  0  0  0  0  0  0
  140.1277   83.6972  221.5325 H   0  0  0  0  0  0  0  0  0  0  0  0
  140.6540   83.0009  219.1796 H   0  0  0  0  0  0  0  0  0  0  0  0
  141.9959   80.9225  218.8040 H   0  0  0  0  0  0  0  0  0  0  0  0
  142.7700   79.6082  220.7131 H   0  0  0  0  0  0  0  0  0  0  0  0
  141.8540   76.6401  222.8717 H   0  0  0  0  0  0  0  0  0  0  0  0
  140.5152   75.8055  221.9086 H   0  0  0  0  0  0  0  0  0  0  0  0
  142.5356   77.7876  221.0933 H   0  0  0  0  0  0  0  0  0  0  0  0
  139.9410   77.0764  219.6164 H   0  0  0  0  0  0  0  0  0  0  0  0
  140.4223   78.6931  220.1845 H   0  0  0  0  0  0  0  0  0  0  0  0
  141.1657   77.3062  217.7257 H   0  0  0  0  0  0  0  0  0  0  0  0
  141.5508   79.0025  218.2504 H   0  0  0  0  0  0  0  0  0  0  0  0
  143.5490   78.2640  219.2030 H   0  0  0  0  0  0  0  0  0  0  0  0
  143.1764   75.5763  218.2164 H   0  0  0  0  0  0  0  0  0  0  0  0
  144.2466   76.1877  219.5232 H   0  0  0  0  0  0  0  0  0  0  0  0
  141.3753   75.3237  219.6254 H   0  0  0  0  0  0  0  0  0  0  0  0
  142.6635   75.1342  220.8419 H   0  0  0  0  0  0  0  0  0  0  0  0
  1  2  2  0
  2  3  1  0
  3  4  2  0
  4  5  1  0
  5  6  2  0
  6  7  1  0
  7  8  1  0
  7  9  2  0
  9 10  1  0
 10 11  2  0
 11 12  1  0
 12 13  2  0
 13 14  1  0
 14 15  2  0
 15 16  1  0
 16 17  2  0
 17 18  1  0
 18 19  2  0
 11 20  1  0
 20 21  1  0
 21 22  1  0
 22 23  1  0
 23 24  1  0
 24 25  1  0
 25 26  1  0
 26 27  1  0
 20  2  1  0
 27 22  1  0
  9  3  1  0
 19 14  1  0
  4 28  1  0
  5 29  1  0
  6 30  1  0
 12 31  1  0
 13 32  1  0
 15 33  1  0
 16 34  1  0
 17 35  1  0
 18 36  1  0
 19 37  1  0
 21 38  1  0
 21 39  1  0
 22 40  1  0
 23 41  1  0
 23 42  1  0
 24 43  1  0
 24 44  1  0
 25 45  1  0
 26 46  1  0
 26 47  1  0
 27 48  1  0
 27 49  1  0
M  END
>  <smiles>  (6) 
O=c1c2cccc(Cl)c2nc(/C=C/c2ccccc2)n1CC1CCNCC1

>  <score_type>  (6) 
oracle

>  <origin>  (6) 
autodockgpu

>  <m_score__min__energy>  (6) 
-8

>  <m_primary>  (6) 
energy

>  <meeko>  (6) 
{"free_energy": -6.49, "intermolecular_energy": -7.98, "internal_energy": -2.19, "cluster_size": 4, "cluster_id": 5, "rank_in_cluster": 1}

>  <energy>  (6) 
-7.67

>  <cluster_rmsd>  (6) 
0.06

>  <rmsd>  (6) 
270.04

>  <cluster>  (6) 
2

$$$$

     RDKit          3D

 49 52  0  0  0  0  0  0  0  0999 V2000
  138.8880   67.3940  224.6710 O   0  0  0  0  0  0  0  0  0  0  0  0
  139.2620   68.5790  224.7900 C   0  0  0  0  0  0  0  0  0  0  0  0
  139.8710   68.9160  225.9960 C   0  0  0  0  0  0  0  0  0  0  0  0
  140.0630   68.0180  227.0130 C   0  0  0  0  0  0  0  0  0  0  0  0
  140.6750   68.4200  228.1820 C   0  0  0  0  0  0  0  0  0  0  0  0
  141.1060   69.7390  228.3530 C   0  0  0  0  0  0  0  0  0  0  0  0
  140.9130   70.6500  227.3260 C   0  0  0  0  0  0  0  0  0  0  0  0
  141.4430   72.3020  227.5120 Cl  0  0  0  0  0  0  0  0  0  0  0  0
  140.2960   70.2110  226.1660 C   0  0  0  0  0  0  0  0  0  0  0  0
  140.1240   71.1160  225.1930 N   0  0  0  0  0  0  0  0  0  0  0  0
  139.5350   70.7710  224.0390 C   0  0  0  0  0  0  0  0  0  0  0  0
  139.3610   71.8000  222.9930 C   0  0  0  0  0  0  0  0  0  0  0  0
  140.4120   72.2470  222.3460 C   0  0  0  0  0  0  0  0  0  0  0  0
  140.5530   73.6000  221.8310 C   0  0  0  0  0  0  0  0  0  0  0  0
  139.6000   74.5810  221.9960 C   0  0  0  0  0  0  0  0  0  0  0  0
  139.7590   75.8670  221.4940 C   0  0  0  0  0  0  0  0  0  0  0  0
  140.9210   76.1930  220.7930 C   0  0  0  0  0  0  0  0  0  0  0  0
  141.8910   75.2160  220.6180 C   0  0  0  0  0  0  0  0  0  0  0  0
  141.6910   73.9620  221.1310 C   0  0  0  0  0  0  0  0  0  0  0  0
  139.0920   69.5100  223.8050 N   0  0  0  0  0  0  0  0  0  0  0  0
  138.4700   69.0830  222.6020 C   0  0  0  0  0  0  0  0  0  0  0  0
  137.0600   68.5900  222.7250 C   0  0  0  0  0  0  0  0  0  0  0  0
  136.3170   68.5310  221.4080 C   0  0  0  0  0  0  0  0  0  0  0  0
  134.8770   68.1130  221.7170 C   0  0  0  0  0  0  0  0  0  0  0  0
  134.6940   67.7870  223.0950 N   0  0  0  0  0  0  0  0  0  0  0  0
  135.0090   68.8240  224.0270 C   0  0  0  0  0  0  0  0  0  0  0  0
  136.2440   69.5550  223.5680 C   0  0  0  0  0  0  0  0  0  0  0  0
  139.7290   66.9763  226.8972 H   0  0  0  0  0  0  0  0  0  0  0  0
  140.8263   67.6916  228.9922 H   0  0  0  0  0  0  0  0  0  0  0  0
  141.5917   70.0497  229.2898 H   0  0  0  0  0  0  0  0  0  0  0  0
  138.3589   72.1883  222.7584 H   0  0  0  0  0  0  0  0  0  0  0  0
  141.2457   71.5485  222.1815 H   0  0  0  0  0  0  0  0  0  0  0  0
  138.6789   74.3373  222.5456 H   0  0  0  0  0  0  0  0  0  0  0  0
  138.9746   76.6227  221.6480 H   0  0  0  0  0  0  0  0  0  0  0  0
  141.0653   77.2051  220.3869 H   0  0  0  0  0  0  0  0  0  0  0  0
  142.8161   75.4477  220.0698 H   0  0  0  0  0  0  0  0  0  0  0  0
  142.4740   73.2045  220.9791 H   0  0  0  0  0  0  0  0  0  0  0  0
  138.4685   69.9337  221.9047 H   0  0  0  0  0  0  0  0  0  0  0  0
  139.0557   68.2174  222.2589 H   0  0  0  0  0  0  0  0  0  0  0  0
  137.1551   67.5831  223.1576 H   0  0  0  0  0  0  0  0  0  0  0  0
  136.3269   69.5195  220.9254 H   0  0  0  0  0  0  0  0  0  0  0  0
  136.7930   67.8132  220.7238 H   0  0  0  0  0  0  0  0  0  0  0  0
  134.2036   68.9430  221.4569 H   0  0  0  0  0  0  0  0  0  0  0  0
  134.6517   67.2140  221.1245 H   0  0  0  0  0  0  0  0  0  0  0  0
  135.0850   66.8820  223.3950 H   0  0  0  0  0  0  0  0  0  0  0  0
  134.1672   69.5294  224.0887 H   0  0  0  0  0  0  0  0  0  0  0  0
  135.1916   68.3828  225.0179 H   0  0  0  0  0  0  0  0  0  0  0  0
  135.9599   70.4311  222.9666 H   0  0  0  0  0  0  0  0  0  0  0  0
  136.8294   69.9056  224.4308 H   0  0  0  0  0  0  0  0  0  0  0  0
  1  2  2  0
  2  3  1  0
  3  4  2  0
  4  5  1  0
  5  6  2  0
  6  7  1  0
  7  8  1  0
  7  9  2  0
  9 10  1  0
 10 11  2  0
 11 12  1  0
 12 13  2  0
 13 14  1  0
 14 15  2  0
 15 16  1  0
 16 17  2  0
 17 18  1  0
 18 19  2  0
 11 20  1  0
 20 21  1  0
 21 22  1  0
 22 23  1  0
 23 24  1  0
 24 25  1  0
 25 26  1  0
 26 27  1  0
 20  2  1  0
 27 22  1  0
  9  3  1  0
 19 14  1  0
  4 28  1  0
  5 29  1  0
  6 30  1  0
 12 31  1  0
 13 32  1  0
 15 33  1  0
 16 34  1  0
 17 35  1  0
 18 36  1  0
 19 37  1  0
 21 38  1  0
 21 39  1  0
 22 40  1  0
 23 41  1  0
 23 42  1  0
 24 43  1  0
 24 44  1  0
 25 45  1  0
 26 46  1  0
 26 47  1  0
 27 48  1  0
 27 49  1  0
M  END
>  <smiles>  (7) 
O=c1c2cccc(Cl)c2nc(/C=C/c2ccccc2)n1CC1CCNCC1

>  <score_type>  (7) 
oracle

>  <origin>  (7) 
autodockgpu

>  <m_score__min__energy>  (7) 
-8

>  <m_primary>  (7) 
energy

>  <meeko>  (7) 
{"free_energy": -8.0, "intermolecular_energy": -9.49, "internal_energy": -1.13, "cluster_size": 4, "cluster_id": 1, "rank_in_cluster": 1}

>  <energy>  (7) 
-7.67

>  <cluster_rmsd>  (7) 
0.07

>  <rmsd>  (7) 
270.04

>  <cluster>  (7) 
2

$$$$

     RDKit          3D

 49 52  0  0  0  0  0  0  0  0999 V2000
  139.2240   67.1370  225.0370 O   0  0  0  0  0  0  0  0  0  0  0  0
  139.4940   68.3550  225.0180 C   0  0  0  0  0  0  0  0  0  0  0  0
  140.1210   68.8660  226.1520 C   0  0  0  0  0  0  0  0  0  0  0  0
  140.4340   68.0990  227.2430 C   0  0  0  0  0  0  0  0  0  0  0  0
  141.0560   68.6710  228.3330 C   0  0  0  0  0  0  0  0  0  0  0  0
  141.3730   70.0320  228.3490 C   0  0  0  0  0  0  0  0  0  0  0  0
  141.0560   70.8110  227.2480 C   0  0  0  0  0  0  0  0  0  0  0  0
  141.4430   72.5130  227.2410 Cl  0  0  0  0  0  0  0  0  0  0  0  0
  140.4340   70.2040  226.1700 C   0  0  0  0  0  0  0  0  0  0  0  0
  140.1410   70.9850  225.1220 N   0  0  0  0  0  0  0  0  0  0  0  0
  139.5390   70.4720  224.0390 C   0  0  0  0  0  0  0  0  0  0  0  0
  139.2290   71.3680  222.9050 C   0  0  0  0  0  0  0  0  0  0  0  0
  139.8260   72.5350  222.8230 C   0  0  0  0  0  0  0  0  0  0  0  0
  140.9270   72.8400  221.9240 C   0  0  0  0  0  0  0  0  0  0  0  0
  141.8230   71.8980  221.4700 C   0  0  0  0  0  0  0  0  0  0  0  0
  142.8680   72.2150  220.6100 C   0  0  0  0  0  0  0  0  0  0  0  0
  143.0310   73.5340  220.1830 C   0  0  0  0  0  0  0  0  0  0  0  0
  142.1360   74.4970  220.6330 C   0  0  0  0  0  0  0  0  0  0  0  0
  141.1220   74.1370  221.4790 C   0  0  0  0  0  0  0  0  0  0  0  0
  139.2010   69.1610  223.9550 N   0  0  0  0  0  0  0  0  0  0  0  0
  138.5710   68.5590  222.8340 C   0  0  0  0  0  0  0  0  0  0  0  0
  137.0900   68.3550  222.9380 C   0  0  0  0  0  0  0  0  0  0  0  0
  136.3520   68.5600  221.6320 C   0  0  0  0  0  0  0  0  0  0  0  0
  134.8560   68.4180  221.9290 C   0  0  0  0  0  0  0  0  0  0  0  0
  134.6090   68.0210  223.2780 N   0  0  0  0  0  0  0  0  0  0  0  0
  135.1280   68.8890  224.2880 C   0  0  0  0  0  0  0  0  0  0  0  0
  136.4870   69.3910  223.8710 C   0  0  0  0  0  0  0  0  0  0  0  0
  140.1892   67.0266  227.2497 H   0  0  0  0  0  0  0  0  0  0  0  0
  141.3064   68.0464  229.2031 H   0  0  0  0  0  0  0  0  0  0  0  0
  141.8676   70.4788  229.2241 H   0  0  0  0  0  0  0  0  0  0  0  0
  138.5047   71.0601  222.1365 H   0  0  0  0  0  0  0  0  0  0  0  0
  139.4671   73.3394  223.4819 H   0  0  0  0  0  0  0  0  0  0  0  0
  141.7074   70.8552  221.8004 H   0  0  0  0  0  0  0  0  0  0  0  0
  143.5614   71.4323  220.2684 H   0  0  0  0  0  0  0  0  0  0  0  0
  143.8521   73.8058  219.5034 H   0  0  0  0  0  0  0  0  0  0  0  0
  142.2419   75.5435  220.3109 H   0  0  0  0  0  0  0  0  0  0  0  0
  140.4269   74.9172  221.8228 H   0  0  0  0  0  0  0  0  0  0  0  0
  138.7612   69.1978  221.9589 H   0  0  0  0  0  0  0  0  0  0  0  0
  139.0027   67.5500  222.7603 H   0  0  0  0  0  0  0  0  0  0  0  0
  136.9769   67.3170  223.2839 H   0  0  0  0  0  0  0  0  0  0  0  0
  136.5634   69.5632  221.2333 H   0  0  0  0  0  0  0  0  0  0  0  0
  136.6728   67.8215  220.8825 H   0  0  0  0  0  0  0  0  0  0  0  0
  134.3658   69.3862  221.7493 H   0  0  0  0  0  0  0  0  0  0  0  0
  134.4533   67.6364  221.2680 H   0  0  0  0  0  0  0  0  0  0  0  0
  134.8070   67.0330  223.4950 H   0  0  0  0  0  0  0  0  0  0  0  0
  134.4475   69.7427  224.4227 H   0  0  0  0  0  0  0  0  0  0  0  0
  135.2164   68.3369  225.2353 H   0  0  0  0  0  0  0  0  0  0  0  0
  136.3876   70.3541  223.3488 H   0  0  0  0  0  0  0  0  0  0  0  0
  137.1307   69.5420  224.7501 H   0  0  0  0  0  0  0  0  0  0  0  0
  1  2  2  0
  2  3  1  0
  3  4  2  0
  4  5  1  0
  5  6  2  0
  6  7  1  0
  7  8  1  0
  7  9  2  0
  9 10  1  0
 10 11  2  0
 11 12  1  0
 12 13  2  0
 13 14  1  0
 14 15  2  0
 15 16  1  0
 16 17  2  0
 17 18  1  0
 18 19  2  0
 11 20  1  0
 20 21  1  0
 21 22  1  0
 22 23  1  0
 23 24  1  0
 24 25  1  0
 25 26  1  0
 26 27  1  0
 20  2  1  0
 27 22  1  0
  9  3  1  0
 19 14  1  0
  4 28  1  0
  5 29  1  0
  6 30  1  0
 12 31  1  0
 13 32  1  0
 15 33  1  0
 16 34  1  0
 17 35  1  0
 18 36  1  0
 19 37  1  0
 21 38  1  0
 21 39  1  0
 22 40  1  0
 23 41  1  0
 23 42  1  0
 24 43  1  0
 24 44  1  0
 25 45  1  0
 26 46  1  0
 26 47  1  0
 27 48  1  0
 27 49  1  0
M  END
>  <smiles>  (8) 
O=c1c2cccc(Cl)c2nc(/C=C/c2ccccc2)n1CC1CCNCC1

>  <score_type>  (8) 
oracle

>  <origin>  (8) 
autodockgpu

>  <m_score__min__energy>  (8) 
-8

>  <m_primary>  (8) 
energy

>  <meeko>  (8) 
{"free_energy": -7.76, "intermolecular_energy": -9.25, "internal_energy": -1.3, "cluster_size": 4, "cluster_id": 1, "rank_in_cluster": 3}

>  <energy>  (8) 
-7.64

>  <cluster_rmsd>  (8) 
0.05

>  <rmsd>  (8) 
270.04

>  <cluster>  (8) 
2

$$$$

     RDKit          3D

 49 52  0  0  0  0  0  0  0  0999 V2000
  142.8510   75.7140  217.5620 O   0  0  0  0  0  0  0  0  0  0  0  0
  142.3400   76.4540  218.4260 C   0  0  0  0  0  0  0  0  0  0  0  0
  142.1250   77.7790  218.0560 C   0  0  0  0  0  0  0  0  0  0  0  0
  142.4470   78.2710  216.8180 C   0  0  0  0  0  0  0  0  0  0  0  0
  142.2060   79.5950  216.5180 C   0  0  0  0  0  0  0  0  0  0  0  0
  141.6360   80.4550  217.4610 C   0  0  0  0  0  0  0  0  0  0  0  0
  141.3090   79.9610  218.7140 C   0  0  0  0  0  0  0  0  0  0  0  0
  140.5940   81.0130  219.9080 Cl  0  0  0  0  0  0  0  0  0  0  0  0
  141.5640   78.6260  218.9800 C   0  0  0  0  0  0  0  0  0  0  0  0
  141.2370   78.1800  220.2010 N   0  0  0  0  0  0  0  0  0  0  0  0
  141.4510   76.9000  220.5370 C   0  0  0  0  0  0  0  0  0  0  0  0
  141.0790   76.4490  221.8940 C   0  0  0  0  0  0  0  0  0  0  0  0
  140.4750   77.2830  222.7090 C   0  0  0  0  0  0  0  0  0  0  0  0
  140.9400   78.6270  223.0110 C   0  0  0  0  0  0  0  0  0  0  0  0
  142.2710   78.9760  223.0760 C   0  0  0  0  0  0  0  0  0  0  0  0
  142.6900   80.2690  223.3660 C   0  0  0  0  0  0  0  0  0  0  0  0
  141.7390   81.2630  223.6050 C   0  0  0  0  0  0  0  0  0  0  0  0
  140.3930   80.9270  223.5440 C   0  0  0  0  0  0  0  0  0  0  0  0
  140.0280   79.6400  223.2530 C   0  0  0  0  0  0  0  0  0  0  0  0
  142.0020   76.0100  219.6730 N   0  0  0  0  0  0  0  0  0  0  0  0
  142.2450   74.6430  219.9680 C   0  0  0  0  0  0  0  0  0  0  0  0
  143.5980   74.1170  219.5980 C   0  0  0  0  0  0  0  0  0  0  0  0
  143.5580   72.7950  218.8610 C   0  0  0  0  0  0  0  0  0  0  0  0
  145.0080   72.3490  218.6500 C   0  0  0  0  0  0  0  0  0  0  0  0
  145.9440   73.3370  219.0820 N   0  0  0  0  0  0  0  0  0  0  0  0
  145.8500   73.7280  220.4530 C   0  0  0  0  0  0  0  0  0  0  0  0
  144.4000   73.8170  220.8530 C   0  0  0  0  0  0  0  0  0  0  0  0
  142.8978   77.6095  216.0636 H   0  0  0  0  0  0  0  0  0  0  0  0
  142.4663   79.9804  215.5212 H   0  0  0  0  0  0  0  0  0  0  0  0
  141.4494   81.5101  217.2119 H   0  0  0  0  0  0  0  0  0  0  0  0
  141.3061   75.4229  222.2189 H   0  0  0  0  0  0  0  0  0  0  0  0
  139.5513   76.9402  223.1981 H   0  0  0  0  0  0  0  0  0  0  0  0
  143.0307   78.2022  222.8915 H   0  0  0  0  0  0  0  0  0  0  0  0
  143.7630   80.5076  223.4069 H   0  0  0  0  0  0  0  0  0  0  0  0
  142.0500   82.2923  223.8371 H   0  0  0  0  0  0  0  0  0  0  0  0
  139.6237   81.6913  223.7286 H   0  0  0  0  0  0  0  0  0  0  0  0
  138.9557   79.3986  223.2093 H   0  0  0  0  0  0  0  0  0  0  0  0
  142.1163   74.5055  221.0518 H   0  0  0  0  0  0  0  0  0  0  0  0
  141.5306   74.0773  219.3518 H   0  0  0  0  0  0  0  0  0  0  0  0
  144.0350   74.8996  218.9603 H   0  0  0  0  0  0  0  0  0  0  0  0
  143.0169   72.0467  219.4587 H   0  0  0  0  0  0  0  0  0  0  0  0
  143.0384   72.9012  217.8973 H   0  0  0  0  0  0  0  0  0  0  0  0
  145.1807   71.4241  219.2198 H   0  0  0  0  0  0  0  0  0  0  0  0
  145.1589   72.1890  217.5722 H   0  0  0  0  0  0  0  0  0  0  0  0
  146.0430   74.1560  218.4640 H   0  0  0  0  0  0  0  0  0  0  0  0
  146.3586   72.9828  221.0823 H   0  0  0  0  0  0  0  0  0  0  0  0
  146.3278   74.7097  220.5873 H   0  0  0  0  0  0  0  0  0  0  0  0
  144.0714   72.8622  221.2894 H   0  0  0  0  0  0  0  0  0  0  0  0
  144.2531   74.6065  221.6048 H   0  0  0  0  0  0  0  0  0  0  0  0
  1  2  2  0
  2  3  1  0
  3  4  2  0
  4  5  1  0
  5  6  2  0
  6  7  1  0
  7  8  1  0
  7  9  2  0
  9 10  1  0
 10 11  2  0
 11 12  1  0
 12 13  2  0
 13 14  1  0
 14 15  2  0
 15 16  1  0
 16 17  2  0
 17 18  1  0
 18 19  2  0
 11 20  1  0
 20 21  1  0
 21 22  1  0
 22 23  1  0
 23 24  1  0
 24 25  1  0
 25 26  1  0
 26 27  1  0
 20  2  1  0
 27 22  1  0
  9  3  1  0
 19 14  1  0
  4 28  1  0
  5 29  1  0
  6 30  1  0
 12 31  1  0
 13 32  1  0
 15 33  1  0
 16 34  1  0
 17 35  1  0
 18 36  1  0
 19 37  1  0
 21 38  1  0
 21 39  1  0
 22 40  1  0
 23 41  1  0
 23 42  1  0
 24 43  1  0
 24 44  1  0
 25 45  1  0
 26 46  1  0
 26 47  1  0
 27 48  1  0
 27 49  1  0
M  END
>  <smiles>  (9) 
O=c1c2cccc(Cl)c2nc(/C=C/c2ccccc2)n1CC1CCNCC1

>  <score_type>  (9) 
oracle

>  <origin>  (9) 
autodockgpu

>  <m_score__min__energy>  (9) 
-8

>  <m_primary>  (9) 
energy

>  <meeko>  (9) 
{"free_energy": -7.67, "intermolecular_energy": -9.16, "internal_energy": -1.43, "cluster_size": 7, "cluster_id": 2, "rank_in_cluster": 2}

>  <energy>  (9) 
-7.59

>  <cluster_rmsd>  (9) 
0.33

>  <rmsd>  (9) 
270.17

>  <cluster>  (9) 
2

$$$$

     RDKit          3D

 49 52  0  0  0  0  0  0  0  0999 V2000
  142.8740   75.8730  217.3670 O   0  0  0  0  0  0  0  0  0  0  0  0
  142.4410   76.5500  218.3210 C   0  0  0  0  0  0  0  0  0  0  0  0
  142.2850   77.9140  218.0900 C   0  0  0  0  0  0  0  0  0  0  0  0
  142.5830   78.5090  216.8920 C   0  0  0  0  0  0  0  0  0  0  0  0
  142.4030   79.8670  216.7320 C   0  0  0  0  0  0  0  0  0  0  0  0
  141.9210   80.6580  217.7780 C   0  0  0  0  0  0  0  0  0  0  0  0
  141.6190   80.0600  218.9920 C   0  0  0  0  0  0  0  0  0  0  0  0
  141.0140   81.0240  220.3140 Cl  0  0  0  0  0  0  0  0  0  0  0  0
  141.8110   78.6940  219.1170 C   0  0  0  0  0  0  0  0  0  0  0  0
  141.5100   78.1470  220.3030 N   0  0  0  0  0  0  0  0  0  0  0  0
  141.6670   76.8310  220.5040 C   0  0  0  0  0  0  0  0  0  0  0  0
  141.3280   76.2670  221.8280 C   0  0  0  0  0  0  0  0  0  0  0  0
  140.5990   76.9730  222.6610 C   0  0  0  0  0  0  0  0  0  0  0  0
  140.8910   78.3390  223.0640 C   0  0  0  0  0  0  0  0  0  0  0  0
  139.9250   79.3060  223.2370 C   0  0  0  0  0  0  0  0  0  0  0  0
  140.2310   80.6060  223.6220 C   0  0  0  0  0  0  0  0  0  0  0  0
  141.5620   80.9620  223.8440 C   0  0  0  0  0  0  0  0  0  0  0  0
  142.5480   79.9990  223.6730 C   0  0  0  0  0  0  0  0  0  0  0  0
  142.1990   78.7310  223.2930 C   0  0  0  0  0  0  0  0  0  0  0  0
  142.1310   76.0030  219.5340 N   0  0  0  0  0  0  0  0  0  0  0  0
  142.3100   74.6030  219.6840 C   0  0  0  0  0  0  0  0  0  0  0  0
  143.7010   74.0870  219.4690 C   0  0  0  0  0  0  0  0  0  0  0  0
  143.7520   72.7410  218.7790 C   0  0  0  0  0  0  0  0  0  0  0  0
  145.2210   72.3120  218.7290 C   0  0  0  0  0  0  0  0  0  0  0  0
  146.0970   73.3290  219.2170 N   0  0  0  0  0  0  0  0  0  0  0  0
  145.8610   73.7640  220.5570 C   0  0  0  0  0  0  0  0  0  0  0  0
  144.3770   73.8440  220.8070 C   0  0  0  0  0  0  0  0  0  0  0  0
  142.9659   77.9032  216.0575 H   0  0  0  0  0  0  0  0  0  0  0  0
  142.6427   80.3347  215.7657 H   0  0  0  0  0  0  0  0  0  0  0  0
  141.7830   81.7406  217.6403 H   0  0  0  0  0  0  0  0  0  0  0  0
  141.6832   75.2655  222.1124 H   0  0  0  0  0  0  0  0  0  0  0  0
  139.7026   76.4966  223.0846 H   0  0  0  0  0  0  0  0  0  0  0  0
  138.8720   79.0392  223.0639 H   0  0  0  0  0  0  0  0  0  0  0  0
  139.4299   81.3488  223.7508 H   0  0  0  0  0  0  0  0  0  0  0  0
  141.8251   81.9857  224.1486 H   0  0  0  0  0  0  0  0  0  0  0  0
  143.6046   80.2540  223.8422 H   0  0  0  0  0  0  0  0  0  0  0  0
  142.9979   77.9861  223.1631 H   0  0  0  0  0  0  0  0  0  0  0  0
  142.0063   74.3334  220.7063 H   0  0  0  0  0  0  0  0  0  0  0  0
  141.6994   74.1417  218.8938 H   0  0  0  0  0  0  0  0  0  0  0  0
  144.1896   74.8542  218.8504 H   0  0  0  0  0  0  0  0  0  0  0  0
  143.1636   72.0045  219.3459 H   0  0  0  0  0  0  0  0  0  0  0  0
  143.3300   72.8061  217.7653 H   0  0  0  0  0  0  0  0  0  0  0  0
  145.3477   71.4097  219.3453 H   0  0  0  0  0  0  0  0  0  0  0  0
  145.4807   72.1185  217.6777 H   0  0  0  0  0  0  0  0  0  0  0  0
  146.2460   74.1280  218.5830 H   0  0  0  0  0  0  0  0  0  0  0  0
  146.3128   73.0482  221.2595 H   0  0  0  0  0  0  0  0  0  0  0  0
  146.3109   74.7570  220.7040 H   0  0  0  0  0  0  0  0  0  0  0  0
  144.0182   72.9000  221.2431 H   0  0  0  0  0  0  0  0  0  0  0  0
  144.1460   74.6570  221.5110 H   0  0  0  0  0  0  0  0  0  0  0  0
  1  2  2  0
  2  3  1  0
  3  4  2  0
  4  5  1  0
  5  6  2  0
  6  7  1  0
  7  8  1  0
  7  9  2  0
  9 10  1  0
 10 11  2  0
 11 12  1  0
 12 13  2  0
 13 14  1  0
 14 15  2  0
 15 16  1  0
 16 17  2  0
 17 18  1  0
 18 19  2  0
 11 20  1  0
 20 21  1  0
 21 22  1  0
 22 23  1  0
 23 24  1  0
 24 25  1  0
 25 26  1  0
 26 27  1  0
 20  2  1  0
 27 22  1  0
  9  3  1  0
 19 14  1  0
  4 28  1  0
  5 29  1  0
  6 30  1  0
 12 31  1  0
 13 32  1  0
 15 33  1  0
 16 34  1  0
 17 35  1  0
 18 36  1  0
 19 37  1  0
 21 38  1  0
 21 39  1  0
 22 40  1  0
 23 41  1  0
 23 42  1  0
 24 43  1  0
 24 44  1  0
 25 45  1  0
 26 46  1  0
 26 47  1  0
 27 48  1  0
 27 49  1  0
M  END
>  <smiles>  (10) 
O=c1c2cccc(Cl)c2nc(/C=C/c2ccccc2)n1CC1CCNCC1

>  <score_type>  (10) 
oracle

>  <origin>  (10) 
autodockgpu

>  <m_score__min__energy>  (10) 
-8

>  <m_primary>  (10) 
energy

>  <meeko>  (10) 
{"free_energy": -7.47, "intermolecular_energy": -8.97, "internal_energy": -1.5, "cluster_size": 7, "cluster_id": 2, "rank_in_cluster": 7}

>  <energy>  (10) 
-7.51

>  <cluster_rmsd>  (10) 
0.35

>  <rmsd>  (10) 
270.15

>  <cluster>  (10) 
2

$$$$

     RDKit          3D

 49 52  0  0  0  0  0  0  0  0999 V2000
  138.4420   76.4100  221.4970 O   0  0  0  0  0  0  0  0  0  0  0  0
  138.7990   77.3650  222.2150 C   0  0  0  0  0  0  0  0  0  0  0  0
  137.7900   78.2180  222.6560 C   0  0  0  0  0  0  0  0  0  0  0  0
  136.4700   78.0430  222.3330 C   0  0  0  0  0  0  0  0  0  0  0  0
  135.5210   78.9260  222.8050 C   0  0  0  0  0  0  0  0  0  0  0  0
  135.8830   80.0080  223.6120 C   0  0  0  0  0  0  0  0  0  0  0  0
  137.2170   80.1880  223.9400 C   0  0  0  0  0  0  0  0  0  0  0  0
  137.6960   81.5300  224.9470 Cl  0  0  0  0  0  0  0  0  0  0  0  0
  138.1430   79.2820  223.4500 C   0  0  0  0  0  0  0  0  0  0  0  0
  139.4240   79.4850  223.7850 N   0  0  0  0  0  0  0  0  0  0  0  0
  140.3810   78.6520  223.3510 C   0  0  0  0  0  0  0  0  0  0  0  0
  141.7830   78.9130  223.7390 C   0  0  0  0  0  0  0  0  0  0  0  0
  142.4650   79.8400  223.1070 C   0  0  0  0  0  0  0  0  0  0  0  0
  141.9150   80.7260  222.0940 C   0  0  0  0  0  0  0  0  0  0  0  0
  142.0100   80.4870  220.7410 C   0  0  0  0  0  0  0  0  0  0  0  0
  141.4750   81.3510  219.7920 C   0  0  0  0  0  0  0  0  0  0  0  0
  140.8150   82.5080  220.2090 C   0  0  0  0  0  0  0  0  0  0  0  0
  140.7110   82.7630  221.5700 C   0  0  0  0  0  0  0  0  0  0  0  0
  141.2530   81.8830  222.4680 C   0  0  0  0  0  0  0  0  0  0  0  0
  140.1020   77.5820  222.5630 N   0  0  0  0  0  0  0  0  0  0  0  0
  141.0690   76.6610  222.0810 C   0  0  0  0  0  0  0  0  0  0  0  0
  141.7400   77.0220  220.7900 C   0  0  0  0  0  0  0  0  0  0  0  0
  140.8080   77.6360  219.7680 C   0  0  0  0  0  0  0  0  0  0  0  0
  141.6170   77.8480  218.4850 C   0  0  0  0  0  0  0  0  0  0  0  0
  142.9990   77.5360  218.6620 N   0  0  0  0  0  0  0  0  0  0  0  0
  143.2870   76.2030  219.0900 C   0  0  0  0  0  0  0  0  0  0  0  0
  142.2650   75.7700  220.1100 C   0  0  0  0  0  0  0  0  0  0  0  0
  136.1669   77.1981  221.6971 H   0  0  0  0  0  0  0  0  0  0  0  0
  134.4634   78.7762  222.5422 H   0  0  0  0  0  0  0  0  0  0  0  0
  135.1189   80.7075  223.9819 H   0  0  0  0  0  0  0  0  0  0  0  0
  142.2510   78.3358  224.5501 H   0  0  0  0  0  0  0  0  0  0  0  0
  143.5288   79.9545  223.3623 H   0  0  0  0  0  0  0  0  0  0  0  0
  142.5282   79.5792  220.3985 H   0  0  0  0  0  0  0  0  0  0  0  0
  141.5713   81.1242  218.7199 H   0  0  0  0  0  0  0  0  0  0  0  0
  140.3856   83.2044  219.4737 H   0  0  0  0  0  0  0  0  0  0  0  0
  140.1956   83.6677  221.9250 H   0  0  0  0  0  0  0  0  0  0  0  0
  141.1577   82.1066  223.5408 H   0  0  0  0  0  0  0  0  0  0  0  0
  141.8501   76.5616  222.8491 H   0  0  0  0  0  0  0  0  0  0  0  0
  140.5154   75.7328  221.8759 H   0  0  0  0  0  0  0  0  0  0  0  0
  142.5222   77.7408  221.0755 H   0  0  0  0  0  0  0  0  0  0  0  0
  139.9636   76.9584  219.5732 H   0  0  0  0  0  0  0  0  0  0  0  0
  140.4013   78.5900  220.1347 H   0  0  0  0  0  0  0  0  0  0  0  0
  141.2059   77.2012  217.6959 H   0  0  0  0  0  0  0  0  0  0  0  0
  141.5428   78.9106  218.2103 H   0  0  0  0  0  0  0  0  0  0  0  0
  143.5470   78.2280  219.1940 H   0  0  0  0  0  0  0  0  0  0  0  0
  143.2516   75.5246  218.2249 H   0  0  0  0  0  0  0  0  0  0  0  0
  144.2901   76.1715  219.5403 H   0  0  0  0  0  0  0  0  0  0  0  0
  141.4401   75.2386  219.6129 H   0  0  0  0  0  0  0  0  0  0  0  0
  142.7171   75.0896  220.8467 H   0  0  0  0  0  0  0  0  0  0  0  0
  1  2  2  0
  2  3  1  0
  3  4  2  0
  4  5  1  0
  5  6  2  0
  6  7  1  0
  7  8  1  0
  7  9  2  0
  9 10  1  0
 10 11  2  0
 11 12  1  0
 12 13  2  0
 13 14  1  0
 14 15  2  0
 15 16  1  0
 16 17  2  0
 17 18  1  0
 18 19  2  0
 11 20  1  0
 20 21  1  0
 21 22  1  0
 22 23  1  0
 23 24  1  0
 24 25  1  0
 25 26  1  0
 26 27  1  0
 20  2  1  0
 27 22  1  0
  9  3  1  0
 19 14  1  0
  4 28  1  0
  5 29  1  0
  6 30  1  0
 12 31  1  0
 13 32  1  0
 15 33  1  0
 16 34  1  0
 17 35  1  0
 18 36  1  0
 19 37  1  0
 21 38  1  0
 21 39  1  0
 22 40  1  0
 23 41  1  0
 23 42  1  0
 24 43  1  0
 24 44  1  0
 25 45  1  0
 26 46  1  0
 26 47  1  0
 27 48  1  0
 27 49  1  0
M  END
>  <smiles>  (11) 
O=c1c2cccc(Cl)c2nc(/C=C/c2ccccc2)n1CC1CCNCC1

>  <score_type>  (11) 
oracle

>  <origin>  (11) 
autodockgpu

>  <m_score__min__energy>  (11) 
-8

>  <m_primary>  (11) 
energy

>  <meeko>  (11) 
{"free_energy": -6.49, "intermolecular_energy": -7.98, "internal_energy": -2.19, "cluster_size": 4, "cluster_id": 5, "rank_in_cluster": 2}

>  <energy>  (11) 
-7.47

>  <cluster_rmsd>  (11) 
0.32

>  <rmsd>  (11) 
270.14

>  <cluster>  (11) 
2

$$$$

     RDKit          3D

 49 52  0  0  0  0  0  0  0  0999 V2000
  138.8580   67.4130  224.6360 O   0  0  0  0  0  0  0  0  0  0  0  0
  139.2280   68.5960  224.7770 C   0  0  0  0  0  0  0  0  0  0  0  0
  139.8540   68.9080  225.9810 C   0  0  0  0  0  0  0  0  0  0  0  0
  140.0640   67.9880  226.9750 C   0  0  0  0  0  0  0  0  0  0  0  0
  140.6910   68.3670  228.1440 C   0  0  0  0  0  0  0  0  0  0  0  0
  141.1190   69.6830  228.3380 C   0  0  0  0  0  0  0  0  0  0  0  0
  140.9070   70.6160  227.3360 C   0  0  0  0  0  0  0  0  0  0  0  0
  141.4330   72.2660  227.5520 Cl  0  0  0  0  0  0  0  0  0  0  0  0
  140.2760   70.2010  226.1750 C   0  0  0  0  0  0  0  0  0  0  0  0
  140.0860   71.1280  225.2260 N   0  0  0  0  0  0  0  0  0  0  0  0
  139.4820   70.8060  224.0720 C   0  0  0  0  0  0  0  0  0  0  0  0
  139.2880   71.8580  223.0520 C   0  0  0  0  0  0  0  0  0  0  0  0
  139.8880   71.7470  221.8890 C   0  0  0  0  0  0  0  0  0  0  0  0
  140.9800   72.5940  221.4370 C   0  0  0  0  0  0  0  0  0  0  0  0
  140.8820   73.9630  221.3170 C   0  0  0  0  0  0  0  0  0  0  0  0
  141.9410   74.7510  220.8820 C   0  0  0  0  0  0  0  0  0  0  0  0
  143.1550   74.1490  220.5500 C   0  0  0  0  0  0  0  0  0  0  0  0
  143.2700   72.7700  220.6650 C   0  0  0  0  0  0  0  0  0  0  0  0
  142.2000   72.0340  221.0980 C   0  0  0  0  0  0  0  0  0  0  0  0
  139.0400   69.5490  223.8160 N   0  0  0  0  0  0  0  0  0  0  0  0
  138.4030   69.1460  222.6130 C   0  0  0  0  0  0  0  0  0  0  0  0
  139.2070   68.2710  221.7000 C   0  0  0  0  0  0  0  0  0  0  0  0
  139.2150   68.7370  220.2590 C   0  0  0  0  0  0  0  0  0  0  0  0
  139.9830   67.6900  219.4480 C   0  0  0  0  0  0  0  0  0  0  0  0
  140.5580   66.6800  220.2780 N   0  0  0  0  0  0  0  0  0  0  0  0
  139.6420   65.9480  221.0940 C   0  0  0  0  0  0  0  0  0  0  0  0
  138.5930   66.8840  221.6370 C   0  0  0  0  0  0  0  0  0  0  0  0
  139.7327   66.9477  226.8407 H   0  0  0  0  0  0  0  0  0  0  0  0
  140.8566   67.6216  228.9358 H   0  0  0  0  0  0  0  0  0  0  0  0
  141.6178   69.9744  229.2741 H   0  0  0  0  0  0  0  0  0  0  0  0
  138.6468   72.7261  223.2651 H   0  0  0  0  0  0  0  0  0  0  0  0
  139.5394   70.9566  221.2081 H   0  0  0  0  0  0  0  0  0  0  0  0
  139.9303   74.4504  221.5751 H   0  0  0  0  0  0  0  0  0  0  0  0
  141.8228   75.8416  220.8001 H   0  0  0  0  0  0  0  0  0  0  0  0
  144.0050   74.7553  220.2037 H   0  0  0  0  0  0  0  0  0  0  0  0
  144.2165   72.2713  220.4093 H   0  0  0  0  0  0  0  0  0  0  0  0
  142.3153   70.9432  221.1808 H   0  0  0  0  0  0  0  0  0  0  0  0
  137.4890   68.5976  222.8846 H   0  0  0  0  0  0  0  0  0  0  0  0
  138.2238   70.0736  222.0496 H   0  0  0  0  0  0  0  0  0  0  0  0
  140.2245   68.2950  222.1173 H   0  0  0  0  0  0  0  0  0  0  0  0
  138.1841   68.8216  219.8847 H   0  0  0  0  0  0  0  0  0  0  0  0
  139.6910   69.7248  220.1710 H   0  0  0  0  0  0  0  0  0  0  0  0
  139.2904   67.2136  218.7385 H   0  0  0  0  0  0  0  0  0  0  0  0
  140.8026   68.2034  218.9239 H   0  0  0  0  0  0  0  0  0  0  0  0
  141.3920   66.9660  220.8130 H   0  0  0  0  0  0  0  0  0  0  0  0
  139.1582   65.1656  220.4908 H   0  0  0  0  0  0  0  0  0  0  0  0
  140.1862   65.4834  221.9295 H   0  0  0  0  0  0  0  0  0  0  0  0
  137.7162   66.8913  220.9728 H   0  0  0  0  0  0  0  0  0  0  0  0
  138.2646   66.5602  222.6356 H   0  0  0  0  0  0  0  0  0  0  0  0
  1  2  2  0
  2  3  1  0
  3  4  2  0
  4  5  1  0
  5  6  2  0
  6  7  1  0
  7  8  1  0
  7  9  2  0
  9 10  1  0
 10 11  2  0
 11 12  1  0
 12 13  2  0
 13 14  1  0
 14 15  2  0
 15 16  1  0
 16 17  2  0
 17 18  1  0
 18 19  2  0
 11 20  1  0
 20 21  1  0
 21 22  1  0
 22 23  1  0
 23 24  1  0
 24 25  1  0
 25 26  1  0
 26 27  1  0
 20  2  1  0
 27 22  1  0
  9  3  1  0
 19 14  1  0
  4 28  1  0
  5 29  1  0
  6 30  1  0
 12 31  1  0
 13 32  1  0
 15 33  1  0
 16 34  1  0
 17 35  1  0
 18 36  1  0
 19 37  1  0
 21 38  1  0
 21 39  1  0
 22 40  1  0
 23 41  1  0
 23 42  1  0
 24 43  1  0
 24 44  1  0
 25 45  1  0
 26 46  1  0
 26 47  1  0
 27 48  1  0
 27 49  1  0
M  END
>  <smiles>  (12) 
O=c1c2cccc(Cl)c2nc(/C=C/c2ccccc2)n1CC1CCNCC1

>  <score_type>  (12) 
oracle

>  <origin>  (12) 
autodockgpu

>  <m_score__min__energy>  (12) 
-8

>  <m_primary>  (12) 
energy

>  <meeko>  (12) 
{"free_energy": -7.67, "intermolecular_energy": -9.17, "internal_energy": -1.25, "cluster_size": 1, "cluster_id": 3, "rank_in_cluster": 1}

>  <energy>  (12) 
-7.67

>  <cluster_rmsd>  (12) 
0.0

>  <rmsd>  (12) 
269.61

>  <cluster>  (12) 
3

$$$$

     RDKit          3D

 49 52  0  0  0  0  0  0  0  0999 V2000
  139.2100   67.1770  225.0550 O   0  0  0  0  0  0  0  0  0  0  0  0
  139.4870   68.3940  225.0260 C   0  0  0  0  0  0  0  0  0  0  0  0
  140.1130   68.9110  226.1570 C   0  0  0  0  0  0  0  0  0  0  0  0
  140.4200   68.1510  227.2560 C   0  0  0  0  0  0  0  0  0  0  0  0
  141.0420   68.7290  228.3420 C   0  0  0  0  0  0  0  0  0  0  0  0
  141.3660   70.0880  228.3480 C   0  0  0  0  0  0  0  0  0  0  0  0
  141.0560   70.8600  227.2390 C   0  0  0  0  0  0  0  0  0  0  0  0
  141.4520   72.5590  227.2200 Cl  0  0  0  0  0  0  0  0  0  0  0  0
  140.4330   70.2470  226.1660 C   0  0  0  0  0  0  0  0  0  0  0  0
  140.1470   71.0210  225.1100 N   0  0  0  0  0  0  0  0  0  0  0  0
  139.5440   70.5030  224.0300 C   0  0  0  0  0  0  0  0  0  0  0  0
  139.2420   71.3910  222.8880 C   0  0  0  0  0  0  0  0  0  0  0  0
  139.8140   72.5710  222.8200 C   0  0  0  0  0  0  0  0  0  0  0  0
  140.9020   72.9120  221.9160 C   0  0  0  0  0  0  0  0  0  0  0  0
  141.1390   74.1880  221.4570 C   0  0  0  0  0  0  0  0  0  0  0  0
  142.1860   74.4880  220.5930 C   0  0  0  0  0  0  0  0  0  0  0  0
  143.0360   73.4680  220.1640 C   0  0  0  0  0  0  0  0  0  0  0  0
  142.8100   72.1750  220.6170 C   0  0  0  0  0  0  0  0  0  0  0  0
  141.7670   71.9280  221.4680 C   0  0  0  0  0  0  0  0  0  0  0  0
  139.2000   69.1920  223.9560 N   0  0  0  0  0  0  0  0  0  0  0  0
  138.5690   68.5850  222.8380 C   0  0  0  0  0  0  0  0  0  0  0  0
  137.0840   68.4100  222.9310 C   0  0  0  0  0  0  0  0  0  0  0  0
  136.3580   68.6550  221.6260 C   0  0  0  0  0  0  0  0  0  0  0  0
  134.8580   68.5400  221.9120 C   0  0  0  0  0  0  0  0  0  0  0  0
  134.5950   68.1230  223.2520 N   0  0  0  0  0  0  0  0  0  0  0  0
  135.1260   68.9610  224.2800 C   0  0  0  0  0  0  0  0  0  0  0  0
  136.4980   69.4410  223.8800 C   0  0  0  0  0  0  0  0  0  0  0  0
  140.1700   67.0799  227.2712 H   0  0  0  0  0  0  0  0  0  0  0  0
  141.2872   68.1103  229.2178 H   0  0  0  0  0  0  0  0  0  0  0  0
  141.8604   70.5393  229.2209 H   0  0  0  0  0  0  0  0  0  0  0  0
  138.5443   71.0664  222.1020 H   0  0  0  0  0  0  0  0  0  0  0  0
  139.4444   73.3576  223.4943 H   0  0  0  0  0  0  0  0  0  0  0  0
  140.4750   75.0008  221.7862 H   0  0  0  0  0  0  0  0  0  0  0  0
  142.3431   75.5214  220.2503 H   0  0  0  0  0  0  0  0  0  0  0  0
  143.8696   73.6842  219.4797 H   0  0  0  0  0  0  0  0  0  0  0  0
  143.4660   71.3534  220.2935 H   0  0  0  0  0  0  0  0  0  0  0  0
  141.6079   70.8958  221.8135 H   0  0  0  0  0  0  0  0  0  0  0  0
  138.7790   69.2071  221.9554 H   0  0  0  0  0  0  0  0  0  0  0  0
  138.9825   67.5671  222.7833 H   0  0  0  0  0  0  0  0  0  0  0  0
  136.9473   67.3683  223.2569 H   0  0  0  0  0  0  0  0  0  0  0  0
  136.5932   69.6606  221.2472 H   0  0  0  0  0  0  0  0  0  0  0  0
  136.6669   67.9235  220.8647 H   0  0  0  0  0  0  0  0  0  0  0  0
  134.3898   69.5218  221.7482 H   0  0  0  0  0  0  0  0  0  0  0  0
  134.4422   67.7801  221.2340 H   0  0  0  0  0  0  0  0  0  0  0  0
  134.7710   67.1270  223.4510 H   0  0  0  0  0  0  0  0  0  0  0  0
  134.4631   69.8266  224.4261 H   0  0  0  0  0  0  0  0  0  0  0  0
  135.1967   68.3902  225.2176 H   0  0  0  0  0  0  0  0  0  0  0  0
  136.4226   70.4156  223.3756 H   0  0  0  0  0  0  0  0  0  0  0  0
  137.1396   69.5613  224.7654 H   0  0  0  0  0  0  0  0  0  0  0  0
  1  2  2  0
  2  3  1  0
  3  4  2  0
  4  5  1  0
  5  6  2  0
  6  7  1  0
  7  8  1  0
  7  9  2  0
  9 10  1  0
 10 11  2  0
 11 12  1  0
 12 13  2  0
 13 14  1  0
 14 15  2  0
 15 16  1  0
 16 17  2  0
 17 18  1  0
 18 19  2  0
 11 20  1  0
 20 21  1  0
 21 22  1  0
 22 23  1  0
 23 24  1  0
 24 25  1  0
 25 26  1  0
 26 27  1  0
 20  2  1  0
 27 22  1  0
  9  3  1  0
 19 14  1  0
  4 28  1  0
  5 29  1  0
  6 30  1  0
 12 31  1  0
 13 32  1  0
 15 33  1  0
 16 34  1  0
 17 35  1  0
 18 36  1  0
 19 37  1  0
 21 38  1  0
 21 39  1  0
 22 40  1  0
 23 41  1  0
 23 42  1  0
 24 43  1  0
 24 44  1  0
 25 45  1  0
 26 46  1  0
 26 47  1  0
 27 48  1  0
 27 49  1  0
M  END
>  <smiles>  (13) 
O=c1c2cccc(Cl)c2nc(/C=C/c2ccccc2)n1CC1CCNCC1

>  <score_type>  (13) 
oracle

>  <origin>  (13) 
autodockgpu

>  <m_score__min__energy>  (13) 
-8

>  <m_primary>  (13) 
energy

>  <meeko>  (13) 
{"free_energy": -7.72, "intermolecular_energy": -9.21, "internal_energy": -1.31, "cluster_size": 4, "cluster_id": 1, "rank_in_cluster": 4}

>  <energy>  (13) 
-7.1

>  <cluster_rmsd>  (13) 
0.0

>  <rmsd>  (13) 
270.01

>  <cluster>  (13) 
4

$$$$

     RDKit          3D

 49 52  0  0  0  0  0  0  0  0999 V2000
  142.8870   75.6920  217.6030 O   0  0  0  0  0  0  0  0  0  0  0  0
  142.3650   76.4360  218.4580 C   0  0  0  0  0  0  0  0  0  0  0  0
  142.1360   77.7540  218.0720 C   0  0  0  0  0  0  0  0  0  0  0  0
  142.4580   78.2370  216.8300 C   0  0  0  0  0  0  0  0  0  0  0  0
  142.2030   79.5550  216.5150 C   0  0  0  0  0  0  0  0  0  0  0  0
  141.6200   80.4190  217.4460 C   0  0  0  0  0  0  0  0  0  0  0  0
  141.2940   79.9340  218.7030 C   0  0  0  0  0  0  0  0  0  0  0  0
  140.5640   80.9910  219.8850 Cl  0  0  0  0  0  0  0  0  0  0  0  0
  141.5630   78.6060  218.9860 C   0  0  0  0  0  0  0  0  0  0  0  0
  141.2360   78.1690  220.2100 N   0  0  0  0  0  0  0  0  0  0  0  0
  141.4640   76.8950  220.5610 C   0  0  0  0  0  0  0  0  0  0  0  0
  141.0930   76.4540  221.9210 C   0  0  0  0  0  0  0  0  0  0  0  0
  140.4360   77.2740  222.7090 C   0  0  0  0  0  0  0  0  0  0  0  0
  140.8590   78.6280  223.0310 C   0  0  0  0  0  0  0  0  0  0  0  0
  139.9850   79.6770  223.2090 C   0  0  0  0  0  0  0  0  0  0  0  0
  140.4150   80.9620  223.5170 C   0  0  0  0  0  0  0  0  0  0  0  0
  141.7810   81.2160  223.6530 C   0  0  0  0  0  0  0  0  0  0  0  0
  142.6750   80.1690  223.4760 C   0  0  0  0  0  0  0  0  0  0  0  0
  142.2050   78.9190  223.1740 C   0  0  0  0  0  0  0  0  0  0  0  0
  142.0270   76.0020  219.7080 N   0  0  0  0  0  0  0  0  0  0  0  0
  142.2850   74.6410  220.0190 C   0  0  0  0  0  0  0  0  0  0  0  0
  143.6300   74.1150  219.6220 C   0  0  0  0  0  0  0  0  0  0  0  0
  143.5750   72.8050  218.8640 C   0  0  0  0  0  0  0  0  0  0  0  0
  145.0200   72.3560  218.6270 C   0  0  0  0  0  0  0  0  0  0  0  0
  145.9660   73.3330  219.0620 N   0  0  0  0  0  0  0  0  0  0  0  0
  145.8920   73.7020  220.4400 C   0  0  0  0  0  0  0  0  0  0  0  0
  144.4480   73.7920  220.8600 C   0  0  0  0  0  0  0  0  0  0  0  0
  142.9199   77.5729  216.0846 H   0  0  0  0  0  0  0  0  0  0  0  0
  142.4626   79.9324  215.5149 H   0  0  0  0  0  0  0  0  0  0  0  0
  141.4226   81.4692  217.1850 H   0  0  0  0  0  0  0  0  0  0  0  0
  141.3647   75.4472  222.2710 H   0  0  0  0  0  0  0  0  0  0  0  0
  139.4994   76.9111  223.1573 H   0  0  0  0  0  0  0  0  0  0  0  0
  138.9060   79.4909  223.1034 H   0  0  0  0  0  0  0  0  0  0  0  0
  139.6844   81.7731  223.6527 H   0  0  0  0  0  0  0  0  0  0  0  0
  142.1419   82.2264  223.8957 H   0  0  0  0  0  0  0  0  0  0  0  0
  143.7564   80.3428  223.5779 H   0  0  0  0  0  0  0  0  0  0  0  0
  142.9329   78.1056  223.0382 H   0  0  0  0  0  0  0  0  0  0  0  0
  142.1859   74.5211  221.1079 H   0  0  0  0  0  0  0  0  0  0  0  0
  141.5575   74.0619  219.4313 H   0  0  0  0  0  0  0  0  0  0  0  0
  144.0608   74.9061  218.9906 H   0  0  0  0  0  0  0  0  0  0  0  0
  143.0382   72.0494  219.4564 H   0  0  0  0  0  0  0  0  0  0  0  0
  143.0438   72.9293  217.9088 H   0  0  0  0  0  0  0  0  0  0  0  0
  145.1959   71.4215  219.1800 H   0  0  0  0  0  0  0  0  0  0  0  0
  145.1560   72.2122  217.5450 H   0  0  0  0  0  0  0  0  0  0  0  0
  146.0600   74.1620  218.4560 H   0  0  0  0  0  0  0  0  0  0  0  0
  146.4046   72.9440  221.0504 H   0  0  0  0  0  0  0  0  0  0  0  0
  146.3769   74.6788  220.5841 H   0  0  0  0  0  0  0  0  0  0  0  0
  144.1206   72.8322  221.2862 H   0  0  0  0  0  0  0  0  0  0  0  0
  144.3156   74.5712  221.6251 H   0  0  0  0  0  0  0  0  0  0  0  0
  1  2  2  0
  2  3  1  0
  3  4  2  0
  4  5  1  0
  5  6  2  0
  6  7  1  0
  7  8  1  0
  7  9  2  0
  9 10  1  0
 10 11  2  0
 11 12  1  0
 12 13  2  0
 13 14  1  0
 14 15  2  0
 15 16  1  0
 16 17  2  0
 17 18  1  0
 18 19  2  0
 11 20  1  0
 20 21  1  0
 21 22  1  0
 22 23  1  0
 23 24  1  0
 24 25  1  0
 25 26  1  0
 26 27  1  0
 20  2  1  0
 27 22  1  0
  9  3  1  0
 19 14  1  0
  4 28  1  0
  5 29  1  0
  6 30  1  0
 12 31  1  0
 13 32  1  0
 15 33  1  0
 16 34  1  0
 17 35  1  0
 18 36  1  0
 19 37  1  0
 21 38  1  0
 21 39  1  0
 22 40  1  0
 23 41  1  0
 23 42  1  0
 24 43  1  0
 24 44  1  0
 25 45  1  0
 26 46  1  0
 26 47  1  0
 27 48  1  0
 27 49  1  0
M  END
>  <smiles>  (14) 
O=c1c2cccc(Cl)c2nc(/C=C/c2ccccc2)n1CC1CCNCC1

>  <score_type>  (14) 
oracle

>  <origin>  (14) 
autodockgpu

>  <m_score__min__energy>  (14) 
-8

>  <m_primary>  (14) 
energy

>  <meeko>  (14) 
{"free_energy": -7.68, "intermolecular_energy": -9.17, "internal_energy": -1.42, "cluster_size": 7, "cluster_id": 2, "rank_in_cluster": 1}

>  <energy>  (14) 
-7.1

>  <cluster_rmsd>  (14) 
0.04

>  <rmsd>  (14) 
269.99

>  <cluster>  (14) 
4

$$$$

     RDKit          3D

 49 52  0  0  0  0  0  0  0  0999 V2000
  138.4090   76.5130  221.4940 O   0  0  0  0  0  0  0  0  0  0  0  0
  138.7730   77.4600  222.2210 C   0  0  0  0  0  0  0  0  0  0  0  0
  137.7710   78.3220  222.6600 C   0  0  0  0  0  0  0  0  0  0  0  0
  136.4510   78.1650  222.3280 C   0  0  0  0  0  0  0  0  0  0  0  0
  135.5100   79.0570  222.7990 C   0  0  0  0  0  0  0  0  0  0  0  0
  135.8800   80.1300  223.6150 C   0  0  0  0  0  0  0  0  0  0  0  0
  137.2150   80.2920  223.9520 C   0  0  0  0  0  0  0  0  0  0  0  0
  137.7030   81.6220  224.9700 Cl  0  0  0  0  0  0  0  0  0  0  0  0
  138.1320   79.3780  223.4620 C   0  0  0  0  0  0  0  0  0  0  0  0
  139.4130   79.5630  223.8060 N   0  0  0  0  0  0  0  0  0  0  0  0
  140.3630   78.7200  223.3730 C   0  0  0  0  0  0  0  0  0  0  0  0
  141.7650   78.9620  223.7720 C   0  0  0  0  0  0  0  0  0  0  0  0
  142.4260   79.9610  223.2340 C   0  0  0  0  0  0  0  0  0  0  0  0
  141.9150   80.8140  222.1730 C   0  0  0  0  0  0  0  0  0  0  0  0
  141.1820   81.9580  222.4010 C   0  0  0  0  0  0  0  0  0  0  0  0
  140.7050   82.7560  221.3680 C   0  0  0  0  0  0  0  0  0  0  0  0
  140.9690   82.3990  220.0450 C   0  0  0  0  0  0  0  0  0  0  0  0
  141.7060   81.2490  219.7980 C   0  0  0  0  0  0  0  0  0  0  0  0
  142.1560   80.4940  220.8470 C   0  0  0  0  0  0  0  0  0  0  0  0
  140.0760   77.6580  222.5780 N   0  0  0  0  0  0  0  0  0  0  0  0
  141.0340   76.7290  222.0960 C   0  0  0  0  0  0  0  0  0  0  0  0
  141.7060   77.0800  220.8040 C   0  0  0  0  0  0  0  0  0  0  0  0
  140.7800   77.7150  219.7880 C   0  0  0  0  0  0  0  0  0  0  0  0
  141.5860   77.9150  218.5010 C   0  0  0  0  0  0  0  0  0  0  0  0
  142.9630   77.5760  218.6700 N   0  0  0  0  0  0  0  0  0  0  0  0
  143.2270   76.2370  219.0920 C   0  0  0  0  0  0  0  0  0  0  0  0
  142.2020   75.8210  220.1170 C   0  0  0  0  0  0  0  0  0  0  0  0
  136.1415   77.3274  221.6857 H   0  0  0  0  0  0  0  0  0  0  0  0
  134.4524   78.9219  222.5283 H   0  0  0  0  0  0  0  0  0  0  0  0
  135.1221   80.8363  223.9848 H   0  0  0  0  0  0  0  0  0  0  0  0
  142.2509   78.3108  224.5135 H   0  0  0  0  0  0  0  0  0  0  0  0
  143.4379   80.1672  223.6128 H   0  0  0  0  0  0  0  0  0  0  0  0
  140.9663   82.2507  223.4392 H   0  0  0  0  0  0  0  0  0  0  0  0
  140.1235   83.6626  221.5916 H   0  0  0  0  0  0  0  0  0  0  0  0
  140.5999   83.0174  219.2135 H   0  0  0  0  0  0  0  0  0  0  0  0
  141.9273   80.9459  218.7640 H   0  0  0  0  0  0  0  0  0  0  0  0
  142.7384   79.5874  220.6260 H   0  0  0  0  0  0  0  0  0  0  0  0
  141.8156   76.6249  222.8630 H   0  0  0  0  0  0  0  0  0  0  0  0
  140.4716   75.8057  221.8931 H   0  0  0  0  0  0  0  0  0  0  0  0
  142.5041   77.7816  221.0883 H   0  0  0  0  0  0  0  0  0  0  0  0
  139.9217   77.0543  219.5960 H   0  0  0  0  0  0  0  0  0  0  0  0
  140.3938   78.6757  220.1594 H   0  0  0  0  0  0  0  0  0  0  0  0
  141.1584   77.2784  217.7124 H   0  0  0  0  0  0  0  0  0  0  0  0
  141.5306   78.9795  218.2293 H   0  0  0  0  0  0  0  0  0  0  0  0
  143.5270   78.2550  219.2010 H   0  0  0  0  0  0  0  0  0  0  0  0
  143.1733   75.5621  218.2250 H   0  0  0  0  0  0  0  0  0  0  0  0
  144.2319   76.1843  219.5364 H   0  0  0  0  0  0  0  0  0  0  0  0
  141.3638   75.3078  219.6230 H   0  0  0  0  0  0  0  0  0  0  0  0
  142.6449   75.1294  220.8489 H   0  0  0  0  0  0  0  0  0  0  0  0
  1  2  2  0
  2  3  1  0
  3  4  2  0
  4  5  1  0
  5  6  2  0
  6  7  1  0
  7  8  1  0
  7  9  2  0
  9 10  1  0
 10 11  2  0
 11 12  1  0
 12 13  2  0
 13 14  1  0
 14 15  2  0
 15 16  1  0
 16 17  2  0
 17 18  1  0
 18 19  2  0
 11 20  1  0
 20 21  1  0
 21 22  1  0
 22 23  1  0
 23 24  1  0
 24 25  1  0
 25 26  1  0
 26 27  1  0
 20  2  1  0
 27 22  1  0
  9  3  1  0
 19 14  1  0
  4 28  1  0
  5 29  1  0
  6 30  1  0
 12 31  1  0
 13 32  1  0
 15 33  1  0
 16 34  1  0
 17 35  1  0
 18 36  1  0
 19 37  1  0
 21 38  1  0
 21 39  1  0
 22 40  1  0
 23 41  1  0
 23 42  1  0
 24 43  1  0
 24 44  1  0
 25 45  1  0
 26 46  1  0
 26 47  1  0
 27 48  1  0
 27 49  1  0
M  END
>  <smiles>  (15) 
O=c1c2cccc(Cl)c2nc(/C=C/c2ccccc2)n1CC1CCNCC1

>  <score_type>  (15) 
oracle

>  <origin>  (15) 
autodockgpu

>  <m_score__min__energy>  (15) 
-8

>  <m_primary>  (15) 
energy

>  <meeko>  (15) 
{"free_energy": -6.47, "intermolecular_energy": -7.96, "internal_energy": -2.2, "cluster_size": 4, "cluster_id": 5, "rank_in_cluster": 4}

>  <energy>  (15) 
-7.1

>  <cluster_rmsd>  (15) 
0.1

>  <rmsd>  (15) 
270.01

>  <cluster>  (15) 
4

$$$$

     RDKit          3D

 49 52  0  0  0  0  0  0  0  0999 V2000
  143.7900   76.7560  219.4330 O   0  0  0  0  0  0  0  0  0  0  0  0
  142.8130   76.2750  220.0410 C   0  0  0  0  0  0  0  0  0  0  0  0
  142.8470   74.9030  220.2770 C   0  0  0  0  0  0  0  0  0  0  0  0
  143.8820   74.1010  219.8740 C   0  0  0  0  0  0  0  0  0  0  0  0
  143.8510   72.7480  220.1410 C   0  0  0  0  0  0  0  0  0  0  0  0
  142.7740   72.1720  220.8190 C   0  0  0  0  0  0  0  0  0  0  0  0
  141.7250   72.9810  221.2280 C   0  0  0  0  0  0  0  0  0  0  0  0
  140.3680   72.2880  222.0790 Cl  0  0  0  0  0  0  0  0  0  0  0  0
  141.7890   74.3340  220.9440 C   0  0  0  0  0  0  0  0  0  0  0  0
  140.7590   75.0880  221.3520 N   0  0  0  0  0  0  0  0  0  0  0  0
  140.7460   76.4080  221.1160 C   0  0  0  0  0  0  0  0  0  0  0  0
  139.5900   77.2030  221.5790 C   0  0  0  0  0  0  0  0  0  0  0  0
  139.6640   77.8440  222.7230 C   0  0  0  0  0  0  0  0  0  0  0  0
  140.5340   78.9820  222.9780 C   0  0  0  0  0  0  0  0  0  0  0  0
  141.7640   78.8780  223.5890 C   0  0  0  0  0  0  0  0  0  0  0  0
  142.5760   79.9820  223.8220 C   0  0  0  0  0  0  0  0  0  0  0  0
  142.1430   81.2490  223.4300 C   0  0  0  0  0  0  0  0  0  0  0  0
  140.9050   81.3710  222.8130 C   0  0  0  0  0  0  0  0  0  0  0  0
  140.1400   80.2550  222.6040 C   0  0  0  0  0  0  0  0  0  0  0  0
  141.7570   77.0330  220.4620 N   0  0  0  0  0  0  0  0  0  0  0  0
  141.8040   78.4260  220.1910 C   0  0  0  0  0  0  0  0  0  0  0  0
  141.9430   78.8150  218.7510 C   0  0  0  0  0  0  0  0  0  0  0  0
  141.6700   80.2800  218.4850 C   0  0  0  0  0  0  0  0  0  0  0  0
  141.7500   80.4900  216.9700 C   0  0  0  0  0  0  0  0  0  0  0  0
  142.1710   79.3100  216.2840 N   0  0  0  0  0  0  0  0  0  0  0  0
  141.3550   78.1530  216.4770 C   0  0  0  0  0  0  0  0  0  0  0  0
  140.9060   78.0870  217.9140 C   0  0  0  0  0  0  0  0  0  0  0  0
  144.7380   74.5361  219.3373 H   0  0  0  0  0  0  0  0  0  0  0  0
  144.6876   72.1126  219.8149 H   0  0  0  0  0  0  0  0  0  0  0  0
  142.7584   71.0917  221.0255 H   0  0  0  0  0  0  0  0  0  0  0  0
  138.6751   77.2576  220.9708 H   0  0  0  0  0  0  0  0  0  0  0  0
  139.0230   77.4959  223.5464 H   0  0  0  0  0  0  0  0  0  0  0  0
  142.1168   77.8849  223.9042 H   0  0  0  0  0  0  0  0  0  0  0  0
  143.5530   79.8575  224.3120 H   0  0  0  0  0  0  0  0  0  0  0  0
  142.7707   82.1349  223.6064 H   0  0  0  0  0  0  0  0  0  0  0  0
  140.5410   82.3588  222.4940 H   0  0  0  0  0  0  0  0  0  0  0  0
  139.1627   80.3762  222.1140 H   0  0  0  0  0  0  0  0  0  0  0  0
  140.8739   78.8735  220.5713 H   0  0  0  0  0  0  0  0  0  0  0  0
  142.7168   78.7914  220.6842 H   0  0  0  0  0  0  0  0  0  0  0  0
  142.9837   78.5661  218.4960 H   0  0  0  0  0  0  0  0  0  0  0  0
  140.6676   80.5485  218.8499 H   0  0  0  0  0  0  0  0  0  0  0  0
  142.4032   80.9137  219.0054 H   0  0  0  0  0  0  0  0  0  0  0  0
  140.7557   80.7797  216.5994 H   0  0  0  0  0  0  0  0  0  0  0  0
  142.4938   81.2770  216.7766 H   0  0  0  0  0  0  0  0  0  0  0  0
  143.1730   79.0810  216.3660 H   0  0  0  0  0  0  0  0  0  0  0  0
  140.4744   78.2120  215.8204 H   0  0  0  0  0  0  0  0  0  0  0  0
  141.9354   77.2510  216.2331 H   0  0  0  0  0  0  0  0  0  0  0  0
  139.9258   78.5740  218.0238 H   0  0  0  0  0  0  0  0  0  0  0  0
  140.8089   77.0414  218.2415 H   0  0  0  0  0  0  0  0  0  0  0  0
  1  2  2  0
  2  3  1  0
  3  4  2  0
  4  5  1  0
  5  6  2  0
  6  7  1  0
  7  8  1  0
  7  9  2  0
  9 10  1  0
 10 11  2  0
 11 12  1  0
 12 13  2  0
 13 14  1  0
 14 15  2  0
 15 16  1  0
 16 17  2  0
 17 18  1  0
 18 19  2  0
 11 20  1  0
 20 21  1  0
 21 22  1  0
 22 23  1  0
 23 24  1  0
 24 25  1  0
 25 26  1  0
 26 27  1  0
 20  2  1  0
 27 22  1  0
  9  3  1  0
 19 14  1  0
  4 28  1  0
  5 29  1  0
  6 30  1  0
 12 31  1  0
 13 32  1  0
 15 33  1  0
 16 34  1  0
 17 35  1  0
 18 36  1  0
 19 37  1  0
 21 38  1  0
 21 39  1  0
 22 40  1  0
 23 41  1  0
 23 42  1  0
 24 43  1  0
 24 44  1  0
 25 45  1  0
 26 46  1  0
 26 47  1  0
 27 48  1  0
 27 49  1  0
M  END
>  <smiles>  (16) 
O=c1c2cccc(Cl)c2nc(/C=C/c2ccccc2)n1CC1CCNCC1

>  <score_type>  (16) 
oracle

>  <origin>  (16) 
autodockgpu

>  <m_score__min__energy>  (16) 
-8

>  <m_primary>  (16) 
energy

>  <meeko>  (16) 
{"free_energy": -7.1, "intermolecular_energy": -8.59, "internal_energy": -1.62, "cluster_size": 4, "cluster_id": 4, "rank_in_cluster": 2}

>  <energy>  (16) 
-7.1

>  <cluster_rmsd>  (16) 
0.04

>  <rmsd>  (16) 
270.02

>  <cluster>  (16) 
4

$$$$

     RDKit          3D

 49 52  0  0  0  0  0  0  0  0999 V2000
  143.8290   76.7590  219.4760 O   0  0  0  0  0  0  0  0  0  0  0  0
  142.8520   76.2560  220.0680 C   0  0  0  0  0  0  0  0  0  0  0  0
  142.9060   74.8830  220.2920 C   0  0  0  0  0  0  0  0  0  0  0  0
  143.9590   74.1010  219.8970 C   0  0  0  0  0  0  0  0  0  0  0  0
  143.9470   72.7460  220.1520 C   0  0  0  0  0  0  0  0  0  0  0  0
  142.8700   72.1470  220.8110 C   0  0  0  0  0  0  0  0  0  0  0  0
  141.8020   72.9350  221.2130 C   0  0  0  0  0  0  0  0  0  0  0  0
  140.4460   72.2130  222.0390 Cl  0  0  0  0  0  0  0  0  0  0  0  0
  141.8480   74.2920  220.9410 C   0  0  0  0  0  0  0  0  0  0  0  0
  140.8010   75.0250  221.3410 N   0  0  0  0  0  0  0  0  0  0  0  0
  140.7690   76.3460  221.1160 C   0  0  0  0  0  0  0  0  0  0  0  0
  139.5940   77.1190  221.5700 C   0  0  0  0  0  0  0  0  0  0  0  0
  139.6410   77.7470  222.7220 C   0  0  0  0  0  0  0  0  0  0  0  0
  140.4670   78.9120  222.9950 C   0  0  0  0  0  0  0  0  0  0  0  0
  140.0670   80.2060  222.7420 C   0  0  0  0  0  0  0  0  0  0  0  0
  140.8760   81.3030  223.0130 C   0  0  0  0  0  0  0  0  0  0  0  0
  142.1440   81.1040  223.5600 C   0  0  0  0  0  0  0  0  0  0  0  0
  142.5620   79.8060  223.8220 C   0  0  0  0  0  0  0  0  0  0  0  0
  141.7310   78.7560  223.5390 C   0  0  0  0  0  0  0  0  0  0  0  0
  141.7790   76.9940  220.4810 N   0  0  0  0  0  0  0  0  0  0  0  0
  141.8070   78.3890  220.2220 C   0  0  0  0  0  0  0  0  0  0  0  0
  141.9590   78.7930  218.7870 C   0  0  0  0  0  0  0  0  0  0  0  0
  141.6390   80.2490  218.5250 C   0  0  0  0  0  0  0  0  0  0  0  0
  141.7400   80.4720  217.0130 C   0  0  0  0  0  0  0  0  0  0  0  0
  142.2150   79.3120  216.3280 N   0  0  0  0  0  0  0  0  0  0  0  0
  141.4370   78.1260  216.4980 C   0  0  0  0  0  0  0  0  0  0  0  0
  140.9640   78.0340  217.9260 C   0  0  0  0  0  0  0  0  0  0  0  0
  144.8150   74.5545  219.3759 H   0  0  0  0  0  0  0  0  0  0  0  0
  144.7981   72.1271  219.8318 H   0  0  0  0  0  0  0  0  0  0  0  0
  142.8694   71.0648  221.0082 H   0  0  0  0  0  0  0  0  0  0  0  0
  138.6880   77.1677  220.9481 H   0  0  0  0  0  0  0  0  0  0  0  0
  139.0108   77.3647  223.5385 H   0  0  0  0  0  0  0  0  0  0  0  0
  139.0702   80.3771  222.3094 H   0  0  0  0  0  0  0  0  0  0  0  0
  140.5192   82.3210  222.7978 H   0  0  0  0  0  0  0  0  0  0  0  0
  142.8001   81.9591  223.7795 H   0  0  0  0  0  0  0  0  0  0  0  0
  143.5564   79.6225  224.2550 H   0  0  0  0  0  0  0  0  0  0  0  0
  142.0849   77.7370  223.7545 H   0  0  0  0  0  0  0  0  0  0  0  0
  140.8647   78.8182  220.5934 H   0  0  0  0  0  0  0  0  0  0  0  0
  142.7073   78.7646  220.7303 H   0  0  0  0  0  0  0  0  0  0  0  0
  143.0125   78.5833  218.5500 H   0  0  0  0  0  0  0  0  0  0  0  0
  140.6210   80.4792  218.8724 H   0  0  0  0  0  0  0  0  0  0  0  0
  142.3391   80.9048  219.0632 H   0  0  0  0  0  0  0  0  0  0  0  0
  140.7433   80.7292  216.6253 H   0  0  0  0  0  0  0  0  0  0  0  0
  142.4591   81.2859  216.8385 H   0  0  0  0  0  0  0  0  0  0  0  0
  143.2230   79.1180  216.4280 H   0  0  0  0  0  0  0  0  0  0  0  0
  140.5672   78.1588  215.8253 H   0  0  0  0  0  0  0  0  0  0  0  0
  142.0532   77.2467  216.2592 H   0  0  0  0  0  0  0  0  0  0  0  0
  139.9651   78.4849  218.0204 H   0  0  0  0  0  0  0  0  0  0  0  0
  140.8982   76.9834  218.2451 H   0  0  0  0  0  0  0  0  0  0  0  0
  1  2  2  0
  2  3  1  0
  3  4  2  0
  4  5  1  0
  5  6  2  0
  6  7  1  0
  7  8  1  0
  7  9  2  0
  9 10  1  0
 10 11  2  0
 11 12  1  0
 12 13  2  0
 13 14  1  0
 14 15  2  0
 15 16  1  0
 16 17  2  0
 17 18  1  0
 18 19  2  0
 11 20  1  0
 20 21  1  0
 21 22  1  0
 22 23  1  0
 23 24  1  0
 24 25  1  0
 25 26  1  0
 26 27  1  0
 20  2  1  0
 27 22  1  0
  9  3  1  0
 19 14  1  0
  4 28  1  0
  5 29  1  0
  6 30  1  0
 12 31  1  0
 13 32  1  0
 15 33  1  0
 16 34  1  0
 17 35  1  0
 18 36  1  0
 19 37  1  0
 21 38  1  0
 21 39  1  0
 22 40  1  0
 23 41  1  0
 23 42  1  0
 24 43  1  0
 24 44  1  0
 25 45  1  0
 26 46  1  0
 26 47  1  0
 27 48  1  0
 27 49  1  0
M  END
>  <smiles>  (17) 
O=c1c2cccc(Cl)c2nc(/C=C/c2ccccc2)n1CC1CCNCC1

>  <score_type>  (17) 
oracle

>  <origin>  (17) 
autodockgpu

>  <m_score__min__energy>  (17) 
-8

>  <m_primary>  (17) 
energy

>  <meeko>  (17) 
{"free_energy": -7.1, "intermolecular_energy": -8.59, "internal_energy": -1.61, "cluster_size": 4, "cluster_id": 4, "rank_in_cluster": 3}

>  <energy>  (17) 
-6.49

>  <cluster_rmsd>  (17) 
0.0

>  <rmsd>  (17) 
270.78

>  <cluster>  (17) 
5

$$$$

     RDKit          3D

 49 52  0  0  0  0  0  0  0  0999 V2000
  142.9750   75.9180  217.5190 O   0  0  0  0  0  0  0  0  0  0  0  0
  142.4680   76.5780  218.4480 C   0  0  0  0  0  0  0  0  0  0  0  0
  142.3180   77.9440  218.2240 C   0  0  0  0  0  0  0  0  0  0  0  0
  142.6990   78.5580  217.0590 C   0  0  0  0  0  0  0  0  0  0  0  0
  142.5210   79.9170  216.9050 C   0  0  0  0  0  0  0  0  0  0  0  0
  141.9570   80.6900  217.9230 C   0  0  0  0  0  0  0  0  0  0  0  0
  141.5720   80.0730  219.1030 C   0  0  0  0  0  0  0  0  0  0  0  0
  140.8640   81.0140  220.3910 Cl  0  0  0  0  0  0  0  0  0  0  0  0
  141.7640   78.7070  219.2240 C   0  0  0  0  0  0  0  0  0  0  0  0
  141.3820   78.1420  220.3770 N   0  0  0  0  0  0  0  0  0  0  0  0
  141.5340   76.8240  220.5720 C   0  0  0  0  0  0  0  0  0  0  0  0
  141.1030   76.2390  221.8590 C   0  0  0  0  0  0  0  0  0  0  0  0
  140.4180   76.9750  222.7040 C   0  0  0  0  0  0  0  0  0  0  0  0
  140.7730   78.3300  223.0980 C   0  0  0  0  0  0  0  0  0  0  0  0
  139.8490   79.3300  223.3030 C   0  0  0  0  0  0  0  0  0  0  0  0
  140.2150   80.6170  223.6790 C   0  0  0  0  0  0  0  0  0  0  0  0
  141.5640   80.9250  223.8570 C   0  0  0  0  0  0  0  0  0  0  0  0
  142.5090   79.9270  223.6540 C   0  0  0  0  0  0  0  0  0  0  0  0
  142.1010   78.6730  223.2850 C   0  0  0  0  0  0  0  0  0  0  0  0
  142.0740   76.0130  219.6270 N   0  0  0  0  0  0  0  0  0  0  0  0
  142.2530   74.6120  219.7720 C   0  0  0  0  0  0  0  0  0  0  0  0
  143.6360   74.0920  219.5220 C   0  0  0  0  0  0  0  0  0  0  0  0
  143.6660   72.7310  218.8610 C   0  0  0  0  0  0  0  0  0  0  0  0
  145.1330   72.3010  218.7720 C   0  0  0  0  0  0  0  0  0  0  0  0
  146.0230   73.3300  219.2070 N   0  0  0  0  0  0  0  0  0  0  0  0
  145.8320   73.7950  220.5440 C   0  0  0  0  0  0  0  0  0  0  0  0
  144.3560   73.8790  220.8420 C   0  0  0  0  0  0  0  0  0  0  0  0
  143.1468   77.9666  216.2468 H   0  0  0  0  0  0  0  0  0  0  0  0
  142.8280   80.4000  215.9656 H   0  0  0  0  0  0  0  0  0  0  0  0
  141.8204   81.7733  217.7899 H   0  0  0  0  0  0  0  0  0  0  0  0
  141.3536   75.1970  222.1068 H   0  0  0  0  0  0  0  0  0  0  0  0
  139.5112   76.5357  223.1454 H   0  0  0  0  0  0  0  0  0  0  0  0
  138.7819   79.1019  223.1641 H   0  0  0  0  0  0  0  0  0  0  0  0
  139.4459   81.3878  223.8353 H   0  0  0  0  0  0  0  0  0  0  0  0
  141.8734   81.9384  224.1523 H   0  0  0  0  0  0  0  0  0  0  0  0
  143.5791   80.1430  223.7890 H   0  0  0  0  0  0  0  0  0  0  0  0
  142.8672   77.8992  223.1293 H   0  0  0  0  0  0  0  0  0  0  0  0
  141.9744   74.3429  220.8015 H   0  0  0  0  0  0  0  0  0  0  0  0
  141.6215   74.1529  218.9971 H   0  0  0  0  0  0  0  0  0  0  0  0
  144.1026   74.8453  218.8702 H   0  0  0  0  0  0  0  0  0  0  0  0
  143.0973   72.0072  219.4633 H   0  0  0  0  0  0  0  0  0  0  0  0
  143.2110   72.7736  217.8604 H   0  0  0  0  0  0  0  0  0  0  0  0
  145.2812   71.4134  219.4046 H   0  0  0  0  0  0  0  0  0  0  0  0
  145.3581   72.0826  217.7177 H   0  0  0  0  0  0  0  0  0  0  0  0
  146.1500   74.1150  218.5510 H   0  0  0  0  0  0  0  0  0  0  0  0
  146.3086   73.0958  221.2468 H   0  0  0  0  0  0  0  0  0  0  0  0
  146.2851   74.7914  220.6535 H   0  0  0  0  0  0  0  0  0  0  0  0
  144.0135   72.9444  221.3102 H   0  0  0  0  0  0  0  0  0  0  0  0
  144.1470   74.7067  221.5357 H   0  0  0  0  0  0  0  0  0  0  0  0
  1  2  2  0
  2  3  1  0
  3  4  2  0
  4  5  1  0
  5  6  2  0
  6  7  1  0
  7  8  1  0
  7  9  2  0
  9 10  1  0
 10 11  2  0
 11 12  1  0
 12 13  2  0
 13 14  1  0
 14 15  2  0
 15 16  1  0
 16 17  2  0
 17 18  1  0
 18 19  2  0
 11 20  1  0
 20 21  1  0
 21 22  1  0
 22 23  1  0
 23 24  1  0
 24 25  1  0
 25 26  1  0
 26 27  1  0
 20  2  1  0
 27 22  1  0
  9  3  1  0
 19 14  1  0
  4 28  1  0
  5 29  1  0
  6 30  1  0
 12 31  1  0
 13 32  1  0
 15 33  1  0
 16 34  1  0
 17 35  1  0
 18 36  1  0
 19 37  1  0
 21 38  1  0
 21 39  1  0
 22 40  1  0
 23 41  1  0
 23 42  1  0
 24 43  1  0
 24 44  1  0
 25 45  1  0
 26 46  1  0
 26 47  1  0
 27 48  1  0
 27 49  1  0
M  END
>  <smiles>  (18) 
O=c1c2cccc(Cl)c2nc(/C=C/c2ccccc2)n1CC1CCNCC1

>  <score_type>  (18) 
oracle

>  <origin>  (18) 
autodockgpu

>  <m_score__min__energy>  (18) 
-8

>  <m_primary>  (18) 
energy

>  <meeko>  (18) 
{"free_energy": -7.59, "intermolecular_energy": -9.08, "internal_energy": -1.43, "cluster_size": 7, "cluster_id": 2, "rank_in_cluster": 5}

>  <energy>  (18) 
-6.49

>  <cluster_rmsd>  (18) 
0.14

>  <rmsd>  (18) 
270.74

>  <cluster>  (18) 
5

$$$$

     RDKit          3D

 49 52  0  0  0  0  0  0  0  0999 V2000
  142.8490   75.6750  217.5610 O   0  0  0  0  0  0  0  0  0  0  0  0
  142.3470   76.4170  218.4280 C   0  0  0  0  0  0  0  0  0  0  0  0
  142.1330   77.7420  218.0580 C   0  0  0  0  0  0  0  0  0  0  0  0
  142.4470   78.2330  216.8180 C   0  0  0  0  0  0  0  0  0  0  0  0
  142.2080   79.5570  216.5190 C   0  0  0  0  0  0  0  0  0  0  0  0
  141.6480   80.4200  217.4650 C   0  0  0  0  0  0  0  0  0  0  0  0
  141.3300   79.9280  218.7210 C   0  0  0  0  0  0  0  0  0  0  0  0
  140.6280   80.9830  219.9210 Cl  0  0  0  0  0  0  0  0  0  0  0  0
  141.5820   78.5930  218.9870 C   0  0  0  0  0  0  0  0  0  0  0  0
  141.2640   78.1490  220.2100 N   0  0  0  0  0  0  0  0  0  0  0  0
  141.4770   76.8680  220.5460 C   0  0  0  0  0  0  0  0  0  0  0  0
  141.1160   76.4190  221.9070 C   0  0  0  0  0  0  0  0  0  0  0  0
  140.4410   77.2250  222.6940 C   0  0  0  0  0  0  0  0  0  0  0  0
  140.8470   78.5790  223.0370 C   0  0  0  0  0  0  0  0  0  0  0  0
  139.9600   79.6130  223.2360 C   0  0  0  0  0  0  0  0  0  0  0  0
  140.3740   80.8980  223.5630 C   0  0  0  0  0  0  0  0  0  0  0  0
  141.7370   81.1690  223.6970 C   0  0  0  0  0  0  0  0  0  0  0  0
  142.6450   80.1370  223.4990 C   0  0  0  0  0  0  0  0  0  0  0  0
  142.1900   78.8860  223.1780 C   0  0  0  0  0  0  0  0  0  0  0  0
  142.0180   75.9760  219.6790 N   0  0  0  0  0  0  0  0  0  0  0  0
  142.2600   74.6080  219.9730 C   0  0  0  0  0  0  0  0  0  0  0  0
  143.6120   74.0800  219.6020 C   0  0  0  0  0  0  0  0  0  0  0  0
  143.5700   72.7680  218.8500 C   0  0  0  0  0  0  0  0  0  0  0  0
  145.0190   72.3180  218.6400 C   0  0  0  0  0  0  0  0  0  0  0  0
  145.9570   73.2970  219.0870 N   0  0  0  0  0  0  0  0  0  0  0  0
  145.8590   73.6730  220.4620 C   0  0  0  0  0  0  0  0  0  0  0  0
  144.4080   73.7640  220.8570 C   0  0  0  0  0  0  0  0  0  0  0  0
  142.8902   77.5699  216.0605 H   0  0  0  0  0  0  0  0  0  0  0  0
  142.4620   79.9406  215.5198 H   0  0  0  0  0  0  0  0  0  0  0  0
  141.4622   81.4752  217.2161 H   0  0  0  0  0  0  0  0  0  0  0  0
  141.4100   75.4187  222.2576 H   0  0  0  0  0  0  0  0  0  0  0  0
  139.5012   76.8492  223.1247 H   0  0  0  0  0  0  0  0  0  0  0  0
  138.8831   79.4141  223.1321 H   0  0  0  0  0  0  0  0  0  0  0  0
  139.6330   81.6966  223.7153 H   0  0  0  0  0  0  0  0  0  0  0  0
  142.0849   82.1803  223.9544 H   0  0  0  0  0  0  0  0  0  0  0  0
  143.7244   80.3236  223.5995 H   0  0  0  0  0  0  0  0  0  0  0  0
  142.9281   78.0850  223.0245 H   0  0  0  0  0  0  0  0  0  0  0  0
  142.1318   74.4701  221.0568 H   0  0  0  0  0  0  0  0  0  0  0  0
  141.5447   74.0438  219.3565 H   0  0  0  0  0  0  0  0  0  0  0  0
  144.0546   74.8673  218.9740 H   0  0  0  0  0  0  0  0  0  0  0  0
  143.0231   72.0151  219.4365 H   0  0  0  0  0  0  0  0  0  0  0  0
  143.0553   72.8879  217.8853 H   0  0  0  0  0  0  0  0  0  0  0  0
  145.1854   71.3860  219.2001 H   0  0  0  0  0  0  0  0  0  0  0  0
  145.1738   72.1693  217.5612 H   0  0  0  0  0  0  0  0  0  0  0  0
  146.0620   74.1230  218.4790 H   0  0  0  0  0  0  0  0  0  0  0  0
  146.3617   72.9185  221.0849 H   0  0  0  0  0  0  0  0  0  0  0  0
  146.3405   74.6510  220.6093 H   0  0  0  0  0  0  0  0  0  0  0  0
  144.0738   72.8063  221.2825 H   0  0  0  0  0  0  0  0  0  0  0  0
  144.2615   74.5466  221.6160 H   0  0  0  0  0  0  0  0  0  0  0  0
  1  2  2  0
  2  3  1  0
  3  4  2  0
  4  5  1  0
  5  6  2  0
  6  7  1  0
  7  8  1  0
  7  9  2  0
  9 10  1  0
 10 11  2  0
 11 12  1  0
 12 13  2  0
 13 14  1  0
 14 15  2  0
 15 16  1  0
 16 17  2  0
 17 18  1  0
 18 19  2  0
 11 20  1  0
 20 21  1  0
 21 22  1  0
 22 23  1  0
 23 24  1  0
 24 25  1  0
 25 26  1  0
 26 27  1  0
 20  2  1  0
 27 22  1  0
  9  3  1  0
 19 14  1  0
  4 28  1  0
  5 29  1  0
  6 30  1  0
 12 31  1  0
 13 32  1  0
 15 33  1  0
 16 34  1  0
 17 35  1  0
 18 36  1  0
 19 37  1  0
 21 38  1  0
 21 39  1  0
 22 40  1  0
 23 41  1  0
 23 42  1  0
 24 43  1  0
 24 44  1  0
 25 45  1  0
 26 46  1  0
 26 47  1  0
 27 48  1  0
 27 49  1  0
M  END
>  <smiles>  (19) 
O=c1c2cccc(Cl)c2nc(/C=C/c2ccccc2)n1CC1CCNCC1

>  <score_type>  (19) 
oracle

>  <origin>  (19) 
autodockgpu

>  <m_score__min__energy>  (19) 
-8

>  <m_primary>  (19) 
energy

>  <meeko>  (19) 
{"free_energy": -7.64, "intermolecular_energy": -9.13, "internal_energy": -1.44, "cluster_size": 7, "cluster_id": 2, "rank_in_cluster": 4}

>  <energy>  (19) 
-6.48

>  <cluster_rmsd>  (19) 
0.11

>  <rmsd>  (19) 
270.76

>  <cluster>  (19) 
5

$$$$

     RDKit          3D

 49 52  0  0  0  0  0  0  0  0999 V2000
  142.8790   75.9100  217.3860 O   0  0  0  0  0  0  0  0  0  0  0  0
  142.4340   76.5720  218.3450 C   0  0  0  0  0  0  0  0  0  0  0  0
  142.2830   77.9400  218.1340 C   0  0  0  0  0  0  0  0  0  0  0  0
  142.5980   78.5540  216.9510 C   0  0  0  0  0  0  0  0  0  0  0  0
  142.4230   79.9150  216.8110 C   0  0  0  0  0  0  0  0  0  0  0  0
  141.9270   80.6890  217.8630 C   0  0  0  0  0  0  0  0  0  0  0  0
  141.6070   80.0720  219.0620 C   0  0  0  0  0  0  0  0  0  0  0  0
  140.9850   81.0150  220.3920 Cl  0  0  0  0  0  0  0  0  0  0  0  0
  141.7950   78.7040  219.1670 C   0  0  0  0  0  0  0  0  0  0  0  0
  141.4760   78.1380  220.3390 N   0  0  0  0  0  0  0  0  0  0  0  0
  141.6280   76.8180  220.5210 C   0  0  0  0  0  0  0  0  0  0  0  0
  141.2690   76.2330  221.8300 C   0  0  0  0  0  0  0  0  0  0  0  0
  140.5700   76.9440  222.6850 C   0  0  0  0  0  0  0  0  0  0  0  0
  140.8870   78.3080  223.0790 C   0  0  0  0  0  0  0  0  0  0  0  0
  142.1690   78.7580  223.3040 C   0  0  0  0  0  0  0  0  0  0  0  0
  142.4450   80.0670  223.6810 C   0  0  0  0  0  0  0  0  0  0  0  0
  141.3940   80.9720  223.8430 C   0  0  0  0  0  0  0  0  0  0  0  0
  140.0960   80.5340  223.6200 C   0  0  0  0  0  0  0  0  0  0  0  0
  139.8730   79.2350  223.2500 C   0  0  0  0  0  0  0  0  0  0  0  0
  142.1050   76.0060  219.5440 N   0  0  0  0  0  0  0  0  0  0  0  0
  142.2800   74.6030  219.6740 C   0  0  0  0  0  0  0  0  0  0  0  0
  143.6740   74.0890  219.4770 C   0  0  0  0  0  0  0  0  0  0  0  0
  143.7350   72.7390  218.7950 C   0  0  0  0  0  0  0  0  0  0  0  0
  145.2060   72.3130  218.7640 C   0  0  0  0  0  0  0  0  0  0  0  0
  146.0740   73.3350  219.2540 N   0  0  0  0  0  0  0  0  0  0  0  0
  145.8230   73.7770  220.5890 C   0  0  0  0  0  0  0  0  0  0  0  0
  144.3360   73.8550  220.8230 C   0  0  0  0  0  0  0  0  0  0  0  0
  142.9909   77.9613  216.1118 H   0  0  0  0  0  0  0  0  0  0  0  0
  142.6779   80.3984  215.8564 H   0  0  0  0  0  0  0  0  0  0  0  0
  141.7922   81.7739  217.7413 H   0  0  0  0  0  0  0  0  0  0  0  0
  141.5846   75.2108  222.0860 H   0  0  0  0  0  0  0  0  0  0  0  0
  139.6824   76.4750  223.1348 H   0  0  0  0  0  0  0  0  0  0  0  0
  143.0060   78.0550  223.1807 H   0  0  0  0  0  0  0  0  0  0  0  0
  143.4835   80.3876  223.8505 H   0  0  0  0  0  0  0  0  0  0  0  0
  141.5910   82.0122  224.1417 H   0  0  0  0  0  0  0  0  0  0  0  0
  139.2505   81.2273  223.7400 H   0  0  0  0  0  0  0  0  0  0  0  0
  138.8355   78.9113  223.0799 H   0  0  0  0  0  0  0  0  0  0  0  0
  141.9566   74.3168  220.6857 H   0  0  0  0  0  0  0  0  0  0  0  0
  141.6842   74.1558  218.8646 H   0  0  0  0  0  0  0  0  0  0  0  0
  144.1677   74.8539  218.8596 H   0  0  0  0  0  0  0  0  0  0  0  0
  143.1418   72.0045  219.3595 H   0  0  0  0  0  0  0  0  0  0  0  0
  143.3239   72.7973  217.7764 H   0  0  0  0  0  0  0  0  0  0  0  0
  145.3280   71.4154  219.3880 H   0  0  0  0  0  0  0  0  0  0  0  0
  145.4775   72.1128  217.7170 H   0  0  0  0  0  0  0  0  0  0  0  0
  146.2280   74.1310  218.6180 H   0  0  0  0  0  0  0  0  0  0  0  0
  146.2690   73.0662  221.3002 H   0  0  0  0  0  0  0  0  0  0  0  0
  146.2691   74.7718  220.7351 H   0  0  0  0  0  0  0  0  0  0  0  0
  143.9747   72.9126  221.2605 H   0  0  0  0  0  0  0  0  0  0  0  0
  144.0958   74.6713  221.5201 H   0  0  0  0  0  0  0  0  0  0  0  0
  1  2  2  0
  2  3  1  0
  3  4  2  0
  4  5  1  0
  5  6  2  0
  6  7  1  0
  7  8  1  0
  7  9  2  0
  9 10  1  0
 10 11  2  0
 11 12  1  0
 12 13  2  0
 13 14  1  0
 14 15  2  0
 15 16  1  0
 16 17  2  0
 17 18  1  0
 18 19  2  0
 11 20  1  0
 20 21  1  0
 21 22  1  0
 22 23  1  0
 23 24  1  0
 24 25  1  0
 25 26  1  0
 26 27  1  0
 20  2  1  0
 27 22  1  0
  9  3  1  0
 19 14  1  0
  4 28  1  0
  5 29  1  0
  6 30  1  0
 12 31  1  0
 13 32  1  0
 15 33  1  0
 16 34  1  0
 17 35  1  0
 18 36  1  0
 19 37  1  0
 21 38  1  0
 21 39  1  0
 22 40  1  0
 23 41  1  0
 23 42  1  0
 24 43  1  0
 24 44  1  0
 25 45  1  0
 26 46  1  0
 26 47  1  0
 27 48  1  0
 27 49  1  0
M  END
>  <smiles>  (20) 
O=c1c2cccc(Cl)c2nc(/C=C/c2ccccc2)n1CC1CCNCC1

>  <score_type>  (20) 
oracle

>  <origin>  (20) 
autodockgpu

>  <m_score__min__energy>  (20) 
-8

>  <m_primary>  (20) 
energy

>  <meeko>  (20) 
{"free_energy": -7.51, "intermolecular_energy": -9.0, "internal_energy": -1.47, "cluster_size": 7, "cluster_id": 2, "rank_in_cluster": 6}

>  <energy>  (20) 
-6.47

>  <cluster_rmsd>  (20) 
0.04

>  <rmsd>  (20) 
270.76

>  <cluster>  (20) 
5

$$$$
