FMMHNRBASQNFIB-VAWYXSNFNA-N
     RDKit          3D

 44 47  0  0  0  0  0  0  0  0999 V2000
  139.3040   73.3970  223.3880 H   0  0  0  0  0  0  0  0  0  0  0  0
  139.9160   73.6330  222.6160 O   0  0  0  0  0  0  0  0  0  0  0  0
  140.4600   72.6550  221.7850 C   0  0  0  0  0  0  0  0  0  0  0  0
  141.5820   72.9720  221.0040 C   0  0  0  0  0  0  0  0  0  0  0  0
  142.0133   73.9827  221.0534 H   0  0  0  0  0  0  0  0  0  0  0  0
  142.1550   72.0150  220.1650 C   0  0  0  0  0  0  0  0  0  0  0  0
  143.0319   72.2740  219.5535 H   0  0  0  0  0  0  0  0  0  0  0  0
  141.6160   70.7310  220.1020 C   0  0  0  0  0  0  0  0  0  0  0  0
  142.0711   69.9759  219.4442 H   0  0  0  0  0  0  0  0  0  0  0  0
  140.4990   70.4020  220.8730 C   0  0  0  0  0  0  0  0  0  0  0  0
  140.0861   69.3836  220.8236 H   0  0  0  0  0  0  0  0  0  0  0  0
  139.8950   71.3560  221.7120 C   0  0  0  0  0  0  0  0  0  0  0  0
  138.7110   70.9050  222.5530 C   0  0  0  0  0  0  0  0  0  0  0  0
  138.0283   70.3284  221.9115 H   0  0  0  0  0  0  0  0  0  0  0  0
  138.2386   71.8122  222.9577 H   0  0  0  0  0  0  0  0  0  0  0  0
  139.0920   70.0610  223.7090 N   0  0  0  0  0  0  0  0  0  0  0  0
  138.7260   68.7300  223.7980 C   0  0  0  0  0  0  0  0  0  0  0  0
  137.9640   68.0210  222.7490 C   0  0  0  0  0  0  0  0  0  0  0  0
  136.9912   68.4264  222.4339 H   0  0  0  0  0  0  0  0  0  0  0  0
  138.4170   66.9010  222.1680 C   0  0  0  0  0  0  0  0  0  0  0  0
  138.1882   65.9400  222.6520 H   0  0  0  0  0  0  0  0  0  0  0  0
  139.2070   66.8770  220.9140 C   0  0  0  0  0  0  0  0  0  0  0  0
  138.8810   67.6530  219.7840 C   0  0  0  0  0  0  0  0  0  0  0  0
  138.0087   68.3226  219.8120 H   0  0  0  0  0  0  0  0  0  0  0  0
  139.6410   67.5770  218.6590 N   0  0  0  0  0  0  0  0  0  0  0  0
  140.7250   66.7630  218.5790 C   0  0  0  0  0  0  0  0  0  0  0  0
  141.3230   66.7326  217.6562 H   0  0  0  0  0  0  0  0  0  0  0  0
  141.0800   65.9660  219.6660 C   0  0  0  0  0  0  0  0  0  0  0  0
  141.9544   65.3014  219.6050 H   0  0  0  0  0  0  0  0  0  0  0  0
  140.3160   66.0190  220.8320 C   0  0  0  0  0  0  0  0  0  0  0  0
  140.5833   65.3860  221.6910 H   0  0  0  0  0  0  0  0  0  0  0  0
  139.0190   68.0190  224.9160 N   0  0  0  0  0  0  0  0  0  0  0  0
  139.6940   68.5600  225.9560 C   0  0  0  0  0  0  0  0  0  0  0  0
  139.9880   67.7810  227.0820 C   0  0  0  0  0  0  0  0  0  0  0  0
  139.6704   66.7286  227.1211 H   0  0  0  0  0  0  0  0  0  0  0  0
  140.6850   68.3410  228.1560 C   0  0  0  0  0  0  0  0  0  0  0  0
  140.9167   67.7283  229.0397 H   0  0  0  0  0  0  0  0  0  0  0  0
  141.0880   69.6780  228.1090 C   0  0  0  0  0  0  0  0  0  0  0  0
  141.6372   70.1154  228.9558 H   0  0  0  0  0  0  0  0  0  0  0  0
  140.7950   70.4620  226.9880 C   0  0  0  0  0  0  0  0  0  0  0  0
  141.1116   71.5150  226.9557 H   0  0  0  0  0  0  0  0  0  0  0  0
  140.0950   69.9040  225.9010 C   0  0  0  0  0  0  0  0  0  0  0  0
  139.7660   70.6500  224.7560 C   0  0  0  0  0  0  0  0  0  0  0  0
  140.0920   71.8700  224.6960 O   0  0  0  0  0  0  0  0  0  0  0  0
  1  2  1  0
  2  3  1  0
  3  4  2  0
  4  5  1  0
  4  6  1  0
  6  7  1  0
  6  8  2  0
  8  9  1  0
  8 10  1  0
 10 11  1  0
 10 12  2  0
 12 13  1  0
 13 14  1  0
 13 15  1  0
 13 16  1  0
 16 17  1  0
 17 18  1  0
 18 19  1  0
 18 20  2  0
 20 21  1  0
 20 22  1  0
 22 23  2  0
 23 24  1  0
 23 25  1  0
 25 26  2  0
 26 27  1  0
 26 28  1  0
 28 29  1  0
 28 30  2  0
 30 31  1  0
 17 32  2  0
 32 33  1  0
 33 34  2  0
 34 35  1  0
 34 36  1  0
 36 37  1  0
 36 38  2  0
 38 39  1  0
 38 40  1  0
 40 41  1  0
 40 42  2  0
 42 43  1  0
 43 44  2  0
 12  3  1  0
 43 16  1  0
 30 22  1  0
 42 33  1  0
M  END
>  <UniqueID>  (1) 
503

>  <SMILES>  (1) 
O=c1c2ccccc2nc(/C=C/c2cccnc2)n1Cc1ccccc1O

>  <Energy>  (1) 
70.04870841384653

>  <Genealogy>  (1) 
O=c1c2ccccc2nc(/C=C/c2cccnc2)n1Cc1ccccc1O (cis-trans isomerization)
O=c1c2ccccc2nc(/C=C/c2cccnc2)n1Cc1ccccc1O (3D coordinates assigned)
O=c1c2ccccc2nc(/C=C/c2cccnc2)n1Cc1ccccc1O (optimized conformer: 70.04870841384653 kcal/mol)

>  <smiles>  (1) 
O=c1c2ccccc2nc(/C=C/c2cccnc2)n1Cc1ccccc1O

>  <score_type>  (1) 
oracle

>  <origin>  (1) 
autodockgpu

>  <m_score__min__energy>  (1) 
-7.6799999999999997

>  <m_primary>  (1) 
energy

>  <meeko>  (1) 
{"free_energy": -6.86, "intermolecular_energy": -8.65, "internal_energy": -2.01, "cluster_size": 3, "cluster_id": 2, "rank_in_cluster": 3}

>  <energy>  (1) 
-7.68

>  <cluster_rmsd>  (1) 
0.0

>  <rmsd>  (1) 
271.68

>  <cluster>  (1) 
1

$$$$
FMMHNRBASQNFIB-VAWYXSNFNA-N
     RDKit          3D

 44 47  0  0  0  0  0  0  0  0999 V2000
  139.5100   73.5920  223.4430 H   0  0  0  0  0  0  0  0  0  0  0  0
  139.9360   73.7190  222.5330 O   0  0  0  0  0  0  0  0  0  0  0  0
  140.3180   72.6360  221.7430 C   0  0  0  0  0  0  0  0  0  0  0  0
  141.4220   72.7730  220.8870 C   0  0  0  0  0  0  0  0  0  0  0  0
  141.9661   73.7282  220.8471 H   0  0  0  0  0  0  0  0  0  0  0  0
  141.8350   71.7070  220.0860 C   0  0  0  0  0  0  0  0  0  0  0  0
  142.6987   71.8249  219.4151 H   0  0  0  0  0  0  0  0  0  0  0  0
  141.1520   70.4930  220.1370 C   0  0  0  0  0  0  0  0  0  0  0  0
  141.4810   69.6517  219.5093 H   0  0  0  0  0  0  0  0  0  0  0  0
  140.0510   70.3420  220.9830 C   0  0  0  0  0  0  0  0  0  0  0  0
  139.5239   69.3773  221.0220 H   0  0  0  0  0  0  0  0  0  0  0  0
  139.6080   71.4090  221.7860 C   0  0  0  0  0  0  0  0  0  0  0  0
  138.4300   71.1500  222.7130 C   0  0  0  0  0  0  0  0  0  0  0  0
  137.6332   70.6595  222.1346 H   0  0  0  0  0  0  0  0  0  0  0  0
  138.1149   72.1242  223.1151 H   0  0  0  0  0  0  0  0  0  0  0  0
  138.7660   70.2900  223.8700 N   0  0  0  0  0  0  0  0  0  0  0  0
  138.1810   69.0510  224.0580 C   0  0  0  0  0  0  0  0  0  0  0  0
  137.2090   68.4560  223.1160 C   0  0  0  0  0  0  0  0  0  0  0  0
  137.5763   67.7762  222.3330 H   0  0  0  0  0  0  0  0  0  0  0  0
  135.8970   68.7160  223.1830 C   0  0  0  0  0  0  0  0  0  0  0  0
  135.2816   68.4944  222.2986 H   0  0  0  0  0  0  0  0  0  0  0  0
  135.2220   69.2840  224.3750 C   0  0  0  0  0  0  0  0  0  0  0  0
  134.5610   68.4920  225.3360 C   0  0  0  0  0  0  0  0  0  0  0  0
  134.5380   67.3981  225.2229 H   0  0  0  0  0  0  0  0  0  0  0  0
  133.9520   69.0760  226.4020 N   0  0  0  0  0  0  0  0  0  0  0  0
  133.9530   70.4220  226.5810 C   0  0  0  0  0  0  0  0  0  0  0  0
  133.4570   70.8606  227.4594 H   0  0  0  0  0  0  0  0  0  0  0  0
  134.5830   71.2480  225.6510 C   0  0  0  0  0  0  0  0  0  0  0  0
  134.5841   72.3394  225.7886 H   0  0  0  0  0  0  0  0  0  0  0  0
  135.2120   70.6770  224.5440 C   0  0  0  0  0  0  0  0  0  0  0  0
  135.7025   71.3221  223.8001 H   0  0  0  0  0  0  0  0  0  0  0  0
  138.4510   68.3350  225.1790 N   0  0  0  0  0  0  0  0  0  0  0  0
  139.3080   68.7790  226.1270 C   0  0  0  0  0  0  0  0  0  0  0  0
  139.5670   67.9970  227.2590 C   0  0  0  0  0  0  0  0  0  0  0  0
  139.0745   67.0206  227.3775 H   0  0  0  0  0  0  0  0  0  0  0  0
  140.4510   68.4570  228.2380 C   0  0  0  0  0  0  0  0  0  0  0  0
  140.6547   67.8421  229.1270 H   0  0  0  0  0  0  0  0  0  0  0  0
  141.0770   69.6980  228.0890 C   0  0  0  0  0  0  0  0  0  0  0  0
  141.7738   70.0570  228.8608 H   0  0  0  0  0  0  0  0  0  0  0  0
  140.8200   70.4840  226.9620 C   0  0  0  0  0  0  0  0  0  0  0  0
  141.3125   71.4612  226.8502 H   0  0  0  0  0  0  0  0  0  0  0  0
  139.9320   70.0270  225.9700 C   0  0  0  0  0  0  0  0  0  0  0  0
  139.6310   70.7810  224.8230 C   0  0  0  0  0  0  0  0  0  0  0  0
  140.1590   71.9200  224.6740 O   0  0  0  0  0  0  0  0  0  0  0  0
  1  2  1  0
  2  3  1  0
  3  4  2  0
  4  5  1  0
  4  6  1  0
  6  7  1  0
  6  8  2  0
  8  9  1  0
  8 10  1  0
 10 11  1  0
 10 12  2  0
 12 13  1  0
 13 14  1  0
 13 15  1  0
 13 16  1  0
 16 17  1  0
 17 18  1  0
 18 19  1  0
 18 20  2  0
 20 21  1  0
 20 22  1  0
 22 23  2  0
 23 24  1  0
 23 25  1  0
 25 26  2  0
 26 27  1  0
 26 28  1  0
 28 29  1  0
 28 30  2  0
 30 31  1  0
 17 32  2  0
 32 33  1  0
 33 34  2  0
 34 35  1  0
 34 36  1  0
 36 37  1  0
 36 38  2  0
 38 39  1  0
 38 40  1  0
 40 41  1  0
 40 42  2  0
 42 43  1  0
 43 44  2  0
 12  3  1  0
 43 16  1  0
 30 22  1  0
 42 33  1  0
M  END
>  <UniqueID>  (2) 
503

>  <SMILES>  (2) 
O=c1c2ccccc2nc(/C=C/c2cccnc2)n1Cc1ccccc1O

>  <Energy>  (2) 
70.04870841384653

>  <Genealogy>  (2) 
O=c1c2ccccc2nc(/C=C/c2cccnc2)n1Cc1ccccc1O (cis-trans isomerization)
O=c1c2ccccc2nc(/C=C/c2cccnc2)n1Cc1ccccc1O (3D coordinates assigned)
O=c1c2ccccc2nc(/C=C/c2cccnc2)n1Cc1ccccc1O (optimized conformer: 70.04870841384653 kcal/mol)

>  <smiles>  (2) 
O=c1c2ccccc2nc(/C=C/c2cccnc2)n1Cc1ccccc1O

>  <score_type>  (2) 
oracle

>  <origin>  (2) 
autodockgpu

>  <m_score__min__energy>  (2) 
-7.6799999999999997

>  <m_primary>  (2) 
energy

>  <meeko>  (2) 
{"free_energy": -7.46, "intermolecular_energy": -9.25, "internal_energy": -1.94, "cluster_size": 12, "cluster_id": 1, "rank_in_cluster": 9}

>  <energy>  (2) 
-7.55

>  <cluster_rmsd>  (2) 
0.32

>  <rmsd>  (2) 
271.68

>  <cluster>  (2) 
1

$$$$
FMMHNRBASQNFIB-VAWYXSNFNA-N
     RDKit          3D

 44 47  0  0  0  0  0  0  0  0999 V2000
  139.5510   73.6430  223.3420 H   0  0  0  0  0  0  0  0  0  0  0  0
  139.9580   73.7590  222.4210 O   0  0  0  0  0  0  0  0  0  0  0  0
  140.4010   72.6700  221.6720 C   0  0  0  0  0  0  0  0  0  0  0  0
  141.5380   72.8160  220.8640 C   0  0  0  0  0  0  0  0  0  0  0  0
  142.0608   73.7832  220.8282 H   0  0  0  0  0  0  0  0  0  0  0  0
  142.0120   71.7450  220.1050 C   0  0  0  0  0  0  0  0  0  0  0  0
  142.9020   71.8710  219.4709 H   0  0  0  0  0  0  0  0  0  0  0  0
  141.3570   70.5160  220.1510 C   0  0  0  0  0  0  0  0  0  0  0  0
  141.7333   69.6709  219.5559 H   0  0  0  0  0  0  0  0  0  0  0  0
  140.2240   70.3550  220.9510 C   0  0  0  0  0  0  0  0  0  0  0  0
  139.7199   69.3780  220.9884 H   0  0  0  0  0  0  0  0  0  0  0  0
  139.7190   71.4270  221.7100 C   0  0  0  0  0  0  0  0  0  0  0  0
  138.5080   71.1570  222.5910 C   0  0  0  0  0  0  0  0  0  0  0  0
  137.7515   70.6306  221.9905 H   0  0  0  0  0  0  0  0  0  0  0  0
  138.1498   72.1315  222.9544 H   0  0  0  0  0  0  0  0  0  0  0  0
  138.8140   70.3350  223.7830 N   0  0  0  0  0  0  0  0  0  0  0  0
  138.2010   69.1170  224.0130 C   0  0  0  0  0  0  0  0  0  0  0  0
  137.2250   68.5070  223.0850 C   0  0  0  0  0  0  0  0  0  0  0  0
  137.5928   67.8448  222.2874 H   0  0  0  0  0  0  0  0  0  0  0  0
  135.9080   68.7330  223.1820 C   0  0  0  0  0  0  0  0  0  0  0  0
  135.2766   68.4807  222.3173 H   0  0  0  0  0  0  0  0  0  0  0  0
  135.2480   69.3020  224.3820 C   0  0  0  0  0  0  0  0  0  0  0  0
  134.5820   68.5130  225.3410 C   0  0  0  0  0  0  0  0  0  0  0  0
  134.5426   67.4204  225.2203 H   0  0  0  0  0  0  0  0  0  0  0  0
  133.9880   69.0980  226.4150 N   0  0  0  0  0  0  0  0  0  0  0  0
  134.0080   70.4420  226.6020 C   0  0  0  0  0  0  0  0  0  0  0  0
  133.5230   70.8814  227.4862 H   0  0  0  0  0  0  0  0  0  0  0  0
  134.6430   71.2660  225.6740 C   0  0  0  0  0  0  0  0  0  0  0  0
  134.6590   72.3563  225.8186 H   0  0  0  0  0  0  0  0  0  0  0  0
  135.2580   70.6940  224.5600 C   0  0  0  0  0  0  0  0  0  0  0  0
  135.7531   71.3372  223.8176 H   0  0  0  0  0  0  0  0  0  0  0  0
  138.4440   68.4400  225.1640 N   0  0  0  0  0  0  0  0  0  0  0  0
  139.3010   68.9020  226.1020 C   0  0  0  0  0  0  0  0  0  0  0  0
  139.5330   68.1600  227.2660 C   0  0  0  0  0  0  0  0  0  0  0  0
  139.0182   67.1998  227.4173 H   0  0  0  0  0  0  0  0  0  0  0  0
  140.4180   68.6380  228.2360 C   0  0  0  0  0  0  0  0  0  0  0  0
  140.5999   68.0534  229.1498 H   0  0  0  0  0  0  0  0  0  0  0  0
  141.0720   69.8580  228.0460 C   0  0  0  0  0  0  0  0  0  0  0  0
  141.7690   70.2315  228.8107 H   0  0  0  0  0  0  0  0  0  0  0  0
  140.8430   70.6060  226.8860 C   0  0  0  0  0  0  0  0  0  0  0  0
  141.3578   71.5673  226.7412 H   0  0  0  0  0  0  0  0  0  0  0  0
  139.9540   70.1290  225.9040 C   0  0  0  0  0  0  0  0  0  0  0  0
  139.6810   70.8450  224.7260 C   0  0  0  0  0  0  0  0  0  0  0  0
  140.2350   71.9660  224.5380 O   0  0  0  0  0  0  0  0  0  0  0  0
  1  2  1  0
  2  3  1  0
  3  4  2  0
  4  5  1  0
  4  6  1  0
  6  7  1  0
  6  8  2  0
  8  9  1  0
  8 10  1  0
 10 11  1  0
 10 12  2  0
 12 13  1  0
 13 14  1  0
 13 15  1  0
 13 16  1  0
 16 17  1  0
 17 18  1  0
 18 19  1  0
 18 20  2  0
 20 21  1  0
 20 22  1  0
 22 23  2  0
 23 24  1  0
 23 25  1  0
 25 26  2  0
 26 27  1  0
 26 28  1  0
 28 29  1  0
 28 30  2  0
 30 31  1  0
 17 32  2  0
 32 33  1  0
 33 34  2  0
 34 35  1  0
 34 36  1  0
 36 37  1  0
 36 38  2  0
 38 39  1  0
 38 40  1  0
 40 41  1  0
 40 42  2  0
 42 43  1  0
 43 44  2  0
 12  3  1  0
 43 16  1  0
 30 22  1  0
 42 33  1  0
M  END
>  <UniqueID>  (3) 
503

>  <SMILES>  (3) 
O=c1c2ccccc2nc(/C=C/c2cccnc2)n1Cc1ccccc1O

>  <Energy>  (3) 
70.04870841384653

>  <Genealogy>  (3) 
O=c1c2ccccc2nc(/C=C/c2cccnc2)n1Cc1ccccc1O (cis-trans isomerization)
O=c1c2ccccc2nc(/C=C/c2cccnc2)n1Cc1ccccc1O (3D coordinates assigned)
O=c1c2ccccc2nc(/C=C/c2cccnc2)n1Cc1ccccc1O (optimized conformer: 70.04870841384653 kcal/mol)

>  <smiles>  (3) 
O=c1c2ccccc2nc(/C=C/c2cccnc2)n1Cc1ccccc1O

>  <score_type>  (3) 
oracle

>  <origin>  (3) 
autodockgpu

>  <m_score__min__energy>  (3) 
-7.6799999999999997

>  <m_primary>  (3) 
energy

>  <meeko>  (3) 
{"free_energy": -7.48, "intermolecular_energy": -9.27, "internal_energy": -1.92, "cluster_size": 12, "cluster_id": 1, "rank_in_cluster": 7}

>  <energy>  (3) 
-7.54

>  <cluster_rmsd>  (3) 
0.32

>  <rmsd>  (3) 
271.67

>  <cluster>  (3) 
1

$$$$
FMMHNRBASQNFIB-VAWYXSNFNA-N
     RDKit          3D

 44 47  0  0  0  0  0  0  0  0999 V2000
  139.5340   73.6360  223.4340 H   0  0  0  0  0  0  0  0  0  0  0  0
  139.9240   73.7630  222.5070 O   0  0  0  0  0  0  0  0  0  0  0  0
  140.3460   72.6830  221.7340 C   0  0  0  0  0  0  0  0  0  0  0  0
  141.4670   72.8360  220.9040 C   0  0  0  0  0  0  0  0  0  0  0  0
  141.9935   73.8012  220.8703 H   0  0  0  0  0  0  0  0  0  0  0  0
  141.9190   71.7730  220.1210 C   0  0  0  0  0  0  0  0  0  0  0  0
  142.7969   71.9033  219.4711 H   0  0  0  0  0  0  0  0  0  0  0  0
  141.2590   70.5470  220.1620 C   0  0  0  0  0  0  0  0  0  0  0  0
  141.6191   69.7088  219.5473 H   0  0  0  0  0  0  0  0  0  0  0  0
  140.1410   70.3800  220.9820 C   0  0  0  0  0  0  0  0  0  0  0  0
  139.6318   69.4055  221.0145 H   0  0  0  0  0  0  0  0  0  0  0  0
  139.6580   71.4430  221.7670 C   0  0  0  0  0  0  0  0  0  0  0  0
  138.4630   71.1670  222.6670 C   0  0  0  0  0  0  0  0  0  0  0  0
  137.6906   70.6565  222.0730 H   0  0  0  0  0  0  0  0  0  0  0  0
  138.1192   72.1376  223.0539 H   0  0  0  0  0  0  0  0  0  0  0  0
  138.7870   70.3220  223.8390 N   0  0  0  0  0  0  0  0  0  0  0  0
  138.1830   69.0950  224.0480 C   0  0  0  0  0  0  0  0  0  0  0  0
  137.2010   68.4990  223.1180 C   0  0  0  0  0  0  0  0  0  0  0  0
  137.5574   67.8050  222.3425 H   0  0  0  0  0  0  0  0  0  0  0  0
  135.8910   68.7750  223.1870 C   0  0  0  0  0  0  0  0  0  0  0  0
  135.2756   68.5832  222.2956 H   0  0  0  0  0  0  0  0  0  0  0  0
  135.2200   69.3230  224.3910 C   0  0  0  0  0  0  0  0  0  0  0  0
  134.5540   68.5150  225.3350 C   0  0  0  0  0  0  0  0  0  0  0  0
  134.5244   67.4238  225.1993 H   0  0  0  0  0  0  0  0  0  0  0  0
  133.9480   69.0810  226.4130 N   0  0  0  0  0  0  0  0  0  0  0  0
  133.9570   70.4230  226.6190 C   0  0  0  0  0  0  0  0  0  0  0  0
  133.4640   70.8465  227.5064 H   0  0  0  0  0  0  0  0  0  0  0  0
  134.5910   71.2640  225.7060 C   0  0  0  0  0  0  0  0  0  0  0  0
  134.5976   72.3523  225.8657 H   0  0  0  0  0  0  0  0  0  0  0  0
  135.2170   70.7130  224.5880 C   0  0  0  0  0  0  0  0  0  0  0  0
  135.7106   71.3706  223.8573 H   0  0  0  0  0  0  0  0  0  0  0  0
  138.4430   68.3950  225.1820 N   0  0  0  0  0  0  0  0  0  0  0  0
  139.3080   68.8430  226.1200 C   0  0  0  0  0  0  0  0  0  0  0  0
  139.5570   68.0760  227.2660 C   0  0  0  0  0  0  0  0  0  0  0  0
  139.0496   67.1095  227.4020 H   0  0  0  0  0  0  0  0  0  0  0  0
  140.4500   68.5390  228.2360 C   0  0  0  0  0  0  0  0  0  0  0  0
  140.6455   67.9363  229.1352 H   0  0  0  0  0  0  0  0  0  0  0  0
  141.0950   69.7670  228.0650 C   0  0  0  0  0  0  0  0  0  0  0  0
  141.7982   70.1283  228.8299 H   0  0  0  0  0  0  0  0  0  0  0  0
  140.8490   70.5380  226.9240 C   0  0  0  0  0  0  0  0  0  0  0  0
  141.3571   71.5050  226.7945 H   0  0  0  0  0  0  0  0  0  0  0  0
  139.9520   70.0780  225.9410 C   0  0  0  0  0  0  0  0  0  0  0  0
  139.6610   70.8160  224.7820 C   0  0  0  0  0  0  0  0  0  0  0  0
  140.2060   71.9440  224.6130 O   0  0  0  0  0  0  0  0  0  0  0  0
  1  2  1  0
  2  3  1  0
  3  4  2  0
  4  5  1  0
  4  6  1  0
  6  7  1  0
  6  8  2  0
  8  9  1  0
  8 10  1  0
 10 11  1  0
 10 12  2  0
 12 13  1  0
 13 14  1  0
 13 15  1  0
 13 16  1  0
 16 17  1  0
 17 18  1  0
 18 19  1  0
 18 20  2  0
 20 21  1  0
 20 22  1  0
 22 23  2  0
 23 24  1  0
 23 25  1  0
 25 26  2  0
 26 27  1  0
 26 28  1  0
 28 29  1  0
 28 30  2  0
 30 31  1  0
 17 32  2  0
 32 33  1  0
 33 34  2  0
 34 35  1  0
 34 36  1  0
 36 37  1  0
 36 38  2  0
 38 39  1  0
 38 40  1  0
 40 41  1  0
 40 42  2  0
 42 43  1  0
 43 44  2  0
 12  3  1  0
 43 16  1  0
 30 22  1  0
 42 33  1  0
M  END
>  <UniqueID>  (4) 
503

>  <SMILES>  (4) 
O=c1c2ccccc2nc(/C=C/c2cccnc2)n1Cc1ccccc1O

>  <Energy>  (4) 
70.04870841384653

>  <Genealogy>  (4) 
O=c1c2ccccc2nc(/C=C/c2cccnc2)n1Cc1ccccc1O (cis-trans isomerization)
O=c1c2ccccc2nc(/C=C/c2cccnc2)n1Cc1ccccc1O (3D coordinates assigned)
O=c1c2ccccc2nc(/C=C/c2cccnc2)n1Cc1ccccc1O (optimized conformer: 70.04870841384653 kcal/mol)

>  <smiles>  (4) 
O=c1c2ccccc2nc(/C=C/c2cccnc2)n1Cc1ccccc1O

>  <score_type>  (4) 
oracle

>  <origin>  (4) 
autodockgpu

>  <m_score__min__energy>  (4) 
-7.6799999999999997

>  <m_primary>  (4) 
energy

>  <meeko>  (4) 
{"free_energy": -7.51, "intermolecular_energy": -9.3, "internal_energy": -1.93, "cluster_size": 12, "cluster_id": 1, "rank_in_cluster": 6}

>  <energy>  (4) 
-7.53

>  <cluster_rmsd>  (4) 
0.31

>  <rmsd>  (4) 
271.7

>  <cluster>  (4) 
1

$$$$
FMMHNRBASQNFIB-VAWYXSNFNA-N
     RDKit          3D

 44 47  0  0  0  0  0  0  0  0999 V2000
  139.5550   73.6400  223.3960 H   0  0  0  0  0  0  0  0  0  0  0  0
  139.9530   73.7600  222.4720 O   0  0  0  0  0  0  0  0  0  0  0  0
  140.3710   72.6730  221.7060 C   0  0  0  0  0  0  0  0  0  0  0  0
  141.4910   72.8160  220.8730 C   0  0  0  0  0  0  0  0  0  0  0  0
  142.0203   73.7794  220.8316 H   0  0  0  0  0  0  0  0  0  0  0  0
  141.9390   71.7470  220.0970 C   0  0  0  0  0  0  0  0  0  0  0  0
  142.8155   71.8707  219.4440 H   0  0  0  0  0  0  0  0  0  0  0  0
  141.2760   70.5220  220.1490 C   0  0  0  0  0  0  0  0  0  0  0  0
  141.6332   69.6779  219.5409 H   0  0  0  0  0  0  0  0  0  0  0  0
  140.1590   70.3650  220.9720 C   0  0  0  0  0  0  0  0  0  0  0  0
  139.6469   69.3923  221.0126 H   0  0  0  0  0  0  0  0  0  0  0  0
  139.6800   71.4350  221.7500 C   0  0  0  0  0  0  0  0  0  0  0  0
  138.4860   71.1690  222.6550 C   0  0  0  0  0  0  0  0  0  0  0  0
  137.7133   70.6508  222.0682 H   0  0  0  0  0  0  0  0  0  0  0  0
  138.1419   72.1440  223.0306 H   0  0  0  0  0  0  0  0  0  0  0  0
  138.8120   70.3390  223.8360 N   0  0  0  0  0  0  0  0  0  0  0  0
  138.1910   69.1260  224.0760 C   0  0  0  0  0  0  0  0  0  0  0  0
  137.1850   68.5310  223.1700 C   0  0  0  0  0  0  0  0  0  0  0  0
  137.5060   67.7623  222.4516 H   0  0  0  0  0  0  0  0  0  0  0  0
  135.8960   68.8960  223.1940 C   0  0  0  0  0  0  0  0  0  0  0  0
  135.3173   68.8055  222.2629 H   0  0  0  0  0  0  0  0  0  0  0  0
  135.2010   69.4140  224.3960 C   0  0  0  0  0  0  0  0  0  0  0  0
  134.5750   68.5790  225.3430 C   0  0  0  0  0  0  0  0  0  0  0  0
  134.5960   67.4873  225.2098 H   0  0  0  0  0  0  0  0  0  0  0  0
  133.9450   69.1180  226.4210 N   0  0  0  0  0  0  0  0  0  0  0  0
  133.8910   70.4590  226.6240 C   0  0  0  0  0  0  0  0  0  0  0  0
  133.3795   70.8606  227.5111 H   0  0  0  0  0  0  0  0  0  0  0  0
  134.4840   71.3280  225.7080 C   0  0  0  0  0  0  0  0  0  0  0  0
  134.4398   72.4158  225.8652 H   0  0  0  0  0  0  0  0  0  0  0  0
  135.1340   70.8030  224.5900 C   0  0  0  0  0  0  0  0  0  0  0  0
  135.5961   71.4808  223.8572 H   0  0  0  0  0  0  0  0  0  0  0  0
  138.4550   68.4410  225.2170 N   0  0  0  0  0  0  0  0  0  0  0  0
  139.3410   68.8900  226.1360 C   0  0  0  0  0  0  0  0  0  0  0  0
  139.5920   68.1400  227.2910 C   0  0  0  0  0  0  0  0  0  0  0  0
  139.0691   67.1856  227.4516 H   0  0  0  0  0  0  0  0  0  0  0  0
  140.5070   68.6040  228.2400 C   0  0  0  0  0  0  0  0  0  0  0  0
  140.7054   68.0132  229.1464 H   0  0  0  0  0  0  0  0  0  0  0  0
  141.1700   69.8170  228.0390 C   0  0  0  0  0  0  0  0  0  0  0  0
  141.8900   70.1791  228.7876 H   0  0  0  0  0  0  0  0  0  0  0  0
  140.9210   70.5720  226.8890 C   0  0  0  0  0  0  0  0  0  0  0  0
  141.4430   71.5281  226.7357 H   0  0  0  0  0  0  0  0  0  0  0  0
  140.0030   70.1100  225.9270 C   0  0  0  0  0  0  0  0  0  0  0  0
  139.7080   70.8340  224.7590 C   0  0  0  0  0  0  0  0  0  0  0  0
  140.2700   71.9490  224.5620 O   0  0  0  0  0  0  0  0  0  0  0  0
  1  2  1  0
  2  3  1  0
  3  4  2  0
  4  5  1  0
  4  6  1  0
  6  7  1  0
  6  8  2  0
  8  9  1  0
  8 10  1  0
 10 11  1  0
 10 12  2  0
 12 13  1  0
 13 14  1  0
 13 15  1  0
 13 16  1  0
 16 17  1  0
 17 18  1  0
 18 19  1  0
 18 20  2  0
 20 21  1  0
 20 22  1  0
 22 23  2  0
 23 24  1  0
 23 25  1  0
 25 26  2  0
 26 27  1  0
 26 28  1  0
 28 29  1  0
 28 30  2  0
 30 31  1  0
 17 32  2  0
 32 33  1  0
 33 34  2  0
 34 35  1  0
 34 36  1  0
 36 37  1  0
 36 38  2  0
 38 39  1  0
 38 40  1  0
 40 41  1  0
 40 42  2  0
 42 43  1  0
 43 44  2  0
 12  3  1  0
 43 16  1  0
 30 22  1  0
 42 33  1  0
M  END
>  <UniqueID>  (5) 
503

>  <SMILES>  (5) 
O=c1c2ccccc2nc(/C=C/c2cccnc2)n1Cc1ccccc1O

>  <Energy>  (5) 
70.04870841384653

>  <Genealogy>  (5) 
O=c1c2ccccc2nc(/C=C/c2cccnc2)n1Cc1ccccc1O (cis-trans isomerization)
O=c1c2ccccc2nc(/C=C/c2cccnc2)n1Cc1ccccc1O (3D coordinates assigned)
O=c1c2ccccc2nc(/C=C/c2cccnc2)n1Cc1ccccc1O (optimized conformer: 70.04870841384653 kcal/mol)

>  <smiles>  (5) 
O=c1c2ccccc2nc(/C=C/c2cccnc2)n1Cc1ccccc1O

>  <score_type>  (5) 
oracle

>  <origin>  (5) 
autodockgpu

>  <m_score__min__energy>  (5) 
-7.6799999999999997

>  <m_primary>  (5) 
energy

>  <meeko>  (5) 
{"free_energy": -7.55, "intermolecular_energy": -9.34, "internal_energy": -1.88, "cluster_size": 12, "cluster_id": 1, "rank_in_cluster": 2}

>  <energy>  (5) 
-7.52

>  <cluster_rmsd>  (5) 
0.3

>  <rmsd>  (5) 
271.67

>  <cluster>  (5) 
1

$$$$
FMMHNRBASQNFIB-VAWYXSNFNA-N
     RDKit          3D

 44 47  0  0  0  0  0  0  0  0999 V2000
  140.9520   73.1230  222.5340 H   0  0  0  0  0  0  0  0  0  0  0  0
  140.3920   73.7600  221.9800 O   0  0  0  0  0  0  0  0  0  0  0  0
  139.0020   73.7890  222.0760 C   0  0  0  0  0  0  0  0  0  0  0  0
  138.3410   75.0260  222.0420 C   0  0  0  0  0  0  0  0  0  0  0  0
  138.9248   75.9533  221.9451 H   0  0  0  0  0  0  0  0  0  0  0  0
  136.9500   75.0910  222.1300 C   0  0  0  0  0  0  0  0  0  0  0  0
  136.4418   76.0663  222.1055 H   0  0  0  0  0  0  0  0  0  0  0  0
  136.2050   73.9190  222.2490 C   0  0  0  0  0  0  0  0  0  0  0  0
  135.1082   73.9702  222.3147 H   0  0  0  0  0  0  0  0  0  0  0  0
  136.8480   72.6800  222.2850 C   0  0  0  0  0  0  0  0  0  0  0  0
  136.2508   71.7601  222.3691 H   0  0  0  0  0  0  0  0  0  0  0  0
  138.2510   72.5940  222.2150 C   0  0  0  0  0  0  0  0  0  0  0  0
  138.8710   71.2050  222.2150 C   0  0  0  0  0  0  0  0  0  0  0  0
  139.8584   71.2648  221.7340 H   0  0  0  0  0  0  0  0  0  0  0  0
  138.1805   70.5433  221.6715 H   0  0  0  0  0  0  0  0  0  0  0  0
  139.0440   70.6340  223.5690 N   0  0  0  0  0  0  0  0  0  0  0  0
  138.2770   69.5770  224.0240 C   0  0  0  0  0  0  0  0  0  0  0  0
  137.2520   68.8990  223.2020 C   0  0  0  0  0  0  0  0  0  0  0  0
  137.5576   68.0636  222.5549 H   0  0  0  0  0  0  0  0  0  0  0  0
  135.9640   69.2670  223.2180 C   0  0  0  0  0  0  0  0  0  0  0  0
  135.4205   69.2831  222.2618 H   0  0  0  0  0  0  0  0  0  0  0  0
  135.2250   69.6540  224.4440 C   0  0  0  0  0  0  0  0  0  0  0  0
  134.6590   68.7150  225.3300 C   0  0  0  0  0  0  0  0  0  0  0  0
  134.7636   67.6387  225.1286 H   0  0  0  0  0  0  0  0  0  0  0  0
  133.9840   69.1360  226.4330 N   0  0  0  0  0  0  0  0  0  0  0  0
  133.8270   70.4540  226.7180 C   0  0  0  0  0  0  0  0  0  0  0  0
  133.2811   70.7593  227.6229 H   0  0  0  0  0  0  0  0  0  0  0  0
  134.3570   71.4210  225.8650 C   0  0  0  0  0  0  0  0  0  0  0  0
  134.2294   72.4902  226.0899 H   0  0  0  0  0  0  0  0  0  0  0  0
  135.0510   71.0190  224.7230 C   0  0  0  0  0  0  0  0  0  0  0  0
  135.4635   71.7748  224.0385 H   0  0  0  0  0  0  0  0  0  0  0  0
  138.4080   69.1440  225.3040 N   0  0  0  0  0  0  0  0  0  0  0  0
  139.2960   69.6950  226.1620 C   0  0  0  0  0  0  0  0  0  0  0  0
  139.4060   69.2030  227.4690 C   0  0  0  0  0  0  0  0  0  0  0  0
  138.7706   68.3674  227.7976 H   0  0  0  0  0  0  0  0  0  0  0  0
  140.3230   69.7740  228.3550 C   0  0  0  0  0  0  0  0  0  0  0  0
  140.4096   69.3867  229.3809 H   0  0  0  0  0  0  0  0  0  0  0  0
  141.1300   70.8360  227.9400 C   0  0  0  0  0  0  0  0  0  0  0  0
  141.8519   71.2821  228.6399 H   0  0  0  0  0  0  0  0  0  0  0  0
  141.0230   71.3340  226.6370 C   0  0  0  0  0  0  0  0  0  0  0  0
  141.6583   72.1723  226.3150 H   0  0  0  0  0  0  0  0  0  0  0  0
  140.1030   70.7630  225.7380 C   0  0  0  0  0  0  0  0  0  0  0  0
  139.9480   71.2300  224.4220 C   0  0  0  0  0  0  0  0  0  0  0  0
  140.6430   72.2090  224.0260 O   0  0  0  0  0  0  0  0  0  0  0  0
  1  2  1  0
  2  3  1  0
  3  4  2  0
  4  5  1  0
  4  6  1  0
  6  7  1  0
  6  8  2  0
  8  9  1  0
  8 10  1  0
 10 11  1  0
 10 12  2  0
 12 13  1  0
 13 14  1  0
 13 15  1  0
 13 16  1  0
 16 17  1  0
 17 18  1  0
 18 19  1  0
 18 20  2  0
 20 21  1  0
 20 22  1  0
 22 23  2  0
 23 24  1  0
 23 25  1  0
 25 26  2  0
 26 27  1  0
 26 28  1  0
 28 29  1  0
 28 30  2  0
 30 31  1  0
 17 32  2  0
 32 33  1  0
 33 34  2  0
 34 35  1  0
 34 36  1  0
 36 37  1  0
 36 38  2  0
 38 39  1  0
 38 40  1  0
 40 41  1  0
 40 42  2  0
 42 43  1  0
 43 44  2  0
 12  3  1  0
 43 16  1  0
 30 22  1  0
 42 33  1  0
M  END
>  <UniqueID>  (6) 
503

>  <SMILES>  (6) 
O=c1c2ccccc2nc(/C=C/c2cccnc2)n1Cc1ccccc1O

>  <Energy>  (6) 
70.04870841384653

>  <Genealogy>  (6) 
O=c1c2ccccc2nc(/C=C/c2cccnc2)n1Cc1ccccc1O (cis-trans isomerization)
O=c1c2ccccc2nc(/C=C/c2cccnc2)n1Cc1ccccc1O (3D coordinates assigned)
O=c1c2ccccc2nc(/C=C/c2cccnc2)n1Cc1ccccc1O (optimized conformer: 70.04870841384653 kcal/mol)

>  <smiles>  (6) 
O=c1c2ccccc2nc(/C=C/c2cccnc2)n1Cc1ccccc1O

>  <score_type>  (6) 
oracle

>  <origin>  (6) 
autodockgpu

>  <m_score__min__energy>  (6) 
-7.6799999999999997

>  <m_primary>  (6) 
energy

>  <meeko>  (6) 
{"free_energy": -6.72, "intermolecular_energy": -8.51, "internal_energy": -2.19, "cluster_size": 12, "cluster_id": 1, "rank_in_cluster": 12}

>  <energy>  (6) 
-7.51

>  <cluster_rmsd>  (6) 
0.3

>  <rmsd>  (6) 
271.67

>  <cluster>  (6) 
1

$$$$
FMMHNRBASQNFIB-VAWYXSNFNA-N
     RDKit          3D

 44 47  0  0  0  0  0  0  0  0999 V2000
  139.5210   73.6590  223.3380 H   0  0  0  0  0  0  0  0  0  0  0  0
  139.9340   73.7780  222.4200 O   0  0  0  0  0  0  0  0  0  0  0  0
  140.3770   72.6920  221.6680 C   0  0  0  0  0  0  0  0  0  0  0  0
  141.5080   72.8440  220.8520 C   0  0  0  0  0  0  0  0  0  0  0  0
  142.0263   73.8135  220.8131 H   0  0  0  0  0  0  0  0  0  0  0  0
  141.9810   71.7750  220.0890 C   0  0  0  0  0  0  0  0  0  0  0  0
  142.8654   71.9058  219.4481 H   0  0  0  0  0  0  0  0  0  0  0  0
  141.3330   70.5420  220.1390 C   0  0  0  0  0  0  0  0  0  0  0  0
  141.7099   69.6986  219.5418 H   0  0  0  0  0  0  0  0  0  0  0  0
  140.2050   70.3760  220.9470 C   0  0  0  0  0  0  0  0  0  0  0  0
  139.7048   69.3971  220.9872 H   0  0  0  0  0  0  0  0  0  0  0  0
  139.7010   71.4460  221.7100 C   0  0  0  0  0  0  0  0  0  0  0  0
  138.4970   71.1700  222.5980 C   0  0  0  0  0  0  0  0  0  0  0  0
  137.7428   70.6329  222.0041 H   0  0  0  0  0  0  0  0  0  0  0  0
  138.1314   72.1433  222.9572 H   0  0  0  0  0  0  0  0  0  0  0  0
  138.8160   70.3580  223.7940 N   0  0  0  0  0  0  0  0  0  0  0  0
  138.1990   69.1460  224.0440 C   0  0  0  0  0  0  0  0  0  0  0  0
  137.2040   68.5340  223.1380 C   0  0  0  0  0  0  0  0  0  0  0  0
  137.5440   67.7941  222.3985 H   0  0  0  0  0  0  0  0  0  0  0  0
  135.9020   68.8490  223.1860 C   0  0  0  0  0  0  0  0  0  0  0  0
  135.3050   68.7173  222.2715 H   0  0  0  0  0  0  0  0  0  0  0  0
  135.2170   69.3640  224.3960 C   0  0  0  0  0  0  0  0  0  0  0  0
  134.5790   68.5280  225.3340 C   0  0  0  0  0  0  0  0  0  0  0  0
  134.5828   67.4377  225.1882 H   0  0  0  0  0  0  0  0  0  0  0  0
  133.9590   69.0640  226.4180 N   0  0  0  0  0  0  0  0  0  0  0  0
  133.9250   70.4040  226.6360 C   0  0  0  0  0  0  0  0  0  0  0  0
  133.4208   70.8035  227.5283 H   0  0  0  0  0  0  0  0  0  0  0  0
  134.5290   71.2730  225.7290 C   0  0  0  0  0  0  0  0  0  0  0  0
  134.5005   72.3596  225.8980 H   0  0  0  0  0  0  0  0  0  0  0  0
  135.1700   70.7520  224.6050 C   0  0  0  0  0  0  0  0  0  0  0  0
  135.6408   71.4313  223.8791 H   0  0  0  0  0  0  0  0  0  0  0  0
  138.4560   68.4770  225.1970 N   0  0  0  0  0  0  0  0  0  0  0  0
  139.3310   68.9430  226.1170 C   0  0  0  0  0  0  0  0  0  0  0  0
  139.5760   68.2090  227.2850 C   0  0  0  0  0  0  0  0  0  0  0  0
  139.0568   67.2540  227.4535 H   0  0  0  0  0  0  0  0  0  0  0  0
  140.4800   68.6900  228.2360 C   0  0  0  0  0  0  0  0  0  0  0  0
  140.6724   68.1127  229.1524 H   0  0  0  0  0  0  0  0  0  0  0  0
  141.1400   69.9040  228.0240 C   0  0  0  0  0  0  0  0  0  0  0  0
  141.8521   70.2797  228.7736 H   0  0  0  0  0  0  0  0  0  0  0  0
  140.8970   70.6420  226.8610 C   0  0  0  0  0  0  0  0  0  0  0  0
  141.4161   71.5982  226.6990 H   0  0  0  0  0  0  0  0  0  0  0  0
  139.9890   70.1630  225.8970 C   0  0  0  0  0  0  0  0  0  0  0  0
  139.7020   70.8700  224.7170 C   0  0  0  0  0  0  0  0  0  0  0  0
  140.2600   71.9850  224.5100 O   0  0  0  0  0  0  0  0  0  0  0  0
  1  2  1  0
  2  3  1  0
  3  4  2  0
  4  5  1  0
  4  6  1  0
  6  7  1  0
  6  8  2  0
  8  9  1  0
  8 10  1  0
 10 11  1  0
 10 12  2  0
 12 13  1  0
 13 14  1  0
 13 15  1  0
 13 16  1  0
 16 17  1  0
 17 18  1  0
 18 19  1  0
 18 20  2  0
 20 21  1  0
 20 22  1  0
 22 23  2  0
 23 24  1  0
 23 25  1  0
 25 26  2  0
 26 27  1  0
 26 28  1  0
 28 29  1  0
 28 30  2  0
 30 31  1  0
 17 32  2  0
 32 33  1  0
 33 34  2  0
 34 35  1  0
 34 36  1  0
 36 37  1  0
 36 38  2  0
 38 39  1  0
 38 40  1  0
 40 41  1  0
 40 42  2  0
 42 43  1  0
 43 44  2  0
 12  3  1  0
 43 16  1  0
 30 22  1  0
 42 33  1  0
M  END
>  <UniqueID>  (7) 
503

>  <SMILES>  (7) 
O=c1c2ccccc2nc(/C=C/c2cccnc2)n1Cc1ccccc1O

>  <Energy>  (7) 
70.04870841384653

>  <Genealogy>  (7) 
O=c1c2ccccc2nc(/C=C/c2cccnc2)n1Cc1ccccc1O (cis-trans isomerization)
O=c1c2ccccc2nc(/C=C/c2cccnc2)n1Cc1ccccc1O (3D coordinates assigned)
O=c1c2ccccc2nc(/C=C/c2cccnc2)n1Cc1ccccc1O (optimized conformer: 70.04870841384653 kcal/mol)

>  <smiles>  (7) 
O=c1c2ccccc2nc(/C=C/c2cccnc2)n1Cc1ccccc1O

>  <score_type>  (7) 
oracle

>  <origin>  (7) 
autodockgpu

>  <m_score__min__energy>  (7) 
-7.6799999999999997

>  <m_primary>  (7) 
energy

>  <meeko>  (7) 
{"free_energy": -7.54, "intermolecular_energy": -9.33, "internal_energy": -1.88, "cluster_size": 12, "cluster_id": 1, "rank_in_cluster": 3}

>  <energy>  (7) 
-7.48

>  <cluster_rmsd>  (7) 
0.31

>  <rmsd>  (7) 
271.66

>  <cluster>  (7) 
1

$$$$
FMMHNRBASQNFIB-VAWYXSNFNA-N
     RDKit          3D

 44 47  0  0  0  0  0  0  0  0999 V2000
  139.3110   73.3590  223.4160 H   0  0  0  0  0  0  0  0  0  0  0  0
  139.9420   73.5950  222.6590 O   0  0  0  0  0  0  0  0  0  0  0  0
  140.4840   72.6190  221.8240 C   0  0  0  0  0  0  0  0  0  0  0  0
  141.5930   72.9420  221.0290 C   0  0  0  0  0  0  0  0  0  0  0  0
  142.0173   73.9560  221.0707 H   0  0  0  0  0  0  0  0  0  0  0  0
  142.1630   71.9870  220.1850 C   0  0  0  0  0  0  0  0  0  0  0  0
  143.0299   72.2514  219.5617 H   0  0  0  0  0  0  0  0  0  0  0  0
  141.6340   70.6990  220.1320 C   0  0  0  0  0  0  0  0  0  0  0  0
  142.0870   69.9459  219.4705 H   0  0  0  0  0  0  0  0  0  0  0  0
  140.5290   70.3630  220.9180 C   0  0  0  0  0  0  0  0  0  0  0  0
  140.1237   69.3412  220.8765 H   0  0  0  0  0  0  0  0  0  0  0  0
  139.9280   71.3150  221.7620 C   0  0  0  0  0  0  0  0  0  0  0  0
  138.7580   70.8570  222.6190 C   0  0  0  0  0  0  0  0  0  0  0  0
  138.0757   70.2670  221.9895 H   0  0  0  0  0  0  0  0  0  0  0  0
  138.2787   71.7618  223.0210 H   0  0  0  0  0  0  0  0  0  0  0  0
  139.1610   70.0280  223.7770 N   0  0  0  0  0  0  0  0  0  0  0  0
  138.8610   68.6800  223.8550 C   0  0  0  0  0  0  0  0  0  0  0  0
  138.1540   67.9380  222.7900 C   0  0  0  0  0  0  0  0  0  0  0  0
  137.1615   68.2870  222.4689 H   0  0  0  0  0  0  0  0  0  0  0  0
  138.6800   66.8550  222.2020 C   0  0  0  0  0  0  0  0  0  0  0  0
  138.6372   65.9004  222.7469 H   0  0  0  0  0  0  0  0  0  0  0  0
  139.3160   66.8630  220.8630 C   0  0  0  0  0  0  0  0  0  0  0  0
  138.9130   67.7270  219.8240 C   0  0  0  0  0  0  0  0  0  0  0  0
  138.0952   68.4430  219.9927 H   0  0  0  0  0  0  0  0  0  0  0  0
  139.5320   67.6780  218.6140 N   0  0  0  0  0  0  0  0  0  0  0  0
  140.5430   66.8070  218.3600 C   0  0  0  0  0  0  0  0  0  0  0  0
  141.0264   66.7986  217.3719 H   0  0  0  0  0  0  0  0  0  0  0  0
  140.9680   65.9240  219.3510 C   0  0  0  0  0  0  0  0  0  0  0  0
  141.7838   65.2141  219.1495 H   0  0  0  0  0  0  0  0  0  0  0  0
  140.3490   65.9490  220.6010 C   0  0  0  0  0  0  0  0  0  0  0  0
  140.6720   65.2488  221.3855 H   0  0  0  0  0  0  0  0  0  0  0  0
  139.1700   67.9780  224.9760 N   0  0  0  0  0  0  0  0  0  0  0  0
  139.7990   68.5480  226.0290 C   0  0  0  0  0  0  0  0  0  0  0  0
  140.1120   67.7790  227.1570 C   0  0  0  0  0  0  0  0  0  0  0  0
  139.8463   66.7120  227.1865 H   0  0  0  0  0  0  0  0  0  0  0  0
  140.7620   68.3680  228.2450 C   0  0  0  0  0  0  0  0  0  0  0  0
  141.0094   67.7634  229.1300 H   0  0  0  0  0  0  0  0  0  0  0  0
  141.0980   69.7240  228.2100 C   0  0  0  0  0  0  0  0  0  0  0  0
  141.6108   70.1844  229.0673 H   0  0  0  0  0  0  0  0  0  0  0  0
  140.7840   70.4970  227.0880 C   0  0  0  0  0  0  0  0  0  0  0  0
  141.0464   71.5650  227.0661 H   0  0  0  0  0  0  0  0  0  0  0  0
  140.1330   69.9110  225.9870 C   0  0  0  0  0  0  0  0  0  0  0  0
  139.7870   70.6440  224.8390 C   0  0  0  0  0  0  0  0  0  0  0  0
  140.0510   71.8800  224.7890 O   0  0  0  0  0  0  0  0  0  0  0  0
  1  2  1  0
  2  3  1  0
  3  4  2  0
  4  5  1  0
  4  6  1  0
  6  7  1  0
  6  8  2  0
  8  9  1  0
  8 10  1  0
 10 11  1  0
 10 12  2  0
 12 13  1  0
 13 14  1  0
 13 15  1  0
 13 16  1  0
 16 17  1  0
 17 18  1  0
 18 19  1  0
 18 20  2  0
 20 21  1  0
 20 22  1  0
 22 23  2  0
 23 24  1  0
 23 25  1  0
 25 26  2  0
 26 27  1  0
 26 28  1  0
 28 29  1  0
 28 30  2  0
 30 31  1  0
 17 32  2  0
 32 33  1  0
 33 34  2  0
 34 35  1  0
 34 36  1  0
 36 37  1  0
 36 38  2  0
 38 39  1  0
 38 40  1  0
 40 41  1  0
 40 42  2  0
 42 43  1  0
 43 44  2  0
 12  3  1  0
 43 16  1  0
 30 22  1  0
 42 33  1  0
M  END
>  <UniqueID>  (8) 
503

>  <SMILES>  (8) 
O=c1c2ccccc2nc(/C=C/c2cccnc2)n1Cc1ccccc1O

>  <Energy>  (8) 
70.04870841384653

>  <Genealogy>  (8) 
O=c1c2ccccc2nc(/C=C/c2cccnc2)n1Cc1ccccc1O (cis-trans isomerization)
O=c1c2ccccc2nc(/C=C/c2cccnc2)n1Cc1ccccc1O (3D coordinates assigned)
O=c1c2ccccc2nc(/C=C/c2cccnc2)n1Cc1ccccc1O (optimized conformer: 70.04870841384653 kcal/mol)

>  <smiles>  (8) 
O=c1c2ccccc2nc(/C=C/c2cccnc2)n1Cc1ccccc1O

>  <score_type>  (8) 
oracle

>  <origin>  (8) 
autodockgpu

>  <m_score__min__energy>  (8) 
-7.6799999999999997

>  <m_primary>  (8) 
energy

>  <meeko>  (8) 
{"free_energy": -6.89, "intermolecular_energy": -8.68, "internal_energy": -1.97, "cluster_size": 3, "cluster_id": 2, "rank_in_cluster": 1}

>  <energy>  (8) 
-7.46

>  <cluster_rmsd>  (8) 
0.3

>  <rmsd>  (8) 
271.66

>  <cluster>  (8) 
1

$$$$
FMMHNRBASQNFIB-VAWYXSNFNA-N
     RDKit          3D

 44 47  0  0  0  0  0  0  0  0999 V2000
  139.1770   74.0460  223.0850 H   0  0  0  0  0  0  0  0  0  0  0  0
  139.8640   74.1200  222.3440 O   0  0  0  0  0  0  0  0  0  0  0  0
  140.3820   72.9920  221.7090 C   0  0  0  0  0  0  0  0  0  0  0  0
  141.5100   73.1310  220.8870 C   0  0  0  0  0  0  0  0  0  0  0  0
  141.9667   74.1224  220.7510 H   0  0  0  0  0  0  0  0  0  0  0  0
  142.0580   72.0220  220.2400 C   0  0  0  0  0  0  0  0  0  0  0  0
  142.9395   72.1423  219.5931 H   0  0  0  0  0  0  0  0  0  0  0  0
  141.4880   70.7630  220.4140 C   0  0  0  0  0  0  0  0  0  0  0  0
  141.9238   69.8885  219.9087 H   0  0  0  0  0  0  0  0  0  0  0  0
  140.3640   70.6090  221.2290 C   0  0  0  0  0  0  0  0  0  0  0  0
  139.9260   69.6094  221.3667 H   0  0  0  0  0  0  0  0  0  0  0  0
  139.7850   71.7160  221.8760 C   0  0  0  0  0  0  0  0  0  0  0  0
  138.5910   71.4570  222.7820 C   0  0  0  0  0  0  0  0  0  0  0  0
  137.7624   71.0778  222.1659 H   0  0  0  0  0  0  0  0  0  0  0  0
  138.3445   72.4103  223.2723 H   0  0  0  0  0  0  0  0  0  0  0  0
  138.8650   70.4740  223.8550 N   0  0  0  0  0  0  0  0  0  0  0  0
  138.2060   69.2600  223.9230 C   0  0  0  0  0  0  0  0  0  0  0  0
  137.2090   68.8150  222.9260 C   0  0  0  0  0  0  0  0  0  0  0  0
  137.5363   68.6370  221.8910 H   0  0  0  0  0  0  0  0  0  0  0  0
  135.9210   68.6210  223.2390 C   0  0  0  0  0  0  0  0  0  0  0  0
  135.3282   67.9552  222.5946 H   0  0  0  0  0  0  0  0  0  0  0  0
  135.2450   69.2480  224.4000 C   0  0  0  0  0  0  0  0  0  0  0  0
  134.5680   68.5070  225.3890 C   0  0  0  0  0  0  0  0  0  0  0  0
  134.5322   67.4095  225.3233 H   0  0  0  0  0  0  0  0  0  0  0  0
  133.9590   69.1440  226.4240 N   0  0  0  0  0  0  0  0  0  0  0  0
  133.9730   70.4960  226.5430 C   0  0  0  0  0  0  0  0  0  0  0  0
  133.4757   70.9778  227.3977 H   0  0  0  0  0  0  0  0  0  0  0  0
  134.6170   71.2740  225.5830 C   0  0  0  0  0  0  0  0  0  0  0  0
  134.6279   72.3703  225.6723 H   0  0  0  0  0  0  0  0  0  0  0  0
  135.2480   70.6480  224.5070 C   0  0  0  0  0  0  0  0  0  0  0  0
  135.7502   71.2545  223.7389 H   0  0  0  0  0  0  0  0  0  0  0  0
  138.4220   68.4280  224.9740 N   0  0  0  0  0  0  0  0  0  0  0  0
  139.2940   68.7300  225.9620 C   0  0  0  0  0  0  0  0  0  0  0  0
  139.4960   67.8320  227.0170 C   0  0  0  0  0  0  0  0  0  0  0  0
  138.9456   66.8799  227.0417 H   0  0  0  0  0  0  0  0  0  0  0  0
  140.3970   68.1450  228.0390 C   0  0  0  0  0  0  0  0  0  0  0  0
  140.5557   67.4384  228.8670 H   0  0  0  0  0  0  0  0  0  0  0  0
  141.0960   69.3540  228.0100 C   0  0  0  0  0  0  0  0  0  0  0  0
  141.8051   69.5969  228.8151 H   0  0  0  0  0  0  0  0  0  0  0  0
  140.8970   70.2570  226.9600 C   0  0  0  0  0  0  0  0  0  0  0  0
  141.4474   71.2092  226.9424 H   0  0  0  0  0  0  0  0  0  0  0  0
  139.9930   69.9480  225.9260 C   0  0  0  0  0  0  0  0  0  0  0  0
  139.7480   70.8220  224.8530 C   0  0  0  0  0  0  0  0  0  0  0  0
  140.3440   71.9370  224.8140 O   0  0  0  0  0  0  0  0  0  0  0  0
  1  2  1  0
  2  3  1  0
  3  4  2  0
  4  5  1  0
  4  6  1  0
  6  7  1  0
  6  8  2  0
  8  9  1  0
  8 10  1  0
 10 11  1  0
 10 12  2  0
 12 13  1  0
 13 14  1  0
 13 15  1  0
 13 16  1  0
 16 17  1  0
 17 18  1  0
 18 19  1  0
 18 20  2  0
 20 21  1  0
 20 22  1  0
 22 23  2  0
 23 24  1  0
 23 25  1  0
 25 26  2  0
 26 27  1  0
 26 28  1  0
 28 29  1  0
 28 30  2  0
 30 31  1  0
 17 32  2  0
 32 33  1  0
 33 34  2  0
 34 35  1  0
 34 36  1  0
 36 37  1  0
 36 38  2  0
 38 39  1  0
 38 40  1  0
 40 41  1  0
 40 42  2  0
 42 43  1  0
 43 44  2  0
 12  3  1  0
 43 16  1  0
 30 22  1  0
 42 33  1  0
M  END
>  <UniqueID>  (9) 
503

>  <SMILES>  (9) 
O=c1c2ccccc2nc(/C=C/c2cccnc2)n1Cc1ccccc1O

>  <Energy>  (9) 
70.04870841384653

>  <Genealogy>  (9) 
O=c1c2ccccc2nc(/C=C/c2cccnc2)n1Cc1ccccc1O (cis-trans isomerization)
O=c1c2ccccc2nc(/C=C/c2cccnc2)n1Cc1ccccc1O (3D coordinates assigned)
O=c1c2ccccc2nc(/C=C/c2cccnc2)n1Cc1ccccc1O (optimized conformer: 70.04870841384653 kcal/mol)

>  <smiles>  (9) 
O=c1c2ccccc2nc(/C=C/c2cccnc2)n1Cc1ccccc1O

>  <score_type>  (9) 
oracle

>  <origin>  (9) 
autodockgpu

>  <m_score__min__energy>  (9) 
-7.6799999999999997

>  <m_primary>  (9) 
energy

>  <meeko>  (9) 
{"free_energy": -7.68, "intermolecular_energy": -9.47, "internal_energy": -1.35, "cluster_size": 12, "cluster_id": 1, "rank_in_cluster": 1}

>  <energy>  (9) 
-7.46

>  <cluster_rmsd>  (9) 
0.31

>  <rmsd>  (9) 
271.65

>  <cluster>  (9) 
1

$$$$
FMMHNRBASQNFIB-VAWYXSNFNA-N
     RDKit          3D

 44 47  0  0  0  0  0  0  0  0999 V2000
  139.1380   74.3460  222.6730 H   0  0  0  0  0  0  0  0  0  0  0  0
  140.0910   74.2520  222.3390 O   0  0  0  0  0  0  0  0  0  0  0  0
  140.4310   73.3470  221.3360 C   0  0  0  0  0  0  0  0  0  0  0  0
  140.8910   72.0710  221.6960 C   0  0  0  0  0  0  0  0  0  0  0  0
  140.9804   71.8032  222.7591 H   0  0  0  0  0  0  0  0  0  0  0  0
  141.2360   71.1390  220.7160 C   0  0  0  0  0  0  0  0  0  0  0  0
  141.6005   70.1432  221.0085 H   0  0  0  0  0  0  0  0  0  0  0  0
  141.1190   71.4690  219.3680 C   0  0  0  0  0  0  0  0  0  0  0  0
  141.3859   70.7315  218.5967 H   0  0  0  0  0  0  0  0  0  0  0  0
  140.6630   72.7360  218.9940 C   0  0  0  0  0  0  0  0  0  0  0  0
  140.5656   72.9850  217.9270 H   0  0  0  0  0  0  0  0  0  0  0  0
  140.3270   73.6970  219.9650 C   0  0  0  0  0  0  0  0  0  0  0  0
  139.7950   75.0350  219.4760 C   0  0  0  0  0  0  0  0  0  0  0  0
  138.7136   75.0728  219.6739 H   0  0  0  0  0  0  0  0  0  0  0  0
  140.0259   75.1017  218.4026 H   0  0  0  0  0  0  0  0  0  0  0  0
  140.4320   76.2000  220.1310 N   0  0  0  0  0  0  0  0  0  0  0  0
  141.6370   76.7200  219.6940 C   0  0  0  0  0  0  0  0  0  0  0  0
  142.3770   76.1960  218.5260 C   0  0  0  0  0  0  0  0  0  0  0  0
  142.6368   76.8855  217.7092 H   0  0  0  0  0  0  0  0  0  0  0  0
  142.7420   74.9110  218.4280 C   0  0  0  0  0  0  0  0  0  0  0  0
  142.0953   74.2335  217.8511 H   0  0  0  0  0  0  0  0  0  0  0  0
  143.9640   74.3450  219.0490 C   0  0  0  0  0  0  0  0  0  0  0  0
  144.8630   73.5080  218.3560 C   0  0  0  0  0  0  0  0  0  0  0  0
  144.6754   73.2549  217.3021 H   0  0  0  0  0  0  0  0  0  0  0  0
  145.9610   73.0130  218.9870 N   0  0  0  0  0  0  0  0  0  0  0  0
  146.2310   73.2960  220.2870 C   0  0  0  0  0  0  0  0  0  0  0  0
  147.1330   72.8846  220.7636 H   0  0  0  0  0  0  0  0  0  0  0  0
  145.3650   74.1080  221.0180 C   0  0  0  0  0  0  0  0  0  0  0  0
  145.5763   74.3375  222.0728 H   0  0  0  0  0  0  0  0  0  0  0  0
  144.2270   74.6270  220.3980 C   0  0  0  0  0  0  0  0  0  0  0  0
  143.5329   75.2603  220.9700 H   0  0  0  0  0  0  0  0  0  0  0  0
  142.2290   77.7310  220.3790 N   0  0  0  0  0  0  0  0  0  0  0  0
  141.6640   78.2830  221.4770 C   0  0  0  0  0  0  0  0  0  0  0  0
  142.3050   79.3360  222.1410 C   0  0  0  0  0  0  0  0  0  0  0  0
  143.2687   79.7146  221.7697 H   0  0  0  0  0  0  0  0  0  0  0  0
  141.7210   79.9060  223.2750 C   0  0  0  0  0  0  0  0  0  0  0  0
  142.2247   80.7340  223.7953 H   0  0  0  0  0  0  0  0  0  0  0  0
  140.4970   79.4250  223.7490 C   0  0  0  0  0  0  0  0  0  0  0  0
  140.0387   79.8763  224.6413 H   0  0  0  0  0  0  0  0  0  0  0  0
  139.8540   78.3720  223.0920 C   0  0  0  0  0  0  0  0  0  0  0  0
  138.8926   77.9943  223.4701 H   0  0  0  0  0  0  0  0  0  0  0  0
  140.4350   77.7940  221.9470 C   0  0  0  0  0  0  0  0  0  0  0  0
  139.8350   76.7280  221.2550 C   0  0  0  0  0  0  0  0  0  0  0  0
  138.7430   76.2510  221.6770 O   0  0  0  0  0  0  0  0  0  0  0  0
  1  2  1  0
  2  3  1  0
  3  4  2  0
  4  5  1  0
  4  6  1  0
  6  7  1  0
  6  8  2  0
  8  9  1  0
  8 10  1  0
 10 11  1  0
 10 12  2  0
 12 13  1  0
 13 14  1  0
 13 15  1  0
 13 16  1  0
 16 17  1  0
 17 18  1  0
 18 19  1  0
 18 20  2  0
 20 21  1  0
 20 22  1  0
 22 23  2  0
 23 24  1  0
 23 25  1  0
 25 26  2  0
 26 27  1  0
 26 28  1  0
 28 29  1  0
 28 30  2  0
 30 31  1  0
 17 32  2  0
 32 33  1  0
 33 34  2  0
 34 35  1  0
 34 36  1  0
 36 37  1  0
 36 38  2  0
 38 39  1  0
 38 40  1  0
 40 41  1  0
 40 42  2  0
 42 43  1  0
 43 44  2  0
 12  3  1  0
 43 16  1  0
 30 22  1  0
 42 33  1  0
M  END
>  <UniqueID>  (10) 
503

>  <SMILES>  (10) 
O=c1c2ccccc2nc(/C=C/c2cccnc2)n1Cc1ccccc1O

>  <Energy>  (10) 
70.04870841384653

>  <Genealogy>  (10) 
O=c1c2ccccc2nc(/C=C/c2cccnc2)n1Cc1ccccc1O (cis-trans isomerization)
O=c1c2ccccc2nc(/C=C/c2cccnc2)n1Cc1ccccc1O (3D coordinates assigned)
O=c1c2ccccc2nc(/C=C/c2cccnc2)n1Cc1ccccc1O (optimized conformer: 70.04870841384653 kcal/mol)

>  <smiles>  (10) 
O=c1c2ccccc2nc(/C=C/c2cccnc2)n1Cc1ccccc1O

>  <score_type>  (10) 
oracle

>  <origin>  (10) 
autodockgpu

>  <m_score__min__energy>  (10) 
-7.6799999999999997

>  <m_primary>  (10) 
energy

>  <meeko>  (10) 
{"free_energy": -6.73, "intermolecular_energy": -8.52, "internal_energy": -1.9, "cluster_size": 4, "cluster_id": 3, "rank_in_cluster": 1}

>  <energy>  (10) 
-7.43

>  <cluster_rmsd>  (10) 
0.28

>  <rmsd>  (10) 
271.64

>  <cluster>  (10) 
1

$$$$
FMMHNRBASQNFIB-VAWYXSNFNA-N
     RDKit          3D

 44 47  0  0  0  0  0  0  0  0999 V2000
  139.5640   73.6120  223.4480 H   0  0  0  0  0  0  0  0  0  0  0  0
  139.9510   73.7390  222.5210 O   0  0  0  0  0  0  0  0  0  0  0  0
  140.3680   72.6580  221.7450 C   0  0  0  0  0  0  0  0  0  0  0  0
  141.4890   72.8070  220.9140 C   0  0  0  0  0  0  0  0  0  0  0  0
  142.0196   73.7700  220.8814 H   0  0  0  0  0  0  0  0  0  0  0  0
  141.9360   71.7440  220.1290 C   0  0  0  0  0  0  0  0  0  0  0  0
  142.8130   71.8723  219.4775 H   0  0  0  0  0  0  0  0  0  0  0  0
  141.2720   70.5200  220.1700 C   0  0  0  0  0  0  0  0  0  0  0  0
  141.6282   69.6812  219.5538 H   0  0  0  0  0  0  0  0  0  0  0  0
  140.1550   70.3560  220.9920 C   0  0  0  0  0  0  0  0  0  0  0  0
  139.6426   69.3832  221.0246 H   0  0  0  0  0  0  0  0  0  0  0  0
  139.6770   71.4200  221.7790 C   0  0  0  0  0  0  0  0  0  0  0  0
  138.4830   71.1470  222.6810 C   0  0  0  0  0  0  0  0  0  0  0  0
  137.7080   70.6395  222.0879 H   0  0  0  0  0  0  0  0  0  0  0  0
  138.1434   72.1185  223.0694 H   0  0  0  0  0  0  0  0  0  0  0  0
  138.8060   70.3000  223.8520 N   0  0  0  0  0  0  0  0  0  0  0  0
  138.1980   69.0770  224.0630 C   0  0  0  0  0  0  0  0  0  0  0  0
  137.2090   68.4850  223.1360 C   0  0  0  0  0  0  0  0  0  0  0  0
  137.5535   67.7585  222.3853 H   0  0  0  0  0  0  0  0  0  0  0  0
  135.9080   68.8030  223.1790 C   0  0  0  0  0  0  0  0  0  0  0  0
  135.3121   68.6628  222.2651 H   0  0  0  0  0  0  0  0  0  0  0  0
  135.2220   69.3320  224.3820 C   0  0  0  0  0  0  0  0  0  0  0  0
  134.5660   68.5080  225.3190 C   0  0  0  0  0  0  0  0  0  0  0  0
  134.5564   67.4172  225.1776 H   0  0  0  0  0  0  0  0  0  0  0  0
  133.9450   69.0570  226.3970 N   0  0  0  0  0  0  0  0  0  0  0  0
  133.9290   70.3980  226.6100 C   0  0  0  0  0  0  0  0  0  0  0  0
  133.4245   70.8080  227.4973 H   0  0  0  0  0  0  0  0  0  0  0  0
  134.5520   71.2550  225.7040 C   0  0  0  0  0  0  0  0  0  0  0  0
  134.5384   72.3425  225.8689 H   0  0  0  0  0  0  0  0  0  0  0  0
  135.1930   70.7200  224.5860 C   0  0  0  0  0  0  0  0  0  0  0  0
  135.6781   71.3898  223.8608 H   0  0  0  0  0  0  0  0  0  0  0  0
  138.4580   68.3750  225.1960 N   0  0  0  0  0  0  0  0  0  0  0  0
  139.3280   68.8190  226.1320 C   0  0  0  0  0  0  0  0  0  0  0  0
  139.5760   68.0510  227.2760 C   0  0  0  0  0  0  0  0  0  0  0  0
  139.0645   67.0869  227.4131 H   0  0  0  0  0  0  0  0  0  0  0  0
  140.4740   68.5100  228.2440 C   0  0  0  0  0  0  0  0  0  0  0  0
  140.6686   67.9066  229.1429 H   0  0  0  0  0  0  0  0  0  0  0  0
  141.1250   69.7350  228.0710 C   0  0  0  0  0  0  0  0  0  0  0  0
  141.8328   70.0929  228.8332 H   0  0  0  0  0  0  0  0  0  0  0  0
  140.8780   70.5070  226.9300 C   0  0  0  0  0  0  0  0  0  0  0  0
  141.3894   71.4720  226.7987 H   0  0  0  0  0  0  0  0  0  0  0  0
  139.9770   70.0510  225.9510 C   0  0  0  0  0  0  0  0  0  0  0  0
  139.6860   70.7910  224.7920 C   0  0  0  0  0  0  0  0  0  0  0  0
  140.2360   71.9160  224.6210 O   0  0  0  0  0  0  0  0  0  0  0  0
  1  2  1  0
  2  3  1  0
  3  4  2  0
  4  5  1  0
  4  6  1  0
  6  7  1  0
  6  8  2  0
  8  9  1  0
  8 10  1  0
 10 11  1  0
 10 12  2  0
 12 13  1  0
 13 14  1  0
 13 15  1  0
 13 16  1  0
 16 17  1  0
 17 18  1  0
 18 19  1  0
 18 20  2  0
 20 21  1  0
 20 22  1  0
 22 23  2  0
 23 24  1  0
 23 25  1  0
 25 26  2  0
 26 27  1  0
 26 28  1  0
 28 29  1  0
 28 30  2  0
 30 31  1  0
 17 32  2  0
 32 33  1  0
 33 34  2  0
 34 35  1  0
 34 36  1  0
 36 37  1  0
 36 38  2  0
 38 39  1  0
 38 40  1  0
 40 41  1  0
 40 42  2  0
 42 43  1  0
 43 44  2  0
 12  3  1  0
 43 16  1  0
 30 22  1  0
 42 33  1  0
M  END
>  <UniqueID>  (11) 
503

>  <SMILES>  (11) 
O=c1c2ccccc2nc(/C=C/c2cccnc2)n1Cc1ccccc1O

>  <Energy>  (11) 
70.04870841384653

>  <Genealogy>  (11) 
O=c1c2ccccc2nc(/C=C/c2cccnc2)n1Cc1ccccc1O (cis-trans isomerization)
O=c1c2ccccc2nc(/C=C/c2cccnc2)n1Cc1ccccc1O (3D coordinates assigned)
O=c1c2ccccc2nc(/C=C/c2cccnc2)n1Cc1ccccc1O (optimized conformer: 70.04870841384653 kcal/mol)

>  <smiles>  (11) 
O=c1c2ccccc2nc(/C=C/c2cccnc2)n1Cc1ccccc1O

>  <score_type>  (11) 
oracle

>  <origin>  (11) 
autodockgpu

>  <m_score__min__energy>  (11) 
-7.6799999999999997

>  <m_primary>  (11) 
energy

>  <meeko>  (11) 
{"free_energy": -7.52, "intermolecular_energy": -9.31, "internal_energy": -1.91, "cluster_size": 12, "cluster_id": 1, "rank_in_cluster": 5}

>  <energy>  (11) 
-7.38

>  <cluster_rmsd>  (11) 
0.3

>  <rmsd>  (11) 
271.61

>  <cluster>  (11) 
1

$$$$
FMMHNRBASQNFIB-VAWYXSNFNA-N
     RDKit          3D

 44 47  0  0  0  0  0  0  0  0999 V2000
  138.8950   73.6060  222.7540 H   0  0  0  0  0  0  0  0  0  0  0  0
  139.9060   73.6220  222.6850 O   0  0  0  0  0  0  0  0  0  0  0  0
  140.5780   73.0350  221.6140 C   0  0  0  0  0  0  0  0  0  0  0  0
  141.3340   71.8740  221.8380 C   0  0  0  0  0  0  0  0  0  0  0  0
  141.3900   71.4463  222.8499 H   0  0  0  0  0  0  0  0  0  0  0  0
  142.0150   71.2580  220.7880 C   0  0  0  0  0  0  0  0  0  0  0  0
  142.6081   70.3506  220.9744 H   0  0  0  0  0  0  0  0  0  0  0  0
  141.9440   71.7920  219.5030 C   0  0  0  0  0  0  0  0  0  0  0  0
  142.4779   71.3031  218.6748 H   0  0  0  0  0  0  0  0  0  0  0  0
  141.1960   72.9470  219.2650 C   0  0  0  0  0  0  0  0  0  0  0  0
  141.1380   73.3559  218.2455 H   0  0  0  0  0  0  0  0  0  0  0  0
  140.5160   73.5940  220.3120 C   0  0  0  0  0  0  0  0  0  0  0  0
  139.6870   74.8210  219.9620 C   0  0  0  0  0  0  0  0  0  0  0  0
  138.7147   74.7402  220.4700 H   0  0  0  0  0  0  0  0  0  0  0  0
  139.5864   74.8407  218.8668 H   0  0  0  0  0  0  0  0  0  0  0  0
  140.3200   76.0980  220.3630 N   0  0  0  0  0  0  0  0  0  0  0  0
  141.3810   76.6430  219.6620 C   0  0  0  0  0  0  0  0  0  0  0  0
  141.9520   76.0350  218.4410 C   0  0  0  0  0  0  0  0  0  0  0  0
  141.2699   75.7050  217.6436 H   0  0  0  0  0  0  0  0  0  0  0  0
  143.2710   75.8720  218.2720 C   0  0  0  0  0  0  0  0  0  0  0  0
  143.8069   76.6087  217.6555 H   0  0  0  0  0  0  0  0  0  0  0  0
  144.0530   74.7610  218.8640 C   0  0  0  0  0  0  0  0  0  0  0  0
  144.7330   73.8000  218.0890 C   0  0  0  0  0  0  0  0  0  0  0  0
  144.7036   73.8611  216.9911 H   0  0  0  0  0  0  0  0  0  0  0  0
  145.4250   72.7980  218.6930 N   0  0  0  0  0  0  0  0  0  0  0  0
  145.4860   72.6810  220.0450 C   0  0  0  0  0  0  0  0  0  0  0  0
  146.0621   71.8624  220.5011 H   0  0  0  0  0  0  0  0  0  0  0  0
  144.8180   73.5990  220.8540 C   0  0  0  0  0  0  0  0  0  0  0  0
  144.8597   73.5067  221.9493 H   0  0  0  0  0  0  0  0  0  0  0  0
  144.0960   74.6360  220.2620 C   0  0  0  0  0  0  0  0  0  0  0  0
  143.5582   75.3587  220.8932 H   0  0  0  0  0  0  0  0  0  0  0  0
  141.9890   77.7680  220.1170 N   0  0  0  0  0  0  0  0  0  0  0  0
  141.5740   78.4080  221.2340 C   0  0  0  0  0  0  0  0  0  0  0  0
  142.2230   79.5750  221.6550 C   0  0  0  0  0  0  0  0  0  0  0  0
  143.0706   79.9721  221.0771 H   0  0  0  0  0  0  0  0  0  0  0  0
  141.7940   80.2350  222.8090 C   0  0  0  0  0  0  0  0  0  0  0  0
  142.3032   81.1529  223.1381 H   0  0  0  0  0  0  0  0  0  0  0  0
  140.7190   79.7310  223.5460 C   0  0  0  0  0  0  0  0  0  0  0  0
  140.3837   80.2533  224.4542 H   0  0  0  0  0  0  0  0  0  0  0  0
  140.0680   78.5640  223.1320 C   0  0  0  0  0  0  0  0  0  0  0  0
  139.2235   78.1691  223.7158 H   0  0  0  0  0  0  0  0  0  0  0  0
  140.4930   77.8950  221.9690 C   0  0  0  0  0  0  0  0  0  0  0  0
  139.8810   76.7140  221.5140 C   0  0  0  0  0  0  0  0  0  0  0  0
  138.9250   76.2170  222.1750 O   0  0  0  0  0  0  0  0  0  0  0  0
  1  2  1  0
  2  3  1  0
  3  4  2  0
  4  5  1  0
  4  6  1  0
  6  7  1  0
  6  8  2  0
  8  9  1  0
  8 10  1  0
 10 11  1  0
 10 12  2  0
 12 13  1  0
 13 14  1  0
 13 15  1  0
 13 16  1  0
 16 17  1  0
 17 18  1  0
 18 19  1  0
 18 20  2  0
 20 21  1  0
 20 22  1  0
 22 23  2  0
 23 24  1  0
 23 25  1  0
 25 26  2  0
 26 27  1  0
 26 28  1  0
 28 29  1  0
 28 30  2  0
 30 31  1  0
 17 32  2  0
 32 33  1  0
 33 34  2  0
 34 35  1  0
 34 36  1  0
 36 37  1  0
 36 38  2  0
 38 39  1  0
 38 40  1  0
 40 41  1  0
 40 42  2  0
 42 43  1  0
 43 44  2  0
 12  3  1  0
 43 16  1  0
 30 22  1  0
 42 33  1  0
M  END
>  <UniqueID>  (12) 
503

>  <SMILES>  (12) 
O=c1c2ccccc2nc(/C=C/c2cccnc2)n1Cc1ccccc1O

>  <Energy>  (12) 
70.04870841384653

>  <Genealogy>  (12) 
O=c1c2ccccc2nc(/C=C/c2cccnc2)n1Cc1ccccc1O (cis-trans isomerization)
O=c1c2ccccc2nc(/C=C/c2cccnc2)n1Cc1ccccc1O (3D coordinates assigned)
O=c1c2ccccc2nc(/C=C/c2cccnc2)n1Cc1ccccc1O (optimized conformer: 70.04870841384653 kcal/mol)

>  <smiles>  (12) 
O=c1c2ccccc2nc(/C=C/c2cccnc2)n1Cc1ccccc1O

>  <score_type>  (12) 
oracle

>  <origin>  (12) 
autodockgpu

>  <m_score__min__energy>  (12) 
-7.6799999999999997

>  <m_primary>  (12) 
energy

>  <meeko>  (12) 
{"free_energy": -6.43, "intermolecular_energy": -8.22, "internal_energy": -1.99, "cluster_size": 4, "cluster_id": 3, "rank_in_cluster": 3}

>  <energy>  (12) 
-6.72

>  <cluster_rmsd>  (12) 
1.61

>  <rmsd>  (12) 
271.7

>  <cluster>  (12) 
1

$$$$
FMMHNRBASQNFIB-VAWYXSNFNA-N
     RDKit          3D

 44 47  0  0  0  0  0  0  0  0999 V2000
  139.5480   73.7450  223.2900 H   0  0  0  0  0  0  0  0  0  0  0  0
  139.9460   73.8850  222.3690 O   0  0  0  0  0  0  0  0  0  0  0  0
  140.4440   72.8240  221.6160 C   0  0  0  0  0  0  0  0  0  0  0  0
  141.6020   73.0170  220.8470 C   0  0  0  0  0  0  0  0  0  0  0  0
  142.0977   73.9990  220.8449 H   0  0  0  0  0  0  0  0  0  0  0  0
  142.1300   71.9740  220.0850 C   0  0  0  0  0  0  0  0  0  0  0  0
  143.0355   72.1369  219.4821 H   0  0  0  0  0  0  0  0  0  0  0  0
  141.5100   70.7260  220.0880 C   0  0  0  0  0  0  0  0  0  0  0  0
  141.9294   69.9029  219.4909 H   0  0  0  0  0  0  0  0  0  0  0  0
  140.3570   70.5190  220.8480 C   0  0  0  0  0  0  0  0  0  0  0  0
  139.8798   69.5279  220.8515 H   0  0  0  0  0  0  0  0  0  0  0  0
  139.7980   71.5610  221.6090 C   0  0  0  0  0  0  0  0  0  0  0  0
  138.5670   71.2410  222.4440 C   0  0  0  0  0  0  0  0  0  0  0  0
  137.8465   70.7037  221.8098 H   0  0  0  0  0  0  0  0  0  0  0  0
  138.1682   72.1981  222.8112 H   0  0  0  0  0  0  0  0  0  0  0  0
  138.8580   70.4070  223.6320 N   0  0  0  0  0  0  0  0  0  0  0  0
  138.2360   69.1900  223.8450 C   0  0  0  0  0  0  0  0  0  0  0  0
  137.2630   68.5950  222.9040 C   0  0  0  0  0  0  0  0  0  0  0  0
  137.6259   68.2043  221.9419 H   0  0  0  0  0  0  0  0  0  0  0  0
  135.9550   68.5150  223.1820 C   0  0  0  0  0  0  0  0  0  0  0  0
  135.3245   67.8992  222.5238 H   0  0  0  0  0  0  0  0  0  0  0  0
  135.3040   69.2050  224.3220 C   0  0  0  0  0  0  0  0  0  0  0  0
  134.6520   68.5180  225.3660 C   0  0  0  0  0  0  0  0  0  0  0  0
  134.6180   67.4185  225.3620 H   0  0  0  0  0  0  0  0  0  0  0  0
  134.0650   69.2110  226.3780 N   0  0  0  0  0  0  0  0  0  0  0  0
  134.0790   70.5680  226.4220 C   0  0  0  0  0  0  0  0  0  0  0  0
  133.6005   71.0961  227.2599 H   0  0  0  0  0  0  0  0  0  0  0  0
  134.7000   71.2920  225.4050 C   0  0  0  0  0  0  0  0  0  0  0  0
  134.7113   72.3916  225.4332 H   0  0  0  0  0  0  0  0  0  0  0  0
  135.3070   70.6080  224.3510 C   0  0  0  0  0  0  0  0  0  0  0  0
  135.7902   71.1713  223.5390 H   0  0  0  0  0  0  0  0  0  0  0  0
  138.4650   68.5010  224.9920 N   0  0  0  0  0  0  0  0  0  0  0  0
  139.3180   68.9500  225.9410 C   0  0  0  0  0  0  0  0  0  0  0  0
  139.5350   68.1950  227.1010 C   0  0  0  0  0  0  0  0  0  0  0  0
  139.0126   67.2369  227.2394 H   0  0  0  0  0  0  0  0  0  0  0  0
  140.4150   68.6590  228.0820 C   0  0  0  0  0  0  0  0  0  0  0  0
  140.5856   68.0654  228.9922 H   0  0  0  0  0  0  0  0  0  0  0  0
  141.0790   69.8770  227.9080 C   0  0  0  0  0  0  0  0  0  0  0  0
  141.7722   70.2393  228.6814 H   0  0  0  0  0  0  0  0  0  0  0  0
  140.8640   70.6360  226.7530 C   0  0  0  0  0  0  0  0  0  0  0  0
  141.3862   71.5951  226.6209 H   0  0  0  0  0  0  0  0  0  0  0  0
  139.9800   70.1740  225.7590 C   0  0  0  0  0  0  0  0  0  0  0  0
  139.7210   70.9020  224.5860 C   0  0  0  0  0  0  0  0  0  0  0  0
  140.2830   72.0210  224.4130 O   0  0  0  0  0  0  0  0  0  0  0  0
  1  2  1  0
  2  3  1  0
  3  4  2  0
  4  5  1  0
  4  6  1  0
  6  7  1  0
  6  8  2  0
  8  9  1  0
  8 10  1  0
 10 11  1  0
 10 12  2  0
 12 13  1  0
 13 14  1  0
 13 15  1  0
 13 16  1  0
 16 17  1  0
 17 18  1  0
 18 19  1  0
 18 20  2  0
 20 21  1  0
 20 22  1  0
 22 23  2  0
 23 24  1  0
 23 25  1  0
 25 26  2  0
 26 27  1  0
 26 28  1  0
 28 29  1  0
 28 30  2  0
 30 31  1  0
 17 32  2  0
 32 33  1  0
 33 34  2  0
 34 35  1  0
 34 36  1  0
 36 37  1  0
 36 38  2  0
 38 39  1  0
 38 40  1  0
 40 41  1  0
 40 42  2  0
 42 43  1  0
 43 44  2  0
 12  3  1  0
 43 16  1  0
 30 22  1  0
 42 33  1  0
M  END
>  <UniqueID>  (13) 
503

>  <SMILES>  (13) 
O=c1c2ccccc2nc(/C=C/c2cccnc2)n1Cc1ccccc1O

>  <Energy>  (13) 
70.04870841384653

>  <Genealogy>  (13) 
O=c1c2ccccc2nc(/C=C/c2cccnc2)n1Cc1ccccc1O (cis-trans isomerization)
O=c1c2ccccc2nc(/C=C/c2cccnc2)n1Cc1ccccc1O (3D coordinates assigned)
O=c1c2ccccc2nc(/C=C/c2cccnc2)n1Cc1ccccc1O (optimized conformer: 70.04870841384653 kcal/mol)

>  <smiles>  (13) 
O=c1c2ccccc2nc(/C=C/c2cccnc2)n1Cc1ccccc1O

>  <score_type>  (13) 
oracle

>  <origin>  (13) 
autodockgpu

>  <m_score__min__energy>  (13) 
-7.6799999999999997

>  <m_primary>  (13) 
energy

>  <meeko>  (13) 
{"free_energy": -7.38, "intermolecular_energy": -9.17, "internal_energy": -1.88, "cluster_size": 12, "cluster_id": 1, "rank_in_cluster": 11}

>  <energy>  (13) 
-6.89

>  <cluster_rmsd>  (13) 
0.0

>  <rmsd>  (13) 
271.14

>  <cluster>  (13) 
2

$$$$
FMMHNRBASQNFIB-VAWYXSNFNA-N
     RDKit          3D

 44 47  0  0  0  0  0  0  0  0999 V2000
  139.5370   73.6030  223.4260 H   0  0  0  0  0  0  0  0  0  0  0  0
  139.9420   73.7400  222.5080 O   0  0  0  0  0  0  0  0  0  0  0  0
  140.3650   72.6670  221.7250 C   0  0  0  0  0  0  0  0  0  0  0  0
  141.4870   72.8260  220.8990 C   0  0  0  0  0  0  0  0  0  0  0  0
  142.0147   73.7909  220.8760 H   0  0  0  0  0  0  0  0  0  0  0  0
  141.9400   71.7710  220.1060 C   0  0  0  0  0  0  0  0  0  0  0  0
  142.8190   71.9074  219.4588 H   0  0  0  0  0  0  0  0  0  0  0  0
  141.2790   70.5450  220.1340 C   0  0  0  0  0  0  0  0  0  0  0  0
  141.6392   69.7127  219.5115 H   0  0  0  0  0  0  0  0  0  0  0  0
  140.1600   70.3710  220.9510 C   0  0  0  0  0  0  0  0  0  0  0  0
  139.6506   69.3963  220.9742 H   0  0  0  0  0  0  0  0  0  0  0  0
  139.6760   71.4270  221.7450 C   0  0  0  0  0  0  0  0  0  0  0  0
  138.4800   71.1430  222.6410 C   0  0  0  0  0  0  0  0  0  0  0  0
  137.7074   70.6403  222.0407 H   0  0  0  0  0  0  0  0  0  0  0  0
  138.1378   72.1100  223.0383 H   0  0  0  0  0  0  0  0  0  0  0  0
  138.8010   70.2850  223.8040 N   0  0  0  0  0  0  0  0  0  0  0  0
  138.2080   69.0490  223.9900 C   0  0  0  0  0  0  0  0  0  0  0  0
  137.2400   68.4570  223.0420 C   0  0  0  0  0  0  0  0  0  0  0  0
  137.6188   67.8490  222.2072 H   0  0  0  0  0  0  0  0  0  0  0  0
  135.9180   68.6350  223.1640 C   0  0  0  0  0  0  0  0  0  0  0  0
  135.2738   68.2962  222.3393 H   0  0  0  0  0  0  0  0  0  0  0  0
  135.2690   69.2600  224.3410 C   0  0  0  0  0  0  0  0  0  0  0  0
  134.6090   68.5170  225.3410 C   0  0  0  0  0  0  0  0  0  0  0  0
  134.5674   67.4200  225.2710 H   0  0  0  0  0  0  0  0  0  0  0  0
  134.0240   69.1510  226.3910 N   0  0  0  0  0  0  0  0  0  0  0  0
  134.0480   70.5030  226.5170 C   0  0  0  0  0  0  0  0  0  0  0  0
  133.5718   70.9831  227.3846 H   0  0  0  0  0  0  0  0  0  0  0  0
  134.6760   71.2820  225.5470 C   0  0  0  0  0  0  0  0  0  0  0  0
  134.6939   72.3778  225.6412 H   0  0  0  0  0  0  0  0  0  0  0  0
  135.2820   70.6590  224.4550 C   0  0  0  0  0  0  0  0  0  0  0  0
  135.7720   71.2670  223.6802 H   0  0  0  0  0  0  0  0  0  0  0  0
  138.4640   68.3360  225.1160 N   0  0  0  0  0  0  0  0  0  0  0  0
  139.3150   68.7790  226.0690 C   0  0  0  0  0  0  0  0  0  0  0  0
  139.5600   67.9990  227.2060 C   0  0  0  0  0  0  0  0  0  0  0  0
  139.0606   67.0260  227.3237 H   0  0  0  0  0  0  0  0  0  0  0  0
  140.4390   68.4570  228.1910 C   0  0  0  0  0  0  0  0  0  0  0  0
  140.6322   67.8433  229.0832 H   0  0  0  0  0  0  0  0  0  0  0  0
  141.0730   69.6940  228.0440 C   0  0  0  0  0  0  0  0  0  0  0  0
  141.7648   70.0516  228.8208 H   0  0  0  0  0  0  0  0  0  0  0  0
  140.8300   70.4780  226.9120 C   0  0  0  0  0  0  0  0  0  0  0  0
  141.3286   71.4522  226.8011 H   0  0  0  0  0  0  0  0  0  0  0  0
  139.9480   70.0220  225.9140 C   0  0  0  0  0  0  0  0  0  0  0  0
  139.6610   70.7750  224.7620 C   0  0  0  0  0  0  0  0  0  0  0  0
  140.1960   71.9100  224.6150 O   0  0  0  0  0  0  0  0  0  0  0  0
  1  2  1  0
  2  3  1  0
  3  4  2  0
  4  5  1  0
  4  6  1  0
  6  7  1  0
  6  8  2  0
  8  9  1  0
  8 10  1  0
 10 11  1  0
 10 12  2  0
 12 13  1  0
 13 14  1  0
 13 15  1  0
 13 16  1  0
 16 17  1  0
 17 18  1  0
 18 19  1  0
 18 20  2  0
 20 21  1  0
 20 22  1  0
 22 23  2  0
 23 24  1  0
 23 25  1  0
 25 26  2  0
 26 27  1  0
 26 28  1  0
 28 29  1  0
 28 30  2  0
 30 31  1  0
 17 32  2  0
 32 33  1  0
 33 34  2  0
 34 35  1  0
 34 36  1  0
 36 37  1  0
 36 38  2  0
 38 39  1  0
 38 40  1  0
 40 41  1  0
 40 42  2  0
 42 43  1  0
 43 44  2  0
 12  3  1  0
 43 16  1  0
 30 22  1  0
 42 33  1  0
M  END
>  <UniqueID>  (14) 
503

>  <SMILES>  (14) 
O=c1c2ccccc2nc(/C=C/c2cccnc2)n1Cc1ccccc1O

>  <Energy>  (14) 
70.04870841384653

>  <Genealogy>  (14) 
O=c1c2ccccc2nc(/C=C/c2cccnc2)n1Cc1ccccc1O (cis-trans isomerization)
O=c1c2ccccc2nc(/C=C/c2cccnc2)n1Cc1ccccc1O (3D coordinates assigned)
O=c1c2ccccc2nc(/C=C/c2cccnc2)n1Cc1ccccc1O (optimized conformer: 70.04870841384653 kcal/mol)

>  <smiles>  (14) 
O=c1c2ccccc2nc(/C=C/c2cccnc2)n1Cc1ccccc1O

>  <score_type>  (14) 
oracle

>  <origin>  (14) 
autodockgpu

>  <m_score__min__energy>  (14) 
-7.6799999999999997

>  <m_primary>  (14) 
energy

>  <meeko>  (14) 
{"free_energy": -7.43, "intermolecular_energy": -9.22, "internal_energy": -1.95, "cluster_size": 12, "cluster_id": 1, "rank_in_cluster": 10}

>  <energy>  (14) 
-6.89

>  <cluster_rmsd>  (14) 
0.22

>  <rmsd>  (14) 
271.17

>  <cluster>  (14) 
2

$$$$
FMMHNRBASQNFIB-VAWYXSNFNA-N
     RDKit          3D

 44 47  0  0  0  0  0  0  0  0999 V2000
  138.0040   74.8200  222.9790 H   0  0  0  0  0  0  0  0  0  0  0  0
  137.0270   74.8900  222.7210 O   0  0  0  0  0  0  0  0  0  0  0  0
  136.0940   75.5210  223.5420 C   0  0  0  0  0  0  0  0  0  0  0  0
  135.5300   74.8060  224.6090 C   0  0  0  0  0  0  0  0  0  0  0  0
  135.8256   73.7606  224.7819 H   0  0  0  0  0  0  0  0  0  0  0  0
  134.5970   75.4100  225.4530 C   0  0  0  0  0  0  0  0  0  0  0  0
  134.1575   74.8395  226.2845 H   0  0  0  0  0  0  0  0  0  0  0  0
  134.2220   76.7350  225.2430 C   0  0  0  0  0  0  0  0  0  0  0  0
  133.4893   77.2110  225.9113 H   0  0  0  0  0  0  0  0  0  0  0  0
  134.7750   77.4600  224.1850 C   0  0  0  0  0  0  0  0  0  0  0  0
  134.4804   78.5089  224.0331 H   0  0  0  0  0  0  0  0  0  0  0  0
  135.7040   76.8660  223.3110 C   0  0  0  0  0  0  0  0  0  0  0  0
  136.2930   77.7360  222.2120 C   0  0  0  0  0  0  0  0  0  0  0  0
  135.5058   78.4095  221.8422 H   0  0  0  0  0  0  0  0  0  0  0  0
  136.6658   77.0588  221.4294 H   0  0  0  0  0  0  0  0  0  0  0  0
  137.4410   78.5580  222.6580 N   0  0  0  0  0  0  0  0  0  0  0  0
  137.3100   79.9020  222.9580 C   0  0  0  0  0  0  0  0  0  0  0  0
  136.0240   80.6290  222.9010 C   0  0  0  0  0  0  0  0  0  0  0  0
  135.2543   80.2919  222.1912 H   0  0  0  0  0  0  0  0  0  0  0  0
  135.7640   81.6840  223.6840 C   0  0  0  0  0  0  0  0  0  0  0  0
  135.4942   82.6330  223.1976 H   0  0  0  0  0  0  0  0  0  0  0  0
  135.8170   81.6530  225.1650 C   0  0  0  0  0  0  0  0  0  0  0  0
  134.8550   80.9930  225.9560 C   0  0  0  0  0  0  0  0  0  0  0  0
  134.0206   80.4616  225.4748 H   0  0  0  0  0  0  0  0  0  0  0  0
  134.9550   81.0110  227.3120 N   0  0  0  0  0  0  0  0  0  0  0  0
  135.9660   81.6560  227.9490 C   0  0  0  0  0  0  0  0  0  0  0  0
  136.0216   81.6422  229.0475 H   0  0  0  0  0  0  0  0  0  0  0  0
  136.9340   82.3360  227.2100 C   0  0  0  0  0  0  0  0  0  0  0  0
  137.7522   82.8653  227.7202 H   0  0  0  0  0  0  0  0  0  0  0  0
  136.8540   82.3380  225.8170 C   0  0  0  0  0  0  0  0  0  0  0  0
  137.6078   82.8794  225.2266 H   0  0  0  0  0  0  0  0  0  0  0  0
  138.4060   80.6370  223.2760 N   0  0  0  0  0  0  0  0  0  0  0  0
  139.6420   80.0920  223.3420 C   0  0  0  0  0  0  0  0  0  0  0  0
  140.7400   80.8880  223.6910 C   0  0  0  0  0  0  0  0  0  0  0  0
  140.5967   81.9559  223.9125 H   0  0  0  0  0  0  0  0  0  0  0  0
  142.0180   80.3260  223.7580 C   0  0  0  0  0  0  0  0  0  0  0  0
  142.8801   80.9518  224.0320 H   0  0  0  0  0  0  0  0  0  0  0  0
  142.2010   78.9690  223.4770 C   0  0  0  0  0  0  0  0  0  0  0  0
  143.2073   78.5284  223.5330 H   0  0  0  0  0  0  0  0  0  0  0  0
  141.1090   78.1700  223.1250 C   0  0  0  0  0  0  0  0  0  0  0  0
  141.2583   77.1035  222.9009 H   0  0  0  0  0  0  0  0  0  0  0  0
  139.8180   78.7290  223.0570 C   0  0  0  0  0  0  0  0  0  0  0  0
  138.6890   77.9740  222.6990 C   0  0  0  0  0  0  0  0  0  0  0  0
  138.8270   76.7510  222.4100 O   0  0  0  0  0  0  0  0  0  0  0  0
  1  2  1  0
  2  3  1  0
  3  4  2  0
  4  5  1  0
  4  6  1  0
  6  7  1  0
  6  8  2  0
  8  9  1  0
  8 10  1  0
 10 11  1  0
 10 12  2  0
 12 13  1  0
 13 14  1  0
 13 15  1  0
 13 16  1  0
 16 17  1  0
 17 18  1  0
 18 19  1  0
 18 20  2  0
 20 21  1  0
 20 22  1  0
 22 23  2  0
 23 24  1  0
 23 25  1  0
 25 26  2  0
 26 27  1  0
 26 28  1  0
 28 29  1  0
 28 30  2  0
 30 31  1  0
 17 32  2  0
 32 33  1  0
 33 34  2  0
 34 35  1  0
 34 36  1  0
 36 37  1  0
 36 38  2  0
 38 39  1  0
 38 40  1  0
 40 41  1  0
 40 42  2  0
 42 43  1  0
 43 44  2  0
 12  3  1  0
 43 16  1  0
 30 22  1  0
 42 33  1  0
M  END
>  <UniqueID>  (15) 
503

>  <SMILES>  (15) 
O=c1c2ccccc2nc(/C=C/c2cccnc2)n1Cc1ccccc1O

>  <Energy>  (15) 
70.04870841384653

>  <Genealogy>  (15) 
O=c1c2ccccc2nc(/C=C/c2cccnc2)n1Cc1ccccc1O (cis-trans isomerization)
O=c1c2ccccc2nc(/C=C/c2cccnc2)n1Cc1ccccc1O (3D coordinates assigned)
O=c1c2ccccc2nc(/C=C/c2cccnc2)n1Cc1ccccc1O (optimized conformer: 70.04870841384653 kcal/mol)

>  <smiles>  (15) 
O=c1c2ccccc2nc(/C=C/c2cccnc2)n1Cc1ccccc1O

>  <score_type>  (15) 
oracle

>  <origin>  (15) 
autodockgpu

>  <m_score__min__energy>  (15) 
-7.6799999999999997

>  <m_primary>  (15) 
energy

>  <meeko>  (15) 
{"free_energy": -6.06, "intermolecular_energy": -7.85, "internal_energy": -1.97, "cluster_size": 1, "cluster_id": 4, "rank_in_cluster": 1}

>  <energy>  (15) 
-6.86

>  <cluster_rmsd>  (15) 
0.15

>  <rmsd>  (15) 
271.11

>  <cluster>  (15) 
2

$$$$
FMMHNRBASQNFIB-VAWYXSNFNA-N
     RDKit          3D

 44 47  0  0  0  0  0  0  0  0999 V2000
  139.8300   73.7860  221.5230 H   0  0  0  0  0  0  0  0  0  0  0  0
  139.9390   74.6270  222.0770 O   0  0  0  0  0  0  0  0  0  0  0  0
  139.2000   75.7800  221.8140 C   0  0  0  0  0  0  0  0  0  0  0  0
  138.4500   76.3590  222.8480 C   0  0  0  0  0  0  0  0  0  0  0  0
  138.4504   75.8977  223.8466 H   0  0  0  0  0  0  0  0  0  0  0  0
  137.7030   77.5160  222.6200 C   0  0  0  0  0  0  0  0  0  0  0  0
  137.1135   77.9597  223.4359 H   0  0  0  0  0  0  0  0  0  0  0  0
  137.7040   78.1090  221.3590 C   0  0  0  0  0  0  0  0  0  0  0  0
  137.1197   79.0240  221.1817 H   0  0  0  0  0  0  0  0  0  0  0  0
  138.4460   77.5430  220.3200 C   0  0  0  0  0  0  0  0  0  0  0  0
  138.4474   78.0226  219.3301 H   0  0  0  0  0  0  0  0  0  0  0  0
  139.1920   76.3670  220.5230 C   0  0  0  0  0  0  0  0  0  0  0  0
  140.0090   75.8410  219.3530 C   0  0  0  0  0  0  0  0  0  0  0  0
  140.0077   76.6014  218.5581 H   0  0  0  0  0  0  0  0  0  0  0  0
  139.5419   74.8986  219.0310 H   0  0  0  0  0  0  0  0  0  0  0  0
  141.4140   75.5320  219.7030 N   0  0  0  0  0  0  0  0  0  0  0  0
  142.4050   76.4960  219.6790 C   0  0  0  0  0  0  0  0  0  0  0  0
  142.1570   77.9140  219.3430 C   0  0  0  0  0  0  0  0  0  0  0  0
  142.6335   78.3389  218.4472 H   0  0  0  0  0  0  0  0  0  0  0  0
  141.3710   78.7000  220.0930 C   0  0  0  0  0  0  0  0  0  0  0  0
  140.4415   79.0796  219.6436 H   0  0  0  0  0  0  0  0  0  0  0  0
  141.6770   79.0890  221.4900 C   0  0  0  0  0  0  0  0  0  0  0  0
  141.4180   78.2540  222.5960 C   0  0  0  0  0  0  0  0  0  0  0  0
  140.9766   77.2586  222.4399 H   0  0  0  0  0  0  0  0  0  0  0  0
  141.7120   78.6750  223.8550 N   0  0  0  0  0  0  0  0  0  0  0  0
  142.2550   79.8970  224.0950 C   0  0  0  0  0  0  0  0  0  0  0  0
  142.4887   80.2023  225.1256 H   0  0  0  0  0  0  0  0  0  0  0  0
  142.5160   80.7640  223.0350 C   0  0  0  0  0  0  0  0  0  0  0  0
  142.9502   81.7569  223.2237 H   0  0  0  0  0  0  0  0  0  0  0  0
  142.2210   80.3600  221.7320 C   0  0  0  0  0  0  0  0  0  0  0  0
  142.4158   81.0411  220.8905 H   0  0  0  0  0  0  0  0  0  0  0  0
  143.6960   76.1500  219.9190 N   0  0  0  0  0  0  0  0  0  0  0  0
  144.0550   74.8800  220.2170 C   0  0  0  0  0  0  0  0  0  0  0  0
  145.3970   74.5750  220.4740 C   0  0  0  0  0  0  0  0  0  0  0  0
  146.1586   75.3677  220.4343 H   0  0  0  0  0  0  0  0  0  0  0  0
  145.7690   73.2630  220.7810 C   0  0  0  0  0  0  0  0  0  0  0  0
  146.8235   73.0240  220.9835 H   0  0  0  0  0  0  0  0  0  0  0  0
  144.8030   72.2550  220.8310 C   0  0  0  0  0  0  0  0  0  0  0  0
  145.0982   71.2237  221.0746 H   0  0  0  0  0  0  0  0  0  0  0  0
  143.4610   72.5540  220.5720 C   0  0  0  0  0  0  0  0  0  0  0  0
  142.7039   71.7569  220.6091 H   0  0  0  0  0  0  0  0  0  0  0  0
  143.0780   73.8730  220.2640 C   0  0  0  0  0  0  0  0  0  0  0  0
  141.7470   74.2250  219.9870 C   0  0  0  0  0  0  0  0  0  0  0  0
  140.8540   73.3300  219.9950 O   0  0  0  0  0  0  0  0  0  0  0  0
  1  2  1  0
  2  3  1  0
  3  4  2  0
  4  5  1  0
  4  6  1  0
  6  7  1  0
  6  8  2  0
  8  9  1  0
  8 10  1  0
 10 11  1  0
 10 12  2  0
 12 13  1  0
 13 14  1  0
 13 15  1  0
 13 16  1  0
 16 17  1  0
 17 18  1  0
 18 19  1  0
 18 20  2  0
 20 21  1  0
 20 22  1  0
 22 23  2  0
 23 24  1  0
 23 25  1  0
 25 26  2  0
 26 27  1  0
 26 28  1  0
 28 29  1  0
 28 30  2  0
 30 31  1  0
 17 32  2  0
 32 33  1  0
 33 34  2  0
 34 35  1  0
 34 36  1  0
 36 37  1  0
 36 38  2  0
 38 39  1  0
 38 40  1  0
 40 41  1  0
 40 42  2  0
 42 43  1  0
 43 44  2  0
 12  3  1  0
 43 16  1  0
 30 22  1  0
 42 33  1  0
M  END
>  <UniqueID>  (16) 
503

>  <SMILES>  (16) 
O=c1c2ccccc2nc(/C=C/c2cccnc2)n1Cc1ccccc1O

>  <Energy>  (16) 
70.04870841384653

>  <Genealogy>  (16) 
O=c1c2ccccc2nc(/C=C/c2cccnc2)n1Cc1ccccc1O (cis-trans isomerization)
O=c1c2ccccc2nc(/C=C/c2cccnc2)n1Cc1ccccc1O (3D coordinates assigned)
O=c1c2ccccc2nc(/C=C/c2cccnc2)n1Cc1ccccc1O (optimized conformer: 70.04870841384653 kcal/mol)

>  <smiles>  (16) 
O=c1c2ccccc2nc(/C=C/c2cccnc2)n1Cc1ccccc1O

>  <score_type>  (16) 
oracle

>  <origin>  (16) 
autodockgpu

>  <m_score__min__energy>  (16) 
-7.6799999999999997

>  <m_primary>  (16) 
energy

>  <meeko>  (16) 
{"free_energy": -6.17, "intermolecular_energy": -7.96, "internal_energy": -2.15, "cluster_size": 4, "cluster_id": 3, "rank_in_cluster": 4}

>  <energy>  (16) 
-6.73

>  <cluster_rmsd>  (16) 
0.0

>  <rmsd>  (16) 
271.68

>  <cluster>  (16) 
3

$$$$
FMMHNRBASQNFIB-VAWYXSNFNA-N
     RDKit          3D

 44 47  0  0  0  0  0  0  0  0999 V2000
  139.5730   73.6400  223.4500 H   0  0  0  0  0  0  0  0  0  0  0  0
  139.9560   73.7630  222.5200 O   0  0  0  0  0  0  0  0  0  0  0  0
  140.3690   72.6800  221.7470 C   0  0  0  0  0  0  0  0  0  0  0  0
  141.4860   72.8270  220.9090 C   0  0  0  0  0  0  0  0  0  0  0  0
  142.0156   73.7903  220.8700 H   0  0  0  0  0  0  0  0  0  0  0  0
  141.9300   71.7610  220.1250 C   0  0  0  0  0  0  0  0  0  0  0  0
  142.8035   71.8875  219.4685 H   0  0  0  0  0  0  0  0  0  0  0  0
  141.2670   70.5370  220.1740 C   0  0  0  0  0  0  0  0  0  0  0  0
  141.6203   69.6963  219.5589 H   0  0  0  0  0  0  0  0  0  0  0  0
  140.1540   70.3750  221.0030 C   0  0  0  0  0  0  0  0  0  0  0  0
  139.6429   69.4017  221.0425 H   0  0  0  0  0  0  0  0  0  0  0  0
  139.6790   71.4420  221.7880 C   0  0  0  0  0  0  0  0  0  0  0  0
  138.4890   71.1710  222.6970 C   0  0  0  0  0  0  0  0  0  0  0  0
  137.7117   70.6601  222.1098 H   0  0  0  0  0  0  0  0  0  0  0  0
  138.1491   72.1433  223.0831 H   0  0  0  0  0  0  0  0  0  0  0  0
  138.8200   70.3290  223.8690 N   0  0  0  0  0  0  0  0  0  0  0  0
  138.2110   69.1070  224.0900 C   0  0  0  0  0  0  0  0  0  0  0  0
  137.2150   68.5130  223.1730 C   0  0  0  0  0  0  0  0  0  0  0  0
  137.5499   67.7681  222.4361 H   0  0  0  0  0  0  0  0  0  0  0  0
  135.9190   68.8500  223.2080 C   0  0  0  0  0  0  0  0  0  0  0  0
  135.3293   68.7283  222.2875 H   0  0  0  0  0  0  0  0  0  0  0  0
  135.2300   69.3770  224.4110 C   0  0  0  0  0  0  0  0  0  0  0  0
  134.5820   68.5500  225.3510 C   0  0  0  0  0  0  0  0  0  0  0  0
  134.5807   67.4588  225.2121 H   0  0  0  0  0  0  0  0  0  0  0  0
  133.9590   69.0960  226.4280 N   0  0  0  0  0  0  0  0  0  0  0  0
  133.9320   70.4380  226.6380 C   0  0  0  0  0  0  0  0  0  0  0  0
  133.4257   70.8458  227.5253 H   0  0  0  0  0  0  0  0  0  0  0  0
  134.5460   71.2980  225.7290 C   0  0  0  0  0  0  0  0  0  0  0  0
  134.5233   72.3858  225.8910 H   0  0  0  0  0  0  0  0  0  0  0  0
  135.1900   70.7650  224.6110 C   0  0  0  0  0  0  0  0  0  0  0  0
  135.6685   71.4367  223.8831 H   0  0  0  0  0  0  0  0  0  0  0  0
  138.4770   68.4100  225.2240 N   0  0  0  0  0  0  0  0  0  0  0  0
  139.3540   68.8570  226.1520 C   0  0  0  0  0  0  0  0  0  0  0  0
  139.6090   68.0940  227.2990 C   0  0  0  0  0  0  0  0  0  0  0  0
  139.0968   67.1315  227.4445 H   0  0  0  0  0  0  0  0  0  0  0  0
  140.5140   68.5560  228.2580 C   0  0  0  0  0  0  0  0  0  0  0  0
  140.7144   67.9563  229.1581 H   0  0  0  0  0  0  0  0  0  0  0  0
  141.1650   69.7790  228.0750 C   0  0  0  0  0  0  0  0  0  0  0  0
  141.8782   70.1394  228.8310 H   0  0  0  0  0  0  0  0  0  0  0  0
  140.9120   70.5460  226.9330 C   0  0  0  0  0  0  0  0  0  0  0  0
  141.4244   71.5094  226.7938 H   0  0  0  0  0  0  0  0  0  0  0  0
  140.0030   70.0870  225.9620 C   0  0  0  0  0  0  0  0  0  0  0  0
  139.7060   70.8220  224.8020 C   0  0  0  0  0  0  0  0  0  0  0  0
  140.2560   71.9460  224.6220 O   0  0  0  0  0  0  0  0  0  0  0  0
  1  2  1  0
  2  3  1  0
  3  4  2  0
  4  5  1  0
  4  6  1  0
  6  7  1  0
  6  8  2  0
  8  9  1  0
  8 10  1  0
 10 11  1  0
 10 12  2  0
 12 13  1  0
 13 14  1  0
 13 15  1  0
 13 16  1  0
 16 17  1  0
 17 18  1  0
 18 19  1  0
 18 20  2  0
 20 21  1  0
 20 22  1  0
 22 23  2  0
 23 24  1  0
 23 25  1  0
 25 26  2  0
 26 27  1  0
 26 28  1  0
 28 29  1  0
 28 30  2  0
 30 31  1  0
 17 32  2  0
 32 33  1  0
 33 34  2  0
 34 35  1  0
 34 36  1  0
 36 37  1  0
 36 38  2  0
 38 39  1  0
 38 40  1  0
 40 41  1  0
 40 42  2  0
 42 43  1  0
 43 44  2  0
 12  3  1  0
 43 16  1  0
 30 22  1  0
 42 33  1  0
M  END
>  <UniqueID>  (17) 
503

>  <SMILES>  (17) 
O=c1c2ccccc2nc(/C=C/c2cccnc2)n1Cc1ccccc1O

>  <Energy>  (17) 
70.04870841384653

>  <Genealogy>  (17) 
O=c1c2ccccc2nc(/C=C/c2cccnc2)n1Cc1ccccc1O (cis-trans isomerization)
O=c1c2ccccc2nc(/C=C/c2cccnc2)n1Cc1ccccc1O (3D coordinates assigned)
O=c1c2ccccc2nc(/C=C/c2cccnc2)n1Cc1ccccc1O (optimized conformer: 70.04870841384653 kcal/mol)

>  <smiles>  (17) 
O=c1c2ccccc2nc(/C=C/c2cccnc2)n1Cc1ccccc1O

>  <score_type>  (17) 
oracle

>  <origin>  (17) 
autodockgpu

>  <m_score__min__energy>  (17) 
-7.6799999999999997

>  <m_primary>  (17) 
energy

>  <meeko>  (17) 
{"free_energy": -7.53, "intermolecular_energy": -9.32, "internal_energy": -1.91, "cluster_size": 12, "cluster_id": 1, "rank_in_cluster": 4}

>  <energy>  (17) 
-6.52

>  <cluster_rmsd>  (17) 
1.52

>  <rmsd>  (17) 
272.13

>  <cluster>  (17) 
3

$$$$
FMMHNRBASQNFIB-VAWYXSNFNA-N
     RDKit          3D

 44 47  0  0  0  0  0  0  0  0999 V2000
  138.3140   77.1380  222.7210 H   0  0  0  0  0  0  0  0  0  0  0  0
  138.5810   78.0380  223.1020 O   0  0  0  0  0  0  0  0  0  0  0  0
  139.8490   78.5770  222.8920 C   0  0  0  0  0  0  0  0  0  0  0  0
  140.3840   79.4530  223.8490 C   0  0  0  0  0  0  0  0  0  0  0  0
  139.7988   79.7051  224.7456 H   0  0  0  0  0  0  0  0  0  0  0  0
  141.6530   80.0070  223.6720 C   0  0  0  0  0  0  0  0  0  0  0  0
  142.0620   80.6963  224.4254 H   0  0  0  0  0  0  0  0  0  0  0  0
  142.4020   79.6870  222.5410 C   0  0  0  0  0  0  0  0  0  0  0  0
  143.4039   80.1202  222.4051 H   0  0  0  0  0  0  0  0  0  0  0  0
  141.8820   78.8170  221.5800 C   0  0  0  0  0  0  0  0  0  0  0  0
  142.4837   78.5633  220.6948 H   0  0  0  0  0  0  0  0  0  0  0  0
  140.5980   78.2610  221.7300 C   0  0  0  0  0  0  0  0  0  0  0  0
  140.1240   77.2870  220.6610 C   0  0  0  0  0  0  0  0  0  0  0  0
  140.6338   77.5311  219.7173 H   0  0  0  0  0  0  0  0  0  0  0  0
  139.0319   77.3958  220.5865 H   0  0  0  0  0  0  0  0  0  0  0  0
  140.3980   75.8700  220.9880 N   0  0  0  0  0  0  0  0  0  0  0  0
  141.6140   75.2730  220.7060 C   0  0  0  0  0  0  0  0  0  0  0  0
  142.7530   75.9910  220.0960 C   0  0  0  0  0  0  0  0  0  0  0  0
  142.9380   77.0361  220.3851 H   0  0  0  0  0  0  0  0  0  0  0  0
  143.5680   75.4130  219.2030 C   0  0  0  0  0  0  0  0  0  0  0  0
  143.5268   75.7667  218.1622 H   0  0  0  0  0  0  0  0  0  0  0  0
  144.5220   74.3260  219.5310 C   0  0  0  0  0  0  0  0  0  0  0  0
  144.9300   73.3530  218.5960 C   0  0  0  0  0  0  0  0  0  0  0  0
  144.5433   73.3852  217.5667 H   0  0  0  0  0  0  0  0  0  0  0  0
  145.8000   72.3750  218.9630 N   0  0  0  0  0  0  0  0  0  0  0  0
  146.3000   72.2940  220.2230 C   0  0  0  0  0  0  0  0  0  0  0  0
  147.0087   71.4940  220.4831 H   0  0  0  0  0  0  0  0  0  0  0  0
  145.9150   73.2250  221.1870 C   0  0  0  0  0  0  0  0  0  0  0  0
  146.3127   73.1616  222.2106 H   0  0  0  0  0  0  0  0  0  0  0  0
  145.0200   74.2380  220.8400 C   0  0  0  0  0  0  0  0  0  0  0  0
  144.7033   74.9712  221.5964 H   0  0  0  0  0  0  0  0  0  0  0  0
  141.7910   73.9480  220.9410 N   0  0  0  0  0  0  0  0  0  0  0  0
  140.8180   73.1770  221.4770 C   0  0  0  0  0  0  0  0  0  0  0  0
  141.0540   71.8180  221.7160 C   0  0  0  0  0  0  0  0  0  0  0  0
  142.0311   71.3775  221.4686 H   0  0  0  0  0  0  0  0  0  0  0  0
  140.0480   71.0210  222.2690 C   0  0  0  0  0  0  0  0  0  0  0  0
  140.2343   69.9533  222.4566 H   0  0  0  0  0  0  0  0  0  0  0  0
  138.8060   71.5780  222.5840 C   0  0  0  0  0  0  0  0  0  0  0  0
  138.0169   70.9483  223.0208 H   0  0  0  0  0  0  0  0  0  0  0  0
  138.5640   72.9350  222.3450 C   0  0  0  0  0  0  0  0  0  0  0  0
  137.5842   73.3699  222.5917 H   0  0  0  0  0  0  0  0  0  0  0  0
  139.5730   73.7450  221.7890 C   0  0  0  0  0  0  0  0  0  0  0  0
  139.3790   75.1100  221.5200 C   0  0  0  0  0  0  0  0  0  0  0  0
  138.2570   75.6380  221.7660 O   0  0  0  0  0  0  0  0  0  0  0  0
  1  2  1  0
  2  3  1  0
  3  4  2  0
  4  5  1  0
  4  6  1  0
  6  7  1  0
  6  8  2  0
  8  9  1  0
  8 10  1  0
 10 11  1  0
 10 12  2  0
 12 13  1  0
 13 14  1  0
 13 15  1  0
 13 16  1  0
 16 17  1  0
 17 18  1  0
 18 19  1  0
 18 20  2  0
 20 21  1  0
 20 22  1  0
 22 23  2  0
 23 24  1  0
 23 25  1  0
 25 26  2  0
 26 27  1  0
 26 28  1  0
 28 29  1  0
 28 30  2  0
 30 31  1  0
 17 32  2  0
 32 33  1  0
 33 34  2  0
 34 35  1  0
 34 36  1  0
 36 37  1  0
 36 38  2  0
 38 39  1  0
 38 40  1  0
 40 41  1  0
 40 42  2  0
 42 43  1  0
 43 44  2  0
 12  3  1  0
 43 16  1  0
 30 22  1  0
 42 33  1  0
M  END
>  <UniqueID>  (18) 
503

>  <SMILES>  (18) 
O=c1c2ccccc2nc(/C=C/c2cccnc2)n1Cc1ccccc1O

>  <Energy>  (18) 
70.04870841384653

>  <Genealogy>  (18) 
O=c1c2ccccc2nc(/C=C/c2cccnc2)n1Cc1ccccc1O (cis-trans isomerization)
O=c1c2ccccc2nc(/C=C/c2cccnc2)n1Cc1ccccc1O (3D coordinates assigned)
O=c1c2ccccc2nc(/C=C/c2cccnc2)n1Cc1ccccc1O (optimized conformer: 70.04870841384653 kcal/mol)

>  <smiles>  (18) 
O=c1c2ccccc2nc(/C=C/c2cccnc2)n1Cc1ccccc1O

>  <score_type>  (18) 
oracle

>  <origin>  (18) 
autodockgpu

>  <m_score__min__energy>  (18) 
-7.6799999999999997

>  <m_primary>  (18) 
energy

>  <meeko>  (18) 
{"free_energy": -6.52, "intermolecular_energy": -8.31, "internal_energy": -1.85, "cluster_size": 4, "cluster_id": 3, "rank_in_cluster": 2}

>  <energy>  (18) 
-6.43

>  <cluster_rmsd>  (18) 
0.57

>  <rmsd>  (18) 
271.69

>  <cluster>  (18) 
3

$$$$
FMMHNRBASQNFIB-VAWYXSNFNA-N
     RDKit          3D

 44 47  0  0  0  0  0  0  0  0999 V2000
  139.3820   73.4380  223.3920 H   0  0  0  0  0  0  0  0  0  0  0  0
  139.9430   73.6810  222.5840 O   0  0  0  0  0  0  0  0  0  0  0  0
  140.5590   72.7100  221.7980 C   0  0  0  0  0  0  0  0  0  0  0  0
  141.7150   73.0480  221.0780 C   0  0  0  0  0  0  0  0  0  0  0  0
  142.1162   74.0704  221.1388 H   0  0  0  0  0  0  0  0  0  0  0  0
  142.3600   72.0970  220.2850 C   0  0  0  0  0  0  0  0  0  0  0  0
  143.2632   72.3727  219.7209 H   0  0  0  0  0  0  0  0  0  0  0  0
  141.8600   70.7990  220.2080 C   0  0  0  0  0  0  0  0  0  0  0  0
  142.3715   70.0494  219.5864 H   0  0  0  0  0  0  0  0  0  0  0  0
  140.7100   70.4480  220.9190 C   0  0  0  0  0  0  0  0  0  0  0  0
  140.3278   69.4183  220.8592 H   0  0  0  0  0  0  0  0  0  0  0  0
  140.0340   71.3950  221.7110 C   0  0  0  0  0  0  0  0  0  0  0  0
  138.8170   70.9210  222.4890 C   0  0  0  0  0  0  0  0  0  0  0  0
  138.1804   70.3311  221.8132 H   0  0  0  0  0  0  0  0  0  0  0  0
  138.3064   71.8188  222.8674 H   0  0  0  0  0  0  0  0  0  0  0  0
  139.1530   70.0850  223.6640 N   0  0  0  0  0  0  0  0  0  0  0  0
  138.7440   68.7680  223.7700 C   0  0  0  0  0  0  0  0  0  0  0  0
  137.9760   68.0650  222.7200 C   0  0  0  0  0  0  0  0  0  0  0  0
  137.0017   68.4723  222.4119 H   0  0  0  0  0  0  0  0  0  0  0  0
  138.4260   66.9490  222.1310 C   0  0  0  0  0  0  0  0  0  0  0  0
  138.1388   65.9822  222.5702 H   0  0  0  0  0  0  0  0  0  0  0  0
  139.2870   66.9360  220.9240 C   0  0  0  0  0  0  0  0  0  0  0  0
  139.1010   67.8130  219.8360 C   0  0  0  0  0  0  0  0  0  0  0  0
  138.2911   68.5568  219.8641 H   0  0  0  0  0  0  0  0  0  0  0  0
  139.9190   67.7430  218.7520 N   0  0  0  0  0  0  0  0  0  0  0  0
  140.9290   66.8390  218.6730 C   0  0  0  0  0  0  0  0  0  0  0  0
  141.5771   66.8149  217.7845 H   0  0  0  0  0  0  0  0  0  0  0  0
  141.1450   65.9410  219.7180 C   0  0  0  0  0  0  0  0  0  0  0  0
  141.9592   65.2038  219.6576 H   0  0  0  0  0  0  0  0  0  0  0  0
  140.3180   65.9870  220.8410 C   0  0  0  0  0  0  0  0  0  0  0  0
  140.4748   65.2759  221.6655 H   0  0  0  0  0  0  0  0  0  0  0  0
  138.9980   68.0670  224.9040 N   0  0  0  0  0  0  0  0  0  0  0  0
  139.6730   68.6040  225.9450 C   0  0  0  0  0  0  0  0  0  0  0  0
  139.9260   67.8360  227.0880 C   0  0  0  0  0  0  0  0  0  0  0  0
  139.5756   66.7945  227.1388 H   0  0  0  0  0  0  0  0  0  0  0  0
  140.6230   68.3910  228.1640 C   0  0  0  0  0  0  0  0  0  0  0  0
  140.8209   67.7864  229.0614 H   0  0  0  0  0  0  0  0  0  0  0  0
  141.0690   69.7140  228.1010 C   0  0  0  0  0  0  0  0  0  0  0  0
  141.6191   70.1481  228.9489 H   0  0  0  0  0  0  0  0  0  0  0  0
  140.8180   70.4880  226.9630 C   0  0  0  0  0  0  0  0  0  0  0  0
  141.1682   71.5298  226.9186 H   0  0  0  0  0  0  0  0  0  0  0  0
  140.1170   69.9340  225.8740 C   0  0  0  0  0  0  0  0  0  0  0  0
  139.8300   70.6700  224.7120 C   0  0  0  0  0  0  0  0  0  0  0  0
  140.1940   71.8780  224.6370 O   0  0  0  0  0  0  0  0  0  0  0  0
  1  2  1  0
  2  3  1  0
  3  4  2  0
  4  5  1  0
  4  6  1  0
  6  7  1  0
  6  8  2  0
  8  9  1  0
  8 10  1  0
 10 11  1  0
 10 12  2  0
 12 13  1  0
 13 14  1  0
 13 15  1  0
 13 16  1  0
 16 17  1  0
 17 18  1  0
 18 19  1  0
 18 20  2  0
 20 21  1  0
 20 22  1  0
 22 23  2  0
 23 24  1  0
 23 25  1  0
 25 26  2  0
 26 27  1  0
 26 28  1  0
 28 29  1  0
 28 30  2  0
 30 31  1  0
 17 32  2  0
 32 33  1  0
 33 34  2  0
 34 35  1  0
 34 36  1  0
 36 37  1  0
 36 38  2  0
 38 39  1  0
 38 40  1  0
 40 41  1  0
 40 42  2  0
 42 43  1  0
 43 44  2  0
 12  3  1  0
 43 16  1  0
 30 22  1  0
 42 33  1  0
M  END
>  <UniqueID>  (19) 
503

>  <SMILES>  (19) 
O=c1c2ccccc2nc(/C=C/c2cccnc2)n1Cc1ccccc1O

>  <Energy>  (19) 
70.04870841384653

>  <Genealogy>  (19) 
O=c1c2ccccc2nc(/C=C/c2cccnc2)n1Cc1ccccc1O (cis-trans isomerization)
O=c1c2ccccc2nc(/C=C/c2cccnc2)n1Cc1ccccc1O (3D coordinates assigned)
O=c1c2ccccc2nc(/C=C/c2cccnc2)n1Cc1ccccc1O (optimized conformer: 70.04870841384653 kcal/mol)

>  <smiles>  (19) 
O=c1c2ccccc2nc(/C=C/c2cccnc2)n1Cc1ccccc1O

>  <score_type>  (19) 
oracle

>  <origin>  (19) 
autodockgpu

>  <m_score__min__energy>  (19) 
-7.6799999999999997

>  <m_primary>  (19) 
energy

>  <meeko>  (19) 
{"free_energy": -6.89, "intermolecular_energy": -8.68, "internal_energy": -1.99, "cluster_size": 3, "cluster_id": 2, "rank_in_cluster": 2}

>  <energy>  (19) 
-6.17

>  <cluster_rmsd>  (19) 
1.75

>  <rmsd>  (19) 
272.13

>  <cluster>  (19) 
3

$$$$
FMMHNRBASQNFIB-VAWYXSNFNA-N
     RDKit          3D

 44 47  0  0  0  0  0  0  0  0999 V2000
  139.5600   73.6090  223.4390 H   0  0  0  0  0  0  0  0  0  0  0  0
  139.9670   73.7350  222.5190 O   0  0  0  0  0  0  0  0  0  0  0  0
  140.3560   72.6510  221.7340 C   0  0  0  0  0  0  0  0  0  0  0  0
  141.4670   72.7870  220.8870 C   0  0  0  0  0  0  0  0  0  0  0  0
  142.0116   73.7420  220.8503 H   0  0  0  0  0  0  0  0  0  0  0  0
  141.8860   71.7200  220.0910 C   0  0  0  0  0  0  0  0  0  0  0  0
  142.7551   71.8375  219.4270 H   0  0  0  0  0  0  0  0  0  0  0  0
  141.2040   70.5060  220.1370 C   0  0  0  0  0  0  0  0  0  0  0  0
  141.5383   69.6643  219.5127 H   0  0  0  0  0  0  0  0  0  0  0  0
  140.0960   70.3560  220.9750 C   0  0  0  0  0  0  0  0  0  0  0  0
  139.5693   69.3910  221.0119 H   0  0  0  0  0  0  0  0  0  0  0  0
  139.6460   71.4240  221.7720 C   0  0  0  0  0  0  0  0  0  0  0  0
  138.4600   71.1660  222.6900 C   0  0  0  0  0  0  0  0  0  0  0  0
  137.6677   70.6756  222.1054 H   0  0  0  0  0  0  0  0  0  0  0  0
  138.1425   72.1406  223.0891 H   0  0  0  0  0  0  0  0  0  0  0  0
  138.7860   70.3060  223.8510 N   0  0  0  0  0  0  0  0  0  0  0  0
  138.1930   69.0710  224.0390 C   0  0  0  0  0  0  0  0  0  0  0  0
  137.2210   68.4800  223.0950 C   0  0  0  0  0  0  0  0  0  0  0  0
  137.5897   67.8165  222.2989 H   0  0  0  0  0  0  0  0  0  0  0  0
  135.9060   68.7250  223.1760 C   0  0  0  0  0  0  0  0  0  0  0  0
  135.2826   68.4884  222.3012 H   0  0  0  0  0  0  0  0  0  0  0  0
  135.2390   69.2950  224.3710 C   0  0  0  0  0  0  0  0  0  0  0  0
  134.5600   68.5080  225.3230 C   0  0  0  0  0  0  0  0  0  0  0  0
  134.5160   67.4158  225.2000 H   0  0  0  0  0  0  0  0  0  0  0  0
  133.9590   69.0940  226.3930 N   0  0  0  0  0  0  0  0  0  0  0  0
  133.9850   70.4380  226.5830 C   0  0  0  0  0  0  0  0  0  0  0  0
  133.4957   70.8782  227.4643 H   0  0  0  0  0  0  0  0  0  0  0  0
  134.6320   71.2610  225.6610 C   0  0  0  0  0  0  0  0  0  0  0  0
  134.6518   72.3511  225.8072 H   0  0  0  0  0  0  0  0  0  0  0  0
  135.2540   70.6870  224.5510 C   0  0  0  0  0  0  0  0  0  0  0  0
  135.7584   71.3287  223.8136 H   0  0  0  0  0  0  0  0  0  0  0  0
  138.4540   68.3560  225.1630 N   0  0  0  0  0  0  0  0  0  0  0  0
  139.3100   68.7980  226.1130 C   0  0  0  0  0  0  0  0  0  0  0  0
  139.5600   68.0170  227.2480 C   0  0  0  0  0  0  0  0  0  0  0  0
  139.0603   67.0443  227.3672 H   0  0  0  0  0  0  0  0  0  0  0  0
  140.4440   68.4730  228.2290 C   0  0  0  0  0  0  0  0  0  0  0  0
  140.6405   67.8584  229.1199 H   0  0  0  0  0  0  0  0  0  0  0  0
  141.0790   69.7090  228.0800 C   0  0  0  0  0  0  0  0  0  0  0  0
  141.7754   70.0649  228.8536 H   0  0  0  0  0  0  0  0  0  0  0  0
  140.8310   70.4950  226.9490 C   0  0  0  0  0  0  0  0  0  0  0  0
  141.3304   71.4686  226.8364 H   0  0  0  0  0  0  0  0  0  0  0  0
  139.9430   70.0410  225.9550 C   0  0  0  0  0  0  0  0  0  0  0  0
  139.6510   70.7950  224.8060 C   0  0  0  0  0  0  0  0  0  0  0  0
  140.1870   71.9300  224.6560 O   0  0  0  0  0  0  0  0  0  0  0  0
  1  2  1  0
  2  3  1  0
  3  4  2  0
  4  5  1  0
  4  6  1  0
  6  7  1  0
  6  8  2  0
  8  9  1  0
  8 10  1  0
 10 11  1  0
 10 12  2  0
 12 13  1  0
 13 14  1  0
 13 15  1  0
 13 16  1  0
 16 17  1  0
 17 18  1  0
 18 19  1  0
 18 20  2  0
 20 21  1  0
 20 22  1  0
 22 23  2  0
 23 24  1  0
 23 25  1  0
 25 26  2  0
 26 27  1  0
 26 28  1  0
 28 29  1  0
 28 30  2  0
 30 31  1  0
 17 32  2  0
 32 33  1  0
 33 34  2  0
 34 35  1  0
 34 36  1  0
 36 37  1  0
 36 38  2  0
 38 39  1  0
 38 40  1  0
 40 41  1  0
 40 42  2  0
 42 43  1  0
 43 44  2  0
 12  3  1  0
 43 16  1  0
 30 22  1  0
 42 33  1  0
M  END
>  <UniqueID>  (20) 
503

>  <SMILES>  (20) 
O=c1c2ccccc2nc(/C=C/c2cccnc2)n1Cc1ccccc1O

>  <Energy>  (20) 
70.04870841384653

>  <Genealogy>  (20) 
O=c1c2ccccc2nc(/C=C/c2cccnc2)n1Cc1ccccc1O (cis-trans isomerization)
O=c1c2ccccc2nc(/C=C/c2cccnc2)n1Cc1ccccc1O (3D coordinates assigned)
O=c1c2ccccc2nc(/C=C/c2cccnc2)n1Cc1ccccc1O (optimized conformer: 70.04870841384653 kcal/mol)

>  <smiles>  (20) 
O=c1c2ccccc2nc(/C=C/c2cccnc2)n1Cc1ccccc1O

>  <score_type>  (20) 
oracle

>  <origin>  (20) 
autodockgpu

>  <m_score__min__energy>  (20) 
-7.6799999999999997

>  <m_primary>  (20) 
energy

>  <meeko>  (20) 
{"free_energy": -7.46, "intermolecular_energy": -9.25, "internal_energy": -1.95, "cluster_size": 12, "cluster_id": 1, "rank_in_cluster": 8}

>  <energy>  (20) 
-6.06

>  <cluster_rmsd>  (20) 
0.0

>  <rmsd>  (20) 
273.09

>  <cluster>  (20) 
4

$$$$
FMMHNRBASQNFIB-CUFMLMHXNA-M
     RDKit          3D

 43 46  0  0  0  0  0  0  0  0999 V2000
  135.3784   68.1875  222.5287 H   0  0  0  0  0  0  0  0  0  0  0  0
  136.0120   68.7050  223.2640 C   0  0  0  0  0  0  0  0  0  0  0  0
  137.3370   68.6870  223.0730 C   0  0  0  0  0  0  0  0  0  0  0  0
  137.7316   68.2950  222.1240 H   0  0  0  0  0  0  0  0  0  0  0  0
  138.2880   69.1760  224.0940 C   0  0  0  0  0  0  0  0  0  0  0  0
  138.5050   68.3600  225.1570 N   0  0  0  0  0  0  0  0  0  0  0  0
  139.3370   68.7030  226.1670 C   0  0  0  0  0  0  0  0  0  0  0  0
  139.5410   67.8200  227.2350 C   0  0  0  0  0  0  0  0  0  0  0  0
  139.0250   66.8487  227.2523 H   0  0  0  0  0  0  0  0  0  0  0  0
  140.4010   68.1740  228.2790 C   0  0  0  0  0  0  0  0  0  0  0  0
  140.5625   67.4797  229.1167 H   0  0  0  0  0  0  0  0  0  0  0  0
  141.0560   69.4090  228.2600 C   0  0  0  0  0  0  0  0  0  0  0  0
  141.7325   69.6840  229.0826 H   0  0  0  0  0  0  0  0  0  0  0  0
  140.8530   70.2960  227.1970 C   0  0  0  0  0  0  0  0  0  0  0  0
  141.3682   71.2678  227.1864 H   0  0  0  0  0  0  0  0  0  0  0  0
  139.9900   69.9460  226.1410 C   0  0  0  0  0  0  0  0  0  0  0  0
  139.7440   70.8010  225.0550 C   0  0  0  0  0  0  0  0  0  0  0  0
  140.2980   71.9380  225.0230 O   0  0  0  0  0  0  0  0  0  0  0  0
  138.9020   70.4140  224.0350 N   0  0  0  0  0  0  0  0  0  0  0  0
  138.6190   71.3800  222.9490 C   0  0  0  0  0  0  0  0  0  0  0  0
  137.6867   71.0785  222.4491 H   0  0  0  0  0  0  0  0  0  0  0  0
  138.5411   72.3744  223.4128 H   0  0  0  0  0  0  0  0  0  0  0  0
  139.7220   71.4590  221.9040 C   0  0  0  0  0  0  0  0  0  0  0  0
  140.0310   70.2850  221.1930 C   0  0  0  0  0  0  0  0  0  0  0  0
  139.4562   69.3669  221.3842 H   0  0  0  0  0  0  0  0  0  0  0  0
  141.0590   70.2710  220.2470 C   0  0  0  0  0  0  0  0  0  0  0  0
  141.2831   69.3477  219.6926 H   0  0  0  0  0  0  0  0  0  0  0  0
  141.8010   71.4260  220.0050 C   0  0  0  0  0  0  0  0  0  0  0  0
  142.6068   71.4150  219.2563 H   0  0  0  0  0  0  0  0  0  0  0  0
  141.5220   72.5960  220.7120 C   0  0  0  0  0  0  0  0  0  0  0  0
  142.1129   73.5041  220.5215 H   0  0  0  0  0  0  0  0  0  0  0  0
  140.4950   72.6210  221.6620 C   0  0  0  0  0  0  0  0  0  0  0  0
  140.2580   73.8100  222.3440 O   0  0  0  0  0  0  0  0  0  0  0  0
  135.3440   69.3790  224.4050 C   0  0  0  0  0  0  0  0  0  0  0  0
  134.7290   68.5890  225.3900 C   0  0  0  0  0  0  0  0  0  0  0  0
  134.7458   67.4928  225.3002 H   0  0  0  0  0  0  0  0  0  0  0  0
  134.1130   69.1700  226.4540 N   0  0  0  0  0  0  0  0  0  0  0  0
  134.0750   70.5190  226.6100 C   0  0  0  0  0  0  0  0  0  0  0  0
  133.5643   70.9578  227.4798 H   0  0  0  0  0  0  0  0  0  0  0  0
  134.6830   71.3470  225.6680 C   0  0  0  0  0  0  0  0  0  0  0  0
  134.6600   72.4397  225.7927 H   0  0  0  0  0  0  0  0  0  0  0  0
  135.3220   70.7770  224.5640 C   0  0  0  0  0  0  0  0  0  0  0  0
  135.8088   71.4222  223.8178 H   0  0  0  0  0  0  0  0  0  0  0  0
  1  2  1  0
  2  3  2  0
  3  4  1  0
  3  5  1  0
  5  6  2  0
  6  7  1  0
  7  8  2  0
  8  9  1  0
  8 10  1  0
 10 11  1  0
 10 12  2  0
 12 13  1  0
 12 14  1  0
 14 15  1  0
 14 16  2  0
 16 17  1  0
 17 18  2  0
 17 19  1  0
 19 20  1  0
 20 21  1  0
 20 22  1  0
 20 23  1  0
 23 24  2  0
 24 25  1  0
 24 26  1  0
 26 27  1  0
 26 28  2  0
 28 29  1  0
 28 30  1  0
 30 31  1  0
 30 32  2  0
 32 33  1  0
  2 34  1  0
 34 35  2  0
 35 36  1  0
 35 37  1  0
 37 38  2  0
 38 39  1  0
 38 40  1  0
 40 41  1  0
 40 42  2  0
 42 43  1  0
 19  5  1  0
 32 23  1  0
 42 34  1  0
 16  7  1  0
M  CHG  1  33  -1
M  END
>  <UniqueID>  (21) 
504

>  <SMILES>  (21) 
O=c1c2ccccc2nc(/C=C/c2cccnc2)n1Cc1ccccc1[O-]

>  <Energy>  (21) 
69.78370482222795

>  <Genealogy>  (21) 
O=c1c2ccccc2nc(/C=C/c2cccnc2)n1Cc1ccccc1[O-] (protonated)
O=c1c2ccccc2nc(/C=C/c2cccnc2)n1Cc1ccccc1[O-] (cis-trans isomerization)
O=c1c2ccccc2nc(/C=C/c2cccnc2)n1Cc1ccccc1[O-] (3D coordinates assigned)
O=c1c2ccccc2nc(/C=C/c2cccnc2)n1Cc1ccccc1[O-] (optimized conformer: 69.78370482222795 kcal/mol)

>  <smiles>  (21) 
O=c1c2ccccc2nc(/C=C/c2cccnc2)n1Cc1ccccc1O

>  <score_type>  (21) 
oracle

>  <origin>  (21) 
autodockgpu

>  <m_score__min__energy>  (21) 
-7.2699999999999996

>  <m_primary>  (21) 
energy

>  <meeko>  (21) 
{"free_energy": -7.07, "intermolecular_energy": -8.56, "internal_energy": -1.26, "cluster_size": 9, "cluster_id": 1, "rank_in_cluster": 6}

>  <energy>  (21) 
-7.27

>  <cluster_rmsd>  (21) 
0.0

>  <rmsd>  (21) 
270.73

>  <cluster>  (21) 
1

$$$$
FMMHNRBASQNFIB-CUFMLMHXNA-M
     RDKit          3D

 43 46  0  0  0  0  0  0  0  0999 V2000
  135.5239   70.4423  225.1867 H   0  0  0  0  0  0  0  0  0  0  0  0
  135.5900   71.3070  224.5100 C   0  0  0  0  0  0  0  0  0  0  0  0
  136.1700   71.1270  223.3160 C   0  0  0  0  0  0  0  0  0  0  0  0
  135.7037   70.4359  222.5984 H   0  0  0  0  0  0  0  0  0  0  0  0
  137.4140   71.8240  222.9290 C   0  0  0  0  0  0  0  0  0  0  0  0
  137.2670   73.0430  222.3500 N   0  0  0  0  0  0  0  0  0  0  0  0
  138.3280   73.7720  221.9330 C   0  0  0  0  0  0  0  0  0  0  0  0
  138.1280   75.0320  221.3560 C   0  0  0  0  0  0  0  0  0  0  0  0
  137.1086   75.4292  221.2419 H   0  0  0  0  0  0  0  0  0  0  0  0
  139.2240   75.7850  220.9250 C   0  0  0  0  0  0  0  0  0  0  0  0
  139.0660   76.7751  220.4725 H   0  0  0  0  0  0  0  0  0  0  0  0
  140.5210   75.2820  221.0680 C   0  0  0  0  0  0  0  0  0  0  0  0
  141.3814   75.8778  220.7295 H   0  0  0  0  0  0  0  0  0  0  0  0
  140.7260   74.0220  221.6410 C   0  0  0  0  0  0  0  0  0  0  0  0
  141.7471   73.6276  221.7495 H   0  0  0  0  0  0  0  0  0  0  0  0
  139.6270   73.2580  222.0790 C   0  0  0  0  0  0  0  0  0  0  0  0
  139.7770   71.9850  222.6530 C   0  0  0  0  0  0  0  0  0  0  0  0
  140.9340   71.4890  222.7690 O   0  0  0  0  0  0  0  0  0  0  0  0
  138.6750   71.2770  223.0800 N   0  0  0  0  0  0  0  0  0  0  0  0
  138.8790   69.9090  223.6120 C   0  0  0  0  0  0  0  0  0  0  0  0
  137.9172   69.3761  223.5807 H   0  0  0  0  0  0  0  0  0  0  0  0
  139.6428   69.4276  222.9836 H   0  0  0  0  0  0  0  0  0  0  0  0
  139.3960   69.8860  225.0420 C   0  0  0  0  0  0  0  0  0  0  0  0
  139.9250   71.0810  225.5640 C   0  0  0  0  0  0  0  0  0  0  0  0
  139.9212   71.9918  224.9472 H   0  0  0  0  0  0  0  0  0  0  0  0
  140.4550   71.1250  226.8560 C   0  0  0  0  0  0  0  0  0  0  0  0
  140.8567   72.0687  227.2535 H   0  0  0  0  0  0  0  0  0  0  0  0
  140.4750   69.9730  227.6420 C   0  0  0  0  0  0  0  0  0  0  0  0
  140.8879   70.0098  228.6609 H   0  0  0  0  0  0  0  0  0  0  0  0
  139.9720   68.7750  227.1370 C   0  0  0  0  0  0  0  0  0  0  0  0
  139.9941   67.8678  227.7587 H   0  0  0  0  0  0  0  0  0  0  0  0
  139.4390   68.7190  225.8440 C   0  0  0  0  0  0  0  0  0  0  0  0
  138.9540   67.4990  225.3840 O   0  0  0  0  0  0  0  0  0  0  0  0
  135.0310   72.6000  224.9770 C   0  0  0  0  0  0  0  0  0  0  0  0
  134.0920   72.5920  226.0210 C   0  0  0  0  0  0  0  0  0  0  0  0
  133.7828   71.6366  226.4700 H   0  0  0  0  0  0  0  0  0  0  0  0
  133.5620   73.7570  226.4810 N   0  0  0  0  0  0  0  0  0  0  0  0
  133.9210   74.9590  225.9620 C   0  0  0  0  0  0  0  0  0  0  0  0
  133.4701   75.8831  226.3527 H   0  0  0  0  0  0  0  0  0  0  0  0
  134.8610   75.0230  224.9340 C   0  0  0  0  0  0  0  0  0  0  0  0
  135.1594   75.9951  224.5145 H   0  0  0  0  0  0  0  0  0  0  0  0
  135.4200   73.8420  224.4420 C   0  0  0  0  0  0  0  0  0  0  0  0
  136.1659   73.8825  223.6346 H   0  0  0  0  0  0  0  0  0  0  0  0
  1  2  1  0
  2  3  2  0
  3  4  1  0
  3  5  1  0
  5  6  2  0
  6  7  1  0
  7  8  2  0
  8  9  1  0
  8 10  1  0
 10 11  1  0
 10 12  2  0
 12 13  1  0
 12 14  1  0
 14 15  1  0
 14 16  2  0
 16 17  1  0
 17 18  2  0
 17 19  1  0
 19 20  1  0
 20 21  1  0
 20 22  1  0
 20 23  1  0
 23 24  2  0
 24 25  1  0
 24 26  1  0
 26 27  1  0
 26 28  2  0
 28 29  1  0
 28 30  1  0
 30 31  1  0
 30 32  2  0
 32 33  1  0
  2 34  1  0
 34 35  2  0
 35 36  1  0
 35 37  1  0
 37 38  2  0
 38 39  1  0
 38 40  1  0
 40 41  1  0
 40 42  2  0
 42 43  1  0
 19  5  1  0
 32 23  1  0
 42 34  1  0
 16  7  1  0
M  CHG  1  33  -1
M  END
>  <UniqueID>  (22) 
504

>  <SMILES>  (22) 
O=c1c2ccccc2nc(/C=C/c2cccnc2)n1Cc1ccccc1[O-]

>  <Energy>  (22) 
69.78370482222795

>  <Genealogy>  (22) 
O=c1c2ccccc2nc(/C=C/c2cccnc2)n1Cc1ccccc1[O-] (protonated)
O=c1c2ccccc2nc(/C=C/c2cccnc2)n1Cc1ccccc1[O-] (cis-trans isomerization)
O=c1c2ccccc2nc(/C=C/c2cccnc2)n1Cc1ccccc1[O-] (3D coordinates assigned)
O=c1c2ccccc2nc(/C=C/c2cccnc2)n1Cc1ccccc1[O-] (optimized conformer: 69.78370482222795 kcal/mol)

>  <smiles>  (22) 
O=c1c2ccccc2nc(/C=C/c2cccnc2)n1Cc1ccccc1O

>  <score_type>  (22) 
oracle

>  <origin>  (22) 
autodockgpu

>  <m_score__min__energy>  (22) 
-7.2699999999999996

>  <m_primary>  (22) 
energy

>  <meeko>  (22) 
{"free_energy": -7.0, "intermolecular_energy": -8.49, "internal_energy": -1.06, "cluster_size": 5, "cluster_id": 2, "rank_in_cluster": 4}

>  <energy>  (22) 
-7.26

>  <cluster_rmsd>  (22) 
0.07

>  <rmsd>  (22) 
270.75

>  <cluster>  (22) 
1

$$$$
FMMHNRBASQNFIB-CUFMLMHXNA-M
     RDKit          3D

 43 46  0  0  0  0  0  0  0  0999 V2000
  139.0850   76.6811  223.6458 H   0  0  0  0  0  0  0  0  0  0  0  0
  138.9630   77.2640  222.7210 C   0  0  0  0  0  0  0  0  0  0  0  0
  139.0820   76.6200  221.5530 C   0  0  0  0  0  0  0  0  0  0  0  0
  138.1777   76.4335  220.9552 H   0  0  0  0  0  0  0  0  0  0  0  0
  140.3860   76.1510  221.0390 C   0  0  0  0  0  0  0  0  0  0  0  0
  140.7170   74.8640  221.3190 N   0  0  0  0  0  0  0  0  0  0  0  0
  141.8920   74.3220  220.9230 C   0  0  0  0  0  0  0  0  0  0  0  0
  142.1820   72.9860  221.2210 C   0  0  0  0  0  0  0  0  0  0  0  0
  141.4551   72.3763  221.7777 H   0  0  0  0  0  0  0  0  0  0  0  0
  143.3960   72.4260  220.8110 C   0  0  0  0  0  0  0  0  0  0  0  0
  143.6227   71.3752  221.0442 H   0  0  0  0  0  0  0  0  0  0  0  0
  144.3220   73.2000  220.1050 C   0  0  0  0  0  0  0  0  0  0  0  0
  145.2762   72.7568  219.7840 H   0  0  0  0  0  0  0  0  0  0  0  0
  144.0380   74.5360  219.8060 C   0  0  0  0  0  0  0  0  0  0  0  0
  144.7694   75.1420  219.2512 H   0  0  0  0  0  0  0  0  0  0  0  0
  142.8170   75.1070  220.2140 C   0  0  0  0  0  0  0  0  0  0  0  0
  142.4860   76.4460  219.9490 C   0  0  0  0  0  0  0  0  0  0  0  0
  143.3140   77.1800  219.3370 O   0  0  0  0  0  0  0  0  0  0  0  0
  141.2740   76.9600  220.3540 N   0  0  0  0  0  0  0  0  0  0  0  0
  141.0020   78.3960  220.1140 C   0  0  0  0  0  0  0  0  0  0  0  0
  141.4957   78.6920  219.1766 H   0  0  0  0  0  0  0  0  0  0  0  0
  139.9095   78.5148  220.0656 H   0  0  0  0  0  0  0  0  0  0  0  0
  141.5020   79.3030  221.2290 C   0  0  0  0  0  0  0  0  0  0  0  0
  142.0860   78.6910  222.3550 C   0  0  0  0  0  0  0  0  0  0  0  0
  142.1930   77.5966  222.3843 H   0  0  0  0  0  0  0  0  0  0  0  0
  142.5310   79.4570  223.4350 C   0  0  0  0  0  0  0  0  0  0  0  0
  142.9938   78.9657  224.3035 H   0  0  0  0  0  0  0  0  0  0  0  0
  142.3890   80.8440  223.4130 C   0  0  0  0  0  0  0  0  0  0  0  0
  142.7441   81.4464  224.2621 H   0  0  0  0  0  0  0  0  0  0  0  0
  141.7970   81.4680  222.3150 C   0  0  0  0  0  0  0  0  0  0  0  0
  141.6832   82.5620  222.3037 H   0  0  0  0  0  0  0  0  0  0  0  0
  141.3470   80.7110  221.2280 C   0  0  0  0  0  0  0  0  0  0  0  0
  140.7590   81.3790  220.1590 O   0  0  0  0  0  0  0  0  0  0  0  0
  138.6770   78.7140  222.8460 C   0  0  0  0  0  0  0  0  0  0  0  0
  137.8780   79.3320  221.8700 C   0  0  0  0  0  0  0  0  0  0  0  0
  137.4847   78.7390  221.0311 H   0  0  0  0  0  0  0  0  0  0  0  0
  137.5870   80.6570  221.9540 N   0  0  0  0  0  0  0  0  0  0  0  0
  138.0450   81.4260  222.9760 C   0  0  0  0  0  0  0  0  0  0  0  0
  137.7960   82.4968  223.0125 H   0  0  0  0  0  0  0  0  0  0  0  0
  138.8300   80.8590  223.9780 C   0  0  0  0  0  0  0  0  0  0  0  0
  139.1991   81.4768  224.8099 H   0  0  0  0  0  0  0  0  0  0  0  0
  139.1440   79.5000  223.9170 C   0  0  0  0  0  0  0  0  0  0  0  0
  139.7574   79.0423  224.7071 H   0  0  0  0  0  0  0  0  0  0  0  0
  1  2  1  0
  2  3  2  0
  3  4  1  0
  3  5  1  0
  5  6  2  0
  6  7  1  0
  7  8  2  0
  8  9  1  0
  8 10  1  0
 10 11  1  0
 10 12  2  0
 12 13  1  0
 12 14  1  0
 14 15  1  0
 14 16  2  0
 16 17  1  0
 17 18  2  0
 17 19  1  0
 19 20  1  0
 20 21  1  0
 20 22  1  0
 20 23  1  0
 23 24  2  0
 24 25  1  0
 24 26  1  0
 26 27  1  0
 26 28  2  0
 28 29  1  0
 28 30  1  0
 30 31  1  0
 30 32  2  0
 32 33  1  0
  2 34  1  0
 34 35  2  0
 35 36  1  0
 35 37  1  0
 37 38  2  0
 38 39  1  0
 38 40  1  0
 40 41  1  0
 40 42  2  0
 42 43  1  0
 19  5  1  0
 32 23  1  0
 42 34  1  0
 16  7  1  0
M  CHG  1  33  -1
M  END
>  <UniqueID>  (23) 
504

>  <SMILES>  (23) 
O=c1c2ccccc2nc(/C=C/c2cccnc2)n1Cc1ccccc1[O-]

>  <Energy>  (23) 
69.78370482222795

>  <Genealogy>  (23) 
O=c1c2ccccc2nc(/C=C/c2cccnc2)n1Cc1ccccc1[O-] (protonated)
O=c1c2ccccc2nc(/C=C/c2cccnc2)n1Cc1ccccc1[O-] (cis-trans isomerization)
O=c1c2ccccc2nc(/C=C/c2cccnc2)n1Cc1ccccc1[O-] (3D coordinates assigned)
O=c1c2ccccc2nc(/C=C/c2cccnc2)n1Cc1ccccc1[O-] (optimized conformer: 69.78370482222795 kcal/mol)

>  <smiles>  (23) 
O=c1c2ccccc2nc(/C=C/c2cccnc2)n1Cc1ccccc1O

>  <score_type>  (23) 
oracle

>  <origin>  (23) 
autodockgpu

>  <m_score__min__energy>  (23) 
-7.2699999999999996

>  <m_primary>  (23) 
energy

>  <meeko>  (23) 
{"free_energy": -5.85, "intermolecular_energy": -7.34, "internal_energy": -1.81, "cluster_size": 3, "cluster_id": 4, "rank_in_cluster": 3}

>  <energy>  (23) 
-7.14

>  <cluster_rmsd>  (23) 
0.29

>  <rmsd>  (23) 
270.66

>  <cluster>  (23) 
1

$$$$
FMMHNRBASQNFIB-CUFMLMHXNA-M
     RDKit          3D

 43 46  0  0  0  0  0  0  0  0999 V2000
  134.9889   72.3401  222.6900 H   0  0  0  0  0  0  0  0  0  0  0  0
  135.4430   71.8630  223.5710 C   0  0  0  0  0  0  0  0  0  0  0  0
  136.6010   71.2110  223.4050 C   0  0  0  0  0  0  0  0  0  0  0  0
  136.6375   70.1318  223.6147 H   0  0  0  0  0  0  0  0  0  0  0  0
  137.8310   71.8910  222.9500 C   0  0  0  0  0  0  0  0  0  0  0  0
  137.6670   73.1000  222.3550 N   0  0  0  0  0  0  0  0  0  0  0  0
  138.7130   73.8130  221.8770 C   0  0  0  0  0  0  0  0  0  0  0  0
  138.4950   75.0640  221.2850 C   0  0  0  0  0  0  0  0  0  0  0  0
  137.4740   75.4663  221.2088 H   0  0  0  0  0  0  0  0  0  0  0  0
  139.5760   75.8010  220.7910 C   0  0  0  0  0  0  0  0  0  0  0  0
  139.4048   76.7840  220.3279 H   0  0  0  0  0  0  0  0  0  0  0  0
  140.8740   75.2900  220.8850 C   0  0  0  0  0  0  0  0  0  0  0  0
  141.7225   75.8719  220.4958 H   0  0  0  0  0  0  0  0  0  0  0  0
  141.0960   74.0400  221.4730 C   0  0  0  0  0  0  0  0  0  0  0  0
  142.1186   73.6408  221.5440 H   0  0  0  0  0  0  0  0  0  0  0  0
  140.0140   73.2920  221.9740 C   0  0  0  0  0  0  0  0  0  0  0  0
  140.1800   72.0290  222.5650 C   0  0  0  0  0  0  0  0  0  0  0  0
  141.3380   71.5270  222.6380 O   0  0  0  0  0  0  0  0  0  0  0  0
  139.0950   71.3380  223.0550 N   0  0  0  0  0  0  0  0  0  0  0  0
  139.3130   69.9790  223.6020 C   0  0  0  0  0  0  0  0  0  0  0  0
  138.3917   69.3948  223.4610 H   0  0  0  0  0  0  0  0  0  0  0  0
  140.1678   69.5457  223.0621 H   0  0  0  0  0  0  0  0  0  0  0  0
  139.6670   69.9710  225.0820 C   0  0  0  0  0  0  0  0  0  0  0  0
  140.2050   71.1510  225.6300 C   0  0  0  0  0  0  0  0  0  0  0  0
  140.3228   72.0407  224.9940 H   0  0  0  0  0  0  0  0  0  0  0  0
  140.5910   71.2060  226.9710 C   0  0  0  0  0  0  0  0  0  0  0  0
  141.0019   72.1379  227.3867 H   0  0  0  0  0  0  0  0  0  0  0  0
  140.4560   70.0800  227.7840 C   0  0  0  0  0  0  0  0  0  0  0  0
  140.7554   70.1257  228.8415 H   0  0  0  0  0  0  0  0  0  0  0  0
  139.9410   68.8960  227.2550 C   0  0  0  0  0  0  0  0  0  0  0  0
  139.8402   68.0088  227.8974 H   0  0  0  0  0  0  0  0  0  0  0  0
  139.5520   68.8300  225.9130 C   0  0  0  0  0  0  0  0  0  0  0  0
  139.0490   67.6250  225.4320 O   0  0  0  0  0  0  0  0  0  0  0  0
  134.7340   71.9820  224.8700 C   0  0  0  0  0  0  0  0  0  0  0  0
  134.2970   73.2500  225.2860 C   0  0  0  0  0  0  0  0  0  0  0  0
  134.4881   74.1287  224.6525 H   0  0  0  0  0  0  0  0  0  0  0  0
  133.6390   73.3990  226.4670 N   0  0  0  0  0  0  0  0  0  0  0  0
  133.3730   72.3400  227.2750 C   0  0  0  0  0  0  0  0  0  0  0  0
  132.8413   72.4942  228.2256 H   0  0  0  0  0  0  0  0  0  0  0  0
  133.7730   71.0580  226.9010 C   0  0  0  0  0  0  0  0  0  0  0  0
  133.5559   70.1971  227.5504 H   0  0  0  0  0  0  0  0  0  0  0  0
  134.4520   70.8770  225.6940 C   0  0  0  0  0  0  0  0  0  0  0  0
  134.7669   69.8687  225.3871 H   0  0  0  0  0  0  0  0  0  0  0  0
  1  2  1  0
  2  3  2  0
  3  4  1  0
  3  5  1  0
  5  6  2  0
  6  7  1  0
  7  8  2  0
  8  9  1  0
  8 10  1  0
 10 11  1  0
 10 12  2  0
 12 13  1  0
 12 14  1  0
 14 15  1  0
 14 16  2  0
 16 17  1  0
 17 18  2  0
 17 19  1  0
 19 20  1  0
 20 21  1  0
 20 22  1  0
 20 23  1  0
 23 24  2  0
 24 25  1  0
 24 26  1  0
 26 27  1  0
 26 28  2  0
 28 29  1  0
 28 30  1  0
 30 31  1  0
 30 32  2  0
 32 33  1  0
  2 34  1  0
 34 35  2  0
 35 36  1  0
 35 37  1  0
 37 38  2  0
 38 39  1  0
 38 40  1  0
 40 41  1  0
 40 42  2  0
 42 43  1  0
 19  5  1  0
 32 23  1  0
 42 34  1  0
 16  7  1  0
M  CHG  1  33  -1
M  END
>  <UniqueID>  (24) 
504

>  <SMILES>  (24) 
O=c1c2ccccc2nc(/C=C/c2cccnc2)n1Cc1ccccc1[O-]

>  <Energy>  (24) 
69.78370482222795

>  <Genealogy>  (24) 
O=c1c2ccccc2nc(/C=C/c2cccnc2)n1Cc1ccccc1[O-] (protonated)
O=c1c2ccccc2nc(/C=C/c2cccnc2)n1Cc1ccccc1[O-] (cis-trans isomerization)
O=c1c2ccccc2nc(/C=C/c2cccnc2)n1Cc1ccccc1[O-] (3D coordinates assigned)
O=c1c2ccccc2nc(/C=C/c2cccnc2)n1Cc1ccccc1[O-] (optimized conformer: 69.78370482222795 kcal/mol)

>  <smiles>  (24) 
O=c1c2ccccc2nc(/C=C/c2cccnc2)n1Cc1ccccc1O

>  <score_type>  (24) 
oracle

>  <origin>  (24) 
autodockgpu

>  <m_score__min__energy>  (24) 
-7.2699999999999996

>  <m_primary>  (24) 
energy

>  <meeko>  (24) 
{"free_energy": -7.09, "intermolecular_energy": -8.58, "internal_energy": -0.98, "cluster_size": 5, "cluster_id": 2, "rank_in_cluster": 3}

>  <energy>  (24) 
-7.1

>  <cluster_rmsd>  (24) 
0.27

>  <rmsd>  (24) 
270.65

>  <cluster>  (24) 
1

$$$$
FMMHNRBASQNFIB-CUFMLMHXNA-M
     RDKit          3D

 43 46  0  0  0  0  0  0  0  0999 V2000
  135.5497   69.4854  222.3297 H   0  0  0  0  0  0  0  0  0  0  0  0
  136.0160   69.3450  223.3160 C   0  0  0  0  0  0  0  0  0  0  0  0
  137.2400   68.8040  223.3600 C   0  0  0  0  0  0  0  0  0  0  0  0
  137.4917   68.0020  222.6505 H   0  0  0  0  0  0  0  0  0  0  0  0
  138.2650   69.2470  224.3290 C   0  0  0  0  0  0  0  0  0  0  0  0
  138.5020   68.4170  225.3770 N   0  0  0  0  0  0  0  0  0  0  0  0
  139.4010   68.7200  226.3420 C   0  0  0  0  0  0  0  0  0  0  0  0
  139.6230   67.8250  227.3960 C   0  0  0  0  0  0  0  0  0  0  0  0
  139.0669   66.8769  227.4390 H   0  0  0  0  0  0  0  0  0  0  0  0
  140.5520   68.1370  228.3940 C   0  0  0  0  0  0  0  0  0  0  0  0
  140.7274   67.4333  229.2211 H   0  0  0  0  0  0  0  0  0  0  0  0
  141.2580   69.3430  228.3410 C   0  0  0  0  0  0  0  0  0  0  0  0
  141.9885   69.5859  229.1268 H   0  0  0  0  0  0  0  0  0  0  0  0
  141.0380   70.2410  227.2920 C   0  0  0  0  0  0  0  0  0  0  0  0
  141.5940   71.1894  227.2552 H   0  0  0  0  0  0  0  0  0  0  0  0
  140.1060   69.9330  226.2830 C   0  0  0  0  0  0  0  0  0  0  0  0
  139.8400   70.8030  225.2130 C   0  0  0  0  0  0  0  0  0  0  0  0
  140.4410   71.9140  225.1530 O   0  0  0  0  0  0  0  0  0  0  0  0
  138.9290   70.4570  224.2390 N   0  0  0  0  0  0  0  0  0  0  0  0
  138.6300   71.4380  223.1710 C   0  0  0  0  0  0  0  0  0  0  0  0
  137.6347   71.2131  222.7603 H   0  0  0  0  0  0  0  0  0  0  0  0
  138.6765   72.4378  223.6274 H   0  0  0  0  0  0  0  0  0  0  0  0
  139.6370   71.4190  222.0310 C   0  0  0  0  0  0  0  0  0  0  0  0
  139.8250   70.2030  221.3480 C   0  0  0  0  0  0  0  0  0  0  0  0
  139.2276   69.3235  221.6302 H   0  0  0  0  0  0  0  0  0  0  0  0
  140.7610   70.0990  220.3160 C   0  0  0  0  0  0  0  0  0  0  0  0
  140.8891   69.1445  219.7845 H   0  0  0  0  0  0  0  0  0  0  0  0
  141.5330   71.2040  219.9590 C   0  0  0  0  0  0  0  0  0  0  0  0
  142.2672   71.1220  219.1440 H   0  0  0  0  0  0  0  0  0  0  0  0
  141.3740   72.4140  220.6360 C   0  0  0  0  0  0  0  0  0  0  0  0
  141.9876   73.2824  220.3542 H   0  0  0  0  0  0  0  0  0  0  0  0
  140.4400   72.5300  221.6700 C   0  0  0  0  0  0  0  0  0  0  0  0
  140.3230   73.7550  222.3180 O   0  0  0  0  0  0  0  0  0  0  0  0
  135.2490   69.7670  224.5140 C   0  0  0  0  0  0  0  0  0  0  0  0
  134.7130   68.7780  225.3550 C   0  0  0  0  0  0  0  0  0  0  0  0
  134.8633   67.7153  225.1139 H   0  0  0  0  0  0  0  0  0  0  0  0
  134.0090   69.1260  226.4660 N   0  0  0  0  0  0  0  0  0  0  0  0
  133.8070   70.4240  226.8070 C   0  0  0  0  0  0  0  0  0  0  0  0
  133.2303   70.6716  227.7104 H   0  0  0  0  0  0  0  0  0  0  0  0
  134.3300   71.4440  226.0130 C   0  0  0  0  0  0  0  0  0  0  0  0
  134.1722   72.4974  226.2876 H   0  0  0  0  0  0  0  0  0  0  0  0
  135.0560   71.1160  224.8660 C   0  0  0  0  0  0  0  0  0  0  0  0
  135.4778   71.9134  224.2365 H   0  0  0  0  0  0  0  0  0  0  0  0
  1  2  1  0
  2  3  2  0
  3  4  1  0
  3  5  1  0
  5  6  2  0
  6  7  1  0
  7  8  2  0
  8  9  1  0
  8 10  1  0
 10 11  1  0
 10 12  2  0
 12 13  1  0
 12 14  1  0
 14 15  1  0
 14 16  2  0
 16 17  1  0
 17 18  2  0
 17 19  1  0
 19 20  1  0
 20 21  1  0
 20 22  1  0
 20 23  1  0
 23 24  2  0
 24 25  1  0
 24 26  1  0
 26 27  1  0
 26 28  2  0
 28 29  1  0
 28 30  1  0
 30 31  1  0
 30 32  2  0
 32 33  1  0
  2 34  1  0
 34 35  2  0
 35 36  1  0
 35 37  1  0
 37 38  2  0
 38 39  1  0
 38 40  1  0
 40 41  1  0
 40 42  2  0
 42 43  1  0
 19  5  1  0
 32 23  1  0
 42 34  1  0
 16  7  1  0
M  CHG  1  33  -1
M  END
>  <UniqueID>  (25) 
504

>  <SMILES>  (25) 
O=c1c2ccccc2nc(/C=C/c2cccnc2)n1Cc1ccccc1[O-]

>  <Energy>  (25) 
69.78370482222795

>  <Genealogy>  (25) 
O=c1c2ccccc2nc(/C=C/c2cccnc2)n1Cc1ccccc1[O-] (protonated)
O=c1c2ccccc2nc(/C=C/c2cccnc2)n1Cc1ccccc1[O-] (cis-trans isomerization)
O=c1c2ccccc2nc(/C=C/c2cccnc2)n1Cc1ccccc1[O-] (3D coordinates assigned)
O=c1c2ccccc2nc(/C=C/c2cccnc2)n1Cc1ccccc1[O-] (optimized conformer: 69.78370482222795 kcal/mol)

>  <smiles>  (25) 
O=c1c2ccccc2nc(/C=C/c2cccnc2)n1Cc1ccccc1O

>  <score_type>  (25) 
oracle

>  <origin>  (25) 
autodockgpu

>  <m_score__min__energy>  (25) 
-7.2699999999999996

>  <m_primary>  (25) 
energy

>  <meeko>  (25) 
{"free_energy": -7.26, "intermolecular_energy": -8.75, "internal_energy": -1.19, "cluster_size": 9, "cluster_id": 1, "rank_in_cluster": 2}

>  <energy>  (25) 
-7.1

>  <cluster_rmsd>  (25) 
0.23

>  <rmsd>  (25) 
270.65

>  <cluster>  (25) 
1

$$$$
FMMHNRBASQNFIB-CUFMLMHXNA-M
     RDKit          3D

 43 46  0  0  0  0  0  0  0  0999 V2000
  137.6477   71.3975  221.2098 H   0  0  0  0  0  0  0  0  0  0  0  0
  138.6150   71.6400  221.6740 C   0  0  0  0  0  0  0  0  0  0  0  0
  139.3980   70.6240  222.0600 C   0  0  0  0  0  0  0  0  0  0  0  0
  139.9610   70.0678  221.2960 H   0  0  0  0  0  0  0  0  0  0  0  0
  139.5320   70.2240  223.4770 C   0  0  0  0  0  0  0  0  0  0  0  0
  140.1070   71.1300  224.3080 N   0  0  0  0  0  0  0  0  0  0  0  0
  140.3040   70.8750  225.6220 C   0  0  0  0  0  0  0  0  0  0  0  0
  140.8870   71.8480  226.4440 C   0  0  0  0  0  0  0  0  0  0  0  0
  141.1841   72.8192  226.0215 H   0  0  0  0  0  0  0  0  0  0  0  0
  141.0910   71.5840  227.8020 C   0  0  0  0  0  0  0  0  0  0  0  0
  141.5486   72.3481  228.4476 H   0  0  0  0  0  0  0  0  0  0  0  0
  140.7140   70.3500  228.3400 C   0  0  0  0  0  0  0  0  0  0  0  0
  140.8741   70.1456  229.4089 H   0  0  0  0  0  0  0  0  0  0  0  0
  140.1340   69.3750  227.5230 C   0  0  0  0  0  0  0  0  0  0  0  0
  139.8412   68.4044  227.9498 H   0  0  0  0  0  0  0  0  0  0  0  0
  139.9240   69.6330  226.1550 C   0  0  0  0  0  0  0  0  0  0  0  0
  139.3540   68.6850  225.2890 C   0  0  0  0  0  0  0  0  0  0  0  0
  139.0300   67.5490  225.7400 O   0  0  0  0  0  0  0  0  0  0  0  0
  139.1540   68.9840  223.9600 N   0  0  0  0  0  0  0  0  0  0  0  0
  138.6170   67.9270  223.0720 C   0  0  0  0  0  0  0  0  0  0  0  0
  139.3578   67.7241  222.2846 H   0  0  0  0  0  0  0  0  0  0  0  0
  138.4232   67.0446  223.6996 H   0  0  0  0  0  0  0  0  0  0  0  0
  137.3000   68.3030  222.4090 C   0  0  0  0  0  0  0  0  0  0  0  0
  137.2320   68.2280  221.0050 C   0  0  0  0  0  0  0  0  0  0  0  0
  138.1056   67.8760  220.4367 H   0  0  0  0  0  0  0  0  0  0  0  0
  136.0690   68.5950  220.3250 C   0  0  0  0  0  0  0  0  0  0  0  0
  136.0273   68.5213  219.2283 H   0  0  0  0  0  0  0  0  0  0  0  0
  134.9600   69.0550  221.0350 C   0  0  0  0  0  0  0  0  0  0  0  0
  134.0433   69.3406  220.4983 H   0  0  0  0  0  0  0  0  0  0  0  0
  135.0130   69.1530  222.4250 C   0  0  0  0  0  0  0  0  0  0  0  0
  134.1374   69.5195  222.9809 H   0  0  0  0  0  0  0  0  0  0  0  0
  136.1730   68.7880  223.1170 C   0  0  0  0  0  0  0  0  0  0  0  0
  136.1790   68.9080  224.5030 O   0  0  0  0  0  0  0  0  0  0  0  0
  138.9700   73.0720  221.8330 C   0  0  0  0  0  0  0  0  0  0  0  0
  140.3270   73.4320  221.8580 C   0  0  0  0  0  0  0  0  0  0  0  0
  141.1001   72.6549  221.7662 H   0  0  0  0  0  0  0  0  0  0  0  0
  140.6920   74.7350  221.9950 N   0  0  0  0  0  0  0  0  0  0  0  0
  139.7720   75.7270  222.1040 C   0  0  0  0  0  0  0  0  0  0  0  0
  140.1004   76.7706  222.2185 H   0  0  0  0  0  0  0  0  0  0  0  0
  138.4120   75.4250  222.0710 C   0  0  0  0  0  0  0  0  0  0  0  0
  137.6633   76.2267  222.1536 H   0  0  0  0  0  0  0  0  0  0  0  0
  138.0080   74.0950  221.9320 C   0  0  0  0  0  0  0  0  0  0  0  0
  136.9369   73.8468  221.8999 H   0  0  0  0  0  0  0  0  0  0  0  0
  1  2  1  0
  2  3  2  0
  3  4  1  0
  3  5  1  0
  5  6  2  0
  6  7  1  0
  7  8  2  0
  8  9  1  0
  8 10  1  0
 10 11  1  0
 10 12  2  0
 12 13  1  0
 12 14  1  0
 14 15  1  0
 14 16  2  0
 16 17  1  0
 17 18  2  0
 17 19  1  0
 19 20  1  0
 20 21  1  0
 20 22  1  0
 20 23  1  0
 23 24  2  0
 24 25  1  0
 24 26  1  0
 26 27  1  0
 26 28  2  0
 28 29  1  0
 28 30  1  0
 30 31  1  0
 30 32  2  0
 32 33  1  0
  2 34  1  0
 34 35  2  0
 35 36  1  0
 35 37  1  0
 37 38  2  0
 38 39  1  0
 38 40  1  0
 40 41  1  0
 40 42  2  0
 42 43  1  0
 19  5  1  0
 32 23  1  0
 42 34  1  0
 16  7  1  0
M  CHG  1  33  -1
M  END
>  <UniqueID>  (26) 
504

>  <SMILES>  (26) 
O=c1c2ccccc2nc(/C=C/c2cccnc2)n1Cc1ccccc1[O-]

>  <Energy>  (26) 
69.78370482222795

>  <Genealogy>  (26) 
O=c1c2ccccc2nc(/C=C/c2cccnc2)n1Cc1ccccc1[O-] (protonated)
O=c1c2ccccc2nc(/C=C/c2cccnc2)n1Cc1ccccc1[O-] (cis-trans isomerization)
O=c1c2ccccc2nc(/C=C/c2cccnc2)n1Cc1ccccc1[O-] (3D coordinates assigned)
O=c1c2ccccc2nc(/C=C/c2cccnc2)n1Cc1ccccc1[O-] (optimized conformer: 69.78370482222795 kcal/mol)

>  <smiles>  (26) 
O=c1c2ccccc2nc(/C=C/c2cccnc2)n1Cc1ccccc1O

>  <score_type>  (26) 
oracle

>  <origin>  (26) 
autodockgpu

>  <m_score__min__energy>  (26) 
-7.2699999999999996

>  <m_primary>  (26) 
energy

>  <meeko>  (26) 
{"free_energy": -6.85, "intermolecular_energy": -8.35, "internal_energy": -1.19, "cluster_size": 3, "cluster_id": 3, "rank_in_cluster": 2}

>  <energy>  (26) 
-7.07

>  <cluster_rmsd>  (26) 
0.26

>  <rmsd>  (26) 
270.66

>  <cluster>  (26) 
1

$$$$
FMMHNRBASQNFIB-CUFMLMHXNA-M
     RDKit          3D

 43 46  0  0  0  0  0  0  0  0999 V2000
  141.9252   80.2892  219.0815 H   0  0  0  0  0  0  0  0  0  0  0  0
  141.5110   79.7450  219.9430 C   0  0  0  0  0  0  0  0  0  0  0  0
  140.7360   78.6800  219.6990 C   0  0  0  0  0  0  0  0  0  0  0  0
  139.7968   78.8227  219.1445 H   0  0  0  0  0  0  0  0  0  0  0  0
  141.0990   77.3200  220.1490 C   0  0  0  0  0  0  0  0  0  0  0  0
  142.3210   76.8660  219.7700 N   0  0  0  0  0  0  0  0  0  0  0  0
  142.7610   75.6300  220.1020 C   0  0  0  0  0  0  0  0  0  0  0  0
  144.0360   75.2110  219.7010 C   0  0  0  0  0  0  0  0  0  0  0  0
  144.6788   75.8859  219.1168 H   0  0  0  0  0  0  0  0  0  0  0  0
  144.4910   73.9340  220.0440 C   0  0  0  0  0  0  0  0  0  0  0  0
  145.4931   73.6056  219.7312 H   0  0  0  0  0  0  0  0  0  0  0  0
  143.6740   73.0740  220.7840 C   0  0  0  0  0  0  0  0  0  0  0  0
  144.0352   72.0703  221.0523 H   0  0  0  0  0  0  0  0  0  0  0  0
  142.3990   73.4860  221.1840 C   0  0  0  0  0  0  0  0  0  0  0  0
  141.7586   72.8054  221.7642 H   0  0  0  0  0  0  0  0  0  0  0  0
  141.9340   74.7710  220.8450 C   0  0  0  0  0  0  0  0  0  0  0  0
  140.6590   75.2320  221.2130 C   0  0  0  0  0  0  0  0  0  0  0  0
  139.8860   74.4670  221.8570 O   0  0  0  0  0  0  0  0  0  0  0  0
  140.2490   76.5020  220.8710 N   0  0  0  0  0  0  0  0  0  0  0  0
  138.8700   76.9150  221.2200 C   0  0  0  0  0  0  0  0  0  0  0  0
  138.3119   77.0879  220.2880 H   0  0  0  0  0  0  0  0  0  0  0  0
  138.4331   76.1061  221.8240 H   0  0  0  0  0  0  0  0  0  0  0  0
  138.8100   78.1820  222.0590 C   0  0  0  0  0  0  0  0  0  0  0  0
  139.7170   78.2980  223.1300 C   0  0  0  0  0  0  0  0  0  0  0  0
  140.4524   77.4996  223.3082 H   0  0  0  0  0  0  0  0  0  0  0  0
  139.6940   79.4150  223.9690 C   0  0  0  0  0  0  0  0  0  0  0  0
  140.4145   79.4954  224.7963 H   0  0  0  0  0  0  0  0  0  0  0  0
  138.7590   80.4280  223.7590 C   0  0  0  0  0  0  0  0  0  0  0  0
  138.7454   81.3094  224.4170 H   0  0  0  0  0  0  0  0  0  0  0  0
  137.8410   80.3230  222.7140 C   0  0  0  0  0  0  0  0  0  0  0  0
  137.1015   81.1216  222.5545 H   0  0  0  0  0  0  0  0  0  0  0  0
  137.8540   79.2090  221.8670 C   0  0  0  0  0  0  0  0  0  0  0  0
  136.9150   79.1490  220.8430 O   0  0  0  0  0  0  0  0  0  0  0  0
  141.8460   80.2370  221.3030 C   0  0  0  0  0  0  0  0  0  0  0  0
  141.3930   81.5080  221.6920 C   0  0  0  0  0  0  0  0  0  0  0  0
  140.8069   82.1178  220.9888 H   0  0  0  0  0  0  0  0  0  0  0  0
  141.6740   81.9900  222.9320 N   0  0  0  0  0  0  0  0  0  0  0  0
  142.3860   81.2680  223.8350 C   0  0  0  0  0  0  0  0  0  0  0  0
  142.5992   81.6883  224.8289 H   0  0  0  0  0  0  0  0  0  0  0  0
  142.8470   79.9950  223.5040 C   0  0  0  0  0  0  0  0  0  0  0  0
  143.4213   79.4054  224.2338 H   0  0  0  0  0  0  0  0  0  0  0  0
  142.5730   79.4750  222.2370 C   0  0  0  0  0  0  0  0  0  0  0  0
  142.9259   78.4683  221.9686 H   0  0  0  0  0  0  0  0  0  0  0  0
  1  2  1  0
  2  3  2  0
  3  4  1  0
  3  5  1  0
  5  6  2  0
  6  7  1  0
  7  8  2  0
  8  9  1  0
  8 10  1  0
 10 11  1  0
 10 12  2  0
 12 13  1  0
 12 14  1  0
 14 15  1  0
 14 16  2  0
 16 17  1  0
 17 18  2  0
 17 19  1  0
 19 20  1  0
 20 21  1  0
 20 22  1  0
 20 23  1  0
 23 24  2  0
 24 25  1  0
 24 26  1  0
 26 27  1  0
 26 28  2  0
 28 29  1  0
 28 30  1  0
 30 31  1  0
 30 32  2  0
 32 33  1  0
  2 34  1  0
 34 35  2  0
 35 36  1  0
 35 37  1  0
 37 38  2  0
 38 39  1  0
 38 40  1  0
 40 41  1  0
 40 42  2  0
 42 43  1  0
 19  5  1  0
 32 23  1  0
 42 34  1  0
 16  7  1  0
M  CHG  1  33  -1
M  END
>  <UniqueID>  (27) 
504

>  <SMILES>  (27) 
O=c1c2ccccc2nc(/C=C/c2cccnc2)n1Cc1ccccc1[O-]

>  <Energy>  (27) 
69.78370482222795

>  <Genealogy>  (27) 
O=c1c2ccccc2nc(/C=C/c2cccnc2)n1Cc1ccccc1[O-] (protonated)
O=c1c2ccccc2nc(/C=C/c2cccnc2)n1Cc1ccccc1[O-] (cis-trans isomerization)
O=c1c2ccccc2nc(/C=C/c2cccnc2)n1Cc1ccccc1[O-] (3D coordinates assigned)
O=c1c2ccccc2nc(/C=C/c2cccnc2)n1Cc1ccccc1[O-] (optimized conformer: 69.78370482222795 kcal/mol)

>  <smiles>  (27) 
O=c1c2ccccc2nc(/C=C/c2cccnc2)n1Cc1ccccc1O

>  <score_type>  (27) 
oracle

>  <origin>  (27) 
autodockgpu

>  <m_score__min__energy>  (27) 
-7.2699999999999996

>  <m_primary>  (27) 
energy

>  <meeko>  (27) 
{"free_energy": -6.29, "intermolecular_energy": -7.78, "internal_energy": -1.77, "cluster_size": 3, "cluster_id": 4, "rank_in_cluster": 1}

>  <energy>  (27) 
-6.84

>  <cluster_rmsd>  (27) 
1.63

>  <rmsd>  (27) 
270.65

>  <cluster>  (27) 
1

$$$$
FMMHNRBASQNFIB-CUFMLMHXNA-M
     RDKit          3D

 43 46  0  0  0  0  0  0  0  0999 V2000
  138.0346   71.8012  221.3715 H   0  0  0  0  0  0  0  0  0  0  0  0
  139.1000   71.7110  221.6300 C   0  0  0  0  0  0  0  0  0  0  0  0
  139.5500   70.5140  222.0310 C   0  0  0  0  0  0  0  0  0  0  0  0
  139.8394   69.7737  221.2706 H   0  0  0  0  0  0  0  0  0  0  0  0
  139.6710   70.1540  223.4590 C   0  0  0  0  0  0  0  0  0  0  0  0
  140.2100   71.0960  224.2750 N   0  0  0  0  0  0  0  0  0  0  0  0
  140.3930   70.8810  225.5980 C   0  0  0  0  0  0  0  0  0  0  0  0
  140.9390   71.8890  226.4020 C   0  0  0  0  0  0  0  0  0  0  0  0
  141.2191   72.8557  225.9581 H   0  0  0  0  0  0  0  0  0  0  0  0
  141.1280   71.6660  227.7700 C   0  0  0  0  0  0  0  0  0  0  0  0
  141.5556   72.4584  228.4019 H   0  0  0  0  0  0  0  0  0  0  0  0
  140.7740   70.4370  228.3350 C   0  0  0  0  0  0  0  0  0  0  0  0
  140.9231   70.2649  229.4112 H   0  0  0  0  0  0  0  0  0  0  0  0
  140.2310   69.4260  227.5360 C   0  0  0  0  0  0  0  0  0  0  0  0
  139.9558   68.4599  227.9842 H   0  0  0  0  0  0  0  0  0  0  0  0
  140.0360   69.6430  226.1580 C   0  0  0  0  0  0  0  0  0  0  0  0
  139.5040   68.6590  225.3090 C   0  0  0  0  0  0  0  0  0  0  0  0
  139.2010   67.5280  225.7850 O   0  0  0  0  0  0  0  0  0  0  0  0
  139.3170   68.9180  223.9690 N   0  0  0  0  0  0  0  0  0  0  0  0
  138.8200   67.8250  223.1020 C   0  0  0  0  0  0  0  0  0  0  0  0
  139.4164   67.8151  222.1777 H   0  0  0  0  0  0  0  0  0  0  0  0
  138.9187   66.8894  223.6720 H   0  0  0  0  0  0  0  0  0  0  0  0
  137.3530   67.9680  222.7270 C   0  0  0  0  0  0  0  0  0  0  0  0
  136.5850   68.9080  223.4410 C   0  0  0  0  0  0  0  0  0  0  0  0
  137.0645   69.5256  224.2148 H   0  0  0  0  0  0  0  0  0  0  0  0
  135.2220   69.0660  223.1790 C   0  0  0  0  0  0  0  0  0  0  0  0
  134.6375   69.8112  223.7385 H   0  0  0  0  0  0  0  0  0  0  0  0
  134.6020   68.2800  222.2090 C   0  0  0  0  0  0  0  0  0  0  0  0
  133.5297   68.4087  222.0000 H   0  0  0  0  0  0  0  0  0  0  0  0
  135.3410   67.3300  221.5030 C   0  0  0  0  0  0  0  0  0  0  0  0
  134.8464   66.7082  220.7422 H   0  0  0  0  0  0  0  0  0  0  0  0
  136.7060   67.1630  221.7560 C   0  0  0  0  0  0  0  0  0  0  0  0
  137.3980   66.2000  221.0300 O   0  0  0  0  0  0  0  0  0  0  0  0
  139.9490   72.9220  221.5130 C   0  0  0  0  0  0  0  0  0  0  0  0
  139.4740   74.1340  222.0410 C   0  0  0  0  0  0  0  0  0  0  0  0
  138.4864   74.1695  222.5242 H   0  0  0  0  0  0  0  0  0  0  0  0
  140.2260   75.2630  221.9590 N   0  0  0  0  0  0  0  0  0  0  0  0
  141.4540   75.2640  221.3800 C   0  0  0  0  0  0  0  0  0  0  0  0
  142.0358   76.1960  221.3268 H   0  0  0  0  0  0  0  0  0  0  0  0
  141.9780   74.0850  220.8530 C   0  0  0  0  0  0  0  0  0  0  0  0
  142.9740   74.0804  220.3861 H   0  0  0  0  0  0  0  0  0  0  0  0
  141.2270   72.9090  220.9230 C   0  0  0  0  0  0  0  0  0  0  0  0
  141.6349   71.9717  220.5166 H   0  0  0  0  0  0  0  0  0  0  0  0
  1  2  1  0
  2  3  2  0
  3  4  1  0
  3  5  1  0
  5  6  2  0
  6  7  1  0
  7  8  2  0
  8  9  1  0
  8 10  1  0
 10 11  1  0
 10 12  2  0
 12 13  1  0
 12 14  1  0
 14 15  1  0
 14 16  2  0
 16 17  1  0
 17 18  2  0
 17 19  1  0
 19 20  1  0
 20 21  1  0
 20 22  1  0
 20 23  1  0
 23 24  2  0
 24 25  1  0
 24 26  1  0
 26 27  1  0
 26 28  2  0
 28 29  1  0
 28 30  1  0
 30 31  1  0
 30 32  2  0
 32 33  1  0
  2 34  1  0
 34 35  2  0
 35 36  1  0
 35 37  1  0
 37 38  2  0
 38 39  1  0
 38 40  1  0
 40 41  1  0
 40 42  2  0
 42 43  1  0
 19  5  1  0
 32 23  1  0
 42 34  1  0
 16  7  1  0
M  CHG  1  33  -1
M  END
>  <UniqueID>  (28) 
504

>  <SMILES>  (28) 
O=c1c2ccccc2nc(/C=C/c2cccnc2)n1Cc1ccccc1[O-]

>  <Energy>  (28) 
69.78370482222795

>  <Genealogy>  (28) 
O=c1c2ccccc2nc(/C=C/c2cccnc2)n1Cc1ccccc1[O-] (protonated)
O=c1c2ccccc2nc(/C=C/c2cccnc2)n1Cc1ccccc1[O-] (cis-trans isomerization)
O=c1c2ccccc2nc(/C=C/c2cccnc2)n1Cc1ccccc1[O-] (3D coordinates assigned)
O=c1c2ccccc2nc(/C=C/c2cccnc2)n1Cc1ccccc1[O-] (optimized conformer: 69.78370482222795 kcal/mol)

>  <smiles>  (28) 
O=c1c2ccccc2nc(/C=C/c2cccnc2)n1Cc1ccccc1O

>  <score_type>  (28) 
oracle

>  <origin>  (28) 
autodockgpu

>  <m_score__min__energy>  (28) 
-7.2699999999999996

>  <m_primary>  (28) 
energy

>  <meeko>  (28) 
{"free_energy": -6.78, "intermolecular_energy": -8.28, "internal_energy": -1.12, "cluster_size": 3, "cluster_id": 3, "rank_in_cluster": 3}

>  <energy>  (28) 
-6.83

>  <cluster_rmsd>  (28) 
1.63

>  <rmsd>  (28) 
270.63

>  <cluster>  (28) 
1

$$$$
FMMHNRBASQNFIB-CUFMLMHXNA-M
     RDKit          3D

 43 46  0  0  0  0  0  0  0  0999 V2000
  135.3429   69.3790  222.2775 H   0  0  0  0  0  0  0  0  0  0  0  0
  135.9000   69.3730  223.2260 C   0  0  0  0  0  0  0  0  0  0  0  0
  137.1770   68.9700  223.2020 C   0  0  0  0  0  0  0  0  0  0  0  0
  137.4578   68.1354  222.5427 H   0  0  0  0  0  0  0  0  0  0  0  0
  138.2220   69.6070  224.0300 C   0  0  0  0  0  0  0  0  0  0  0  0
  138.3200   69.1760  225.3140 N   0  0  0  0  0  0  0  0  0  0  0  0
  139.2220   69.6950  226.1780 C   0  0  0  0  0  0  0  0  0  0  0  0
  139.2970   69.2070  227.4890 C   0  0  0  0  0  0  0  0  0  0  0  0
  138.6223   68.4019  227.8156 H   0  0  0  0  0  0  0  0  0  0  0  0
  140.2290   69.7430  228.3820 C   0  0  0  0  0  0  0  0  0  0  0  0
  140.2885   69.3582  229.4108 H   0  0  0  0  0  0  0  0  0  0  0  0
  141.0860   70.7680  227.9690 C   0  0  0  0  0  0  0  0  0  0  0  0
  141.8185   71.1882  228.6739 H   0  0  0  0  0  0  0  0  0  0  0  0
  141.0140   71.2600  226.6620 C   0  0  0  0  0  0  0  0  0  0  0  0
  141.6895   72.0668  226.3413 H   0  0  0  0  0  0  0  0  0  0  0  0
  140.0790   70.7250  225.7560 C   0  0  0  0  0  0  0  0  0  0  0  0
  139.9580   71.1890  224.4360 C   0  0  0  0  0  0  0  0  0  0  0  0
  140.6990   72.1350  224.0420 O   0  0  0  0  0  0  0  0  0  0  0  0
  139.0390   70.6280  223.5780 N   0  0  0  0  0  0  0  0  0  0  0  0
  138.9000   71.2000  222.2190 C   0  0  0  0  0  0  0  0  0  0  0  0
  139.9014   71.2818  221.7712 H   0  0  0  0  0  0  0  0  0  0  0  0
  138.2430   70.5264  221.6493 H   0  0  0  0  0  0  0  0  0  0  0  0
  138.2520   72.5760  222.2050 C   0  0  0  0  0  0  0  0  0  0  0  0
  136.8470   72.6360  222.2710 C   0  0  0  0  0  0  0  0  0  0  0  0
  136.2676   71.7054  222.3623 H   0  0  0  0  0  0  0  0  0  0  0  0
  136.1790   73.8620  222.2220 C   0  0  0  0  0  0  0  0  0  0  0  0
  135.0812   73.8930  222.2844 H   0  0  0  0  0  0  0  0  0  0  0  0
  136.9040   75.0470  222.0940 C   0  0  0  0  0  0  0  0  0  0  0  0
  136.3780   76.0125  222.0609 H   0  0  0  0  0  0  0  0  0  0  0  0
  138.2960   75.0080  222.0080 C   0  0  0  0  0  0  0  0  0  0  0  0
  138.8633   75.9444  221.9017 H   0  0  0  0  0  0  0  0  0  0  0  0
  138.9750   73.7860  222.0560 C   0  0  0  0  0  0  0  0  0  0  0  0
  140.3620   73.7990  221.9620 O   0  0  0  0  0  0  0  0  0  0  0  0
  135.1900   69.8120  224.4530 C   0  0  0  0  0  0  0  0  0  0  0  0
  134.6860   68.8360  225.3290 C   0  0  0  0  0  0  0  0  0  0  0  0
  134.8183   67.7698  225.0931 H   0  0  0  0  0  0  0  0  0  0  0  0
  134.0360   69.2000  226.4660 N   0  0  0  0  0  0  0  0  0  0  0  0
  133.8560   70.5040  226.8010 C   0  0  0  0  0  0  0  0  0  0  0  0
  133.3210   70.7653  227.7259 H   0  0  0  0  0  0  0  0  0  0  0  0
  134.3490   71.5110  225.9730 C   0  0  0  0  0  0  0  0  0  0  0  0
  134.2107   72.5684  226.2428 H   0  0  0  0  0  0  0  0  0  0  0  0
  135.0200   71.1660  224.7980 C   0  0  0  0  0  0  0  0  0  0  0  0
  135.4165   71.9539  224.1407 H   0  0  0  0  0  0  0  0  0  0  0  0
  1  2  1  0
  2  3  2  0
  3  4  1  0
  3  5  1  0
  5  6  2  0
  6  7  1  0
  7  8  2  0
  8  9  1  0
  8 10  1  0
 10 11  1  0
 10 12  2  0
 12 13  1  0
 12 14  1  0
 14 15  1  0
 14 16  2  0
 16 17  1  0
 17 18  2  0
 17 19  1  0
 19 20  1  0
 20 21  1  0
 20 22  1  0
 20 23  1  0
 23 24  2  0
 24 25  1  0
 24 26  1  0
 26 27  1  0
 26 28  2  0
 28 29  1  0
 28 30  1  0
 30 31  1  0
 30 32  2  0
 32 33  1  0
  2 34  1  0
 34 35  2  0
 35 36  1  0
 35 37  1  0
 37 38  2  0
 38 39  1  0
 38 40  1  0
 40 41  1  0
 40 42  2  0
 42 43  1  0
 19  5  1  0
 32 23  1  0
 42 34  1  0
 16  7  1  0
M  CHG  1  33  -1
M  END
>  <UniqueID>  (29) 
504

>  <SMILES>  (29) 
O=c1c2ccccc2nc(/C=C/c2cccnc2)n1Cc1ccccc1[O-]

>  <Energy>  (29) 
69.78370482222795

>  <Genealogy>  (29) 
O=c1c2ccccc2nc(/C=C/c2cccnc2)n1Cc1ccccc1[O-] (protonated)
O=c1c2ccccc2nc(/C=C/c2cccnc2)n1Cc1ccccc1[O-] (cis-trans isomerization)
O=c1c2ccccc2nc(/C=C/c2cccnc2)n1Cc1ccccc1[O-] (3D coordinates assigned)
O=c1c2ccccc2nc(/C=C/c2cccnc2)n1Cc1ccccc1[O-] (optimized conformer: 69.78370482222795 kcal/mol)

>  <smiles>  (29) 
O=c1c2ccccc2nc(/C=C/c2cccnc2)n1Cc1ccccc1O

>  <score_type>  (29) 
oracle

>  <origin>  (29) 
autodockgpu

>  <m_score__min__energy>  (29) 
-7.2699999999999996

>  <m_primary>  (29) 
energy

>  <meeko>  (29) 
{"free_energy": -6.83, "intermolecular_energy": -8.33, "internal_energy": -1.36, "cluster_size": 9, "cluster_id": 1, "rank_in_cluster": 8}

>  <energy>  (29) 
-6.7

>  <cluster_rmsd>  (29) 
1.68

>  <rmsd>  (29) 
270.63

>  <cluster>  (29) 
1

$$$$
FMMHNRBASQNFIB-CUFMLMHXNA-M
     RDKit          3D

 43 46  0  0  0  0  0  0  0  0999 V2000
  135.3727   68.7887  222.3031 H   0  0  0  0  0  0  0  0  0  0  0  0
  135.9460   68.8940  223.2360 C   0  0  0  0  0  0  0  0  0  0  0  0
  137.2330   68.5230  223.2270 C   0  0  0  0  0  0  0  0  0  0  0  0
  137.5618   67.7639  222.5020 H   0  0  0  0  0  0  0  0  0  0  0  0
  138.2260   69.0980  224.1570 C   0  0  0  0  0  0  0  0  0  0  0  0
  138.4810   68.3850  225.2850 N   0  0  0  0  0  0  0  0  0  0  0  0
  139.3540   68.8160  226.2240 C   0  0  0  0  0  0  0  0  0  0  0  0
  139.5960   68.0380  227.3630 C   0  0  0  0  0  0  0  0  0  0  0  0
  139.0762   67.0775  227.4939 H   0  0  0  0  0  0  0  0  0  0  0  0
  140.4990   68.4830  228.3340 C   0  0  0  0  0  0  0  0  0  0  0  0
  140.6894   67.8713  229.2282 H   0  0  0  0  0  0  0  0  0  0  0  0
  141.1600   69.7040  228.1700 C   0  0  0  0  0  0  0  0  0  0  0  0
  141.8701   70.0510  228.9351 H   0  0  0  0  0  0  0  0  0  0  0  0
  140.9200   70.4850  227.0350 C   0  0  0  0  0  0  0  0  0  0  0  0
  141.4407   71.4458  226.9098 H   0  0  0  0  0  0  0  0  0  0  0  0
  140.0130   70.0440  226.0520 C   0  0  0  0  0  0  0  0  0  0  0  0
  139.7290   70.7940  224.8990 C   0  0  0  0  0  0  0  0  0  0  0  0
  140.2890   71.9160  224.7360 O   0  0  0  0  0  0  0  0  0  0  0  0
  138.8450   70.3180  223.9560 N   0  0  0  0  0  0  0  0  0  0  0  0
  138.5240   71.1780  222.7930 C   0  0  0  0  0  0  0  0  0  0  0  0
  137.7091   70.7055  222.2250 H   0  0  0  0  0  0  0  0  0  0  0  0
  138.2396   72.1642  223.1887 H   0  0  0  0  0  0  0  0  0  0  0  0
  139.7020   71.3950  221.8550 C   0  0  0  0  0  0  0  0  0  0  0  0
  140.1840   70.2800  221.1450 C   0  0  0  0  0  0  0  0  0  0  0  0
  139.6855   69.3062  221.2597 H   0  0  0  0  0  0  0  0  0  0  0  0
  141.2880   70.3940  220.2960 C   0  0  0  0  0  0  0  0  0  0  0  0
  141.6469   69.5153  219.7401 H   0  0  0  0  0  0  0  0  0  0  0  0
  141.9350   71.6210  220.1530 C   0  0  0  0  0  0  0  0  0  0  0  0
  142.8011   71.7110  219.4809 H   0  0  0  0  0  0  0  0  0  0  0  0
  141.4840   72.7340  220.8620 C   0  0  0  0  0  0  0  0  0  0  0  0
  142.0003   73.6988  220.7501 H   0  0  0  0  0  0  0  0  0  0  0  0
  140.3790   72.6320  221.7150 C   0  0  0  0  0  0  0  0  0  0  0  0
  139.9720   73.7690  222.4040 O   0  0  0  0  0  0  0  0  0  0  0  0
  135.2450   69.4380  224.4250 C   0  0  0  0  0  0  0  0  0  0  0  0
  134.6560   68.5410  225.3310 C   0  0  0  0  0  0  0  0  0  0  0  0
  134.7168   67.4584  225.1456 H   0  0  0  0  0  0  0  0  0  0  0  0
  134.0110   69.0020  226.4360 N   0  0  0  0  0  0  0  0  0  0  0  0
  133.9180   70.3290  226.7090 C   0  0  0  0  0  0  0  0  0  0  0  0
  133.3843   70.6694  227.6086 H   0  0  0  0  0  0  0  0  0  0  0  0
  134.4990   71.2600  225.8490 C   0  0  0  0  0  0  0  0  0  0  0  0
  134.4318   72.3357  226.0688 H   0  0  0  0  0  0  0  0  0  0  0  0
  135.1670   70.8150  224.7060 C   0  0  0  0  0  0  0  0  0  0  0  0
  135.6329   71.5418  224.0243 H   0  0  0  0  0  0  0  0  0  0  0  0
  1  2  1  0
  2  3  2  0
  3  4  1  0
  3  5  1  0
  5  6  2  0
  6  7  1  0
  7  8  2  0
  8  9  1  0
  8 10  1  0
 10 11  1  0
 10 12  2  0
 12 13  1  0
 12 14  1  0
 14 15  1  0
 14 16  2  0
 16 17  1  0
 17 18  2  0
 17 19  1  0
 19 20  1  0
 20 21  1  0
 20 22  1  0
 20 23  1  0
 23 24  2  0
 24 25  1  0
 24 26  1  0
 26 27  1  0
 26 28  2  0
 28 29  1  0
 28 30  1  0
 30 31  1  0
 30 32  2  0
 32 33  1  0
  2 34  1  0
 34 35  2  0
 35 36  1  0
 35 37  1  0
 37 38  2  0
 38 39  1  0
 38 40  1  0
 40 41  1  0
 40 42  2  0
 42 43  1  0
 19  5  1  0
 32 23  1  0
 42 34  1  0
 16  7  1  0
M  CHG  1  33  -1
M  END
>  <UniqueID>  (30) 
504

>  <SMILES>  (30) 
O=c1c2ccccc2nc(/C=C/c2cccnc2)n1Cc1ccccc1[O-]

>  <Energy>  (30) 
69.78370482222795

>  <Genealogy>  (30) 
O=c1c2ccccc2nc(/C=C/c2cccnc2)n1Cc1ccccc1[O-] (protonated)
O=c1c2ccccc2nc(/C=C/c2cccnc2)n1Cc1ccccc1[O-] (cis-trans isomerization)
O=c1c2ccccc2nc(/C=C/c2cccnc2)n1Cc1ccccc1[O-] (3D coordinates assigned)
O=c1c2ccccc2nc(/C=C/c2cccnc2)n1Cc1ccccc1[O-] (optimized conformer: 69.78370482222795 kcal/mol)

>  <smiles>  (30) 
O=c1c2ccccc2nc(/C=C/c2cccnc2)n1Cc1ccccc1O

>  <score_type>  (30) 
oracle

>  <origin>  (30) 
autodockgpu

>  <m_score__min__energy>  (30) 
-7.2699999999999996

>  <m_primary>  (30) 
energy

>  <meeko>  (30) 
{"free_energy": -7.14, "intermolecular_energy": -8.63, "internal_energy": -1.16, "cluster_size": 9, "cluster_id": 1, "rank_in_cluster": 3}

>  <energy>  (30) 
-7.1

>  <cluster_rmsd>  (30) 
0.0

>  <rmsd>  (30) 
270.74

>  <cluster>  (30) 
2

$$$$
FMMHNRBASQNFIB-CUFMLMHXNA-M
     RDKit          3D

 43 46  0  0  0  0  0  0  0  0999 V2000
  135.3352   69.4180  222.2556 H   0  0  0  0  0  0  0  0  0  0  0  0
  135.8870   69.3970  223.2070 C   0  0  0  0  0  0  0  0  0  0  0  0
  137.1610   68.9820  223.1850 C   0  0  0  0  0  0  0  0  0  0  0  0
  137.4369   68.1496  222.5209 H   0  0  0  0  0  0  0  0  0  0  0  0
  138.2080   69.6040  224.0220 C   0  0  0  0  0  0  0  0  0  0  0  0
  138.3090   69.1500  225.2970 N   0  0  0  0  0  0  0  0  0  0  0  0
  139.2140   69.6530  226.1690 C   0  0  0  0  0  0  0  0  0  0  0  0
  139.2930   69.1400  227.4690 C   0  0  0  0  0  0  0  0  0  0  0  0
  138.6203   68.3278  227.7816 H   0  0  0  0  0  0  0  0  0  0  0  0
  140.2270   69.6600  228.3700 C   0  0  0  0  0  0  0  0  0  0  0  0
  140.2885   69.2567  229.3916 H   0  0  0  0  0  0  0  0  0  0  0  0
  141.0830   70.6920  227.9740 C   0  0  0  0  0  0  0  0  0  0  0  0
  141.8176   71.0984  228.6848 H   0  0  0  0  0  0  0  0  0  0  0  0
  141.0080   71.2090  226.6770 C   0  0  0  0  0  0  0  0  0  0  0  0
  141.6823   72.0220  226.3699 H   0  0  0  0  0  0  0  0  0  0  0  0
  140.0700   70.6900  225.7630 C   0  0  0  0  0  0  0  0  0  0  0  0
  139.9450   71.1790  224.4530 C   0  0  0  0  0  0  0  0  0  0  0  0
  140.6850   72.1320  224.0740 O   0  0  0  0  0  0  0  0  0  0  0  0
  139.0230   70.6330  223.5870 N   0  0  0  0  0  0  0  0  0  0  0  0
  138.8810   71.2310  222.2390 C   0  0  0  0  0  0  0  0  0  0  0  0
  139.8789   71.2996  221.7814 H   0  0  0  0  0  0  0  0  0  0  0  0
  138.2036   70.5809  221.6658 H   0  0  0  0  0  0  0  0  0  0  0  0
  138.2620   72.6200  222.2550 C   0  0  0  0  0  0  0  0  0  0  0  0
  136.8610   72.7090  222.3570 C   0  0  0  0  0  0  0  0  0  0  0  0
  136.2640   71.7902  222.4536 H   0  0  0  0  0  0  0  0  0  0  0  0
  136.2190   73.9500  222.3370 C   0  0  0  0  0  0  0  0  0  0  0  0
  135.1240   74.0037  222.4271 H   0  0  0  0  0  0  0  0  0  0  0  0
  136.9650   75.1200  222.2030 C   0  0  0  0  0  0  0  0  0  0  0  0
  136.4588   76.0966  222.1927 H   0  0  0  0  0  0  0  0  0  0  0  0
  138.3530   75.0530  222.0820 C   0  0  0  0  0  0  0  0  0  0  0  0
  138.9372   75.9784  221.9709 H   0  0  0  0  0  0  0  0  0  0  0  0
  139.0070   73.8160  222.1010 C   0  0  0  0  0  0  0  0  0  0  0  0
  140.3920   73.8010  221.9720 O   0  0  0  0  0  0  0  0  0  0  0  0
  135.1740   69.8300  224.4340 C   0  0  0  0  0  0  0  0  0  0  0  0
  134.6720   68.8500  225.3050 C   0  0  0  0  0  0  0  0  0  0  0  0
  134.8081   67.7850  225.0656 H   0  0  0  0  0  0  0  0  0  0  0  0
  134.0190   69.2080  226.4420 N   0  0  0  0  0  0  0  0  0  0  0  0
  133.8350   70.5100  226.7820 C   0  0  0  0  0  0  0  0  0  0  0  0
  133.2976   70.7661  227.7070 H   0  0  0  0  0  0  0  0  0  0  0  0
  134.3270   71.5220  225.9590 C   0  0  0  0  0  0  0  0  0  0  0  0
  134.1855   72.5780  226.2328 H   0  0  0  0  0  0  0  0  0  0  0  0
  135.0010   71.1830  224.7840 C   0  0  0  0  0  0  0  0  0  0  0  0
  135.3975   71.9742  224.1307 H   0  0  0  0  0  0  0  0  0  0  0  0
  1  2  1  0
  2  3  2  0
  3  4  1  0
  3  5  1  0
  5  6  2  0
  6  7  1  0
  7  8  2  0
  8  9  1  0
  8 10  1  0
 10 11  1  0
 10 12  2  0
 12 13  1  0
 12 14  1  0
 14 15  1  0
 14 16  2  0
 16 17  1  0
 17 18  2  0
 17 19  1  0
 19 20  1  0
 20 21  1  0
 20 22  1  0
 20 23  1  0
 23 24  2  0
 24 25  1  0
 24 26  1  0
 26 27  1  0
 26 28  2  0
 28 29  1  0
 28 30  1  0
 30 31  1  0
 30 32  2  0
 32 33  1  0
  2 34  1  0
 34 35  2  0
 35 36  1  0
 35 37  1  0
 37 38  2  0
 38 39  1  0
 38 40  1  0
 40 41  1  0
 40 42  2  0
 42 43  1  0
 19  5  1  0
 32 23  1  0
 42 34  1  0
 16  7  1  0
M  CHG  1  33  -1
M  END
>  <UniqueID>  (31) 
504

>  <SMILES>  (31) 
O=c1c2ccccc2nc(/C=C/c2cccnc2)n1Cc1ccccc1[O-]

>  <Energy>  (31) 
69.78370482222795

>  <Genealogy>  (31) 
O=c1c2ccccc2nc(/C=C/c2cccnc2)n1Cc1ccccc1[O-] (protonated)
O=c1c2ccccc2nc(/C=C/c2cccnc2)n1Cc1ccccc1[O-] (cis-trans isomerization)
O=c1c2ccccc2nc(/C=C/c2cccnc2)n1Cc1ccccc1[O-] (3D coordinates assigned)
O=c1c2ccccc2nc(/C=C/c2cccnc2)n1Cc1ccccc1[O-] (optimized conformer: 69.78370482222795 kcal/mol)

>  <smiles>  (31) 
O=c1c2ccccc2nc(/C=C/c2cccnc2)n1Cc1ccccc1O

>  <score_type>  (31) 
oracle

>  <origin>  (31) 
autodockgpu

>  <m_score__min__energy>  (31) 
-7.2699999999999996

>  <m_primary>  (31) 
energy

>  <meeko>  (31) 
{"free_energy": -6.84, "intermolecular_energy": -8.33, "internal_energy": -1.36, "cluster_size": 9, "cluster_id": 1, "rank_in_cluster": 7}

>  <energy>  (31) 
-7.09

>  <cluster_rmsd>  (31) 
0.32

>  <rmsd>  (31) 
270.8

>  <cluster>  (31) 
2

$$$$
FMMHNRBASQNFIB-CUFMLMHXNA-M
     RDKit          3D

 43 46  0  0  0  0  0  0  0  0999 V2000
  134.2417   71.7196  222.9487 H   0  0  0  0  0  0  0  0  0  0  0  0
  135.0390   72.0210  223.6440 C   0  0  0  0  0  0  0  0  0  0  0  0
  136.1730   71.3080  223.6460 C   0  0  0  0  0  0  0  0  0  0  0  0
  136.1523   70.2796  224.0358 H   0  0  0  0  0  0  0  0  0  0  0  0
  137.4510   71.8540  223.1430 C   0  0  0  0  0  0  0  0  0  0  0  0
  137.3810   73.0370  222.4790 N   0  0  0  0  0  0  0  0  0  0  0  0
  138.4780   73.6300  221.9530 C   0  0  0  0  0  0  0  0  0  0  0  0
  138.3590   74.8580  221.2910 C   0  0  0  0  0  0  0  0  0  0  0  0
  137.3747   75.3403  221.1989 H   0  0  0  0  0  0  0  0  0  0  0  0
  139.4920   75.4710  220.7470 C   0  0  0  0  0  0  0  0  0  0  0  0
  139.3984   76.4363  220.2278 H   0  0  0  0  0  0  0  0  0  0  0  0
  140.7430   74.8590  220.8620 C   0  0  0  0  0  0  0  0  0  0  0  0
  141.6326   75.3445  220.4343 H   0  0  0  0  0  0  0  0  0  0  0  0
  140.8670   73.6300  221.5200 C   0  0  0  0  0  0  0  0  0  0  0  0
  141.8530   73.1501  221.6061 H   0  0  0  0  0  0  0  0  0  0  0  0
  139.7310   73.0070  222.0720 C   0  0  0  0  0  0  0  0  0  0  0  0
  139.7980   71.7710  222.7330 C   0  0  0  0  0  0  0  0  0  0  0  0
  140.9100   71.1770  222.8280 O   0  0  0  0  0  0  0  0  0  0  0  0
  138.6640   71.2030  223.2710 N   0  0  0  0  0  0  0  0  0  0  0  0
  138.7740   69.8640  223.8960 C   0  0  0  0  0  0  0  0  0  0  0  0
  137.7614   69.4515  224.0159 H   0  0  0  0  0  0  0  0  0  0  0  0
  139.3996   69.2480  223.2333 H   0  0  0  0  0  0  0  0  0  0  0  0
  139.4500   69.8840  225.2580 C   0  0  0  0  0  0  0  0  0  0  0  0
  139.9780   71.1100  225.7060 C   0  0  0  0  0  0  0  0  0  0  0  0
  139.8615   72.0107  225.0853 H   0  0  0  0  0  0  0  0  0  0  0  0
  140.6480   71.1970  226.9290 C   0  0  0  0  0  0  0  0  0  0  0  0
  141.0462   72.1640  227.2701 H   0  0  0  0  0  0  0  0  0  0  0  0
  140.8120   70.0590  227.7170 C   0  0  0  0  0  0  0  0  0  0  0  0
  141.3360   70.1292  228.6816 H   0  0  0  0  0  0  0  0  0  0  0  0
  140.3120   68.8310  227.2830 C   0  0  0  0  0  0  0  0  0  0  0  0
  140.4476   67.9348  227.9062 H   0  0  0  0  0  0  0  0  0  0  0  0
  139.6390   68.7320  226.0600 C   0  0  0  0  0  0  0  0  0  0  0  0
  139.1640   67.4850  225.6690 O   0  0  0  0  0  0  0  0  0  0  0  0
  134.7910   73.1920  224.5210 C   0  0  0  0  0  0  0  0  0  0  0  0
  133.9550   73.0340  225.6380 C   0  0  0  0  0  0  0  0  0  0  0  0
  133.4951   72.0558  225.8419 H   0  0  0  0  0  0  0  0  0  0  0  0
  133.7100   74.0810  226.4690 N   0  0  0  0  0  0  0  0  0  0  0  0
  134.2610   75.3050  226.2600 C   0  0  0  0  0  0  0  0  0  0  0  0
  134.0375   76.1336  226.9481 H   0  0  0  0  0  0  0  0  0  0  0  0
  135.1100   75.5110  225.1730 C   0  0  0  0  0  0  0  0  0  0  0  0
  135.5637   76.4985  225.0027 H   0  0  0  0  0  0  0  0  0  0  0  0
  135.3790   74.4530  224.3030 C   0  0  0  0  0  0  0  0  0  0  0  0
  136.0514   74.6045  223.4457 H   0  0  0  0  0  0  0  0  0  0  0  0
  1  2  1  0
  2  3  2  0
  3  4  1  0
  3  5  1  0
  5  6  2  0
  6  7  1  0
  7  8  2  0
  8  9  1  0
  8 10  1  0
 10 11  1  0
 10 12  2  0
 12 13  1  0
 12 14  1  0
 14 15  1  0
 14 16  2  0
 16 17  1  0
 17 18  2  0
 17 19  1  0
 19 20  1  0
 20 21  1  0
 20 22  1  0
 20 23  1  0
 23 24  2  0
 24 25  1  0
 24 26  1  0
 26 27  1  0
 26 28  2  0
 28 29  1  0
 28 30  1  0
 30 31  1  0
 30 32  2  0
 32 33  1  0
  2 34  1  0
 34 35  2  0
 35 36  1  0
 35 37  1  0
 37 38  2  0
 38 39  1  0
 38 40  1  0
 40 41  1  0
 40 42  2  0
 42 43  1  0
 19  5  1  0
 32 23  1  0
 42 34  1  0
 16  7  1  0
M  CHG  1  33  -1
M  END
>  <UniqueID>  (32) 
504

>  <SMILES>  (32) 
O=c1c2ccccc2nc(/C=C/c2cccnc2)n1Cc1ccccc1[O-]

>  <Energy>  (32) 
69.78370482222795

>  <Genealogy>  (32) 
O=c1c2ccccc2nc(/C=C/c2cccnc2)n1Cc1ccccc1[O-] (protonated)
O=c1c2ccccc2nc(/C=C/c2cccnc2)n1Cc1ccccc1[O-] (cis-trans isomerization)
O=c1c2ccccc2nc(/C=C/c2cccnc2)n1Cc1ccccc1[O-] (3D coordinates assigned)
O=c1c2ccccc2nc(/C=C/c2cccnc2)n1Cc1ccccc1[O-] (optimized conformer: 69.78370482222795 kcal/mol)

>  <smiles>  (32) 
O=c1c2ccccc2nc(/C=C/c2cccnc2)n1Cc1ccccc1O

>  <score_type>  (32) 
oracle

>  <origin>  (32) 
autodockgpu

>  <m_score__min__energy>  (32) 
-7.2699999999999996

>  <m_primary>  (32) 
energy

>  <meeko>  (32) 
{"free_energy": -7.1, "intermolecular_energy": -8.59, "internal_energy": -1.01, "cluster_size": 5, "cluster_id": 2, "rank_in_cluster": 1}

>  <energy>  (32) 
-7.09

>  <cluster_rmsd>  (32) 
0.85

>  <rmsd>  (32) 
270.73

>  <cluster>  (32) 
2

$$$$
FMMHNRBASQNFIB-CUFMLMHXNA-M
     RDKit          3D

 43 46  0  0  0  0  0  0  0  0999 V2000
  135.4214   68.0811  222.5678 H   0  0  0  0  0  0  0  0  0  0  0  0
  136.0380   68.6650  223.2670 C   0  0  0  0  0  0  0  0  0  0  0  0
  137.3590   68.7170  223.0470 C   0  0  0  0  0  0  0  0  0  0  0  0
  137.7474   68.3982  222.0685 H   0  0  0  0  0  0  0  0  0  0  0  0
  138.3120   69.1880  224.0740 C   0  0  0  0  0  0  0  0  0  0  0  0
  138.5220   68.3580  225.1280 N   0  0  0  0  0  0  0  0  0  0  0  0
  139.3550   68.6840  226.1430 C   0  0  0  0  0  0  0  0  0  0  0  0
  139.5530   67.7880  227.2010 C   0  0  0  0  0  0  0  0  0  0  0  0
  139.0312   66.8197  227.2071 H   0  0  0  0  0  0  0  0  0  0  0  0
  140.4140   68.1250  228.2490 C   0  0  0  0  0  0  0  0  0  0  0  0
  140.5701   67.4202  229.0790 H   0  0  0  0  0  0  0  0  0  0  0  0
  141.0770   69.3550  228.2450 C   0  0  0  0  0  0  0  0  0  0  0  0
  141.7541   69.6165  229.0715 H   0  0  0  0  0  0  0  0  0  0  0  0
  140.8810   70.2550  227.1910 C   0  0  0  0  0  0  0  0  0  0  0  0
  141.4031   71.2232  227.1913 H   0  0  0  0  0  0  0  0  0  0  0  0
  140.0170   69.9230  226.1310 C   0  0  0  0  0  0  0  0  0  0  0  0
  139.7780   70.7920  225.0540 C   0  0  0  0  0  0  0  0  0  0  0  0
  140.3400   71.9250  225.0360 O   0  0  0  0  0  0  0  0  0  0  0  0
  138.9350   70.4220  224.0300 N   0  0  0  0  0  0  0  0  0  0  0  0
  138.6590   71.4030  222.9540 C   0  0  0  0  0  0  0  0  0  0  0  0
  137.7144   71.1253  222.4634 H   0  0  0  0  0  0  0  0  0  0  0  0
  138.6077   72.3953  223.4259 H   0  0  0  0  0  0  0  0  0  0  0  0
  139.7500   71.4660  221.8970 C   0  0  0  0  0  0  0  0  0  0  0  0
  140.0420   70.2840  221.1890 C   0  0  0  0  0  0  0  0  0  0  0  0
  139.4627   69.3715  221.3931 H   0  0  0  0  0  0  0  0  0  0  0  0
  141.0580   70.2560  220.2310 C   0  0  0  0  0  0  0  0  0  0  0  0
  141.2675   69.3279  219.6789 H   0  0  0  0  0  0  0  0  0  0  0  0
  141.8070   71.4040  219.9740 C   0  0  0  0  0  0  0  0  0  0  0  0
  142.6042   71.3820  219.2163 H   0  0  0  0  0  0  0  0  0  0  0  0
  141.5460   72.5800  220.6770 C   0  0  0  0  0  0  0  0  0  0  0  0
  142.1427   73.4817  220.4746 H   0  0  0  0  0  0  0  0  0  0  0  0
  140.5300   72.6200  221.6380 C   0  0  0  0  0  0  0  0  0  0  0  0
  140.3110   73.8150  222.3160 O   0  0  0  0  0  0  0  0  0  0  0  0
  135.3550   69.3460  224.3950 C   0  0  0  0  0  0  0  0  0  0  0  0
  134.7020   68.5630  225.3610 C   0  0  0  0  0  0  0  0  0  0  0  0
  134.7012   67.4671  225.2663 H   0  0  0  0  0  0  0  0  0  0  0  0
  134.0710   69.1500  226.4120 N   0  0  0  0  0  0  0  0  0  0  0  0
  134.0540   70.4990  226.5740 C   0  0  0  0  0  0  0  0  0  0  0  0
  133.5315   70.9432  227.4340 H   0  0  0  0  0  0  0  0  0  0  0  0
  134.6990   71.3200  225.6500 C   0  0  0  0  0  0  0  0  0  0  0  0
  134.6912   72.4124  225.7785 H   0  0  0  0  0  0  0  0  0  0  0  0
  135.3550   70.7440  224.5600 C   0  0  0  0  0  0  0  0  0  0  0  0
  135.8723   71.3834  223.8295 H   0  0  0  0  0  0  0  0  0  0  0  0
  1  2  1  0
  2  3  2  0
  3  4  1  0
  3  5  1  0
  5  6  2  0
  6  7  1  0
  7  8  2  0
  8  9  1  0
  8 10  1  0
 10 11  1  0
 10 12  2  0
 12 13  1  0
 12 14  1  0
 14 15  1  0
 14 16  2  0
 16 17  1  0
 17 18  2  0
 17 19  1  0
 19 20  1  0
 20 21  1  0
 20 22  1  0
 20 23  1  0
 23 24  2  0
 24 25  1  0
 24 26  1  0
 26 27  1  0
 26 28  2  0
 28 29  1  0
 28 30  1  0
 30 31  1  0
 30 32  2  0
 32 33  1  0
  2 34  1  0
 34 35  2  0
 35 36  1  0
 35 37  1  0
 37 38  2  0
 38 39  1  0
 38 40  1  0
 40 41  1  0
 40 42  2  0
 42 43  1  0
 19  5  1  0
 32 23  1  0
 42 34  1  0
 16  7  1  0
M  CHG  1  33  -1
M  END
>  <UniqueID>  (33) 
504

>  <SMILES>  (33) 
O=c1c2ccccc2nc(/C=C/c2cccnc2)n1Cc1ccccc1[O-]

>  <Energy>  (33) 
69.78370482222795

>  <Genealogy>  (33) 
O=c1c2ccccc2nc(/C=C/c2cccnc2)n1Cc1ccccc1[O-] (protonated)
O=c1c2ccccc2nc(/C=C/c2cccnc2)n1Cc1ccccc1[O-] (cis-trans isomerization)
O=c1c2ccccc2nc(/C=C/c2cccnc2)n1Cc1ccccc1[O-] (3D coordinates assigned)
O=c1c2ccccc2nc(/C=C/c2cccnc2)n1Cc1ccccc1[O-] (optimized conformer: 69.78370482222795 kcal/mol)

>  <smiles>  (33) 
O=c1c2ccccc2nc(/C=C/c2cccnc2)n1Cc1ccccc1O

>  <score_type>  (33) 
oracle

>  <origin>  (33) 
autodockgpu

>  <m_score__min__energy>  (33) 
-7.2699999999999996

>  <m_primary>  (33) 
energy

>  <meeko>  (33) 
{"free_energy": -7.1, "intermolecular_energy": -8.59, "internal_energy": -1.25, "cluster_size": 9, "cluster_id": 1, "rank_in_cluster": 4}

>  <energy>  (33) 
-7.0

>  <cluster_rmsd>  (33) 
0.44

>  <rmsd>  (33) 
270.67

>  <cluster>  (33) 
2

$$$$
FMMHNRBASQNFIB-CUFMLMHXNA-M
     RDKit          3D

 43 46  0  0  0  0  0  0  0  0999 V2000
  135.4168   68.6318  222.2842 H   0  0  0  0  0  0  0  0  0  0  0  0
  136.0260   68.8530  223.1730 C   0  0  0  0  0  0  0  0  0  0  0  0
  137.3360   68.5790  223.1200 C   0  0  0  0  0  0  0  0  0  0  0  0
  137.7149   67.9543  222.2977 H   0  0  0  0  0  0  0  0  0  0  0  0
  138.2900   69.0870  224.1280 C   0  0  0  0  0  0  0  0  0  0  0  0
  138.5250   68.2820  225.1960 N   0  0  0  0  0  0  0  0  0  0  0  0
  139.3610   68.6430  226.1960 C   0  0  0  0  0  0  0  0  0  0  0  0
  139.5850   67.7720  227.2700 C   0  0  0  0  0  0  0  0  0  0  0  0
  139.0812   66.7946  227.2999 H   0  0  0  0  0  0  0  0  0  0  0  0
  140.4490   68.1450  228.3040 C   0  0  0  0  0  0  0  0  0  0  0  0
  140.6247   67.4604  229.1469 H   0  0  0  0  0  0  0  0  0  0  0  0
  141.0900   69.3870  228.2680 C   0  0  0  0  0  0  0  0  0  0  0  0
  141.7703   69.6773  229.0822 H   0  0  0  0  0  0  0  0  0  0  0  0
  140.8680   70.2610  227.1990 C   0  0  0  0  0  0  0  0  0  0  0  0
  141.3726   71.2382  227.1752 H   0  0  0  0  0  0  0  0  0  0  0  0
  140.0000   69.8930  226.1530 C   0  0  0  0  0  0  0  0  0  0  0  0
  139.7350   70.7360  225.0620 C   0  0  0  0  0  0  0  0  0  0  0  0
  140.2770   71.8780  225.0160 O   0  0  0  0  0  0  0  0  0  0  0  0
  138.8900   70.3310  224.0540 N   0  0  0  0  0  0  0  0  0  0  0  0
  138.5860   71.2840  222.9610 C   0  0  0  0  0  0  0  0  0  0  0  0
  137.6576   70.9622  222.4666 H   0  0  0  0  0  0  0  0  0  0  0  0
  138.4917   72.2805  223.4172 H   0  0  0  0  0  0  0  0  0  0  0  0
  139.6840   71.3740  221.9120 C   0  0  0  0  0  0  0  0  0  0  0  0
  140.0100   70.2000  221.2080 C   0  0  0  0  0  0  0  0  0  0  0  0
  139.4511   69.2739  221.4079 H   0  0  0  0  0  0  0  0  0  0  0  0
  141.0350   70.1960  220.2580 C   0  0  0  0  0  0  0  0  0  0  0  0
  141.2724   69.2726  219.7095 H   0  0  0  0  0  0  0  0  0  0  0  0
  141.7570   71.3620  220.0050 C   0  0  0  0  0  0  0  0  0  0  0  0
  142.5601   71.3592  219.2533 H   0  0  0  0  0  0  0  0  0  0  0  0
  141.4610   72.5320  220.7050 C   0  0  0  0  0  0  0  0  0  0  0  0
  142.0360   73.4484  220.5059 H   0  0  0  0  0  0  0  0  0  0  0  0
  140.4370   72.5470  221.6590 C   0  0  0  0  0  0  0  0  0  0  0  0
  140.1840   73.7360  222.3340 O   0  0  0  0  0  0  0  0  0  0  0  0
  135.3450   69.4360  224.3550 C   0  0  0  0  0  0  0  0  0  0  0  0
  134.7200   68.5710  225.2690 C   0  0  0  0  0  0  0  0  0  0  0  0
  134.7399   67.4851  225.0947 H   0  0  0  0  0  0  0  0  0  0  0  0
  134.0910   69.0670  226.3670 N   0  0  0  0  0  0  0  0  0  0  0  0
  134.0500   70.4000  226.6270 C   0  0  0  0  0  0  0  0  0  0  0  0
  133.5297   70.7697  227.5229 H   0  0  0  0  0  0  0  0  0  0  0  0
  134.6670   71.2990  225.7590 C   0  0  0  0  0  0  0  0  0  0  0  0
  134.6405   72.3786  225.9680 H   0  0  0  0  0  0  0  0  0  0  0  0
  135.3190   70.8180  224.6220 C   0  0  0  0  0  0  0  0  0  0  0  0
  135.8130   71.5198  223.9339 H   0  0  0  0  0  0  0  0  0  0  0  0
  1  2  1  0
  2  3  2  0
  3  4  1  0
  3  5  1  0
  5  6  2  0
  6  7  1  0
  7  8  2  0
  8  9  1  0
  8 10  1  0
 10 11  1  0
 10 12  2  0
 12 13  1  0
 12 14  1  0
 14 15  1  0
 14 16  2  0
 16 17  1  0
 17 18  2  0
 17 19  1  0
 19 20  1  0
 20 21  1  0
 20 22  1  0
 20 23  1  0
 23 24  2  0
 24 25  1  0
 24 26  1  0
 26 27  1  0
 26 28  2  0
 28 29  1  0
 28 30  1  0
 30 31  1  0
 30 32  2  0
 32 33  1  0
  2 34  1  0
 34 35  2  0
 35 36  1  0
 35 37  1  0
 37 38  2  0
 38 39  1  0
 38 40  1  0
 40 41  1  0
 40 42  2  0
 42 43  1  0
 19  5  1  0
 32 23  1  0
 42 34  1  0
 16  7  1  0
M  CHG  1  33  -1
M  END
>  <UniqueID>  (34) 
504

>  <SMILES>  (34) 
O=c1c2ccccc2nc(/C=C/c2cccnc2)n1Cc1ccccc1[O-]

>  <Energy>  (34) 
69.78370482222795

>  <Genealogy>  (34) 
O=c1c2ccccc2nc(/C=C/c2cccnc2)n1Cc1ccccc1[O-] (protonated)
O=c1c2ccccc2nc(/C=C/c2cccnc2)n1Cc1ccccc1[O-] (cis-trans isomerization)
O=c1c2ccccc2nc(/C=C/c2cccnc2)n1Cc1ccccc1[O-] (3D coordinates assigned)
O=c1c2ccccc2nc(/C=C/c2cccnc2)n1Cc1ccccc1[O-] (optimized conformer: 69.78370482222795 kcal/mol)

>  <smiles>  (34) 
O=c1c2ccccc2nc(/C=C/c2cccnc2)n1Cc1ccccc1O

>  <score_type>  (34) 
oracle

>  <origin>  (34) 
autodockgpu

>  <m_score__min__energy>  (34) 
-7.2699999999999996

>  <m_primary>  (34) 
energy

>  <meeko>  (34) 
{"free_energy": -7.1, "intermolecular_energy": -8.59, "internal_energy": -1.27, "cluster_size": 9, "cluster_id": 1, "rank_in_cluster": 5}

>  <energy>  (34) 
-6.79

>  <cluster_rmsd>  (34) 
1.22

>  <rmsd>  (34) 
270.71

>  <cluster>  (34) 
2

$$$$
FMMHNRBASQNFIB-CUFMLMHXNA-M
     RDKit          3D

 43 46  0  0  0  0  0  0  0  0999 V2000
  137.7301   71.7198  221.3769 H   0  0  0  0  0  0  0  0  0  0  0  0
  138.7240   71.9970  221.7580 C   0  0  0  0  0  0  0  0  0  0  0  0
  139.5670   71.0100  222.0880 C   0  0  0  0  0  0  0  0  0  0  0  0
  140.2023   70.5709  221.3047 H   0  0  0  0  0  0  0  0  0  0  0  0
  139.6740   70.4900  223.4670 C   0  0  0  0  0  0  0  0  0  0  0  0
  140.2050   71.3330  224.3900 N   0  0  0  0  0  0  0  0  0  0  0  0
  140.3740   70.9680  225.6820 C   0  0  0  0  0  0  0  0  0  0  0  0
  140.9110   71.8780  226.6010 C   0  0  0  0  0  0  0  0  0  0  0  0
  141.1950   72.8888  226.2728 H   0  0  0  0  0  0  0  0  0  0  0  0
  141.0860   71.5010  227.9360 C   0  0  0  0  0  0  0  0  0  0  0  0
  141.5068   72.2164  228.6579 H   0  0  0  0  0  0  0  0  0  0  0  0
  140.7270   70.2160  228.3550 C   0  0  0  0  0  0  0  0  0  0  0  0
  140.8656   69.9226  229.4060 H   0  0  0  0  0  0  0  0  0  0  0  0
  140.1920   69.3030  227.4400 C   0  0  0  0  0  0  0  0  0  0  0  0
  139.9122   68.2925  227.7726 H   0  0  0  0  0  0  0  0  0  0  0  0
  140.0110   69.6750  226.0940 C   0  0  0  0  0  0  0  0  0  0  0  0
  139.4880   68.7950  225.1330 C   0  0  0  0  0  0  0  0  0  0  0  0
  139.1800   67.6170  225.4740 O   0  0  0  0  0  0  0  0  0  0  0  0
  139.3150   69.2050  223.8300 N   0  0  0  0  0  0  0  0  0  0  0  0
  138.8270   68.2170  222.8390 C   0  0  0  0  0  0  0  0  0  0  0  0
  139.2226   68.4912  221.8499 H   0  0  0  0  0  0  0  0  0  0  0  0
  139.1774   67.2276  223.1682 H   0  0  0  0  0  0  0  0  0  0  0  0
  137.3100   68.1480  222.7490 C   0  0  0  0  0  0  0  0  0  0  0  0
  136.5670   69.0380  223.5470 C   0  0  0  0  0  0  0  0  0  0  0  0
  137.0928   69.7690  224.1788 H   0  0  0  0  0  0  0  0  0  0  0  0
  135.1710   69.0050  223.5470 C   0  0  0  0  0  0  0  0  0  0  0  0
  134.6047   69.7135  224.1694 H   0  0  0  0  0  0  0  0  0  0  0  0
  134.4940   68.0750  222.7590 C   0  0  0  0  0  0  0  0  0  0  0  0
  133.3942   68.0532  222.7562 H   0  0  0  0  0  0  0  0  0  0  0  0
  135.2120   67.1720  221.9740 C   0  0  0  0  0  0  0  0  0  0  0  0
  134.6746   66.4364  221.3574 H   0  0  0  0  0  0  0  0  0  0  0  0
  136.6110   67.1960  221.9660 C   0  0  0  0  0  0  0  0  0  0  0  0
  137.2810   66.2720  221.1710 O   0  0  0  0  0  0  0  0  0  0  0  0
  139.0460   73.4410  221.8740 C   0  0  0  0  0  0  0  0  0  0  0  0
  140.3950   73.8330  221.8770 C   0  0  0  0  0  0  0  0  0  0  0  0
  141.1854   73.0719  221.7996 H   0  0  0  0  0  0  0  0  0  0  0  0
  140.7300   75.1470  221.9750 N   0  0  0  0  0  0  0  0  0  0  0  0
  139.7880   76.1210  222.0630 C   0  0  0  0  0  0  0  0  0  0  0  0
  140.0927   77.1748  222.1446 H   0  0  0  0  0  0  0  0  0  0  0  0
  138.4350   75.7860  222.0500 C   0  0  0  0  0  0  0  0  0  0  0  0
  137.6683   76.5719  222.1171 H   0  0  0  0  0  0  0  0  0  0  0  0
  138.0610   74.4430  221.9510 C   0  0  0  0  0  0  0  0  0  0  0  0
  136.9958   74.1690  221.9333 H   0  0  0  0  0  0  0  0  0  0  0  0
  1  2  1  0
  2  3  2  0
  3  4  1  0
  3  5  1  0
  5  6  2  0
  6  7  1  0
  7  8  2  0
  8  9  1  0
  8 10  1  0
 10 11  1  0
 10 12  2  0
 12 13  1  0
 12 14  1  0
 14 15  1  0
 14 16  2  0
 16 17  1  0
 17 18  2  0
 17 19  1  0
 19 20  1  0
 20 21  1  0
 20 22  1  0
 20 23  1  0
 23 24  2  0
 24 25  1  0
 24 26  1  0
 26 27  1  0
 26 28  2  0
 28 29  1  0
 28 30  1  0
 30 31  1  0
 30 32  2  0
 32 33  1  0
  2 34  1  0
 34 35  2  0
 35 36  1  0
 35 37  1  0
 37 38  2  0
 38 39  1  0
 38 40  1  0
 40 41  1  0
 40 42  2  0
 42 43  1  0
 19  5  1  0
 32 23  1  0
 42 34  1  0
 16  7  1  0
M  CHG  1  33  -1
M  END
>  <UniqueID>  (35) 
504

>  <SMILES>  (35) 
O=c1c2ccccc2nc(/C=C/c2cccnc2)n1Cc1ccccc1[O-]

>  <Energy>  (35) 
69.78370482222795

>  <Genealogy>  (35) 
O=c1c2ccccc2nc(/C=C/c2cccnc2)n1Cc1ccccc1[O-] (protonated)
O=c1c2ccccc2nc(/C=C/c2cccnc2)n1Cc1ccccc1[O-] (cis-trans isomerization)
O=c1c2ccccc2nc(/C=C/c2cccnc2)n1Cc1ccccc1[O-] (3D coordinates assigned)
O=c1c2ccccc2nc(/C=C/c2cccnc2)n1Cc1ccccc1[O-] (optimized conformer: 69.78370482222795 kcal/mol)

>  <smiles>  (35) 
O=c1c2ccccc2nc(/C=C/c2cccnc2)n1Cc1ccccc1O

>  <score_type>  (35) 
oracle

>  <origin>  (35) 
autodockgpu

>  <m_score__min__energy>  (35) 
-7.2699999999999996

>  <m_primary>  (35) 
energy

>  <meeko>  (35) 
{"free_energy": -6.92, "intermolecular_energy": -8.41, "internal_energy": -1.1, "cluster_size": 3, "cluster_id": 3, "rank_in_cluster": 1}

>  <energy>  (35) 
-6.92

>  <cluster_rmsd>  (35) 
0.0

>  <rmsd>  (35) 
270.35

>  <cluster>  (35) 
3

$$$$
FMMHNRBASQNFIB-CUFMLMHXNA-M
     RDKit          3D

 43 46  0  0  0  0  0  0  0  0999 V2000
  141.7016   80.4082  219.1033 H   0  0  0  0  0  0  0  0  0  0  0  0
  141.3820   79.8110  219.9700 C   0  0  0  0  0  0  0  0  0  0  0  0
  140.6260   78.7280  219.7420 C   0  0  0  0  0  0  0  0  0  0  0  0
  139.6762   78.8480  219.2002 H   0  0  0  0  0  0  0  0  0  0  0  0
  141.0240   77.3790  220.1930 C   0  0  0  0  0  0  0  0  0  0  0  0
  142.2410   76.9390  219.7790 N   0  0  0  0  0  0  0  0  0  0  0  0
  142.7110   75.7130  220.1070 C   0  0  0  0  0  0  0  0  0  0  0  0
  143.9780   75.3100  219.6700 C   0  0  0  0  0  0  0  0  0  0  0  0
  144.5912   75.9890  219.0593 H   0  0  0  0  0  0  0  0  0  0  0  0
  144.4640   74.0440  220.0100 C   0  0  0  0  0  0  0  0  0  0  0  0
  145.4611   73.7288  219.6687 H   0  0  0  0  0  0  0  0  0  0  0  0
  143.6850   73.1780  220.7830 C   0  0  0  0  0  0  0  0  0  0  0  0
  144.0700   72.1823  221.0481 H   0  0  0  0  0  0  0  0  0  0  0  0
  142.4170   73.5750  221.2200 C   0  0  0  0  0  0  0  0  0  0  0  0
  141.8062   72.8906  221.8270 H   0  0  0  0  0  0  0  0  0  0  0  0
  141.9210   74.8500  220.8840 C   0  0  0  0  0  0  0  0  0  0  0  0
  140.6520   75.2940  221.2880 C   0  0  0  0  0  0  0  0  0  0  0  0
  139.9120   74.5230  221.9640 O   0  0  0  0  0  0  0  0  0  0  0  0
  140.2110   76.5540  220.9490 N   0  0  0  0  0  0  0  0  0  0  0  0
  138.8370   76.9490  221.3380 C   0  0  0  0  0  0  0  0  0  0  0  0
  138.2433   77.0914  220.4230 H   0  0  0  0  0  0  0  0  0  0  0  0
  138.4367   76.1455  221.9737 H   0  0  0  0  0  0  0  0  0  0  0  0
  138.7830   78.2330  222.1520 C   0  0  0  0  0  0  0  0  0  0  0  0
  139.7170   78.3850  223.1930 C   0  0  0  0  0  0  0  0  0  0  0  0
  140.4681   77.6005  223.3673 H   0  0  0  0  0  0  0  0  0  0  0  0
  139.7030   79.5190  224.0080 C   0  0  0  0  0  0  0  0  0  0  0  0
  140.4465   79.6276  224.8114 H   0  0  0  0  0  0  0  0  0  0  0  0
  138.7470   80.5140  223.8040 C   0  0  0  0  0  0  0  0  0  0  0  0
  138.7389   81.4087  224.4439 H   0  0  0  0  0  0  0  0  0  0  0  0
  137.8010   80.3740  222.7880 C   0  0  0  0  0  0  0  0  0  0  0  0
  137.0460   81.1588  222.6328 H   0  0  0  0  0  0  0  0  0  0  0  0
  137.8060   79.2420  221.9650 C   0  0  0  0  0  0  0  0  0  0  0  0
  136.8400   79.1470  220.9700 O   0  0  0  0  0  0  0  0  0  0  0  0
  141.8150   80.2550  221.3180 C   0  0  0  0  0  0  0  0  0  0  0  0
  141.4290   81.5300  221.7650 C   0  0  0  0  0  0  0  0  0  0  0  0
  140.8220   82.1765  221.1142 H   0  0  0  0  0  0  0  0  0  0  0  0
  141.8010   81.9700  222.9970 N   0  0  0  0  0  0  0  0  0  0  0  0
  142.5420   81.2020  223.8370 C   0  0  0  0  0  0  0  0  0  0  0  0
  142.8300   81.5891  224.8256 H   0  0  0  0  0  0  0  0  0  0  0  0
  142.9380   79.9230  223.4470 C   0  0  0  0  0  0  0  0  0  0  0  0
  143.5341   79.2955  224.1259 H   0  0  0  0  0  0  0  0  0  0  0  0
  142.5710   79.4460  222.1870 C   0  0  0  0  0  0  0  0  0  0  0  0
  142.8733   78.4361  221.8729 H   0  0  0  0  0  0  0  0  0  0  0  0
  1  2  1  0
  2  3  2  0
  3  4  1  0
  3  5  1  0
  5  6  2  0
  6  7  1  0
  7  8  2  0
  8  9  1  0
  8 10  1  0
 10 11  1  0
 10 12  2  0
 12 13  1  0
 12 14  1  0
 14 15  1  0
 14 16  2  0
 16 17  1  0
 17 18  2  0
 17 19  1  0
 19 20  1  0
 20 21  1  0
 20 22  1  0
 20 23  1  0
 23 24  2  0
 24 25  1  0
 24 26  1  0
 26 27  1  0
 26 28  2  0
 28 29  1  0
 28 30  1  0
 30 31  1  0
 30 32  2  0
 32 33  1  0
  2 34  1  0
 34 35  2  0
 35 36  1  0
 35 37  1  0
 37 38  2  0
 38 39  1  0
 38 40  1  0
 40 41  1  0
 40 42  2  0
 42 43  1  0
 19  5  1  0
 32 23  1  0
 42 34  1  0
 16  7  1  0
M  CHG  1  33  -1
M  END
>  <UniqueID>  (36) 
504

>  <SMILES>  (36) 
O=c1c2ccccc2nc(/C=C/c2cccnc2)n1Cc1ccccc1[O-]

>  <Energy>  (36) 
69.78370482222795

>  <Genealogy>  (36) 
O=c1c2ccccc2nc(/C=C/c2cccnc2)n1Cc1ccccc1[O-] (protonated)
O=c1c2ccccc2nc(/C=C/c2cccnc2)n1Cc1ccccc1[O-] (cis-trans isomerization)
O=c1c2ccccc2nc(/C=C/c2cccnc2)n1Cc1ccccc1[O-] (3D coordinates assigned)
O=c1c2ccccc2nc(/C=C/c2cccnc2)n1Cc1ccccc1[O-] (optimized conformer: 69.78370482222795 kcal/mol)

>  <smiles>  (36) 
O=c1c2ccccc2nc(/C=C/c2cccnc2)n1Cc1ccccc1O

>  <score_type>  (36) 
oracle

>  <origin>  (36) 
autodockgpu

>  <m_score__min__energy>  (36) 
-7.2699999999999996

>  <m_primary>  (36) 
energy

>  <meeko>  (36) 
{"free_energy": -6.28, "intermolecular_energy": -7.77, "internal_energy": -1.77, "cluster_size": 3, "cluster_id": 4, "rank_in_cluster": 2}

>  <energy>  (36) 
-6.85

>  <cluster_rmsd>  (36) 
1.0

>  <rmsd>  (36) 
270.26

>  <cluster>  (36) 
3

$$$$
FMMHNRBASQNFIB-CUFMLMHXNA-M
     RDKit          3D

 43 46  0  0  0  0  0  0  0  0999 V2000
  135.4780   69.4021  222.3162 H   0  0  0  0  0  0  0  0  0  0  0  0
  135.9650   69.2890  223.2960 C   0  0  0  0  0  0  0  0  0  0  0  0
  137.2000   68.7720  223.3270 C   0  0  0  0  0  0  0  0  0  0  0  0
  137.4636   67.9830  222.6073 H   0  0  0  0  0  0  0  0  0  0  0  0
  138.2210   69.2250  224.2950 C   0  0  0  0  0  0  0  0  0  0  0  0
  138.4560   68.4050  225.3520 N   0  0  0  0  0  0  0  0  0  0  0  0
  139.3510   68.7170  226.3170 C   0  0  0  0  0  0  0  0  0  0  0  0
  139.5710   67.8320  227.3800 C   0  0  0  0  0  0  0  0  0  0  0  0
  139.0155   66.8839  227.4305 H   0  0  0  0  0  0  0  0  0  0  0  0
  140.4970   68.1540  228.3770 C   0  0  0  0  0  0  0  0  0  0  0  0
  140.6708   67.4577  229.2106 H   0  0  0  0  0  0  0  0  0  0  0  0
  141.2020   69.3590  228.3160 C   0  0  0  0  0  0  0  0  0  0  0  0
  141.9301   69.6091  229.1017 H   0  0  0  0  0  0  0  0  0  0  0  0
  140.9840   70.2480  227.2580 C   0  0  0  0  0  0  0  0  0  0  0  0
  141.5395   71.1964  227.2145 H   0  0  0  0  0  0  0  0  0  0  0  0
  140.0550   69.9310  226.2490 C   0  0  0  0  0  0  0  0  0  0  0  0
  139.7920   70.7910  225.1710 C   0  0  0  0  0  0  0  0  0  0  0  0
  140.3920   71.9010  225.1030 O   0  0  0  0  0  0  0  0  0  0  0  0
  138.8840   70.4350  224.1970 N   0  0  0  0  0  0  0  0  0  0  0  0
  138.5880   71.4070  223.1200 C   0  0  0  0  0  0  0  0  0  0  0  0
  137.6182   71.1455  222.6715 H   0  0  0  0  0  0  0  0  0  0  0  0
  138.5785   72.4066  223.5790 H   0  0  0  0  0  0  0  0  0  0  0  0
  139.6380   71.4290  222.0190 C   0  0  0  0  0  0  0  0  0  0  0  0
  139.8890   70.2270  221.3320 C   0  0  0  0  0  0  0  0  0  0  0  0
  139.3084   69.3270  221.5826 H   0  0  0  0  0  0  0  0  0  0  0  0
  140.8660   70.1620  220.3360 C   0  0  0  0  0  0  0  0  0  0  0  0
  141.0438   69.2170  219.8018 H   0  0  0  0  0  0  0  0  0  0  0  0
  141.6160   71.2930  220.0180 C   0  0  0  0  0  0  0  0  0  0  0  0
  142.3816   71.2419  219.2299 H   0  0  0  0  0  0  0  0  0  0  0  0
  141.3950   72.4900  220.7000 C   0  0  0  0  0  0  0  0  0  0  0  0
  141.9924   73.3792  220.4503 H   0  0  0  0  0  0  0  0  0  0  0  0
  140.4190   72.5670  221.6990 C   0  0  0  0  0  0  0  0  0  0  0  0
  140.2400   73.7820  222.3530 O   0  0  0  0  0  0  0  0  0  0  0  0
  135.2120   69.7190  224.5010 C   0  0  0  0  0  0  0  0  0  0  0  0
  134.6780   68.7350  225.3500 C   0  0  0  0  0  0  0  0  0  0  0  0
  134.8191   67.6709  225.1094 H   0  0  0  0  0  0  0  0  0  0  0  0
  133.9880   69.0890  226.4670 N   0  0  0  0  0  0  0  0  0  0  0  0
  133.7970   70.3910  226.8060 C   0  0  0  0  0  0  0  0  0  0  0  0
  133.2297   70.6449  227.7136 H   0  0  0  0  0  0  0  0  0  0  0  0
  134.3190   71.4050  226.0050 C   0  0  0  0  0  0  0  0  0  0  0  0
  134.1712   72.4600  226.2790 H   0  0  0  0  0  0  0  0  0  0  0  0
  135.0310   71.0700  224.8520 C   0  0  0  0  0  0  0  0  0  0  0  0
  135.4514   71.8633  224.2165 H   0  0  0  0  0  0  0  0  0  0  0  0
  1  2  1  0
  2  3  2  0
  3  4  1  0
  3  5  1  0
  5  6  2  0
  6  7  1  0
  7  8  2  0
  8  9  1  0
  8 10  1  0
 10 11  1  0
 10 12  2  0
 12 13  1  0
 12 14  1  0
 14 15  1  0
 14 16  2  0
 16 17  1  0
 17 18  2  0
 17 19  1  0
 19 20  1  0
 20 21  1  0
 20 22  1  0
 20 23  1  0
 23 24  2  0
 24 25  1  0
 24 26  1  0
 26 27  1  0
 26 28  2  0
 28 29  1  0
 28 30  1  0
 30 31  1  0
 30 32  2  0
 32 33  1  0
  2 34  1  0
 34 35  2  0
 35 36  1  0
 35 37  1  0
 37 38  2  0
 38 39  1  0
 38 40  1  0
 40 41  1  0
 40 42  2  0
 42 43  1  0
 19  5  1  0
 32 23  1  0
 42 34  1  0
 16  7  1  0
M  CHG  1  33  -1
M  END
>  <UniqueID>  (37) 
504

>  <SMILES>  (37) 
O=c1c2ccccc2nc(/C=C/c2cccnc2)n1Cc1ccccc1[O-]

>  <Energy>  (37) 
69.78370482222795

>  <Genealogy>  (37) 
O=c1c2ccccc2nc(/C=C/c2cccnc2)n1Cc1ccccc1[O-] (protonated)
O=c1c2ccccc2nc(/C=C/c2cccnc2)n1Cc1ccccc1[O-] (cis-trans isomerization)
O=c1c2ccccc2nc(/C=C/c2cccnc2)n1Cc1ccccc1[O-] (3D coordinates assigned)
O=c1c2ccccc2nc(/C=C/c2cccnc2)n1Cc1ccccc1[O-] (optimized conformer: 69.78370482222795 kcal/mol)

>  <smiles>  (37) 
O=c1c2ccccc2nc(/C=C/c2cccnc2)n1Cc1ccccc1O

>  <score_type>  (37) 
oracle

>  <origin>  (37) 
autodockgpu

>  <m_score__min__energy>  (37) 
-7.2699999999999996

>  <m_primary>  (37) 
energy

>  <meeko>  (37) 
{"free_energy": -7.27, "intermolecular_energy": -8.76, "internal_energy": -1.19, "cluster_size": 9, "cluster_id": 1, "rank_in_cluster": 1}

>  <energy>  (37) 
-6.78

>  <cluster_rmsd>  (37) 
0.72

>  <rmsd>  (37) 
270.32

>  <cluster>  (37) 
3

$$$$
FMMHNRBASQNFIB-CUFMLMHXNA-M
     RDKit          3D

 43 46  0  0  0  0  0  0  0  0999 V2000
  134.4968   71.3114  223.0214 H   0  0  0  0  0  0  0  0  0  0  0  0
  135.3020   71.7300  223.6430 C   0  0  0  0  0  0  0  0  0  0  0  0
  136.5010   71.1340  223.6020 C   0  0  0  0  0  0  0  0  0  0  0  0
  136.5895   70.0940  223.9494 H   0  0  0  0  0  0  0  0  0  0  0  0
  137.7090   71.8260  223.1060 C   0  0  0  0  0  0  0  0  0  0  0  0
  137.5100   73.0170  222.4860 N   0  0  0  0  0  0  0  0  0  0  0  0
  138.5330   73.7370  221.9700 C   0  0  0  0  0  0  0  0  0  0  0  0
  138.2810   74.9690  221.3530 C   0  0  0  0  0  0  0  0  0  0  0  0
  137.2516   75.3511  221.2878 H   0  0  0  0  0  0  0  0  0  0  0  0
  139.3380   75.7130  220.8200 C   0  0  0  0  0  0  0  0  0  0  0  0
  139.1393   76.6807  220.3362 H   0  0  0  0  0  0  0  0  0  0  0  0
  140.6470   75.2290  220.9010 C   0  0  0  0  0  0  0  0  0  0  0  0
  141.4767   75.8176  220.4825 H   0  0  0  0  0  0  0  0  0  0  0  0
  140.9040   73.9980  221.5130 C   0  0  0  0  0  0  0  0  0  0  0  0
  141.9349   73.6187  221.5720 H   0  0  0  0  0  0  0  0  0  0  0  0
  139.8450   73.2430  222.0540 C   0  0  0  0  0  0  0  0  0  0  0  0
  140.0470   71.9980  222.6710 C   0  0  0  0  0  0  0  0  0  0  0  0
  141.2160   71.5190  222.7330 O   0  0  0  0  0  0  0  0  0  0  0  0
  138.9840   71.2980  223.1990 N   0  0  0  0  0  0  0  0  0  0  0  0
  139.2390   69.9570  223.7750 C   0  0  0  0  0  0  0  0  0  0  0  0
  138.3186   69.3607  223.6899 H   0  0  0  0  0  0  0  0  0  0  0  0
  140.0749   69.5166  223.2118 H   0  0  0  0  0  0  0  0  0  0  0  0
  139.6550   69.9940  225.2370 C   0  0  0  0  0  0  0  0  0  0  0  0
  140.2570   71.1740  225.7140 C   0  0  0  0  0  0  0  0  0  0  0  0
  140.3792   72.0332  225.0380 H   0  0  0  0  0  0  0  0  0  0  0  0
  140.7010   71.2670  227.0350 C   0  0  0  0  0  0  0  0  0  0  0  0
  141.1602   72.1992  227.3957 H   0  0  0  0  0  0  0  0  0  0  0  0
  140.5630   70.1800  227.8970 C   0  0  0  0  0  0  0  0  0  0  0  0
  140.9099   70.2560  228.9381 H   0  0  0  0  0  0  0  0  0  0  0  0
  139.9850   68.9960  227.4390 C   0  0  0  0  0  0  0  0  0  0  0  0
  139.8815   68.1391  228.1209 H   0  0  0  0  0  0  0  0  0  0  0  0
  139.5360   68.8910  226.1180 C   0  0  0  0  0  0  0  0  0  0  0  0
  138.9720   67.6880  225.7070 O   0  0  0  0  0  0  0  0  0  0  0  0
  134.9920   72.9190  224.4740 C   0  0  0  0  0  0  0  0  0  0  0  0
  134.2400   72.7460  225.6480 C   0  0  0  0  0  0  0  0  0  0  0  0
  133.8905   71.7416  225.9292 H   0  0  0  0  0  0  0  0  0  0  0  0
  133.9410   73.8100  226.4390 N   0  0  0  0  0  0  0  0  0  0  0  0
  134.3590   75.0660  226.1350 C   0  0  0  0  0  0  0  0  0  0  0  0
  134.0962   75.9071  226.7934 H   0  0  0  0  0  0  0  0  0  0  0  0
  135.1210   75.2900  224.9890 C   0  0  0  0  0  0  0  0  0  0  0  0
  135.4662   76.3048  224.7418 H   0  0  0  0  0  0  0  0  0  0  0  0
  135.4420   74.2150  224.1580 C   0  0  0  0  0  0  0  0  0  0  0  0
  136.0476   74.3809  223.2548 H   0  0  0  0  0  0  0  0  0  0  0  0
  1  2  1  0
  2  3  2  0
  3  4  1  0
  3  5  1  0
  5  6  2  0
  6  7  1  0
  7  8  2  0
  8  9  1  0
  8 10  1  0
 10 11  1  0
 10 12  2  0
 12 13  1  0
 12 14  1  0
 14 15  1  0
 14 16  2  0
 16 17  1  0
 17 18  2  0
 17 19  1  0
 19 20  1  0
 20 21  1  0
 20 22  1  0
 20 23  1  0
 23 24  2  0
 24 25  1  0
 24 26  1  0
 26 27  1  0
 26 28  2  0
 28 29  1  0
 28 30  1  0
 30 31  1  0
 30 32  2  0
 32 33  1  0
  2 34  1  0
 34 35  2  0
 35 36  1  0
 35 37  1  0
 37 38  2  0
 38 39  1  0
 38 40  1  0
 40 41  1  0
 40 42  2  0
 42 43  1  0
 19  5  1  0
 32 23  1  0
 42 34  1  0
 16  7  1  0
M  CHG  1  33  -1
M  END
>  <UniqueID>  (38) 
504

>  <SMILES>  (38) 
O=c1c2ccccc2nc(/C=C/c2cccnc2)n1Cc1ccccc1[O-]

>  <Energy>  (38) 
69.78370482222795

>  <Genealogy>  (38) 
O=c1c2ccccc2nc(/C=C/c2cccnc2)n1Cc1ccccc1[O-] (protonated)
O=c1c2ccccc2nc(/C=C/c2cccnc2)n1Cc1ccccc1[O-] (cis-trans isomerization)
O=c1c2ccccc2nc(/C=C/c2cccnc2)n1Cc1ccccc1[O-] (3D coordinates assigned)
O=c1c2ccccc2nc(/C=C/c2cccnc2)n1Cc1ccccc1[O-] (optimized conformer: 69.78370482222795 kcal/mol)

>  <smiles>  (38) 
O=c1c2ccccc2nc(/C=C/c2cccnc2)n1Cc1ccccc1O

>  <score_type>  (38) 
oracle

>  <origin>  (38) 
autodockgpu

>  <m_score__min__energy>  (38) 
-7.2699999999999996

>  <m_primary>  (38) 
energy

>  <meeko>  (38) 
{"free_energy": -7.09, "intermolecular_energy": -8.58, "internal_energy": -1.09, "cluster_size": 5, "cluster_id": 2, "rank_in_cluster": 2}

>  <energy>  (38) 
-6.29

>  <cluster_rmsd>  (38) 
0.0

>  <rmsd>  (38) 
271.66

>  <cluster>  (38) 
4

$$$$
FMMHNRBASQNFIB-CUFMLMHXNA-M
     RDKit          3D

 43 46  0  0  0  0  0  0  0  0999 V2000
  134.6076   71.2164  222.7901 H   0  0  0  0  0  0  0  0  0  0  0  0
  135.3260   71.1240  223.6180 C   0  0  0  0  0  0  0  0  0  0  0  0
  136.5930   70.8100  223.3180 C   0  0  0  0  0  0  0  0  0  0  0  0
  136.9022   69.7551  223.3573 H   0  0  0  0  0  0  0  0  0  0  0  0
  137.5900   71.8320  222.9360 C   0  0  0  0  0  0  0  0  0  0  0  0
  137.1030   72.9750  222.3870 N   0  0  0  0  0  0  0  0  0  0  0  0
  137.9140   73.9770  221.9770 C   0  0  0  0  0  0  0  0  0  0  0  0
  137.3640   75.1440  221.4320 C   0  0  0  0  0  0  0  0  0  0  0  0
  136.2729   75.2460  221.3369 H   0  0  0  0  0  0  0  0  0  0  0  0
  138.2030   76.1790  221.0090 C   0  0  0  0  0  0  0  0  0  0  0  0
  137.7708   77.0962  220.5824 H   0  0  0  0  0  0  0  0  0  0  0  0
  139.5900   76.0510  221.1270 C   0  0  0  0  0  0  0  0  0  0  0  0
  140.2470   76.8675  220.7928 H   0  0  0  0  0  0  0  0  0  0  0  0
  140.1440   74.8870  221.6690 C   0  0  0  0  0  0  0  0  0  0  0  0
  141.2359   74.7893  221.7595 H   0  0  0  0  0  0  0  0  0  0  0  0
  139.3070   73.8400  222.0990 C   0  0  0  0  0  0  0  0  0  0  0  0
  139.8110   72.6470  222.6410 C   0  0  0  0  0  0  0  0  0  0  0  0
  141.0620   72.4890  222.7340 O   0  0  0  0  0  0  0  0  0  0  0  0
  138.9560   71.6530  223.0620 N   0  0  0  0  0  0  0  0  0  0  0  0
  139.5380   70.3850  223.5590 C   0  0  0  0  0  0  0  0  0  0  0  0
  138.8509   69.5639  223.3065 H   0  0  0  0  0  0  0  0  0  0  0  0
  140.5205   70.2693  223.0781 H   0  0  0  0  0  0  0  0  0  0  0  0
  139.7710   70.3730  225.0620 C   0  0  0  0  0  0  0  0  0  0  0  0
  140.4180   71.4860  225.6310 C   0  0  0  0  0  0  0  0  0  0  0  0
  140.7037   72.3337  224.9909 H   0  0  0  0  0  0  0  0  0  0  0  0
  140.7020   71.5280  226.9980 C   0  0  0  0  0  0  0  0  0  0  0  0
  141.2005   72.4088  227.4289 H   0  0  0  0  0  0  0  0  0  0  0  0
  140.3540   70.4540  227.8170 C   0  0  0  0  0  0  0  0  0  0  0  0
  140.5728   70.4903  228.8944 H   0  0  0  0  0  0  0  0  0  0  0  0
  139.7280   69.3330  227.2690 C   0  0  0  0  0  0  0  0  0  0  0  0
  139.4604   68.4852  227.9168 H   0  0  0  0  0  0  0  0  0  0  0  0
  139.4390   69.2810  225.9020 C   0  0  0  0  0  0  0  0  0  0  0  0
  138.8190   68.1400  225.4030 O   0  0  0  0  0  0  0  0  0  0  0  0
  134.8310   71.3550  224.9980 C   0  0  0  0  0  0  0  0  0  0  0  0
  134.4190   72.6480  225.3600 C   0  0  0  0  0  0  0  0  0  0  0  0
  134.4736   73.4644  224.6248 H   0  0  0  0  0  0  0  0  0  0  0  0
  133.9530   72.8980  226.6130 N   0  0  0  0  0  0  0  0  0  0  0  0
  133.8610   71.9190  227.5490 C   0  0  0  0  0  0  0  0  0  0  0  0
  133.4836   72.1546  228.5550 H   0  0  0  0  0  0  0  0  0  0  0  0
  134.2440   70.6160  227.2370 C   0  0  0  0  0  0  0  0  0  0  0  0
  134.1666   69.8191  227.9913 H   0  0  0  0  0  0  0  0  0  0  0  0
  134.7270   70.3310  225.9580 C   0  0  0  0  0  0  0  0  0  0  0  0
  135.0267   69.3044  225.7004 H   0  0  0  0  0  0  0  0  0  0  0  0
  1  2  1  0
  2  3  2  0
  3  4  1  0
  3  5  1  0
  5  6  2  0
  6  7  1  0
  7  8  2  0
  8  9  1  0
  8 10  1  0
 10 11  1  0
 10 12  2  0
 12 13  1  0
 12 14  1  0
 14 15  1  0
 14 16  2  0
 16 17  1  0
 17 18  2  0
 17 19  1  0
 19 20  1  0
 20 21  1  0
 20 22  1  0
 20 23  1  0
 23 24  2  0
 24 25  1  0
 24 26  1  0
 26 27  1  0
 26 28  2  0
 28 29  1  0
 28 30  1  0
 30 31  1  0
 30 32  2  0
 32 33  1  0
  2 34  1  0
 34 35  2  0
 35 36  1  0
 35 37  1  0
 37 38  2  0
 38 39  1  0
 38 40  1  0
 40 41  1  0
 40 42  2  0
 42 43  1  0
 19  5  1  0
 32 23  1  0
 42 34  1  0
 16  7  1  0
M  CHG  1  33  -1
M  END
>  <UniqueID>  (39) 
504

>  <SMILES>  (39) 
O=c1c2ccccc2nc(/C=C/c2cccnc2)n1Cc1ccccc1[O-]

>  <Energy>  (39) 
69.78370482222795

>  <Genealogy>  (39) 
O=c1c2ccccc2nc(/C=C/c2cccnc2)n1Cc1ccccc1[O-] (protonated)
O=c1c2ccccc2nc(/C=C/c2cccnc2)n1Cc1ccccc1[O-] (cis-trans isomerization)
O=c1c2ccccc2nc(/C=C/c2cccnc2)n1Cc1ccccc1[O-] (3D coordinates assigned)
O=c1c2ccccc2nc(/C=C/c2cccnc2)n1Cc1ccccc1[O-] (optimized conformer: 69.78370482222795 kcal/mol)

>  <smiles>  (39) 
O=c1c2ccccc2nc(/C=C/c2cccnc2)n1Cc1ccccc1O

>  <score_type>  (39) 
oracle

>  <origin>  (39) 
autodockgpu

>  <m_score__min__energy>  (39) 
-7.2699999999999996

>  <m_primary>  (39) 
energy

>  <meeko>  (39) 
{"free_energy": -6.79, "intermolecular_energy": -8.28, "internal_energy": -1.15, "cluster_size": 5, "cluster_id": 2, "rank_in_cluster": 5}

>  <energy>  (39) 
-6.28

>  <cluster_rmsd>  (39) 
0.11

>  <rmsd>  (39) 
271.69

>  <cluster>  (39) 
4

$$$$
FMMHNRBASQNFIB-CUFMLMHXNA-M
     RDKit          3D

 43 46  0  0  0  0  0  0  0  0999 V2000
  135.4467   68.0100  222.9103 H   0  0  0  0  0  0  0  0  0  0  0  0
  135.9890   68.8370  223.3920 C   0  0  0  0  0  0  0  0  0  0  0  0
  137.2440   69.0810  222.9930 C   0  0  0  0  0  0  0  0  0  0  0  0
  137.5363   68.8138  221.9668 H   0  0  0  0  0  0  0  0  0  0  0  0
  138.2500   69.6970  223.8840 C   0  0  0  0  0  0  0  0  0  0  0  0
  138.3120   69.2120  225.1510 N   0  0  0  0  0  0  0  0  0  0  0  0
  139.1760   69.7060  226.0670 C   0  0  0  0  0  0  0  0  0  0  0  0
  139.2150   69.1620  227.3570 C   0  0  0  0  0  0  0  0  0  0  0  0
  138.5434   68.3331  227.6251 H   0  0  0  0  0  0  0  0  0  0  0  0
  140.1080   69.6730  228.3040 C   0  0  0  0  0  0  0  0  0  0  0  0
  140.1394   69.2443  229.3165 H   0  0  0  0  0  0  0  0  0  0  0  0
  140.9610   70.7280  227.9660 C   0  0  0  0  0  0  0  0  0  0  0  0
  141.6625   71.1277  228.7131 H   0  0  0  0  0  0  0  0  0  0  0  0
  140.9240   71.2760  226.6800 C   0  0  0  0  0  0  0  0  0  0  0  0
  141.5957   72.1068  226.4183 H   0  0  0  0  0  0  0  0  0  0  0  0
  140.0290   70.7670  225.7190 C   0  0  0  0  0  0  0  0  0  0  0  0
  139.9450   71.2870  224.4180 C   0  0  0  0  0  0  0  0  0  0  0  0
  140.6820   72.2600  224.0900 O   0  0  0  0  0  0  0  0  0  0  0  0
  139.0640   70.7490  223.5050 N   0  0  0  0  0  0  0  0  0  0  0  0
  138.9610   71.3790  222.1690 C   0  0  0  0  0  0  0  0  0  0  0  0
  139.9705   71.4471  221.7375 H   0  0  0  0  0  0  0  0  0  0  0  0
  138.2908   70.7495  221.5653 H   0  0  0  0  0  0  0  0  0  0  0  0
  138.3560   72.7740  222.2010 C   0  0  0  0  0  0  0  0  0  0  0  0
  136.9550   72.8750  222.2930 C   0  0  0  0  0  0  0  0  0  0  0  0
  136.3486   71.9606  222.3706 H   0  0  0  0  0  0  0  0  0  0  0  0
  136.3250   74.1220  222.2870 C   0  0  0  0  0  0  0  0  0  0  0  0
  135.2299   74.1851  222.3691 H   0  0  0  0  0  0  0  0  0  0  0  0
  137.0840   75.2870  222.1770 C   0  0  0  0  0  0  0  0  0  0  0  0
  136.5875   76.2686  222.1770 H   0  0  0  0  0  0  0  0  0  0  0  0
  138.4720   75.2080  222.0670 C   0  0  0  0  0  0  0  0  0  0  0  0
  139.0662   76.1292  221.9765 H   0  0  0  0  0  0  0  0  0  0  0  0
  139.1140   73.9640  222.0710 C   0  0  0  0  0  0  0  0  0  0  0  0
  140.4990   73.9380  221.9540 O   0  0  0  0  0  0  0  0  0  0  0  0
  135.2840   69.6120  224.4430 C   0  0  0  0  0  0  0  0  0  0  0  0
  134.6140   68.9160  225.4620 C   0  0  0  0  0  0  0  0  0  0  0  0
  134.6158   67.8160  225.4643 H   0  0  0  0  0  0  0  0  0  0  0  0
  133.9630   69.5920  226.4460 N   0  0  0  0  0  0  0  0  0  0  0  0
  133.9410   70.9490  226.4870 C   0  0  0  0  0  0  0  0  0  0  0  0
  133.4011   71.4657  227.2942 H   0  0  0  0  0  0  0  0  0  0  0  0
  134.6020   71.6880  225.5070 C   0  0  0  0  0  0  0  0  0  0  0  0
  134.5905   72.7875  225.5391 H   0  0  0  0  0  0  0  0  0  0  0  0
  135.2790   71.0200  224.4840 C   0  0  0  0  0  0  0  0  0  0  0  0
  135.8088   71.5941  223.7096 H   0  0  0  0  0  0  0  0  0  0  0  0
  1  2  1  0
  2  3  2  0
  3  4  1  0
  3  5  1  0
  5  6  2  0
  6  7  1  0
  7  8  2  0
  8  9  1  0
  8 10  1  0
 10 11  1  0
 10 12  2  0
 12 13  1  0
 12 14  1  0
 14 15  1  0
 14 16  2  0
 16 17  1  0
 17 18  2  0
 17 19  1  0
 19 20  1  0
 20 21  1  0
 20 22  1  0
 20 23  1  0
 23 24  2  0
 24 25  1  0
 24 26  1  0
 26 27  1  0
 26 28  2  0
 28 29  1  0
 28 30  1  0
 30 31  1  0
 30 32  2  0
 32 33  1  0
  2 34  1  0
 34 35  2  0
 35 36  1  0
 35 37  1  0
 37 38  2  0
 38 39  1  0
 38 40  1  0
 40 41  1  0
 40 42  2  0
 42 43  1  0
 19  5  1  0
 32 23  1  0
 42 34  1  0
 16  7  1  0
M  CHG  1  33  -1
M  END
>  <UniqueID>  (40) 
504

>  <SMILES>  (40) 
O=c1c2ccccc2nc(/C=C/c2cccnc2)n1Cc1ccccc1[O-]

>  <Energy>  (40) 
69.78370482222795

>  <Genealogy>  (40) 
O=c1c2ccccc2nc(/C=C/c2cccnc2)n1Cc1ccccc1[O-] (protonated)
O=c1c2ccccc2nc(/C=C/c2cccnc2)n1Cc1ccccc1[O-] (cis-trans isomerization)
O=c1c2ccccc2nc(/C=C/c2cccnc2)n1Cc1ccccc1[O-] (3D coordinates assigned)
O=c1c2ccccc2nc(/C=C/c2cccnc2)n1Cc1ccccc1[O-] (optimized conformer: 69.78370482222795 kcal/mol)

>  <smiles>  (40) 
O=c1c2ccccc2nc(/C=C/c2cccnc2)n1Cc1ccccc1O

>  <score_type>  (40) 
oracle

>  <origin>  (40) 
autodockgpu

>  <m_score__min__energy>  (40) 
-7.2699999999999996

>  <m_primary>  (40) 
energy

>  <meeko>  (40) 
{"free_energy": -6.7, "intermolecular_energy": -8.19, "internal_energy": -1.35, "cluster_size": 9, "cluster_id": 1, "rank_in_cluster": 9}

>  <energy>  (40) 
-5.85

>  <cluster_rmsd>  (40) 
1.82

>  <rmsd>  (40) 
271.66

>  <cluster>  (40) 
4

$$$$
