
     RDKit          3D

 63 66  0  0  0  0  0  0  0  0999 V2000
  142.8870   80.9380  223.9260 C   0  0  0  0  0  0  0  0  0  0  0  0
  141.4480   81.0750  223.6060 N   0  0  0  0  0  0  0  0  0  0  0  0
  141.4400   81.8710  222.3880 C   0  0  0  0  0  0  0  0  0  0  0  0
  140.8670   79.7900  223.4360 C   0  0  0  0  0  0  0  0  0  0  0  0
  141.7800   78.6850  222.9950 C   0  0  0  0  0  0  0  0  0  0  0  0
  141.3090   77.9680  221.8280 N   0  0  0  0  0  0  0  0  0  0  0  0
  141.4820   78.6760  220.5500 C   0  0  0  0  0  0  0  0  0  0  0  0
  140.7150   76.6770  221.8750 C   0  0  0  0  0  0  0  0  0  0  0  0
  141.3950   75.5270  221.5330 C   0  0  0  0  0  0  0  0  0  0  0  0
  140.7860   74.2660  221.5930 C   0  0  0  0  0  0  0  0  0  0  0  0
  139.4760   74.1110  221.9960 C   0  0  0  0  0  0  0  0  0  0  0  0
  138.8870   72.7830  222.0380 C   0  0  0  0  0  0  0  0  0  0  0  0
  139.5430   71.6590  222.0870 C   0  0  0  0  0  0  0  0  0  0  0  0
  139.6580   70.8630  223.3170 C   0  0  0  0  0  0  0  0  0  0  0  0
  140.1730   71.5200  224.3850 N   0  0  0  0  0  0  0  0  0  0  0  0
  140.3650   70.9190  225.5650 C   0  0  0  0  0  0  0  0  0  0  0  0
  140.8880   71.5650  226.6650 C   0  0  0  0  0  0  0  0  0  0  0  0
  141.0750   70.9190  227.8710 C   0  0  0  0  0  0  0  0  0  0  0  0
  140.7090   69.5810  227.9240 C   0  0  0  0  0  0  0  0  0  0  0  0
  140.8970   68.9530  229.1150 F   0  0  0  0  0  0  0  0  0  0  0  0
  140.1860   68.9070  226.8490 C   0  0  0  0  0  0  0  0  0  0  0  0
  140.0070   69.5830  225.6430 C   0  0  0  0  0  0  0  0  0  0  0  0
  139.4830   68.9370  224.5410 C   0  0  0  0  0  0  0  0  0  0  0  0
  139.1870   67.7230  224.7010 O   0  0  0  0  0  0  0  0  0  0  0  0
  139.2980   69.5760  223.3490 N   0  0  0  0  0  0  0  0  0  0  0  0
  138.7540   68.8680  222.2310 C   0  0  0  0  0  0  0  0  0  0  0  0
  137.3410   68.4570  222.3800 C   0  0  0  0  0  0  0  0  0  0  0  0
  136.4730   69.2260  223.1680 C   0  0  0  0  0  0  0  0  0  0  0  0
  135.1450   68.8820  223.3330 C   0  0  0  0  0  0  0  0  0  0  0  0
  134.6130   67.7740  222.7370 C   0  0  0  0  0  0  0  0  0  0  0  0
  135.4380   67.0030  221.9610 C   0  0  0  0  0  0  0  0  0  0  0  0
  136.7800   67.3490  221.7930 C   0  0  0  0  0  0  0  0  0  0  0  0
  138.7960   75.2550  222.3380 C   0  0  0  0  0  0  0  0  0  0  0  0
  139.4040   76.5170  222.2790 C   0  0  0  0  0  0  0  0  0  0  0  0
  143.0202   80.9253  225.0178 H   0  0  0  0  0  0  0  0  0  0  0  0
  143.2698   79.9994  223.4990 H   0  0  0  0  0  0  0  0  0  0  0  0
  143.4401   81.7876  223.4990 H   0  0  0  0  0  0  0  0  0  0  0  0
  141.4293   82.9397  222.6485 H   0  0  0  0  0  0  0  0  0  0  0  0
  142.3404   81.6466  221.7974 H   0  0  0  0  0  0  0  0  0  0  0  0
  140.5442   81.6285  221.7974 H   0  0  0  0  0  0  0  0  0  0  0  0
  140.4283   79.4936  224.4002 H   0  0  0  0  0  0  0  0  0  0  0  0
  140.1438   79.9088  222.6157 H   0  0  0  0  0  0  0  0  0  0  0  0
  142.7631   79.1198  222.7615 H   0  0  0  0  0  0  0  0  0  0  0  0
  141.8259   77.9589  223.8201 H   0  0  0  0  0  0  0  0  0  0  0  0
  141.7389   79.7276  220.7453 H   0  0  0  0  0  0  0  0  0  0  0  0
  142.2907   78.2017  219.9746 H   0  0  0  0  0  0  0  0  0  0  0  0
  140.5457   78.6281  219.9746 H   0  0  0  0  0  0  0  0  0  0  0  0
  142.4422   75.6013  221.2047 H   0  0  0  0  0  0  0  0  0  0  0  0
  141.3683   73.3763  221.3112 H   0  0  0  0  0  0  0  0  0  0  0  0
  137.7888   72.7218  222.0274 H   0  0  0  0  0  0  0  0  0  0  0  0
  140.0301   71.2910  221.1719 H   0  0  0  0  0  0  0  0  0  0  0  0
  141.1644   72.6263  226.5794 H   0  0  0  0  0  0  0  0  0  0  0  0
  141.4930   71.4386  228.7458 H   0  0  0  0  0  0  0  0  0  0  0  0
  139.9112   67.8456  226.9379 H   0  0  0  0  0  0  0  0  0  0  0  0
  138.8292   69.5173  221.3463 H   0  0  0  0  0  0  0  0  0  0  0  0
  139.3369   67.9394  222.1415 H   0  0  0  0  0  0  0  0  0  0  0  0
  136.8593   70.1265  223.6678 H   0  0  0  0  0  0  0  0  0  0  0  0
  134.5004   69.5159  223.9596 H   0  0  0  0  0  0  0  0  0  0  0  0
  133.5545   67.5088  222.8758 H   0  0  0  0  0  0  0  0  0  0  0  0
  135.0399   66.1046  221.4666 H   0  0  0  0  0  0  0  0  0  0  0  0
  137.4148   66.7075  221.1642 H   0  0  0  0  0  0  0  0  0  0  0  0
  137.7489   75.1788  222.6661 H   0  0  0  0  0  0  0  0  0  0  0  0
  138.8202   77.4051  222.5626 H   0  0  0  0  0  0  0  0  0  0  0  0
  1  2  1  0
  2  3  1  0
  2  4  1  0
  4  5  1  0
  5  6  1  0
  6  7  1  0
  6  8  1  0
  8  9  2  0
  9 10  1  0
 10 11  2  0
 11 12  1  0
 12 13  2  0
 13 14  1  0
 14 15  2  0
 15 16  1  0
 16 17  2  0
 17 18  1  0
 18 19  2  0
 19 20  1  0
 19 21  1  0
 21 22  2  0
 22 23  1  0
 23 24  2  0
 23 25  1  0
 25 26  1  0
 26 27  1  0
 27 28  2  0
 28 29  1  0
 29 30  2  0
 30 31  1  0
 31 32  2  0
 11 33  1  0
 33 34  2  0
 34  8  1  0
 25 14  1  0
 32 27  1  0
 22 16  1  0
  1 35  1  0
  1 36  1  0
  1 37  1  0
  3 38  1  0
  3 39  1  0
  3 40  1  0
  4 41  1  0
  4 42  1  0
  5 43  1  0
  5 44  1  0
  7 45  1  0
  7 46  1  0
  7 47  1  0
  9 48  1  0
 10 49  1  0
 12 50  1  0
 13 51  1  0
 17 52  1  0
 18 53  1  0
 21 54  1  0
 26 55  1  0
 26 56  1  0
 28 57  1  0
 29 58  1  0
 30 59  1  0
 31 60  1  0
 32 61  1  0
 33 62  1  0
 34 63  1  0
M  END
>  <smiles>  (1) 
CN(C)CCN(C)c1ccc(/C=C/c2nc3ccc(F)cc3c(=O)n2Cc2ccccc2)cc1

>  <score_type>  (1) 
oracle

>  <origin>  (1) 
autodockgpu

>  <m_score__min__energy>  (1) 
-8.2899999999999991

>  <m_primary>  (1) 
energy

>  <meeko>  (1) 
{"free_energy": -8.07, "intermolecular_energy": -10.76, "internal_energy": -1.62, "cluster_size": 11, "cluster_id": 1, "rank_in_cluster": 3}

>  <energy>  (1) 
-8.29

>  <cluster_rmsd>  (1) 
0.0

>  <rmsd>  (1) 
271.28

>  <cluster>  (1) 
1

$$$$

     RDKit          3D

 63 66  0  0  0  0  0  0  0  0999 V2000
  143.3020   80.5080  223.3790 C   0  0  0  0  0  0  0  0  0  0  0  0
  141.8820   80.6680  223.7650 N   0  0  0  0  0  0  0  0  0  0  0  0
  141.3370   81.5280  222.7240 C   0  0  0  0  0  0  0  0  0  0  0  0
  141.2510   79.3970  223.8240 C   0  0  0  0  0  0  0  0  0  0  0  0
  140.2600   79.0810  222.7430 C   0  0  0  0  0  0  0  0  0  0  0  0
  140.7130   78.0690  221.8110 N   0  0  0  0  0  0  0  0  0  0  0  0
  141.6790   78.5380  220.8050 C   0  0  0  0  0  0  0  0  0  0  0  0
  140.2760   76.7160  221.8320 C   0  0  0  0  0  0  0  0  0  0  0  0
  141.1260   75.6520  221.6150 C   0  0  0  0  0  0  0  0  0  0  0  0
  140.6680   74.3270  221.6450 C   0  0  0  0  0  0  0  0  0  0  0  0
  139.3470   74.0200  221.8940 C   0  0  0  0  0  0  0  0  0  0  0  0
  138.9200   72.6320  221.9110 C   0  0  0  0  0  0  0  0  0  0  0  0
  139.6990   71.5950  222.0350 C   0  0  0  0  0  0  0  0  0  0  0  0
  139.7700   70.8020  223.2700 C   0  0  0  0  0  0  0  0  0  0  0  0
  140.2910   71.4480  224.3430 N   0  0  0  0  0  0  0  0  0  0  0  0
  140.4460   70.8470  225.5290 C   0  0  0  0  0  0  0  0  0  0  0  0
  140.9730   71.4810  226.6330 C   0  0  0  0  0  0  0  0  0  0  0  0
  141.1210   70.8360  227.8450 C   0  0  0  0  0  0  0  0  0  0  0  0
  140.7120   69.5100  227.8990 C   0  0  0  0  0  0  0  0  0  0  0  0
  140.8620   68.8820  229.0950 F   0  0  0  0  0  0  0  0  0  0  0  0
  140.1830   68.8480  226.8190 C   0  0  0  0  0  0  0  0  0  0  0  0
  140.0440   69.5240  225.6080 C   0  0  0  0  0  0  0  0  0  0  0  0
  139.5160   68.8890  224.5000 C   0  0  0  0  0  0  0  0  0  0  0  0
  139.1780   67.6870  224.6610 O   0  0  0  0  0  0  0  0  0  0  0  0
  139.3700   69.5280  223.3030 N   0  0  0  0  0  0  0  0  0  0  0  0
  138.8190   68.8320  222.1800 C   0  0  0  0  0  0  0  0  0  0  0  0
  137.4100   68.4100  222.3360 C   0  0  0  0  0  0  0  0  0  0  0  0
  136.5250   69.2060  223.0760 C   0  0  0  0  0  0  0  0  0  0  0  0
  135.1990   68.8530  223.2460 C   0  0  0  0  0  0  0  0  0  0  0  0
  134.6880   67.7100  222.7020 C   0  0  0  0  0  0  0  0  0  0  0  0
  135.5310   66.9110  221.9740 C   0  0  0  0  0  0  0  0  0  0  0  0
  136.8700   67.2670  221.8010 C   0  0  0  0  0  0  0  0  0  0  0  0
  138.4980   75.0790  222.1120 C   0  0  0  0  0  0  0  0  0  0  0  0
  138.9540   76.4050  222.0820 C   0  0  0  0  0  0  0  0  0  0  0  0
  143.9225   80.4381  224.2846 H   0  0  0  0  0  0  0  0  0  0  0  0
  143.4188   79.5910  222.7828 H   0  0  0  0  0  0  0  0  0  0  0  0
  143.6199   81.3760  222.7828 H   0  0  0  0  0  0  0  0  0  0  0  0
  140.8029   82.3708  223.1870 H   0  0  0  0  0  0  0  0  0  0  0  0
  142.1568   81.9122  222.0993 H   0  0  0  0  0  0  0  0  0  0  0  0
  140.6396   80.9507  222.0993 H   0  0  0  0  0  0  0  0  0  0  0  0
  142.0404   78.6319  223.7853 H   0  0  0  0  0  0  0  0  0  0  0  0
  140.6655   79.4102  224.7552 H   0  0  0  0  0  0  0  0  0  0  0  0
  139.3324   78.7263  223.2160 H   0  0  0  0  0  0  0  0  0  0  0  0
  140.1117   80.0050  222.1648 H   0  0  0  0  0  0  0  0  0  0  0  0
  142.5576   78.9645  221.3112 H   0  0  0  0  0  0  0  0  0  0  0  0
  141.9931   77.6921  220.1759 H   0  0  0  0  0  0  0  0  0  0  0  0
  141.2085   79.3080  220.1759 H   0  0  0  0  0  0  0  0  0  0  0  0
  142.1896   75.8475  221.4134 H   0  0  0  0  0  0  0  0  0  0  0  0
  141.3822   73.5100  221.4649 H   0  0  0  0  0  0  0  0  0  0  0  0
  137.8418   72.4388  221.8101 H   0  0  0  0  0  0  0  0  0  0  0  0
  140.3282   71.3017  221.1817 H   0  0  0  0  0  0  0  0  0  0  0  0
  141.2851   72.5322  226.5463 H   0  0  0  0  0  0  0  0  0  0  0  0
  141.5418   71.3469  228.7236 H   0  0  0  0  0  0  0  0  0  0  0  0
  139.8725   67.7965  226.9082 H   0  0  0  0  0  0  0  0  0  0  0  0
  138.8819   69.4941  221.3038 H   0  0  0  0  0  0  0  0  0  0  0  0
  139.4064   67.9082  222.0724 H   0  0  0  0  0  0  0  0  0  0  0  0
  136.8949   70.1355  223.5333 H   0  0  0  0  0  0  0  0  0  0  0  0
  134.5400   69.5090  223.8337 H   0  0  0  0  0  0  0  0  0  0  0  0
  133.6315   67.4383  222.8436 H   0  0  0  0  0  0  0  0  0  0  0  0
  135.1500   65.9829  221.5230 H   0  0  0  0  0  0  0  0  0  0  0  0
  137.5195   66.6036  221.2111 H   0  0  0  0  0  0  0  0  0  0  0  0
  137.4351   74.8816  222.3149 H   0  0  0  0  0  0  0  0  0  0  0  0
  138.2382   77.2204  222.2628 H   0  0  0  0  0  0  0  0  0  0  0  0
  1  2  1  0
  2  3  1  0
  2  4  1  0
  4  5  1  0
  5  6  1  0
  6  7  1  0
  6  8  1  0
  8  9  2  0
  9 10  1  0
 10 11  2  0
 11 12  1  0
 12 13  2  0
 13 14  1  0
 14 15  2  0
 15 16  1  0
 16 17  2  0
 17 18  1  0
 18 19  2  0
 19 20  1  0
 19 21  1  0
 21 22  2  0
 22 23  1  0
 23 24  2  0
 23 25  1  0
 25 26  1  0
 26 27  1  0
 27 28  2  0
 28 29  1  0
 29 30  2  0
 30 31  1  0
 31 32  2  0
 11 33  1  0
 33 34  2  0
 34  8  1  0
 25 14  1  0
 32 27  1  0
 22 16  1  0
  1 35  1  0
  1 36  1  0
  1 37  1  0
  3 38  1  0
  3 39  1  0
  3 40  1  0
  4 41  1  0
  4 42  1  0
  5 43  1  0
  5 44  1  0
  7 45  1  0
  7 46  1  0
  7 47  1  0
  9 48  1  0
 10 49  1  0
 12 50  1  0
 13 51  1  0
 17 52  1  0
 18 53  1  0
 21 54  1  0
 26 55  1  0
 26 56  1  0
 28 57  1  0
 29 58  1  0
 30 59  1  0
 31 60  1  0
 32 61  1  0
 33 62  1  0
 34 63  1  0
M  END
>  <smiles>  (2) 
CN(C)CCN(C)c1ccc(/C=C/c2nc3ccc(F)cc3c(=O)n2Cc2ccccc2)cc1

>  <score_type>  (2) 
oracle

>  <origin>  (2) 
autodockgpu

>  <m_score__min__energy>  (2) 
-8.2899999999999991

>  <m_primary>  (2) 
energy

>  <meeko>  (2) 
{"free_energy": -8.01, "intermolecular_energy": -10.69, "internal_energy": -1.64, "cluster_size": 11, "cluster_id": 1, "rank_in_cluster": 5}

>  <energy>  (2) 
-8.2

>  <cluster_rmsd>  (2) 
0.57

>  <rmsd>  (2) 
271.3

>  <cluster>  (2) 
1

$$$$

     RDKit          3D

 63 66  0  0  0  0  0  0  0  0999 V2000
  143.0740   80.4840  223.3470 C   0  0  0  0  0  0  0  0  0  0  0  0
  142.1730   79.4510  222.7880 N   0  0  0  0  0  0  0  0  0  0  0  0
  141.8070   78.6500  223.9460 C   0  0  0  0  0  0  0  0  0  0  0  0
  141.0570   80.0700  222.1650 C   0  0  0  0  0  0  0  0  0  0  0  0
  140.3700   79.2960  221.0790 C   0  0  0  0  0  0  0  0  0  0  0  0
  139.3360   78.4040  221.5620 N   0  0  0  0  0  0  0  0  0  0  0  0
  138.0770   79.0610  221.9480 C   0  0  0  0  0  0  0  0  0  0  0  0
  139.4910   76.9940  221.6740 C   0  0  0  0  0  0  0  0  0  0  0  0
  140.7170   76.3690  221.5930 C   0  0  0  0  0  0  0  0  0  0  0  0
  140.8430   74.9770  221.7100 C   0  0  0  0  0  0  0  0  0  0  0  0
  139.7470   74.1640  221.9120 C   0  0  0  0  0  0  0  0  0  0  0  0
  139.9270   72.7270  222.0240 C   0  0  0  0  0  0  0  0  0  0  0  0
  139.0310   71.8740  222.4320 C   0  0  0  0  0  0  0  0  0  0  0  0
  139.2480   70.9870  223.5830 C   0  0  0  0  0  0  0  0  0  0  0  0
  139.8810   71.5550  224.6390 N   0  0  0  0  0  0  0  0  0  0  0  0
  140.1740   70.8650  225.7480 C   0  0  0  0  0  0  0  0  0  0  0  0
  140.8180   71.4190  226.8330 C   0  0  0  0  0  0  0  0  0  0  0  0
  141.1080   70.6820  227.9650 C   0  0  0  0  0  0  0  0  0  0  0  0
  140.7180   69.3500  227.9570 C   0  0  0  0  0  0  0  0  0  0  0  0
  141.0080   68.6320  229.0750 F   0  0  0  0  0  0  0  0  0  0  0  0
  140.0760   68.7660  226.8940 C   0  0  0  0  0  0  0  0  0  0  0  0
  139.7950   69.5330  225.7640 C   0  0  0  0  0  0  0  0  0  0  0  0
  139.1500   68.9790  224.6760 C   0  0  0  0  0  0  0  0  0  0  0  0
  138.8420   67.7620  224.7770 O   0  0  0  0  0  0  0  0  0  0  0  0
  138.8630   69.7080  223.5580 N   0  0  0  0  0  0  0  0  0  0  0  0
  138.1950   69.0940  222.4520 C   0  0  0  0  0  0  0  0  0  0  0  0
  139.0160   68.1390  221.6760 C   0  0  0  0  0  0  0  0  0  0  0  0
  139.9940   68.6210  220.7950 C   0  0  0  0  0  0  0  0  0  0  0  0
  140.7860   67.7670  220.0510 C   0  0  0  0  0  0  0  0  0  0  0  0
  140.6540   66.4110  220.1390 C   0  0  0  0  0  0  0  0  0  0  0  0
  139.7060   65.9110  220.9930 C   0  0  0  0  0  0  0  0  0  0  0  0
  138.9050   66.7730  221.7450 C   0  0  0  0  0  0  0  0  0  0  0  0
  138.5240   74.7850  221.9940 C   0  0  0  0  0  0  0  0  0  0  0  0
  138.3980   76.1770  221.8770 C   0  0  0  0  0  0  0  0  0  0  0  0
  143.0398   80.4447  224.4458 H   0  0  0  0  0  0  0  0  0  0  0  0
  144.1027   80.2971  223.0053 H   0  0  0  0  0  0  0  0  0  0  0  0
  142.7490   81.4778  223.0053 H   0  0  0  0  0  0  0  0  0  0  0  0
  142.0578   79.1990  224.8656 H   0  0  0  0  0  0  0  0  0  0  0  0
  140.7263   78.4460  223.9240 H   0  0  0  0  0  0  0  0  0  0  0  0
  142.3601   77.6994  223.9240 H   0  0  0  0  0  0  0  0  0  0  0  0
  140.3122   80.2771  222.9475 H   0  0  0  0  0  0  0  0  0  0  0  0
  141.4650   80.9620  221.6671 H   0  0  0  0  0  0  0  0  0  0  0  0
  139.9123   80.0111  220.3796 H   0  0  0  0  0  0  0  0  0  0  0  0
  141.1356   78.6690  220.5986 H   0  0  0  0  0  0  0  0  0  0  0  0
  138.0045   79.0988  223.0450 H   0  0  0  0  0  0  0  0  0  0  0  0
  138.0582   80.0839  221.5438 H   0  0  0  0  0  0  0  0  0  0  0  0
  137.2272   78.4914  221.5438 H   0  0  0  0  0  0  0  0  0  0  0  0
  141.6193   76.9774  221.4326 H   0  0  0  0  0  0  0  0  0  0  0  0
  141.8418   74.5217  221.6388 H   0  0  0  0  0  0  0  0  0  0  0  0
  140.9092   72.3223  221.7383 H   0  0  0  0  0  0  0  0  0  0  0  0
  138.0737   71.8155  221.8933 H   0  0  0  0  0  0  0  0  0  0  0  0
  141.1097   72.4790  226.7967 H   0  0  0  0  0  0  0  0  0  0  0  0
  141.6220   71.1283  228.8290 H   0  0  0  0  0  0  0  0  0  0  0  0
  139.7865   67.7055  226.9329 H   0  0  0  0  0  0  0  0  0  0  0  0
  137.3189   68.5537  222.8400 H   0  0  0  0  0  0  0  0  0  0  0  0
  137.9354   69.9085  221.7598 H   0  0  0  0  0  0  0  0  0  0  0  0
  140.1348   69.7072  220.6932 H   0  0  0  0  0  0  0  0  0  0  0  0
  141.5407   68.1900  219.3717 H   0  0  0  0  0  0  0  0  0  0  0  0
  141.2895   65.7400  219.5424 H   0  0  0  0  0  0  0  0  0  0  0  0
  139.5750   64.8229  221.0868 H   0  0  0  0  0  0  0  0  0  0  0  0
  138.1536   66.3388  222.4210 H   0  0  0  0  0  0  0  0  0  0  0  0
  137.6223   74.1759  222.1552 H   0  0  0  0  0  0  0  0  0  0  0  0
  137.3985   76.6306  221.9492 H   0  0  0  0  0  0  0  0  0  0  0  0
  1  2  1  0
  2  3  1  0
  2  4  1  0
  4  5  1  0
  5  6  1  0
  6  7  1  0
  6  8  1  0
  8  9  2  0
  9 10  1  0
 10 11  2  0
 11 12  1  0
 12 13  2  0
 13 14  1  0
 14 15  2  0
 15 16  1  0
 16 17  2  0
 17 18  1  0
 18 19  2  0
 19 20  1  0
 19 21  1  0
 21 22  2  0
 22 23  1  0
 23 24  2  0
 23 25  1  0
 25 26  1  0
 26 27  1  0
 27 28  2  0
 28 29  1  0
 29 30  2  0
 30 31  1  0
 31 32  2  0
 11 33  1  0
 33 34  2  0
 34  8  1  0
 25 14  1  0
 32 27  1  0
 22 16  1  0
  1 35  1  0
  1 36  1  0
  1 37  1  0
  3 38  1  0
  3 39  1  0
  3 40  1  0
  4 41  1  0
  4 42  1  0
  5 43  1  0
  5 44  1  0
  7 45  1  0
  7 46  1  0
  7 47  1  0
  9 48  1  0
 10 49  1  0
 12 50  1  0
 13 51  1  0
 17 52  1  0
 18 53  1  0
 21 54  1  0
 26 55  1  0
 26 56  1  0
 28 57  1  0
 29 58  1  0
 30 59  1  0
 31 60  1  0
 32 61  1  0
 33 62  1  0
 34 63  1  0
M  END
>  <smiles>  (3) 
CN(C)CCN(C)c1ccc(/C=C/c2nc3ccc(F)cc3c(=O)n2Cc2ccccc2)cc1

>  <score_type>  (3) 
oracle

>  <origin>  (3) 
autodockgpu

>  <m_score__min__energy>  (3) 
-8.2899999999999991

>  <m_primary>  (3) 
energy

>  <meeko>  (3) 
{"free_energy": -7.8, "intermolecular_energy": -10.48, "internal_energy": -1.69, "cluster_size": 11, "cluster_id": 1, "rank_in_cluster": 11}

>  <energy>  (3) 
-8.07

>  <cluster_rmsd>  (3) 
1.69

>  <rmsd>  (3) 
271.2

>  <cluster>  (3) 
1

$$$$

     RDKit          3D

 63 66  0  0  0  0  0  0  0  0999 V2000
  140.0910   70.0990  227.7490 C   0  0  0  0  0  0  0  0  0  0  0  0
  140.5910   68.7520  227.3930 N   0  0  0  0  0  0  0  0  0  0  0  0
  141.0760   68.2200  228.6580 C   0  0  0  0  0  0  0  0  0  0  0  0
  139.5410   67.9800  226.8300 C   0  0  0  0  0  0  0  0  0  0  0  0
  139.4690   67.9210  225.3330 C   0  0  0  0  0  0  0  0  0  0  0  0
  138.7080   69.0020  224.7410 N   0  0  0  0  0  0  0  0  0  0  0  0
  137.2590   68.9550  224.9950 C   0  0  0  0  0  0  0  0  0  0  0  0
  139.2810   70.0440  223.9620 C   0  0  0  0  0  0  0  0  0  0  0  0
  139.3940   69.9750  222.5890 C   0  0  0  0  0  0  0  0  0  0  0  0
  139.9610   71.0190  221.8440 C   0  0  0  0  0  0  0  0  0  0  0  0
  140.4340   72.1670  222.4450 C   0  0  0  0  0  0  0  0  0  0  0  0
  141.0160   73.2190  221.6310 C   0  0  0  0  0  0  0  0  0  0  0  0
  140.3560   74.0960  220.9300 C   0  0  0  0  0  0  0  0  0  0  0  0
  139.8690   75.3600  221.4980 C   0  0  0  0  0  0  0  0  0  0  0  0
  140.8340   76.2070  221.9370 N   0  0  0  0  0  0  0  0  0  0  0  0
  140.5440   77.3840  222.5040 C   0  0  0  0  0  0  0  0  0  0  0  0
  141.5050   78.2600  222.9590 C   0  0  0  0  0  0  0  0  0  0  0  0
  141.1760   79.4690  223.5410 C   0  0  0  0  0  0  0  0  0  0  0  0
  139.8230   79.7600  223.6490 C   0  0  0  0  0  0  0  0  0  0  0  0
  139.5080   80.9510  224.2240 F   0  0  0  0  0  0  0  0  0  0  0  0
  138.8390   78.9100  223.2080 C   0  0  0  0  0  0  0  0  0  0  0  0
  139.1990   77.6970  222.6230 C   0  0  0  0  0  0  0  0  0  0  0  0
  138.2370   76.8180  222.1680 C   0  0  0  0  0  0  0  0  0  0  0  0
  137.0400   77.1830  222.3160 O   0  0  0  0  0  0  0  0  0  0  0  0
  138.5620   75.6240  221.5920 N   0  0  0  0  0  0  0  0  0  0  0  0
  137.5320   74.7420  221.1350 C   0  0  0  0  0  0  0  0  0  0  0  0
  136.8700   73.9520  222.1960 C   0  0  0  0  0  0  0  0  0  0  0  0
  136.0140   74.5900  223.1040 C   0  0  0  0  0  0  0  0  0  0  0  0
  135.3710   73.8930  224.1100 C   0  0  0  0  0  0  0  0  0  0  0  0
  135.5410   72.5470  224.2670 C   0  0  0  0  0  0  0  0  0  0  0  0
  136.3720   71.8960  223.3940 C   0  0  0  0  0  0  0  0  0  0  0  0
  137.0220   72.6000  222.3780 C   0  0  0  0  0  0  0  0  0  0  0  0
  140.3220   72.2380  223.8130 C   0  0  0  0  0  0  0  0  0  0  0  0
  139.7550   71.1950  224.5590 C   0  0  0  0  0  0  0  0  0  0  0  0
  140.0539   70.1988  228.8438 H   0  0  0  0  0  0  0  0  0  0  0  0
  140.7658   70.8621  227.3338 H   0  0  0  0  0  0  0  0  0  0  0  0
  139.0817   70.2370  227.3338 H   0  0  0  0  0  0  0  0  0  0  0  0
  140.5909   68.7521  229.4896 H   0  0  0  0  0  0  0  0  0  0  0  0
  140.8381   67.1478  228.7202 H   0  0  0  0  0  0  0  0  0  0  0  0
  142.1655   68.3580  228.7202 H   0  0  0  0  0  0  0  0  0  0  0  0
  139.6521   66.9494  227.1981 H   0  0  0  0  0  0  0  0  0  0  0  0
  138.6150   68.4852  227.1417 H   0  0  0  0  0  0  0  0  0  0  0  0
  140.4936   67.9596  224.9348 H   0  0  0  0  0  0  0  0  0  0  0  0
  138.9514   66.9856  225.0739 H   0  0  0  0  0  0  0  0  0  0  0  0
  137.0769   68.9491  226.0798 H   0  0  0  0  0  0  0  0  0  0  0  0
  136.7795   69.8381  224.5475 H   0  0  0  0  0  0  0  0  0  0  0  0
  136.8377   68.0427  224.5475 H   0  0  0  0  0  0  0  0  0  0  0  0
  139.0302   69.0786  222.0654 H   0  0  0  0  0  0  0  0  0  0  0  0
  140.0305   70.9198  220.7507 H   0  0  0  0  0  0  0  0  0  0  0  0
  142.1139   73.2809  221.6039 H   0  0  0  0  0  0  0  0  0  0  0  0
  140.1552   73.8815  219.8700 H   0  0  0  0  0  0  0  0  0  0  0  0
  142.5660   77.9887  222.8558 H   0  0  0  0  0  0  0  0  0  0  0  0
  141.9473   80.1659  223.9007 H   0  0  0  0  0  0  0  0  0  0  0  0
  137.7788   79.1831  223.3151 H   0  0  0  0  0  0  0  0  0  0  0  0
  136.7641   75.3465  220.6301 H   0  0  0  0  0  0  0  0  0  0  0  0
  138.0219   74.0151  220.4705 H   0  0  0  0  0  0  0  0  0  0  0  0
  135.8494   75.6739  223.0139 H   0  0  0  0  0  0  0  0  0  0  0  0
  134.7073   74.4349  224.7998 H   0  0  0  0  0  0  0  0  0  0  0  0
  135.0256   72.0015  225.0712 H   0  0  0  0  0  0  0  0  0  0  0  0
  136.5283   70.8118  223.4939 H   0  0  0  0  0  0  0  0  0  0  0  0
  137.6838   72.0477  221.6947 H   0  0  0  0  0  0  0  0  0  0  0  0
  140.6861   73.1350  224.3353 H   0  0  0  0  0  0  0  0  0  0  0  0
  139.6858   71.2968  225.6521 H   0  0  0  0  0  0  0  0  0  0  0  0
  1  2  1  0
  2  3  1  0
  2  4  1  0
  4  5  1  0
  5  6  1  0
  6  7  1  0
  6  8  1  0
  8  9  2  0
  9 10  1  0
 10 11  2  0
 11 12  1  0
 12 13  2  0
 13 14  1  0
 14 15  2  0
 15 16  1  0
 16 17  2  0
 17 18  1  0
 18 19  2  0
 19 20  1  0
 19 21  1  0
 21 22  2  0
 22 23  1  0
 23 24  2  0
 23 25  1  0
 25 26  1  0
 26 27  1  0
 27 28  2  0
 28 29  1  0
 29 30  2  0
 30 31  1  0
 31 32  2  0
 11 33  1  0
 33 34  2  0
 34  8  1  0
 25 14  1  0
 32 27  1  0
 22 16  1  0
  1 35  1  0
  1 36  1  0
  1 37  1  0
  3 38  1  0
  3 39  1  0
  3 40  1  0
  4 41  1  0
  4 42  1  0
  5 43  1  0
  5 44  1  0
  7 45  1  0
  7 46  1  0
  7 47  1  0
  9 48  1  0
 10 49  1  0
 12 50  1  0
 13 51  1  0
 17 52  1  0
 18 53  1  0
 21 54  1  0
 26 55  1  0
 26 56  1  0
 28 57  1  0
 29 58  1  0
 30 59  1  0
 31 60  1  0
 32 61  1  0
 33 62  1  0
 34 63  1  0
M  END
>  <smiles>  (4) 
CN(C)CCN(C)c1ccc(/C=C/c2nc3ccc(F)cc3c(=O)n2Cc2ccccc2)cc1

>  <score_type>  (4) 
oracle

>  <origin>  (4) 
autodockgpu

>  <m_score__min__energy>  (4) 
-8.2899999999999991

>  <m_primary>  (4) 
energy

>  <meeko>  (4) 
{"free_energy": -6.63, "intermolecular_energy": -9.31, "internal_energy": -2.57, "cluster_size": 2, "cluster_id": 5, "rank_in_cluster": 2}

>  <energy>  (4) 
-8.01

>  <cluster_rmsd>  (4) 
0.6

>  <rmsd>  (4) 
271.14

>  <cluster>  (4) 
1

$$$$

     RDKit          3D

 63 66  0  0  0  0  0  0  0  0999 V2000
  141.1100   70.9320  227.9400 C   0  0  0  0  0  0  0  0  0  0  0  0
  140.5810   69.7840  228.7110 N   0  0  0  0  0  0  0  0  0  0  0  0
  139.1400   69.9920  228.6920 C   0  0  0  0  0  0  0  0  0  0  0  0
  140.9760   68.5660  228.0970 C   0  0  0  0  0  0  0  0  0  0  0  0
  141.2430   68.6060  226.6220 C   0  0  0  0  0  0  0  0  0  0  0  0
  140.0560   68.8130  225.8170 N   0  0  0  0  0  0  0  0  0  0  0  0
  138.9490   67.8840  226.0920 C   0  0  0  0  0  0  0  0  0  0  0  0
  139.9360   69.8240  224.8240 C   0  0  0  0  0  0  0  0  0  0  0  0
  138.9680   69.7960  223.8420 C   0  0  0  0  0  0  0  0  0  0  0  0
  138.8690   70.8070  222.8760 C   0  0  0  0  0  0  0  0  0  0  0  0
  139.7350   71.8810  222.8590 C   0  0  0  0  0  0  0  0  0  0  0  0
  139.5950   72.9020  221.8360 C   0  0  0  0  0  0  0  0  0  0  0  0
  140.5390   73.3220  221.0420 C   0  0  0  0  0  0  0  0  0  0  0  0
  140.9480   74.7320  220.9760 C   0  0  0  0  0  0  0  0  0  0  0  0
  140.3200   75.5580  221.8490 N   0  0  0  0  0  0  0  0  0  0  0  0
  140.5670   76.8730  221.8880 C   0  0  0  0  0  0  0  0  0  0  0  0
  139.9410   77.7330  222.7640 C   0  0  0  0  0  0  0  0  0  0  0  0
  140.2160   79.0870  222.7810 C   0  0  0  0  0  0  0  0  0  0  0  0
  141.1570   79.5420  221.8680 C   0  0  0  0  0  0  0  0  0  0  0  0
  141.4210   80.8760  221.8910 F   0  0  0  0  0  0  0  0  0  0  0  0
  141.7990   78.7140  220.9810 C   0  0  0  0  0  0  0  0  0  0  0  0
  141.5030   77.3520  220.9860 C   0  0  0  0  0  0  0  0  0  0  0  0
  142.1290   76.4890  220.1080 C   0  0  0  0  0  0  0  0  0  0  0  0
  142.9660   77.0100  219.3230 O   0  0  0  0  0  0  0  0  0  0  0  0
  141.8580   75.1510  220.0920 N   0  0  0  0  0  0  0  0  0  0  0  0
  142.5290   74.2930  219.1640 C   0  0  0  0  0  0  0  0  0  0  0  0
  143.8170   73.7440  219.6410 C   0  0  0  0  0  0  0  0  0  0  0  0
  144.6390   74.5200  220.4700 C   0  0  0  0  0  0  0  0  0  0  0  0
  145.8490   74.0460  220.9410 C   0  0  0  0  0  0  0  0  0  0  0  0
  146.3040   72.8000  220.6200 C   0  0  0  0  0  0  0  0  0  0  0  0
  145.5210   72.0180  219.8100 C   0  0  0  0  0  0  0  0  0  0  0  0
  144.2980   72.4950  219.3340 C   0  0  0  0  0  0  0  0  0  0  0  0
  140.7000   71.9120  223.8360 C   0  0  0  0  0  0  0  0  0  0  0  0
  140.8000   70.9000  224.8030 C   0  0  0  0  0  0  0  0  0  0  0  0
  141.4670   71.7068  228.6345 H   0  0  0  0  0  0  0  0  0  0  0  0
  141.9437   70.5952  227.3064 H   0  0  0  0  0  0  0  0  0  0  0  0
  140.3123   71.3469  227.3064 H   0  0  0  0  0  0  0  0  0  0  0  0
  138.7637   70.0463  229.7242 H   0  0  0  0  0  0  0  0  0  0  0  0
  138.9121   70.9323  228.1687 H   0  0  0  0  0  0  0  0  0  0  0  0
  138.6555   69.1545  228.1687 H   0  0  0  0  0  0  0  0  0  0  0  0
  141.8978   68.2275  228.5927 H   0  0  0  0  0  0  0  0  0  0  0  0
  140.1142   67.8926  228.2146 H   0  0  0  0  0  0  0  0  0  0  0  0
  141.9467   69.4268  226.4193 H   0  0  0  0  0  0  0  0  0  0  0  0
  141.6505   67.6228  226.3440 H   0  0  0  0  0  0  0  0  0  0  0  0
  138.8216   67.7771  227.1793 H   0  0  0  0  0  0  0  0  0  0  0  0
  138.0215   68.2781  225.6511 H   0  0  0  0  0  0  0  0  0  0  0  0
  139.1762   66.9022  225.6511 H   0  0  0  0  0  0  0  0  0  0  0  0
  138.2552   68.9586  223.8161 H   0  0  0  0  0  0  0  0  0  0  0  0
  138.0805   70.7424  222.1118 H   0  0  0  0  0  0  0  0  0  0  0  0
  138.6026   73.3624  221.7209 H   0  0  0  0  0  0  0  0  0  0  0  0
  141.0497   72.5927  220.3960 H   0  0  0  0  0  0  0  0  0  0  0  0
  139.2006   77.3297  223.4705 H   0  0  0  0  0  0  0  0  0  0  0  0
  139.7145   79.7697  223.4827 H   0  0  0  0  0  0  0  0  0  0  0  0
  142.5380   79.1205  220.2749 H   0  0  0  0  0  0  0  0  0  0  0  0
  141.8617   73.4489  218.9354 H   0  0  0  0  0  0  0  0  0  0  0  0
  142.7645   74.9128  218.2863 H   0  0  0  0  0  0  0  0  0  0  0  0
  144.3129   75.5317  220.7528 H   0  0  0  0  0  0  0  0  0  0  0  0
  146.4605   74.6892  221.5908 H   0  0  0  0  0  0  0  0  0  0  0  0
  147.2695   72.4341  220.9994 H   0  0  0  0  0  0  0  0  0  0  0  0
  145.8586   71.0083  219.5334 H   0  0  0  0  0  0  0  0  0  0  0  0
  143.6944   71.8427  218.6857 H   0  0  0  0  0  0  0  0  0  0  0  0
  141.4116   72.7504  223.8610 H   0  0  0  0  0  0  0  0  0  0  0  0
  141.5896   70.9662  225.5660 H   0  0  0  0  0  0  0  0  0  0  0  0
  1  2  1  0
  2  3  1  0
  2  4  1  0
  4  5  1  0
  5  6  1  0
  6  7  1  0
  6  8  1  0
  8  9  2  0
  9 10  1  0
 10 11  2  0
 11 12  1  0
 12 13  2  0
 13 14  1  0
 14 15  2  0
 15 16  1  0
 16 17  2  0
 17 18  1  0
 18 19  2  0
 19 20  1  0
 19 21  1  0
 21 22  2  0
 22 23  1  0
 23 24  2  0
 23 25  1  0
 25 26  1  0
 26 27  1  0
 27 28  2  0
 28 29  1  0
 29 30  2  0
 30 31  1  0
 31 32  2  0
 11 33  1  0
 33 34  2  0
 34  8  1  0
 25 14  1  0
 32 27  1  0
 22 16  1  0
  1 35  1  0
  1 36  1  0
  1 37  1  0
  3 38  1  0
  3 39  1  0
  3 40  1  0
  4 41  1  0
  4 42  1  0
  5 43  1  0
  5 44  1  0
  7 45  1  0
  7 46  1  0
  7 47  1  0
  9 48  1  0
 10 49  1  0
 12 50  1  0
 13 51  1  0
 17 52  1  0
 18 53  1  0
 21 54  1  0
 26 55  1  0
 26 56  1  0
 28 57  1  0
 29 58  1  0
 30 59  1  0
 31 60  1  0
 32 61  1  0
 33 62  1  0
 34 63  1  0
M  END
>  <smiles>  (5) 
CN(C)CCN(C)c1ccc(/C=C/c2nc3ccc(F)cc3c(=O)n2Cc2ccccc2)cc1

>  <score_type>  (5) 
oracle

>  <origin>  (5) 
autodockgpu

>  <m_score__min__energy>  (5) 
-8.2899999999999991

>  <m_primary>  (5) 
energy

>  <meeko>  (5) 
{"free_energy": -8.24, "intermolecular_energy": -10.92, "internal_energy": -1.7, "cluster_size": 2, "cluster_id": 2, "rank_in_cluster": 1}

>  <energy>  (5) 
-8.01

>  <cluster_rmsd>  (5) 
1.65

>  <rmsd>  (5) 
271.13

>  <cluster>  (5) 
1

$$$$

     RDKit          3D

 63 66  0  0  0  0  0  0  0  0999 V2000
  142.4100   80.4660  222.0260 C   0  0  0  0  0  0  0  0  0  0  0  0
  142.7120   80.0900  223.4250 N   0  0  0  0  0  0  0  0  0  0  0  0
  142.5740   81.3410  224.1560 C   0  0  0  0  0  0  0  0  0  0  0  0
  141.8060   79.0870  223.8620 C   0  0  0  0  0  0  0  0  0  0  0  0
  140.3430   79.3870  223.7210 C   0  0  0  0  0  0  0  0  0  0  0  0
  139.7110   78.7050  222.6100 N   0  0  0  0  0  0  0  0  0  0  0  0
  138.8450   79.5510  221.7730 C   0  0  0  0  0  0  0  0  0  0  0  0
  139.8840   77.3230  222.3240 C   0  0  0  0  0  0  0  0  0  0  0  0
  141.0540   76.8070  221.8080 C   0  0  0  0  0  0  0  0  0  0  0  0
  141.2000   75.4390  221.5370 C   0  0  0  0  0  0  0  0  0  0  0  0
  140.1810   74.5400  221.7740 C   0  0  0  0  0  0  0  0  0  0  0  0
  140.3780   73.1330  221.4740 C   0  0  0  0  0  0  0  0  0  0  0  0
  140.2660   72.1490  222.3200 C   0  0  0  0  0  0  0  0  0  0  0  0
  138.9700   71.7040  222.8500 C   0  0  0  0  0  0  0  0  0  0  0  0
  137.8850   72.3110  222.3090 N   0  0  0  0  0  0  0  0  0  0  0  0
  136.6390   72.0310  222.7100 C   0  0  0  0  0  0  0  0  0  0  0  0
  135.5210   72.6340  222.1770 C   0  0  0  0  0  0  0  0  0  0  0  0
  134.2460   72.3250  222.6110 C   0  0  0  0  0  0  0  0  0  0  0  0
  134.1450   71.3740  223.6160 C   0  0  0  0  0  0  0  0  0  0  0  0
  132.8870   71.0760  224.0380 F   0  0  0  0  0  0  0  0  0  0  0  0
  135.2370   70.7530  224.1700 C   0  0  0  0  0  0  0  0  0  0  0  0
  136.5120   71.0830  223.7130 C   0  0  0  0  0  0  0  0  0  0  0  0
  137.6330   70.4790  224.2470 C   0  0  0  0  0  0  0  0  0  0  0  0
  137.4250   69.6310  225.1540 O   0  0  0  0  0  0  0  0  0  0  0  0
  138.8920   70.7840  223.8170 N   0  0  0  0  0  0  0  0  0  0  0  0
  140.0270   70.1360  224.3990 C   0  0  0  0  0  0  0  0  0  0  0  0
  140.4130   70.6320  225.7380 C   0  0  0  0  0  0  0  0  0  0  0  0
  140.0970   69.8770  226.8760 C   0  0  0  0  0  0  0  0  0  0  0  0
  140.4400   70.3000  228.1460 C   0  0  0  0  0  0  0  0  0  0  0  0
  141.1020   71.4760  228.3540 C   0  0  0  0  0  0  0  0  0  0  0  0
  141.4230   72.2360  227.2600 C   0  0  0  0  0  0  0  0  0  0  0  0
  141.0780   71.8100  225.9760 C   0  0  0  0  0  0  0  0  0  0  0  0
  139.0130   75.0510  222.2880 C   0  0  0  0  0  0  0  0  0  0  0  0
  138.8670   76.4200  222.5590 C   0  0  0  0  0  0  0  0  0  0  0  0
  141.7212   81.3236  222.0174 H   0  0  0  0  0  0  0  0  0  0  0  0
  143.3424   80.7394  221.5104 H   0  0  0  0  0  0  0  0  0  0  0  0
  141.9419   79.6145  221.5104 H   0  0  0  0  0  0  0  0  0  0  0  0
  142.5964   81.1384  225.2370 H   0  0  0  0  0  0  0  0  0  0  0  0
  143.4034   82.0135  223.8918 H   0  0  0  0  0  0  0  0  0  0  0  0
  141.6180   81.8165  223.8918 H   0  0  0  0  0  0  0  0  0  0  0  0
  142.0156   78.1749  223.2839 H   0  0  0  0  0  0  0  0  0  0  0  0
  141.9776   78.9971  224.9448 H   0  0  0  0  0  0  0  0  0  0  0  0
  139.8356   79.0831  224.6485 H   0  0  0  0  0  0  0  0  0  0  0  0
  140.2544   80.4661  223.5269 H   0  0  0  0  0  0  0  0  0  0  0  0
  138.2074   80.1739  222.4175 H   0  0  0  0  0  0  0  0  0  0  0  0
  139.4678   80.1982  221.1379 H   0  0  0  0  0  0  0  0  0  0  0  0
  138.2126   78.9132  221.1379 H   0  0  0  0  0  0  0  0  0  0  0  0
  141.8947   77.4863  221.6036 H   0  0  0  0  0  0  0  0  0  0  0  0
  142.1519   75.0732  221.1247 H   0  0  0  0  0  0  0  0  0  0  0  0
  140.6460   72.8749  220.4389 H   0  0  0  0  0  0  0  0  0  0  0  0
  141.1780   71.6305  222.6508 H   0  0  0  0  0  0  0  0  0  0  0  0
  135.6470   73.3839  221.3822 H   0  0  0  0  0  0  0  0  0  0  0  0
  133.3563   72.8085  222.1814 H   0  0  0  0  0  0  0  0  0  0  0  0
  135.1074   70.0039  224.9650 H   0  0  0  0  0  0  0  0  0  0  0  0
  139.8001   69.0631  224.4851 H   0  0  0  0  0  0  0  0  0  0  0  0
  140.8772   70.3514  223.7351 H   0  0  0  0  0  0  0  0  0  0  0  0
  139.5623   68.9234  226.7550 H   0  0  0  0  0  0  0  0  0  0  0  0
  140.1733   69.6742  229.0104 H   0  0  0  0  0  0  0  0  0  0  0  0
  141.3696   71.8035  229.3695 H   0  0  0  0  0  0  0  0  0  0  0  0
  141.9564   73.1886  227.3944 H   0  0  0  0  0  0  0  0  0  0  0  0
  141.3501   72.4441  225.1193 H   0  0  0  0  0  0  0  0  0  0  0  0
  138.1730   74.3707  222.4917 H   0  0  0  0  0  0  0  0  0  0  0  0
  137.9142   76.7841  222.9708 H   0  0  0  0  0  0  0  0  0  0  0  0
  1  2  1  0
  2  3  1  0
  2  4  1  0
  4  5  1  0
  5  6  1  0
  6  7  1  0
  6  8  1  0
  8  9  2  0
  9 10  1  0
 10 11  2  0
 11 12  1  0
 12 13  2  0
 13 14  1  0
 14 15  2  0
 15 16  1  0
 16 17  2  0
 17 18  1  0
 18 19  2  0
 19 20  1  0
 19 21  1  0
 21 22  2  0
 22 23  1  0
 23 24  2  0
 23 25  1  0
 25 26  1  0
 26 27  1  0
 27 28  2  0
 28 29  1  0
 29 30  2  0
 30 31  1  0
 31 32  2  0
 11 33  1  0
 33 34  2  0
 34  8  1  0
 25 14  1  0
 32 27  1  0
 22 16  1  0
  1 35  1  0
  1 36  1  0
  1 37  1  0
  3 38  1  0
  3 39  1  0
  3 40  1  0
  4 41  1  0
  4 42  1  0
  5 43  1  0
  5 44  1  0
  7 45  1  0
  7 46  1  0
  7 47  1  0
  9 48  1  0
 10 49  1  0
 12 50  1  0
 13 51  1  0
 17 52  1  0
 18 53  1  0
 21 54  1  0
 26 55  1  0
 26 56  1  0
 28 57  1  0
 29 58  1  0
 30 59  1  0
 31 60  1  0
 32 61  1  0
 33 62  1  0
 34 63  1  0
M  END
>  <smiles>  (6) 
CN(C)CCN(C)c1ccc(/C=C/c2nc3ccc(F)cc3c(=O)n2Cc2ccccc2)cc1

>  <score_type>  (6) 
oracle

>  <origin>  (6) 
autodockgpu

>  <m_score__min__energy>  (6) 
-8.2899999999999991

>  <m_primary>  (6) 
energy

>  <meeko>  (6) 
{"free_energy": -7.74, "intermolecular_energy": -10.43, "internal_energy": -1.83, "cluster_size": 1, "cluster_id": 3, "rank_in_cluster": 1}

>  <energy>  (6) 
-7.97

>  <cluster_rmsd>  (6) 
0.72

>  <rmsd>  (6) 
271.17

>  <cluster>  (6) 
1

$$$$

     RDKit          3D

 63 66  0  0  0  0  0  0  0  0999 V2000
  138.2420   81.9880  220.8650 C   0  0  0  0  0  0  0  0  0  0  0  0
  138.1660   82.9000  222.0290 N   0  0  0  0  0  0  0  0  0  0  0  0
  138.7680   84.1320  221.5400 C   0  0  0  0  0  0  0  0  0  0  0  0
  136.8130   83.0620  222.4280 C   0  0  0  0  0  0  0  0  0  0  0  0
  136.5550   83.2350  223.8950 C   0  0  0  0  0  0  0  0  0  0  0  0
  136.9520   82.0970  224.6980 N   0  0  0  0  0  0  0  0  0  0  0  0
  136.8000   82.2760  226.1500 C   0  0  0  0  0  0  0  0  0  0  0  0
  137.4620   80.8830  224.1580 C   0  0  0  0  0  0  0  0  0  0  0  0
  136.6590   79.9400  223.5510 C   0  0  0  0  0  0  0  0  0  0  0  0
  137.1880   78.7530  223.0240 C   0  0  0  0  0  0  0  0  0  0  0  0
  138.5360   78.4690  223.0850 C   0  0  0  0  0  0  0  0  0  0  0  0
  139.0360   77.2240  222.5280 C   0  0  0  0  0  0  0  0  0  0  0  0
  139.3280   77.0100  221.2770 C   0  0  0  0  0  0  0  0  0  0  0  0
  140.6090   76.4300  220.8510 C   0  0  0  0  0  0  0  0  0  0  0  0
  140.7740   75.1160  221.1430 N   0  0  0  0  0  0  0  0  0  0  0  0
  141.9000   74.4570  220.8430 C   0  0  0  0  0  0  0  0  0  0  0  0
  142.0920   73.1230  221.1310 C   0  0  0  0  0  0  0  0  0  0  0  0
  143.2650   72.4680  220.8090 C   0  0  0  0  0  0  0  0  0  0  0  0
  144.2470   73.2220  220.1800 C   0  0  0  0  0  0  0  0  0  0  0  0
  145.3980   72.5690  219.8680 F   0  0  0  0  0  0  0  0  0  0  0  0
  144.0890   74.5520  219.8800 C   0  0  0  0  0  0  0  0  0  0  0  0
  142.8950   75.1880  220.2140 C   0  0  0  0  0  0  0  0  0  0  0  0
  142.7000   76.5250  219.9270 C   0  0  0  0  0  0  0  0  0  0  0  0
  143.6570   77.1110  219.3550 O   0  0  0  0  0  0  0  0  0  0  0  0
  141.5410   77.1720  220.2450 N   0  0  0  0  0  0  0  0  0  0  0  0
  141.3830   78.5580  219.9300 C   0  0  0  0  0  0  0  0  0  0  0  0
  141.6460   79.4870  221.0510 C   0  0  0  0  0  0  0  0  0  0  0  0
  142.2330   79.0050  222.2290 C   0  0  0  0  0  0  0  0  0  0  0  0
  142.5000   79.8370  223.3000 C   0  0  0  0  0  0  0  0  0  0  0  0
  142.2030   81.1690  223.2620 C   0  0  0  0  0  0  0  0  0  0  0  0
  141.6280   81.6690  222.1230 C   0  0  0  0  0  0  0  0  0  0  0  0
  141.3580   80.8300  221.0400 C   0  0  0  0  0  0  0  0  0  0  0  0
  139.3380   79.4070  223.6890 C   0  0  0  0  0  0  0  0  0  0  0  0
  138.8100   80.5950  224.2170 C   0  0  0  0  0  0  0  0  0  0  0  0
  138.3285   80.9497  221.2178 H   0  0  0  0  0  0  0  0  0  0  0  0
  137.3319   82.0938  220.2563 H   0  0  0  0  0  0  0  0  0  0  0  0
  139.1220   82.2430  220.2563 H   0  0  0  0  0  0  0  0  0  0  0  0
  139.0726   84.7553  222.3937 H   0  0  0  0  0  0  0  0  0  0  0  0
  139.6501   83.8915  220.9284 H   0  0  0  0  0  0  0  0  0  0  0  0
  138.0362   84.6801  220.9284 H   0  0  0  0  0  0  0  0  0  0  0  0
  136.4190   83.9512  221.9140 H   0  0  0  0  0  0  0  0  0  0  0  0
  136.3193   82.1164  222.1593 H   0  0  0  0  0  0  0  0  0  0  0  0
  137.1131   84.1165  224.2434 H   0  0  0  0  0  0  0  0  0  0  0  0
  135.4677   83.3487  224.0171 H   0  0  0  0  0  0  0  0  0  0  0  0
  137.4248   81.5402  226.6775 H   0  0  0  0  0  0  0  0  0  0  0  0
  137.1154   83.2922  226.4292 H   0  0  0  0  0  0  0  0  0  0  0  0
  135.7462   82.1295  226.4292 H   0  0  0  0  0  0  0  0  0  0  0  0
  135.5769   80.1236  223.4785 H   0  0  0  0  0  0  0  0  0  0  0  0
  136.5094   78.0290  222.5492 H   0  0  0  0  0  0  0  0  0  0  0  0
  139.1811   76.3863  223.2260 H   0  0  0  0  0  0  0  0  0  0  0  0
  138.5862   77.2739  220.5088 H   0  0  0  0  0  0  0  0  0  0  0  0
  141.2880   72.5636  221.6317 H   0  0  0  0  0  0  0  0  0  0  0  0
  143.4137   71.4027  221.0393 H   0  0  0  0  0  0  0  0  0  0  0  0
  144.8957   75.1095  219.3816 H   0  0  0  0  0  0  0  0  0  0  0  0
  142.0772   78.8037  219.1129 H   0  0  0  0  0  0  0  0  0  0  0  0
  140.3254   78.6936  219.6595 H   0  0  0  0  0  0  0  0  0  0  0  0
  142.4877   77.9375  222.3031 H   0  0  0  0  0  0  0  0  0  0  0  0
  142.9629   79.4158  224.2046 H   0  0  0  0  0  0  0  0  0  0  0  0
  142.4190   81.8218  224.1206 H   0  0  0  0  0  0  0  0  0  0  0  0
  141.3775   82.7383  222.0615 H   0  0  0  0  0  0  0  0  0  0  0  0
  140.8954   81.2626  220.1406 H   0  0  0  0  0  0  0  0  0  0  0  0
  140.4200   79.2222  223.7603 H   0  0  0  0  0  0  0  0  0  0  0  0
  139.4903   81.3174  224.6916 H   0  0  0  0  0  0  0  0  0  0  0  0
  1  2  1  0
  2  3  1  0
  2  4  1  0
  4  5  1  0
  5  6  1  0
  6  7  1  0
  6  8  1  0
  8  9  2  0
  9 10  1  0
 10 11  2  0
 11 12  1  0
 12 13  2  0
 13 14  1  0
 14 15  2  0
 15 16  1  0
 16 17  2  0
 17 18  1  0
 18 19  2  0
 19 20  1  0
 19 21  1  0
 21 22  2  0
 22 23  1  0
 23 24  2  0
 23 25  1  0
 25 26  1  0
 26 27  1  0
 27 28  2  0
 28 29  1  0
 29 30  2  0
 30 31  1  0
 31 32  2  0
 11 33  1  0
 33 34  2  0
 34  8  1  0
 25 14  1  0
 32 27  1  0
 22 16  1  0
  1 35  1  0
  1 36  1  0
  1 37  1  0
  3 38  1  0
  3 39  1  0
  3 40  1  0
  4 41  1  0
  4 42  1  0
  5 43  1  0
  5 44  1  0
  7 45  1  0
  7 46  1  0
  7 47  1  0
  9 48  1  0
 10 49  1  0
 12 50  1  0
 13 51  1  0
 17 52  1  0
 18 53  1  0
 21 54  1  0
 26 55  1  0
 26 56  1  0
 28 57  1  0
 29 58  1  0
 30 59  1  0
 31 60  1  0
 32 61  1  0
 33 62  1  0
 34 63  1  0
M  END
>  <smiles>  (7) 
CN(C)CCN(C)c1ccc(/C=C/c2nc3ccc(F)cc3c(=O)n2Cc2ccccc2)cc1

>  <score_type>  (7) 
oracle

>  <origin>  (7) 
autodockgpu

>  <m_score__min__energy>  (7) 
-8.2899999999999991

>  <m_primary>  (7) 
energy

>  <meeko>  (7) 
{"free_energy": -6.51, "intermolecular_energy": -9.19, "internal_energy": -2.86, "cluster_size": 2, "cluster_id": 7, "rank_in_cluster": 2}

>  <energy>  (7) 
-7.87

>  <cluster_rmsd>  (7) 
1.16

>  <rmsd>  (7) 
271.21

>  <cluster>  (7) 
1

$$$$

     RDKit          3D

 63 66  0  0  0  0  0  0  0  0999 V2000
  142.2270   80.8760  223.6080 C   0  0  0  0  0  0  0  0  0  0  0  0
  141.1680   79.8840  223.9000 N   0  0  0  0  0  0  0  0  0  0  0  0
  139.9520   80.5310  223.4290 C   0  0  0  0  0  0  0  0  0  0  0  0
  141.4470   78.6660  223.2240 C   0  0  0  0  0  0  0  0  0  0  0  0
  141.8670   78.7680  221.7880 C   0  0  0  0  0  0  0  0  0  0  0  0
  141.1250   77.8980  220.8990 N   0  0  0  0  0  0  0  0  0  0  0  0
  140.8740   78.4490  219.5570 C   0  0  0  0  0  0  0  0  0  0  0  0
  140.6540   76.6060  221.2610 C   0  0  0  0  0  0  0  0  0  0  0  0
  139.3690   76.3780  221.7070 C   0  0  0  0  0  0  0  0  0  0  0  0
  138.9280   75.0930  222.0540 C   0  0  0  0  0  0  0  0  0  0  0  0
  139.7560   73.9930  221.9680 C   0  0  0  0  0  0  0  0  0  0  0  0
  139.2540   72.6830  222.3430 C   0  0  0  0  0  0  0  0  0  0  0  0
  139.9620   71.5940  222.4410 C   0  0  0  0  0  0  0  0  0  0  0  0
  139.9460   70.7450  223.6400 C   0  0  0  0  0  0  0  0  0  0  0  0
  140.4330   71.3230  224.7660 N   0  0  0  0  0  0  0  0  0  0  0  0
  140.5090   70.6650  225.9290 C   0  0  0  0  0  0  0  0  0  0  0  0
  141.0010   71.2300  227.0850 C   0  0  0  0  0  0  0  0  0  0  0  0
  141.0680   70.5260  228.2720 C   0  0  0  0  0  0  0  0  0  0  0  0
  140.6120   69.2150  228.2440 C   0  0  0  0  0  0  0  0  0  0  0  0
  140.6810   68.5300  229.4160 F   0  0  0  0  0  0  0  0  0  0  0  0
  140.1160   68.6210  227.1100 C   0  0  0  0  0  0  0  0  0  0  0  0
  140.0600   69.3540  225.9270 C   0  0  0  0  0  0  0  0  0  0  0  0
  139.5670   68.7890  224.7670 C   0  0  0  0  0  0  0  0  0  0  0  0
  139.1820   67.5930  224.8560 O   0  0  0  0  0  0  0  0  0  0  0  0
  139.5010   69.4850  223.5940 N   0  0  0  0  0  0  0  0  0  0  0  0
  138.9850   68.8600  222.4160 C   0  0  0  0  0  0  0  0  0  0  0  0
  137.5540   68.4900  222.4810 C   0  0  0  0  0  0  0  0  0  0  0  0
  137.1040   67.3390  221.8200 C   0  0  0  0  0  0  0  0  0  0  0  0
  135.7770   66.9530  221.8550 C   0  0  0  0  0  0  0  0  0  0  0  0
  134.8400   67.6760  222.5350 C   0  0  0  0  0  0  0  0  0  0  0  0
  135.2510   68.8060  223.1910 C   0  0  0  0  0  0  0  0  0  0  0  0
  136.5910   69.1970  223.1570 C   0  0  0  0  0  0  0  0  0  0  0  0
  141.0370   74.2180  221.5230 C   0  0  0  0  0  0  0  0  0  0  0  0
  141.4780   75.5030  221.1760 C   0  0  0  0  0  0  0  0  0  0  0  0
  142.6387   81.2616  224.5524 H   0  0  0  0  0  0  0  0  0  0  0  0
  143.0287   80.3963  223.0273 H   0  0  0  0  0  0  0  0  0  0  0  0
  141.8007   81.7073  223.0273 H   0  0  0  0  0  0  0  0  0  0  0  0
  139.3495   80.8516  224.2917 H   0  0  0  0  0  0  0  0  0  0  0  0
  140.2157   81.4081  222.8197 H   0  0  0  0  0  0  0  0  0  0  0  0
  139.3719   79.8223  222.8197 H   0  0  0  0  0  0  0  0  0  0  0  0
  142.2556   78.1597  223.7716 H   0  0  0  0  0  0  0  0  0  0  0  0
  140.4907   78.1228  223.2052 H   0  0  0  0  0  0  0  0  0  0  0  0
  141.7221   79.8070  221.4572 H   0  0  0  0  0  0  0  0  0  0  0  0
  142.9200   78.4536  221.7389 H   0  0  0  0  0  0  0  0  0  0  0  0
  140.4196   79.4465  219.6493 H   0  0  0  0  0  0  0  0  0  0  0  0
  141.8248   78.5284  219.0095 H   0  0  0  0  0  0  0  0  0  0  0  0
  140.1901   77.7838  219.0095 H   0  0  0  0  0  0  0  0  0  0  0  0
  138.6728   77.2253  221.7926 H   0  0  0  0  0  0  0  0  0  0  0  0
  137.8940   74.9585  222.4042 H   0  0  0  0  0  0  0  0  0  0  0  0
  138.1794   72.6031  222.5642 H   0  0  0  0  0  0  0  0  0  0  0  0
  140.5968   71.2984  221.5927 H   0  0  0  0  0  0  0  0  0  0  0  0
  141.3509   72.2726  227.0624 H   0  0  0  0  0  0  0  0  0  0  0  0
  141.4626   70.9811  229.1924 H   0  0  0  0  0  0  0  0  0  0  0  0
  139.7668   67.5782  227.1354 H   0  0  0  0  0  0  0  0  0  0  0  0
  139.1201   69.5547  221.5739 H   0  0  0  0  0  0  0  0  0  0  0  0
  139.5413   67.9183  222.2984 H   0  0  0  0  0  0  0  0  0  0  0  0
  137.8254   66.7269  221.2588 H   0  0  0  0  0  0  0  0  0  0  0  0
  135.4688   66.0414  221.3221 H   0  0  0  0  0  0  0  0  0  0  0  0
  133.7864   67.3606  222.5556 H   0  0  0  0  0  0  0  0  0  0  0  0
  134.5201   69.4099  223.7487 H   0  0  0  0  0  0  0  0  0  0  0  0
  136.8874   70.1099  223.6945 H   0  0  0  0  0  0  0  0  0  0  0  0
  141.7324   73.3701  221.4371 H   0  0  0  0  0  0  0  0  0  0  0  0
  142.5122   75.6355  220.8254 H   0  0  0  0  0  0  0  0  0  0  0  0
  1  2  1  0
  2  3  1  0
  2  4  1  0
  4  5  1  0
  5  6  1  0
  6  7  1  0
  6  8  1  0
  8  9  2  0
  9 10  1  0
 10 11  2  0
 11 12  1  0
 12 13  2  0
 13 14  1  0
 14 15  2  0
 15 16  1  0
 16 17  2  0
 17 18  1  0
 18 19  2  0
 19 20  1  0
 19 21  1  0
 21 22  2  0
 22 23  1  0
 23 24  2  0
 23 25  1  0
 25 26  1  0
 26 27  1  0
 27 28  2  0
 28 29  1  0
 29 30  2  0
 30 31  1  0
 31 32  2  0
 11 33  1  0
 33 34  2  0
 34  8  1  0
 25 14  1  0
 32 27  1  0
 22 16  1  0
  1 35  1  0
  1 36  1  0
  1 37  1  0
  3 38  1  0
  3 39  1  0
  3 40  1  0
  4 41  1  0
  4 42  1  0
  5 43  1  0
  5 44  1  0
  7 45  1  0
  7 46  1  0
  7 47  1  0
  9 48  1  0
 10 49  1  0
 12 50  1  0
 13 51  1  0
 17 52  1  0
 18 53  1  0
 21 54  1  0
 26 55  1  0
 26 56  1  0
 28 57  1  0
 29 58  1  0
 30 59  1  0
 31 60  1  0
 32 61  1  0
 33 62  1  0
 34 63  1  0
M  END
>  <smiles>  (8) 
CN(C)CCN(C)c1ccc(/C=C/c2nc3ccc(F)cc3c(=O)n2Cc2ccccc2)cc1

>  <score_type>  (8) 
oracle

>  <origin>  (8) 
autodockgpu

>  <m_score__min__energy>  (8) 
-8.2899999999999991

>  <m_primary>  (8) 
energy

>  <meeko>  (8) 
{"free_energy": -7.83, "intermolecular_energy": -10.52, "internal_energy": -1.62, "cluster_size": 11, "cluster_id": 1, "rank_in_cluster": 10}

>  <energy>  (8) 
-7.87

>  <cluster_rmsd>  (8) 
1.79

>  <rmsd>  (8) 
271.13

>  <cluster>  (8) 
1

$$$$

     RDKit          3D

 63 66  0  0  0  0  0  0  0  0999 V2000
  142.0090   80.9080  222.0770 C   0  0  0  0  0  0  0  0  0  0  0  0
  142.6260   79.9970  223.0670 N   0  0  0  0  0  0  0  0  0  0  0  0
  142.9310   80.8670  224.1930 C   0  0  0  0  0  0  0  0  0  0  0  0
  141.7170   78.9570  223.3980 C   0  0  0  0  0  0  0  0  0  0  0  0
  140.4790   78.8460  222.5590 C   0  0  0  0  0  0  0  0  0  0  0  0
  140.5880   77.8900  221.4760 N   0  0  0  0  0  0  0  0  0  0  0  0
  140.8710   78.4760  220.1560 C   0  0  0  0  0  0  0  0  0  0  0  0
  140.4340   76.4860  221.6370 C   0  0  0  0  0  0  0  0  0  0  0  0
  141.4480   75.5880  221.3780 C   0  0  0  0  0  0  0  0  0  0  0  0
  141.2700   74.2070  221.5480 C   0  0  0  0  0  0  0  0  0  0  0  0
  140.0720   73.6780  221.9830 C   0  0  0  0  0  0  0  0  0  0  0  0
  139.9350   72.2410  222.1410 C   0  0  0  0  0  0  0  0  0  0  0  0
  138.9920   71.6310  222.8010 C   0  0  0  0  0  0  0  0  0  0  0  0
  139.2710   70.7110  223.9120 C   0  0  0  0  0  0  0  0  0  0  0  0
  139.9200   71.2600  224.9680 N   0  0  0  0  0  0  0  0  0  0  0  0
  140.2680   70.5400  226.0420 C   0  0  0  0  0  0  0  0  0  0  0  0
  140.9290   71.0740  227.1260 C   0  0  0  0  0  0  0  0  0  0  0  0
  141.2760   70.3060  228.2210 C   0  0  0  0  0  0  0  0  0  0  0  0
  140.9250   68.9640  228.1760 C   0  0  0  0  0  0  0  0  0  0  0  0
  141.2710   68.2150  229.2580 F   0  0  0  0  0  0  0  0  0  0  0  0
  140.2670   68.3990  227.1120 C   0  0  0  0  0  0  0  0  0  0  0  0
  139.9290   69.1970  226.0210 C   0  0  0  0  0  0  0  0  0  0  0  0
  139.2670   68.6630  224.9330 C   0  0  0  0  0  0  0  0  0  0  0  0
  138.9980   67.4340  224.9980 O   0  0  0  0  0  0  0  0  0  0  0  0
  138.9240   69.4220  223.8510 N   0  0  0  0  0  0  0  0  0  0  0  0
  138.2390   68.8280  222.7440 C   0  0  0  0  0  0  0  0  0  0  0  0
  139.1040   68.0920  221.7960 C   0  0  0  0  0  0  0  0  0  0  0  0
  139.1440   66.6910  221.8370 C   0  0  0  0  0  0  0  0  0  0  0  0
  139.9350   65.9620  220.9690 C   0  0  0  0  0  0  0  0  0  0  0  0
  140.7170   66.5720  220.0300 C   0  0  0  0  0  0  0  0  0  0  0  0
  140.6980   67.9410  219.9670 C   0  0  0  0  0  0  0  0  0  0  0  0
  139.8990   68.6780  220.8430 C   0  0  0  0  0  0  0  0  0  0  0  0
  139.0600   74.5710  222.2420 C   0  0  0  0  0  0  0  0  0  0  0  0
  139.2380   75.9520  222.0720 C   0  0  0  0  0  0  0  0  0  0  0  0
  141.4672   81.7080  222.6027 H   0  0  0  0  0  0  0  0  0  0  0  0
  142.7943   81.3502  221.4463 H   0  0  0  0  0  0  0  0  0  0  0  0
  141.3070   80.3428  221.4463 H   0  0  0  0  0  0  0  0  0  0  0  0
  142.7424   80.3289  225.1337 H   0  0  0  0  0  0  0  0  0  0  0  0
  143.9882   81.1677  224.1482 H   0  0  0  0  0  0  0  0  0  0  0  0
  142.2930   81.7620  224.1482 H   0  0  0  0  0  0  0  0  0  0  0  0
  142.2594   78.0034  223.3179 H   0  0  0  0  0  0  0  0  0  0  0  0
  141.3578   79.2008  224.4087 H   0  0  0  0  0  0  0  0  0  0  0  0
  139.6463   78.5395  223.2091 H   0  0  0  0  0  0  0  0  0  0  0  0
  140.3151   79.8319  222.0995 H   0  0  0  0  0  0  0  0  0  0  0  0
  141.3460   79.4596  220.2857 H   0  0  0  0  0  0  0  0  0  0  0  0
  141.5480   77.8126  219.5978 H   0  0  0  0  0  0  0  0  0  0  0  0
  139.9305   78.5938  219.5978 H   0  0  0  0  0  0  0  0  0  0  0  0
  142.4211   75.9642  221.0293 H   0  0  0  0  0  0  0  0  0  0  0  0
  142.1072   73.5280  221.3288 H   0  0  0  0  0  0  0  0  0  0  0  0
  140.6968   71.6102  221.6596 H   0  0  0  0  0  0  0  0  0  0  0  0
  137.9453   71.8119  222.5152 H   0  0  0  0  0  0  0  0  0  0  0  0
  141.1882   72.1430  227.1198 H   0  0  0  0  0  0  0  0  0  0  0  0
  141.8038   70.7365  229.0848 H   0  0  0  0  0  0  0  0  0  0  0  0
  140.0098   67.3295  227.1206 H   0  0  0  0  0  0  0  0  0  0  0  0
  137.4929   68.1245  223.1420 H   0  0  0  0  0  0  0  0  0  0  0  0
  137.7959   69.6586  222.1749 H   0  0  0  0  0  0  0  0  0  0  0  0
  138.5304   66.1586  222.5787 H   0  0  0  0  0  0  0  0  0  0  0  0
  139.9347   64.8640  221.0361 H   0  0  0  0  0  0  0  0  0  0  0  0
  141.3434   65.9821  219.3447 H   0  0  0  0  0  0  0  0  0  0  0  0
  141.3163   68.4624  219.2214 H   0  0  0  0  0  0  0  0  0  0  0  0
  139.9070   69.7753  220.7661 H   0  0  0  0  0  0  0  0  0  0  0  0
  138.0873   74.1939  222.5909 H   0  0  0  0  0  0  0  0  0  0  0  0
  138.3996   76.6293  222.2919 H   0  0  0  0  0  0  0  0  0  0  0  0
  1  2  1  0
  2  3  1  0
  2  4  1  0
  4  5  1  0
  5  6  1  0
  6  7  1  0
  6  8  1  0
  8  9  2  0
  9 10  1  0
 10 11  2  0
 11 12  1  0
 12 13  2  0
 13 14  1  0
 14 15  2  0
 15 16  1  0
 16 17  2  0
 17 18  1  0
 18 19  2  0
 19 20  1  0
 19 21  1  0
 21 22  2  0
 22 23  1  0
 23 24  2  0
 23 25  1  0
 25 26  1  0
 26 27  1  0
 27 28  2  0
 28 29  1  0
 29 30  2  0
 30 31  1  0
 31 32  2  0
 11 33  1  0
 33 34  2  0
 34  8  1  0
 25 14  1  0
 32 27  1  0
 22 16  1  0
  1 35  1  0
  1 36  1  0
  1 37  1  0
  3 38  1  0
  3 39  1  0
  3 40  1  0
  4 41  1  0
  4 42  1  0
  5 43  1  0
  5 44  1  0
  7 45  1  0
  7 46  1  0
  7 47  1  0
  9 48  1  0
 10 49  1  0
 12 50  1  0
 13 51  1  0
 17 52  1  0
 18 53  1  0
 21 54  1  0
 26 55  1  0
 26 56  1  0
 28 57  1  0
 29 58  1  0
 30 59  1  0
 31 60  1  0
 32 61  1  0
 33 62  1  0
 34 63  1  0
M  END
>  <smiles>  (9) 
CN(C)CCN(C)c1ccc(/C=C/c2nc3ccc(F)cc3c(=O)n2Cc2ccccc2)cc1

>  <score_type>  (9) 
oracle

>  <origin>  (9) 
autodockgpu

>  <m_score__min__energy>  (9) 
-8.2899999999999991

>  <m_primary>  (9) 
energy

>  <meeko>  (9) 
{"free_energy": -8.2, "intermolecular_energy": -10.88, "internal_energy": -1.61, "cluster_size": 11, "cluster_id": 1, "rank_in_cluster": 2}

>  <energy>  (9) 
-7.85

>  <cluster_rmsd>  (9) 
0.55

>  <rmsd>  (9) 
271.19

>  <cluster>  (9) 
1

$$$$

     RDKit          3D

 63 66  0  0  0  0  0  0  0  0999 V2000
  146.0220   72.7900  220.6500 C   0  0  0  0  0  0  0  0  0  0  0  0
  145.9190   72.3780  219.2320 N   0  0  0  0  0  0  0  0  0  0  0  0
  145.4840   70.9910  219.3080 C   0  0  0  0  0  0  0  0  0  0  0  0
  144.9950   73.2150  218.5520 C   0  0  0  0  0  0  0  0  0  0  0  0
  143.5380   72.9560  218.7960 C   0  0  0  0  0  0  0  0  0  0  0  0
  142.9830   73.7230  219.8920 N   0  0  0  0  0  0  0  0  0  0  0  0
  143.7480   74.9240  220.2610 C   0  0  0  0  0  0  0  0  0  0  0  0
  141.7940   73.3690  220.5880 C   0  0  0  0  0  0  0  0  0  0  0  0
  140.8020   74.2800  220.8850 C   0  0  0  0  0  0  0  0  0  0  0  0
  139.6370   73.9030  221.5690 C   0  0  0  0  0  0  0  0  0  0  0  0
  139.4250   72.6040  221.9800 C   0  0  0  0  0  0  0  0  0  0  0  0
  138.2040   72.2630  222.6890 C   0  0  0  0  0  0  0  0  0  0  0  0
  137.8230   71.0620  223.0190 C   0  0  0  0  0  0  0  0  0  0  0  0
  138.4750   70.2890  224.0850 C   0  0  0  0  0  0  0  0  0  0  0  0
  139.0560   71.0280  225.0630 N   0  0  0  0  0  0  0  0  0  0  0  0
  139.7120   70.4660  226.0840 C   0  0  0  0  0  0  0  0  0  0  0  0
  140.3110   71.1950  227.0890 C   0  0  0  0  0  0  0  0  0  0  0  0
  140.9830   70.5870  228.1320 C   0  0  0  0  0  0  0  0  0  0  0  0
  141.0280   69.2000  228.1190 C   0  0  0  0  0  0  0  0  0  0  0  0
  141.6910   68.6100  229.1490 F   0  0  0  0  0  0  0  0  0  0  0  0
  140.4430   68.4430  227.1350 C   0  0  0  0  0  0  0  0  0  0  0  0
  139.7700   69.0820  226.0940 C   0  0  0  0  0  0  0  0  0  0  0  0
  139.1700   68.3530  225.0870 C   0  0  0  0  0  0  0  0  0  0  0  0
  139.2720   67.1000  225.1750 O   0  0  0  0  0  0  0  0  0  0  0  0
  138.5060   68.9530  224.0560 N   0  0  0  0  0  0  0  0  0  0  0  0
  137.9000   68.1600  223.0330 C   0  0  0  0  0  0  0  0  0  0  0  0
  138.8310   67.6510  222.0020 C   0  0  0  0  0  0  0  0  0  0  0  0
  139.3500   68.5300  221.0410 C   0  0  0  0  0  0  0  0  0  0  0  0
  140.2250   68.1000  220.0610 C   0  0  0  0  0  0  0  0  0  0  0  0
  140.6250   66.7970  219.9810 C   0  0  0  0  0  0  0  0  0  0  0  0
  140.1330   65.9150  220.9070 C   0  0  0  0  0  0  0  0  0  0  0  0
  139.2490   66.3480  221.8970 C   0  0  0  0  0  0  0  0  0  0  0  0
  140.4120   71.6940  221.6850 C   0  0  0  0  0  0  0  0  0  0  0  0
  141.5770   72.0700  221.0010 C   0  0  0  0  0  0  0  0  0  0  0  0
  145.8066   71.9282  221.2988 H   0  0  0  0  0  0  0  0  0  0  0  0
  147.0393   73.1561  220.8525 H   0  0  0  0  0  0  0  0  0  0  0  0
  145.2967   73.5918  220.8525 H   0  0  0  0  0  0  0  0  0  0  0  0
  145.3906   70.6933  220.3628 H   0  0  0  0  0  0  0  0  0  0  0  0
  144.5093   70.8846  218.8093 H   0  0  0  0  0  0  0  0  0  0  0  0
  146.2233   70.3470  218.8093 H   0  0  0  0  0  0  0  0  0  0  0  0
  145.2030   74.2525  218.8525 H   0  0  0  0  0  0  0  0  0  0  0  0
  145.1489   73.0034  217.4836 H   0  0  0  0  0  0  0  0  0  0  0  0
  142.9829   73.2081  217.8804 H   0  0  0  0  0  0  0  0  0  0  0  0
  143.4427   71.8943  219.0676 H   0  0  0  0  0  0  0  0  0  0  0  0
  143.7989   75.0039  221.3569 H   0  0  0  0  0  0  0  0  0  0  0  0
  144.7661   74.8506  219.8510 H   0  0  0  0  0  0  0  0  0  0  0  0
  143.2511   75.8156  219.8510 H   0  0  0  0  0  0  0  0  0  0  0  0
  140.9277   75.3287  220.5777 H   0  0  0  0  0  0  0  0  0  0  0  0
  138.8721   74.6639  221.7833 H   0  0  0  0  0  0  0  0  0  0  0  0
  137.5414   73.0939  222.9728 H   0  0  0  0  0  0  0  0  0  0  0  0
  136.9795   70.6083  222.4781 H   0  0  0  0  0  0  0  0  0  0  0  0
  140.2523   72.2930  227.0598 H   0  0  0  0  0  0  0  0  0  0  0  0
  141.4584   71.1729  228.9324 H   0  0  0  0  0  0  0  0  0  0  0  0
  140.5042   67.3452  227.1670 H   0  0  0  0  0  0  0  0  0  0  0  0
  137.4165   67.2961  223.5125 H   0  0  0  0  0  0  0  0  0  0  0  0
  137.1937   68.8212  222.5096 H   0  0  0  0  0  0  0  0  0  0  0  0
  139.0534   69.5889  221.0675 H   0  0  0  0  0  0  0  0  0  0  0  0
  140.6083   68.8251  219.3280 H   0  0  0  0  0  0  0  0  0  0  0  0
  141.3213   66.4653  219.1967 H   0  0  0  0  0  0  0  0  0  0  0  0
  140.4367   64.8584  220.8701 H   0  0  0  0  0  0  0  0  0  0  0  0
  138.8715   65.6136  222.6238 H   0  0  0  0  0  0  0  0  0  0  0  0
  140.2850   70.6456  221.9929 H   0  0  0  0  0  0  0  0  0  0  0  0
  142.3403   71.3073  220.7873 H   0  0  0  0  0  0  0  0  0  0  0  0
  1  2  1  0
  2  3  1  0
  2  4  1  0
  4  5  1  0
  5  6  1  0
  6  7  1  0
  6  8  1  0
  8  9  2  0
  9 10  1  0
 10 11  2  0
 11 12  1  0
 12 13  2  0
 13 14  1  0
 14 15  2  0
 15 16  1  0
 16 17  2  0
 17 18  1  0
 18 19  2  0
 19 20  1  0
 19 21  1  0
 21 22  2  0
 22 23  1  0
 23 24  2  0
 23 25  1  0
 25 26  1  0
 26 27  1  0
 27 28  2  0
 28 29  1  0
 29 30  2  0
 30 31  1  0
 31 32  2  0
 11 33  1  0
 33 34  2  0
 34  8  1  0
 25 14  1  0
 32 27  1  0
 22 16  1  0
  1 35  1  0
  1 36  1  0
  1 37  1  0
  3 38  1  0
  3 39  1  0
  3 40  1  0
  4 41  1  0
  4 42  1  0
  5 43  1  0
  5 44  1  0
  7 45  1  0
  7 46  1  0
  7 47  1  0
  9 48  1  0
 10 49  1  0
 12 50  1  0
 13 51  1  0
 17 52  1  0
 18 53  1  0
 21 54  1  0
 26 55  1  0
 26 56  1  0
 28 57  1  0
 29 58  1  0
 30 59  1  0
 31 60  1  0
 32 61  1  0
 33 62  1  0
 34 63  1  0
M  END
>  <smiles>  (10) 
CN(C)CCN(C)c1ccc(/C=C/c2nc3ccc(F)cc3c(=O)n2Cc2ccccc2)cc1

>  <score_type>  (10) 
oracle

>  <origin>  (10) 
autodockgpu

>  <m_score__min__energy>  (10) 
-8.2899999999999991

>  <m_primary>  (10) 
energy

>  <meeko>  (10) 
{"free_energy": -7.41, "intermolecular_energy": -10.09, "internal_energy": -2.09, "cluster_size": 1, "cluster_id": 6, "rank_in_cluster": 1}

>  <energy>  (10) 
-7.83

>  <cluster_rmsd>  (10) 
1.55

>  <rmsd>  (10) 
271.15

>  <cluster>  (10) 
1

$$$$

     RDKit          3D

 63 66  0  0  0  0  0  0  0  0999 V2000
  142.2010   81.2230  223.5190 C   0  0  0  0  0  0  0  0  0  0  0  0
  142.5430   79.8370  223.1280 N   0  0  0  0  0  0  0  0  0  0  0  0
  141.7810   79.0190  224.0600 C   0  0  0  0  0  0  0  0  0  0  0  0
  142.1860   79.6150  221.7720 C   0  0  0  0  0  0  0  0  0  0  0  0
  141.0020   78.7300  221.5180 C   0  0  0  0  0  0  0  0  0  0  0  0
  141.2970   77.5830  220.6840 N   0  0  0  0  0  0  0  0  0  0  0  0
  141.9250   77.8990  219.3910 C   0  0  0  0  0  0  0  0  0  0  0  0
  141.0110   76.2390  221.0500 C   0  0  0  0  0  0  0  0  0  0  0  0
  141.8890   75.2000  220.8250 C   0  0  0  0  0  0  0  0  0  0  0  0
  141.5830   73.8830  221.2000 C   0  0  0  0  0  0  0  0  0  0  0  0
  140.3890   73.5620  221.8120 C   0  0  0  0  0  0  0  0  0  0  0  0
  140.1160   72.1830  222.1780 C   0  0  0  0  0  0  0  0  0  0  0  0
  139.1650   71.7770  222.9700 C   0  0  0  0  0  0  0  0  0  0  0  0
  139.3930   70.8020  224.0450 C   0  0  0  0  0  0  0  0  0  0  0  0
  140.0570   71.2780  225.1280 N   0  0  0  0  0  0  0  0  0  0  0  0
  140.3630   70.5010  226.1730 C   0  0  0  0  0  0  0  0  0  0  0  0
  141.0380   70.9610  227.2830 C   0  0  0  0  0  0  0  0  0  0  0  0
  141.3400   70.1350  228.3490 C   0  0  0  0  0  0  0  0  0  0  0  0
  140.9300   68.8130  228.2470 C   0  0  0  0  0  0  0  0  0  0  0  0
  141.2320   68.0070  229.3000 F   0  0  0  0  0  0  0  0  0  0  0  0
  140.2570   68.3210  227.1570 C   0  0  0  0  0  0  0  0  0  0  0  0
  139.9640   69.1760  226.0960 C   0  0  0  0  0  0  0  0  0  0  0  0
  139.2880   68.7170  224.9830 C   0  0  0  0  0  0  0  0  0  0  0  0
  138.9640   67.5000  224.9960 O   0  0  0  0  0  0  0  0  0  0  0  0
  138.9890   69.5330  223.9300 N   0  0  0  0  0  0  0  0  0  0  0  0
  138.2880   69.0150  222.7960 C   0  0  0  0  0  0  0  0  0  0  0  0
  139.0910   68.1440  221.9090 C   0  0  0  0  0  0  0  0  0  0  0  0
  139.9150   68.7190  220.9320 C   0  0  0  0  0  0  0  0  0  0  0  0
  140.6840   67.9450  220.0830 C   0  0  0  0  0  0  0  0  0  0  0  0
  140.6770   66.5810  220.1560 C   0  0  0  0  0  0  0  0  0  0  0  0
  139.8800   65.9910  221.1020 C   0  0  0  0  0  0  0  0  0  0  0  0
  139.1030   66.7720  221.9600 C   0  0  0  0  0  0  0  0  0  0  0  0
  139.5130   74.5960  222.0370 C   0  0  0  0  0  0  0  0  0  0  0  0
  139.8180   75.9120  221.6630 C   0  0  0  0  0  0  0  0  0  0  0  0
  142.1819   81.3004  224.6161 H   0  0  0  0  0  0  0  0  0  0  0  0
  142.9555   81.9145  223.1157 H   0  0  0  0  0  0  0  0  0  0  0  0
  141.2115   81.4842  223.1157 H   0  0  0  0  0  0  0  0  0  0  0  0
  142.0417   79.2988  225.0914 H   0  0  0  0  0  0  0  0  0  0  0  0
  140.7055   79.1821  223.8965 H   0  0  0  0  0  0  0  0  0  0  0  0
  142.0199   77.9578  223.8965 H   0  0  0  0  0  0  0  0  0  0  0  0
  141.9715   80.5947  221.3202 H   0  0  0  0  0  0  0  0  0  0  0  0
  143.0422   79.0812  221.3339 H   0  0  0  0  0  0  0  0  0  0  0  0
  140.6262   78.3673  222.4861 H   0  0  0  0  0  0  0  0  0  0  0  0
  140.2594   79.3359  220.9781 H   0  0  0  0  0  0  0  0  0  0  0  0
  142.8954   78.3873  219.5643 H   0  0  0  0  0  0  0  0  0  0  0  0
  142.0782   76.9707  218.8212 H   0  0  0  0  0  0  0  0  0  0  0  0
  141.2708   78.5753  218.8212 H   0  0  0  0  0  0  0  0  0  0  0  0
  142.8536   75.4088  220.3393 H   0  0  0  0  0  0  0  0  0  0  0  0
  142.3142   73.0857  221.0008 H   0  0  0  0  0  0  0  0  0  0  0  0
  140.7717   71.4119  221.7473 H   0  0  0  0  0  0  0  0  0  0  0  0
  138.1513   72.1800  222.8284 H   0  0  0  0  0  0  0  0  0  0  0  0
  141.3453   72.0165  227.3216 H   0  0  0  0  0  0  0  0  0  0  0  0
  141.8781   70.5065  229.2336 H   0  0  0  0  0  0  0  0  0  0  0  0
  139.9525   67.2646  227.1211 H   0  0  0  0  0  0  0  0  0  0  0  0
  137.4305   68.4314  223.1622 H   0  0  0  0  0  0  0  0  0  0  0  0
  137.9967   69.8858  222.1904 H   0  0  0  0  0  0  0  0  0  0  0  0
  139.9508   69.8144  220.8383 H   0  0  0  0  0  0  0  0  0  0  0  0
  141.3165   68.4393  219.3309 H   0  0  0  0  0  0  0  0  0  0  0  0
  141.2927   65.9742  219.4758 H   0  0  0  0  0  0  0  0  0  0  0  0
  139.8522   64.8946  221.1860 H   0  0  0  0  0  0  0  0  0  0  0  0
  138.4742   66.2669  222.7080 H   0  0  0  0  0  0  0  0  0  0  0  0
  138.5486   74.3861  222.5226 H   0  0  0  0  0  0  0  0  0  0  0  0
  139.0853   76.7075  221.8638 H   0  0  0  0  0  0  0  0  0  0  0  0
  1  2  1  0
  2  3  1  0
  2  4  1  0
  4  5  1  0
  5  6  1  0
  6  7  1  0
  6  8  1  0
  8  9  2  0
  9 10  1  0
 10 11  2  0
 11 12  1  0
 12 13  2  0
 13 14  1  0
 14 15  2  0
 15 16  1  0
 16 17  2  0
 17 18  1  0
 18 19  2  0
 19 20  1  0
 19 21  1  0
 21 22  2  0
 22 23  1  0
 23 24  2  0
 23 25  1  0
 25 26  1  0
 26 27  1  0
 27 28  2  0
 28 29  1  0
 29 30  2  0
 30 31  1  0
 31 32  2  0
 11 33  1  0
 33 34  2  0
 34  8  1  0
 25 14  1  0
 32 27  1  0
 22 16  1  0
  1 35  1  0
  1 36  1  0
  1 37  1  0
  3 38  1  0
  3 39  1  0
  3 40  1  0
  4 41  1  0
  4 42  1  0
  5 43  1  0
  5 44  1  0
  7 45  1  0
  7 46  1  0
  7 47  1  0
  9 48  1  0
 10 49  1  0
 12 50  1  0
 13 51  1  0
 17 52  1  0
 18 53  1  0
 21 54  1  0
 26 55  1  0
 26 56  1  0
 28 57  1  0
 29 58  1  0
 30 59  1  0
 31 60  1  0
 32 61  1  0
 33 62  1  0
 34 63  1  0
M  END
>  <smiles>  (11) 
CN(C)CCN(C)c1ccc(/C=C/c2nc3ccc(F)cc3c(=O)n2Cc2ccccc2)cc1

>  <score_type>  (11) 
oracle

>  <origin>  (11) 
autodockgpu

>  <m_score__min__energy>  (11) 
-8.2899999999999991

>  <m_primary>  (11) 
energy

>  <meeko>  (11) 
{"free_energy": -8.29, "intermolecular_energy": -10.98, "internal_energy": -1.63, "cluster_size": 11, "cluster_id": 1, "rank_in_cluster": 1}

>  <energy>  (11) 
-7.8

>  <cluster_rmsd>  (11) 
0.95

>  <rmsd>  (11) 
271.08

>  <cluster>  (11) 
1

$$$$

     RDKit          3D

 63 66  0  0  0  0  0  0  0  0999 V2000
  141.8440   78.6840  223.9840 C   0  0  0  0  0  0  0  0  0  0  0  0
  141.6370   80.1250  223.7160 N   0  0  0  0  0  0  0  0  0  0  0  0
  142.8040   80.5000  222.9300 C   0  0  0  0  0  0  0  0  0  0  0  0
  140.4140   80.3170  223.0210 C   0  0  0  0  0  0  0  0  0  0  0  0
  139.5220   79.1190  222.8740 C   0  0  0  0  0  0  0  0  0  0  0  0
  139.8410   78.2890  221.7310 N   0  0  0  0  0  0  0  0  0  0  0  0
  140.1050   79.0240  220.4830 C   0  0  0  0  0  0  0  0  0  0  0  0
  139.8970   76.8690  221.7710 C   0  0  0  0  0  0  0  0  0  0  0  0
  141.0670   76.1610  221.5880 C   0  0  0  0  0  0  0  0  0  0  0  0
  141.0950   74.7600  221.6360 C   0  0  0  0  0  0  0  0  0  0  0  0
  139.9550   74.0190  221.8690 C   0  0  0  0  0  0  0  0  0  0  0  0
  140.0340   72.5690  221.9060 C   0  0  0  0  0  0  0  0  0  0  0  0
  139.1320   71.7680  222.3970 C   0  0  0  0  0  0  0  0  0  0  0  0
  139.3860   70.9090  223.5620 C   0  0  0  0  0  0  0  0  0  0  0  0
  139.9490   71.5310  224.6270 N   0  0  0  0  0  0  0  0  0  0  0  0
  140.2660   70.8740  225.7490 C   0  0  0  0  0  0  0  0  0  0  0  0
  140.8400   71.4830  226.8440 C   0  0  0  0  0  0  0  0  0  0  0  0
  141.1560   70.7790  227.9900 C   0  0  0  0  0  0  0  0  0  0  0  0
  140.8670   69.4220  227.9860 C   0  0  0  0  0  0  0  0  0  0  0  0
  141.1810   68.7370  229.1170 F   0  0  0  0  0  0  0  0  0  0  0  0
  140.2950   68.7830  226.9130 C   0  0  0  0  0  0  0  0  0  0  0  0
  139.9860   69.5170  225.7700 C   0  0  0  0  0  0  0  0  0  0  0  0
  139.4110   68.9080  224.6720 C   0  0  0  0  0  0  0  0  0  0  0  0
  139.1920   67.6720  224.7780 O   0  0  0  0  0  0  0  0  0  0  0  0
  139.0980   69.6040  223.5400 N   0  0  0  0  0  0  0  0  0  0  0  0
  138.5050   68.9330  222.4250 C   0  0  0  0  0  0  0  0  0  0  0  0
  137.0910   68.5380  222.6130 C   0  0  0  0  0  0  0  0  0  0  0  0
  136.2890   69.2430  223.5220 C   0  0  0  0  0  0  0  0  0  0  0  0
  134.9630   68.9110  223.7280 C   0  0  0  0  0  0  0  0  0  0  0  0
  134.3710   67.8800  223.0570 C   0  0  0  0  0  0  0  0  0  0  0  0
  135.1310   67.1740  222.1620 C   0  0  0  0  0  0  0  0  0  0  0  0
  136.4700   67.5080  221.9530 C   0  0  0  0  0  0  0  0  0  0  0  0
  138.7880   74.7220  222.0520 C   0  0  0  0  0  0  0  0  0  0  0  0
  138.7590   76.1230  222.0040 C   0  0  0  0  0  0  0  0  0  0  0  0
  141.8686   78.5129  225.0703 H   0  0  0  0  0  0  0  0  0  0  0  0
  141.0196   78.1064  223.5404 H   0  0  0  0  0  0  0  0  0  0  0  0
  142.7976   78.3618  223.5404 H   0  0  0  0  0  0  0  0  0  0  0  0
  143.6308   80.7657  223.6051 H   0  0  0  0  0  0  0  0  0  0  0  0
  143.1061   79.6537  222.2956 H   0  0  0  0  0  0  0  0  0  0  0  0
  142.5566   81.3639  222.2956 H   0  0  0  0  0  0  0  0  0  0  0  0
  139.8452   81.0913  223.5567 H   0  0  0  0  0  0  0  0  0  0  0  0
  140.7060   80.5851  221.9949 H   0  0  0  0  0  0  0  0  0  0  0  0
  139.6116   78.5063  223.7832 H   0  0  0  0  0  0  0  0  0  0  0  0
  138.5007   79.4973  222.7199 H   0  0  0  0  0  0  0  0  0  0  0  0
  140.4679   80.0345  220.7223 H   0  0  0  0  0  0  0  0  0  0  0  0
  140.8674   78.4898  219.8971 H   0  0  0  0  0  0  0  0  0  0  0  0
  139.1769   79.0970  219.8971 H   0  0  0  0  0  0  0  0  0  0  0  0
  142.0016   76.7096  221.3996 H   0  0  0  0  0  0  0  0  0  0  0  0
  142.0512   74.2380  221.4839 H   0  0  0  0  0  0  0  0  0  0  0  0
  140.9368   72.1059  221.4811 H   0  0  0  0  0  0  0  0  0  0  0  0
  138.1410   71.7331  221.9209 H   0  0  0  0  0  0  0  0  0  0  0  0
  141.0528   72.5615  226.8044 H   0  0  0  0  0  0  0  0  0  0  0  0
  141.6137   71.2696  228.8617 H   0  0  0  0  0  0  0  0  0  0  0  0
  140.0834   67.7044  226.9558 H   0  0  0  0  0  0  0  0  0  0  0  0
  138.5592   69.6037  221.5548 H   0  0  0  0  0  0  0  0  0  0  0  0
  139.0703   67.9988  222.2920 H   0  0  0  0  0  0  0  0  0  0  0  0
  136.7259   70.0809  224.0851 H   0  0  0  0  0  0  0  0  0  0  0  0
  134.3704   69.4917  224.4502 H   0  0  0  0  0  0  0  0  0  0  0  0
  133.3153   67.6237  223.2298 H   0  0  0  0  0  0  0  0  0  0  0  0
  134.6829   66.3384  221.6044 H   0  0  0  0  0  0  0  0  0  0  0  0
  137.0523   66.9202  221.2281 H   0  0  0  0  0  0  0  0  0  0  0  0
  137.8542   74.1721  222.2407 H   0  0  0  0  0  0  0  0  0  0  0  0
  137.8016   76.6428  222.1564 H   0  0  0  0  0  0  0  0  0  0  0  0
  1  2  1  0
  2  3  1  0
  2  4  1  0
  4  5  1  0
  5  6  1  0
  6  7  1  0
  6  8  1  0
  8  9  2  0
  9 10  1  0
 10 11  2  0
 11 12  1  0
 12 13  2  0
 13 14  1  0
 14 15  2  0
 15 16  1  0
 16 17  2  0
 17 18  1  0
 18 19  2  0
 19 20  1  0
 19 21  1  0
 21 22  2  0
 22 23  1  0
 23 24  2  0
 23 25  1  0
 25 26  1  0
 26 27  1  0
 27 28  2  0
 28 29  1  0
 29 30  2  0
 30 31  1  0
 31 32  2  0
 11 33  1  0
 33 34  2  0
 34  8  1  0
 25 14  1  0
 32 27  1  0
 22 16  1  0
  1 35  1  0
  1 36  1  0
  1 37  1  0
  3 38  1  0
  3 39  1  0
  3 40  1  0
  4 41  1  0
  4 42  1  0
  5 43  1  0
  5 44  1  0
  7 45  1  0
  7 46  1  0
  7 47  1  0
  9 48  1  0
 10 49  1  0
 12 50  1  0
 13 51  1  0
 17 52  1  0
 18 53  1  0
 21 54  1  0
 26 55  1  0
 26 56  1  0
 28 57  1  0
 29 58  1  0
 30 59  1  0
 31 60  1  0
 32 61  1  0
 33 62  1  0
 34 63  1  0
M  END
>  <smiles>  (12) 
CN(C)CCN(C)c1ccc(/C=C/c2nc3ccc(F)cc3c(=O)n2Cc2ccccc2)cc1

>  <score_type>  (12) 
oracle

>  <origin>  (12) 
autodockgpu

>  <m_score__min__energy>  (12) 
-8.2899999999999991

>  <m_primary>  (12) 
energy

>  <meeko>  (12) 
{"free_energy": -7.87, "intermolecular_energy": -10.55, "internal_energy": -1.66, "cluster_size": 11, "cluster_id": 1, "rank_in_cluster": 8}

>  <energy>  (12) 
-8.24

>  <cluster_rmsd>  (12) 
0.0

>  <rmsd>  (12) 
271.68

>  <cluster>  (12) 
2

$$$$

     RDKit          3D

 63 66  0  0  0  0  0  0  0  0999 V2000
  140.7960   68.6280  228.4130 C   0  0  0  0  0  0  0  0  0  0  0  0
  140.7360   68.7650  226.9400 N   0  0  0  0  0  0  0  0  0  0  0  0
  140.6930   67.3890  226.4670 C   0  0  0  0  0  0  0  0  0  0  0  0
  139.5890   69.5170  226.5720 C   0  0  0  0  0  0  0  0  0  0  0  0
  138.5870   68.8360  225.6870 C   0  0  0  0  0  0  0  0  0  0  0  0
  138.8460   69.0050  224.2720 N   0  0  0  0  0  0  0  0  0  0  0  0
  138.8220   67.7640  223.4820 C   0  0  0  0  0  0  0  0  0  0  0  0
  139.1130   70.2590  223.6570 C   0  0  0  0  0  0  0  0  0  0  0  0
  140.3760   70.8120  223.6040 C   0  0  0  0  0  0  0  0  0  0  0  0
  140.6130   72.0490  222.9880 C   0  0  0  0  0  0  0  0  0  0  0  0
  139.5960   72.7760  222.4050 C   0  0  0  0  0  0  0  0  0  0  0  0
  139.8900   74.0550  221.7830 C   0  0  0  0  0  0  0  0  0  0  0  0
  141.0780   74.5310  221.5400 C   0  0  0  0  0  0  0  0  0  0  0  0
  141.3330   75.9650  221.3490 C   0  0  0  0  0  0  0  0  0  0  0  0
  140.9050   76.7680  222.3550 N   0  0  0  0  0  0  0  0  0  0  0  0
  141.0410   78.0980  222.3110 C   0  0  0  0  0  0  0  0  0  0  0  0
  140.6140   78.9340  223.3190 C   0  0  0  0  0  0  0  0  0  0  0  0
  140.7670   80.3050  223.2460 C   0  0  0  0  0  0  0  0  0  0  0  0
  141.3760   80.8030  222.1020 C   0  0  0  0  0  0  0  0  0  0  0  0
  141.5230   82.1530  222.0380 F   0  0  0  0  0  0  0  0  0  0  0  0
  141.8140   79.9990  221.0780 C   0  0  0  0  0  0  0  0  0  0  0  0
  141.6460   78.6200  221.1790 C   0  0  0  0  0  0  0  0  0  0  0  0
  142.0740   77.7800  220.1690 C   0  0  0  0  0  0  0  0  0  0  0  0
  142.6130   78.3390  219.1770 O   0  0  0  0  0  0  0  0  0  0  0  0
  141.9220   76.4260  220.2410 N   0  0  0  0  0  0  0  0  0  0  0  0
  142.3790   75.5930  219.1710 C   0  0  0  0  0  0  0  0  0  0  0  0
  143.4710   74.6600  219.5270 C   0  0  0  0  0  0  0  0  0  0  0  0
  143.5350   73.4010  218.9140 C   0  0  0  0  0  0  0  0  0  0  0  0
  144.5380   72.4980  219.2130 C   0  0  0  0  0  0  0  0  0  0  0  0
  145.5140   72.7890  220.1230 C   0  0  0  0  0  0  0  0  0  0  0  0
  145.4760   74.0120  220.7380 C   0  0  0  0  0  0  0  0  0  0  0  0
  144.4640   74.9260  220.4370 C   0  0  0  0  0  0  0  0  0  0  0  0
  138.3370   72.2280  222.4570 C   0  0  0  0  0  0  0  0  0  0  0  0
  138.0990   70.9900  223.0720 C   0  0  0  0  0  0  0  0  0  0  0  0
  140.3969   69.5392  228.8825 H   0  0  0  0  0  0  0  0  0  0  0  0
  140.1952   67.7612  228.7254 H   0  0  0  0  0  0  0  0  0  0  0  0
  141.8405   68.4819  228.7254 H   0  0  0  0  0  0  0  0  0  0  0  0
  140.6716   66.7056  227.3287 H   0  0  0  0  0  0  0  0  0  0  0  0
  139.7897   67.2389  225.8574 H   0  0  0  0  0  0  0  0  0  0  0  0
  141.5851   67.1828  225.8574 H   0  0  0  0  0  0  0  0  0  0  0  0
  139.0712   69.8081  227.4978 H   0  0  0  0  0  0  0  0  0  0  0  0
  139.9754   70.3565  225.9753 H   0  0  0  0  0  0  0  0  0  0  0  0
  138.5975   67.7600  225.9153 H   0  0  0  0  0  0  0  0  0  0  0  0
  137.6111   69.3006  225.8916 H   0  0  0  0  0  0  0  0  0  0  0  0
  138.8053   66.8980  224.1600 H   0  0  0  0  0  0  0  0  0  0  0  0
  137.9234   67.7505  222.8477 H   0  0  0  0  0  0  0  0  0  0  0  0
  139.7194   67.7157  222.8477 H   0  0  0  0  0  0  0  0  0  0  0  0
  141.2185   70.2685  224.0566 H   0  0  0  0  0  0  0  0  0  0  0  0
  141.6370   72.4504  222.9691 H   0  0  0  0  0  0  0  0  0  0  0  0
  139.0320   74.6781  221.4907 H   0  0  0  0  0  0  0  0  0  0  0  0
  141.9241   73.8311  221.4752 H   0  0  0  0  0  0  0  0  0  0  0  0
  140.1370   78.4969  224.2086 H   0  0  0  0  0  0  0  0  0  0  0  0
  140.4237   80.9685  224.0534 H   0  0  0  0  0  0  0  0  0  0  0  0
  142.2912   80.4385  220.1897 H   0  0  0  0  0  0  0  0  0  0  0  0
  141.5255   74.9986  218.8130 H   0  0  0  0  0  0  0  0  0  0  0  0
  142.7902   76.2706  218.4082 H   0  0  0  0  0  0  0  0  0  0  0  0
  142.7674   73.1245  218.1762 H   0  0  0  0  0  0  0  0  0  0  0  0
  144.5504   71.5219  218.7060 H   0  0  0  0  0  0  0  0  0  0  0  0
  146.3069   72.0627  220.3550 H   0  0  0  0  0  0  0  0  0  0  0  0
  146.2487   74.2765  221.4749 H   0  0  0  0  0  0  0  0  0  0  0  0
  144.4624   75.8990  220.9501 H   0  0  0  0  0  0  0  0  0  0  0  0
  137.4953   72.7734  222.0053 H   0  0  0  0  0  0  0  0  0  0  0  0
  137.0744   70.5901  223.0885 H   0  0  0  0  0  0  0  0  0  0  0  0
  1  2  1  0
  2  3  1  0
  2  4  1  0
  4  5  1  0
  5  6  1  0
  6  7  1  0
  6  8  1  0
  8  9  2  0
  9 10  1  0
 10 11  2  0
 11 12  1  0
 12 13  2  0
 13 14  1  0
 14 15  2  0
 15 16  1  0
 16 17  2  0
 17 18  1  0
 18 19  2  0
 19 20  1  0
 19 21  1  0
 21 22  2  0
 22 23  1  0
 23 24  2  0
 23 25  1  0
 25 26  1  0
 26 27  1  0
 27 28  2  0
 28 29  1  0
 29 30  2  0
 30 31  1  0
 31 32  2  0
 11 33  1  0
 33 34  2  0
 34  8  1  0
 25 14  1  0
 32 27  1  0
 22 16  1  0
  1 35  1  0
  1 36  1  0
  1 37  1  0
  3 38  1  0
  3 39  1  0
  3 40  1  0
  4 41  1  0
  4 42  1  0
  5 43  1  0
  5 44  1  0
  7 45  1  0
  7 46  1  0
  7 47  1  0
  9 48  1  0
 10 49  1  0
 12 50  1  0
 13 51  1  0
 17 52  1  0
 18 53  1  0
 21 54  1  0
 26 55  1  0
 26 56  1  0
 28 57  1  0
 29 58  1  0
 30 59  1  0
 31 60  1  0
 32 61  1  0
 33 62  1  0
 34 63  1  0
M  END
>  <smiles>  (13) 
CN(C)CCN(C)c1ccc(/C=C/c2nc3ccc(F)cc3c(=O)n2Cc2ccccc2)cc1

>  <score_type>  (13) 
oracle

>  <origin>  (13) 
autodockgpu

>  <m_score__min__energy>  (13) 
-8.2899999999999991

>  <m_primary>  (13) 
energy

>  <meeko>  (13) 
{"free_energy": -7.72, "intermolecular_energy": -10.41, "internal_energy": -1.65, "cluster_size": 2, "cluster_id": 2, "rank_in_cluster": 2}

>  <energy>  (13) 
-7.72

>  <cluster_rmsd>  (13) 
1.25

>  <rmsd>  (13) 
271.42

>  <cluster>  (13) 
2

$$$$

     RDKit          3D

 63 66  0  0  0  0  0  0  0  0999 V2000
  141.4920   78.8750  223.9240 C   0  0  0  0  0  0  0  0  0  0  0  0
  141.7800   80.2000  223.3300 N   0  0  0  0  0  0  0  0  0  0  0  0
  143.1890   80.1190  222.9740 C   0  0  0  0  0  0  0  0  0  0  0  0
  140.9350   80.4210  222.2100 C   0  0  0  0  0  0  0  0  0  0  0  0
  140.0770   79.2730  221.7700 C   0  0  0  0  0  0  0  0  0  0  0  0
  140.7960   78.2520  221.0360 N   0  0  0  0  0  0  0  0  0  0  0  0
  141.7090   78.7590  219.9990 C   0  0  0  0  0  0  0  0  0  0  0  0
  140.6500   76.8560  221.2660 C   0  0  0  0  0  0  0  0  0  0  0  0
  139.7000   76.3340  222.1190 C   0  0  0  0  0  0  0  0  0  0  0  0
  139.5760   74.9530  222.3250 C   0  0  0  0  0  0  0  0  0  0  0  0
  140.3970   74.0470  221.6870 C   0  0  0  0  0  0  0  0  0  0  0  0
  140.2320   72.6260  221.9360 C   0  0  0  0  0  0  0  0  0  0  0  0
  139.2090   72.0660  222.5160 C   0  0  0  0  0  0  0  0  0  0  0  0
  139.3510   71.1330  223.6430 C   0  0  0  0  0  0  0  0  0  0  0  0
  139.9810   71.6350  224.7340 N   0  0  0  0  0  0  0  0  0  0  0  0
  140.2100   70.8960  225.8260 C   0  0  0  0  0  0  0  0  0  0  0  0
  140.8490   71.3830  226.9450 C   0  0  0  0  0  0  0  0  0  0  0  0
  141.0710   70.5960  228.0590 C   0  0  0  0  0  0  0  0  0  0  0  0
  140.6180   69.2860  227.9970 C   0  0  0  0  0  0  0  0  0  0  0  0
  140.8410   68.5200  229.0980 F   0  0  0  0  0  0  0  0  0  0  0  0
  139.9770   68.7690  226.8980 C   0  0  0  0  0  0  0  0  0  0  0  0
  139.7660   69.5840  225.7880 C   0  0  0  0  0  0  0  0  0  0  0  0
  139.1250   69.0980  224.6650 C   0  0  0  0  0  0  0  0  0  0  0  0
  138.7560   67.8950  224.7180 O   0  0  0  0  0  0  0  0  0  0  0  0
  138.9060   69.8750  223.5650 N   0  0  0  0  0  0  0  0  0  0  0  0
  138.2390   69.3310  222.4220 C   0  0  0  0  0  0  0  0  0  0  0  0
  138.9830   68.2660  221.7130 C   0  0  0  0  0  0  0  0  0  0  0  0
  138.7160   66.9210  222.0040 C   0  0  0  0  0  0  0  0  0  0  0  0
  139.3840   65.8940  221.3640 C   0  0  0  0  0  0  0  0  0  0  0  0
  140.3370   66.1400  220.4180 C   0  0  0  0  0  0  0  0  0  0  0  0
  140.6190   67.4460  220.1130 C   0  0  0  0  0  0  0  0  0  0  0  0
  139.9450   68.4850  220.7580 C   0  0  0  0  0  0  0  0  0  0  0  0
  141.3440   74.5650  220.8360 C   0  0  0  0  0  0  0  0  0  0  0  0
  141.4690   75.9460  220.6290 C   0  0  0  0  0  0  0  0  0  0  0  0
  141.5091   78.9535  225.0211 H   0  0  0  0  0  0  0  0  0  0  0  0
  140.4988   78.5342  223.5962 H   0  0  0  0  0  0  0  0  0  0  0  0
  142.2541   78.1527  223.5962 H   0  0  0  0  0  0  0  0  0  0  0  0
  143.7972   80.0840  223.8899 H   0  0  0  0  0  0  0  0  0  0  0  0
  143.3658   79.2092  222.3815 H   0  0  0  0  0  0  0  0  0  0  0  0
  143.4689   81.0025  222.3815 H   0  0  0  0  0  0  0  0  0  0  0  0
  140.2670   81.2590  222.4581 H   0  0  0  0  0  0  0  0  0  0  0  0
  141.6180   80.6073  221.3681 H   0  0  0  0  0  0  0  0  0  0  0  0
  139.6330   78.8097  222.6635 H   0  0  0  0  0  0  0  0  0  0  0  0
  139.3188   79.6837  221.0871 H   0  0  0  0  0  0  0  0  0  0  0  0
  142.5753   79.2401  220.4765 H   0  0  0  0  0  0  0  0  0  0  0  0
  142.0531   77.9227  219.3727 H   0  0  0  0  0  0  0  0  0  0  0  0
  141.1810   79.4931  219.3727 H   0  0  0  0  0  0  0  0  0  0  0  0
  139.0228   77.0185  222.6509 H   0  0  0  0  0  0  0  0  0  0  0  0
  138.8030   74.5820  223.0141 H   0  0  0  0  0  0  0  0  0  0  0  0
  141.0444   71.9624  221.6049 H   0  0  0  0  0  0  0  0  0  0  0  0
  138.1992   72.3004  222.1481 H   0  0  0  0  0  0  0  0  0  0  0  0
  141.1923   72.4280  226.9520 H   0  0  0  0  0  0  0  0  0  0  0  0
  141.5816   70.9886  228.9507 H   0  0  0  0  0  0  0  0  0  0  0  0
  139.6342   67.7238  226.8942 H   0  0  0  0  0  0  0  0  0  0  0  0
  137.2777   68.9124  222.7548 H   0  0  0  0  0  0  0  0  0  0  0  0
  138.1298   70.1591  221.7062 H   0  0  0  0  0  0  0  0  0  0  0  0
  137.9558   66.6767  222.7606 H   0  0  0  0  0  0  0  0  0  0  0  0
  139.1417   64.8528  221.6233 H   0  0  0  0  0  0  0  0  0  0  0  0
  140.8628   65.3147  219.9156 H   0  0  0  0  0  0  0  0  0  0  0  0
  141.3816   67.6774  219.3548 H   0  0  0  0  0  0  0  0  0  0  0  0
  140.1951   69.5221  220.4899 H   0  0  0  0  0  0  0  0  0  0  0  0
  142.0202   73.8793  220.3044 H   0  0  0  0  0  0  0  0  0  0  0  0
  142.2422   76.3148  219.9389 H   0  0  0  0  0  0  0  0  0  0  0  0
  1  2  1  0
  2  3  1  0
  2  4  1  0
  4  5  1  0
  5  6  1  0
  6  7  1  0
  6  8  1  0
  8  9  2  0
  9 10  1  0
 10 11  2  0
 11 12  1  0
 12 13  2  0
 13 14  1  0
 14 15  2  0
 15 16  1  0
 16 17  2  0
 17 18  1  0
 18 19  2  0
 19 20  1  0
 19 21  1  0
 21 22  2  0
 22 23  1  0
 23 24  2  0
 23 25  1  0
 25 26  1  0
 26 27  1  0
 27 28  2  0
 28 29  1  0
 29 30  2  0
 30 31  1  0
 31 32  2  0
 11 33  1  0
 33 34  2  0
 34  8  1  0
 25 14  1  0
 32 27  1  0
 22 16  1  0
  1 35  1  0
  1 36  1  0
  1 37  1  0
  3 38  1  0
  3 39  1  0
  3 40  1  0
  4 41  1  0
  4 42  1  0
  5 43  1  0
  5 44  1  0
  7 45  1  0
  7 46  1  0
  7 47  1  0
  9 48  1  0
 10 49  1  0
 12 50  1  0
 13 51  1  0
 17 52  1  0
 18 53  1  0
 21 54  1  0
 26 55  1  0
 26 56  1  0
 28 57  1  0
 29 58  1  0
 30 59  1  0
 31 60  1  0
 32 61  1  0
 33 62  1  0
 34 63  1  0
M  END
>  <smiles>  (14) 
CN(C)CCN(C)c1ccc(/C=C/c2nc3ccc(F)cc3c(=O)n2Cc2ccccc2)cc1

>  <score_type>  (14) 
oracle

>  <origin>  (14) 
autodockgpu

>  <m_score__min__energy>  (14) 
-8.2899999999999991

>  <m_primary>  (14) 
energy

>  <meeko>  (14) 
{"free_energy": -7.97, "intermolecular_energy": -10.66, "internal_energy": -1.63, "cluster_size": 11, "cluster_id": 1, "rank_in_cluster": 6}

>  <energy>  (14) 
-7.74

>  <cluster_rmsd>  (14) 
0.0

>  <rmsd>  (14) 
271.32

>  <cluster>  (14) 
3

$$$$

     RDKit          3D

 63 66  0  0  0  0  0  0  0  0999 V2000
  140.8920   70.9900  225.7310 C   0  0  0  0  0  0  0  0  0  0  0  0
  140.4700   69.8580  226.5870 N   0  0  0  0  0  0  0  0  0  0  0  0
  140.4100   70.4380  227.9200 C   0  0  0  0  0  0  0  0  0  0  0  0
  139.2180   69.3570  226.1410 C   0  0  0  0  0  0  0  0  0  0  0  0
  139.2480   68.1490  225.2520 C   0  0  0  0  0  0  0  0  0  0  0  0
  138.9120   68.4300  223.8720 N   0  0  0  0  0  0  0  0  0  0  0  0
  138.7000   67.2420  223.0290 C   0  0  0  0  0  0  0  0  0  0  0  0
  138.7920   69.7410  223.3340 C   0  0  0  0  0  0  0  0  0  0  0  0
  137.8160   70.6280  223.7380 C   0  0  0  0  0  0  0  0  0  0  0  0
  137.7230   71.9170  223.1940 C   0  0  0  0  0  0  0  0  0  0  0  0
  138.6010   72.3630  222.2280 C   0  0  0  0  0  0  0  0  0  0  0  0
  138.4610   73.7060  221.6920 C   0  0  0  0  0  0  0  0  0  0  0  0
  139.2740   74.7010  221.9040 C   0  0  0  0  0  0  0  0  0  0  0  0
  140.6240   74.7590  221.3260 C   0  0  0  0  0  0  0  0  0  0  0  0
  141.2980   73.5810  221.3130 N   0  0  0  0  0  0  0  0  0  0  0  0
  142.5470   73.4830  220.8430 C   0  0  0  0  0  0  0  0  0  0  0  0
  143.2530   72.2990  220.8200 C   0  0  0  0  0  0  0  0  0  0  0  0
  144.5420   72.2270  220.3300 C   0  0  0  0  0  0  0  0  0  0  0  0
  145.0970   73.4090  219.8590 C   0  0  0  0  0  0  0  0  0  0  0  0
  146.3660   73.3290  219.3790 F   0  0  0  0  0  0  0  0  0  0  0  0
  144.4230   74.6050  219.8680 C   0  0  0  0  0  0  0  0  0  0  0  0
  143.1220   74.6500  220.3680 C   0  0  0  0  0  0  0  0  0  0  0  0
  142.4140   75.8350  220.3920 C   0  0  0  0  0  0  0  0  0  0  0  0
  143.0140   76.8470  219.9410 O   0  0  0  0  0  0  0  0  0  0  0  0
  141.1400   75.9060  220.8760 N   0  0  0  0  0  0  0  0  0  0  0  0
  140.4430   77.1550  220.8840 C   0  0  0  0  0  0  0  0  0  0  0  0
  141.0500   78.2050  221.7310 C   0  0  0  0  0  0  0  0  0  0  0  0
  141.1080   78.0280  223.1200 C   0  0  0  0  0  0  0  0  0  0  0  0
  141.6680   78.9810  223.9510 C   0  0  0  0  0  0  0  0  0  0  0  0
  142.1910   80.1410  223.4580 C   0  0  0  0  0  0  0  0  0  0  0  0
  142.1480   80.3420  222.1020 C   0  0  0  0  0  0  0  0  0  0  0  0
  141.5830   79.3810  221.2630 C   0  0  0  0  0  0  0  0  0  0  0  0
  139.5740   71.4810  221.8240 C   0  0  0  0  0  0  0  0  0  0  0  0
  139.6690   70.1920  222.3680 C   0  0  0  0  0  0  0  0  0  0  0  0
  141.2059   71.8321  226.3652 H   0  0  0  0  0  0  0  0  0  0  0  0
  141.7334   70.6757  225.0959 H   0  0  0  0  0  0  0  0  0  0  0  0
  140.0502   71.3032  225.0959 H   0  0  0  0  0  0  0  0  0  0  0  0
  140.4927   69.6391  228.6716 H   0  0  0  0  0  0  0  0  0  0  0  0
  141.2394   71.1491  228.0481 H   0  0  0  0  0  0  0  0  0  0  0  0
  139.4526   70.9643  228.0481 H   0  0  0  0  0  0  0  0  0  0  0  0
  138.6268   69.0992  227.0321 H   0  0  0  0  0  0  0  0  0  0  0  0
  138.7928   70.1594  225.5202 H   0  0  0  0  0  0  0  0  0  0  0  0
  140.2611   67.7215  225.2820 H   0  0  0  0  0  0  0  0  0  0  0  0
  138.4856   67.4530  225.6318 H   0  0  0  0  0  0  0  0  0  0  0  0
  138.5429   66.3614  223.6692 H   0  0  0  0  0  0  0  0  0  0  0  0
  137.8152   67.3962  222.3939 H   0  0  0  0  0  0  0  0  0  0  0  0
  139.5835   67.0806  222.3939 H   0  0  0  0  0  0  0  0  0  0  0  0
  137.0927   70.3164  224.5060 H   0  0  0  0  0  0  0  0  0  0  0  0
  136.9284   72.5908  223.5471 H   0  0  0  0  0  0  0  0  0  0  0  0
  137.5897   73.8999  221.0491 H   0  0  0  0  0  0  0  0  0  0  0  0
  138.9367   75.5316  222.5415 H   0  0  0  0  0  0  0  0  0  0  0  0
  142.7756   71.3851  221.2032 H   0  0  0  0  0  0  0  0  0  0  0  0
  145.1013   71.2799  220.3137 H   0  0  0  0  0  0  0  0  0  0  0  0
  144.9037   75.5173  219.4852 H   0  0  0  0  0  0  0  0  0  0  0  0
  140.4039   77.5305  219.8508 H   0  0  0  0  0  0  0  0  0  0  0  0
  139.4508   76.9503  221.3125 H   0  0  0  0  0  0  0  0  0  0  0  0
  140.6976   77.1074  223.5605 H   0  0  0  0  0  0  0  0  0  0  0  0
  141.6925   78.7996  225.0357 H   0  0  0  0  0  0  0  0  0  0  0  0
  142.6339   80.8925  224.1282 H   0  0  0  0  0  0  0  0  0  0  0  0
  142.5616   81.2667  221.6732 H   0  0  0  0  0  0  0  0  0  0  0  0
  141.5636   79.5735  220.1802 H   0  0  0  0  0  0  0  0  0  0  0  0
  140.2960   71.7936  221.0552 H   0  0  0  0  0  0  0  0  0  0  0  0
  140.4656   69.5207  222.0147 H   0  0  0  0  0  0  0  0  0  0  0  0
  1  2  1  0
  2  3  1  0
  2  4  1  0
  4  5  1  0
  5  6  1  0
  6  7  1  0
  6  8  1  0
  8  9  2  0
  9 10  1  0
 10 11  2  0
 11 12  1  0
 12 13  2  0
 13 14  1  0
 14 15  2  0
 15 16  1  0
 16 17  2  0
 17 18  1  0
 18 19  2  0
 19 20  1  0
 19 21  1  0
 21 22  2  0
 22 23  1  0
 23 24  2  0
 23 25  1  0
 25 26  1  0
 26 27  1  0
 27 28  2  0
 28 29  1  0
 29 30  2  0
 30 31  1  0
 31 32  2  0
 11 33  1  0
 33 34  2  0
 34  8  1  0
 25 14  1  0
 32 27  1  0
 22 16  1  0
  1 35  1  0
  1 36  1  0
  1 37  1  0
  3 38  1  0
  3 39  1  0
  3 40  1  0
  4 41  1  0
  4 42  1  0
  5 43  1  0
  5 44  1  0
  7 45  1  0
  7 46  1  0
  7 47  1  0
  9 48  1  0
 10 49  1  0
 12 50  1  0
 13 51  1  0
 17 52  1  0
 18 53  1  0
 21 54  1  0
 26 55  1  0
 26 56  1  0
 28 57  1  0
 29 58  1  0
 30 59  1  0
 31 60  1  0
 32 61  1  0
 33 62  1  0
 34 63  1  0
M  END
>  <smiles>  (15) 
CN(C)CCN(C)c1ccc(/C=C/c2nc3ccc(F)cc3c(=O)n2Cc2ccccc2)cc1

>  <score_type>  (15) 
oracle

>  <origin>  (15) 
autodockgpu

>  <m_score__min__energy>  (15) 
-8.2899999999999991

>  <m_primary>  (15) 
energy

>  <meeko>  (15) 
{"free_energy": -7.58, "intermolecular_energy": -10.27, "internal_energy": -1.73, "cluster_size": 1, "cluster_id": 4, "rank_in_cluster": 1}

>  <energy>  (15) 
-7.58

>  <cluster_rmsd>  (15) 
0.0

>  <rmsd>  (15) 
271.2

>  <cluster>  (15) 
4

$$$$

     RDKit          3D

 63 66  0  0  0  0  0  0  0  0999 V2000
  141.5880   78.8520  223.8950 C   0  0  0  0  0  0  0  0  0  0  0  0
  140.3670   79.2750  223.1750 N   0  0  0  0  0  0  0  0  0  0  0  0
  140.3370   80.7170  223.3640 C   0  0  0  0  0  0  0  0  0  0  0  0
  140.4560   78.8940  221.8090 C   0  0  0  0  0  0  0  0  0  0  0  0
  141.8090   78.4890  221.3050 C   0  0  0  0  0  0  0  0  0  0  0  0
  141.7870   77.3260  220.4410 N   0  0  0  0  0  0  0  0  0  0  0  0
  142.2200   77.5710  219.0560 C   0  0  0  0  0  0  0  0  0  0  0  0
  141.3790   76.0310  220.8630 C   0  0  0  0  0  0  0  0  0  0  0  0
  140.1860   75.7990  221.5160 C   0  0  0  0  0  0  0  0  0  0  0  0
  139.8060   74.5100  221.9180 C   0  0  0  0  0  0  0  0  0  0  0  0
  140.6050   73.4110  221.6820 C   0  0  0  0  0  0  0  0  0  0  0  0
  140.1690   72.0970  222.1210 C   0  0  0  0  0  0  0  0  0  0  0  0
  139.2690   71.8550  223.0310 C   0  0  0  0  0  0  0  0  0  0  0  0
  139.4520   70.8360  224.0730 C   0  0  0  0  0  0  0  0  0  0  0  0
  140.1180   71.2510  225.1790 N   0  0  0  0  0  0  0  0  0  0  0  0
  140.3850   70.4280  226.2000 C   0  0  0  0  0  0  0  0  0  0  0  0
  141.0620   70.8260  227.3330 C   0  0  0  0  0  0  0  0  0  0  0  0
  141.3240   69.9540  228.3720 C   0  0  0  0  0  0  0  0  0  0  0  0
  140.8710   68.6510  228.2200 C   0  0  0  0  0  0  0  0  0  0  0  0
  141.1330   67.8000  229.2470 F   0  0  0  0  0  0  0  0  0  0  0  0
  140.1950   68.2210  227.1050 C   0  0  0  0  0  0  0  0  0  0  0  0
  139.9430   69.1220  226.0720 C   0  0  0  0  0  0  0  0  0  0  0  0
  139.2660   68.7240  224.9360 C   0  0  0  0  0  0  0  0  0  0  0  0
  138.9010   67.5190  224.9040 O   0  0  0  0  0  0  0  0  0  0  0  0
  139.0070   69.5860  223.9100 N   0  0  0  0  0  0  0  0  0  0  0  0
  138.3020   69.1320  222.7510 C   0  0  0  0  0  0  0  0  0  0  0  0
  139.0570   68.1970  221.8870 C   0  0  0  0  0  0  0  0  0  0  0  0
  138.8790   66.8150  222.0400 C   0  0  0  0  0  0  0  0  0  0  0  0
  139.5600   65.9040  221.2540 C   0  0  0  0  0  0  0  0  0  0  0  0
  140.4400   66.3070  220.2920 C   0  0  0  0  0  0  0  0  0  0  0  0
  140.6350   67.6530  220.1200 C   0  0  0  0  0  0  0  0  0  0  0  0
  139.9470   68.5740  220.9130 C   0  0  0  0  0  0  0  0  0  0  0  0
  141.7930   73.6400  221.0310 C   0  0  0  0  0  0  0  0  0  0  0  0
  142.1740   74.9280  220.6280 C   0  0  0  0  0  0  0  0  0  0  0  0
  141.4137   78.9124  224.9794 H   0  0  0  0  0  0  0  0  0  0  0  0
  141.8351   77.8159  223.6205 H   0  0  0  0  0  0  0  0  0  0  0  0
  142.4232   79.5132  223.6205 H   0  0  0  0  0  0  0  0  0  0  0  0
  140.3322   80.9458  224.4399 H   0  0  0  0  0  0  0  0  0  0  0  0
  141.2260   81.1665  222.8975 H   0  0  0  0  0  0  0  0  0  0  0  0
  139.4301   81.1292  222.8975 H   0  0  0  0  0  0  0  0  0  0  0  0
  139.7759   78.0430  221.6563 H   0  0  0  0  0  0  0  0  0  0  0  0
  140.1974   79.7998  221.2410 H   0  0  0  0  0  0  0  0  0  0  0  0
  142.2357   79.3318  220.7414 H   0  0  0  0  0  0  0  0  0  0  0  0
  142.4124   78.2228  222.1853 H   0  0  0  0  0  0  0  0  0  0  0  0
  143.1774   78.1127  219.0615 H   0  0  0  0  0  0  0  0  0  0  0  0
  142.3454   76.6100  218.5356 H   0  0  0  0  0  0  0  0  0  0  0  0
  141.4608   78.1734  218.5356 H   0  0  0  0  0  0  0  0  0  0  0  0
  139.5163   76.6458  221.7266 H   0  0  0  0  0  0  0  0  0  0  0  0
  138.8451   74.3721  222.4353 H   0  0  0  0  0  0  0  0  0  0  0  0
  140.6418   71.2272  221.6415 H   0  0  0  0  0  0  0  0  0  0  0  0
  138.3354   72.4365  223.0187 H   0  0  0  0  0  0  0  0  0  0  0  0
  141.4036   71.8686  227.4121 H   0  0  0  0  0  0  0  0  0  0  0  0
  141.8644   70.2762  229.2743 H   0  0  0  0  0  0  0  0  0  0  0  0
  139.8562   67.1773  227.0279 H   0  0  0  0  0  0  0  0  0  0  0  0
  137.3861   68.6233  223.0860 H   0  0  0  0  0  0  0  0  0  0  0  0
  138.1062   70.0256  222.1402 H   0  0  0  0  0  0  0  0  0  0  0  0
  138.1798   66.4460  222.8048 H   0  0  0  0  0  0  0  0  0  0  0  0
  139.3883   64.8284  221.4078 H   0  0  0  0  0  0  0  0  0  0  0  0
  140.9771   65.5734  219.6728 H   0  0  0  0  0  0  0  0  0  0  0  0
  141.3377   68.0098  219.3526 H   0  0  0  0  0  0  0  0  0  0  0  0
  140.1261   69.6470  220.7499 H   0  0  0  0  0  0  0  0  0  0  0  0
  142.4617   72.7923  220.8208 H   0  0  0  0  0  0  0  0  0  0  0  0
  143.1347   75.0629  220.1094 H   0  0  0  0  0  0  0  0  0  0  0  0
  1  2  1  0
  2  3  1  0
  2  4  1  0
  4  5  1  0
  5  6  1  0
  6  7  1  0
  6  8  1  0
  8  9  2  0
  9 10  1  0
 10 11  2  0
 11 12  1  0
 12 13  2  0
 13 14  1  0
 14 15  2  0
 15 16  1  0
 16 17  2  0
 17 18  1  0
 18 19  2  0
 19 20  1  0
 19 21  1  0
 21 22  2  0
 22 23  1  0
 23 24  2  0
 23 25  1  0
 25 26  1  0
 26 27  1  0
 27 28  2  0
 28 29  1  0
 29 30  2  0
 30 31  1  0
 31 32  2  0
 11 33  1  0
 33 34  2  0
 34  8  1  0
 25 14  1  0
 32 27  1  0
 22 16  1  0
  1 35  1  0
  1 36  1  0
  1 37  1  0
  3 38  1  0
  3 39  1  0
  3 40  1  0
  4 41  1  0
  4 42  1  0
  5 43  1  0
  5 44  1  0
  7 45  1  0
  7 46  1  0
  7 47  1  0
  9 48  1  0
 10 49  1  0
 12 50  1  0
 13 51  1  0
 17 52  1  0
 18 53  1  0
 21 54  1  0
 26 55  1  0
 26 56  1  0
 28 57  1  0
 29 58  1  0
 30 59  1  0
 31 60  1  0
 32 61  1  0
 33 62  1  0
 34 63  1  0
M  END
>  <smiles>  (16) 
CN(C)CCN(C)c1ccc(/C=C/c2nc3ccc(F)cc3c(=O)n2Cc2ccccc2)cc1

>  <score_type>  (16) 
oracle

>  <origin>  (16) 
autodockgpu

>  <m_score__min__energy>  (16) 
-8.2899999999999991

>  <m_primary>  (16) 
energy

>  <meeko>  (16) 
{"free_energy": -8.01, "intermolecular_energy": -10.7, "internal_energy": -1.57, "cluster_size": 11, "cluster_id": 1, "rank_in_cluster": 4}

>  <energy>  (16) 
-7.49

>  <cluster_rmsd>  (16) 
0.0

>  <rmsd>  (16) 
271.38

>  <cluster>  (16) 
5

$$$$

     RDKit          3D

 63 66  0  0  0  0  0  0  0  0999 V2000
  136.1790   83.5860  227.1540 C   0  0  0  0  0  0  0  0  0  0  0  0
  136.7050   82.2250  227.4060 N   0  0  0  0  0  0  0  0  0  0  0  0
  135.7660   81.6660  228.3660 C   0  0  0  0  0  0  0  0  0  0  0  0
  136.7580   81.4950  226.1890 C   0  0  0  0  0  0  0  0  0  0  0  0
  136.2800   82.1990  224.9540 C   0  0  0  0  0  0  0  0  0  0  0  0
  137.0530   81.8920  223.7680 N   0  0  0  0  0  0  0  0  0  0  0  0
  137.3000   83.0330  222.8730 C   0  0  0  0  0  0  0  0  0  0  0  0
  137.5480   80.5950  223.4570 C   0  0  0  0  0  0  0  0  0  0  0  0
  136.7850   79.6360  222.8240 C   0  0  0  0  0  0  0  0  0  0  0  0
  137.2990   78.3660  222.5250 C   0  0  0  0  0  0  0  0  0  0  0  0
  138.5920   78.0120  222.8470 C   0  0  0  0  0  0  0  0  0  0  0  0
  139.0780   76.6830  222.5200 C   0  0  0  0  0  0  0  0  0  0  0  0
  139.3190   76.2310  221.3220 C   0  0  0  0  0  0  0  0  0  0  0  0
  140.6640   75.8430  220.8780 C   0  0  0  0  0  0  0  0  0  0  0  0
  141.0110   74.5580  221.1380 N   0  0  0  0  0  0  0  0  0  0  0  0
  142.2140   74.0670  220.8180 C   0  0  0  0  0  0  0  0  0  0  0  0
  142.5900   72.7660  221.0730 C   0  0  0  0  0  0  0  0  0  0  0  0
  143.8400   72.2860  220.7320 C   0  0  0  0  0  0  0  0  0  0  0  0
  144.7040   73.1820  220.1180 C   0  0  0  0  0  0  0  0  0  0  0  0
  145.9320   72.7020  219.7860 F   0  0  0  0  0  0  0  0  0  0  0  0
  144.3630   74.4850  219.8500 C   0  0  0  0  0  0  0  0  0  0  0  0
  143.0950   74.9420  220.2040 C   0  0  0  0  0  0  0  0  0  0  0  0
  142.7170   76.2460  219.9500 C   0  0  0  0  0  0  0  0  0  0  0  0
  143.5800   76.9720  219.3890 O   0  0  0  0  0  0  0  0  0  0  0  0
  141.4820   76.7190  220.2870 N   0  0  0  0  0  0  0  0  0  0  0  0
  141.1320   78.0780  220.0060 C   0  0  0  0  0  0  0  0  0  0  0  0
  141.5300   79.0530  221.0450 C   0  0  0  0  0  0  0  0  0  0  0  0
  141.2180   80.4100  220.8780 C   0  0  0  0  0  0  0  0  0  0  0  0
  141.5670   81.3560  221.8240 C   0  0  0  0  0  0  0  0  0  0  0  0
  142.2340   81.0150  222.9650 C   0  0  0  0  0  0  0  0  0  0  0  0
  142.5520   79.6950  223.1540 C   0  0  0  0  0  0  0  0  0  0  0  0
  142.2000   78.7390  222.2000 C   0  0  0  0  0  0  0  0  0  0  0  0
  139.3550   78.9660  223.4770 C   0  0  0  0  0  0  0  0  0  0  0  0
  138.8420   80.2360  223.7770 C   0  0  0  0  0  0  0  0  0  0  0  0
  135.9851   84.0877  228.1136 H   0  0  0  0  0  0  0  0  0  0  0  0
  136.9183   84.1645  226.5806 H   0  0  0  0  0  0  0  0  0  0  0  0
  135.2428   83.5169  226.5806 H   0  0  0  0  0  0  0  0  0  0  0  0
  136.1174   81.8752  229.3871 H   0  0  0  0  0  0  0  0  0  0  0  0
  134.7758   82.1218  228.2184 H   0  0  0  0  0  0  0  0  0  0  0  0
  135.6947   80.5783  228.2184 H   0  0  0  0  0  0  0  0  0  0  0  0
  137.8055   81.2042  226.0213 H   0  0  0  0  0  0  0  0  0  0  0  0
  136.0615   80.6550  226.3279 H   0  0  0  0  0  0  0  0  0  0  0  0
  135.2351   81.9077  224.7716 H   0  0  0  0  0  0  0  0  0  0  0  0
  136.3913   83.2778  225.1377 H   0  0  0  0  0  0  0  0  0  0  0  0
  137.4951   83.9341  223.4730 H   0  0  0  0  0  0  0  0  0  0  0  0
  138.1726   82.8190  222.2384 H   0  0  0  0  0  0  0  0  0  0  0  0
  136.4170   83.1991  222.2384 H   0  0  0  0  0  0  0  0  0  0  0  0
  135.7473   79.8734  222.5468 H   0  0  0  0  0  0  0  0  0  0  0  0
  136.6532   77.6325  222.0200 H   0  0  0  0  0  0  0  0  0  0  0  0
  139.2590   75.9959  223.3597 H   0  0  0  0  0  0  0  0  0  0  0  0
  138.4817   76.1362  220.6150 H   0  0  0  0  0  0  0  0  0  0  0  0
  141.8738   72.0896  221.5625 H   0  0  0  0  0  0  0  0  0  0  0  0
  144.1354   71.2464  220.9368 H   0  0  0  0  0  0  0  0  0  0  0  0
  145.0819   75.1596  219.3620 H   0  0  0  0  0  0  0  0  0  0  0  0
  141.6175   78.3674  219.0623 H   0  0  0  0  0  0  0  0  0  0  0  0
  140.0335   78.1095  219.9591 H   0  0  0  0  0  0  0  0  0  0  0  0
  140.6824   80.7297  219.9720 H   0  0  0  0  0  0  0  0  0  0  0  0
  141.3006   82.4094  221.6529 H   0  0  0  0  0  0  0  0  0  0  0  0
  142.5080   81.7763  223.7102 H   0  0  0  0  0  0  0  0  0  0  0  0
  143.0883   79.3872  224.0638 H   0  0  0  0  0  0  0  0  0  0  0  0
  142.4715   77.6887  222.3821 H   0  0  0  0  0  0  0  0  0  0  0  0
  140.3929   78.7275  223.7524 H   0  0  0  0  0  0  0  0  0  0  0  0
  139.4896   80.9677  224.2821 H   0  0  0  0  0  0  0  0  0  0  0  0
  1  2  1  0
  2  3  1  0
  2  4  1  0
  4  5  1  0
  5  6  1  0
  6  7  1  0
  6  8  1  0
  8  9  2  0
  9 10  1  0
 10 11  2  0
 11 12  1  0
 12 13  2  0
 13 14  1  0
 14 15  2  0
 15 16  1  0
 16 17  2  0
 17 18  1  0
 18 19  2  0
 19 20  1  0
 19 21  1  0
 21 22  2  0
 22 23  1  0
 23 24  2  0
 23 25  1  0
 25 26  1  0
 26 27  1  0
 27 28  2  0
 28 29  1  0
 29 30  2  0
 30 31  1  0
 31 32  2  0
 11 33  1  0
 33 34  2  0
 34  8  1  0
 25 14  1  0
 32 27  1  0
 22 16  1  0
  1 35  1  0
  1 36  1  0
  1 37  1  0
  3 38  1  0
  3 39  1  0
  3 40  1  0
  4 41  1  0
  4 42  1  0
  5 43  1  0
  5 44  1  0
  7 45  1  0
  7 46  1  0
  7 47  1  0
  9 48  1  0
 10 49  1  0
 12 50  1  0
 13 51  1  0
 17 52  1  0
 18 53  1  0
 21 54  1  0
 26 55  1  0
 26 56  1  0
 28 57  1  0
 29 58  1  0
 30 59  1  0
 31 60  1  0
 32 61  1  0
 33 62  1  0
 34 63  1  0
M  END
>  <smiles>  (17) 
CN(C)CCN(C)c1ccc(/C=C/c2nc3ccc(F)cc3c(=O)n2Cc2ccccc2)cc1

>  <score_type>  (17) 
oracle

>  <origin>  (17) 
autodockgpu

>  <m_score__min__energy>  (17) 
-8.2899999999999991

>  <m_primary>  (17) 
energy

>  <meeko>  (17) 
{"free_energy": -7.04, "intermolecular_energy": -9.72, "internal_energy": -2.36, "cluster_size": 2, "cluster_id": 7, "rank_in_cluster": 1}

>  <energy>  (17) 
-6.63

>  <cluster_rmsd>  (17) 
1.46

>  <rmsd>  (17) 
271.08

>  <cluster>  (17) 
5

$$$$

     RDKit          3D

 63 66  0  0  0  0  0  0  0  0999 V2000
  141.8440   80.5280  220.7310 C   0  0  0  0  0  0  0  0  0  0  0  0
  142.4090   80.6230  222.0960 N   0  0  0  0  0  0  0  0  0  0  0  0
  141.5920   81.6440  222.7360 C   0  0  0  0  0  0  0  0  0  0  0  0
  142.3290   79.3610  222.7410 C   0  0  0  0  0  0  0  0  0  0  0  0
  141.0890   79.0820  223.5360 C   0  0  0  0  0  0  0  0  0  0  0  0
  140.0070   78.5170  222.7560 N   0  0  0  0  0  0  0  0  0  0  0  0
  139.0070   79.4880  222.2840 C   0  0  0  0  0  0  0  0  0  0  0  0
  139.8850   77.1330  222.4530 C   0  0  0  0  0  0  0  0  0  0  0  0
  140.9500   76.3620  222.0370 C   0  0  0  0  0  0  0  0  0  0  0  0
  140.8030   74.9970  221.7490 C   0  0  0  0  0  0  0  0  0  0  0  0
  139.5860   74.3580  221.8670 C   0  0  0  0  0  0  0  0  0  0  0  0
  139.4830   72.9430  221.5530 C   0  0  0  0  0  0  0  0  0  0  0  0
  140.2830   72.0070  221.9780 C   0  0  0  0  0  0  0  0  0  0  0  0
  140.0330   71.2530  223.2140 C   0  0  0  0  0  0  0  0  0  0  0  0
  140.6440   71.7410  224.3220 N   0  0  0  0  0  0  0  0  0  0  0  0
  140.5330   71.1460  225.5160 C   0  0  0  0  0  0  0  0  0  0  0  0
  141.1440   71.6210  226.6560 C   0  0  0  0  0  0  0  0  0  0  0  0
  141.0130   70.9850  227.8750 C   0  0  0  0  0  0  0  0  0  0  0  0
  140.2320   69.8380  227.8980 C   0  0  0  0  0  0  0  0  0  0  0  0
  140.1080   69.2180  229.1010 F   0  0  0  0  0  0  0  0  0  0  0  0
  139.6090   69.3360  226.7820 C   0  0  0  0  0  0  0  0  0  0  0  0
  139.7580   69.9980  225.5640 C   0  0  0  0  0  0  0  0  0  0  0  0
  139.1470   69.5220  224.4210 C   0  0  0  0  0  0  0  0  0  0  0  0
  138.4620   68.4740  224.5560 O   0  0  0  0  0  0  0  0  0  0  0  0
  139.2770   70.1510  223.2160 N   0  0  0  0  0  0  0  0  0  0  0  0
  138.6260   69.6230  222.0570 C   0  0  0  0  0  0  0  0  0  0  0  0
  139.1770   68.3430  221.5600 C   0  0  0  0  0  0  0  0  0  0  0  0
  140.1470   68.3510  220.5480 C   0  0  0  0  0  0  0  0  0  0  0  0
  140.6910   67.1790  220.0550 C   0  0  0  0  0  0  0  0  0  0  0  0
  140.3080   65.9580  220.5290 C   0  0  0  0  0  0  0  0  0  0  0  0
  139.3600   65.9190  221.5180 C   0  0  0  0  0  0  0  0  0  0  0  0
  138.8100   67.1010  222.0180 C   0  0  0  0  0  0  0  0  0  0  0  0
  138.5240   75.1240  222.2820 C   0  0  0  0  0  0  0  0  0  0  0  0
  138.6700   76.4880  222.5710 C   0  0  0  0  0  0  0  0  0  0  0  0
  140.7610   80.3459  220.7943 H   0  0  0  0  0  0  0  0  0  0  0  0
  142.0266   81.4695  220.1922 H   0  0  0  0  0  0  0  0  0  0  0  0
  142.3245   79.6980  220.1922 H   0  0  0  0  0  0  0  0  0  0  0  0
  141.6711   81.5452  223.8287 H   0  0  0  0  0  0  0  0  0  0  0  0
  141.9451   82.6403  222.4314 H   0  0  0  0  0  0  0  0  0  0  0  0
  140.5425   81.5180  222.4314 H   0  0  0  0  0  0  0  0  0  0  0  0
  142.4072   78.5857  221.9646 H   0  0  0  0  0  0  0  0  0  0  0  0
  143.1465   79.3633  223.4770 H   0  0  0  0  0  0  0  0  0  0  0  0
  141.3439   78.3742  224.3385 H   0  0  0  0  0  0  0  0  0  0  0  0
  140.7333   80.0483  223.9228 H   0  0  0  0  0  0  0  0  0  0  0  0
  138.5192   79.9617  223.1487 H   0  0  0  0  0  0  0  0  0  0  0  0
  139.5028   80.2584  221.6752 H   0  0  0  0  0  0  0  0  0  0  0  0
  138.2515   78.9697  221.6752 H   0  0  0  0  0  0  0  0  0  0  0  0
  141.9399   76.8292  221.9283 H   0  0  0  0  0  0  0  0  0  0  0  0
  141.6808   74.4212  221.4205 H   0  0  0  0  0  0  0  0  0  0  0  0
  138.6552   72.6346  220.8976 H   0  0  0  0  0  0  0  0  0  0  0  0
  141.1813   71.7718  221.3882 H   0  0  0  0  0  0  0  0  0  0  0  0
  141.7543   72.5340  226.5934 H   0  0  0  0  0  0  0  0  0  0  0  0
  141.5031   71.3683  228.7821 H   0  0  0  0  0  0  0  0  0  0  0  0
  138.9997   68.4226  226.8481 H   0  0  0  0  0  0  0  0  0  0  0  0
  137.5655   69.4656  222.3031 H   0  0  0  0  0  0  0  0  0  0  0  0
  138.7831   70.3582  221.2540 H   0  0  0  0  0  0  0  0  0  0  0  0
  140.4839   69.3136  220.1357 H   0  0  0  0  0  0  0  0  0  0  0  0
  141.4509   67.2323  219.2615 H   0  0  0  0  0  0  0  0  0  0  0  0
  140.7473   65.0322  220.1290 H   0  0  0  0  0  0  0  0  0  0  0  0
  139.0302   64.9499  221.9206 H   0  0  0  0  0  0  0  0  0  0  0  0
  138.0512   67.0349  222.8117 H   0  0  0  0  0  0  0  0  0  0  0  0
  137.5346   74.6556  222.3902 H   0  0  0  0  0  0  0  0  0  0  0  0
  137.7910   77.0610  222.9014 H   0  0  0  0  0  0  0  0  0  0  0  0
  1  2  1  0
  2  3  1  0
  2  4  1  0
  4  5  1  0
  5  6  1  0
  6  7  1  0
  6  8  1  0
  8  9  2  0
  9 10  1  0
 10 11  2  0
 11 12  1  0
 12 13  2  0
 13 14  1  0
 14 15  2  0
 15 16  1  0
 16 17  2  0
 17 18  1  0
 18 19  2  0
 19 20  1  0
 19 21  1  0
 21 22  2  0
 22 23  1  0
 23 24  2  0
 23 25  1  0
 25 26  1  0
 26 27  1  0
 27 28  2  0
 28 29  1  0
 29 30  2  0
 30 31  1  0
 31 32  2  0
 11 33  1  0
 33 34  2  0
 34  8  1  0
 25 14  1  0
 32 27  1  0
 22 16  1  0
  1 35  1  0
  1 36  1  0
  1 37  1  0
  3 38  1  0
  3 39  1  0
  3 40  1  0
  4 41  1  0
  4 42  1  0
  5 43  1  0
  5 44  1  0
  7 45  1  0
  7 46  1  0
  7 47  1  0
  9 48  1  0
 10 49  1  0
 12 50  1  0
 13 51  1  0
 17 52  1  0
 18 53  1  0
 21 54  1  0
 26 55  1  0
 26 56  1  0
 28 57  1  0
 29 58  1  0
 30 59  1  0
 31 60  1  0
 32 61  1  0
 33 62  1  0
 34 63  1  0
M  END
>  <smiles>  (18) 
CN(C)CCN(C)c1ccc(/C=C/c2nc3ccc(F)cc3c(=O)n2Cc2ccccc2)cc1

>  <score_type>  (18) 
oracle

>  <origin>  (18) 
autodockgpu

>  <m_score__min__energy>  (18) 
-8.2899999999999991

>  <m_primary>  (18) 
energy

>  <meeko>  (18) 
{"free_energy": -7.87, "intermolecular_energy": -10.55, "internal_energy": -1.63, "cluster_size": 11, "cluster_id": 1, "rank_in_cluster": 7}

>  <energy>  (18) 
-7.41

>  <cluster_rmsd>  (18) 
0.0

>  <rmsd>  (18) 
270.55

>  <cluster>  (18) 
6

$$$$

     RDKit          3D

 63 66  0  0  0  0  0  0  0  0999 V2000
  141.8580   78.5900  223.7100 C   0  0  0  0  0  0  0  0  0  0  0  0
  141.0790   79.7870  223.3190 N   0  0  0  0  0  0  0  0  0  0  0  0
  141.9090   80.8980  223.7600 C   0  0  0  0  0  0  0  0  0  0  0  0
  140.8570   79.7800  221.9160 C   0  0  0  0  0  0  0  0  0  0  0  0
  141.7430   78.8940  221.0930 C   0  0  0  0  0  0  0  0  0  0  0  0
  141.0300   77.8620  220.3690 N   0  0  0  0  0  0  0  0  0  0  0  0
  140.4350   78.2940  219.0940 C   0  0  0  0  0  0  0  0  0  0  0  0
  140.8880   76.5230  220.8280 C   0  0  0  0  0  0  0  0  0  0  0  0
  139.7070   76.0310  221.3430 C   0  0  0  0  0  0  0  0  0  0  0  0
  139.5940   74.7050  221.7860 C   0  0  0  0  0  0  0  0  0  0  0  0
  140.6560   73.8270  221.7280 C   0  0  0  0  0  0  0  0  0  0  0  0
  140.4900   72.4640  222.2010 C   0  0  0  0  0  0  0  0  0  0  0  0
  139.4500   71.9950  222.8290 C   0  0  0  0  0  0  0  0  0  0  0  0
  139.5580   71.0140  223.9180 C   0  0  0  0  0  0  0  0  0  0  0  0
  140.2230   71.4440  225.0200 N   0  0  0  0  0  0  0  0  0  0  0  0
  140.4260   70.6550  226.0810 C   0  0  0  0  0  0  0  0  0  0  0  0
  141.0990   71.0680  227.2100 C   0  0  0  0  0  0  0  0  0  0  0  0
  141.2950   70.2300  228.2920 C   0  0  0  0  0  0  0  0  0  0  0  0
  140.7780   68.9460  228.1860 C   0  0  0  0  0  0  0  0  0  0  0  0
  140.9750   68.1290  229.2540 F   0  0  0  0  0  0  0  0  0  0  0  0
  140.1030   68.5020  227.0760 C   0  0  0  0  0  0  0  0  0  0  0  0
  139.9200   69.3680  226.0000 C   0  0  0  0  0  0  0  0  0  0  0  0
  139.2460   68.9550  224.8670 C   0  0  0  0  0  0  0  0  0  0  0  0
  138.8200   67.7700  224.8780 O   0  0  0  0  0  0  0  0  0  0  0  0
  139.0520   69.7830  223.7990 N   0  0  0  0  0  0  0  0  0  0  0  0
  138.3490   69.3140  222.6450 C   0  0  0  0  0  0  0  0  0  0  0  0
  139.0320   68.2400  221.8900 C   0  0  0  0  0  0  0  0  0  0  0  0
  139.9360   68.5730  220.8730 C   0  0  0  0  0  0  0  0  0  0  0  0
  140.5980   67.6030  220.1430 C   0  0  0  0  0  0  0  0  0  0  0  0
  140.4020   66.2720  220.3790 C   0  0  0  0  0  0  0  0  0  0  0  0
  139.5230   65.9170  221.3690 C   0  0  0  0  0  0  0  0  0  0  0  0
  138.8540   66.8960  222.1060 C   0  0  0  0  0  0  0  0  0  0  0  0
  141.8330   74.3150  221.2140 C   0  0  0  0  0  0  0  0  0  0  0  0
  141.9480   75.6410  220.7720 C   0  0  0  0  0  0  0  0  0  0  0  0
  141.9015   78.5231  224.8071 H   0  0  0  0  0  0  0  0  0  0  0  0
  141.3728   77.6889  223.3067 H   0  0  0  0  0  0  0  0  0  0  0  0
  142.8784   78.6687  223.3067 H   0  0  0  0  0  0  0  0  0  0  0  0
  141.9300   80.9262  224.8594 H   0  0  0  0  0  0  0  0  0  0  0  0
  142.9317   80.7663  223.3769 H   0  0  0  0  0  0  0  0  0  0  0  0
  141.4927   81.8414  223.3769 H   0  0  0  0  0  0  0  0  0  0  0  0
  139.8180   79.4613  221.7457 H   0  0  0  0  0  0  0  0  0  0  0  0
  141.0874   80.8032  221.5844 H   0  0  0  0  0  0  0  0  0  0  0  0
  142.2795   79.5203  220.3651 H   0  0  0  0  0  0  0  0  0  0  0  0
  142.4221   78.3833  221.7916 H   0  0  0  0  0  0  0  0  0  0  0  0
  139.5598   78.9295  219.2945 H   0  0  0  0  0  0  0  0  0  0  0  0
  141.1779   78.8645  218.5173 H   0  0  0  0  0  0  0  0  0  0  0  0
  140.1226   77.4109  218.5173 H   0  0  0  0  0  0  0  0  0  0  0  0
  138.8322   76.6948  221.4079 H   0  0  0  0  0  0  0  0  0  0  0  0
  138.6325   74.3560  222.1906 H   0  0  0  0  0  0  0  0  0  0  0  0
  141.3176   71.7645  222.0117 H   0  0  0  0  0  0  0  0  0  0  0  0
  138.4509   72.3471  222.5326 H   0  0  0  0  0  0  0  0  0  0  0  0
  141.4919   72.0946  227.2518 H   0  0  0  0  0  0  0  0  0  0  0  0
  141.8333   70.5638  229.1913 H   0  0  0  0  0  0  0  0  0  0  0  0
  139.7113   67.4748  227.0366 H   0  0  0  0  0  0  0  0  0  0  0  0
  137.3712   68.9316  222.9732 H   0  0  0  0  0  0  0  0  0  0  0  0
  138.2752   70.1718  221.9604 H   0  0  0  0  0  0  0  0  0  0  0  0
  140.1241   69.6335  220.6494 H   0  0  0  0  0  0  0  0  0  0  0  0
  141.2993   67.9106  219.3533 H   0  0  0  0  0  0  0  0  0  0  0  0
  140.9334   65.5082  219.7924 H   0  0  0  0  0  0  0  0  0  0  0  0
  139.3434   64.8533  221.5843 H   0  0  0  0  0  0  0  0  0  0  0  0
  138.1548   66.5770  222.8930 H   0  0  0  0  0  0  0  0  0  0  0  0
  142.7063   73.6495  221.1476 H   0  0  0  0  0  0  0  0  0  0  0  0
  142.9109   75.9881  220.3690 H   0  0  0  0  0  0  0  0  0  0  0  0
  1  2  1  0
  2  3  1  0
  2  4  1  0
  4  5  1  0
  5  6  1  0
  6  7  1  0
  6  8  1  0
  8  9  2  0
  9 10  1  0
 10 11  2  0
 11 12  1  0
 12 13  2  0
 13 14  1  0
 14 15  2  0
 15 16  1  0
 16 17  2  0
 17 18  1  0
 18 19  2  0
 19 20  1  0
 19 21  1  0
 21 22  2  0
 22 23  1  0
 23 24  2  0
 23 25  1  0
 25 26  1  0
 26 27  1  0
 27 28  2  0
 28 29  1  0
 29 30  2  0
 30 31  1  0
 31 32  2  0
 11 33  1  0
 33 34  2  0
 34  8  1  0
 25 14  1  0
 32 27  1  0
 22 16  1  0
  1 35  1  0
  1 36  1  0
  1 37  1  0
  3 38  1  0
  3 39  1  0
  3 40  1  0
  4 41  1  0
  4 42  1  0
  5 43  1  0
  5 44  1  0
  7 45  1  0
  7 46  1  0
  7 47  1  0
  9 48  1  0
 10 49  1  0
 12 50  1  0
 13 51  1  0
 17 52  1  0
 18 53  1  0
 21 54  1  0
 26 55  1  0
 26 56  1  0
 28 57  1  0
 29 58  1  0
 30 59  1  0
 31 60  1  0
 32 61  1  0
 33 62  1  0
 34 63  1  0
M  END
>  <smiles>  (19) 
CN(C)CCN(C)c1ccc(/C=C/c2nc3ccc(F)cc3c(=O)n2Cc2ccccc2)cc1

>  <score_type>  (19) 
oracle

>  <origin>  (19) 
autodockgpu

>  <m_score__min__energy>  (19) 
-8.2899999999999991

>  <m_primary>  (19) 
energy

>  <meeko>  (19) 
{"free_energy": -7.85, "intermolecular_energy": -10.54, "internal_energy": -1.61, "cluster_size": 11, "cluster_id": 1, "rank_in_cluster": 9}

>  <energy>  (19) 
-7.04

>  <cluster_rmsd>  (19) 
0.0

>  <rmsd>  (19) 
272.08

>  <cluster>  (19) 
7

$$$$

     RDKit          3D

 63 66  0  0  0  0  0  0  0  0999 V2000
  141.4490   71.9780  226.9440 C   0  0  0  0  0  0  0  0  0  0  0  0
  141.1840   71.2840  228.2250 N   0  0  0  0  0  0  0  0  0  0  0  0
  139.9480   71.8910  228.6960 C   0  0  0  0  0  0  0  0  0  0  0  0
  141.0670   69.8860  228.0010 C   0  0  0  0  0  0  0  0  0  0  0  0
  141.3200   69.3990  226.6060 C   0  0  0  0  0  0  0  0  0  0  0  0
  140.1130   69.0890  225.8660 N   0  0  0  0  0  0  0  0  0  0  0  0
  139.5450   67.7580  226.1320 C   0  0  0  0  0  0  0  0  0  0  0  0
  139.4990   69.9770  224.9400 C   0  0  0  0  0  0  0  0  0  0  0  0
  138.1380   70.0020  224.7200 C   0  0  0  0  0  0  0  0  0  0  0  0
  137.5570   70.8900  223.8030 C   0  0  0  0  0  0  0  0  0  0  0  0
  138.3170   71.7830  223.0760 C   0  0  0  0  0  0  0  0  0  0  0  0
  137.6710   72.6800  222.1350 C   0  0  0  0  0  0  0  0  0  0  0  0
  138.2610   73.6050  221.4330 C   0  0  0  0  0  0  0  0  0  0  0  0
  138.3530   75.0010  221.8820 C   0  0  0  0  0  0  0  0  0  0  0  0
  139.6110   75.5060  221.9460 N   0  0  0  0  0  0  0  0  0  0  0  0
  139.8560   76.7530  222.3640 C   0  0  0  0  0  0  0  0  0  0  0  0
  141.1240   77.2880  222.4400 C   0  0  0  0  0  0  0  0  0  0  0  0
  141.3470   78.5800  222.8760 C   0  0  0  0  0  0  0  0  0  0  0  0
  140.2280   79.3180  223.2360 C   0  0  0  0  0  0  0  0  0  0  0  0
  140.4570   80.5880  223.6640 F   0  0  0  0  0  0  0  0  0  0  0  0
  138.9510   78.8160  223.1740 C   0  0  0  0  0  0  0  0  0  0  0  0
  138.7540   77.5100  222.7300 C   0  0  0  0  0  0  0  0  0  0  0  0
  137.4840   76.9730  222.6530 C   0  0  0  0  0  0  0  0  0  0  0  0
  136.5420   77.7310  223.0050 O   0  0  0  0  0  0  0  0  0  0  0  0
  137.2640   75.6960  222.2220 N   0  0  0  0  0  0  0  0  0  0  0  0
  135.9320   75.1790  222.1600 C   0  0  0  0  0  0  0  0  0  0  0  0
  135.3750   74.7280  223.4540 C   0  0  0  0  0  0  0  0  0  0  0  0
  135.2080   75.6500  224.4970 C   0  0  0  0  0  0  0  0  0  0  0  0
  134.6890   75.2740  225.7220 C   0  0  0  0  0  0  0  0  0  0  0  0
  134.3160   73.9850  225.9760 C   0  0  0  0  0  0  0  0  0  0  0  0
  134.4680   73.0620  224.9750 C   0  0  0  0  0  0  0  0  0  0  0  0
  134.9920   73.4400  223.7370 C   0  0  0  0  0  0  0  0  0  0  0  0
  139.6740   71.7590  223.2940 C   0  0  0  0  0  0  0  0  0  0  0  0
  140.2550   70.8710  224.2110 C   0  0  0  0  0  0  0  0  0  0  0  0
  141.8347   72.9880  227.1471 H   0  0  0  0  0  0  0  0  0  0  0  0
  142.1937   71.4104  226.3667 H   0  0  0  0  0  0  0  0  0  0  0  0
  140.5155   72.0512  226.3667 H   0  0  0  0  0  0  0  0  0  0  0  0
  139.9379   71.8960  229.7959 H   0  0  0  0  0  0  0  0  0  0  0  0
  139.8819   72.9241  228.3240 H   0  0  0  0  0  0  0  0  0  0  0  0
  139.0900   71.3117  228.3240 H   0  0  0  0  0  0  0  0  0  0  0  0
  141.7853   69.3819  228.6643 H   0  0  0  0  0  0  0  0  0  0  0  0
  140.0108   69.6513  228.1995 H   0  0  0  0  0  0  0  0  0  0  0  0
  141.8701   70.1800  226.0606 H   0  0  0  0  0  0  0  0  0  0  0  0
  141.8917   68.4632  226.6924 H   0  0  0  0  0  0  0  0  0  0  0  0
  139.4770   67.5988  227.2183 H   0  0  0  0  0  0  0  0  0  0  0  0
  138.5406   67.6926  225.6883 H   0  0  0  0  0  0  0  0  0  0  0  0
  140.1927   66.9876  225.6883 H   0  0  0  0  0  0  0  0  0  0  0  0
  137.4918   69.3081  225.2777 H   0  0  0  0  0  0  0  0  0  0  0  0
  136.4665   70.8741  223.6596 H   0  0  0  0  0  0  0  0  0  0  0  0
  136.5847   72.5684  222.0028 H   0  0  0  0  0  0  0  0  0  0  0  0
  138.7079   73.3303  220.4661 H   0  0  0  0  0  0  0  0  0  0  0  0
  141.9835   76.6682  222.1449 H   0  0  0  0  0  0  0  0  0  0  0  0
  142.3609   79.0026  222.9349 H   0  0  0  0  0  0  0  0  0  0  0  0
  138.0937   79.4378  223.4714 H   0  0  0  0  0  0  0  0  0  0  0  0
  135.2775   75.9693  221.7637 H   0  0  0  0  0  0  0  0  0  0  0  0
  135.9783   74.2870  221.5179 H   0  0  0  0  0  0  0  0  0  0  0  0
  135.4972   76.6991  224.3365 H   0  0  0  0  0  0  0  0  0  0  0  0
  134.5737   76.0315  226.5113 H   0  0  0  0  0  0  0  0  0  0  0  0
  133.9058   73.6965  226.9550 H   0  0  0  0  0  0  0  0  0  0  0  0
  134.1752   72.0158  225.1477 H   0  0  0  0  0  0  0  0  0  0  0  0
  135.1026   72.6737  222.9556 H   0  0  0  0  0  0  0  0  0  0  0  0
  140.3197   72.4529  222.7359 H   0  0  0  0  0  0  0  0  0  0  0  0
  141.3457   70.8880  224.3530 H   0  0  0  0  0  0  0  0  0  0  0  0
  1  2  1  0
  2  3  1  0
  2  4  1  0
  4  5  1  0
  5  6  1  0
  6  7  1  0
  6  8  1  0
  8  9  2  0
  9 10  1  0
 10 11  2  0
 11 12  1  0
 12 13  2  0
 13 14  1  0
 14 15  2  0
 15 16  1  0
 16 17  2  0
 17 18  1  0
 18 19  2  0
 19 20  1  0
 19 21  1  0
 21 22  2  0
 22 23  1  0
 23 24  2  0
 23 25  1  0
 25 26  1  0
 26 27  1  0
 27 28  2  0
 28 29  1  0
 29 30  2  0
 30 31  1  0
 31 32  2  0
 11 33  1  0
 33 34  2  0
 34  8  1  0
 25 14  1  0
 32 27  1  0
 22 16  1  0
  1 35  1  0
  1 36  1  0
  1 37  1  0
  3 38  1  0
  3 39  1  0
  3 40  1  0
  4 41  1  0
  4 42  1  0
  5 43  1  0
  5 44  1  0
  7 45  1  0
  7 46  1  0
  7 47  1  0
  9 48  1  0
 10 49  1  0
 12 50  1  0
 13 51  1  0
 17 52  1  0
 18 53  1  0
 21 54  1  0
 26 55  1  0
 26 56  1  0
 28 57  1  0
 29 58  1  0
 30 59  1  0
 31 60  1  0
 32 61  1  0
 33 62  1  0
 34 63  1  0
M  END
>  <smiles>  (20) 
CN(C)CCN(C)c1ccc(/C=C/c2nc3ccc(F)cc3c(=O)n2Cc2ccccc2)cc1

>  <score_type>  (20) 
oracle

>  <origin>  (20) 
autodockgpu

>  <m_score__min__energy>  (20) 
-8.2899999999999991

>  <m_primary>  (20) 
energy

>  <meeko>  (20) 
{"free_energy": -7.49, "intermolecular_energy": -10.17, "internal_energy": -1.99, "cluster_size": 2, "cluster_id": 5, "rank_in_cluster": 1}

>  <energy>  (20) 
-6.51

>  <cluster_rmsd>  (20) 
1.25

>  <rmsd>  (20) 
271.86

>  <cluster>  (20) 
7

$$$$
