IOQMMJGYZLYJFT-BMGZHQRRNA-N
     RDKit          3D

 28 29  0  0  0  0  0  0  0  0999 V2000
  143.1454   82.1972  223.8496 H   0  0  0  0  0  0  0  0  0  0  0  0
  142.5650   81.2930  223.6140 C   0  0  0  0  0  0  0  0  0  0  0  0
  143.2050   80.1700  223.0870 C   0  0  0  0  0  0  0  0  0  0  0  0
  144.2892   80.1926  222.9026 H   0  0  0  0  0  0  0  0  0  0  0  0
  142.4720   79.0170  222.7930 C   0  0  0  0  0  0  0  0  0  0  0  0
  142.9822   78.1373  222.3736 H   0  0  0  0  0  0  0  0  0  0  0  0
  141.0850   78.9740  223.0300 C   0  0  0  0  0  0  0  0  0  0  0  0
  140.2870   77.7620  222.7150 C   0  0  0  0  0  0  0  0  0  0  0  0
  138.9300   77.8190  222.8040 N   0  0  0  0  0  0  0  0  0  0  0  0
  138.1510   76.7420  222.5260 C   0  0  0  0  0  0  0  0  0  0  0  0
  136.6580   76.8470  222.6310 C   0  0  0  0  0  0  0  0  0  0  0  0
  136.1680   75.9280  223.5440 F   0  0  0  0  0  0  0  0  0  0  0  0
  136.0860   76.5980  221.3970 F   0  0  0  0  0  0  0  0  0  0  0  0
  136.3090   78.1190  223.0470 F   0  0  0  0  0  0  0  0  0  0  0  0
  138.7520   75.5430  222.1380 C   0  0  0  0  0  0  0  0  0  0  0  0
  138.1375   74.6624  221.8996 H   0  0  0  0  0  0  0  0  0  0  0  0
  140.1450   75.4780  222.0570 C   0  0  0  0  0  0  0  0  0  0  0  0
  140.6970   74.3520  221.7060 N   0  0  0  0  0  0  0  0  0  0  0  0
  141.8510   74.2000  220.8260 C   0  0  0  0  0  0  0  0  0  0  0  0
  142.7611   74.0801  221.4322 H   0  0  0  0  0  0  0  0  0  0  0  0
  141.7136   73.3122  220.1912 H   0  0  0  0  0  0  0  0  0  0  0  0
  141.9482   75.0931  220.1912 H   0  0  0  0  0  0  0  0  0  0  0  0
  140.8890   76.5890  222.3520 N   0  0  0  0  0  0  0  0  0  0  0  0
  141.9310   76.5430  222.3320 H   0  0  0  0  0  0  0  0  0  0  0  0
  140.4480   80.1180  223.5480 C   0  0  0  0  0  0  0  0  0  0  0  0
  139.3620   80.1069  223.7225 H   0  0  0  0  0  0  0  0  0  0  0  0
  141.1870   81.2680  223.8420 C   0  0  0  0  0  0  0  0  0  0  0  0
  140.6824   82.1546  224.2535 H   0  0  0  0  0  0  0  0  0  0  0  0
  1  2  1  0
  2  3  2  0
  3  4  1  0
  3  5  1  0
  5  6  1  0
  5  7  2  0
  7  8  1  0
  8  9  2  0
  9 10  1  0
 10 11  1  0
 11 12  1  0
 11 13  1  0
 11 14  1  0
 10 15  2  0
 15 16  1  0
 15 17  1  0
 17 18  2  0
 18 19  1  0
 19 20  1  0
 19 21  1  0
 19 22  1  0
 17 23  1  0
 23 24  1  0
  7 25  1  0
 25 26  1  0
 25 27  2  0
 27 28  1  0
 27  2  1  0
 23  8  1  0
M  END
>  <UniqueID>  (1) 
13

>  <SMILES>  (1) 
C/N=c1/cc(C(F)(F)F)nc(-c2ccccc2)[nH]1

>  <Energy>  (1) 
32.48377722413525

>  <Genealogy>  (1) 
CN=c1cc(C(F)(F)F)nc(-c2ccccc2)[nH]1 (tautomer)
C/N=c1/cc(C(F)(F)F)nc(-c2ccccc2)[nH]1 (cis-trans isomerization)
C/N=c1/cc(C(F)(F)F)nc(-c2ccccc2)[nH]1 (3D coordinates assigned)
C/N=c1/cc(C(F)(F)F)nc(-c2ccccc2)[nH]1 (optimized conformer: 32.48377722413525 kcal/mol)

>  <smiles>  (1) 
CN=c1cc(C(F)(F)F)[nH]c(-c2ccccc2)n1

>  <score_type>  (1) 
oracle

>  <origin>  (1) 
autodockgpu

>  <m_score__min__energy>  (1) 
-5.3399999999999999

>  <m_primary>  (1) 
energy

>  <meeko>  (1) 
{"free_energy": -5.34, "intermolecular_energy": -6.23, "internal_energy": -0.32, "cluster_size": 20, "cluster_id": 1, "rank_in_cluster": 2}

>  <energy>  (1) 
-5.34

>  <cluster_rmsd>  (1) 
0.0

>  <rmsd>  (1) 
273.03

>  <cluster>  (1) 
1

$$$$
IOQMMJGYZLYJFT-BMGZHQRRNA-N
     RDKit          3D

 28 29  0  0  0  0  0  0  0  0999 V2000
  143.1554   82.1862  223.8652 H   0  0  0  0  0  0  0  0  0  0  0  0
  142.5750   81.2840  223.6220 C   0  0  0  0  0  0  0  0  0  0  0  0
  143.2150   80.1640  223.0870 C   0  0  0  0  0  0  0  0  0  0  0  0
  144.2993   80.1876  222.9035 H   0  0  0  0  0  0  0  0  0  0  0  0
  142.4820   79.0130  222.7840 C   0  0  0  0  0  0  0  0  0  0  0  0
  142.9922   78.1362  222.3586 H   0  0  0  0  0  0  0  0  0  0  0  0
  141.0940   78.9690  223.0200 C   0  0  0  0  0  0  0  0  0  0  0  0
  140.2960   77.7590  222.6960 C   0  0  0  0  0  0  0  0  0  0  0  0
  138.9390   77.8200  222.7710 N   0  0  0  0  0  0  0  0  0  0  0  0
  138.1600   76.7460  222.4850 C   0  0  0  0  0  0  0  0  0  0  0  0
  136.6660   76.8540  222.5740 C   0  0  0  0  0  0  0  0  0  0  0  0
  136.1580   75.8890  223.4270 F   0  0  0  0  0  0  0  0  0  0  0  0
  136.1110   76.6790  221.3210 F   0  0  0  0  0  0  0  0  0  0  0  0
  136.3190   78.1030  223.0550 F   0  0  0  0  0  0  0  0  0  0  0  0
  138.7620   75.5450  222.1020 C   0  0  0  0  0  0  0  0  0  0  0  0
  138.1475   74.6664  221.8560 H   0  0  0  0  0  0  0  0  0  0  0  0
  140.1550   75.4760  222.0360 C   0  0  0  0  0  0  0  0  0  0  0  0
  140.7080   74.3480  221.6890 N   0  0  0  0  0  0  0  0  0  0  0  0
  141.8630   74.1940  220.8120 C   0  0  0  0  0  0  0  0  0  0  0  0
  142.7716   74.0729  221.4201 H   0  0  0  0  0  0  0  0  0  0  0  0
  141.7256   73.3062  220.1772 H   0  0  0  0  0  0  0  0  0  0  0  0
  141.9630   75.0868  220.1772 H   0  0  0  0  0  0  0  0  0  0  0  0
  140.8990   76.5850  222.3390 N   0  0  0  0  0  0  0  0  0  0  0  0
  141.9410   76.5350  222.3290 H   0  0  0  0  0  0  0  0  0  0  0  0
  140.4580   80.1090  223.5460 C   0  0  0  0  0  0  0  0  0  0  0  0
  139.3720   80.0965  223.7208 H   0  0  0  0  0  0  0  0  0  0  0  0
  141.1960   81.2570  223.8480 C   0  0  0  0  0  0  0  0  0  0  0  0
  140.6905   82.1408  224.2643 H   0  0  0  0  0  0  0  0  0  0  0  0
  1  2  1  0
  2  3  2  0
  3  4  1  0
  3  5  1  0
  5  6  1  0
  5  7  2  0
  7  8  1  0
  8  9  2  0
  9 10  1  0
 10 11  1  0
 11 12  1  0
 11 13  1  0
 11 14  1  0
 10 15  2  0
 15 16  1  0
 15 17  1  0
 17 18  2  0
 18 19  1  0
 19 20  1  0
 19 21  1  0
 19 22  1  0
 17 23  1  0
 23 24  1  0
  7 25  1  0
 25 26  1  0
 25 27  2  0
 27 28  1  0
 27  2  1  0
 23  8  1  0
M  END
>  <UniqueID>  (2) 
13

>  <SMILES>  (2) 
C/N=c1/cc(C(F)(F)F)nc(-c2ccccc2)[nH]1

>  <Energy>  (2) 
32.48377722413525

>  <Genealogy>  (2) 
CN=c1cc(C(F)(F)F)nc(-c2ccccc2)[nH]1 (tautomer)
C/N=c1/cc(C(F)(F)F)nc(-c2ccccc2)[nH]1 (cis-trans isomerization)
C/N=c1/cc(C(F)(F)F)nc(-c2ccccc2)[nH]1 (3D coordinates assigned)
C/N=c1/cc(C(F)(F)F)nc(-c2ccccc2)[nH]1 (optimized conformer: 32.48377722413525 kcal/mol)

>  <smiles>  (2) 
CN=c1cc(C(F)(F)F)[nH]c(-c2ccccc2)n1

>  <score_type>  (2) 
oracle

>  <origin>  (2) 
autodockgpu

>  <m_score__min__energy>  (2) 
-5.3399999999999999

>  <m_primary>  (2) 
energy

>  <meeko>  (2) 
{"free_energy": -5.34, "intermolecular_energy": -6.23, "internal_energy": -0.32, "cluster_size": 20, "cluster_id": 1, "rank_in_cluster": 1}

>  <energy>  (2) 
-5.34

>  <cluster_rmsd>  (2) 
0.05

>  <rmsd>  (2) 
273.05

>  <cluster>  (2) 
1

$$$$
IOQMMJGYZLYJFT-BMGZHQRRNA-N
     RDKit          3D

 28 29  0  0  0  0  0  0  0  0999 V2000
  143.1491   82.1814  223.8482 H   0  0  0  0  0  0  0  0  0  0  0  0
  142.5710   81.2780  223.6040 C   0  0  0  0  0  0  0  0  0  0  0  0
  143.2150   80.1580  223.0750 C   0  0  0  0  0  0  0  0  0  0  0  0
  144.3003   80.1826  222.8975 H   0  0  0  0  0  0  0  0  0  0  0  0
  142.4850   79.0050  222.7700 C   0  0  0  0  0  0  0  0  0  0  0  0
  142.9987   78.1284  222.3485 H   0  0  0  0  0  0  0  0  0  0  0  0
  141.0970   78.9590  222.9990 C   0  0  0  0  0  0  0  0  0  0  0  0
  140.3020   77.7480  222.6730 C   0  0  0  0  0  0  0  0  0  0  0  0
  138.9450   77.8090  222.7350 N   0  0  0  0  0  0  0  0  0  0  0  0
  138.1680   76.7330  222.4460 C   0  0  0  0  0  0  0  0  0  0  0  0
  136.6730   76.8420  222.5210 C   0  0  0  0  0  0  0  0  0  0  0  0
  136.1120   76.7220  221.2610 F   0  0  0  0  0  0  0  0  0  0  0  0
  136.3220   78.0690  223.0510 F   0  0  0  0  0  0  0  0  0  0  0  0
  136.1740   75.8370  223.3300 F   0  0  0  0  0  0  0  0  0  0  0  0
  138.7740   75.5310  222.0750 C   0  0  0  0  0  0  0  0  0  0  0  0
  138.1622   74.6509  221.8280 H   0  0  0  0  0  0  0  0  0  0  0  0
  140.1670   75.4620  222.0220 C   0  0  0  0  0  0  0  0  0  0  0  0
  140.7240   74.3330  221.6850 N   0  0  0  0  0  0  0  0  0  0  0  0
  140.1900   73.0020  221.9510 C   0  0  0  0  0  0  0  0  0  0  0  0
  140.1262   72.8429  223.0376 H   0  0  0  0  0  0  0  0  0  0  0  0
  139.1870   72.9141  221.5080 H   0  0  0  0  0  0  0  0  0  0  0  0
  140.8541   72.2452  221.5080 H   0  0  0  0  0  0  0  0  0  0  0  0
  140.9080   76.5730  222.3270 N   0  0  0  0  0  0  0  0  0  0  0  0
  141.9500   76.5230  222.3270 H   0  0  0  0  0  0  0  0  0  0  0  0
  140.4560   80.1000  223.5190 C   0  0  0  0  0  0  0  0  0  0  0  0
  139.3690   80.0865  223.6873 H   0  0  0  0  0  0  0  0  0  0  0  0
  141.1910   81.2500  223.8230 C   0  0  0  0  0  0  0  0  0  0  0  0
  140.6823   82.1339  224.2351 H   0  0  0  0  0  0  0  0  0  0  0  0
  1  2  1  0
  2  3  2  0
  3  4  1  0
  3  5  1  0
  5  6  1  0
  5  7  2  0
  7  8  1  0
  8  9  2  0
  9 10  1  0
 10 11  1  0
 11 12  1  0
 11 13  1  0
 11 14  1  0
 10 15  2  0
 15 16  1  0
 15 17  1  0
 17 18  2  0
 18 19  1  0
 19 20  1  0
 19 21  1  0
 19 22  1  0
 17 23  1  0
 23 24  1  0
  7 25  1  0
 25 26  1  0
 25 27  2  0
 27 28  1  0
 27  2  1  0
 23  8  1  0
M  END
>  <UniqueID>  (3) 
13

>  <SMILES>  (3) 
C/N=c1/cc(C(F)(F)F)nc(-c2ccccc2)[nH]1

>  <Energy>  (3) 
32.48377722413525

>  <Genealogy>  (3) 
CN=c1cc(C(F)(F)F)nc(-c2ccccc2)[nH]1 (tautomer)
C/N=c1/cc(C(F)(F)F)nc(-c2ccccc2)[nH]1 (cis-trans isomerization)
C/N=c1/cc(C(F)(F)F)nc(-c2ccccc2)[nH]1 (3D coordinates assigned)
C/N=c1/cc(C(F)(F)F)nc(-c2ccccc2)[nH]1 (optimized conformer: 32.48377722413525 kcal/mol)

>  <smiles>  (3) 
CN=c1cc(C(F)(F)F)[nH]c(-c2ccccc2)n1

>  <score_type>  (3) 
oracle

>  <origin>  (3) 
autodockgpu

>  <m_score__min__energy>  (3) 
-5.3399999999999999

>  <m_primary>  (3) 
energy

>  <meeko>  (3) 
{"free_energy": -5.33, "intermolecular_energy": -6.22, "internal_energy": -0.33, "cluster_size": 20, "cluster_id": 1, "rank_in_cluster": 7}

>  <energy>  (3) 
-5.34

>  <cluster_rmsd>  (3) 
0.55

>  <rmsd>  (3) 
273.01

>  <cluster>  (3) 
1

$$$$
IOQMMJGYZLYJFT-BMGZHQRRNA-N
     RDKit          3D

 28 29  0  0  0  0  0  0  0  0999 V2000
  143.1464   82.1785  223.8257 H   0  0  0  0  0  0  0  0  0  0  0  0
  142.5650   81.2760  223.5860 C   0  0  0  0  0  0  0  0  0  0  0  0
  143.2020   80.1600  223.0410 C   0  0  0  0  0  0  0  0  0  0  0  0
  144.2841   80.1869  222.8455 H   0  0  0  0  0  0  0  0  0  0  0  0
  142.4680   79.0080  222.7430 C   0  0  0  0  0  0  0  0  0  0  0  0
  142.9755   78.1335  222.3097 H   0  0  0  0  0  0  0  0  0  0  0  0
  141.0830   78.9600  222.9940 C   0  0  0  0  0  0  0  0  0  0  0  0
  140.2840   77.7500  222.6750 C   0  0  0  0  0  0  0  0  0  0  0  0
  138.9260   77.8210  222.7190 N   0  0  0  0  0  0  0  0  0  0  0  0
  138.1460   76.7460  222.4360 C   0  0  0  0  0  0  0  0  0  0  0  0
  136.6510   76.8660  222.4910 C   0  0  0  0  0  0  0  0  0  0  0  0
  136.2790   78.1450  222.8690 F   0  0  0  0  0  0  0  0  0  0  0  0
  136.1450   75.9640  223.4080 F   0  0  0  0  0  0  0  0  0  0  0  0
  136.1170   76.5960  221.2440 F   0  0  0  0  0  0  0  0  0  0  0  0
  138.7480   75.5350  222.0890 C   0  0  0  0  0  0  0  0  0  0  0  0
  138.1332   74.6558  221.8459 H   0  0  0  0  0  0  0  0  0  0  0  0
  140.1410   75.4560  222.0550 C   0  0  0  0  0  0  0  0  0  0  0  0
  140.6940   74.3180  221.7410 N   0  0  0  0  0  0  0  0  0  0  0  0
  140.1130   72.9970  221.9500 C   0  0  0  0  0  0  0  0  0  0  0  0
  140.0268   72.8009  223.0289 H   0  0  0  0  0  0  0  0  0  0  0  0
  139.1148   72.9584  221.4894 H   0  0  0  0  0  0  0  0  0  0  0  0
  140.7591   72.2352  221.4894 H   0  0  0  0  0  0  0  0  0  0  0  0
  140.8870   76.5650  222.3530 N   0  0  0  0  0  0  0  0  0  0  0  0
  141.9280   76.5090  222.3670 H   0  0  0  0  0  0  0  0  0  0  0  0
  140.4500   80.0980  223.5290 C   0  0  0  0  0  0  0  0  0  0  0  0
  139.3658   80.0835  223.7140 H   0  0  0  0  0  0  0  0  0  0  0  0
  141.1900   81.2470  223.8270 C   0  0  0  0  0  0  0  0  0  0  0  0
  140.6881   82.1288  224.2517 H   0  0  0  0  0  0  0  0  0  0  0  0
  1  2  1  0
  2  3  2  0
  3  4  1  0
  3  5  1  0
  5  6  1  0
  5  7  2  0
  7  8  1  0
  8  9  2  0
  9 10  1  0
 10 11  1  0
 11 12  1  0
 11 13  1  0
 11 14  1  0
 10 15  2  0
 15 16  1  0
 15 17  1  0
 17 18  2  0
 18 19  1  0
 19 20  1  0
 19 21  1  0
 19 22  1  0
 17 23  1  0
 23 24  1  0
  7 25  1  0
 25 26  1  0
 25 27  2  0
 27 28  1  0
 27  2  1  0
 23  8  1  0
M  END
>  <UniqueID>  (4) 
13

>  <SMILES>  (4) 
C/N=c1/cc(C(F)(F)F)nc(-c2ccccc2)[nH]1

>  <Energy>  (4) 
32.48377722413525

>  <Genealogy>  (4) 
CN=c1cc(C(F)(F)F)nc(-c2ccccc2)[nH]1 (tautomer)
C/N=c1/cc(C(F)(F)F)nc(-c2ccccc2)[nH]1 (cis-trans isomerization)
C/N=c1/cc(C(F)(F)F)nc(-c2ccccc2)[nH]1 (3D coordinates assigned)
C/N=c1/cc(C(F)(F)F)nc(-c2ccccc2)[nH]1 (optimized conformer: 32.48377722413525 kcal/mol)

>  <smiles>  (4) 
CN=c1cc(C(F)(F)F)[nH]c(-c2ccccc2)n1

>  <score_type>  (4) 
oracle

>  <origin>  (4) 
autodockgpu

>  <m_score__min__energy>  (4) 
-5.3399999999999999

>  <m_primary>  (4) 
energy

>  <meeko>  (4) 
{"free_energy": -5.33, "intermolecular_energy": -6.22, "internal_energy": -0.33, "cluster_size": 20, "cluster_id": 1, "rank_in_cluster": 12}

>  <energy>  (4) 
-5.33

>  <cluster_rmsd>  (4) 
0.54

>  <rmsd>  (4) 
273.03

>  <cluster>  (4) 
1

$$$$
IOQMMJGYZLYJFT-BMGZHQRRNA-N
     RDKit          3D

 28 29  0  0  0  0  0  0  0  0999 V2000
  143.1242   82.1824  223.8708 H   0  0  0  0  0  0  0  0  0  0  0  0
  142.5480   81.2780  223.6260 C   0  0  0  0  0  0  0  0  0  0  0  0
  143.1940   80.1620  223.0890 C   0  0  0  0  0  0  0  0  0  0  0  0
  144.2782   80.1912  222.9056 H   0  0  0  0  0  0  0  0  0  0  0  0
  142.4660   79.0080  222.7840 C   0  0  0  0  0  0  0  0  0  0  0  0
  142.9802   78.1344  222.3569 H   0  0  0  0  0  0  0  0  0  0  0  0
  141.0790   78.9570  223.0200 C   0  0  0  0  0  0  0  0  0  0  0  0
  140.2870   77.7440  222.6940 C   0  0  0  0  0  0  0  0  0  0  0  0
  138.9300   77.7960  222.7790 N   0  0  0  0  0  0  0  0  0  0  0  0
  138.1550   76.7180  222.4910 C   0  0  0  0  0  0  0  0  0  0  0  0
  136.6610   76.8160  222.5920 C   0  0  0  0  0  0  0  0  0  0  0  0
  136.2870   78.0570  223.0790 F   0  0  0  0  0  0  0  0  0  0  0  0
  136.1880   75.8390  223.4470 F   0  0  0  0  0  0  0  0  0  0  0  0
  136.0990   76.6390  221.3410 F   0  0  0  0  0  0  0  0  0  0  0  0
  138.7620   75.5240  222.0960 C   0  0  0  0  0  0  0  0  0  0  0  0
  138.1517   74.6428  221.8491 H   0  0  0  0  0  0  0  0  0  0  0  0
  140.1550   75.4650  222.0190 C   0  0  0  0  0  0  0  0  0  0  0  0
  140.7130   74.3430  221.6610 N   0  0  0  0  0  0  0  0  0  0  0  0
  140.2090   73.0050  221.9500 C   0  0  0  0  0  0  0  0  0  0  0  0
  140.1547   72.8610  223.0392 H   0  0  0  0  0  0  0  0  0  0  0  0
  139.2056   72.8891  221.5144 H   0  0  0  0  0  0  0  0  0  0  0  0
  140.8866   72.2559  221.5144 H   0  0  0  0  0  0  0  0  0  0  0  0
  140.8950   76.5770  222.3250 N   0  0  0  0  0  0  0  0  0  0  0  0
  141.9360   76.5340  222.3070 H   0  0  0  0  0  0  0  0  0  0  0  0
  140.4370   80.0940  223.5470 C   0  0  0  0  0  0  0  0  0  0  0  0
  139.3508   80.0766  223.7200 H   0  0  0  0  0  0  0  0  0  0  0  0
  141.1700   81.2450  223.8520 C   0  0  0  0  0  0  0  0  0  0  0  0
  140.6608   82.1257  224.2705 H   0  0  0  0  0  0  0  0  0  0  0  0
  1  2  1  0
  2  3  2  0
  3  4  1  0
  3  5  1  0
  5  6  1  0
  5  7  2  0
  7  8  1  0
  8  9  2  0
  9 10  1  0
 10 11  1  0
 11 12  1  0
 11 13  1  0
 11 14  1  0
 10 15  2  0
 15 16  1  0
 15 17  1  0
 17 18  2  0
 18 19  1  0
 19 20  1  0
 19 21  1  0
 19 22  1  0
 17 23  1  0
 23 24  1  0
  7 25  1  0
 25 26  1  0
 25 27  2  0
 27 28  1  0
 27  2  1  0
 23  8  1  0
M  END
>  <UniqueID>  (5) 
13

>  <SMILES>  (5) 
C/N=c1/cc(C(F)(F)F)nc(-c2ccccc2)[nH]1

>  <Energy>  (5) 
32.48377722413525

>  <Genealogy>  (5) 
CN=c1cc(C(F)(F)F)nc(-c2ccccc2)[nH]1 (tautomer)
C/N=c1/cc(C(F)(F)F)nc(-c2ccccc2)[nH]1 (cis-trans isomerization)
C/N=c1/cc(C(F)(F)F)nc(-c2ccccc2)[nH]1 (3D coordinates assigned)
C/N=c1/cc(C(F)(F)F)nc(-c2ccccc2)[nH]1 (optimized conformer: 32.48377722413525 kcal/mol)

>  <smiles>  (5) 
CN=c1cc(C(F)(F)F)[nH]c(-c2ccccc2)n1

>  <score_type>  (5) 
oracle

>  <origin>  (5) 
autodockgpu

>  <m_score__min__energy>  (5) 
-5.3399999999999999

>  <m_primary>  (5) 
energy

>  <meeko>  (5) 
{"free_energy": -5.33, "intermolecular_energy": -6.23, "internal_energy": -0.33, "cluster_size": 20, "cluster_id": 1, "rank_in_cluster": 6}

>  <energy>  (5) 
-5.33

>  <cluster_rmsd>  (5) 
0.55

>  <rmsd>  (5) 
273.02

>  <cluster>  (5) 
1

$$$$
IOQMMJGYZLYJFT-BMGZHQRRNA-N
     RDKit          3D

 28 29  0  0  0  0  0  0  0  0999 V2000
  143.0460   82.1843  223.8253 H   0  0  0  0  0  0  0  0  0  0  0  0
  142.4610   81.2820  223.5940 C   0  0  0  0  0  0  0  0  0  0  0  0
  141.0850   81.2630  223.8290 C   0  0  0  0  0  0  0  0  0  0  0  0
  140.5883   82.1486  224.2520 H   0  0  0  0  0  0  0  0  0  0  0  0
  140.3370   80.1210  223.5280 C   0  0  0  0  0  0  0  0  0  0  0  0
  139.2538   80.1117  223.7192 H   0  0  0  0  0  0  0  0  0  0  0  0
  140.9600   78.9830  222.9820 C   0  0  0  0  0  0  0  0  0  0  0  0
  140.1850   77.7570  222.6650 C   0  0  0  0  0  0  0  0  0  0  0  0
  138.8260   77.7990  222.7210 N   0  0  0  0  0  0  0  0  0  0  0  0
  138.0670   76.7080  222.4400 C   0  0  0  0  0  0  0  0  0  0  0  0
  136.5700   76.7960  222.5090 C   0  0  0  0  0  0  0  0  0  0  0  0
  136.0790   75.9640  223.5010 F   0  0  0  0  0  0  0  0  0  0  0  0
  136.0260   76.4150  221.2970 F   0  0  0  0  0  0  0  0  0  0  0  0
  136.1930   78.0960  222.7890 F   0  0  0  0  0  0  0  0  0  0  0  0
  138.6910   75.5120  222.0830 C   0  0  0  0  0  0  0  0  0  0  0  0
  138.0928   74.6206  221.8428 H   0  0  0  0  0  0  0  0  0  0  0  0
  140.0860   75.4630  222.0350 C   0  0  0  0  0  0  0  0  0  0  0  0
  140.6600   74.3390  221.7120 N   0  0  0  0  0  0  0  0  0  0  0  0
  140.1590   73.0030  222.0120 C   0  0  0  0  0  0  0  0  0  0  0  0
  140.1079   72.8668  223.1023 H   0  0  0  0  0  0  0  0  0  0  0  0
  139.1546   72.8825  221.5800 H   0  0  0  0  0  0  0  0  0  0  0  0
  140.8365   72.2518  221.5800 H   0  0  0  0  0  0  0  0  0  0  0  0
  140.8100   76.5870  222.3320 N   0  0  0  0  0  0  0  0  0  0  0  0
  141.8520   76.5530  222.3370 H   0  0  0  0  0  0  0  0  0  0  0  0
  142.3510   79.0100  222.7640 C   0  0  0  0  0  0  0  0  0  0  0  0
  142.8563   78.1233  222.3537 H   0  0  0  0  0  0  0  0  0  0  0  0
  143.0950   80.1550  223.0650 C   0  0  0  0  0  0  0  0  0  0  0  0
  144.1801   80.1684  222.8852 H   0  0  0  0  0  0  0  0  0  0  0  0
  1  2  1  0
  2  3  2  0
  3  4  1  0
  3  5  1  0
  5  6  1  0
  5  7  2  0
  7  8  1  0
  8  9  2  0
  9 10  1  0
 10 11  1  0
 11 12  1  0
 11 13  1  0
 11 14  1  0
 10 15  2  0
 15 16  1  0
 15 17  1  0
 17 18  2  0
 18 19  1  0
 19 20  1  0
 19 21  1  0
 19 22  1  0
 17 23  1  0
 23 24  1  0
  7 25  1  0
 25 26  1  0
 25 27  2  0
 27 28  1  0
 27  2  1  0
 23  8  1  0
M  END
>  <UniqueID>  (6) 
13

>  <SMILES>  (6) 
C/N=c1/cc(C(F)(F)F)nc(-c2ccccc2)[nH]1

>  <Energy>  (6) 
32.48377722413525

>  <Genealogy>  (6) 
CN=c1cc(C(F)(F)F)nc(-c2ccccc2)[nH]1 (tautomer)
C/N=c1/cc(C(F)(F)F)nc(-c2ccccc2)[nH]1 (cis-trans isomerization)
C/N=c1/cc(C(F)(F)F)nc(-c2ccccc2)[nH]1 (3D coordinates assigned)
C/N=c1/cc(C(F)(F)F)nc(-c2ccccc2)[nH]1 (optimized conformer: 32.48377722413525 kcal/mol)

>  <smiles>  (6) 
CN=c1cc(C(F)(F)F)[nH]c(-c2ccccc2)n1

>  <score_type>  (6) 
oracle

>  <origin>  (6) 
autodockgpu

>  <m_score__min__energy>  (6) 
-5.3399999999999999

>  <m_primary>  (6) 
energy

>  <meeko>  (6) 
{"free_energy": -5.31, "intermolecular_energy": -6.21, "internal_energy": -0.33, "cluster_size": 20, "cluster_id": 1, "rank_in_cluster": 20}

>  <energy>  (6) 
-5.33

>  <cluster_rmsd>  (6) 
0.54

>  <rmsd>  (6) 
273.01

>  <cluster>  (6) 
1

$$$$
IOQMMJGYZLYJFT-BMGZHQRRNA-N
     RDKit          3D

 28 29  0  0  0  0  0  0  0  0999 V2000
  143.1324   82.1892  223.8488 H   0  0  0  0  0  0  0  0  0  0  0  0
  142.5560   81.2830  223.6110 C   0  0  0  0  0  0  0  0  0  0  0  0
  143.2020   80.1620  223.0860 C   0  0  0  0  0  0  0  0  0  0  0  0
  144.2868   80.1885  222.9056 H   0  0  0  0  0  0  0  0  0  0  0  0
  142.4740   79.0060  222.7890 C   0  0  0  0  0  0  0  0  0  0  0  0
  142.9886   78.1279  222.3716 H   0  0  0  0  0  0  0  0  0  0  0  0
  141.0860   78.9590  223.0210 C   0  0  0  0  0  0  0  0  0  0  0  0
  140.2930   77.7440  222.7030 C   0  0  0  0  0  0  0  0  0  0  0  0
  138.9370   77.7930  222.7990 N   0  0  0  0  0  0  0  0  0  0  0  0
  138.1620   76.7140  222.5190 C   0  0  0  0  0  0  0  0  0  0  0  0
  136.6690   76.8090  222.6320 C   0  0  0  0  0  0  0  0  0  0  0  0
  136.1930   75.9090  223.5700 F   0  0  0  0  0  0  0  0  0  0  0  0
  136.0910   76.5270  221.4090 F   0  0  0  0  0  0  0  0  0  0  0  0
  136.3130   78.0880  223.0200 F   0  0  0  0  0  0  0  0  0  0  0  0
  138.7680   75.5200  222.1210 C   0  0  0  0  0  0  0  0  0  0  0  0
  138.1575   74.6371  221.8805 H   0  0  0  0  0  0  0  0  0  0  0  0
  140.1610   75.4640  222.0330 C   0  0  0  0  0  0  0  0  0  0  0  0
  140.7170   74.3420  221.6720 N   0  0  0  0  0  0  0  0  0  0  0  0
  140.2180   73.0030  221.9670 C   0  0  0  0  0  0  0  0  0  0  0  0
  140.1658   72.8630  223.0568 H   0  0  0  0  0  0  0  0  0  0  0  0
  139.2144   72.8819  221.5333 H   0  0  0  0  0  0  0  0  0  0  0  0
  140.8976   72.2546  221.5333 H   0  0  0  0  0  0  0  0  0  0  0  0
  140.9000   76.5770  222.3300 N   0  0  0  0  0  0  0  0  0  0  0  0
  141.9420   76.5360  222.3040 H   0  0  0  0  0  0  0  0  0  0  0  0
  140.4440   80.1000  223.5370 C   0  0  0  0  0  0  0  0  0  0  0  0
  139.3575   80.0850  223.7080 H   0  0  0  0  0  0  0  0  0  0  0  0
  141.1780   81.2530  223.8340 C   0  0  0  0  0  0  0  0  0  0  0  0
  140.6687   82.1376  224.2440 H   0  0  0  0  0  0  0  0  0  0  0  0
  1  2  1  0
  2  3  2  0
  3  4  1  0
  3  5  1  0
  5  6  1  0
  5  7  2  0
  7  8  1  0
  8  9  2  0
  9 10  1  0
 10 11  1  0
 11 12  1  0
 11 13  1  0
 11 14  1  0
 10 15  2  0
 15 16  1  0
 15 17  1  0
 17 18  2  0
 18 19  1  0
 19 20  1  0
 19 21  1  0
 19 22  1  0
 17 23  1  0
 23 24  1  0
  7 25  1  0
 25 26  1  0
 25 27  2  0
 27 28  1  0
 27  2  1  0
 23  8  1  0
M  END
>  <UniqueID>  (7) 
13

>  <SMILES>  (7) 
C/N=c1/cc(C(F)(F)F)nc(-c2ccccc2)[nH]1

>  <Energy>  (7) 
32.48377722413525

>  <Genealogy>  (7) 
CN=c1cc(C(F)(F)F)nc(-c2ccccc2)[nH]1 (tautomer)
C/N=c1/cc(C(F)(F)F)nc(-c2ccccc2)[nH]1 (cis-trans isomerization)
C/N=c1/cc(C(F)(F)F)nc(-c2ccccc2)[nH]1 (3D coordinates assigned)
C/N=c1/cc(C(F)(F)F)nc(-c2ccccc2)[nH]1 (optimized conformer: 32.48377722413525 kcal/mol)

>  <smiles>  (7) 
CN=c1cc(C(F)(F)F)[nH]c(-c2ccccc2)n1

>  <score_type>  (7) 
oracle

>  <origin>  (7) 
autodockgpu

>  <m_score__min__energy>  (7) 
-5.3399999999999999

>  <m_primary>  (7) 
energy

>  <meeko>  (7) 
{"free_energy": -5.33, "intermolecular_energy": -6.23, "internal_energy": -0.33, "cluster_size": 20, "cluster_id": 1, "rank_in_cluster": 4}

>  <energy>  (7) 
-5.33

>  <cluster_rmsd>  (7) 
0.54

>  <rmsd>  (7) 
273.0

>  <cluster>  (7) 
1

$$$$
IOQMMJGYZLYJFT-BMGZHQRRNA-N
     RDKit          3D

 28 29  0  0  0  0  0  0  0  0999 V2000
  143.1193   82.1851  223.8508 H   0  0  0  0  0  0  0  0  0  0  0  0
  142.5420   81.2790  223.6150 C   0  0  0  0  0  0  0  0  0  0  0  0
  143.1850   80.1610  223.0810 C   0  0  0  0  0  0  0  0  0  0  0  0
  144.2679   80.1901  222.8901 H   0  0  0  0  0  0  0  0  0  0  0  0
  142.4560   79.0040  222.7880 C   0  0  0  0  0  0  0  0  0  0  0  0
  142.9684   78.1277  222.3643 H   0  0  0  0  0  0  0  0  0  0  0  0
  141.0700   78.9540  223.0320 C   0  0  0  0  0  0  0  0  0  0  0  0
  140.2760   77.7390  222.7180 C   0  0  0  0  0  0  0  0  0  0  0  0
  138.9200   77.7920  222.8060 N   0  0  0  0  0  0  0  0  0  0  0  0
  138.1440   76.7120  222.5300 C   0  0  0  0  0  0  0  0  0  0  0  0
  136.6510   76.8110  222.6340 C   0  0  0  0  0  0  0  0  0  0  0  0
  136.2720   78.0950  222.9890 F   0  0  0  0  0  0  0  0  0  0  0  0
  136.1920   75.9290  223.5950 F   0  0  0  0  0  0  0  0  0  0  0  0
  136.0780   76.4960  221.4160 F   0  0  0  0  0  0  0  0  0  0  0  0
  138.7500   75.5140  222.1430 C   0  0  0  0  0  0  0  0  0  0  0  0
  138.1388   74.6308  221.9056 H   0  0  0  0  0  0  0  0  0  0  0  0
  140.1430   75.4540  222.0620 C   0  0  0  0  0  0  0  0  0  0  0  0
  140.6990   74.3290  221.7110 N   0  0  0  0  0  0  0  0  0  0  0  0
  140.1710   72.9940  221.9720 C   0  0  0  0  0  0  0  0  0  0  0  0
  140.1066   72.8310  223.0580 H   0  0  0  0  0  0  0  0  0  0  0  0
  139.1690   72.9026  221.5274 H   0  0  0  0  0  0  0  0  0  0  0  0
  140.8394   72.2420  221.5274 H   0  0  0  0  0  0  0  0  0  0  0  0
  140.8830   76.5680  222.3560 N   0  0  0  0  0  0  0  0  0  0  0  0
  141.9250   76.5250  222.3360 H   0  0  0  0  0  0  0  0  0  0  0  0
  140.4310   80.0930  223.5570 C   0  0  0  0  0  0  0  0  0  0  0  0
  139.3462   80.0754  223.7382 H   0  0  0  0  0  0  0  0  0  0  0  0
  141.1650   81.2470  223.8500 C   0  0  0  0  0  0  0  0  0  0  0  0
  140.6578   82.1301  224.2658 H   0  0  0  0  0  0  0  0  0  0  0  0
  1  2  1  0
  2  3  2  0
  3  4  1  0
  3  5  1  0
  5  6  1  0
  5  7  2  0
  7  8  1  0
  8  9  2  0
  9 10  1  0
 10 11  1  0
 11 12  1  0
 11 13  1  0
 11 14  1  0
 10 15  2  0
 15 16  1  0
 15 17  1  0
 17 18  2  0
 18 19  1  0
 19 20  1  0
 19 21  1  0
 19 22  1  0
 17 23  1  0
 23 24  1  0
  7 25  1  0
 25 26  1  0
 25 27  2  0
 27 28  1  0
 27  2  1  0
 23  8  1  0
M  END
>  <UniqueID>  (8) 
13

>  <SMILES>  (8) 
C/N=c1/cc(C(F)(F)F)nc(-c2ccccc2)[nH]1

>  <Energy>  (8) 
32.48377722413525

>  <Genealogy>  (8) 
CN=c1cc(C(F)(F)F)nc(-c2ccccc2)[nH]1 (tautomer)
C/N=c1/cc(C(F)(F)F)nc(-c2ccccc2)[nH]1 (cis-trans isomerization)
C/N=c1/cc(C(F)(F)F)nc(-c2ccccc2)[nH]1 (3D coordinates assigned)
C/N=c1/cc(C(F)(F)F)nc(-c2ccccc2)[nH]1 (optimized conformer: 32.48377722413525 kcal/mol)

>  <smiles>  (8) 
CN=c1cc(C(F)(F)F)[nH]c(-c2ccccc2)n1

>  <score_type>  (8) 
oracle

>  <origin>  (8) 
autodockgpu

>  <m_score__min__energy>  (8) 
-5.3399999999999999

>  <m_primary>  (8) 
energy

>  <meeko>  (8) 
{"free_energy": -5.33, "intermolecular_energy": -6.22, "internal_energy": -0.33, "cluster_size": 20, "cluster_id": 1, "rank_in_cluster": 10}

>  <energy>  (8) 
-5.33

>  <cluster_rmsd>  (8) 
0.55

>  <rmsd>  (8) 
273.02

>  <cluster>  (8) 
1

$$$$
IOQMMJGYZLYJFT-BMGZHQRRNA-N
     RDKit          3D

 28 29  0  0  0  0  0  0  0  0999 V2000
  143.1155   82.1982  223.8394 H   0  0  0  0  0  0  0  0  0  0  0  0
  142.5400   81.2910  223.6030 C   0  0  0  0  0  0  0  0  0  0  0  0
  143.1870   80.1700  223.0800 C   0  0  0  0  0  0  0  0  0  0  0  0
  144.2718   80.1972  222.8995 H   0  0  0  0  0  0  0  0  0  0  0  0
  142.4600   79.0130  222.7850 C   0  0  0  0  0  0  0  0  0  0  0  0
  142.9757   78.1350  222.3687 H   0  0  0  0  0  0  0  0  0  0  0  0
  141.0730   78.9640  223.0170 C   0  0  0  0  0  0  0  0  0  0  0  0
  140.2820   77.7470  222.7010 C   0  0  0  0  0  0  0  0  0  0  0  0
  138.9250   77.7990  222.7830 N   0  0  0  0  0  0  0  0  0  0  0  0
  138.1510   76.7180  222.5040 C   0  0  0  0  0  0  0  0  0  0  0  0
  136.6570   76.8160  222.6010 C   0  0  0  0  0  0  0  0  0  0  0  0
  136.0690   76.5080  221.3860 F   0  0  0  0  0  0  0  0  0  0  0  0
  136.2980   78.1030  222.9580 F   0  0  0  0  0  0  0  0  0  0  0  0
  136.1940   75.9320  223.5590 F   0  0  0  0  0  0  0  0  0  0  0  0
  138.7600   75.5210  222.1220 C   0  0  0  0  0  0  0  0  0  0  0  0
  138.1509   74.6370  221.8820 H   0  0  0  0  0  0  0  0  0  0  0  0
  140.1530   75.4620  222.0490 C   0  0  0  0  0  0  0  0  0  0  0  0
  140.7120   74.3360  221.7030 N   0  0  0  0  0  0  0  0  0  0  0  0
  140.1970   73.0010  221.9850 C   0  0  0  0  0  0  0  0  0  0  0  0
  140.1397   72.8525  223.0734 H   0  0  0  0  0  0  0  0  0  0  0  0
  139.1935   72.8951  221.5471 H   0  0  0  0  0  0  0  0  0  0  0  0
  140.8694   72.2486  221.5471 H   0  0  0  0  0  0  0  0  0  0  0  0
  140.8910   76.5760  222.3450 N   0  0  0  0  0  0  0  0  0  0  0  0
  141.9330   76.5340  222.3290 H   0  0  0  0  0  0  0  0  0  0  0  0
  140.4290   80.1050  223.5310 C   0  0  0  0  0  0  0  0  0  0  0  0
  139.3425   80.0884  223.7020 H   0  0  0  0  0  0  0  0  0  0  0  0
  141.1610   81.2600  223.8260 C   0  0  0  0  0  0  0  0  0  0  0  0
  140.6504   82.1448  224.2340 H   0  0  0  0  0  0  0  0  0  0  0  0
  1  2  1  0
  2  3  2  0
  3  4  1  0
  3  5  1  0
  5  6  1  0
  5  7  2  0
  7  8  1  0
  8  9  2  0
  9 10  1  0
 10 11  1  0
 11 12  1  0
 11 13  1  0
 11 14  1  0
 10 15  2  0
 15 16  1  0
 15 17  1  0
 17 18  2  0
 18 19  1  0
 19 20  1  0
 19 21  1  0
 19 22  1  0
 17 23  1  0
 23 24  1  0
  7 25  1  0
 25 26  1  0
 25 27  2  0
 27 28  1  0
 27  2  1  0
 23  8  1  0
M  END
>  <UniqueID>  (9) 
13

>  <SMILES>  (9) 
C/N=c1/cc(C(F)(F)F)nc(-c2ccccc2)[nH]1

>  <Energy>  (9) 
32.48377722413525

>  <Genealogy>  (9) 
CN=c1cc(C(F)(F)F)nc(-c2ccccc2)[nH]1 (tautomer)
C/N=c1/cc(C(F)(F)F)nc(-c2ccccc2)[nH]1 (cis-trans isomerization)
C/N=c1/cc(C(F)(F)F)nc(-c2ccccc2)[nH]1 (3D coordinates assigned)
C/N=c1/cc(C(F)(F)F)nc(-c2ccccc2)[nH]1 (optimized conformer: 32.48377722413525 kcal/mol)

>  <smiles>  (9) 
CN=c1cc(C(F)(F)F)[nH]c(-c2ccccc2)n1

>  <score_type>  (9) 
oracle

>  <origin>  (9) 
autodockgpu

>  <m_score__min__energy>  (9) 
-5.3399999999999999

>  <m_primary>  (9) 
energy

>  <meeko>  (9) 
{"free_energy": -5.33, "intermolecular_energy": -6.23, "internal_energy": -0.33, "cluster_size": 20, "cluster_id": 1, "rank_in_cluster": 5}

>  <energy>  (9) 
-5.33

>  <cluster_rmsd>  (9) 
0.54

>  <rmsd>  (9) 
273.03

>  <cluster>  (9) 
1

$$$$
IOQMMJGYZLYJFT-BMGZHQRRNA-N
     RDKit          3D

 28 29  0  0  0  0  0  0  0  0999 V2000
  143.1526   82.1691  223.8325 H   0  0  0  0  0  0  0  0  0  0  0  0
  142.5610   81.2700  223.6050 C   0  0  0  0  0  0  0  0  0  0  0  0
  141.1860   81.2590  223.8470 C   0  0  0  0  0  0  0  0  0  0  0  0
  140.6964   82.1485  224.2702 H   0  0  0  0  0  0  0  0  0  0  0  0
  140.4300   80.1210  223.5530 C   0  0  0  0  0  0  0  0  0  0  0  0
  139.3478   80.1182  223.7502 H   0  0  0  0  0  0  0  0  0  0  0  0
  141.0440   78.9780  223.0060 C   0  0  0  0  0  0  0  0  0  0  0  0
  140.2600   77.7560  222.6950 C   0  0  0  0  0  0  0  0  0  0  0  0
  138.9040   77.7960  222.7920 N   0  0  0  0  0  0  0  0  0  0  0  0
  138.1370   76.7090  222.5190 C   0  0  0  0  0  0  0  0  0  0  0  0
  136.6430   76.7940  222.6330 C   0  0  0  0  0  0  0  0  0  0  0  0
  136.1730   75.8820  223.5630 F   0  0  0  0  0  0  0  0  0  0  0  0
  136.0670   76.5180  221.4070 F   0  0  0  0  0  0  0  0  0  0  0  0
  136.2790   78.0670  223.0320 F   0  0  0  0  0  0  0  0  0  0  0  0
  138.7520   75.5180  222.1270 C   0  0  0  0  0  0  0  0  0  0  0  0
  138.1477   74.6293  221.8924 H   0  0  0  0  0  0  0  0  0  0  0  0
  140.1440   75.4710  222.0370 C   0  0  0  0  0  0  0  0  0  0  0  0
  140.7090   74.3520  221.6820 N   0  0  0  0  0  0  0  0  0  0  0  0
  141.8690   74.2170  220.8070 C   0  0  0  0  0  0  0  0  0  0  0  0
  142.7782   74.1112  221.4171 H   0  0  0  0  0  0  0  0  0  0  0  0
  141.7478   73.3269  220.1722 H   0  0  0  0  0  0  0  0  0  0  0  0
  141.9555   75.1111  220.1722 H   0  0  0  0  0  0  0  0  0  0  0  0
  140.8760   76.5920  222.3280 N   0  0  0  0  0  0  0  0  0  0  0  0
  141.9180   76.5590  222.3010 H   0  0  0  0  0  0  0  0  0  0  0  0
  142.4340   78.9970  222.7800 C   0  0  0  0  0  0  0  0  0  0  0  0
  142.9325   78.1067  222.3691 H   0  0  0  0  0  0  0  0  0  0  0  0
  143.1850   80.1390  223.0740 C   0  0  0  0  0  0  0  0  0  0  0  0
  144.2689   80.1467  222.8868 H   0  0  0  0  0  0  0  0  0  0  0  0
  1  2  1  0
  2  3  2  0
  3  4  1  0
  3  5  1  0
  5  6  1  0
  5  7  2  0
  7  8  1  0
  8  9  2  0
  9 10  1  0
 10 11  1  0
 11 12  1  0
 11 13  1  0
 11 14  1  0
 10 15  2  0
 15 16  1  0
 15 17  1  0
 17 18  2  0
 18 19  1  0
 19 20  1  0
 19 21  1  0
 19 22  1  0
 17 23  1  0
 23 24  1  0
  7 25  1  0
 25 26  1  0
 25 27  2  0
 27 28  1  0
 27  2  1  0
 23  8  1  0
M  END
>  <UniqueID>  (10) 
13

>  <SMILES>  (10) 
C/N=c1/cc(C(F)(F)F)nc(-c2ccccc2)[nH]1

>  <Energy>  (10) 
32.48377722413525

>  <Genealogy>  (10) 
CN=c1cc(C(F)(F)F)nc(-c2ccccc2)[nH]1 (tautomer)
C/N=c1/cc(C(F)(F)F)nc(-c2ccccc2)[nH]1 (cis-trans isomerization)
C/N=c1/cc(C(F)(F)F)nc(-c2ccccc2)[nH]1 (3D coordinates assigned)
C/N=c1/cc(C(F)(F)F)nc(-c2ccccc2)[nH]1 (optimized conformer: 32.48377722413525 kcal/mol)

>  <smiles>  (10) 
CN=c1cc(C(F)(F)F)[nH]c(-c2ccccc2)n1

>  <score_type>  (10) 
oracle

>  <origin>  (10) 
autodockgpu

>  <m_score__min__energy>  (10) 
-5.3399999999999999

>  <m_primary>  (10) 
energy

>  <meeko>  (10) 
{"free_energy": -5.32, "intermolecular_energy": -6.22, "internal_energy": -0.32, "cluster_size": 20, "cluster_id": 1, "rank_in_cluster": 17}

>  <energy>  (10) 
-5.33

>  <cluster_rmsd>  (10) 
0.55

>  <rmsd>  (10) 
273.03

>  <cluster>  (10) 
1

$$$$
IOQMMJGYZLYJFT-BMGZHQRRNA-N
     RDKit          3D

 28 29  0  0  0  0  0  0  0  0999 V2000
  143.1210   82.1755  223.8511 H   0  0  0  0  0  0  0  0  0  0  0  0
  142.5300   81.2770  223.6200 C   0  0  0  0  0  0  0  0  0  0  0  0
  141.1520   81.2710  223.8430 C   0  0  0  0  0  0  0  0  0  0  0  0
  140.6595   82.1637  224.2561 H   0  0  0  0  0  0  0  0  0  0  0  0
  140.3960   80.1340  223.5430 C   0  0  0  0  0  0  0  0  0  0  0  0
  139.3112   80.1351  223.7255 H   0  0  0  0  0  0  0  0  0  0  0  0
  141.0140   78.9880  223.0090 C   0  0  0  0  0  0  0  0  0  0  0  0
  140.2300   77.7670  222.6920 C   0  0  0  0  0  0  0  0  0  0  0  0
  138.8740   77.8030  222.8010 N   0  0  0  0  0  0  0  0  0  0  0  0
  138.1070   76.7170  222.5230 C   0  0  0  0  0  0  0  0  0  0  0  0
  136.6140   76.7970  222.6500 C   0  0  0  0  0  0  0  0  0  0  0  0
  136.2190   78.0930  222.9340 F   0  0  0  0  0  0  0  0  0  0  0  0
  136.1890   75.9670  223.6700 F   0  0  0  0  0  0  0  0  0  0  0  0
  136.0250   76.4000  221.4640 F   0  0  0  0  0  0  0  0  0  0  0  0
  138.7210   75.5310  222.1140 C   0  0  0  0  0  0  0  0  0  0  0  0
  138.1169   74.6431  221.8758 H   0  0  0  0  0  0  0  0  0  0  0  0
  140.1130   75.4890  222.0120 C   0  0  0  0  0  0  0  0  0  0  0  0
  140.6770   74.3740  221.6410 N   0  0  0  0  0  0  0  0  0  0  0  0
  140.2090   73.0290  221.9560 C   0  0  0  0  0  0  0  0  0  0  0  0
  140.1650   72.9024  223.0478 H   0  0  0  0  0  0  0  0  0  0  0  0
  139.2063   72.8803  221.5289 H   0  0  0  0  0  0  0  0  0  0  0  0
  140.9028   72.2899  221.5289 H   0  0  0  0  0  0  0  0  0  0  0  0
  140.8450   76.6080  222.3090 N   0  0  0  0  0  0  0  0  0  0  0  0
  141.8870   76.5770  222.2730 H   0  0  0  0  0  0  0  0  0  0  0  0
  142.4070   79.0000  222.8020 C   0  0  0  0  0  0  0  0  0  0  0  0
  142.9076   78.1063  222.4010 H   0  0  0  0  0  0  0  0  0  0  0  0
  143.1580   80.1410  223.1030 C   0  0  0  0  0  0  0  0  0  0  0  0
  144.2447   80.1439  222.9324 H   0  0  0  0  0  0  0  0  0  0  0  0
  1  2  1  0
  2  3  2  0
  3  4  1  0
  3  5  1  0
  5  6  1  0
  5  7  2  0
  7  8  1  0
  8  9  2  0
  9 10  1  0
 10 11  1  0
 11 12  1  0
 11 13  1  0
 11 14  1  0
 10 15  2  0
 15 16  1  0
 15 17  1  0
 17 18  2  0
 18 19  1  0
 19 20  1  0
 19 21  1  0
 19 22  1  0
 17 23  1  0
 23 24  1  0
  7 25  1  0
 25 26  1  0
 25 27  2  0
 27 28  1  0
 27  2  1  0
 23  8  1  0
M  END
>  <UniqueID>  (11) 
13

>  <SMILES>  (11) 
C/N=c1/cc(C(F)(F)F)nc(-c2ccccc2)[nH]1

>  <Energy>  (11) 
32.48377722413525

>  <Genealogy>  (11) 
CN=c1cc(C(F)(F)F)nc(-c2ccccc2)[nH]1 (tautomer)
C/N=c1/cc(C(F)(F)F)nc(-c2ccccc2)[nH]1 (cis-trans isomerization)
C/N=c1/cc(C(F)(F)F)nc(-c2ccccc2)[nH]1 (3D coordinates assigned)
C/N=c1/cc(C(F)(F)F)nc(-c2ccccc2)[nH]1 (optimized conformer: 32.48377722413525 kcal/mol)

>  <smiles>  (11) 
CN=c1cc(C(F)(F)F)[nH]c(-c2ccccc2)n1

>  <score_type>  (11) 
oracle

>  <origin>  (11) 
autodockgpu

>  <m_score__min__energy>  (11) 
-5.3399999999999999

>  <m_primary>  (11) 
energy

>  <meeko>  (11) 
{"free_energy": -5.32, "intermolecular_energy": -6.22, "internal_energy": -0.33, "cluster_size": 20, "cluster_id": 1, "rank_in_cluster": 16}

>  <energy>  (11) 
-5.33

>  <cluster_rmsd>  (11) 
0.54

>  <rmsd>  (11) 
273.03

>  <cluster>  (11) 
1

$$$$
IOQMMJGYZLYJFT-BMGZHQRRNA-N
     RDKit          3D

 28 29  0  0  0  0  0  0  0  0999 V2000
  143.0256   82.1756  223.8562 H   0  0  0  0  0  0  0  0  0  0  0  0
  142.4600   81.2640  223.6130 C   0  0  0  0  0  0  0  0  0  0  0  0
  143.1180   80.1550  223.0770 C   0  0  0  0  0  0  0  0  0  0  0  0
  144.2015   80.1972  222.8919 H   0  0  0  0  0  0  0  0  0  0  0  0
  142.4050   78.9920  222.7750 C   0  0  0  0  0  0  0  0  0  0  0  0
  142.9302   78.1238  222.3502 H   0  0  0  0  0  0  0  0  0  0  0  0
  141.0180   78.9240  223.0110 C   0  0  0  0  0  0  0  0  0  0  0  0
  140.2410   77.7020  222.6870 C   0  0  0  0  0  0  0  0  0  0  0  0
  138.8840   77.7350  222.7790 N   0  0  0  0  0  0  0  0  0  0  0  0
  138.1220   76.6470  222.4940 C   0  0  0  0  0  0  0  0  0  0  0  0
  136.6280   76.7250  222.6030 C   0  0  0  0  0  0  0  0  0  0  0  0
  136.0320   76.3320  221.4170 F   0  0  0  0  0  0  0  0  0  0  0  0
  136.2490   78.0240  222.8840 F   0  0  0  0  0  0  0  0  0  0  0  0
  136.1920   75.8940  223.6190 F   0  0  0  0  0  0  0  0  0  0  0  0
  138.7430   75.4620  222.0950 C   0  0  0  0  0  0  0  0  0  0  0  0
  138.1434   74.5726  221.8511 H   0  0  0  0  0  0  0  0  0  0  0  0
  140.1360   75.4220  222.0100 C   0  0  0  0  0  0  0  0  0  0  0  0
  140.7070   74.3080  221.6470 N   0  0  0  0  0  0  0  0  0  0  0  0
  140.2350   72.9630  221.9570 C   0  0  0  0  0  0  0  0  0  0  0  0
  140.1893   72.8329  223.0483 H   0  0  0  0  0  0  0  0  0  0  0  0
  139.2324   72.8183  221.5282 H   0  0  0  0  0  0  0  0  0  0  0  0
  140.9273   72.2235  221.5282 H   0  0  0  0  0  0  0  0  0  0  0  0
  140.8620   76.5430  222.3130 N   0  0  0  0  0  0  0  0  0  0  0  0
  141.9040   76.5140  222.2900 H   0  0  0  0  0  0  0  0  0  0  0  0
  140.3630   80.0540  223.5380 C   0  0  0  0  0  0  0  0  0  0  0  0
  139.2775   80.0234  223.7132 H   0  0  0  0  0  0  0  0  0  0  0  0
  141.0820   81.2140  223.8400 C   0  0  0  0  0  0  0  0  0  0  0  0
  140.5622   82.0891  224.2571 H   0  0  0  0  0  0  0  0  0  0  0  0
  1  2  1  0
  2  3  2  0
  3  4  1  0
  3  5  1  0
  5  6  1  0
  5  7  2  0
  7  8  1  0
  8  9  2  0
  9 10  1  0
 10 11  1  0
 11 12  1  0
 11 13  1  0
 11 14  1  0
 10 15  2  0
 15 16  1  0
 15 17  1  0
 17 18  2  0
 18 19  1  0
 19 20  1  0
 19 21  1  0
 19 22  1  0
 17 23  1  0
 23 24  1  0
  7 25  1  0
 25 26  1  0
 25 27  2  0
 27 28  1  0
 27  2  1  0
 23  8  1  0
M  END
>  <UniqueID>  (12) 
13

>  <SMILES>  (12) 
C/N=c1/cc(C(F)(F)F)nc(-c2ccccc2)[nH]1

>  <Energy>  (12) 
32.48377722413525

>  <Genealogy>  (12) 
CN=c1cc(C(F)(F)F)nc(-c2ccccc2)[nH]1 (tautomer)
C/N=c1/cc(C(F)(F)F)nc(-c2ccccc2)[nH]1 (cis-trans isomerization)
C/N=c1/cc(C(F)(F)F)nc(-c2ccccc2)[nH]1 (3D coordinates assigned)
C/N=c1/cc(C(F)(F)F)nc(-c2ccccc2)[nH]1 (optimized conformer: 32.48377722413525 kcal/mol)

>  <smiles>  (12) 
CN=c1cc(C(F)(F)F)[nH]c(-c2ccccc2)n1

>  <score_type>  (12) 
oracle

>  <origin>  (12) 
autodockgpu

>  <m_score__min__energy>  (12) 
-5.3399999999999999

>  <m_primary>  (12) 
energy

>  <meeko>  (12) 
{"free_energy": -5.31, "intermolecular_energy": -6.21, "internal_energy": -0.33, "cluster_size": 20, "cluster_id": 1, "rank_in_cluster": 18}

>  <energy>  (12) 
-5.33

>  <cluster_rmsd>  (12) 
0.56

>  <rmsd>  (12) 
272.99

>  <cluster>  (12) 
1

$$$$
IOQMMJGYZLYJFT-BMGZHQRRNA-N
     RDKit          3D

 28 29  0  0  0  0  0  0  0  0999 V2000
  143.0198   82.1947  223.8157 H   0  0  0  0  0  0  0  0  0  0  0  0
  142.4420   81.2870  223.5870 C   0  0  0  0  0  0  0  0  0  0  0  0
  141.0660   81.2580  223.8190 C   0  0  0  0  0  0  0  0  0  0  0  0
  140.5615   82.1421  224.2361 H   0  0  0  0  0  0  0  0  0  0  0  0
  140.3270   80.1090  223.5230 C   0  0  0  0  0  0  0  0  0  0  0  0
  139.2436   80.0924  223.7125 H   0  0  0  0  0  0  0  0  0  0  0  0
  140.9600   78.9730  222.9840 C   0  0  0  0  0  0  0  0  0  0  0  0
  140.1950   77.7400  222.6720 C   0  0  0  0  0  0  0  0  0  0  0  0
  138.8370   77.7640  222.7530 N   0  0  0  0  0  0  0  0  0  0  0  0
  138.0860   76.6660  222.4770 C   0  0  0  0  0  0  0  0  0  0  0  0
  136.5900   76.7330  222.5730 C   0  0  0  0  0  0  0  0  0  0  0  0
  136.1740   78.0380  222.7740 F   0  0  0  0  0  0  0  0  0  0  0  0
  136.1570   75.9580  223.6320 F   0  0  0  0  0  0  0  0  0  0  0  0
  136.0280   76.2600  221.4020 F   0  0  0  0  0  0  0  0  0  0  0  0
  138.7200   75.4800  222.1000 C   0  0  0  0  0  0  0  0  0  0  0  0
  138.1295   74.5824  221.8640 H   0  0  0  0  0  0  0  0  0  0  0  0
  140.1140   75.4500  222.0270 C   0  0  0  0  0  0  0  0  0  0  0  0
  140.6960   74.3350  221.6850 N   0  0  0  0  0  0  0  0  0  0  0  0
  140.2040   72.9900  221.9630 C   0  0  0  0  0  0  0  0  0  0  0  0
  140.1482   72.8376  223.0510 H   0  0  0  0  0  0  0  0  0  0  0  0
  139.2029   72.8677  221.5238 H   0  0  0  0  0  0  0  0  0  0  0  0
  140.8899   72.2506  221.5238 H   0  0  0  0  0  0  0  0  0  0  0  0
  140.8280   76.5800  222.3200 N   0  0  0  0  0  0  0  0  0  0  0  0
  141.8710   76.5600  222.3050 H   0  0  0  0  0  0  0  0  0  0  0  0
  142.3510   79.0100  222.7670 C   0  0  0  0  0  0  0  0  0  0  0  0
  142.8638   78.1257  222.3607 H   0  0  0  0  0  0  0  0  0  0  0  0
  143.0850   80.1620  223.0640 C   0  0  0  0  0  0  0  0  0  0  0  0
  144.1703   80.1829  222.8857 H   0  0  0  0  0  0  0  0  0  0  0  0
  1  2  1  0
  2  3  2  0
  3  4  1  0
  3  5  1  0
  5  6  1  0
  5  7  2  0
  7  8  1  0
  8  9  2  0
  9 10  1  0
 10 11  1  0
 11 12  1  0
 11 13  1  0
 11 14  1  0
 10 15  2  0
 15 16  1  0
 15 17  1  0
 17 18  2  0
 18 19  1  0
 19 20  1  0
 19 21  1  0
 19 22  1  0
 17 23  1  0
 23 24  1  0
  7 25  1  0
 25 26  1  0
 25 27  2  0
 27 28  1  0
 27  2  1  0
 23  8  1  0
M  END
>  <UniqueID>  (13) 
13

>  <SMILES>  (13) 
C/N=c1/cc(C(F)(F)F)nc(-c2ccccc2)[nH]1

>  <Energy>  (13) 
32.48377722413525

>  <Genealogy>  (13) 
CN=c1cc(C(F)(F)F)nc(-c2ccccc2)[nH]1 (tautomer)
C/N=c1/cc(C(F)(F)F)nc(-c2ccccc2)[nH]1 (cis-trans isomerization)
C/N=c1/cc(C(F)(F)F)nc(-c2ccccc2)[nH]1 (3D coordinates assigned)
C/N=c1/cc(C(F)(F)F)nc(-c2ccccc2)[nH]1 (optimized conformer: 32.48377722413525 kcal/mol)

>  <smiles>  (13) 
CN=c1cc(C(F)(F)F)[nH]c(-c2ccccc2)n1

>  <score_type>  (13) 
oracle

>  <origin>  (13) 
autodockgpu

>  <m_score__min__energy>  (13) 
-5.3399999999999999

>  <m_primary>  (13) 
energy

>  <meeko>  (13) 
{"free_energy": -5.31, "intermolecular_energy": -6.21, "internal_energy": -0.33, "cluster_size": 20, "cluster_id": 1, "rank_in_cluster": 19}

>  <energy>  (13) 
-5.33

>  <cluster_rmsd>  (13) 
0.56

>  <rmsd>  (13) 
273.01

>  <cluster>  (13) 
1

$$$$
IOQMMJGYZLYJFT-BMGZHQRRNA-N
     RDKit          3D

 28 29  0  0  0  0  0  0  0  0999 V2000
  143.1433   82.1779  223.8748 H   0  0  0  0  0  0  0  0  0  0  0  0
  142.5650   81.2740  223.6330 C   0  0  0  0  0  0  0  0  0  0  0  0
  143.2090   80.1530  223.1060 C   0  0  0  0  0  0  0  0  0  0  0  0
  144.2943   80.1771  222.9286 H   0  0  0  0  0  0  0  0  0  0  0  0
  142.4790   79.0000  222.8030 C   0  0  0  0  0  0  0  0  0  0  0  0
  142.9927   78.1223  222.3838 H   0  0  0  0  0  0  0  0  0  0  0  0
  141.0900   78.9550  223.0310 C   0  0  0  0  0  0  0  0  0  0  0  0
  140.2950   77.7440  222.7070 C   0  0  0  0  0  0  0  0  0  0  0  0
  138.9390   77.7990  222.7920 N   0  0  0  0  0  0  0  0  0  0  0  0
  138.1620   76.7220  222.5060 C   0  0  0  0  0  0  0  0  0  0  0  0
  136.6680   76.8240  222.6070 C   0  0  0  0  0  0  0  0  0  0  0  0
  136.2930   78.0910  223.0210 F   0  0  0  0  0  0  0  0  0  0  0  0
  136.1990   75.8990  223.5210 F   0  0  0  0  0  0  0  0  0  0  0  0
  136.1010   76.5710  221.3710 F   0  0  0  0  0  0  0  0  0  0  0  0
  138.7660   75.5260  222.1140 C   0  0  0  0  0  0  0  0  0  0  0  0
  138.1538   74.6455  221.8694 H   0  0  0  0  0  0  0  0  0  0  0  0
  140.1590   75.4640  222.0370 C   0  0  0  0  0  0  0  0  0  0  0  0
  140.7140   74.3400  221.6810 N   0  0  0  0  0  0  0  0  0  0  0  0
  140.2110   73.0030  221.9790 C   0  0  0  0  0  0  0  0  0  0  0  0
  140.1592   72.8653  223.0691 H   0  0  0  0  0  0  0  0  0  0  0  0
  139.2067   72.8842  221.5463 H   0  0  0  0  0  0  0  0  0  0  0  0
  140.8879   72.2517  221.5463 H   0  0  0  0  0  0  0  0  0  0  0  0
  140.9010   76.5740  222.3410 N   0  0  0  0  0  0  0  0  0  0  0  0
  141.9420   76.5290  222.3230 H   0  0  0  0  0  0  0  0  0  0  0  0
  140.4500   80.0970  223.5500 C   0  0  0  0  0  0  0  0  0  0  0  0
  139.3630   80.0845  223.7184 H   0  0  0  0  0  0  0  0  0  0  0  0
  141.1860   81.2470  223.8530 C   0  0  0  0  0  0  0  0  0  0  0  0
  140.6781   82.1314  224.2651 H   0  0  0  0  0  0  0  0  0  0  0  0
  1  2  1  0
  2  3  2  0
  3  4  1  0
  3  5  1  0
  5  6  1  0
  5  7  2  0
  7  8  1  0
  8  9  2  0
  9 10  1  0
 10 11  1  0
 11 12  1  0
 11 13  1  0
 11 14  1  0
 10 15  2  0
 15 16  1  0
 15 17  1  0
 17 18  2  0
 18 19  1  0
 19 20  1  0
 19 21  1  0
 19 22  1  0
 17 23  1  0
 23 24  1  0
  7 25  1  0
 25 26  1  0
 25 27  2  0
 27 28  1  0
 27  2  1  0
 23  8  1  0
M  END
>  <UniqueID>  (14) 
13

>  <SMILES>  (14) 
C/N=c1/cc(C(F)(F)F)nc(-c2ccccc2)[nH]1

>  <Energy>  (14) 
32.48377722413525

>  <Genealogy>  (14) 
CN=c1cc(C(F)(F)F)nc(-c2ccccc2)[nH]1 (tautomer)
C/N=c1/cc(C(F)(F)F)nc(-c2ccccc2)[nH]1 (cis-trans isomerization)
C/N=c1/cc(C(F)(F)F)nc(-c2ccccc2)[nH]1 (3D coordinates assigned)
C/N=c1/cc(C(F)(F)F)nc(-c2ccccc2)[nH]1 (optimized conformer: 32.48377722413525 kcal/mol)

>  <smiles>  (14) 
CN=c1cc(C(F)(F)F)[nH]c(-c2ccccc2)n1

>  <score_type>  (14) 
oracle

>  <origin>  (14) 
autodockgpu

>  <m_score__min__energy>  (14) 
-5.3399999999999999

>  <m_primary>  (14) 
energy

>  <meeko>  (14) 
{"free_energy": -5.33, "intermolecular_energy": -6.22, "internal_energy": -0.33, "cluster_size": 20, "cluster_id": 1, "rank_in_cluster": 9}

>  <energy>  (14) 
-5.33

>  <cluster_rmsd>  (14) 
0.55

>  <rmsd>  (14) 
273.01

>  <cluster>  (14) 
1

$$$$
IOQMMJGYZLYJFT-BMGZHQRRNA-N
     RDKit          3D

 28 29  0  0  0  0  0  0  0  0999 V2000
  143.1359   82.1936  223.8574 H   0  0  0  0  0  0  0  0  0  0  0  0
  142.5570   81.2900  223.6160 C   0  0  0  0  0  0  0  0  0  0  0  0
  143.1990   80.1710  223.0840 C   0  0  0  0  0  0  0  0  0  0  0  0
  144.2833   80.1965  222.9008 H   0  0  0  0  0  0  0  0  0  0  0  0
  142.4680   79.0170  222.7830 C   0  0  0  0  0  0  0  0  0  0  0  0
  142.9800   78.1404  222.3594 H   0  0  0  0  0  0  0  0  0  0  0  0
  141.0810   78.9710  223.0190 C   0  0  0  0  0  0  0  0  0  0  0  0
  140.2850   77.7590  222.6970 C   0  0  0  0  0  0  0  0  0  0  0  0
  138.9280   77.8240  222.7500 N   0  0  0  0  0  0  0  0  0  0  0  0
  138.1500   76.7480  222.4640 C   0  0  0  0  0  0  0  0  0  0  0  0
  136.6550   76.8610  222.5290 C   0  0  0  0  0  0  0  0  0  0  0  0
  136.0980   76.6620  221.2770 F   0  0  0  0  0  0  0  0  0  0  0  0
  136.3030   78.1190  222.9790 F   0  0  0  0  0  0  0  0  0  0  0  0
  136.1540   75.9090  223.3980 F   0  0  0  0  0  0  0  0  0  0  0  0
  138.7550   75.5410  222.1070 C   0  0  0  0  0  0  0  0  0  0  0  0
  138.1427   74.6602  221.8633 H   0  0  0  0  0  0  0  0  0  0  0  0
  140.1490   75.4690  222.0640 C   0  0  0  0  0  0  0  0  0  0  0  0
  140.7050   74.3350  221.7400 N   0  0  0  0  0  0  0  0  0  0  0  0
  140.1310   73.0100  221.9450 C   0  0  0  0  0  0  0  0  0  0  0  0
  140.0446   72.8107  223.0233 H   0  0  0  0  0  0  0  0  0  0  0  0
  139.1336   72.9670  221.4831 H   0  0  0  0  0  0  0  0  0  0  0  0
  140.7818   72.2530  221.4831 H   0  0  0  0  0  0  0  0  0  0  0  0
  140.8910   76.5790  222.3650 N   0  0  0  0  0  0  0  0  0  0  0  0
  141.9330   76.5270  222.3720 H   0  0  0  0  0  0  0  0  0  0  0  0
  140.4420   80.1110  223.5420 C   0  0  0  0  0  0  0  0  0  0  0  0
  139.3560   80.0966  223.7161 H   0  0  0  0  0  0  0  0  0  0  0  0
  141.1780   81.2620  223.8420 C   0  0  0  0  0  0  0  0  0  0  0  0
  140.6710   82.1460  224.2562 H   0  0  0  0  0  0  0  0  0  0  0  0
  1  2  1  0
  2  3  2  0
  3  4  1  0
  3  5  1  0
  5  6  1  0
  5  7  2  0
  7  8  1  0
  8  9  2  0
  9 10  1  0
 10 11  1  0
 11 12  1  0
 11 13  1  0
 11 14  1  0
 10 15  2  0
 15 16  1  0
 15 17  1  0
 17 18  2  0
 18 19  1  0
 19 20  1  0
 19 21  1  0
 19 22  1  0
 17 23  1  0
 23 24  1  0
  7 25  1  0
 25 26  1  0
 25 27  2  0
 27 28  1  0
 27  2  1  0
 23  8  1  0
M  END
>  <UniqueID>  (15) 
13

>  <SMILES>  (15) 
C/N=c1/cc(C(F)(F)F)nc(-c2ccccc2)[nH]1

>  <Energy>  (15) 
32.48377722413525

>  <Genealogy>  (15) 
CN=c1cc(C(F)(F)F)nc(-c2ccccc2)[nH]1 (tautomer)
C/N=c1/cc(C(F)(F)F)nc(-c2ccccc2)[nH]1 (cis-trans isomerization)
C/N=c1/cc(C(F)(F)F)nc(-c2ccccc2)[nH]1 (3D coordinates assigned)
C/N=c1/cc(C(F)(F)F)nc(-c2ccccc2)[nH]1 (optimized conformer: 32.48377722413525 kcal/mol)

>  <smiles>  (15) 
CN=c1cc(C(F)(F)F)[nH]c(-c2ccccc2)n1

>  <score_type>  (15) 
oracle

>  <origin>  (15) 
autodockgpu

>  <m_score__min__energy>  (15) 
-5.3399999999999999

>  <m_primary>  (15) 
energy

>  <meeko>  (15) 
{"free_energy": -5.34, "intermolecular_energy": -6.23, "internal_energy": -0.33, "cluster_size": 20, "cluster_id": 1, "rank_in_cluster": 3}

>  <energy>  (15) 
-5.32

>  <cluster_rmsd>  (15) 
0.13

>  <rmsd>  (15) 
273.03

>  <cluster>  (15) 
1

$$$$
IOQMMJGYZLYJFT-BMGZHQRRNA-N
     RDKit          3D

 28 29  0  0  0  0  0  0  0  0999 V2000
  143.1519   82.1865  223.8267 H   0  0  0  0  0  0  0  0  0  0  0  0
  142.5720   81.2820  223.5910 C   0  0  0  0  0  0  0  0  0  0  0  0
  143.2140   80.1570  223.0710 C   0  0  0  0  0  0  0  0  0  0  0  0
  144.2991   80.1782  222.8920 H   0  0  0  0  0  0  0  0  0  0  0  0
  142.4810   79.0030  222.7770 C   0  0  0  0  0  0  0  0  0  0  0  0
  142.9928   78.1213  222.3639 H   0  0  0  0  0  0  0  0  0  0  0  0
  141.0930   78.9620  223.0060 C   0  0  0  0  0  0  0  0  0  0  0  0
  140.2950   77.7500  222.6920 C   0  0  0  0  0  0  0  0  0  0  0  0
  138.9410   77.7970  222.8100 N   0  0  0  0  0  0  0  0  0  0  0  0
  138.1620   76.7200  222.5340 C   0  0  0  0  0  0  0  0  0  0  0  0
  136.6710   76.8140  222.6720 C   0  0  0  0  0  0  0  0  0  0  0  0
  136.2210   75.9770  223.6790 F   0  0  0  0  0  0  0  0  0  0  0  0
  136.0700   76.4450  221.4840 F   0  0  0  0  0  0  0  0  0  0  0  0
  136.3140   78.1140  222.9790 F   0  0  0  0  0  0  0  0  0  0  0  0
  138.7620   75.5300  222.1170 C   0  0  0  0  0  0  0  0  0  0  0  0
  138.1479   74.6486  221.8802 H   0  0  0  0  0  0  0  0  0  0  0  0
  140.1530   75.4750  222.0050 C   0  0  0  0  0  0  0  0  0  0  0  0
  140.7040   74.3560  221.6260 N   0  0  0  0  0  0  0  0  0  0  0  0
  140.2240   73.0150  221.9390 C   0  0  0  0  0  0  0  0  0  0  0  0
  140.1783   72.8874  223.0306 H   0  0  0  0  0  0  0  0  0  0  0  0
  139.2202   72.8757  221.5112 H   0  0  0  0  0  0  0  0  0  0  0  0
  140.9114   72.2704  221.5112 H   0  0  0  0  0  0  0  0  0  0  0  0
  140.8970   76.5860  222.3000 N   0  0  0  0  0  0  0  0  0  0  0  0
  141.9380   76.5460  222.2560 H   0  0  0  0  0  0  0  0  0  0  0  0
  140.4550   80.1080  223.5180 C   0  0  0  0  0  0  0  0  0  0  0  0
  139.3683   80.0979  223.6880 H   0  0  0  0  0  0  0  0  0  0  0  0
  141.1930   81.2590  223.8120 C   0  0  0  0  0  0  0  0  0  0  0  0
  140.6868   82.1473  224.2178 H   0  0  0  0  0  0  0  0  0  0  0  0
  1  2  1  0
  2  3  2  0
  3  4  1  0
  3  5  1  0
  5  6  1  0
  5  7  2  0
  7  8  1  0
  8  9  2  0
  9 10  1  0
 10 11  1  0
 11 12  1  0
 11 13  1  0
 11 14  1  0
 10 15  2  0
 15 16  1  0
 15 17  1  0
 17 18  2  0
 18 19  1  0
 19 20  1  0
 19 21  1  0
 19 22  1  0
 17 23  1  0
 23 24  1  0
  7 25  1  0
 25 26  1  0
 25 27  2  0
 27 28  1  0
 27  2  1  0
 23  8  1  0
M  END
>  <UniqueID>  (16) 
13

>  <SMILES>  (16) 
C/N=c1/cc(C(F)(F)F)nc(-c2ccccc2)[nH]1

>  <Energy>  (16) 
32.48377722413525

>  <Genealogy>  (16) 
CN=c1cc(C(F)(F)F)nc(-c2ccccc2)[nH]1 (tautomer)
C/N=c1/cc(C(F)(F)F)nc(-c2ccccc2)[nH]1 (cis-trans isomerization)
C/N=c1/cc(C(F)(F)F)nc(-c2ccccc2)[nH]1 (3D coordinates assigned)
C/N=c1/cc(C(F)(F)F)nc(-c2ccccc2)[nH]1 (optimized conformer: 32.48377722413525 kcal/mol)

>  <smiles>  (16) 
CN=c1cc(C(F)(F)F)[nH]c(-c2ccccc2)n1

>  <score_type>  (16) 
oracle

>  <origin>  (16) 
autodockgpu

>  <m_score__min__energy>  (16) 
-5.3399999999999999

>  <m_primary>  (16) 
energy

>  <meeko>  (16) 
{"free_energy": -5.33, "intermolecular_energy": -6.22, "internal_energy": -0.33, "cluster_size": 20, "cluster_id": 1, "rank_in_cluster": 11}

>  <energy>  (16) 
-5.32

>  <cluster_rmsd>  (16) 
0.55

>  <rmsd>  (16) 
273.0

>  <cluster>  (16) 
1

$$$$
IOQMMJGYZLYJFT-BMGZHQRRNA-N
     RDKit          3D

 28 29  0  0  0  0  0  0  0  0999 V2000
  143.1304   82.1828  223.8552 H   0  0  0  0  0  0  0  0  0  0  0  0
  142.5500   81.2790  223.6180 C   0  0  0  0  0  0  0  0  0  0  0  0
  143.1910   80.1560  223.0920 C   0  0  0  0  0  0  0  0  0  0  0  0
  144.2756   80.1784  222.9100 H   0  0  0  0  0  0  0  0  0  0  0  0
  142.4580   79.0030  222.7960 C   0  0  0  0  0  0  0  0  0  0  0  0
  142.9689   78.1234  222.3773 H   0  0  0  0  0  0  0  0  0  0  0  0
  141.0710   78.9600  223.0300 C   0  0  0  0  0  0  0  0  0  0  0  0
  140.2730   77.7490  222.7130 C   0  0  0  0  0  0  0  0  0  0  0  0
  138.9150   77.8150  222.7720 N   0  0  0  0  0  0  0  0  0  0  0  0
  138.1360   76.7380  222.4910 C   0  0  0  0  0  0  0  0  0  0  0  0
  136.6420   76.8520  222.5630 C   0  0  0  0  0  0  0  0  0  0  0  0
  136.1250   75.9280  223.4560 F   0  0  0  0  0  0  0  0  0  0  0  0
  136.0970   76.6180  221.3140 F   0  0  0  0  0  0  0  0  0  0  0  0
  136.2920   78.1230  222.9820 F   0  0  0  0  0  0  0  0  0  0  0  0
  138.7390   75.5310  222.1310 C   0  0  0  0  0  0  0  0  0  0  0  0
  138.1251   74.6505  221.8903 H   0  0  0  0  0  0  0  0  0  0  0  0
  140.1320   75.4580  222.0810 C   0  0  0  0  0  0  0  0  0  0  0  0
  140.6860   74.3240  221.7550 N   0  0  0  0  0  0  0  0  0  0  0  0
  140.1150   72.9990  221.9700 C   0  0  0  0  0  0  0  0  0  0  0  0
  140.0320   72.8063  223.0498 H   0  0  0  0  0  0  0  0  0  0  0  0
  139.1164   72.9512  221.5112 H   0  0  0  0  0  0  0  0  0  0  0  0
  140.7660   72.2403  221.5112 H   0  0  0  0  0  0  0  0  0  0  0  0
  140.8760   76.5690  222.3780 N   0  0  0  0  0  0  0  0  0  0  0  0
  141.9180   76.5160  222.3800 H   0  0  0  0  0  0  0  0  0  0  0  0
  140.4340   80.1050  223.5470 C   0  0  0  0  0  0  0  0  0  0  0  0
  139.3476   80.0943  223.7192 H   0  0  0  0  0  0  0  0  0  0  0  0
  141.1720   81.2550  223.8430 C   0  0  0  0  0  0  0  0  0  0  0  0
  140.6667   82.1417  224.2535 H   0  0  0  0  0  0  0  0  0  0  0  0
  1  2  1  0
  2  3  2  0
  3  4  1  0
  3  5  1  0
  5  6  1  0
  5  7  2  0
  7  8  1  0
  8  9  2  0
  9 10  1  0
 10 11  1  0
 11 12  1  0
 11 13  1  0
 11 14  1  0
 10 15  2  0
 15 16  1  0
 15 17  1  0
 17 18  2  0
 18 19  1  0
 19 20  1  0
 19 21  1  0
 19 22  1  0
 17 23  1  0
 23 24  1  0
  7 25  1  0
 25 26  1  0
 25 27  2  0
 27 28  1  0
 27  2  1  0
 23  8  1  0
M  END
>  <UniqueID>  (17) 
13

>  <SMILES>  (17) 
C/N=c1/cc(C(F)(F)F)nc(-c2ccccc2)[nH]1

>  <Energy>  (17) 
32.48377722413525

>  <Genealogy>  (17) 
CN=c1cc(C(F)(F)F)nc(-c2ccccc2)[nH]1 (tautomer)
C/N=c1/cc(C(F)(F)F)nc(-c2ccccc2)[nH]1 (cis-trans isomerization)
C/N=c1/cc(C(F)(F)F)nc(-c2ccccc2)[nH]1 (3D coordinates assigned)
C/N=c1/cc(C(F)(F)F)nc(-c2ccccc2)[nH]1 (optimized conformer: 32.48377722413525 kcal/mol)

>  <smiles>  (17) 
CN=c1cc(C(F)(F)F)[nH]c(-c2ccccc2)n1

>  <score_type>  (17) 
oracle

>  <origin>  (17) 
autodockgpu

>  <m_score__min__energy>  (17) 
-5.3399999999999999

>  <m_primary>  (17) 
energy

>  <meeko>  (17) 
{"free_energy": -5.33, "intermolecular_energy": -6.22, "internal_energy": -0.33, "cluster_size": 20, "cluster_id": 1, "rank_in_cluster": 13}

>  <energy>  (17) 
-5.32

>  <cluster_rmsd>  (17) 
0.07

>  <rmsd>  (17) 
273.03

>  <cluster>  (17) 
1

$$$$
IOQMMJGYZLYJFT-BMGZHQRRNA-N
     RDKit          3D

 28 29  0  0  0  0  0  0  0  0999 V2000
  143.1276   82.1787  223.8531 H   0  0  0  0  0  0  0  0  0  0  0  0
  142.5490   81.2740  223.6150 C   0  0  0  0  0  0  0  0  0  0  0  0
  143.1930   80.1510  223.0930 C   0  0  0  0  0  0  0  0  0  0  0  0
  144.2784   80.1740  222.9156 H   0  0  0  0  0  0  0  0  0  0  0  0
  142.4620   78.9970  222.7950 C   0  0  0  0  0  0  0  0  0  0  0  0
  142.9752   78.1176  222.3788 H   0  0  0  0  0  0  0  0  0  0  0  0
  141.0740   78.9530  223.0240 C   0  0  0  0  0  0  0  0  0  0  0  0
  140.2780   77.7410  222.7050 C   0  0  0  0  0  0  0  0  0  0  0  0
  138.9210   77.7980  222.7840 N   0  0  0  0  0  0  0  0  0  0  0  0
  138.1440   76.7200  222.5030 C   0  0  0  0  0  0  0  0  0  0  0  0
  136.6500   76.8250  222.5970 C   0  0  0  0  0  0  0  0  0  0  0  0
  136.0680   76.6050  221.3600 F   0  0  0  0  0  0  0  0  0  0  0  0
  136.2990   78.0870  223.0380 F   0  0  0  0  0  0  0  0  0  0  0  0
  136.1740   75.8820  223.4890 F   0  0  0  0  0  0  0  0  0  0  0  0
  138.7480   75.5210  222.1220 C   0  0  0  0  0  0  0  0  0  0  0  0
  138.1354   74.6397  221.8810 H   0  0  0  0  0  0  0  0  0  0  0  0
  140.1410   75.4560  222.0510 C   0  0  0  0  0  0  0  0  0  0  0  0
  140.6960   74.3290  221.7050 N   0  0  0  0  0  0  0  0  0  0  0  0
  140.1700   72.9960  221.9750 C   0  0  0  0  0  0  0  0  0  0  0  0
  140.1082   72.8395  223.0621 H   0  0  0  0  0  0  0  0  0  0  0  0
  139.1670   72.9012  221.5333 H   0  0  0  0  0  0  0  0  0  0  0  0
  140.8379   72.2418  221.5333 H   0  0  0  0  0  0  0  0  0  0  0  0
  140.8830   76.5680  222.3490 N   0  0  0  0  0  0  0  0  0  0  0  0
  141.9250   76.5210  222.3360 H   0  0  0  0  0  0  0  0  0  0  0  0
  140.4340   80.0980  223.5370 C   0  0  0  0  0  0  0  0  0  0  0  0
  139.3469   80.0867  223.7045 H   0  0  0  0  0  0  0  0  0  0  0  0
  141.1700   81.2490  223.8350 C   0  0  0  0  0  0  0  0  0  0  0  0
  140.6625   82.1355  224.2431 H   0  0  0  0  0  0  0  0  0  0  0  0
  1  2  1  0
  2  3  2  0
  3  4  1  0
  3  5  1  0
  5  6  1  0
  5  7  2  0
  7  8  1  0
  8  9  2  0
  9 10  1  0
 10 11  1  0
 11 12  1  0
 11 13  1  0
 11 14  1  0
 10 15  2  0
 15 16  1  0
 15 17  1  0
 17 18  2  0
 18 19  1  0
 19 20  1  0
 19 21  1  0
 19 22  1  0
 17 23  1  0
 23 24  1  0
  7 25  1  0
 25 26  1  0
 25 27  2  0
 27 28  1  0
 27  2  1  0
 23  8  1  0
M  END
>  <UniqueID>  (18) 
13

>  <SMILES>  (18) 
C/N=c1/cc(C(F)(F)F)nc(-c2ccccc2)[nH]1

>  <Energy>  (18) 
32.48377722413525

>  <Genealogy>  (18) 
CN=c1cc(C(F)(F)F)nc(-c2ccccc2)[nH]1 (tautomer)
C/N=c1/cc(C(F)(F)F)nc(-c2ccccc2)[nH]1 (cis-trans isomerization)
C/N=c1/cc(C(F)(F)F)nc(-c2ccccc2)[nH]1 (3D coordinates assigned)
C/N=c1/cc(C(F)(F)F)nc(-c2ccccc2)[nH]1 (optimized conformer: 32.48377722413525 kcal/mol)

>  <smiles>  (18) 
CN=c1cc(C(F)(F)F)[nH]c(-c2ccccc2)n1

>  <score_type>  (18) 
oracle

>  <origin>  (18) 
autodockgpu

>  <m_score__min__energy>  (18) 
-5.3399999999999999

>  <m_primary>  (18) 
energy

>  <meeko>  (18) 
{"free_energy": -5.33, "intermolecular_energy": -6.22, "internal_energy": -0.33, "cluster_size": 20, "cluster_id": 1, "rank_in_cluster": 8}

>  <energy>  (18) 
-5.31

>  <cluster_rmsd>  (18) 
0.55

>  <rmsd>  (18) 
272.98

>  <cluster>  (18) 
1

$$$$
IOQMMJGYZLYJFT-BMGZHQRRNA-N
     RDKit          3D

 28 29  0  0  0  0  0  0  0  0999 V2000
  143.1357   82.1745  223.8375 H   0  0  0  0  0  0  0  0  0  0  0  0
  142.5460   81.2740  223.6110 C   0  0  0  0  0  0  0  0  0  0  0  0
  141.1700   81.2640  223.8430 C   0  0  0  0  0  0  0  0  0  0  0  0
  140.6776   82.1556  224.2585 H   0  0  0  0  0  0  0  0  0  0  0  0
  140.4150   80.1240  223.5490 C   0  0  0  0  0  0  0  0  0  0  0  0
  139.3313   80.1221  223.7377 H   0  0  0  0  0  0  0  0  0  0  0  0
  141.0340   78.9790  223.0130 C   0  0  0  0  0  0  0  0  0  0  0  0
  140.2520   77.7550  222.7030 C   0  0  0  0  0  0  0  0  0  0  0  0
  138.8970   77.7880  222.8130 N   0  0  0  0  0  0  0  0  0  0  0  0
  138.1320   76.7000  222.5410 C   0  0  0  0  0  0  0  0  0  0  0  0
  136.6390   76.7770  222.6700 C   0  0  0  0  0  0  0  0  0  0  0  0
  136.0270   76.3540  221.5030 F   0  0  0  0  0  0  0  0  0  0  0  0
  136.2610   78.0830  222.9240 F   0  0  0  0  0  0  0  0  0  0  0  0
  136.2200   75.9710  223.7120 F   0  0  0  0  0  0  0  0  0  0  0  0
  138.7480   75.5140  222.1360 C   0  0  0  0  0  0  0  0  0  0  0  0
  138.1451   74.6244  221.9014 H   0  0  0  0  0  0  0  0  0  0  0  0
  140.1400   75.4730  222.0330 C   0  0  0  0  0  0  0  0  0  0  0  0
  140.7060   74.3590  221.6660 N   0  0  0  0  0  0  0  0  0  0  0  0
  141.8790   74.2350  220.8080 C   0  0  0  0  0  0  0  0  0  0  0  0
  142.7805   74.1397  221.4310 H   0  0  0  0  0  0  0  0  0  0  0  0
  141.7761   73.3427  220.1730 H   0  0  0  0  0  0  0  0  0  0  0  0
  141.9650   75.1291  220.1730 H   0  0  0  0  0  0  0  0  0  0  0  0
  140.8690   76.5950  222.3230 N   0  0  0  0  0  0  0  0  0  0  0  0
  141.9110   76.5670  222.2860 H   0  0  0  0  0  0  0  0  0  0  0  0
  142.4250   78.9960  222.7970 C   0  0  0  0  0  0  0  0  0  0  0  0
  142.9262   78.1035  222.3943 H   0  0  0  0  0  0  0  0  0  0  0  0
  143.1740   80.1400  223.0910 C   0  0  0  0  0  0  0  0  0  0  0  0
  144.2594   80.1466  222.9124 H   0  0  0  0  0  0  0  0  0  0  0  0
  1  2  1  0
  2  3  2  0
  3  4  1  0
  3  5  1  0
  5  6  1  0
  5  7  2  0
  7  8  1  0
  8  9  2  0
  9 10  1  0
 10 11  1  0
 11 12  1  0
 11 13  1  0
 11 14  1  0
 10 15  2  0
 15 16  1  0
 15 17  1  0
 17 18  2  0
 18 19  1  0
 19 20  1  0
 19 21  1  0
 19 22  1  0
 17 23  1  0
 23 24  1  0
  7 25  1  0
 25 26  1  0
 25 27  2  0
 27 28  1  0
 27  2  1  0
 23  8  1  0
M  END
>  <UniqueID>  (19) 
13

>  <SMILES>  (19) 
C/N=c1/cc(C(F)(F)F)nc(-c2ccccc2)[nH]1

>  <Energy>  (19) 
32.48377722413525

>  <Genealogy>  (19) 
CN=c1cc(C(F)(F)F)nc(-c2ccccc2)[nH]1 (tautomer)
C/N=c1/cc(C(F)(F)F)nc(-c2ccccc2)[nH]1 (cis-trans isomerization)
C/N=c1/cc(C(F)(F)F)nc(-c2ccccc2)[nH]1 (3D coordinates assigned)
C/N=c1/cc(C(F)(F)F)nc(-c2ccccc2)[nH]1 (optimized conformer: 32.48377722413525 kcal/mol)

>  <smiles>  (19) 
CN=c1cc(C(F)(F)F)[nH]c(-c2ccccc2)n1

>  <score_type>  (19) 
oracle

>  <origin>  (19) 
autodockgpu

>  <m_score__min__energy>  (19) 
-5.3399999999999999

>  <m_primary>  (19) 
energy

>  <meeko>  (19) 
{"free_energy": -5.32, "intermolecular_energy": -6.22, "internal_energy": -0.32, "cluster_size": 20, "cluster_id": 1, "rank_in_cluster": 15}

>  <energy>  (19) 
-5.31

>  <cluster_rmsd>  (19) 
0.56

>  <rmsd>  (19) 
272.96

>  <cluster>  (19) 
1

$$$$
IOQMMJGYZLYJFT-BMGZHQRRNA-N
     RDKit          3D

 28 29  0  0  0  0  0  0  0  0999 V2000
  143.1021   82.1869  223.8481 H   0  0  0  0  0  0  0  0  0  0  0  0
  142.5270   81.2800  223.6100 C   0  0  0  0  0  0  0  0  0  0  0  0
  143.1750   80.1600  223.0860 C   0  0  0  0  0  0  0  0  0  0  0  0
  144.2599   80.1881  222.9063 H   0  0  0  0  0  0  0  0  0  0  0  0
  142.4490   79.0030  222.7890 C   0  0  0  0  0  0  0  0  0  0  0  0
  142.9655   78.1258  222.3721 H   0  0  0  0  0  0  0  0  0  0  0  0
  141.0610   78.9530  223.0200 C   0  0  0  0  0  0  0  0  0  0  0  0
  140.2700   77.7370  222.7020 C   0  0  0  0  0  0  0  0  0  0  0  0
  138.9120   77.7920  222.7750 N   0  0  0  0  0  0  0  0  0  0  0  0
  138.1390   76.7110  222.4940 C   0  0  0  0  0  0  0  0  0  0  0  0
  136.6450   76.8120  222.5800 C   0  0  0  0  0  0  0  0  0  0  0  0
  136.0720   76.6400  221.3310 F   0  0  0  0  0  0  0  0  0  0  0  0
  136.2900   78.0560  223.0660 F   0  0  0  0  0  0  0  0  0  0  0  0
  136.1620   75.8350  223.4320 F   0  0  0  0  0  0  0  0  0  0  0  0
  138.7480   75.5110  222.1200 C   0  0  0  0  0  0  0  0  0  0  0  0
  138.1389   74.6272  221.8794 H   0  0  0  0  0  0  0  0  0  0  0  0
  140.1420   75.4500  222.0560 C   0  0  0  0  0  0  0  0  0  0  0  0
  140.7020   74.3230  221.7170 N   0  0  0  0  0  0  0  0  0  0  0  0
  140.1740   72.9900  221.9830 C   0  0  0  0  0  0  0  0  0  0  0  0
  140.1109   72.8307  223.0696 H   0  0  0  0  0  0  0  0  0  0  0  0
  139.1714   72.8976  221.5400 H   0  0  0  0  0  0  0  0  0  0  0  0
  140.8414   72.2361  221.5400 H   0  0  0  0  0  0  0  0  0  0  0  0
  140.8800   76.5650  222.3530 N   0  0  0  0  0  0  0  0  0  0  0  0
  141.9220   76.5210  222.3450 H   0  0  0  0  0  0  0  0  0  0  0  0
  140.4170   80.0950  223.5350 C   0  0  0  0  0  0  0  0  0  0  0  0
  139.3303   80.0786  223.7048 H   0  0  0  0  0  0  0  0  0  0  0  0
  141.1480   81.2490  223.8320 C   0  0  0  0  0  0  0  0  0  0  0  0
  140.6371   82.1332  224.2408 H   0  0  0  0  0  0  0  0  0  0  0  0
  1  2  1  0
  2  3  2  0
  3  4  1  0
  3  5  1  0
  5  6  1  0
  5  7  2  0
  7  8  1  0
  8  9  2  0
  9 10  1  0
 10 11  1  0
 11 12  1  0
 11 13  1  0
 11 14  1  0
 10 15  2  0
 15 16  1  0
 15 17  1  0
 17 18  2  0
 18 19  1  0
 19 20  1  0
 19 21  1  0
 19 22  1  0
 17 23  1  0
 23 24  1  0
  7 25  1  0
 25 26  1  0
 25 27  2  0
 27 28  1  0
 27  2  1  0
 23  8  1  0
M  END
>  <UniqueID>  (20) 
13

>  <SMILES>  (20) 
C/N=c1/cc(C(F)(F)F)nc(-c2ccccc2)[nH]1

>  <Energy>  (20) 
32.48377722413525

>  <Genealogy>  (20) 
CN=c1cc(C(F)(F)F)nc(-c2ccccc2)[nH]1 (tautomer)
C/N=c1/cc(C(F)(F)F)nc(-c2ccccc2)[nH]1 (cis-trans isomerization)
C/N=c1/cc(C(F)(F)F)nc(-c2ccccc2)[nH]1 (3D coordinates assigned)
C/N=c1/cc(C(F)(F)F)nc(-c2ccccc2)[nH]1 (optimized conformer: 32.48377722413525 kcal/mol)

>  <smiles>  (20) 
CN=c1cc(C(F)(F)F)[nH]c(-c2ccccc2)n1

>  <score_type>  (20) 
oracle

>  <origin>  (20) 
autodockgpu

>  <m_score__min__energy>  (20) 
-5.3399999999999999

>  <m_primary>  (20) 
energy

>  <meeko>  (20) 
{"free_energy": -5.33, "intermolecular_energy": -6.22, "internal_energy": -0.33, "cluster_size": 20, "cluster_id": 1, "rank_in_cluster": 14}

>  <energy>  (20) 
-5.31

>  <cluster_rmsd>  (20) 
0.57

>  <rmsd>  (20) 
272.95

>  <cluster>  (20) 
1

$$$$
IOQMMJGYZLYJFT-WYUMXYHSNA-N
     RDKit          3D

 28 29  0  0  0  0  0  0  0  0999 V2000
  140.5330   74.1270  221.2980 C   0  0  0  0  0  0  0  0  0  0  0  0
  139.6130   73.6240  222.3120 N   0  0  0  0  0  0  0  0  0  0  0  0
  139.5950   72.2440  222.7000 C   0  0  0  0  0  0  0  0  0  0  0  0
  139.2130   71.2610  221.7850 C   0  0  0  0  0  0  0  0  0  0  0  0
  139.2060   69.9230  222.1980 C   0  0  0  0  0  0  0  0  0  0  0  0
  138.8020   68.8360  221.2470 C   0  0  0  0  0  0  0  0  0  0  0  0
  139.8570   68.5380  220.4050 F   0  0  0  0  0  0  0  0  0  0  0  0
  138.4550   67.7010  221.9600 F   0  0  0  0  0  0  0  0  0  0  0  0
  137.7180   69.2340  220.4850 F   0  0  0  0  0  0  0  0  0  0  0  0
  139.5690   69.6160  223.4720 N   0  0  0  0  0  0  0  0  0  0  0  0
  139.9400   70.5800  224.3590 C   0  0  0  0  0  0  0  0  0  0  0  0
  140.3320   70.2150  225.7430 C   0  0  0  0  0  0  0  0  0  0  0  0
  140.7020   71.2100  226.6690 C   0  0  0  0  0  0  0  0  0  0  0  0
  141.0710   70.8630  227.9730 C   0  0  0  0  0  0  0  0  0  0  0  0
  141.0740   69.5230  228.3680 C   0  0  0  0  0  0  0  0  0  0  0  0
  140.7090   68.5280  227.4600 C   0  0  0  0  0  0  0  0  0  0  0  0
  140.3390   68.8680  226.1550 C   0  0  0  0  0  0  0  0  0  0  0  0
  139.9490   71.8820  223.9630 N   0  0  0  0  0  0  0  0  0  0  0  0
  141.3969   74.5993  221.7886 H   0  0  0  0  0  0  0  0  0  0  0  0
  140.8788   73.2925  220.6704 H   0  0  0  0  0  0  0  0  0  0  0  0
  140.0171   74.8686  220.6704 H   0  0  0  0  0  0  0  0  0  0  0  0
  138.9510   74.2970  222.7620 H   0  0  0  0  0  0  0  0  0  0  0  0
  138.9231   71.5324  220.7592 H   0  0  0  0  0  0  0  0  0  0  0  0
  140.7007   72.2671  226.3647 H   0  0  0  0  0  0  0  0  0  0  0  0
  141.3594   71.6469  228.6888 H   0  0  0  0  0  0  0  0  0  0  0  0
  141.3639   69.2523  229.3940 H   0  0  0  0  0  0  0  0  0  0  0  0
  140.7124   67.4731  227.7718 H   0  0  0  0  0  0  0  0  0  0  0  0
  140.0515   68.0782  225.4454 H   0  0  0  0  0  0  0  0  0  0  0  0
  1  2  1  0
  2  3  1  0
  3  4  2  0
  4  5  1  0
  5  6  1  0
  6  7  1  0
  6  8  1  0
  6  9  1  0
  5 10  2  0
 10 11  1  0
 11 12  1  0
 12 13  2  0
 13 14  1  0
 14 15  2  0
 15 16  1  0
 16 17  2  0
 11 18  2  0
 18  3  1  0
 17 12  1  0
  1 19  1  0
  1 20  1  0
  1 21  1  0
  2 22  1  0
  4 23  1  0
 13 24  1  0
 14 25  1  0
 15 26  1  0
 16 27  1  0
 17 28  1  0
M  END
>  <UniqueID>  (21) 
14

>  <SMILES>  (21) 
CNc1cc(C(F)(F)F)nc(-c2ccccc2)n1

>  <Energy>  (21) 
26.9045707668376

>  <Genealogy>  (21) 
CNc1cc(C(F)(F)F)nc(-c2ccccc2)n1 (tautomer)
CNc1cc(C(F)(F)F)nc(-c2ccccc2)n1 (3D coordinates assigned)
CNc1cc(C(F)(F)F)nc(-c2ccccc2)n1 (optimized conformer: 26.9045707668376 kcal/mol)

>  <smiles>  (21) 
CN=c1cc(C(F)(F)F)[nH]c(-c2ccccc2)n1

>  <score_type>  (21) 
oracle

>  <origin>  (21) 
autodockgpu

>  <m_score__min__energy>  (21) 
-5.0999999999999996

>  <m_primary>  (21) 
energy

>  <meeko>  (21) 
{"free_energy": -5.1, "intermolecular_energy": -6.0, "internal_energy": -0.33, "cluster_size": 11, "cluster_id": 1, "rank_in_cluster": 1}

>  <energy>  (21) 
-5.1

>  <cluster_rmsd>  (21) 
0.0

>  <rmsd>  (21) 
272.22

>  <cluster>  (21) 
1

$$$$
IOQMMJGYZLYJFT-WYUMXYHSNA-N
     RDKit          3D

 28 29  0  0  0  0  0  0  0  0999 V2000
  140.6940   73.6840  221.3900 C   0  0  0  0  0  0  0  0  0  0  0  0
  139.6850   73.2450  222.3470 N   0  0  0  0  0  0  0  0  0  0  0  0
  139.5960   71.8810  222.7810 C   0  0  0  0  0  0  0  0  0  0  0  0
  139.1250   70.8950  221.9100 C   0  0  0  0  0  0  0  0  0  0  0  0
  139.0510   69.5740  222.3670 C   0  0  0  0  0  0  0  0  0  0  0  0
  138.5500   68.4840  221.4660 C   0  0  0  0  0  0  0  0  0  0  0  0
  139.5280   68.1570  220.5440 F   0  0  0  0  0  0  0  0  0  0  0  0
  138.2410   67.3640  222.2190 F   0  0  0  0  0  0  0  0  0  0  0  0
  137.4150   68.8960  220.7890 F   0  0  0  0  0  0  0  0  0  0  0  0
  139.4370   69.2850  223.6390 N   0  0  0  0  0  0  0  0  0  0  0  0
  139.8960   70.2500  224.4810 C   0  0  0  0  0  0  0  0  0  0  0  0
  140.3110   69.9050  225.8630 C   0  0  0  0  0  0  0  0  0  0  0  0
  140.3410   68.5620  226.2890 C   0  0  0  0  0  0  0  0  0  0  0  0
  140.7320   68.2390  227.5920 C   0  0  0  0  0  0  0  0  0  0  0  0
  141.0990   69.2490  228.4840 C   0  0  0  0  0  0  0  0  0  0  0  0
  141.0750   70.5840  228.0750 C   0  0  0  0  0  0  0  0  0  0  0  0
  140.6840   70.9130  226.7740 C   0  0  0  0  0  0  0  0  0  0  0  0
  139.9700   71.5360  224.0420 N   0  0  0  0  0  0  0  0  0  0  0  0
  141.5718   74.0659  221.9319 H   0  0  0  0  0  0  0  0  0  0  0  0
  140.9940   72.8350  220.7581 H   0  0  0  0  0  0  0  0  0  0  0  0
  140.2773   74.4822  220.7581 H   0  0  0  0  0  0  0  0  0  0  0  0
  139.0100   73.9500  222.7210 H   0  0  0  0  0  0  0  0  0  0  0  0
  138.8184   71.1519  220.8853 H   0  0  0  0  0  0  0  0  0  0  0  0
  140.0546   67.7616  225.5910 H   0  0  0  0  0  0  0  0  0  0  0  0
  140.7506   67.1877  227.9150 H   0  0  0  0  0  0  0  0  0  0  0  0
  141.4069   68.9930  229.5085 H   0  0  0  0  0  0  0  0  0  0  0  0
  141.3645   71.3786  228.7784 H   0  0  0  0  0  0  0  0  0  0  0  0
  140.6674   71.9668  226.4590 H   0  0  0  0  0  0  0  0  0  0  0  0
  1  2  1  0
  2  3  1  0
  3  4  2  0
  4  5  1  0
  5  6  1  0
  6  7  1  0
  6  8  1  0
  6  9  1  0
  5 10  2  0
 10 11  1  0
 11 12  1  0
 12 13  2  0
 13 14  1  0
 14 15  2  0
 15 16  1  0
 16 17  2  0
 11 18  2  0
 18  3  1  0
 17 12  1  0
  1 19  1  0
  1 20  1  0
  1 21  1  0
  2 22  1  0
  4 23  1  0
 13 24  1  0
 14 25  1  0
 15 26  1  0
 16 27  1  0
 17 28  1  0
M  END
>  <UniqueID>  (22) 
14

>  <SMILES>  (22) 
CNc1cc(C(F)(F)F)nc(-c2ccccc2)n1

>  <Energy>  (22) 
26.9045707668376

>  <Genealogy>  (22) 
CNc1cc(C(F)(F)F)nc(-c2ccccc2)n1 (tautomer)
CNc1cc(C(F)(F)F)nc(-c2ccccc2)n1 (3D coordinates assigned)
CNc1cc(C(F)(F)F)nc(-c2ccccc2)n1 (optimized conformer: 26.9045707668376 kcal/mol)

>  <smiles>  (22) 
CN=c1cc(C(F)(F)F)[nH]c(-c2ccccc2)n1

>  <score_type>  (22) 
oracle

>  <origin>  (22) 
autodockgpu

>  <m_score__min__energy>  (22) 
-5.0999999999999996

>  <m_primary>  (22) 
energy

>  <meeko>  (22) 
{"free_energy": -5.07, "intermolecular_energy": -5.96, "internal_energy": -0.33, "cluster_size": 11, "cluster_id": 1, "rank_in_cluster": 11}

>  <energy>  (22) 
-5.1

>  <cluster_rmsd>  (22) 
0.06

>  <rmsd>  (22) 
272.2

>  <cluster>  (22) 
1

$$$$
IOQMMJGYZLYJFT-WYUMXYHSNA-N
     RDKit          3D

 28 29  0  0  0  0  0  0  0  0999 V2000
  140.5930   74.0840  221.3410 C   0  0  0  0  0  0  0  0  0  0  0  0
  139.6270   73.5750  222.3070 N   0  0  0  0  0  0  0  0  0  0  0  0
  139.5990   72.1950  222.6950 C   0  0  0  0  0  0  0  0  0  0  0  0
  139.2110   71.2140  221.7790 C   0  0  0  0  0  0  0  0  0  0  0  0
  139.1950   69.8770  222.1910 C   0  0  0  0  0  0  0  0  0  0  0  0
  138.7830   68.7920  221.2400 C   0  0  0  0  0  0  0  0  0  0  0  0
  139.8270   68.5080  220.3790 F   0  0  0  0  0  0  0  0  0  0  0  0
  138.4560   67.6510  221.9510 F   0  0  0  0  0  0  0  0  0  0  0  0
  137.6840   69.1880  220.4980 F   0  0  0  0  0  0  0  0  0  0  0  0
  139.5560   69.5670  223.4650 N   0  0  0  0  0  0  0  0  0  0  0  0
  139.9350   70.5270  224.3520 C   0  0  0  0  0  0  0  0  0  0  0  0
  140.3240   70.1590  225.7360 C   0  0  0  0  0  0  0  0  0  0  0  0
  140.6940   71.1510  226.6650 C   0  0  0  0  0  0  0  0  0  0  0  0
  141.0600   70.8020  227.9690 C   0  0  0  0  0  0  0  0  0  0  0  0
  141.0630   69.4610  228.3600 C   0  0  0  0  0  0  0  0  0  0  0  0
  140.6990   68.4680  227.4500 C   0  0  0  0  0  0  0  0  0  0  0  0
  140.3310   68.8110  226.1450 C   0  0  0  0  0  0  0  0  0  0  0  0
  139.9520   71.8290  223.9570 N   0  0  0  0  0  0  0  0  0  0  0  0
  141.4439   74.5324  221.8748 H   0  0  0  0  0  0  0  0  0  0  0  0
  140.9507   73.2573  220.7097 H   0  0  0  0  0  0  0  0  0  0  0  0
  140.1133   74.8464  220.7097 H   0  0  0  0  0  0  0  0  0  0  0  0
  138.9380   74.2420  222.7230 H   0  0  0  0  0  0  0  0  0  0  0  0
  138.9235   71.4877  220.7531 H   0  0  0  0  0  0  0  0  0  0  0  0
  140.6951   72.2086  226.3625 H   0  0  0  0  0  0  0  0  0  0  0  0
  141.3458   71.5844  228.6874 H   0  0  0  0  0  0  0  0  0  0  0  0
  141.3524   69.1878  229.3855 H   0  0  0  0  0  0  0  0  0  0  0  0
  140.7015   67.4125  227.7598 H   0  0  0  0  0  0  0  0  0  0  0  0
  140.0450   68.0227  225.4331 H   0  0  0  0  0  0  0  0  0  0  0  0
  1  2  1  0
  2  3  1  0
  3  4  2  0
  4  5  1  0
  5  6  1  0
  6  7  1  0
  6  8  1  0
  6  9  1  0
  5 10  2  0
 10 11  1  0
 11 12  1  0
 12 13  2  0
 13 14  1  0
 14 15  2  0
 15 16  1  0
 16 17  2  0
 11 18  2  0
 18  3  1  0
 17 12  1  0
  1 19  1  0
  1 20  1  0
  1 21  1  0
  2 22  1  0
  4 23  1  0
 13 24  1  0
 14 25  1  0
 15 26  1  0
 16 27  1  0
 17 28  1  0
M  END
>  <UniqueID>  (23) 
14

>  <SMILES>  (23) 
CNc1cc(C(F)(F)F)nc(-c2ccccc2)n1

>  <Energy>  (23) 
26.9045707668376

>  <Genealogy>  (23) 
CNc1cc(C(F)(F)F)nc(-c2ccccc2)n1 (tautomer)
CNc1cc(C(F)(F)F)nc(-c2ccccc2)n1 (3D coordinates assigned)
CNc1cc(C(F)(F)F)nc(-c2ccccc2)n1 (optimized conformer: 26.9045707668376 kcal/mol)

>  <smiles>  (23) 
CN=c1cc(C(F)(F)F)[nH]c(-c2ccccc2)n1

>  <score_type>  (23) 
oracle

>  <origin>  (23) 
autodockgpu

>  <m_score__min__energy>  (23) 
-5.0999999999999996

>  <m_primary>  (23) 
energy

>  <meeko>  (23) 
{"free_energy": -5.1, "intermolecular_energy": -6.0, "internal_energy": -0.33, "cluster_size": 11, "cluster_id": 1, "rank_in_cluster": 2}

>  <energy>  (23) 
-5.1

>  <cluster_rmsd>  (23) 
0.02

>  <rmsd>  (23) 
272.22

>  <cluster>  (23) 
1

$$$$
IOQMMJGYZLYJFT-WYUMXYHSNA-N
     RDKit          3D

 28 29  0  0  0  0  0  0  0  0999 V2000
  140.5090   74.1220  221.2810 C   0  0  0  0  0  0  0  0  0  0  0  0
  139.6030   73.6200  222.3080 N   0  0  0  0  0  0  0  0  0  0  0  0
  139.5900   72.2400  222.6960 C   0  0  0  0  0  0  0  0  0  0  0  0
  139.2200   71.2540  221.7780 C   0  0  0  0  0  0  0  0  0  0  0  0
  139.2180   69.9170  222.1910 C   0  0  0  0  0  0  0  0  0  0  0  0
  138.8270   68.8270  221.2380 C   0  0  0  0  0  0  0  0  0  0  0  0
  139.8890   68.5370  220.4020 F   0  0  0  0  0  0  0  0  0  0  0  0
  138.4840   67.6890  221.9480 F   0  0  0  0  0  0  0  0  0  0  0  0
  137.7440   69.2180  220.4700 F   0  0  0  0  0  0  0  0  0  0  0  0
  139.5730   69.6120  223.4690 N   0  0  0  0  0  0  0  0  0  0  0  0
  139.9330   70.5780  224.3580 C   0  0  0  0  0  0  0  0  0  0  0  0
  140.3160   70.2160  225.7440 C   0  0  0  0  0  0  0  0  0  0  0  0
  140.3010   68.8710  226.1650 C   0  0  0  0  0  0  0  0  0  0  0  0
  140.6630   68.5320  227.4720 C   0  0  0  0  0  0  0  0  0  0  0  0
  141.0440   69.5280  228.3750 C   0  0  0  0  0  0  0  0  0  0  0  0
  141.0640   70.8640  227.9710 C   0  0  0  0  0  0  0  0  0  0  0  0
  140.7040   71.2090  226.6650 C   0  0  0  0  0  0  0  0  0  0  0  0
  139.9370   71.8800  223.9610 N   0  0  0  0  0  0  0  0  0  0  0  0
  141.3755   74.6021  221.7593 H   0  0  0  0  0  0  0  0  0  0  0  0
  140.8527   73.2856  220.6546 H   0  0  0  0  0  0  0  0  0  0  0  0
  139.9821   74.8569  220.6546 H   0  0  0  0  0  0  0  0  0  0  0  0
  138.9470   74.2930  222.7670 H   0  0  0  0  0  0  0  0  0  0  0  0
  138.9357   71.5235  220.7501 H   0  0  0  0  0  0  0  0  0  0  0  0
  140.0021   68.0818  225.4595 H   0  0  0  0  0  0  0  0  0  0  0  0
  140.6479   67.4791  227.7902 H   0  0  0  0  0  0  0  0  0  0  0  0
  141.3279   69.2595  229.4033 H   0  0  0  0  0  0  0  0  0  0  0  0
  141.3639   71.6476  228.6823 H   0  0  0  0  0  0  0  0  0  0  0  0
  140.7238   72.2639  226.3540 H   0  0  0  0  0  0  0  0  0  0  0  0
  1  2  1  0
  2  3  1  0
  3  4  2  0
  4  5  1  0
  5  6  1  0
  6  7  1  0
  6  8  1  0
  6  9  1  0
  5 10  2  0
 10 11  1  0
 11 12  1  0
 12 13  2  0
 13 14  1  0
 14 15  2  0
 15 16  1  0
 16 17  2  0
 11 18  2  0
 18  3  1  0
 17 12  1  0
  1 19  1  0
  1 20  1  0
  1 21  1  0
  2 22  1  0
  4 23  1  0
 13 24  1  0
 14 25  1  0
 15 26  1  0
 16 27  1  0
 17 28  1  0
M  END
>  <UniqueID>  (24) 
14

>  <SMILES>  (24) 
CNc1cc(C(F)(F)F)nc(-c2ccccc2)n1

>  <Energy>  (24) 
26.9045707668376

>  <Genealogy>  (24) 
CNc1cc(C(F)(F)F)nc(-c2ccccc2)n1 (tautomer)
CNc1cc(C(F)(F)F)nc(-c2ccccc2)n1 (3D coordinates assigned)
CNc1cc(C(F)(F)F)nc(-c2ccccc2)n1 (optimized conformer: 26.9045707668376 kcal/mol)

>  <smiles>  (24) 
CN=c1cc(C(F)(F)F)[nH]c(-c2ccccc2)n1

>  <score_type>  (24) 
oracle

>  <origin>  (24) 
autodockgpu

>  <m_score__min__energy>  (24) 
-5.0999999999999996

>  <m_primary>  (24) 
energy

>  <meeko>  (24) 
{"free_energy": -5.09, "intermolecular_energy": -5.99, "internal_energy": -0.33, "cluster_size": 11, "cluster_id": 1, "rank_in_cluster": 9}

>  <energy>  (24) 
-5.1

>  <cluster_rmsd>  (24) 
0.03

>  <rmsd>  (24) 
272.21

>  <cluster>  (24) 
1

$$$$
IOQMMJGYZLYJFT-WYUMXYHSNA-N
     RDKit          3D

 28 29  0  0  0  0  0  0  0  0999 V2000
  139.5810   73.4630  221.8220 C   0  0  0  0  0  0  0  0  0  0  0  0
  139.5690   74.8340  222.3190 N   0  0  0  0  0  0  0  0  0  0  0  0
  140.4250   75.8450  221.7700 C   0  0  0  0  0  0  0  0  0  0  0  0
  141.0490   75.6450  220.5360 C   0  0  0  0  0  0  0  0  0  0  0  0
  141.8790   76.6530  220.0310 C   0  0  0  0  0  0  0  0  0  0  0  0
  142.5680   76.4790  218.7100 C   0  0  0  0  0  0  0  0  0  0  0  0
  143.6950   75.6950  218.8740 F   0  0  0  0  0  0  0  0  0  0  0  0
  141.7100   75.8620  217.8160 F   0  0  0  0  0  0  0  0  0  0  0  0
  142.9460   77.7060  218.1940 F   0  0  0  0  0  0  0  0  0  0  0  0
  142.0560   77.7940  220.7500 N   0  0  0  0  0  0  0  0  0  0  0  0
  141.4450   77.9820  221.9510 C   0  0  0  0  0  0  0  0  0  0  0  0
  141.6570   79.2380  222.7120 C   0  0  0  0  0  0  0  0  0  0  0  0
  140.5640   80.0480  223.0780 C   0  0  0  0  0  0  0  0  0  0  0  0
  140.7660   81.2310  223.7960 C   0  0  0  0  0  0  0  0  0  0  0  0
  142.0590   81.6200  224.1560 C   0  0  0  0  0  0  0  0  0  0  0  0
  143.1510   80.8260  223.8000 C   0  0  0  0  0  0  0  0  0  0  0  0
  142.9550   79.6420  223.0830 C   0  0  0  0  0  0  0  0  0  0  0  0
  140.6370   77.0060  222.4470 N   0  0  0  0  0  0  0  0  0  0  0  0
  139.5871   72.7649  222.6721 H   0  0  0  0  0  0  0  0  0  0  0  0
  138.6844   73.2871  221.2095 H   0  0  0  0  0  0  0  0  0  0  0  0
  140.4806   73.3029  221.2095 H   0  0  0  0  0  0  0  0  0  0  0  0
  138.9150   75.0770  223.0970 H   0  0  0  0  0  0  0  0  0  0  0  0
  140.8912   74.7137  219.9723 H   0  0  0  0  0  0  0  0  0  0  0  0
  139.5438   79.7476  222.7969 H   0  0  0  0  0  0  0  0  0  0  0  0
  139.9059   81.8562  224.0778 H   0  0  0  0  0  0  0  0  0  0  0  0
  142.2165   82.5514  224.7196 H   0  0  0  0  0  0  0  0  0  0  0  0
  144.1683   81.1329  224.0845 H   0  0  0  0  0  0  0  0  0  0  0  0
  143.8201   79.0214  222.8065 H   0  0  0  0  0  0  0  0  0  0  0  0
  1  2  1  0
  2  3  1  0
  3  4  2  0
  4  5  1  0
  5  6  1  0
  6  7  1  0
  6  8  1  0
  6  9  1  0
  5 10  2  0
 10 11  1  0
 11 12  1  0
 12 13  2  0
 13 14  1  0
 14 15  2  0
 15 16  1  0
 16 17  2  0
 11 18  2  0
 18  3  1  0
 17 12  1  0
  1 19  1  0
  1 20  1  0
  1 21  1  0
  2 22  1  0
  4 23  1  0
 13 24  1  0
 14 25  1  0
 15 26  1  0
 16 27  1  0
 17 28  1  0
M  END
>  <UniqueID>  (25) 
14

>  <SMILES>  (25) 
CNc1cc(C(F)(F)F)nc(-c2ccccc2)n1

>  <Energy>  (25) 
26.9045707668376

>  <Genealogy>  (25) 
CNc1cc(C(F)(F)F)nc(-c2ccccc2)n1 (tautomer)
CNc1cc(C(F)(F)F)nc(-c2ccccc2)n1 (3D coordinates assigned)
CNc1cc(C(F)(F)F)nc(-c2ccccc2)n1 (optimized conformer: 26.9045707668376 kcal/mol)

>  <smiles>  (25) 
CN=c1cc(C(F)(F)F)[nH]c(-c2ccccc2)n1

>  <score_type>  (25) 
oracle

>  <origin>  (25) 
autodockgpu

>  <m_score__min__energy>  (25) 
-5.0999999999999996

>  <m_primary>  (25) 
energy

>  <meeko>  (25) 
{"free_energy": -4.84, "intermolecular_energy": -5.74, "internal_energy": -0.32, "cluster_size": 9, "cluster_id": 2, "rank_in_cluster": 1}

>  <energy>  (25) 
-5.1

>  <cluster_rmsd>  (25) 
0.03

>  <rmsd>  (25) 
272.21

>  <cluster>  (25) 
1

$$$$
IOQMMJGYZLYJFT-WYUMXYHSNA-N
     RDKit          3D

 28 29  0  0  0  0  0  0  0  0999 V2000
  140.5610   74.1180  221.2830 C   0  0  0  0  0  0  0  0  0  0  0  0
  139.6380   73.6220  222.2980 N   0  0  0  0  0  0  0  0  0  0  0  0
  139.6120   72.2420  222.6880 C   0  0  0  0  0  0  0  0  0  0  0  0
  139.2250   71.2600  221.7740 C   0  0  0  0  0  0  0  0  0  0  0  0
  139.2100   69.9230  222.1880 C   0  0  0  0  0  0  0  0  0  0  0  0
  138.8000   68.8360  221.2390 C   0  0  0  0  0  0  0  0  0  0  0  0
  139.8520   68.5340  220.3950 F   0  0  0  0  0  0  0  0  0  0  0  0
  138.4500   67.7040  221.9530 F   0  0  0  0  0  0  0  0  0  0  0  0
  137.7160   69.2390  220.4780 F   0  0  0  0  0  0  0  0  0  0  0  0
  139.5720   69.6160  223.4630 N   0  0  0  0  0  0  0  0  0  0  0  0
  139.9490   70.5780  224.3480 C   0  0  0  0  0  0  0  0  0  0  0  0
  140.3390   70.2130  225.7330 C   0  0  0  0  0  0  0  0  0  0  0  0
  140.3570   68.8640  226.1410 C   0  0  0  0  0  0  0  0  0  0  0  0
  140.7250   68.5220  227.4450 C   0  0  0  0  0  0  0  0  0  0  0  0
  141.0790   69.5190  228.3580 C   0  0  0  0  0  0  0  0  0  0  0  0
  141.0660   70.8590  227.9670 C   0  0  0  0  0  0  0  0  0  0  0  0
  140.7000   71.2070  226.6630 C   0  0  0  0  0  0  0  0  0  0  0  0
  139.9650   71.8790  223.9510 N   0  0  0  0  0  0  0  0  0  0  0  0
  141.4286   74.5842  221.7728 H   0  0  0  0  0  0  0  0  0  0  0  0
  140.9003   73.2807  220.6554 H   0  0  0  0  0  0  0  0  0  0  0  0
  140.0501   74.8630  220.6554 H   0  0  0  0  0  0  0  0  0  0  0  0
  138.9800   74.2980  222.7480 H   0  0  0  0  0  0  0  0  0  0  0  0
  138.9373   71.5320  220.7477 H   0  0  0  0  0  0  0  0  0  0  0  0
  140.0792   68.0743  225.4274 H   0  0  0  0  0  0  0  0  0  0  0  0
  140.7361   67.4662  227.7533 H   0  0  0  0  0  0  0  0  0  0  0  0
  141.3677   69.2480  229.3843 H   0  0  0  0  0  0  0  0  0  0  0  0
  141.3444   71.6432  228.6865 H   0  0  0  0  0  0  0  0  0  0  0  0
  140.6940   72.2648  226.3615 H   0  0  0  0  0  0  0  0  0  0  0  0
  1  2  1  0
  2  3  1  0
  3  4  2  0
  4  5  1  0
  5  6  1  0
  6  7  1  0
  6  8  1  0
  6  9  1  0
  5 10  2  0
 10 11  1  0
 11 12  1  0
 12 13  2  0
 13 14  1  0
 14 15  2  0
 15 16  1  0
 16 17  2  0
 11 18  2  0
 18  3  1  0
 17 12  1  0
  1 19  1  0
  1 20  1  0
  1 21  1  0
  2 22  1  0
  4 23  1  0
 13 24  1  0
 14 25  1  0
 15 26  1  0
 16 27  1  0
 17 28  1  0
M  END
>  <UniqueID>  (26) 
14

>  <SMILES>  (26) 
CNc1cc(C(F)(F)F)nc(-c2ccccc2)n1

>  <Energy>  (26) 
26.9045707668376

>  <Genealogy>  (26) 
CNc1cc(C(F)(F)F)nc(-c2ccccc2)n1 (tautomer)
CNc1cc(C(F)(F)F)nc(-c2ccccc2)n1 (3D coordinates assigned)
CNc1cc(C(F)(F)F)nc(-c2ccccc2)n1 (optimized conformer: 26.9045707668376 kcal/mol)

>  <smiles>  (26) 
CN=c1cc(C(F)(F)F)[nH]c(-c2ccccc2)n1

>  <score_type>  (26) 
oracle

>  <origin>  (26) 
autodockgpu

>  <m_score__min__energy>  (26) 
-5.0999999999999996

>  <m_primary>  (26) 
energy

>  <meeko>  (26) 
{"free_energy": -5.1, "intermolecular_energy": -6.0, "internal_energy": -0.33, "cluster_size": 11, "cluster_id": 1, "rank_in_cluster": 3}

>  <energy>  (26) 
-5.1

>  <cluster_rmsd>  (26) 
0.04

>  <rmsd>  (26) 
272.21

>  <cluster>  (26) 
1

$$$$
IOQMMJGYZLYJFT-WYUMXYHSNA-N
     RDKit          3D

 28 29  0  0  0  0  0  0  0  0999 V2000
  139.5960   73.3690  221.8750 C   0  0  0  0  0  0  0  0  0  0  0  0
  139.5770   74.7540  222.3300 N   0  0  0  0  0  0  0  0  0  0  0  0
  140.4350   75.7500  221.7580 C   0  0  0  0  0  0  0  0  0  0  0  0
  141.0740   75.5120  220.5380 C   0  0  0  0  0  0  0  0  0  0  0  0
  141.9050   76.5070  220.0090 C   0  0  0  0  0  0  0  0  0  0  0  0
  142.6110   76.2920  218.7030 C   0  0  0  0  0  0  0  0  0  0  0  0
  143.7140   75.4810  218.8990 F   0  0  0  0  0  0  0  0  0  0  0  0
  141.7520   75.6830  217.8050 F   0  0  0  0  0  0  0  0  0  0  0  0
  143.0300   77.4990  218.1730 F   0  0  0  0  0  0  0  0  0  0  0  0
  142.0680   77.6730  220.6910 N   0  0  0  0  0  0  0  0  0  0  0  0
  141.4420   77.8980  221.8780 C   0  0  0  0  0  0  0  0  0  0  0  0
  141.6390   79.1800  222.5980 C   0  0  0  0  0  0  0  0  0  0  0  0
  140.5590   80.0620  222.8020 C   0  0  0  0  0  0  0  0  0  0  0  0
  140.7470   81.2690  223.4820 C   0  0  0  0  0  0  0  0  0  0  0  0
  142.0120   81.6110  223.9650 C   0  0  0  0  0  0  0  0  0  0  0  0
  143.0910   80.7470  223.7710 C   0  0  0  0  0  0  0  0  0  0  0  0
  142.9090   79.5380  223.0930 C   0  0  0  0  0  0  0  0  0  0  0  0
  140.6330   76.9350  222.3970 N   0  0  0  0  0  0  0  0  0  0  0  0
  139.6052   72.6971  222.7459 H   0  0  0  0  0  0  0  0  0  0  0  0
  138.7005   73.1702  221.2679 H   0  0  0  0  0  0  0  0  0  0  0  0
  140.4966   73.1948  221.2679 H   0  0  0  0  0  0  0  0  0  0  0  0
  138.9170   75.0190  223.0960 H   0  0  0  0  0  0  0  0  0  0  0  0
  140.9270   74.5617  220.0039 H   0  0  0  0  0  0  0  0  0  0  0  0
  139.5604   79.7987  222.4233 H   0  0  0  0  0  0  0  0  0  0  0  0
  139.8973   81.9503  223.6368 H   0  0  0  0  0  0  0  0  0  0  0  0
  142.1581   82.5618  224.4986 H   0  0  0  0  0  0  0  0  0  0  0  0
  144.0866   81.0180  224.1524 H   0  0  0  0  0  0  0  0  0  0  0  0
  143.7634   78.8612  222.9448 H   0  0  0  0  0  0  0  0  0  0  0  0
  1  2  1  0
  2  3  1  0
  3  4  2  0
  4  5  1  0
  5  6  1  0
  6  7  1  0
  6  8  1  0
  6  9  1  0
  5 10  2  0
 10 11  1  0
 11 12  1  0
 12 13  2  0
 13 14  1  0
 14 15  2  0
 15 16  1  0
 16 17  2  0
 11 18  2  0
 18  3  1  0
 17 12  1  0
  1 19  1  0
  1 20  1  0
  1 21  1  0
  2 22  1  0
  4 23  1  0
 13 24  1  0
 14 25  1  0
 15 26  1  0
 16 27  1  0
 17 28  1  0
M  END
>  <UniqueID>  (27) 
14

>  <SMILES>  (27) 
CNc1cc(C(F)(F)F)nc(-c2ccccc2)n1

>  <Energy>  (27) 
26.9045707668376

>  <Genealogy>  (27) 
CNc1cc(C(F)(F)F)nc(-c2ccccc2)n1 (tautomer)
CNc1cc(C(F)(F)F)nc(-c2ccccc2)n1 (3D coordinates assigned)
CNc1cc(C(F)(F)F)nc(-c2ccccc2)n1 (optimized conformer: 26.9045707668376 kcal/mol)

>  <smiles>  (27) 
CN=c1cc(C(F)(F)F)[nH]c(-c2ccccc2)n1

>  <score_type>  (27) 
oracle

>  <origin>  (27) 
autodockgpu

>  <m_score__min__energy>  (27) 
-5.0999999999999996

>  <m_primary>  (27) 
energy

>  <meeko>  (27) 
{"free_energy": -4.84, "intermolecular_energy": -5.73, "internal_energy": -0.32, "cluster_size": 9, "cluster_id": 2, "rank_in_cluster": 3}

>  <energy>  (27) 
-5.1

>  <cluster_rmsd>  (27) 
0.03

>  <rmsd>  (27) 
272.21

>  <cluster>  (27) 
1

$$$$
IOQMMJGYZLYJFT-WYUMXYHSNA-N
     RDKit          3D

 28 29  0  0  0  0  0  0  0  0999 V2000
  139.5650   73.3780  221.8450 C   0  0  0  0  0  0  0  0  0  0  0  0
  139.5750   74.7530  222.3320 N   0  0  0  0  0  0  0  0  0  0  0  0
  140.4290   75.7530  221.7590 C   0  0  0  0  0  0  0  0  0  0  0  0
  141.0550   75.5240  220.5320 C   0  0  0  0  0  0  0  0  0  0  0  0
  141.8830   76.5210  220.0030 C   0  0  0  0  0  0  0  0  0  0  0  0
  142.5760   76.3160  218.6880 C   0  0  0  0  0  0  0  0  0  0  0  0
  143.6930   75.5210  218.8700 F   0  0  0  0  0  0  0  0  0  0  0  0
  141.7140   75.6930  217.8010 F   0  0  0  0  0  0  0  0  0  0  0  0
  142.9700   77.5290  218.1520 F   0  0  0  0  0  0  0  0  0  0  0  0
  142.0540   77.6810  220.6920 N   0  0  0  0  0  0  0  0  0  0  0  0
  141.4400   77.8980  221.8870 C   0  0  0  0  0  0  0  0  0  0  0  0
  141.6450   79.1730  222.6160 C   0  0  0  0  0  0  0  0  0  0  0  0
  142.9200   79.5240  223.1030 C   0  0  0  0  0  0  0  0  0  0  0  0
  143.1120   80.7270  223.7900 C   0  0  0  0  0  0  0  0  0  0  0  0
  142.0360   81.5940  223.9980 C   0  0  0  0  0  0  0  0  0  0  0  0
  140.7680   81.2600  223.5190 C   0  0  0  0  0  0  0  0  0  0  0  0
  140.5710   80.0580  222.8320 C   0  0  0  0  0  0  0  0  0  0  0  0
  140.6340   76.9310  222.4060 N   0  0  0  0  0  0  0  0  0  0  0  0
  139.5600   72.6862  222.7002 H   0  0  0  0  0  0  0  0  0  0  0  0
  138.6656   73.2120  221.2338 H   0  0  0  0  0  0  0  0  0  0  0  0
  140.4619   73.1990  221.2338 H   0  0  0  0  0  0  0  0  0  0  0  0
  138.9390   75.0070  223.1210 H   0  0  0  0  0  0  0  0  0  0  0  0
  140.9004   74.5785  219.9916 H   0  0  0  0  0  0  0  0  0  0  0  0
  143.7712   78.8462  222.9415 H   0  0  0  0  0  0  0  0  0  0  0  0
  144.1111   80.9910  224.1670 H   0  0  0  0  0  0  0  0  0  0  0  0
  142.1881   82.5395  224.5391 H   0  0  0  0  0  0  0  0  0  0  0  0
  139.9220   81.9438  223.6823 H   0  0  0  0  0  0  0  0  0  0  0  0
  139.5691   79.8017  222.4573 H   0  0  0  0  0  0  0  0  0  0  0  0
  1  2  1  0
  2  3  1  0
  3  4  2  0
  4  5  1  0
  5  6  1  0
  6  7  1  0
  6  8  1  0
  6  9  1  0
  5 10  2  0
 10 11  1  0
 11 12  1  0
 12 13  2  0
 13 14  1  0
 14 15  2  0
 15 16  1  0
 16 17  2  0
 11 18  2  0
 18  3  1  0
 17 12  1  0
  1 19  1  0
  1 20  1  0
  1 21  1  0
  2 22  1  0
  4 23  1  0
 13 24  1  0
 14 25  1  0
 15 26  1  0
 16 27  1  0
 17 28  1  0
M  END
>  <UniqueID>  (28) 
14

>  <SMILES>  (28) 
CNc1cc(C(F)(F)F)nc(-c2ccccc2)n1

>  <Energy>  (28) 
26.9045707668376

>  <Genealogy>  (28) 
CNc1cc(C(F)(F)F)nc(-c2ccccc2)n1 (tautomer)
CNc1cc(C(F)(F)F)nc(-c2ccccc2)n1 (3D coordinates assigned)
CNc1cc(C(F)(F)F)nc(-c2ccccc2)n1 (optimized conformer: 26.9045707668376 kcal/mol)

>  <smiles>  (28) 
CN=c1cc(C(F)(F)F)[nH]c(-c2ccccc2)n1

>  <score_type>  (28) 
oracle

>  <origin>  (28) 
autodockgpu

>  <m_score__min__energy>  (28) 
-5.0999999999999996

>  <m_primary>  (28) 
energy

>  <meeko>  (28) 
{"free_energy": -4.83, "intermolecular_energy": -5.73, "internal_energy": -0.32, "cluster_size": 9, "cluster_id": 2, "rank_in_cluster": 7}

>  <energy>  (28) 
-5.1

>  <cluster_rmsd>  (28) 
0.02

>  <rmsd>  (28) 
272.22

>  <cluster>  (28) 
1

$$$$
IOQMMJGYZLYJFT-WYUMXYHSNA-N
     RDKit          3D

 28 29  0  0  0  0  0  0  0  0999 V2000
  140.5560   74.1270  221.2690 C   0  0  0  0  0  0  0  0  0  0  0  0
  139.6350   73.6320  222.2860 N   0  0  0  0  0  0  0  0  0  0  0  0
  139.6100   72.2520  222.6770 C   0  0  0  0  0  0  0  0  0  0  0  0
  139.2290   71.2680  221.7620 C   0  0  0  0  0  0  0  0  0  0  0  0
  139.2150   69.9320  222.1770 C   0  0  0  0  0  0  0  0  0  0  0  0
  138.8110   68.8440  221.2270 C   0  0  0  0  0  0  0  0  0  0  0  0
  139.8670   68.5440  220.3870 F   0  0  0  0  0  0  0  0  0  0  0  0
  138.4620   67.7100  221.9410 F   0  0  0  0  0  0  0  0  0  0  0  0
  137.7280   69.2420  220.4640 F   0  0  0  0  0  0  0  0  0  0  0  0
  139.5730   69.6260  223.4540 N   0  0  0  0  0  0  0  0  0  0  0  0
  139.9440   70.5900  224.3400 C   0  0  0  0  0  0  0  0  0  0  0  0
  140.3290   70.2270  225.7260 C   0  0  0  0  0  0  0  0  0  0  0  0
  140.6930   71.2230  226.6540 C   0  0  0  0  0  0  0  0  0  0  0  0
  141.0560   70.8780  227.9600 C   0  0  0  0  0  0  0  0  0  0  0  0
  141.0600   69.5380  228.3550 C   0  0  0  0  0  0  0  0  0  0  0  0
  140.7010   68.5410  227.4460 C   0  0  0  0  0  0  0  0  0  0  0  0
  140.3370   68.8800  226.1390 C   0  0  0  0  0  0  0  0  0  0  0  0
  139.9590   71.8910  223.9410 N   0  0  0  0  0  0  0  0  0  0  0  0
  141.4245   74.5938  221.7568 H   0  0  0  0  0  0  0  0  0  0  0  0
  140.8942   73.2891  220.6416 H   0  0  0  0  0  0  0  0  0  0  0  0
  140.0439   74.8714  220.6416 H   0  0  0  0  0  0  0  0  0  0  0  0
  138.9770   74.3080  222.7360 H   0  0  0  0  0  0  0  0  0  0  0  0
  138.9452   71.5384  220.7342 H   0  0  0  0  0  0  0  0  0  0  0  0
  140.6916   72.2799  226.3490 H   0  0  0  0  0  0  0  0  0  0  0  0
  141.3387   71.6628  228.6770 H   0  0  0  0  0  0  0  0  0  0  0  0
  141.3460   69.2684  229.3824 H   0  0  0  0  0  0  0  0  0  0  0  0
  140.7045   67.4864  227.7586 H   0  0  0  0  0  0  0  0  0  0  0  0
  140.0549   68.0893  225.4283 H   0  0  0  0  0  0  0  0  0  0  0  0
  1  2  1  0
  2  3  1  0
  3  4  2  0
  4  5  1  0
  5  6  1  0
  6  7  1  0
  6  8  1  0
  6  9  1  0
  5 10  2  0
 10 11  1  0
 11 12  1  0
 12 13  2  0
 13 14  1  0
 14 15  2  0
 15 16  1  0
 16 17  2  0
 11 18  2  0
 18  3  1  0
 17 12  1  0
  1 19  1  0
  1 20  1  0
  1 21  1  0
  2 22  1  0
  4 23  1  0
 13 24  1  0
 14 25  1  0
 15 26  1  0
 16 27  1  0
 17 28  1  0
M  END
>  <UniqueID>  (29) 
14

>  <SMILES>  (29) 
CNc1cc(C(F)(F)F)nc(-c2ccccc2)n1

>  <Energy>  (29) 
26.9045707668376

>  <Genealogy>  (29) 
CNc1cc(C(F)(F)F)nc(-c2ccccc2)n1 (tautomer)
CNc1cc(C(F)(F)F)nc(-c2ccccc2)n1 (3D coordinates assigned)
CNc1cc(C(F)(F)F)nc(-c2ccccc2)n1 (optimized conformer: 26.9045707668376 kcal/mol)

>  <smiles>  (29) 
CN=c1cc(C(F)(F)F)[nH]c(-c2ccccc2)n1

>  <score_type>  (29) 
oracle

>  <origin>  (29) 
autodockgpu

>  <m_score__min__energy>  (29) 
-5.0999999999999996

>  <m_primary>  (29) 
energy

>  <meeko>  (29) 
{"free_energy": -5.1, "intermolecular_energy": -6.0, "internal_energy": -0.33, "cluster_size": 11, "cluster_id": 1, "rank_in_cluster": 4}

>  <energy>  (29) 
-5.09

>  <cluster_rmsd>  (29) 
0.02

>  <rmsd>  (29) 
272.22

>  <cluster>  (29) 
1

$$$$
IOQMMJGYZLYJFT-WYUMXYHSNA-N
     RDKit          3D

 28 29  0  0  0  0  0  0  0  0999 V2000
  140.5740   74.1100  221.2690 C   0  0  0  0  0  0  0  0  0  0  0  0
  139.6510   73.6190  222.2870 N   0  0  0  0  0  0  0  0  0  0  0  0
  139.6210   72.2400  222.6790 C   0  0  0  0  0  0  0  0  0  0  0  0
  139.2350   71.2570  221.7640 C   0  0  0  0  0  0  0  0  0  0  0  0
  139.2160   69.9210  222.1810 C   0  0  0  0  0  0  0  0  0  0  0  0
  138.8060   68.8340  221.2320 C   0  0  0  0  0  0  0  0  0  0  0  0
  138.4710   67.6970  221.9440 F   0  0  0  0  0  0  0  0  0  0  0  0
  137.7110   69.2490  220.4950 F   0  0  0  0  0  0  0  0  0  0  0  0
  139.8410   68.5310  220.3640 F   0  0  0  0  0  0  0  0  0  0  0  0
  139.5720   69.6150  223.4580 N   0  0  0  0  0  0  0  0  0  0  0  0
  139.9480   70.5780  224.3430 C   0  0  0  0  0  0  0  0  0  0  0  0
  140.3320   70.2140  225.7290 C   0  0  0  0  0  0  0  0  0  0  0  0
  140.3370   68.8670  226.1420 C   0  0  0  0  0  0  0  0  0  0  0  0
  140.6990   68.5260  227.4490 C   0  0  0  0  0  0  0  0  0  0  0  0
  141.0600   69.5230  228.3580 C   0  0  0  0  0  0  0  0  0  0  0  0
  141.0600   70.8610  227.9630 C   0  0  0  0  0  0  0  0  0  0  0  0
  140.6990   71.2080  226.6570 C   0  0  0  0  0  0  0  0  0  0  0  0
  139.9680   71.8780  223.9430 N   0  0  0  0  0  0  0  0  0  0  0  0
  141.4447   74.5732  221.7562 H   0  0  0  0  0  0  0  0  0  0  0  0
  140.9084   73.2705  220.6417 H   0  0  0  0  0  0  0  0  0  0  0  0
  140.0648   74.8564  220.6417 H   0  0  0  0  0  0  0  0  0  0  0  0
  138.9970   74.2990  222.7370 H   0  0  0  0  0  0  0  0  0  0  0  0
  138.9516   71.5278  220.7362 H   0  0  0  0  0  0  0  0  0  0  0  0
  140.0539   68.0772  225.4306 H   0  0  0  0  0  0  0  0  0  0  0  0
  140.6994   67.4713  227.7615 H   0  0  0  0  0  0  0  0  0  0  0  0
  141.3444   69.2532  229.3858 H   0  0  0  0  0  0  0  0  0  0  0  0
  141.3446   71.6449  228.6803 H   0  0  0  0  0  0  0  0  0  0  0  0
  140.7017   72.2650  226.3524 H   0  0  0  0  0  0  0  0  0  0  0  0
  1  2  1  0
  2  3  1  0
  3  4  2  0
  4  5  1  0
  5  6  1  0
  6  7  1  0
  6  8  1  0
  6  9  1  0
  5 10  2  0
 10 11  1  0
 11 12  1  0
 12 13  2  0
 13 14  1  0
 14 15  2  0
 15 16  1  0
 16 17  2  0
 11 18  2  0
 18  3  1  0
 17 12  1  0
  1 19  1  0
  1 20  1  0
  1 21  1  0
  2 22  1  0
  4 23  1  0
 13 24  1  0
 14 25  1  0
 15 26  1  0
 16 27  1  0
 17 28  1  0
M  END
>  <UniqueID>  (30) 
14

>  <SMILES>  (30) 
CNc1cc(C(F)(F)F)nc(-c2ccccc2)n1

>  <Energy>  (30) 
26.9045707668376

>  <Genealogy>  (30) 
CNc1cc(C(F)(F)F)nc(-c2ccccc2)n1 (tautomer)
CNc1cc(C(F)(F)F)nc(-c2ccccc2)n1 (3D coordinates assigned)
CNc1cc(C(F)(F)F)nc(-c2ccccc2)n1 (optimized conformer: 26.9045707668376 kcal/mol)

>  <smiles>  (30) 
CN=c1cc(C(F)(F)F)[nH]c(-c2ccccc2)n1

>  <score_type>  (30) 
oracle

>  <origin>  (30) 
autodockgpu

>  <m_score__min__energy>  (30) 
-5.0999999999999996

>  <m_primary>  (30) 
energy

>  <meeko>  (30) 
{"free_energy": -5.1, "intermolecular_energy": -5.99, "internal_energy": -0.33, "cluster_size": 11, "cluster_id": 1, "rank_in_cluster": 7}

>  <energy>  (30) 
-5.08

>  <cluster_rmsd>  (30) 
0.81

>  <rmsd>  (30) 
272.33

>  <cluster>  (30) 
1

$$$$
IOQMMJGYZLYJFT-WYUMXYHSNA-N
     RDKit          3D

 28 29  0  0  0  0  0  0  0  0999 V2000
  140.5430   74.1240  221.2810 C   0  0  0  0  0  0  0  0  0  0  0  0
  139.6250   73.6270  222.2990 N   0  0  0  0  0  0  0  0  0  0  0  0
  139.6020   72.2470  222.6900 C   0  0  0  0  0  0  0  0  0  0  0  0
  139.2250   71.2630  221.7730 C   0  0  0  0  0  0  0  0  0  0  0  0
  139.2130   69.9260  222.1880 C   0  0  0  0  0  0  0  0  0  0  0  0
  138.8130   68.8380  221.2370 C   0  0  0  0  0  0  0  0  0  0  0  0
  138.4870   67.6970  221.9470 F   0  0  0  0  0  0  0  0  0  0  0  0
  137.7140   69.2450  220.5010 F   0  0  0  0  0  0  0  0  0  0  0  0
  139.8500   68.5450  220.3690 F   0  0  0  0  0  0  0  0  0  0  0  0
  139.5690   69.6210  223.4660 N   0  0  0  0  0  0  0  0  0  0  0  0
  139.9370   70.5850  224.3530 C   0  0  0  0  0  0  0  0  0  0  0  0
  140.3200   70.2220  225.7390 C   0  0  0  0  0  0  0  0  0  0  0  0
  140.6890   71.2170  226.6660 C   0  0  0  0  0  0  0  0  0  0  0  0
  141.0500   70.8720  227.9720 C   0  0  0  0  0  0  0  0  0  0  0  0
  141.0460   69.5330  228.3700 C   0  0  0  0  0  0  0  0  0  0  0  0
  140.6820   68.5370  227.4620 C   0  0  0  0  0  0  0  0  0  0  0  0
  140.3200   68.8760  226.1550 C   0  0  0  0  0  0  0  0  0  0  0  0
  139.9490   71.8860  223.9550 N   0  0  0  0  0  0  0  0  0  0  0  0
  141.4106   74.5937  221.7675 H   0  0  0  0  0  0  0  0  0  0  0  0
  140.8831   73.2868  220.6538 H   0  0  0  0  0  0  0  0  0  0  0  0
  140.0279   74.8664  220.6538 H   0  0  0  0  0  0  0  0  0  0  0  0
  138.9680   74.3020  222.7510 H   0  0  0  0  0  0  0  0  0  0  0  0
  138.9430   71.5334  220.7447 H   0  0  0  0  0  0  0  0  0  0  0  0
  140.6931   72.2735  226.3598 H   0  0  0  0  0  0  0  0  0  0  0  0
  141.3377   71.6565  228.6874 H   0  0  0  0  0  0  0  0  0  0  0  0
  141.3295   69.2636  229.3981 H   0  0  0  0  0  0  0  0  0  0  0  0
  140.6800   67.4827  227.7758 H   0  0  0  0  0  0  0  0  0  0  0  0
  140.0329   68.0856  225.4458 H   0  0  0  0  0  0  0  0  0  0  0  0
  1  2  1  0
  2  3  1  0
  3  4  2  0
  4  5  1  0
  5  6  1  0
  6  7  1  0
  6  8  1  0
  6  9  1  0
  5 10  2  0
 10 11  1  0
 11 12  1  0
 12 13  2  0
 13 14  1  0
 14 15  2  0
 15 16  1  0
 16 17  2  0
 11 18  2  0
 18  3  1  0
 17 12  1  0
  1 19  1  0
  1 20  1  0
  1 21  1  0
  2 22  1  0
  4 23  1  0
 13 24  1  0
 14 25  1  0
 15 26  1  0
 16 27  1  0
 17 28  1  0
M  END
>  <UniqueID>  (31) 
14

>  <SMILES>  (31) 
CNc1cc(C(F)(F)F)nc(-c2ccccc2)n1

>  <Energy>  (31) 
26.9045707668376

>  <Genealogy>  (31) 
CNc1cc(C(F)(F)F)nc(-c2ccccc2)n1 (tautomer)
CNc1cc(C(F)(F)F)nc(-c2ccccc2)n1 (3D coordinates assigned)
CNc1cc(C(F)(F)F)nc(-c2ccccc2)n1 (optimized conformer: 26.9045707668376 kcal/mol)

>  <smiles>  (31) 
CN=c1cc(C(F)(F)F)[nH]c(-c2ccccc2)n1

>  <score_type>  (31) 
oracle

>  <origin>  (31) 
autodockgpu

>  <m_score__min__energy>  (31) 
-5.0999999999999996

>  <m_primary>  (31) 
energy

>  <meeko>  (31) 
{"free_energy": -5.1, "intermolecular_energy": -5.99, "internal_energy": -0.33, "cluster_size": 11, "cluster_id": 1, "rank_in_cluster": 8}

>  <energy>  (31) 
-5.07

>  <cluster_rmsd>  (31) 
0.4

>  <rmsd>  (31) 
272.21

>  <cluster>  (31) 
1

$$$$
IOQMMJGYZLYJFT-WYUMXYHSNA-N
     RDKit          3D

 28 29  0  0  0  0  0  0  0  0999 V2000
  139.5260   73.3970  221.7770 C   0  0  0  0  0  0  0  0  0  0  0  0
  139.5720   74.7590  222.2960 N   0  0  0  0  0  0  0  0  0  0  0  0
  140.4290   75.7570  221.7260 C   0  0  0  0  0  0  0  0  0  0  0  0
  141.0540   75.5290  220.4980 C   0  0  0  0  0  0  0  0  0  0  0  0
  141.8850   76.5250  219.9710 C   0  0  0  0  0  0  0  0  0  0  0  0
  142.5760   76.3220  218.6550 C   0  0  0  0  0  0  0  0  0  0  0  0
  143.6930   75.5260  218.8350 F   0  0  0  0  0  0  0  0  0  0  0  0
  141.7130   75.7010  217.7680 F   0  0  0  0  0  0  0  0  0  0  0  0
  142.9720   77.5350  218.1210 F   0  0  0  0  0  0  0  0  0  0  0  0
  142.0610   77.6830  220.6640 N   0  0  0  0  0  0  0  0  0  0  0  0
  141.4480   77.8980  221.8590 C   0  0  0  0  0  0  0  0  0  0  0  0
  141.6590   79.1710  222.5920 C   0  0  0  0  0  0  0  0  0  0  0  0
  142.9360   79.5150  223.0790 C   0  0  0  0  0  0  0  0  0  0  0  0
  143.1330   80.7150  223.7690 C   0  0  0  0  0  0  0  0  0  0  0  0
  142.0600   81.5850  223.9810 C   0  0  0  0  0  0  0  0  0  0  0  0
  140.7910   81.2570  223.5040 C   0  0  0  0  0  0  0  0  0  0  0  0
  140.5880   80.0580  222.8130 C   0  0  0  0  0  0  0  0  0  0  0  0
  140.6400   76.9330  222.3760 N   0  0  0  0  0  0  0  0  0  0  0  0
  139.5020   72.6856  222.6157 H   0  0  0  0  0  0  0  0  0  0  0  0
  138.6230   73.2693  221.1619 H   0  0  0  0  0  0  0  0  0  0  0  0
  140.4183   73.2087  221.1619 H   0  0  0  0  0  0  0  0  0  0  0  0
  138.9600   75.0050  223.1070 H   0  0  0  0  0  0  0  0  0  0  0  0
  140.8964   74.5852  219.9554 H   0  0  0  0  0  0  0  0  0  0  0  0
  143.7843   78.8342  222.9150 H   0  0  0  0  0  0  0  0  0  0  0  0
  144.1335   80.9746  224.1453 H   0  0  0  0  0  0  0  0  0  0  0  0
  142.2163   82.5287  224.5242 H   0  0  0  0  0  0  0  0  0  0  0  0
  139.9477   81.9431  223.6717 H   0  0  0  0  0  0  0  0  0  0  0  0
  139.5845   79.8062  222.4395 H   0  0  0  0  0  0  0  0  0  0  0  0
  1  2  1  0
  2  3  1  0
  3  4  2  0
  4  5  1  0
  5  6  1  0
  6  7  1  0
  6  8  1  0
  6  9  1  0
  5 10  2  0
 10 11  1  0
 11 12  1  0
 12 13  2  0
 13 14  1  0
 14 15  2  0
 15 16  1  0
 16 17  2  0
 11 18  2  0
 18  3  1  0
 17 12  1  0
  1 19  1  0
  1 20  1  0
  1 21  1  0
  2 22  1  0
  4 23  1  0
 13 24  1  0
 14 25  1  0
 15 26  1  0
 16 27  1  0
 17 28  1  0
M  END
>  <UniqueID>  (32) 
14

>  <SMILES>  (32) 
CNc1cc(C(F)(F)F)nc(-c2ccccc2)n1

>  <Energy>  (32) 
26.9045707668376

>  <Genealogy>  (32) 
CNc1cc(C(F)(F)F)nc(-c2ccccc2)n1 (tautomer)
CNc1cc(C(F)(F)F)nc(-c2ccccc2)n1 (3D coordinates assigned)
CNc1cc(C(F)(F)F)nc(-c2ccccc2)n1 (optimized conformer: 26.9045707668376 kcal/mol)

>  <smiles>  (32) 
CN=c1cc(C(F)(F)F)[nH]c(-c2ccccc2)n1

>  <score_type>  (32) 
oracle

>  <origin>  (32) 
autodockgpu

>  <m_score__min__energy>  (32) 
-5.0999999999999996

>  <m_primary>  (32) 
energy

>  <meeko>  (32) 
{"free_energy": -4.83, "intermolecular_energy": -5.73, "internal_energy": -0.32, "cluster_size": 9, "cluster_id": 2, "rank_in_cluster": 5}

>  <energy>  (32) 
-4.84

>  <cluster_rmsd>  (32) 
0.0

>  <rmsd>  (32) 
273.13

>  <cluster>  (32) 
2

$$$$
IOQMMJGYZLYJFT-WYUMXYHSNA-N
     RDKit          3D

 28 29  0  0  0  0  0  0  0  0999 V2000
  140.5750   74.1050  221.2800 C   0  0  0  0  0  0  0  0  0  0  0  0
  139.6400   73.6140  222.2850 N   0  0  0  0  0  0  0  0  0  0  0  0
  139.6080   72.2360  222.6810 C   0  0  0  0  0  0  0  0  0  0  0  0
  139.2130   71.2520  221.7710 C   0  0  0  0  0  0  0  0  0  0  0  0
  139.1920   69.9170  222.1900 C   0  0  0  0  0  0  0  0  0  0  0  0
  138.7730   68.8290  221.2460 C   0  0  0  0  0  0  0  0  0  0  0  0
  138.4320   67.6970  221.9640 F   0  0  0  0  0  0  0  0  0  0  0  0
  137.6780   69.2490  220.5120 F   0  0  0  0  0  0  0  0  0  0  0  0
  139.8030   68.5170  220.3760 F   0  0  0  0  0  0  0  0  0  0  0  0
  139.5570   69.6130  223.4650 N   0  0  0  0  0  0  0  0  0  0  0  0
  139.9420   70.5760  224.3460 C   0  0  0  0  0  0  0  0  0  0  0  0
  140.3340   70.2140  225.7300 C   0  0  0  0  0  0  0  0  0  0  0  0
  140.6980   71.2110  226.6570 C   0  0  0  0  0  0  0  0  0  0  0  0
  141.0680   70.8670  227.9610 C   0  0  0  0  0  0  0  0  0  0  0  0
  141.0790   69.5270  228.3560 C   0  0  0  0  0  0  0  0  0  0  0  0
  140.7200   68.5290  227.4480 C   0  0  0  0  0  0  0  0  0  0  0  0
  140.3490   68.8670  226.1430 C   0  0  0  0  0  0  0  0  0  0  0  0
  139.9630   71.8760  223.9430 N   0  0  0  0  0  0  0  0  0  0  0  0
  141.4431   74.5609  221.7785 H   0  0  0  0  0  0  0  0  0  0  0  0
  140.9113   73.2671  220.6516 H   0  0  0  0  0  0  0  0  0  0  0  0
  140.0761   74.8575  220.6516 H   0  0  0  0  0  0  0  0  0  0  0  0
  138.9770   74.2930  222.7250 H   0  0  0  0  0  0  0  0  0  0  0  0
  138.9240   71.5217  220.7445 H   0  0  0  0  0  0  0  0  0  0  0  0
  140.6910   72.2680  226.3525 H   0  0  0  0  0  0  0  0  0  0  0  0
  141.3508   71.6528  228.6769 H   0  0  0  0  0  0  0  0  0  0  0  0
  141.3704   69.2583  229.3821 H   0  0  0  0  0  0  0  0  0  0  0  0
  140.7291   67.4742  227.7601 H   0  0  0  0  0  0  0  0  0  0  0  0
  140.0667   68.0753  225.4334 H   0  0  0  0  0  0  0  0  0  0  0  0
  1  2  1  0
  2  3  1  0
  3  4  2  0
  4  5  1  0
  5  6  1  0
  6  7  1  0
  6  8  1  0
  6  9  1  0
  5 10  2  0
 10 11  1  0
 11 12  1  0
 12 13  2  0
 13 14  1  0
 14 15  2  0
 15 16  1  0
 16 17  2  0
 11 18  2  0
 18  3  1  0
 17 12  1  0
  1 19  1  0
  1 20  1  0
  1 21  1  0
  2 22  1  0
  4 23  1  0
 13 24  1  0
 14 25  1  0
 15 26  1  0
 16 27  1  0
 17 28  1  0
M  END
>  <UniqueID>  (33) 
14

>  <SMILES>  (33) 
CNc1cc(C(F)(F)F)nc(-c2ccccc2)n1

>  <Energy>  (33) 
26.9045707668376

>  <Genealogy>  (33) 
CNc1cc(C(F)(F)F)nc(-c2ccccc2)n1 (tautomer)
CNc1cc(C(F)(F)F)nc(-c2ccccc2)n1 (3D coordinates assigned)
CNc1cc(C(F)(F)F)nc(-c2ccccc2)n1 (optimized conformer: 26.9045707668376 kcal/mol)

>  <smiles>  (33) 
CN=c1cc(C(F)(F)F)[nH]c(-c2ccccc2)n1

>  <score_type>  (33) 
oracle

>  <origin>  (33) 
autodockgpu

>  <m_score__min__energy>  (33) 
-5.0999999999999996

>  <m_primary>  (33) 
energy

>  <meeko>  (33) 
{"free_energy": -5.1, "intermolecular_energy": -5.99, "internal_energy": -0.33, "cluster_size": 11, "cluster_id": 1, "rank_in_cluster": 5}

>  <energy>  (33) 
-4.84

>  <cluster_rmsd>  (33) 
0.02

>  <rmsd>  (33) 
273.15

>  <cluster>  (33) 
2

$$$$
IOQMMJGYZLYJFT-WYUMXYHSNA-N
     RDKit          3D

 28 29  0  0  0  0  0  0  0  0999 V2000
  140.7320   73.3490  221.5880 C   0  0  0  0  0  0  0  0  0  0  0  0
  139.6460   72.9940  222.4940 N   0  0  0  0  0  0  0  0  0  0  0  0
  139.4880   71.6620  223.0000 C   0  0  0  0  0  0  0  0  0  0  0  0
  138.8880   70.6760  222.2120 C   0  0  0  0  0  0  0  0  0  0  0  0
  138.7490   69.3870  222.7380 C   0  0  0  0  0  0  0  0  0  0  0  0
  138.1100   68.2990  221.9270 C   0  0  0  0  0  0  0  0  0  0  0  0
  138.6420   67.0750  222.2890 F   0  0  0  0  0  0  0  0  0  0  0  0
  136.7460   68.2890  222.1570 F   0  0  0  0  0  0  0  0  0  0  0  0
  138.3350   68.5030  220.5760 F   0  0  0  0  0  0  0  0  0  0  0  0
  139.1990   69.1260  223.9950 N   0  0  0  0  0  0  0  0  0  0  0  0
  139.7830   70.0910  224.7570 C   0  0  0  0  0  0  0  0  0  0  0  0
  140.2650   69.7780  226.1250 C   0  0  0  0  0  0  0  0  0  0  0  0
  140.3700   68.4420  226.5600 C   0  0  0  0  0  0  0  0  0  0  0  0
  140.8250   68.1490  227.8490 C   0  0  0  0  0  0  0  0  0  0  0  0
  141.1790   69.1830  228.7190 C   0  0  0  0  0  0  0  0  0  0  0  0
  141.0810   70.5110  228.3010 C   0  0  0  0  0  0  0  0  0  0  0  0
  140.6280   70.8100  227.0130 C   0  0  0  0  0  0  0  0  0  0  0  0
  139.9210   71.3470  224.2510 N   0  0  0  0  0  0  0  0  0  0  0  0
  141.6176   73.6385  222.1728 H   0  0  0  0  0  0  0  0  0  0  0  0
  140.9779   72.4845  220.9539 H   0  0  0  0  0  0  0  0  0  0  0  0
  140.4198   74.1919  220.9539 H   0  0  0  0  0  0  0  0  0  0  0  0
  138.9680   73.7380  222.7770 H   0  0  0  0  0  0  0  0  0  0  0  0
  138.5318   70.9089  221.1977 H   0  0  0  0  0  0  0  0  0  0  0  0
  140.0918   67.6232  225.8801 H   0  0  0  0  0  0  0  0  0  0  0  0
  140.9044   67.1026  228.1787 H   0  0  0  0  0  0  0  0  0  0  0  0
  141.5350   68.9506  229.7335 H   0  0  0  0  0  0  0  0  0  0  0  0
  141.3609   71.3242  228.9868 H   0  0  0  0  0  0  0  0  0  0  0  0
  140.5543   71.8590  226.6901 H   0  0  0  0  0  0  0  0  0  0  0  0
  1  2  1  0
  2  3  1  0
  3  4  2  0
  4  5  1  0
  5  6  1  0
  6  7  1  0
  6  8  1  0
  6  9  1  0
  5 10  2  0
 10 11  1  0
 11 12  1  0
 12 13  2  0
 13 14  1  0
 14 15  2  0
 15 16  1  0
 16 17  2  0
 11 18  2  0
 18  3  1  0
 17 12  1  0
  1 19  1  0
  1 20  1  0
  1 21  1  0
  2 22  1  0
  4 23  1  0
 13 24  1  0
 14 25  1  0
 15 26  1  0
 16 27  1  0
 17 28  1  0
M  END
>  <UniqueID>  (34) 
14

>  <SMILES>  (34) 
CNc1cc(C(F)(F)F)nc(-c2ccccc2)n1

>  <Energy>  (34) 
26.9045707668376

>  <Genealogy>  (34) 
CNc1cc(C(F)(F)F)nc(-c2ccccc2)n1 (tautomer)
CNc1cc(C(F)(F)F)nc(-c2ccccc2)n1 (3D coordinates assigned)
CNc1cc(C(F)(F)F)nc(-c2ccccc2)n1 (optimized conformer: 26.9045707668376 kcal/mol)

>  <smiles>  (34) 
CN=c1cc(C(F)(F)F)[nH]c(-c2ccccc2)n1

>  <score_type>  (34) 
oracle

>  <origin>  (34) 
autodockgpu

>  <m_score__min__energy>  (34) 
-5.0999999999999996

>  <m_primary>  (34) 
energy

>  <meeko>  (34) 
{"free_energy": -5.08, "intermolecular_energy": -5.97, "internal_energy": -0.33, "cluster_size": 11, "cluster_id": 1, "rank_in_cluster": 10}

>  <energy>  (34) 
-4.84

>  <cluster_rmsd>  (34) 
0.17

>  <rmsd>  (34) 
273.06

>  <cluster>  (34) 
2

$$$$
IOQMMJGYZLYJFT-WYUMXYHSNA-N
     RDKit          3D

 28 29  0  0  0  0  0  0  0  0999 V2000
  139.9700   72.9360  221.9430 C   0  0  0  0  0  0  0  0  0  0  0  0
  139.6680   74.3480  222.1490 N   0  0  0  0  0  0  0  0  0  0  0  0
  140.4810   75.3860  221.5850 C   0  0  0  0  0  0  0  0  0  0  0  0
  141.1260   75.1880  220.3620 C   0  0  0  0  0  0  0  0  0  0  0  0
  141.9120   76.2220  219.8410 C   0  0  0  0  0  0  0  0  0  0  0  0
  142.6240   76.0510  218.5320 C   0  0  0  0  0  0  0  0  0  0  0  0
  143.0420   77.2840  218.0650 F   0  0  0  0  0  0  0  0  0  0  0  0
  143.7260   75.2320  218.7060 F   0  0  0  0  0  0  0  0  0  0  0  0
  141.7840   75.4780  217.5930 F   0  0  0  0  0  0  0  0  0  0  0  0
  142.0270   77.3870  220.5340 N   0  0  0  0  0  0  0  0  0  0  0  0
  141.3940   77.5740  221.7240 C   0  0  0  0  0  0  0  0  0  0  0  0
  141.5380   78.8560  222.4570 C   0  0  0  0  0  0  0  0  0  0  0  0
  142.8140   79.3900  222.7260 C   0  0  0  0  0  0  0  0  0  0  0  0
  142.9460   80.5980  223.4170 C   0  0  0  0  0  0  0  0  0  0  0  0
  141.8100   81.2880  223.8470 C   0  0  0  0  0  0  0  0  0  0  0  0
  140.5400   80.7710  223.5870 C   0  0  0  0  0  0  0  0  0  0  0  0
  140.4010   79.5630  222.8960 C   0  0  0  0  0  0  0  0  0  0  0  0
  140.6290   76.5720  222.2360 N   0  0  0  0  0  0  0  0  0  0  0  0
  140.0766   72.4378  222.9179 H   0  0  0  0  0  0  0  0  0  0  0  0
  139.1523   72.4648  221.3779 H   0  0  0  0  0  0  0  0  0  0  0  0
  140.9089   72.8405  221.3779 H   0  0  0  0  0  0  0  0  0  0  0  0
  138.8340   74.6010  222.7270 H   0  0  0  0  0  0  0  0  0  0  0  0
  141.0182   74.2376  219.8188 H   0  0  0  0  0  0  0  0  0  0  0  0
  143.7128   78.8523  222.3898 H   0  0  0  0  0  0  0  0  0  0  0  0
  143.9466   81.0061  223.6226 H   0  0  0  0  0  0  0  0  0  0  0  0
  141.9164   82.2385  224.3903 H   0  0  0  0  0  0  0  0  0  0  0  0
  139.6462   81.3149  223.9264 H   0  0  0  0  0  0  0  0  0  0  0  0
  139.3969   79.1620  222.6938 H   0  0  0  0  0  0  0  0  0  0  0  0
  1  2  1  0
  2  3  1  0
  3  4  2  0
  4  5  1  0
  5  6  1  0
  6  7  1  0
  6  8  1  0
  6  9  1  0
  5 10  2  0
 10 11  1  0
 11 12  1  0
 12 13  2  0
 13 14  1  0
 14 15  2  0
 15 16  1  0
 16 17  2  0
 11 18  2  0
 18  3  1  0
 17 12  1  0
  1 19  1  0
  1 20  1  0
  1 21  1  0
  2 22  1  0
  4 23  1  0
 13 24  1  0
 14 25  1  0
 15 26  1  0
 16 27  1  0
 17 28  1  0
M  END
>  <UniqueID>  (35) 
14

>  <SMILES>  (35) 
CNc1cc(C(F)(F)F)nc(-c2ccccc2)n1

>  <Energy>  (35) 
26.9045707668376

>  <Genealogy>  (35) 
CNc1cc(C(F)(F)F)nc(-c2ccccc2)n1 (tautomer)
CNc1cc(C(F)(F)F)nc(-c2ccccc2)n1 (3D coordinates assigned)
CNc1cc(C(F)(F)F)nc(-c2ccccc2)n1 (optimized conformer: 26.9045707668376 kcal/mol)

>  <smiles>  (35) 
CN=c1cc(C(F)(F)F)[nH]c(-c2ccccc2)n1

>  <score_type>  (35) 
oracle

>  <origin>  (35) 
autodockgpu

>  <m_score__min__energy>  (35) 
-5.0999999999999996

>  <m_primary>  (35) 
energy

>  <meeko>  (35) 
{"free_energy": -4.83, "intermolecular_energy": -5.73, "internal_energy": -0.32, "cluster_size": 9, "cluster_id": 2, "rank_in_cluster": 9}

>  <energy>  (35) 
-4.83

>  <cluster_rmsd>  (35) 
0.15

>  <rmsd>  (35) 
273.05

>  <cluster>  (35) 
2

$$$$
IOQMMJGYZLYJFT-WYUMXYHSNA-N
     RDKit          3D

 28 29  0  0  0  0  0  0  0  0999 V2000
  140.5400   74.1370  221.2650 C   0  0  0  0  0  0  0  0  0  0  0  0
  139.6250   73.6360  222.2840 N   0  0  0  0  0  0  0  0  0  0  0  0
  139.6070   72.2560  222.6720 C   0  0  0  0  0  0  0  0  0  0  0  0
  139.2300   71.2720  221.7540 C   0  0  0  0  0  0  0  0  0  0  0  0
  139.2230   69.9340  222.1670 C   0  0  0  0  0  0  0  0  0  0  0  0
  138.8230   68.8460  221.2150 C   0  0  0  0  0  0  0  0  0  0  0  0
  138.4980   67.7040  221.9230 F   0  0  0  0  0  0  0  0  0  0  0  0
  137.7240   69.2540  220.4790 F   0  0  0  0  0  0  0  0  0  0  0  0
  139.8600   68.5550  220.3460 F   0  0  0  0  0  0  0  0  0  0  0  0
  139.5820   69.6280  223.4430 N   0  0  0  0  0  0  0  0  0  0  0  0
  139.9490   70.5920  224.3310 C   0  0  0  0  0  0  0  0  0  0  0  0
  140.3360   70.2270  225.7160 C   0  0  0  0  0  0  0  0  0  0  0  0
  140.7110   71.2210  226.6420 C   0  0  0  0  0  0  0  0  0  0  0  0
  141.0750   70.8750  227.9460 C   0  0  0  0  0  0  0  0  0  0  0  0
  141.0700   69.5360  228.3440 C   0  0  0  0  0  0  0  0  0  0  0  0
  140.7010   68.5410  227.4370 C   0  0  0  0  0  0  0  0  0  0  0  0
  140.3350   68.8800  226.1310 C   0  0  0  0  0  0  0  0  0  0  0  0
  139.9570   71.8930  223.9350 N   0  0  0  0  0  0  0  0  0  0  0  0
  141.4057   74.6110  221.7507 H   0  0  0  0  0  0  0  0  0  0  0  0
  140.8836   73.3012  220.6378 H   0  0  0  0  0  0  0  0  0  0  0  0
  140.0209   74.8767  220.6378 H   0  0  0  0  0  0  0  0  0  0  0  0
  138.9660   74.3090  222.7380 H   0  0  0  0  0  0  0  0  0  0  0  0
  138.9443   71.5433  220.7270 H   0  0  0  0  0  0  0  0  0  0  0  0
  140.7172   72.2775  226.3359 H   0  0  0  0  0  0  0  0  0  0  0  0
  141.3661   71.6588  228.6607 H   0  0  0  0  0  0  0  0  0  0  0  0
  141.3566   69.2659  229.3711 H   0  0  0  0  0  0  0  0  0  0  0  0
  140.6982   67.4868  227.7509 H   0  0  0  0  0  0  0  0  0  0  0  0
  140.0443   68.0903  225.4226 H   0  0  0  0  0  0  0  0  0  0  0  0
  1  2  1  0
  2  3  1  0
  3  4  2  0
  4  5  1  0
  5  6  1  0
  6  7  1  0
  6  8  1  0
  6  9  1  0
  5 10  2  0
 10 11  1  0
 11 12  1  0
 12 13  2  0
 13 14  1  0
 14 15  2  0
 15 16  1  0
 16 17  2  0
 11 18  2  0
 18  3  1  0
 17 12  1  0
  1 19  1  0
  1 20  1  0
  1 21  1  0
  2 22  1  0
  4 23  1  0
 13 24  1  0
 14 25  1  0
 15 26  1  0
 16 27  1  0
 17 28  1  0
M  END
>  <UniqueID>  (36) 
14

>  <SMILES>  (36) 
CNc1cc(C(F)(F)F)nc(-c2ccccc2)n1

>  <Energy>  (36) 
26.9045707668376

>  <Genealogy>  (36) 
CNc1cc(C(F)(F)F)nc(-c2ccccc2)n1 (tautomer)
CNc1cc(C(F)(F)F)nc(-c2ccccc2)n1 (3D coordinates assigned)
CNc1cc(C(F)(F)F)nc(-c2ccccc2)n1 (optimized conformer: 26.9045707668376 kcal/mol)

>  <smiles>  (36) 
CN=c1cc(C(F)(F)F)[nH]c(-c2ccccc2)n1

>  <score_type>  (36) 
oracle

>  <origin>  (36) 
autodockgpu

>  <m_score__min__energy>  (36) 
-5.0999999999999996

>  <m_primary>  (36) 
energy

>  <meeko>  (36) 
{"free_energy": -5.1, "intermolecular_energy": -5.99, "internal_energy": -0.33, "cluster_size": 11, "cluster_id": 1, "rank_in_cluster": 6}

>  <energy>  (36) 
-4.83

>  <cluster_rmsd>  (36) 
0.16

>  <rmsd>  (36) 
273.04

>  <cluster>  (36) 
2

$$$$
IOQMMJGYZLYJFT-WYUMXYHSNA-N
     RDKit          3D

 28 29  0  0  0  0  0  0  0  0999 V2000
  140.0190   72.8910  221.9900 C   0  0  0  0  0  0  0  0  0  0  0  0
  139.6740   74.2970  222.1660 N   0  0  0  0  0  0  0  0  0  0  0  0
  140.4670   75.3470  221.5950 C   0  0  0  0  0  0  0  0  0  0  0  0
  141.1060   75.1590  220.3680 C   0  0  0  0  0  0  0  0  0  0  0  0
  141.8730   76.2050  219.8410 C   0  0  0  0  0  0  0  0  0  0  0  0
  142.5770   76.0440  218.5270 C   0  0  0  0  0  0  0  0  0  0  0  0
  142.9830   77.2820  218.0620 F   0  0  0  0  0  0  0  0  0  0  0  0
  143.6870   75.2340  218.6910 F   0  0  0  0  0  0  0  0  0  0  0  0
  141.7370   75.4680  217.5910 F   0  0  0  0  0  0  0  0  0  0  0  0
  141.9740   77.3720  220.5330 N   0  0  0  0  0  0  0  0  0  0  0  0
  141.3470   77.5490  221.7270 C   0  0  0  0  0  0  0  0  0  0  0  0
  141.4750   78.8340  222.4590 C   0  0  0  0  0  0  0  0  0  0  0  0
  140.3300   79.5310  222.8910 C   0  0  0  0  0  0  0  0  0  0  0  0
  140.4530   80.7410  223.5810 C   0  0  0  0  0  0  0  0  0  0  0  0
  141.7180   81.2700  223.8460 C   0  0  0  0  0  0  0  0  0  0  0  0
  142.8620   80.5900  223.4240 C   0  0  0  0  0  0  0  0  0  0  0  0
  142.7450   79.3790  222.7350 C   0  0  0  0  0  0  0  0  0  0  0  0
  140.6010   76.5350  222.2440 N   0  0  0  0  0  0  0  0  0  0  0  0
  140.1356   72.4160  222.9753 H   0  0  0  0  0  0  0  0  0  0  0  0
  139.2186   72.3842  221.4310 H   0  0  0  0  0  0  0  0  0  0  0  0
  140.9631   72.8123  221.4310 H   0  0  0  0  0  0  0  0  0  0  0  0
  138.8240   74.5370  222.7250 H   0  0  0  0  0  0  0  0  0  0  0  0
  141.0087   74.2070  219.8255 H   0  0  0  0  0  0  0  0  0  0  0  0
  139.3308   79.1202  222.6840 H   0  0  0  0  0  0  0  0  0  0  0  0
  139.5524   81.2768  223.9154 H   0  0  0  0  0  0  0  0  0  0  0  0
  141.8131   82.2228  224.3874 H   0  0  0  0  0  0  0  0  0  0  0  0
  143.8576   81.0079  223.6340 H   0  0  0  0  0  0  0  0  0  0  0  0
  143.6505   78.8480  222.4061 H   0  0  0  0  0  0  0  0  0  0  0  0
  1  2  1  0
  2  3  1  0
  3  4  2  0
  4  5  1  0
  5  6  1  0
  6  7  1  0
  6  8  1  0
  6  9  1  0
  5 10  2  0
 10 11  1  0
 11 12  1  0
 12 13  2  0
 13 14  1  0
 14 15  2  0
 15 16  1  0
 16 17  2  0
 11 18  2  0
 18  3  1  0
 17 12  1  0
  1 19  1  0
  1 20  1  0
  1 21  1  0
  2 22  1  0
  4 23  1  0
 13 24  1  0
 14 25  1  0
 15 26  1  0
 16 27  1  0
 17 28  1  0
M  END
>  <UniqueID>  (37) 
14

>  <SMILES>  (37) 
CNc1cc(C(F)(F)F)nc(-c2ccccc2)n1

>  <Energy>  (37) 
26.9045707668376

>  <Genealogy>  (37) 
CNc1cc(C(F)(F)F)nc(-c2ccccc2)n1 (tautomer)
CNc1cc(C(F)(F)F)nc(-c2ccccc2)n1 (3D coordinates assigned)
CNc1cc(C(F)(F)F)nc(-c2ccccc2)n1 (optimized conformer: 26.9045707668376 kcal/mol)

>  <smiles>  (37) 
CN=c1cc(C(F)(F)F)[nH]c(-c2ccccc2)n1

>  <score_type>  (37) 
oracle

>  <origin>  (37) 
autodockgpu

>  <m_score__min__energy>  (37) 
-5.0999999999999996

>  <m_primary>  (37) 
energy

>  <meeko>  (37) 
{"free_energy": -4.83, "intermolecular_energy": -5.73, "internal_energy": -0.32, "cluster_size": 9, "cluster_id": 2, "rank_in_cluster": 8}

>  <energy>  (37) 
-4.83

>  <cluster_rmsd>  (37) 
0.17

>  <rmsd>  (37) 
273.06

>  <cluster>  (37) 
2

$$$$
IOQMMJGYZLYJFT-WYUMXYHSNA-N
     RDKit          3D

 28 29  0  0  0  0  0  0  0  0999 V2000
  139.5870   73.4730  221.8570 C   0  0  0  0  0  0  0  0  0  0  0  0
  139.5670   74.8500  222.3370 N   0  0  0  0  0  0  0  0  0  0  0  0
  140.4280   75.8560  221.7870 C   0  0  0  0  0  0  0  0  0  0  0  0
  141.0500   75.6510  220.5530 C   0  0  0  0  0  0  0  0  0  0  0  0
  141.8850   76.6540  220.0460 C   0  0  0  0  0  0  0  0  0  0  0  0
  142.5730   76.4750  218.7250 C   0  0  0  0  0  0  0  0  0  0  0  0
  143.7000   75.6910  218.8910 F   0  0  0  0  0  0  0  0  0  0  0  0
  141.7150   75.8540  217.8340 F   0  0  0  0  0  0  0  0  0  0  0  0
  142.9510   77.6990  218.2030 F   0  0  0  0  0  0  0  0  0  0  0  0
  142.0670   77.7960  220.7620 N   0  0  0  0  0  0  0  0  0  0  0  0
  141.4570   77.9890  221.9630 C   0  0  0  0  0  0  0  0  0  0  0  0
  141.6750   79.2460  222.7210 C   0  0  0  0  0  0  0  0  0  0  0  0
  142.9740   79.6440  223.0920 C   0  0  0  0  0  0  0  0  0  0  0  0
  143.1770   80.8290  223.8060 C   0  0  0  0  0  0  0  0  0  0  0  0
  142.0880   81.6290  224.1600 C   0  0  0  0  0  0  0  0  0  0  0  0
  140.7950   81.2470  223.7990 C   0  0  0  0  0  0  0  0  0  0  0  0
  140.5860   80.0630  223.0840 C   0  0  0  0  0  0  0  0  0  0  0  0
  140.6450   77.0170  222.4610 N   0  0  0  0  0  0  0  0  0  0  0  0
  139.5970   72.7855  222.7156 H   0  0  0  0  0  0  0  0  0  0  0  0
  138.6915   73.2844  221.2467 H   0  0  0  0  0  0  0  0  0  0  0  0
  140.4876   73.3105  221.2467 H   0  0  0  0  0  0  0  0  0  0  0  0
  138.9050   75.1010  223.1060 H   0  0  0  0  0  0  0  0  0  0  0  0
  140.8869   74.7198  219.9907 H   0  0  0  0  0  0  0  0  0  0  0  0
  143.8357   79.0177  222.8179 H   0  0  0  0  0  0  0  0  0  0  0  0
  144.1959   81.1317  224.0894 H   0  0  0  0  0  0  0  0  0  0  0  0
  142.2494   82.5600  224.7232 H   0  0  0  0  0  0  0  0  0  0  0  0
  139.9384   81.8784  224.0774 H   0  0  0  0  0  0  0  0  0  0  0  0
  139.5643   79.7677  222.8032 H   0  0  0  0  0  0  0  0  0  0  0  0
  1  2  1  0
  2  3  1  0
  3  4  2  0
  4  5  1  0
  5  6  1  0
  6  7  1  0
  6  8  1  0
  6  9  1  0
  5 10  2  0
 10 11  1  0
 11 12  1  0
 12 13  2  0
 13 14  1  0
 14 15  2  0
 15 16  1  0
 16 17  2  0
 11 18  2  0
 18  3  1  0
 17 12  1  0
  1 19  1  0
  1 20  1  0
  1 21  1  0
  2 22  1  0
  4 23  1  0
 13 24  1  0
 14 25  1  0
 15 26  1  0
 16 27  1  0
 17 28  1  0
M  END
>  <UniqueID>  (38) 
14

>  <SMILES>  (38) 
CNc1cc(C(F)(F)F)nc(-c2ccccc2)n1

>  <Energy>  (38) 
26.9045707668376

>  <Genealogy>  (38) 
CNc1cc(C(F)(F)F)nc(-c2ccccc2)n1 (tautomer)
CNc1cc(C(F)(F)F)nc(-c2ccccc2)n1 (3D coordinates assigned)
CNc1cc(C(F)(F)F)nc(-c2ccccc2)n1 (optimized conformer: 26.9045707668376 kcal/mol)

>  <smiles>  (38) 
CN=c1cc(C(F)(F)F)[nH]c(-c2ccccc2)n1

>  <score_type>  (38) 
oracle

>  <origin>  (38) 
autodockgpu

>  <m_score__min__energy>  (38) 
-5.0999999999999996

>  <m_primary>  (38) 
energy

>  <meeko>  (38) 
{"free_energy": -4.84, "intermolecular_energy": -5.74, "internal_energy": -0.32, "cluster_size": 9, "cluster_id": 2, "rank_in_cluster": 2}

>  <energy>  (38) 
-4.83

>  <cluster_rmsd>  (38) 
0.15

>  <rmsd>  (38) 
273.06

>  <cluster>  (38) 
2

$$$$
IOQMMJGYZLYJFT-WYUMXYHSNA-N
     RDKit          3D

 28 29  0  0  0  0  0  0  0  0999 V2000
  139.5940   73.3600  221.8730 C   0  0  0  0  0  0  0  0  0  0  0  0
  139.5820   74.7440  222.3350 N   0  0  0  0  0  0  0  0  0  0  0  0
  140.4400   75.7400  221.7620 C   0  0  0  0  0  0  0  0  0  0  0  0
  141.0770   75.5020  220.5420 C   0  0  0  0  0  0  0  0  0  0  0  0
  141.9080   76.4970  220.0120 C   0  0  0  0  0  0  0  0  0  0  0  0
  142.6120   76.2820  218.7050 C   0  0  0  0  0  0  0  0  0  0  0  0
  143.0270   77.4990  218.1960 F   0  0  0  0  0  0  0  0  0  0  0  0
  143.7170   75.4710  218.9010 F   0  0  0  0  0  0  0  0  0  0  0  0
  141.7680   75.6770  217.7910 F   0  0  0  0  0  0  0  0  0  0  0  0
  142.0720   77.6620  220.6940 N   0  0  0  0  0  0  0  0  0  0  0  0
  141.4470   77.8870  221.8820 C   0  0  0  0  0  0  0  0  0  0  0  0
  141.6460   79.1680  222.6030 C   0  0  0  0  0  0  0  0  0  0  0  0
  140.5640   80.0450  222.8190 C   0  0  0  0  0  0  0  0  0  0  0  0
  140.7530   81.2520  223.4990 C   0  0  0  0  0  0  0  0  0  0  0  0
  142.0210   81.5990  223.9710 C   0  0  0  0  0  0  0  0  0  0  0  0
  143.1020   80.7400  223.7640 C   0  0  0  0  0  0  0  0  0  0  0  0
  142.9190   79.5320  223.0850 C   0  0  0  0  0  0  0  0  0  0  0  0
  140.6390   76.9240  222.4010 N   0  0  0  0  0  0  0  0  0  0  0  0
  139.5999   72.6839  222.7406 H   0  0  0  0  0  0  0  0  0  0  0  0
  138.6975   73.1686  221.2650 H   0  0  0  0  0  0  0  0  0  0  0  0
  140.4937   73.1842  221.2650 H   0  0  0  0  0  0  0  0  0  0  0  0
  138.9270   75.0070  223.1060 H   0  0  0  0  0  0  0  0  0  0  0  0
  140.9289   74.5518  220.0080 H   0  0  0  0  0  0  0  0  0  0  0  0
  139.5629   79.7778  222.4497 H   0  0  0  0  0  0  0  0  0  0  0  0
  139.9018   81.9293  223.6625 H   0  0  0  0  0  0  0  0  0  0  0  0
  142.1679   82.5490  224.5057 H   0  0  0  0  0  0  0  0  0  0  0  0
  144.1001   81.0145  224.1362 H   0  0  0  0  0  0  0  0  0  0  0  0
  143.7754   78.8603  222.9257 H   0  0  0  0  0  0  0  0  0  0  0  0
  1  2  1  0
  2  3  1  0
  3  4  2  0
  4  5  1  0
  5  6  1  0
  6  7  1  0
  6  8  1  0
  6  9  1  0
  5 10  2  0
 10 11  1  0
 11 12  1  0
 12 13  2  0
 13 14  1  0
 14 15  2  0
 15 16  1  0
 16 17  2  0
 11 18  2  0
 18  3  1  0
 17 12  1  0
  1 19  1  0
  1 20  1  0
  1 21  1  0
  2 22  1  0
  4 23  1  0
 13 24  1  0
 14 25  1  0
 15 26  1  0
 16 27  1  0
 17 28  1  0
M  END
>  <UniqueID>  (39) 
14

>  <SMILES>  (39) 
CNc1cc(C(F)(F)F)nc(-c2ccccc2)n1

>  <Energy>  (39) 
26.9045707668376

>  <Genealogy>  (39) 
CNc1cc(C(F)(F)F)nc(-c2ccccc2)n1 (tautomer)
CNc1cc(C(F)(F)F)nc(-c2ccccc2)n1 (3D coordinates assigned)
CNc1cc(C(F)(F)F)nc(-c2ccccc2)n1 (optimized conformer: 26.9045707668376 kcal/mol)

>  <smiles>  (39) 
CN=c1cc(C(F)(F)F)[nH]c(-c2ccccc2)n1

>  <score_type>  (39) 
oracle

>  <origin>  (39) 
autodockgpu

>  <m_score__min__energy>  (39) 
-5.0999999999999996

>  <m_primary>  (39) 
energy

>  <meeko>  (39) 
{"free_energy": -4.83, "intermolecular_energy": -5.73, "internal_energy": -0.32, "cluster_size": 9, "cluster_id": 2, "rank_in_cluster": 6}

>  <energy>  (39) 
-4.83

>  <cluster_rmsd>  (39) 
0.54

>  <rmsd>  (39) 
272.81

>  <cluster>  (39) 
2

$$$$
IOQMMJGYZLYJFT-WYUMXYHSNA-N
     RDKit          3D

 28 29  0  0  0  0  0  0  0  0999 V2000
  139.5680   73.3800  221.8020 C   0  0  0  0  0  0  0  0  0  0  0  0
  139.5840   74.7500  222.3020 N   0  0  0  0  0  0  0  0  0  0  0  0
  140.4350   75.7530  221.7320 C   0  0  0  0  0  0  0  0  0  0  0  0
  141.0620   75.5290  220.5040 C   0  0  0  0  0  0  0  0  0  0  0  0
  141.8870   76.5300  219.9770 C   0  0  0  0  0  0  0  0  0  0  0  0
  142.5810   76.3290  218.6620 C   0  0  0  0  0  0  0  0  0  0  0  0
  142.9660   77.5540  218.1490 F   0  0  0  0  0  0  0  0  0  0  0  0
  143.7020   75.5390  218.8440 F   0  0  0  0  0  0  0  0  0  0  0  0
  141.7380   75.7090  217.7570 F   0  0  0  0  0  0  0  0  0  0  0  0
  142.0540   77.6890  220.6680 N   0  0  0  0  0  0  0  0  0  0  0  0
  141.4390   77.9010  221.8630 C   0  0  0  0  0  0  0  0  0  0  0  0
  141.6410   79.1760  222.5950 C   0  0  0  0  0  0  0  0  0  0  0  0
  142.9130   79.5260  223.0900 C   0  0  0  0  0  0  0  0  0  0  0  0
  143.1000   80.7280  223.7780 C   0  0  0  0  0  0  0  0  0  0  0  0
  142.0230   81.5950  223.9820 C   0  0  0  0  0  0  0  0  0  0  0  0
  140.7580   81.2610  223.4960 C   0  0  0  0  0  0  0  0  0  0  0  0
  140.5640   80.0610  222.8060 C   0  0  0  0  0  0  0  0  0  0  0  0
  140.6370   76.9310  222.3810 N   0  0  0  0  0  0  0  0  0  0  0  0
  139.5598   72.6801  222.6505 H   0  0  0  0  0  0  0  0  0  0  0  0
  138.6680   73.2238  221.1892 H   0  0  0  0  0  0  0  0  0  0  0  0
  140.4641   73.2028  221.1892 H   0  0  0  0  0  0  0  0  0  0  0  0
  138.9560   74.9970  223.1000 H   0  0  0  0  0  0  0  0  0  0  0  0
  140.9105   74.5842  219.9614 H   0  0  0  0  0  0  0  0  0  0  0  0
  143.7651   78.8481  222.9337 H   0  0  0  0  0  0  0  0  0  0  0  0
  144.0972   80.9923  224.1598 H   0  0  0  0  0  0  0  0  0  0  0  0
  142.1722   82.5399  224.5251 H   0  0  0  0  0  0  0  0  0  0  0  0
  139.9110   81.9443  223.6565 H   0  0  0  0  0  0  0  0  0  0  0  0
  139.5642   79.8054  222.4250 H   0  0  0  0  0  0  0  0  0  0  0  0
  1  2  1  0
  2  3  1  0
  3  4  2  0
  4  5  1  0
  5  6  1  0
  6  7  1  0
  6  8  1  0
  6  9  1  0
  5 10  2  0
 10 11  1  0
 11 12  1  0
 12 13  2  0
 13 14  1  0
 14 15  2  0
 15 16  1  0
 16 17  2  0
 11 18  2  0
 18  3  1  0
 17 12  1  0
  1 19  1  0
  1 20  1  0
  1 21  1  0
  2 22  1  0
  4 23  1  0
 13 24  1  0
 14 25  1  0
 15 26  1  0
 16 27  1  0
 17 28  1  0
M  END
>  <UniqueID>  (40) 
14

>  <SMILES>  (40) 
CNc1cc(C(F)(F)F)nc(-c2ccccc2)n1

>  <Energy>  (40) 
26.9045707668376

>  <Genealogy>  (40) 
CNc1cc(C(F)(F)F)nc(-c2ccccc2)n1 (tautomer)
CNc1cc(C(F)(F)F)nc(-c2ccccc2)n1 (3D coordinates assigned)
CNc1cc(C(F)(F)F)nc(-c2ccccc2)n1 (optimized conformer: 26.9045707668376 kcal/mol)

>  <smiles>  (40) 
CN=c1cc(C(F)(F)F)[nH]c(-c2ccccc2)n1

>  <score_type>  (40) 
oracle

>  <origin>  (40) 
autodockgpu

>  <m_score__min__energy>  (40) 
-5.0999999999999996

>  <m_primary>  (40) 
energy

>  <meeko>  (40) 
{"free_energy": -4.83, "intermolecular_energy": -5.73, "internal_energy": -0.32, "cluster_size": 9, "cluster_id": 2, "rank_in_cluster": 4}

>  <energy>  (40) 
-4.83

>  <cluster_rmsd>  (40) 
0.51

>  <rmsd>  (40) 
272.83

>  <cluster>  (40) 
2

$$$$
DFSGRXNYZSWKCS-UHFFFAOYNA-N
     RDKit          3D

 27 28  0  0  0  0  0  0  0  0999 V2000
  141.2477   69.7861  229.3891 H   0  0  0  0  0  0  0  0  0  0  0  0
  141.0170   70.0360  228.3430 C   0  0  0  0  0  0  0  0  0  0  0  0
  141.0400   71.3670  227.9210 C   0  0  0  0  0  0  0  0  0  0  0  0
  141.2892   72.1649  228.6360 H   0  0  0  0  0  0  0  0  0  0  0  0
  140.7470   71.6880  226.5920 C   0  0  0  0  0  0  0  0  0  0  0  0
  140.7658   72.7388  226.2673 H   0  0  0  0  0  0  0  0  0  0  0  0
  140.4280   70.6760  225.6660 C   0  0  0  0  0  0  0  0  0  0  0  0
  140.1170   71.0120  224.2550 C   0  0  0  0  0  0  0  0  0  0  0  0
  140.3670   72.2610  223.7740 N   0  0  0  0  0  0  0  0  0  0  0  0
  140.0910   72.5960  222.4840 C   0  0  0  0  0  0  0  0  0  0  0  0
  140.3340   73.7920  222.0380 N   0  0  0  0  0  0  0  0  0  0  0  0
  141.2870   74.0860  220.9730 C   0  0  0  0  0  0  0  0  0  0  0  0
  142.2498   74.3830  221.4143 H   0  0  0  0  0  0  0  0  0  0  0  0
  141.4296   73.1901  220.3509 H   0  0  0  0  0  0  0  0  0  0  0  0
  140.9001   74.9065  220.3509 H   0  0  0  0  0  0  0  0  0  0  0  0
  139.5400   71.6390  221.6300 C   0  0  0  0  0  0  0  0  0  0  0  0
  139.3090   71.8885  220.5839 H   0  0  0  0  0  0  0  0  0  0  0  0
  139.2870   70.3570  222.1290 C   0  0  0  0  0  0  0  0  0  0  0  0
  138.6940   69.3000  221.2440 C   0  0  0  0  0  0  0  0  0  0  0  0
  139.6480   68.8590  220.3440 F   0  0  0  0  0  0  0  0  0  0  0  0
  138.2590   68.2230  221.9970 F   0  0  0  0  0  0  0  0  0  0  0  0
  137.6190   69.8230  220.5490 F   0  0  0  0  0  0  0  0  0  0  0  0
  139.5800   70.0760  223.4270 N   0  0  0  0  0  0  0  0  0  0  0  0
  140.4080   69.3370  226.1050 C   0  0  0  0  0  0  0  0  0  0  0  0
  140.1603   68.5333  225.3960 H   0  0  0  0  0  0  0  0  0  0  0  0
  140.7010   69.0230  227.4360 C   0  0  0  0  0  0  0  0  0  0  0  0
  140.6824   67.9748  227.7691 H   0  0  0  0  0  0  0  0  0  0  0  0
  1  2  1  0
  2  3  2  0
  3  4  1  0
  3  5  1  0
  5  6  1  0
  5  7  2  0
  7  8  1  0
  8  9  2  0
  9 10  1  0
 10 11  2  0
 11 12  1  0
 12 13  1  0
 12 14  1  0
 12 15  1  0
 10 16  1  0
 16 17  1  0
 16 18  2  0
 18 19  1  0
 19 20  1  0
 19 21  1  0
 19 22  1  0
 18 23  1  0
  7 24  1  0
 24 25  1  0
 24 26  2  0
 26 27  1  0
 26  2  1  0
 23  8  1  0
M  CHG  1  23  -1
M  END
>  <UniqueID>  (41) 
15

>  <SMILES>  (41) 
C/N=c1/cc(C(F)(F)F)[n-]c(-c2ccccc2)n1

>  <Energy>  (41) 
27.79797828538736

>  <Genealogy>  (41) 
CN=c1cc(C(F)(F)F)[n-]c(-c2ccccc2)n1 (protonated)
C/N=c1/cc(C(F)(F)F)[n-]c(-c2ccccc2)n1 (cis-trans isomerization)
C/N=c1/cc(C(F)(F)F)[n-]c(-c2ccccc2)n1 (3D coordinates assigned)
C/N=c1/cc(C(F)(F)F)[n-]c(-c2ccccc2)n1 (optimized conformer: 27.79797828538736 kcal/mol)

>  <smiles>  (41) 
CN=c1cc(C(F)(F)F)[nH]c(-c2ccccc2)n1

>  <score_type>  (41) 
oracle

>  <origin>  (41) 
autodockgpu

>  <m_score__min__energy>  (41) 
-5.0899999999999999

>  <m_primary>  (41) 
energy

>  <meeko>  (41) 
{"free_energy": -5.08, "intermolecular_energy": -5.97, "internal_energy": -0.29, "cluster_size": 19, "cluster_id": 1, "rank_in_cluster": 10}

>  <energy>  (41) 
-5.09

>  <cluster_rmsd>  (41) 
0.0

>  <rmsd>  (41) 
270.55

>  <cluster>  (41) 
1

$$$$
DFSGRXNYZSWKCS-UHFFFAOYNA-N
     RDKit          3D

 27 28  0  0  0  0  0  0  0  0999 V2000
  141.1649   69.8396  229.3943 H   0  0  0  0  0  0  0  0  0  0  0  0
  140.9470   70.0790  228.3430 C   0  0  0  0  0  0  0  0  0  0  0  0
  141.0710   71.3920  227.8850 C   0  0  0  0  0  0  0  0  0  0  0  0
  141.3860   72.1867  228.5772 H   0  0  0  0  0  0  0  0  0  0  0  0
  140.7960   71.7000  226.5490 C   0  0  0  0  0  0  0  0  0  0  0  0
  140.8967   72.7368  226.1955 H   0  0  0  0  0  0  0  0  0  0  0  0
  140.3910   70.6920  225.6530 C   0  0  0  0  0  0  0  0  0  0  0  0
  140.0980   71.0140  224.2350 C   0  0  0  0  0  0  0  0  0  0  0  0
  140.3430   72.2620  223.7470 N   0  0  0  0  0  0  0  0  0  0  0  0
  140.0830   72.5840  222.4510 C   0  0  0  0  0  0  0  0  0  0  0  0
  140.3210   73.7790  221.9990 N   0  0  0  0  0  0  0  0  0  0  0  0
  139.3200   74.8380  221.9310 C   0  0  0  0  0  0  0  0  0  0  0  0
  139.0352   75.1393  222.9499 H   0  0  0  0  0  0  0  0  0  0  0  0
  139.7377   75.7036  221.3959 H   0  0  0  0  0  0  0  0  0  0  0  0
  138.4323   74.4697  221.3959 H   0  0  0  0  0  0  0  0  0  0  0  0
  139.5540   71.6150  221.5960 C   0  0  0  0  0  0  0  0  0  0  0  0
  139.3372   71.8538  220.5443 H   0  0  0  0  0  0  0  0  0  0  0  0
  139.3050   70.3350  222.1020 C   0  0  0  0  0  0  0  0  0  0  0  0
  138.7360   69.2650  221.2170 C   0  0  0  0  0  0  0  0  0  0  0  0
  138.2940   68.2070  221.9920 F   0  0  0  0  0  0  0  0  0  0  0  0
  137.6710   69.7560  220.4820 F   0  0  0  0  0  0  0  0  0  0  0  0
  139.7100   68.8140  220.3450 F   0  0  0  0  0  0  0  0  0  0  0  0
  139.5820   70.0660  223.4060 N   0  0  0  0  0  0  0  0  0  0  0  0
  140.2680   69.3710  226.1280 C   0  0  0  0  0  0  0  0  0  0  0  0
  139.9512   68.5712  225.4425 H   0  0  0  0  0  0  0  0  0  0  0  0
  140.5460   69.0700  227.4650 C   0  0  0  0  0  0  0  0  0  0  0  0
  140.4485   68.0355  227.8260 H   0  0  0  0  0  0  0  0  0  0  0  0
  1  2  1  0
  2  3  2  0
  3  4  1  0
  3  5  1  0
  5  6  1  0
  5  7  2  0
  7  8  1  0
  8  9  2  0
  9 10  1  0
 10 11  2  0
 11 12  1  0
 12 13  1  0
 12 14  1  0
 12 15  1  0
 10 16  1  0
 16 17  1  0
 16 18  2  0
 18 19  1  0
 19 20  1  0
 19 21  1  0
 19 22  1  0
 18 23  1  0
  7 24  1  0
 24 25  1  0
 24 26  2  0
 26 27  1  0
 26  2  1  0
 23  8  1  0
M  CHG  1  23  -1
M  END
>  <UniqueID>  (42) 
15

>  <SMILES>  (42) 
C/N=c1/cc(C(F)(F)F)[n-]c(-c2ccccc2)n1

>  <Energy>  (42) 
27.79797828538736

>  <Genealogy>  (42) 
CN=c1cc(C(F)(F)F)[n-]c(-c2ccccc2)n1 (protonated)
C/N=c1/cc(C(F)(F)F)[n-]c(-c2ccccc2)n1 (cis-trans isomerization)
C/N=c1/cc(C(F)(F)F)[n-]c(-c2ccccc2)n1 (3D coordinates assigned)
C/N=c1/cc(C(F)(F)F)[n-]c(-c2ccccc2)n1 (optimized conformer: 27.79797828538736 kcal/mol)

>  <smiles>  (42) 
CN=c1cc(C(F)(F)F)[nH]c(-c2ccccc2)n1

>  <score_type>  (42) 
oracle

>  <origin>  (42) 
autodockgpu

>  <m_score__min__energy>  (42) 
-5.0899999999999999

>  <m_primary>  (42) 
energy

>  <meeko>  (42) 
{"free_energy": -5.09, "intermolecular_energy": -5.99, "internal_energy": -0.3, "cluster_size": 19, "cluster_id": 1, "rank_in_cluster": 1}

>  <energy>  (42) 
-5.09

>  <cluster_rmsd>  (42) 
0.06

>  <rmsd>  (42) 
270.56

>  <cluster>  (42) 
1

$$$$
DFSGRXNYZSWKCS-UHFFFAOYNA-N
     RDKit          3D

 27 28  0  0  0  0  0  0  0  0999 V2000
  141.2537   69.7501  229.3659 H   0  0  0  0  0  0  0  0  0  0  0  0
  141.0240   70.0060  228.3210 C   0  0  0  0  0  0  0  0  0  0  0  0
  140.6940   68.9990  227.4110 C   0  0  0  0  0  0  0  0  0  0  0  0
  140.6652   67.9498  227.7401 H   0  0  0  0  0  0  0  0  0  0  0  0
  140.4000   69.3220  226.0820 C   0  0  0  0  0  0  0  0  0  0  0  0
  140.1403   68.5240  225.3708 H   0  0  0  0  0  0  0  0  0  0  0  0
  140.4340   70.6610  225.6480 C   0  0  0  0  0  0  0  0  0  0  0  0
  140.1230   71.0070  224.2390 C   0  0  0  0  0  0  0  0  0  0  0  0
  140.3620   72.2620  223.7700 N   0  0  0  0  0  0  0  0  0  0  0  0
  140.0860   72.6050  222.4820 C   0  0  0  0  0  0  0  0  0  0  0  0
  140.3190   73.8080  222.0470 N   0  0  0  0  0  0  0  0  0  0  0  0
  141.2810   74.1210  220.9960 C   0  0  0  0  0  0  0  0  0  0  0  0
  142.2333   74.4309  221.4510 H   0  0  0  0  0  0  0  0  0  0  0  0
  141.4454   73.2300  220.3722 H   0  0  0  0  0  0  0  0  0  0  0  0
  140.8897   74.9382  220.3722 H   0  0  0  0  0  0  0  0  0  0  0  0
  139.5450   71.6520  221.6180 C   0  0  0  0  0  0  0  0  0  0  0  0
  139.3140   71.9089  220.5737 H   0  0  0  0  0  0  0  0  0  0  0  0
  139.3020   70.3630  222.1060 C   0  0  0  0  0  0  0  0  0  0  0  0
  138.7200   69.3080  221.2100 C   0  0  0  0  0  0  0  0  0  0  0  0
  139.6760   68.8940  220.2990 F   0  0  0  0  0  0  0  0  0  0  0  0
  138.3060   68.2150  221.9520 F   0  0  0  0  0  0  0  0  0  0  0  0
  137.6340   69.8240  220.5280 F   0  0  0  0  0  0  0  0  0  0  0  0
  139.5950   70.0730  223.4010 N   0  0  0  0  0  0  0  0  0  0  0  0
  140.7700   71.6670  226.5750 C   0  0  0  0  0  0  0  0  0  0  0  0
  140.8030   72.7182  226.2526 H   0  0  0  0  0  0  0  0  0  0  0  0
  141.0620   71.3380  227.9030 C   0  0  0  0  0  0  0  0  0  0  0  0
  141.3222   72.1306  228.6199 H   0  0  0  0  0  0  0  0  0  0  0  0
  1  2  1  0
  2  3  2  0
  3  4  1  0
  3  5  1  0
  5  6  1  0
  5  7  2  0
  7  8  1  0
  8  9  2  0
  9 10  1  0
 10 11  2  0
 11 12  1  0
 12 13  1  0
 12 14  1  0
 12 15  1  0
 10 16  1  0
 16 17  1  0
 16 18  2  0
 18 19  1  0
 19 20  1  0
 19 21  1  0
 19 22  1  0
 18 23  1  0
  7 24  1  0
 24 25  1  0
 24 26  2  0
 26 27  1  0
 26  2  1  0
 23  8  1  0
M  CHG  1  23  -1
M  END
>  <UniqueID>  (43) 
15

>  <SMILES>  (43) 
C/N=c1/cc(C(F)(F)F)[n-]c(-c2ccccc2)n1

>  <Energy>  (43) 
27.79797828538736

>  <Genealogy>  (43) 
CN=c1cc(C(F)(F)F)[n-]c(-c2ccccc2)n1 (protonated)
C/N=c1/cc(C(F)(F)F)[n-]c(-c2ccccc2)n1 (cis-trans isomerization)
C/N=c1/cc(C(F)(F)F)[n-]c(-c2ccccc2)n1 (3D coordinates assigned)
C/N=c1/cc(C(F)(F)F)[n-]c(-c2ccccc2)n1 (optimized conformer: 27.79797828538736 kcal/mol)

>  <smiles>  (43) 
CN=c1cc(C(F)(F)F)[nH]c(-c2ccccc2)n1

>  <score_type>  (43) 
oracle

>  <origin>  (43) 
autodockgpu

>  <m_score__min__energy>  (43) 
-5.0899999999999999

>  <m_primary>  (43) 
energy

>  <meeko>  (43) 
{"free_energy": -5.07, "intermolecular_energy": -5.97, "internal_energy": -0.3, "cluster_size": 19, "cluster_id": 1, "rank_in_cluster": 19}

>  <energy>  (43) 
-5.08

>  <cluster_rmsd>  (43) 
0.12

>  <rmsd>  (43) 
270.57

>  <cluster>  (43) 
1

$$$$
DFSGRXNYZSWKCS-UHFFFAOYNA-N
     RDKit          3D

 27 28  0  0  0  0  0  0  0  0999 V2000
  141.1945   69.8093  229.3934 H   0  0  0  0  0  0  0  0  0  0  0  0
  140.9700   70.0550  228.3450 C   0  0  0  0  0  0  0  0  0  0  0  0
  140.6080   69.0440  227.4530 C   0  0  0  0  0  0  0  0  0  0  0  0
  140.5483   68.0018  227.7998 H   0  0  0  0  0  0  0  0  0  0  0  0
  140.3210   69.3530  226.1190 C   0  0  0  0  0  0  0  0  0  0  0  0
  140.0364   68.5513  225.4217 H   0  0  0  0  0  0  0  0  0  0  0  0
  140.3940   70.6830  225.6630 C   0  0  0  0  0  0  0  0  0  0  0  0
  140.0910   71.0150  224.2490 C   0  0  0  0  0  0  0  0  0  0  0  0
  140.3240   72.2680  223.7710 N   0  0  0  0  0  0  0  0  0  0  0  0
  140.0550   72.5990  222.4780 C   0  0  0  0  0  0  0  0  0  0  0  0
  140.2830   73.7990  222.0350 N   0  0  0  0  0  0  0  0  0  0  0  0
  139.2670   74.8430  221.9530 C   0  0  0  0  0  0  0  0  0  0  0  0
  138.9710   75.1471  222.9678 H   0  0  0  0  0  0  0  0  0  0  0  0
  139.6757   75.7109  221.4147 H   0  0  0  0  0  0  0  0  0  0  0  0
  138.3883   74.4581  221.4147 H   0  0  0  0  0  0  0  0  0  0  0  0
  139.5270   71.6340  221.6190 C   0  0  0  0  0  0  0  0  0  0  0  0
  139.3014   71.8804  220.5710 H   0  0  0  0  0  0  0  0  0  0  0  0
  139.2900   70.3480  222.1150 C   0  0  0  0  0  0  0  0  0  0  0  0
  138.7220   69.2820  221.2250 C   0  0  0  0  0  0  0  0  0  0  0  0
  139.7000   68.8360  220.3530 F   0  0  0  0  0  0  0  0  0  0  0  0
  138.2700   68.2100  221.9760 F   0  0  0  0  0  0  0  0  0  0  0  0
  137.6650   69.7960  220.4980 F   0  0  0  0  0  0  0  0  0  0  0  0
  139.5760   70.0710  223.4150 N   0  0  0  0  0  0  0  0  0  0  0  0
  140.7620   71.6940  226.5730 C   0  0  0  0  0  0  0  0  0  0  0  0
  140.8256   72.7383  226.2333 H   0  0  0  0  0  0  0  0  0  0  0  0
  141.0470   71.3780  227.9060 C   0  0  0  0  0  0  0  0  0  0  0  0
  141.3324   72.1739  228.6097 H   0  0  0  0  0  0  0  0  0  0  0  0
  1  2  1  0
  2  3  2  0
  3  4  1  0
  3  5  1  0
  5  6  1  0
  5  7  2  0
  7  8  1  0
  8  9  2  0
  9 10  1  0
 10 11  2  0
 11 12  1  0
 12 13  1  0
 12 14  1  0
 12 15  1  0
 10 16  1  0
 16 17  1  0
 16 18  2  0
 18 19  1  0
 19 20  1  0
 19 21  1  0
 19 22  1  0
 18 23  1  0
  7 24  1  0
 24 25  1  0
 24 26  2  0
 26 27  1  0
 26  2  1  0
 23  8  1  0
M  CHG  1  23  -1
M  END
>  <UniqueID>  (44) 
15

>  <SMILES>  (44) 
C/N=c1/cc(C(F)(F)F)[n-]c(-c2ccccc2)n1

>  <Energy>  (44) 
27.79797828538736

>  <Genealogy>  (44) 
CN=c1cc(C(F)(F)F)[n-]c(-c2ccccc2)n1 (protonated)
C/N=c1/cc(C(F)(F)F)[n-]c(-c2ccccc2)n1 (cis-trans isomerization)
C/N=c1/cc(C(F)(F)F)[n-]c(-c2ccccc2)n1 (3D coordinates assigned)
C/N=c1/cc(C(F)(F)F)[n-]c(-c2ccccc2)n1 (optimized conformer: 27.79797828538736 kcal/mol)

>  <smiles>  (44) 
CN=c1cc(C(F)(F)F)[nH]c(-c2ccccc2)n1

>  <score_type>  (44) 
oracle

>  <origin>  (44) 
autodockgpu

>  <m_score__min__energy>  (44) 
-5.0899999999999999

>  <m_primary>  (44) 
energy

>  <meeko>  (44) 
{"free_energy": -5.08, "intermolecular_energy": -5.98, "internal_energy": -0.3, "cluster_size": 19, "cluster_id": 1, "rank_in_cluster": 7}

>  <energy>  (44) 
-5.08

>  <cluster_rmsd>  (44) 
0.07

>  <rmsd>  (44) 
270.57

>  <cluster>  (44) 
1

$$$$
DFSGRXNYZSWKCS-UHFFFAOYNA-N
     RDKit          3D

 27 28  0  0  0  0  0  0  0  0999 V2000
  141.1993   69.8223  229.3897 H   0  0  0  0  0  0  0  0  0  0  0  0
  140.9820   70.0650  228.3390 C   0  0  0  0  0  0  0  0  0  0  0  0
  141.0520   71.3880  227.8990 C   0  0  0  0  0  0  0  0  0  0  0  0
  141.3240   72.1871  228.6043 H   0  0  0  0  0  0  0  0  0  0  0  0
  140.7770   71.7000  226.5630 C   0  0  0  0  0  0  0  0  0  0  0  0
  140.8330   72.7448  226.2235 H   0  0  0  0  0  0  0  0  0  0  0  0
  140.4290   70.6860  225.6500 C   0  0  0  0  0  0  0  0  0  0  0  0
  140.1370   71.0120  224.2330 C   0  0  0  0  0  0  0  0  0  0  0  0
  140.3630   72.2670  223.7550 N   0  0  0  0  0  0  0  0  0  0  0  0
  140.1050   72.5920  222.4590 C   0  0  0  0  0  0  0  0  0  0  0  0
  140.3260   73.7940  222.0160 N   0  0  0  0  0  0  0  0  0  0  0  0
  139.2980   74.8240  221.9070 C   0  0  0  0  0  0  0  0  0  0  0  0
  138.9850   75.1376  222.9138 H   0  0  0  0  0  0  0  0  0  0  0  0
  139.7028   75.6898  221.3625 H   0  0  0  0  0  0  0  0  0  0  0  0
  138.4314   74.4209  221.3625 H   0  0  0  0  0  0  0  0  0  0  0  0
  139.5950   71.6210  221.5950 C   0  0  0  0  0  0  0  0  0  0  0  0
  139.3784   71.8634  220.5441 H   0  0  0  0  0  0  0  0  0  0  0  0
  139.3650   70.3340  222.0920 C   0  0  0  0  0  0  0  0  0  0  0  0
  138.8170   69.2600  221.1980 C   0  0  0  0  0  0  0  0  0  0  0  0
  138.3980   68.1870  221.9630 F   0  0  0  0  0  0  0  0  0  0  0  0
  137.7410   69.7360  220.4690 F   0  0  0  0  0  0  0  0  0  0  0  0
  139.8000   68.8380  220.3210 F   0  0  0  0  0  0  0  0  0  0  0  0
  139.6400   70.0610  223.3960 N   0  0  0  0  0  0  0  0  0  0  0  0
  140.3600   69.3550  226.1080 C   0  0  0  0  0  0  0  0  0  0  0  0
  140.0872   68.5504  225.4093 H   0  0  0  0  0  0  0  0  0  0  0  0
  140.6360   69.0500  227.4450 C   0  0  0  0  0  0  0  0  0  0  0  0
  140.5803   68.0079  227.7928 H   0  0  0  0  0  0  0  0  0  0  0  0
  1  2  1  0
  2  3  2  0
  3  4  1  0
  3  5  1  0
  5  6  1  0
  5  7  2  0
  7  8  1  0
  8  9  2  0
  9 10  1  0
 10 11  2  0
 11 12  1  0
 12 13  1  0
 12 14  1  0
 12 15  1  0
 10 16  1  0
 16 17  1  0
 16 18  2  0
 18 19  1  0
 19 20  1  0
 19 21  1  0
 19 22  1  0
 18 23  1  0
  7 24  1  0
 24 25  1  0
 24 26  2  0
 26 27  1  0
 26  2  1  0
 23  8  1  0
M  CHG  1  23  -1
M  END
>  <UniqueID>  (45) 
15

>  <SMILES>  (45) 
C/N=c1/cc(C(F)(F)F)[n-]c(-c2ccccc2)n1

>  <Energy>  (45) 
27.79797828538736

>  <Genealogy>  (45) 
CN=c1cc(C(F)(F)F)[n-]c(-c2ccccc2)n1 (protonated)
C/N=c1/cc(C(F)(F)F)[n-]c(-c2ccccc2)n1 (cis-trans isomerization)
C/N=c1/cc(C(F)(F)F)[n-]c(-c2ccccc2)n1 (3D coordinates assigned)
C/N=c1/cc(C(F)(F)F)[n-]c(-c2ccccc2)n1 (optimized conformer: 27.79797828538736 kcal/mol)

>  <smiles>  (45) 
CN=c1cc(C(F)(F)F)[nH]c(-c2ccccc2)n1

>  <score_type>  (45) 
oracle

>  <origin>  (45) 
autodockgpu

>  <m_score__min__energy>  (45) 
-5.0899999999999999

>  <m_primary>  (45) 
energy

>  <meeko>  (45) 
{"free_energy": -5.09, "intermolecular_energy": -5.98, "internal_energy": -0.3, "cluster_size": 19, "cluster_id": 1, "rank_in_cluster": 2}

>  <energy>  (45) 
-5.08

>  <cluster_rmsd>  (45) 
0.06

>  <rmsd>  (45) 
270.55

>  <cluster>  (45) 
1

$$$$
DFSGRXNYZSWKCS-UHFFFAOYNA-N
     RDKit          3D

 27 28  0  0  0  0  0  0  0  0999 V2000
  141.2511   69.8140  229.3900 H   0  0  0  0  0  0  0  0  0  0  0  0
  141.0070   70.0600  228.3460 C   0  0  0  0  0  0  0  0  0  0  0  0
  140.6720   69.0440  227.4490 C   0  0  0  0  0  0  0  0  0  0  0  0
  140.6526   67.9975  227.7873 H   0  0  0  0  0  0  0  0  0  0  0  0
  140.3610   69.3540  226.1210 C   0  0  0  0  0  0  0  0  0  0  0  0
  140.0987   68.5482  225.4196 H   0  0  0  0  0  0  0  0  0  0  0  0
  140.3810   70.6890  225.6750 C   0  0  0  0  0  0  0  0  0  0  0  0
  140.0510   71.0220  224.2680 C   0  0  0  0  0  0  0  0  0  0  0  0
  140.3460   72.2510  223.7630 N   0  0  0  0  0  0  0  0  0  0  0  0
  140.0550   72.5820  222.4760 C   0  0  0  0  0  0  0  0  0  0  0  0
  140.3420   73.7590  222.0070 N   0  0  0  0  0  0  0  0  0  0  0  0
  139.3930   74.8660  221.9460 C   0  0  0  0  0  0  0  0  0  0  0  0
  139.1264   75.1770  222.9669 H   0  0  0  0  0  0  0  0  0  0  0  0
  139.8506   75.7122  221.4126 H   0  0  0  0  0  0  0  0  0  0  0  0
  138.4868   74.5431  221.4126 H   0  0  0  0  0  0  0  0  0  0  0  0
  139.4380   71.6410  221.6480 C   0  0  0  0  0  0  0  0  0  0  0  0
  139.1935   71.8875  220.6042 H   0  0  0  0  0  0  0  0  0  0  0  0
  139.1370   70.3790  222.1720 C   0  0  0  0  0  0  0  0  0  0  0  0
  138.4740   69.3400  221.3170 C   0  0  0  0  0  0  0  0  0  0  0  0
  138.4940   68.1200  221.9690 F   0  0  0  0  0  0  0  0  0  0  0  0
  137.1590   69.6880  221.0590 F   0  0  0  0  0  0  0  0  0  0  0  0
  139.1490   69.2240  220.1150 F   0  0  0  0  0  0  0  0  0  0  0  0
  139.4500   70.1010  223.4660 N   0  0  0  0  0  0  0  0  0  0  0  0
  140.7220   71.7050  226.5900 C   0  0  0  0  0  0  0  0  0  0  0  0
  140.7446   72.7536  226.2585 H   0  0  0  0  0  0  0  0  0  0  0  0
  141.0320   71.3890  227.9170 C   0  0  0  0  0  0  0  0  0  0  0  0
  141.2961   72.1890  228.6243 H   0  0  0  0  0  0  0  0  0  0  0  0
  1  2  1  0
  2  3  2  0
  3  4  1  0
  3  5  1  0
  5  6  1  0
  5  7  2  0
  7  8  1  0
  8  9  2  0
  9 10  1  0
 10 11  2  0
 11 12  1  0
 12 13  1  0
 12 14  1  0
 12 15  1  0
 10 16  1  0
 16 17  1  0
 16 18  2  0
 18 19  1  0
 19 20  1  0
 19 21  1  0
 19 22  1  0
 18 23  1  0
  7 24  1  0
 24 25  1  0
 24 26  2  0
 26 27  1  0
 26  2  1  0
 23  8  1  0
M  CHG  1  23  -1
M  END
>  <UniqueID>  (46) 
15

>  <SMILES>  (46) 
C/N=c1/cc(C(F)(F)F)[n-]c(-c2ccccc2)n1

>  <Energy>  (46) 
27.79797828538736

>  <Genealogy>  (46) 
CN=c1cc(C(F)(F)F)[n-]c(-c2ccccc2)n1 (protonated)
C/N=c1/cc(C(F)(F)F)[n-]c(-c2ccccc2)n1 (cis-trans isomerization)
C/N=c1/cc(C(F)(F)F)[n-]c(-c2ccccc2)n1 (3D coordinates assigned)
C/N=c1/cc(C(F)(F)F)[n-]c(-c2ccccc2)n1 (optimized conformer: 27.79797828538736 kcal/mol)

>  <smiles>  (46) 
CN=c1cc(C(F)(F)F)[nH]c(-c2ccccc2)n1

>  <score_type>  (46) 
oracle

>  <origin>  (46) 
autodockgpu

>  <m_score__min__energy>  (46) 
-5.0899999999999999

>  <m_primary>  (46) 
energy

>  <meeko>  (46) 
{"free_energy": -5.08, "intermolecular_energy": -5.97, "internal_energy": -0.3, "cluster_size": 19, "cluster_id": 1, "rank_in_cluster": 16}

>  <energy>  (46) 
-5.08

>  <cluster_rmsd>  (46) 
0.07

>  <rmsd>  (46) 
270.57

>  <cluster>  (46) 
1

$$$$
DFSGRXNYZSWKCS-UHFFFAOYNA-N
     RDKit          3D

 27 28  0  0  0  0  0  0  0  0999 V2000
  141.3056   69.8021  229.3776 H   0  0  0  0  0  0  0  0  0  0  0  0
  141.0630   70.0510  228.3340 C   0  0  0  0  0  0  0  0  0  0  0  0
  140.7490   69.0360  227.4290 C   0  0  0  0  0  0  0  0  0  0  0  0
  140.7452   67.9872  227.7606 H   0  0  0  0  0  0  0  0  0  0  0  0
  140.4390   69.3490  226.1010 C   0  0  0  0  0  0  0  0  0  0  0  0
  140.1920   68.5438  225.3934 H   0  0  0  0  0  0  0  0  0  0  0  0
  140.4410   70.6880  225.6640 C   0  0  0  0  0  0  0  0  0  0  0  0
  140.1130   71.0240  224.2570 C   0  0  0  0  0  0  0  0  0  0  0  0
  140.3800   72.2660  223.7660 N   0  0  0  0  0  0  0  0  0  0  0  0
  140.0900   72.6000  222.4790 C   0  0  0  0  0  0  0  0  0  0  0  0
  140.3510   73.7890  222.0230 N   0  0  0  0  0  0  0  0  0  0  0  0
  139.3550   74.8460  221.8880 C   0  0  0  0  0  0  0  0  0  0  0  0
  139.0388   75.1816  222.8867 H   0  0  0  0  0  0  0  0  0  0  0  0
  139.7912   75.6927  221.3377 H   0  0  0  0  0  0  0  0  0  0  0  0
  138.4839   74.4608  221.3377 H   0  0  0  0  0  0  0  0  0  0  0  0
  139.5040   71.6520  221.6390 C   0  0  0  0  0  0  0  0  0  0  0  0
  139.2606   71.9018  220.5958 H   0  0  0  0  0  0  0  0  0  0  0  0
  139.2320   70.3780  222.1490 C   0  0  0  0  0  0  0  0  0  0  0  0
  138.6020   69.3300  221.2790 C   0  0  0  0  0  0  0  0  0  0  0  0
  139.5280   68.8700  220.3600 F   0  0  0  0  0  0  0  0  0  0  0  0
  138.1630   68.2620  222.0440 F   0  0  0  0  0  0  0  0  0  0  0  0
  137.5210   69.8700  220.6060 F   0  0  0  0  0  0  0  0  0  0  0  0
  139.5410   70.0960  223.4420 N   0  0  0  0  0  0  0  0  0  0  0  0
  140.7610   71.7030  226.5880 C   0  0  0  0  0  0  0  0  0  0  0  0
  140.7686   72.7543  226.2642 H   0  0  0  0  0  0  0  0  0  0  0  0
  141.0690   71.3820  227.9140 C   0  0  0  0  0  0  0  0  0  0  0  0
  141.3168   72.1811  228.6282 H   0  0  0  0  0  0  0  0  0  0  0  0
  1  2  1  0
  2  3  2  0
  3  4  1  0
  3  5  1  0
  5  6  1  0
  5  7  2  0
  7  8  1  0
  8  9  2  0
  9 10  1  0
 10 11  2  0
 11 12  1  0
 12 13  1  0
 12 14  1  0
 12 15  1  0
 10 16  1  0
 16 17  1  0
 16 18  2  0
 18 19  1  0
 19 20  1  0
 19 21  1  0
 19 22  1  0
 18 23  1  0
  7 24  1  0
 24 25  1  0
 24 26  2  0
 26 27  1  0
 26  2  1  0
 23  8  1  0
M  CHG  1  23  -1
M  END
>  <UniqueID>  (47) 
15

>  <SMILES>  (47) 
C/N=c1/cc(C(F)(F)F)[n-]c(-c2ccccc2)n1

>  <Energy>  (47) 
27.79797828538736

>  <Genealogy>  (47) 
CN=c1cc(C(F)(F)F)[n-]c(-c2ccccc2)n1 (protonated)
C/N=c1/cc(C(F)(F)F)[n-]c(-c2ccccc2)n1 (cis-trans isomerization)
C/N=c1/cc(C(F)(F)F)[n-]c(-c2ccccc2)n1 (3D coordinates assigned)
C/N=c1/cc(C(F)(F)F)[n-]c(-c2ccccc2)n1 (optimized conformer: 27.79797828538736 kcal/mol)

>  <smiles>  (47) 
CN=c1cc(C(F)(F)F)[nH]c(-c2ccccc2)n1

>  <score_type>  (47) 
oracle

>  <origin>  (47) 
autodockgpu

>  <m_score__min__energy>  (47) 
-5.0899999999999999

>  <m_primary>  (47) 
energy

>  <meeko>  (47) 
{"free_energy": -5.08, "intermolecular_energy": -5.98, "internal_energy": -0.3, "cluster_size": 19, "cluster_id": 1, "rank_in_cluster": 3}

>  <energy>  (47) 
-5.08

>  <cluster_rmsd>  (47) 
0.04

>  <rmsd>  (47) 
270.55

>  <cluster>  (47) 
1

$$$$
DFSGRXNYZSWKCS-UHFFFAOYNA-N
     RDKit          3D

 27 28  0  0  0  0  0  0  0  0999 V2000
  141.2217   69.8301  229.3923 H   0  0  0  0  0  0  0  0  0  0  0  0
  140.9980   70.0730  228.3430 C   0  0  0  0  0  0  0  0  0  0  0  0
  140.6710   69.0550  227.4450 C   0  0  0  0  0  0  0  0  0  0  0  0
  140.6374   68.0104  227.7880 H   0  0  0  0  0  0  0  0  0  0  0  0
  140.3860   69.3610  226.1100 C   0  0  0  0  0  0  0  0  0  0  0  0
  140.1296   68.5543  225.4075 H   0  0  0  0  0  0  0  0  0  0  0  0
  140.4250   70.6950  225.6590 C   0  0  0  0  0  0  0  0  0  0  0  0
  140.1230   71.0240  224.2440 C   0  0  0  0  0  0  0  0  0  0  0  0
  140.3730   72.2710  223.7590 N   0  0  0  0  0  0  0  0  0  0  0  0
  140.1060   72.5990  222.4650 C   0  0  0  0  0  0  0  0  0  0  0  0
  140.3500   73.7930  222.0150 N   0  0  0  0  0  0  0  0  0  0  0  0
  139.3560   74.8600  221.9580 C   0  0  0  0  0  0  0  0  0  0  0  0
  139.0786   75.1577  222.9800 H   0  0  0  0  0  0  0  0  0  0  0  0
  139.7772   75.7255  221.4255 H   0  0  0  0  0  0  0  0  0  0  0  0
  138.4629   74.5011  221.4255 H   0  0  0  0  0  0  0  0  0  0  0  0
  139.5620   71.6370  221.6120 C   0  0  0  0  0  0  0  0  0  0  0  0
  139.3373   71.8810  220.5632 H   0  0  0  0  0  0  0  0  0  0  0  0
  139.3080   70.3570  222.1160 C   0  0  0  0  0  0  0  0  0  0  0  0
  138.7230   69.2940  221.2320 C   0  0  0  0  0  0  0  0  0  0  0  0
  137.5890   69.7810  220.6080 F   0  0  0  0  0  0  0  0  0  0  0  0
  139.6360   68.9090  220.2640 F   0  0  0  0  0  0  0  0  0  0  0  0
  138.3860   68.1900  221.9930 F   0  0  0  0  0  0  0  0  0  0  0  0
  139.5930   70.0820  223.4170 N   0  0  0  0  0  0  0  0  0  0  0  0
  140.7580   71.7120  226.5760 C   0  0  0  0  0  0  0  0  0  0  0  0
  140.7955   72.7590  226.2408 H   0  0  0  0  0  0  0  0  0  0  0  0
  141.0410   71.3990  227.9090 C   0  0  0  0  0  0  0  0  0  0  0  0
  141.2983   72.2000  228.6177 H   0  0  0  0  0  0  0  0  0  0  0  0
  1  2  1  0
  2  3  2  0
  3  4  1  0
  3  5  1  0
  5  6  1  0
  5  7  2  0
  7  8  1  0
  8  9  2  0
  9 10  1  0
 10 11  2  0
 11 12  1  0
 12 13  1  0
 12 14  1  0
 12 15  1  0
 10 16  1  0
 16 17  1  0
 16 18  2  0
 18 19  1  0
 19 20  1  0
 19 21  1  0
 19 22  1  0
 18 23  1  0
  7 24  1  0
 24 25  1  0
 24 26  2  0
 26 27  1  0
 26  2  1  0
 23  8  1  0
M  CHG  1  23  -1
M  END
>  <UniqueID>  (48) 
15

>  <SMILES>  (48) 
C/N=c1/cc(C(F)(F)F)[n-]c(-c2ccccc2)n1

>  <Energy>  (48) 
27.79797828538736

>  <Genealogy>  (48) 
CN=c1cc(C(F)(F)F)[n-]c(-c2ccccc2)n1 (protonated)
C/N=c1/cc(C(F)(F)F)[n-]c(-c2ccccc2)n1 (cis-trans isomerization)
C/N=c1/cc(C(F)(F)F)[n-]c(-c2ccccc2)n1 (3D coordinates assigned)
C/N=c1/cc(C(F)(F)F)[n-]c(-c2ccccc2)n1 (optimized conformer: 27.79797828538736 kcal/mol)

>  <smiles>  (48) 
CN=c1cc(C(F)(F)F)[nH]c(-c2ccccc2)n1

>  <score_type>  (48) 
oracle

>  <origin>  (48) 
autodockgpu

>  <m_score__min__energy>  (48) 
-5.0899999999999999

>  <m_primary>  (48) 
energy

>  <meeko>  (48) 
{"free_energy": -5.08, "intermolecular_energy": -5.98, "internal_energy": -0.3, "cluster_size": 19, "cluster_id": 1, "rank_in_cluster": 4}

>  <energy>  (48) 
-5.08

>  <cluster_rmsd>  (48) 
0.08

>  <rmsd>  (48) 
270.56

>  <cluster>  (48) 
1

$$$$
DFSGRXNYZSWKCS-UHFFFAOYNA-N
     RDKit          3D

 27 28  0  0  0  0  0  0  0  0999 V2000
  141.2869   69.7396  229.3737 H   0  0  0  0  0  0  0  0  0  0  0  0
  141.0490   69.9970  228.3310 C   0  0  0  0  0  0  0  0  0  0  0  0
  140.7130   68.9920  227.4230 C   0  0  0  0  0  0  0  0  0  0  0  0
  140.6872   67.9425  227.7515 H   0  0  0  0  0  0  0  0  0  0  0  0
  140.4090   69.3150  226.0970 C   0  0  0  0  0  0  0  0  0  0  0  0
  140.1461   68.5170  225.3870 H   0  0  0  0  0  0  0  0  0  0  0  0
  140.4370   70.6550  225.6640 C   0  0  0  0  0  0  0  0  0  0  0  0
  140.1150   71.0030  224.2590 C   0  0  0  0  0  0  0  0  0  0  0  0
  140.3660   72.2530  223.7840 N   0  0  0  0  0  0  0  0  0  0  0  0
  140.0800   72.5980  222.4980 C   0  0  0  0  0  0  0  0  0  0  0  0
  140.3260   73.7960  222.0580 N   0  0  0  0  0  0  0  0  0  0  0  0
  139.3210   74.8490  221.9600 C   0  0  0  0  0  0  0  0  0  0  0  0
  139.0203   75.1640  222.9701 H   0  0  0  0  0  0  0  0  0  0  0  0
  139.7422   75.7086  221.4180 H   0  0  0  0  0  0  0  0  0  0  0  0
  138.4427   74.4683  221.4180 H   0  0  0  0  0  0  0  0  0  0  0  0
  139.5150   71.6510  221.6430 C   0  0  0  0  0  0  0  0  0  0  0  0
  139.2754   71.9092  220.6009 H   0  0  0  0  0  0  0  0  0  0  0  0
  139.2590   70.3670  222.1360 C   0  0  0  0  0  0  0  0  0  0  0  0
  138.6520   69.3190  221.2500 C   0  0  0  0  0  0  0  0  0  0  0  0
  137.6190   69.8730  220.5150 F   0  0  0  0  0  0  0  0  0  0  0  0
  139.5990   68.8100  220.3780 F   0  0  0  0  0  0  0  0  0  0  0  0
  138.1560   68.2850  222.0240 F   0  0  0  0  0  0  0  0  0  0  0  0
  139.5630   70.0750  223.4290 N   0  0  0  0  0  0  0  0  0  0  0  0
  140.7790   71.6600  226.5910 C   0  0  0  0  0  0  0  0  0  0  0  0
  140.8070   72.7119  226.2703 H   0  0  0  0  0  0  0  0  0  0  0  0
  141.0830   71.3300  227.9150 C   0  0  0  0  0  0  0  0  0  0  0  0
  141.3495   72.1217  228.6307 H   0  0  0  0  0  0  0  0  0  0  0  0
  1  2  1  0
  2  3  2  0
  3  4  1  0
  3  5  1  0
  5  6  1  0
  5  7  2  0
  7  8  1  0
  8  9  2  0
  9 10  1  0
 10 11  2  0
 11 12  1  0
 12 13  1  0
 12 14  1  0
 12 15  1  0
 10 16  1  0
 16 17  1  0
 16 18  2  0
 18 19  1  0
 19 20  1  0
 19 21  1  0
 19 22  1  0
 18 23  1  0
  7 24  1  0
 24 25  1  0
 24 26  2  0
 26 27  1  0
 26  2  1  0
 23  8  1  0
M  CHG  1  23  -1
M  END
>  <UniqueID>  (49) 
15

>  <SMILES>  (49) 
C/N=c1/cc(C(F)(F)F)[n-]c(-c2ccccc2)n1

>  <Energy>  (49) 
27.79797828538736

>  <Genealogy>  (49) 
CN=c1cc(C(F)(F)F)[n-]c(-c2ccccc2)n1 (protonated)
C/N=c1/cc(C(F)(F)F)[n-]c(-c2ccccc2)n1 (cis-trans isomerization)
C/N=c1/cc(C(F)(F)F)[n-]c(-c2ccccc2)n1 (3D coordinates assigned)
C/N=c1/cc(C(F)(F)F)[n-]c(-c2ccccc2)n1 (optimized conformer: 27.79797828538736 kcal/mol)

>  <smiles>  (49) 
CN=c1cc(C(F)(F)F)[nH]c(-c2ccccc2)n1

>  <score_type>  (49) 
oracle

>  <origin>  (49) 
autodockgpu

>  <m_score__min__energy>  (49) 
-5.0899999999999999

>  <m_primary>  (49) 
energy

>  <meeko>  (49) 
{"free_energy": -5.08, "intermolecular_energy": -5.97, "internal_energy": -0.3, "cluster_size": 19, "cluster_id": 1, "rank_in_cluster": 9}

>  <energy>  (49) 
-5.08

>  <cluster_rmsd>  (49) 
0.1

>  <rmsd>  (49) 
270.57

>  <cluster>  (49) 
1

$$$$
DFSGRXNYZSWKCS-UHFFFAOYNA-N
     RDKit          3D

 27 28  0  0  0  0  0  0  0  0999 V2000
  141.1770   69.7920  229.3875 H   0  0  0  0  0  0  0  0  0  0  0  0
  140.9650   70.0400  228.3370 C   0  0  0  0  0  0  0  0  0  0  0  0
  141.0600   71.3620  227.8990 C   0  0  0  0  0  0  0  0  0  0  0  0
  141.3453   72.1553  228.6056 H   0  0  0  0  0  0  0  0  0  0  0  0
  140.7930   71.6800  226.5630 C   0  0  0  0  0  0  0  0  0  0  0  0
  140.8704   72.7237  226.2242 H   0  0  0  0  0  0  0  0  0  0  0  0
  140.4260   70.6740  225.6490 C   0  0  0  0  0  0  0  0  0  0  0  0
  140.1420   71.0070  224.2320 C   0  0  0  0  0  0  0  0  0  0  0  0
  140.3560   72.2680  223.7640 N   0  0  0  0  0  0  0  0  0  0  0  0
  140.1040   72.6000  222.4690 C   0  0  0  0  0  0  0  0  0  0  0  0
  140.3140   73.8070  222.0360 N   0  0  0  0  0  0  0  0  0  0  0  0
  139.2740   74.8240  221.9230 C   0  0  0  0  0  0  0  0  0  0  0  0
  138.9552   75.1357  222.9286 H   0  0  0  0  0  0  0  0  0  0  0  0
  139.6693   75.6937  221.3776 H   0  0  0  0  0  0  0  0  0  0  0  0
  138.4134   74.4094  221.3776 H   0  0  0  0  0  0  0  0  0  0  0  0
  139.6130   71.6290  221.5940 C   0  0  0  0  0  0  0  0  0  0  0  0
  139.4017   71.8764  220.5432 H   0  0  0  0  0  0  0  0  0  0  0  0
  139.3950   70.3350  222.0800 C   0  0  0  0  0  0  0  0  0  0  0  0
  138.8670   69.2620  221.1730 C   0  0  0  0  0  0  0  0  0  0  0  0
  137.7990   69.7530  220.4440 F   0  0  0  0  0  0  0  0  0  0  0  0
  139.8510   68.8390  220.2950 F   0  0  0  0  0  0  0  0  0  0  0  0
  138.4460   68.1810  221.9270 F   0  0  0  0  0  0  0  0  0  0  0  0
  139.6630   70.0560  223.3830 N   0  0  0  0  0  0  0  0  0  0  0  0
  140.3320   69.3440  226.1050 C   0  0  0  0  0  0  0  0  0  0  0  0
  140.0453   68.5453  225.4051 H   0  0  0  0  0  0  0  0  0  0  0  0
  140.6010   69.0330  227.4420 C   0  0  0  0  0  0  0  0  0  0  0  0
  140.5254   67.9919  227.7889 H   0  0  0  0  0  0  0  0  0  0  0  0
  1  2  1  0
  2  3  2  0
  3  4  1  0
  3  5  1  0
  5  6  1  0
  5  7  2  0
  7  8  1  0
  8  9  2  0
  9 10  1  0
 10 11  2  0
 11 12  1  0
 12 13  1  0
 12 14  1  0
 12 15  1  0
 10 16  1  0
 16 17  1  0
 16 18  2  0
 18 19  1  0
 19 20  1  0
 19 21  1  0
 19 22  1  0
 18 23  1  0
  7 24  1  0
 24 25  1  0
 24 26  2  0
 26 27  1  0
 26  2  1  0
 23  8  1  0
M  CHG  1  23  -1
M  END
>  <UniqueID>  (50) 
15

>  <SMILES>  (50) 
C/N=c1/cc(C(F)(F)F)[n-]c(-c2ccccc2)n1

>  <Energy>  (50) 
27.79797828538736

>  <Genealogy>  (50) 
CN=c1cc(C(F)(F)F)[n-]c(-c2ccccc2)n1 (protonated)
C/N=c1/cc(C(F)(F)F)[n-]c(-c2ccccc2)n1 (cis-trans isomerization)
C/N=c1/cc(C(F)(F)F)[n-]c(-c2ccccc2)n1 (3D coordinates assigned)
C/N=c1/cc(C(F)(F)F)[n-]c(-c2ccccc2)n1 (optimized conformer: 27.79797828538736 kcal/mol)

>  <smiles>  (50) 
CN=c1cc(C(F)(F)F)[nH]c(-c2ccccc2)n1

>  <score_type>  (50) 
oracle

>  <origin>  (50) 
autodockgpu

>  <m_score__min__energy>  (50) 
-5.0899999999999999

>  <m_primary>  (50) 
energy

>  <meeko>  (50) 
{"free_energy": -5.08, "intermolecular_energy": -5.97, "internal_energy": -0.3, "cluster_size": 19, "cluster_id": 1, "rank_in_cluster": 14}

>  <energy>  (50) 
-5.08

>  <cluster_rmsd>  (50) 
0.55

>  <rmsd>  (50) 
270.57

>  <cluster>  (50) 
1

$$$$
DFSGRXNYZSWKCS-UHFFFAOYNA-N
     RDKit          3D

 27 28  0  0  0  0  0  0  0  0999 V2000
  141.2821   69.8094  229.3788 H   0  0  0  0  0  0  0  0  0  0  0  0
  141.0260   70.0610  228.3390 C   0  0  0  0  0  0  0  0  0  0  0  0
  140.6800   69.0500  227.4410 C   0  0  0  0  0  0  0  0  0  0  0  0
  140.6660   68.0017  227.7741 H   0  0  0  0  0  0  0  0  0  0  0  0
  140.3510   69.3660  226.1190 C   0  0  0  0  0  0  0  0  0  0  0  0
  140.0786   68.5639  225.4172 H   0  0  0  0  0  0  0  0  0  0  0  0
  140.3660   70.7040  225.6800 C   0  0  0  0  0  0  0  0  0  0  0  0
  140.0190   71.0430  224.2780 C   0  0  0  0  0  0  0  0  0  0  0  0
  140.3260   72.2680  223.7700 N   0  0  0  0  0  0  0  0  0  0  0  0
  140.0190   72.6050  222.4880 C   0  0  0  0  0  0  0  0  0  0  0  0
  140.3180   73.7780  222.0160 N   0  0  0  0  0  0  0  0  0  0  0  0
  139.3310   74.8070  221.7040 C   0  0  0  0  0  0  0  0  0  0  0  0
  138.9296   75.2255  222.6387 H   0  0  0  0  0  0  0  0  0  0  0  0
  139.8080   75.6072  221.1191 H   0  0  0  0  0  0  0  0  0  0  0  0
  138.5116   74.3638  221.1191 H   0  0  0  0  0  0  0  0  0  0  0  0
  139.3720   71.6760  221.6700 C   0  0  0  0  0  0  0  0  0  0  0  0
  139.1135   71.9283  220.6310 H   0  0  0  0  0  0  0  0  0  0  0  0
  139.0590   70.4190  222.1970 C   0  0  0  0  0  0  0  0  0  0  0  0
  138.3640   69.3920  221.3520 C   0  0  0  0  0  0  0  0  0  0  0  0
  137.2590   69.9600  220.7450 F   0  0  0  0  0  0  0  0  0  0  0  0
  139.2160   68.9110  220.3720 F   0  0  0  0  0  0  0  0  0  0  0  0
  137.9540   68.3360  222.1460 F   0  0  0  0  0  0  0  0  0  0  0  0
  139.3880   70.1340  223.4850 N   0  0  0  0  0  0  0  0  0  0  0  0
  140.7190   71.7150  226.5960 C   0  0  0  0  0  0  0  0  0  0  0  0
  140.7368   72.7654  226.2700 H   0  0  0  0  0  0  0  0  0  0  0  0
  141.0470   71.3920  227.9170 C   0  0  0  0  0  0  0  0  0  0  0  0
  141.3220   72.1880  228.6247 H   0  0  0  0  0  0  0  0  0  0  0  0
  1  2  1  0
  2  3  2  0
  3  4  1  0
  3  5  1  0
  5  6  1  0
  5  7  2  0
  7  8  1  0
  8  9  2  0
  9 10  1  0
 10 11  2  0
 11 12  1  0
 12 13  1  0
 12 14  1  0
 12 15  1  0
 10 16  1  0
 16 17  1  0
 16 18  2  0
 18 19  1  0
 19 20  1  0
 19 21  1  0
 19 22  1  0
 18 23  1  0
  7 24  1  0
 24 25  1  0
 24 26  2  0
 26 27  1  0
 26  2  1  0
 23  8  1  0
M  CHG  1  23  -1
M  END
>  <UniqueID>  (51) 
15

>  <SMILES>  (51) 
C/N=c1/cc(C(F)(F)F)[n-]c(-c2ccccc2)n1

>  <Energy>  (51) 
27.79797828538736

>  <Genealogy>  (51) 
CN=c1cc(C(F)(F)F)[n-]c(-c2ccccc2)n1 (protonated)
C/N=c1/cc(C(F)(F)F)[n-]c(-c2ccccc2)n1 (cis-trans isomerization)
C/N=c1/cc(C(F)(F)F)[n-]c(-c2ccccc2)n1 (3D coordinates assigned)
C/N=c1/cc(C(F)(F)F)[n-]c(-c2ccccc2)n1 (optimized conformer: 27.79797828538736 kcal/mol)

>  <smiles>  (51) 
CN=c1cc(C(F)(F)F)[nH]c(-c2ccccc2)n1

>  <score_type>  (51) 
oracle

>  <origin>  (51) 
autodockgpu

>  <m_score__min__energy>  (51) 
-5.0899999999999999

>  <m_primary>  (51) 
energy

>  <meeko>  (51) 
{"free_energy": -5.08, "intermolecular_energy": -5.97, "internal_energy": -0.3, "cluster_size": 19, "cluster_id": 1, "rank_in_cluster": 12}

>  <energy>  (51) 
-5.08

>  <cluster_rmsd>  (51) 
0.08

>  <rmsd>  (51) 
270.56

>  <cluster>  (51) 
1

$$$$
DFSGRXNYZSWKCS-UHFFFAOYNA-N
     RDKit          3D

 27 28  0  0  0  0  0  0  0  0999 V2000
  141.2570   69.7956  229.3646 H   0  0  0  0  0  0  0  0  0  0  0  0
  141.0190   70.0450  228.3200 C   0  0  0  0  0  0  0  0  0  0  0  0
  140.6950   69.0320  227.4170 C   0  0  0  0  0  0  0  0  0  0  0  0
  140.6786   67.9841  227.7512 H   0  0  0  0  0  0  0  0  0  0  0  0
  140.3910   69.3450  226.0880 C   0  0  0  0  0  0  0  0  0  0  0  0
  140.1369   68.5408  225.3818 H   0  0  0  0  0  0  0  0  0  0  0  0
  140.4080   70.6820  225.6480 C   0  0  0  0  0  0  0  0  0  0  0  0
  140.0870   71.0190  224.2390 C   0  0  0  0  0  0  0  0  0  0  0  0
  140.3590   72.2590  223.7490 N   0  0  0  0  0  0  0  0  0  0  0  0
  140.0740   72.5940  222.4600 C   0  0  0  0  0  0  0  0  0  0  0  0
  140.3390   73.7820  222.0050 N   0  0  0  0  0  0  0  0  0  0  0  0
  139.3560   74.8560  221.9100 C   0  0  0  0  0  0  0  0  0  0  0  0
  139.0634   75.1757  222.9210 H   0  0  0  0  0  0  0  0  0  0  0  0
  139.7943   75.7074  221.3687 H   0  0  0  0  0  0  0  0  0  0  0  0
  138.4692   74.4946  221.3687 H   0  0  0  0  0  0  0  0  0  0  0  0
  139.4890   71.6470  221.6180 C   0  0  0  0  0  0  0  0  0  0  0  0
  139.2503   71.8967  220.5736 H   0  0  0  0  0  0  0  0  0  0  0  0
  139.2120   70.3740  222.1280 C   0  0  0  0  0  0  0  0  0  0  0  0
  138.5830   69.3260  221.2560 C   0  0  0  0  0  0  0  0  0  0  0  0
  137.8220   69.9350  220.2740 F   0  0  0  0  0  0  0  0  0  0  0  0
  139.5550   68.5480  220.6510 F   0  0  0  0  0  0  0  0  0  0  0  0
  137.7700   68.5100  222.0220 F   0  0  0  0  0  0  0  0  0  0  0  0
  139.5160   70.0910  223.4230 N   0  0  0  0  0  0  0  0  0  0  0  0
  140.7380   71.6960  226.5690 C   0  0  0  0  0  0  0  0  0  0  0  0
  140.7576   72.7460  226.2419 H   0  0  0  0  0  0  0  0  0  0  0  0
  141.0410   71.3760  227.8970 C   0  0  0  0  0  0  0  0  0  0  0  0
  141.2970   72.1742  228.6093 H   0  0  0  0  0  0  0  0  0  0  0  0
  1  2  1  0
  2  3  2  0
  3  4  1  0
  3  5  1  0
  5  6  1  0
  5  7  2  0
  7  8  1  0
  8  9  2  0
  9 10  1  0
 10 11  2  0
 11 12  1  0
 12 13  1  0
 12 14  1  0
 12 15  1  0
 10 16  1  0
 16 17  1  0
 16 18  2  0
 18 19  1  0
 19 20  1  0
 19 21  1  0
 19 22  1  0
 18 23  1  0
  7 24  1  0
 24 25  1  0
 24 26  2  0
 26 27  1  0
 26  2  1  0
 23  8  1  0
M  CHG  1  23  -1
M  END
>  <UniqueID>  (52) 
15

>  <SMILES>  (52) 
C/N=c1/cc(C(F)(F)F)[n-]c(-c2ccccc2)n1

>  <Energy>  (52) 
27.79797828538736

>  <Genealogy>  (52) 
CN=c1cc(C(F)(F)F)[n-]c(-c2ccccc2)n1 (protonated)
C/N=c1/cc(C(F)(F)F)[n-]c(-c2ccccc2)n1 (cis-trans isomerization)
C/N=c1/cc(C(F)(F)F)[n-]c(-c2ccccc2)n1 (3D coordinates assigned)
C/N=c1/cc(C(F)(F)F)[n-]c(-c2ccccc2)n1 (optimized conformer: 27.79797828538736 kcal/mol)

>  <smiles>  (52) 
CN=c1cc(C(F)(F)F)[nH]c(-c2ccccc2)n1

>  <score_type>  (52) 
oracle

>  <origin>  (52) 
autodockgpu

>  <m_score__min__energy>  (52) 
-5.0899999999999999

>  <m_primary>  (52) 
energy

>  <meeko>  (52) 
{"free_energy": -5.08, "intermolecular_energy": -5.97, "internal_energy": -0.3, "cluster_size": 19, "cluster_id": 1, "rank_in_cluster": 13}

>  <energy>  (52) 
-5.08

>  <cluster_rmsd>  (52) 
0.25

>  <rmsd>  (52) 
270.53

>  <cluster>  (52) 
1

$$$$
DFSGRXNYZSWKCS-UHFFFAOYNA-N
     RDKit          3D

 27 28  0  0  0  0  0  0  0  0999 V2000
  141.2373   69.8003  229.3752 H   0  0  0  0  0  0  0  0  0  0  0  0
  141.0080   70.0470  228.3280 C   0  0  0  0  0  0  0  0  0  0  0  0
  140.6740   69.0330  227.4290 C   0  0  0  0  0  0  0  0  0  0  0  0
  140.6411   67.9874  227.7689 H   0  0  0  0  0  0  0  0  0  0  0  0
  140.3810   69.3430  226.0970 C   0  0  0  0  0  0  0  0  0  0  0  0
  140.1182   68.5386  225.3942 H   0  0  0  0  0  0  0  0  0  0  0  0
  140.4200   70.6780  225.6490 C   0  0  0  0  0  0  0  0  0  0  0  0
  140.1100   71.0110  224.2380 C   0  0  0  0  0  0  0  0  0  0  0  0
  140.3460   72.2630  223.7580 N   0  0  0  0  0  0  0  0  0  0  0  0
  140.0720   72.5950  222.4670 C   0  0  0  0  0  0  0  0  0  0  0  0
  140.3020   73.7940  222.0220 N   0  0  0  0  0  0  0  0  0  0  0  0
  139.2920   74.8440  221.9510 C   0  0  0  0  0  0  0  0  0  0  0  0
  139.0031   75.1443  222.9690 H   0  0  0  0  0  0  0  0  0  0  0  0
  139.7029   75.7124  221.4152 H   0  0  0  0  0  0  0  0  0  0  0  0
  138.4083   74.4671  221.4152 H   0  0  0  0  0  0  0  0  0  0  0  0
  139.5340   71.6320  221.6100 C   0  0  0  0  0  0  0  0  0  0  0  0
  139.3034   71.8795  220.5633 H   0  0  0  0  0  0  0  0  0  0  0  0
  139.2940   70.3470  222.1080 C   0  0  0  0  0  0  0  0  0  0  0  0
  138.7170   69.2830  221.2210 C   0  0  0  0  0  0  0  0  0  0  0  0
  137.6870   69.8160  220.4660 F   0  0  0  0  0  0  0  0  0  0  0  0
  139.6850   68.7840  220.3660 F   0  0  0  0  0  0  0  0  0  0  0  0
  138.2260   68.2480  221.9940 F   0  0  0  0  0  0  0  0  0  0  0  0
  139.5860   70.0680  223.4070 N   0  0  0  0  0  0  0  0  0  0  0  0
  140.7600   71.6910  226.5670 C   0  0  0  0  0  0  0  0  0  0  0  0
  140.7969   72.7390  226.2347 H   0  0  0  0  0  0  0  0  0  0  0  0
  141.0510   71.3740  227.8980 C   0  0  0  0  0  0  0  0  0  0  0  0
  141.3143   72.1724  228.6073 H   0  0  0  0  0  0  0  0  0  0  0  0
  1  2  1  0
  2  3  2  0
  3  4  1  0
  3  5  1  0
  5  6  1  0
  5  7  2  0
  7  8  1  0
  8  9  2  0
  9 10  1  0
 10 11  2  0
 11 12  1  0
 12 13  1  0
 12 14  1  0
 12 15  1  0
 10 16  1  0
 16 17  1  0
 16 18  2  0
 18 19  1  0
 19 20  1  0
 19 21  1  0
 19 22  1  0
 18 23  1  0
  7 24  1  0
 24 25  1  0
 24 26  2  0
 26 27  1  0
 26  2  1  0
 23  8  1  0
M  CHG  1  23  -1
M  END
>  <UniqueID>  (53) 
15

>  <SMILES>  (53) 
C/N=c1/cc(C(F)(F)F)[n-]c(-c2ccccc2)n1

>  <Energy>  (53) 
27.79797828538736

>  <Genealogy>  (53) 
CN=c1cc(C(F)(F)F)[n-]c(-c2ccccc2)n1 (protonated)
C/N=c1/cc(C(F)(F)F)[n-]c(-c2ccccc2)n1 (cis-trans isomerization)
C/N=c1/cc(C(F)(F)F)[n-]c(-c2ccccc2)n1 (3D coordinates assigned)
C/N=c1/cc(C(F)(F)F)[n-]c(-c2ccccc2)n1 (optimized conformer: 27.79797828538736 kcal/mol)

>  <smiles>  (53) 
CN=c1cc(C(F)(F)F)[nH]c(-c2ccccc2)n1

>  <score_type>  (53) 
oracle

>  <origin>  (53) 
autodockgpu

>  <m_score__min__energy>  (53) 
-5.0899999999999999

>  <m_primary>  (53) 
energy

>  <meeko>  (53) 
{"free_energy": -5.08, "intermolecular_energy": -5.98, "internal_energy": -0.3, "cluster_size": 19, "cluster_id": 1, "rank_in_cluster": 5}

>  <energy>  (53) 
-5.08

>  <cluster_rmsd>  (53) 
0.21

>  <rmsd>  (53) 
270.54

>  <cluster>  (53) 
1

$$$$
DFSGRXNYZSWKCS-UHFFFAOYNA-N
     RDKit          3D

 27 28  0  0  0  0  0  0  0  0999 V2000
  141.2118   69.8233  229.4029 H   0  0  0  0  0  0  0  0  0  0  0  0
  140.9850   70.0650  228.3540 C   0  0  0  0  0  0  0  0  0  0  0  0
  140.6680   69.0450  227.4550 C   0  0  0  0  0  0  0  0  0  0  0  0
  140.6463   67.9996  227.7967 H   0  0  0  0  0  0  0  0  0  0  0  0
  140.3780   69.3490  226.1210 C   0  0  0  0  0  0  0  0  0  0  0  0
  140.1294   68.5401  225.4183 H   0  0  0  0  0  0  0  0  0  0  0  0
  140.4020   70.6830  225.6710 C   0  0  0  0  0  0  0  0  0  0  0  0
  140.0950   71.0090  224.2570 C   0  0  0  0  0  0  0  0  0  0  0  0
  140.3560   72.2520  223.7650 N   0  0  0  0  0  0  0  0  0  0  0  0
  140.0840   72.5770  222.4710 C   0  0  0  0  0  0  0  0  0  0  0  0
  140.3380   73.7670  222.0150 N   0  0  0  0  0  0  0  0  0  0  0  0
  139.3550   74.8440  221.9580 C   0  0  0  0  0  0  0  0  0  0  0  0
  139.0807   75.1445  222.9800 H   0  0  0  0  0  0  0  0  0  0  0  0
  139.7850   75.7051  221.4255 H   0  0  0  0  0  0  0  0  0  0  0  0
  138.4583   74.4942  221.4255 H   0  0  0  0  0  0  0  0  0  0  0  0
  139.5250   71.6180  221.6250 C   0  0  0  0  0  0  0  0  0  0  0  0
  139.2971   71.8601  220.5764 H   0  0  0  0  0  0  0  0  0  0  0  0
  139.2600   70.3430  222.1360 C   0  0  0  0  0  0  0  0  0  0  0  0
  138.6580   69.2830  221.2600 C   0  0  0  0  0  0  0  0  0  0  0  0
  137.6130   69.8210  220.5300 F   0  0  0  0  0  0  0  0  0  0  0  0
  139.6050   68.7810  220.3830 F   0  0  0  0  0  0  0  0  0  0  0  0
  138.1810   68.2480  222.0430 F   0  0  0  0  0  0  0  0  0  0  0  0
  139.5500   70.0700  223.4360 N   0  0  0  0  0  0  0  0  0  0  0  0
  140.7250   71.7030  226.5880 C   0  0  0  0  0  0  0  0  0  0  0  0
  140.7501   72.7506  226.2535 H   0  0  0  0  0  0  0  0  0  0  0  0
  141.0140   71.3920  227.9210 C   0  0  0  0  0  0  0  0  0  0  0  0
  141.2647   72.1950  228.6298 H   0  0  0  0  0  0  0  0  0  0  0  0
  1  2  1  0
  2  3  2  0
  3  4  1  0
  3  5  1  0
  5  6  1  0
  5  7  2  0
  7  8  1  0
  8  9  2  0
  9 10  1  0
 10 11  2  0
 11 12  1  0
 12 13  1  0
 12 14  1  0
 12 15  1  0
 10 16  1  0
 16 17  1  0
 16 18  2  0
 18 19  1  0
 19 20  1  0
 19 21  1  0
 19 22  1  0
 18 23  1  0
  7 24  1  0
 24 25  1  0
 24 26  2  0
 26 27  1  0
 26  2  1  0
 23  8  1  0
M  CHG  1  23  -1
M  END
>  <UniqueID>  (54) 
15

>  <SMILES>  (54) 
C/N=c1/cc(C(F)(F)F)[n-]c(-c2ccccc2)n1

>  <Energy>  (54) 
27.79797828538736

>  <Genealogy>  (54) 
CN=c1cc(C(F)(F)F)[n-]c(-c2ccccc2)n1 (protonated)
C/N=c1/cc(C(F)(F)F)[n-]c(-c2ccccc2)n1 (cis-trans isomerization)
C/N=c1/cc(C(F)(F)F)[n-]c(-c2ccccc2)n1 (3D coordinates assigned)
C/N=c1/cc(C(F)(F)F)[n-]c(-c2ccccc2)n1 (optimized conformer: 27.79797828538736 kcal/mol)

>  <smiles>  (54) 
CN=c1cc(C(F)(F)F)[nH]c(-c2ccccc2)n1

>  <score_type>  (54) 
oracle

>  <origin>  (54) 
autodockgpu

>  <m_score__min__energy>  (54) 
-5.0899999999999999

>  <m_primary>  (54) 
energy

>  <meeko>  (54) 
{"free_energy": -5.08, "intermolecular_energy": -5.97, "internal_energy": -0.3, "cluster_size": 19, "cluster_id": 1, "rank_in_cluster": 11}

>  <energy>  (54) 
-5.08

>  <cluster_rmsd>  (54) 
0.09

>  <rmsd>  (54) 
270.56

>  <cluster>  (54) 
1

$$$$
DFSGRXNYZSWKCS-UHFFFAOYNA-N
     RDKit          3D

 27 28  0  0  0  0  0  0  0  0999 V2000
  141.2525   69.7488  229.3876 H   0  0  0  0  0  0  0  0  0  0  0  0
  141.0220   70.0050  228.3430 C   0  0  0  0  0  0  0  0  0  0  0  0
  141.0520   71.3370  227.9280 C   0  0  0  0  0  0  0  0  0  0  0  0
  141.3058   72.1301  228.6467 H   0  0  0  0  0  0  0  0  0  0  0  0
  140.7600   71.6660  226.6000 C   0  0  0  0  0  0  0  0  0  0  0  0
  140.7853   72.7182  226.2802 H   0  0  0  0  0  0  0  0  0  0  0  0
  140.4340   70.6610  225.6700 C   0  0  0  0  0  0  0  0  0  0  0  0
  140.1250   71.0050  224.2610 C   0  0  0  0  0  0  0  0  0  0  0  0
  140.3860   72.2540  223.7840 N   0  0  0  0  0  0  0  0  0  0  0  0
  140.1120   72.5960  222.4950 C   0  0  0  0  0  0  0  0  0  0  0  0
  140.3670   73.7910  222.0540 N   0  0  0  0  0  0  0  0  0  0  0  0
  139.3410   74.7400  221.6340 C   0  0  0  0  0  0  0  0  0  0  0  0
  138.8641   75.1811  222.5217 H   0  0  0  0  0  0  0  0  0  0  0  0
  139.8026   75.5364  221.0319 H   0  0  0  0  0  0  0  0  0  0  0  0
  138.5829   74.2178  221.0319 H   0  0  0  0  0  0  0  0  0  0  0  0
  139.5490   71.6490  221.6380 C   0  0  0  0  0  0  0  0  0  0  0  0
  139.3189   71.9051  220.5933 H   0  0  0  0  0  0  0  0  0  0  0  0
  139.2830   70.3680  222.1330 C   0  0  0  0  0  0  0  0  0  0  0  0
  138.6780   69.3200  221.2450 C   0  0  0  0  0  0  0  0  0  0  0  0
  138.1160   68.3220  222.0210 F   0  0  0  0  0  0  0  0  0  0  0  0
  137.6920   69.8710  220.4440 F   0  0  0  0  0  0  0  0  0  0  0  0
  139.6570   68.7720  220.4370 F   0  0  0  0  0  0  0  0  0  0  0  0
  139.5760   70.0780  223.4290 N   0  0  0  0  0  0  0  0  0  0  0  0
  140.4070   69.3200  226.1020 C   0  0  0  0  0  0  0  0  0  0  0  0
  140.1544   68.5215  225.3888 H   0  0  0  0  0  0  0  0  0  0  0  0
  140.6990   68.9970  227.4310 C   0  0  0  0  0  0  0  0  0  0  0  0
  140.6743   67.9473  227.7589 H   0  0  0  0  0  0  0  0  0  0  0  0
  1  2  1  0
  2  3  2  0
  3  4  1  0
  3  5  1  0
  5  6  1  0
  5  7  2  0
  7  8  1  0
  8  9  2  0
  9 10  1  0
 10 11  2  0
 11 12  1  0
 12 13  1  0
 12 14  1  0
 12 15  1  0
 10 16  1  0
 16 17  1  0
 16 18  2  0
 18 19  1  0
 19 20  1  0
 19 21  1  0
 19 22  1  0
 18 23  1  0
  7 24  1  0
 24 25  1  0
 24 26  2  0
 26 27  1  0
 26  2  1  0
 23  8  1  0
M  CHG  1  23  -1
M  END
>  <UniqueID>  (55) 
15

>  <SMILES>  (55) 
C/N=c1/cc(C(F)(F)F)[n-]c(-c2ccccc2)n1

>  <Energy>  (55) 
27.79797828538736

>  <Genealogy>  (55) 
CN=c1cc(C(F)(F)F)[n-]c(-c2ccccc2)n1 (protonated)
C/N=c1/cc(C(F)(F)F)[n-]c(-c2ccccc2)n1 (cis-trans isomerization)
C/N=c1/cc(C(F)(F)F)[n-]c(-c2ccccc2)n1 (3D coordinates assigned)
C/N=c1/cc(C(F)(F)F)[n-]c(-c2ccccc2)n1 (optimized conformer: 27.79797828538736 kcal/mol)

>  <smiles>  (55) 
CN=c1cc(C(F)(F)F)[nH]c(-c2ccccc2)n1

>  <score_type>  (55) 
oracle

>  <origin>  (55) 
autodockgpu

>  <m_score__min__energy>  (55) 
-5.0899999999999999

>  <m_primary>  (55) 
energy

>  <meeko>  (55) 
{"free_energy": -5.07, "intermolecular_energy": -5.97, "internal_energy": -0.3, "cluster_size": 19, "cluster_id": 1, "rank_in_cluster": 18}

>  <energy>  (55) 
-5.08

>  <cluster_rmsd>  (55) 
0.08

>  <rmsd>  (55) 
270.54

>  <cluster>  (55) 
1

$$$$
DFSGRXNYZSWKCS-UHFFFAOYNA-N
     RDKit          3D

 27 28  0  0  0  0  0  0  0  0999 V2000
  141.2334   69.7770  229.3771 H   0  0  0  0  0  0  0  0  0  0  0  0
  141.0050   70.0290  228.3310 C   0  0  0  0  0  0  0  0  0  0  0  0
  141.0480   71.3580  227.9080 C   0  0  0  0  0  0  0  0  0  0  0  0
  141.3090   72.1529  228.6222 H   0  0  0  0  0  0  0  0  0  0  0  0
  140.7600   71.6820  226.5780 C   0  0  0  0  0  0  0  0  0  0  0  0
  140.7963   72.7318  226.2516 H   0  0  0  0  0  0  0  0  0  0  0  0
  140.4240   70.6740  225.6540 C   0  0  0  0  0  0  0  0  0  0  0  0
  140.1180   71.0120  224.2430 C   0  0  0  0  0  0  0  0  0  0  0  0
  140.3660   72.2630  223.7660 N   0  0  0  0  0  0  0  0  0  0  0  0
  140.0950   72.6000  222.4750 C   0  0  0  0  0  0  0  0  0  0  0  0
  140.3370   73.7980  222.0330 N   0  0  0  0  0  0  0  0  0  0  0  0
  139.3260   74.8430  221.9160 C   0  0  0  0  0  0  0  0  0  0  0  0
  139.0140   75.1655  222.9203 H   0  0  0  0  0  0  0  0  0  0  0  0
  139.7463   75.7003  221.3697 H   0  0  0  0  0  0  0  0  0  0  0  0
  138.4553   74.4513  221.3697 H   0  0  0  0  0  0  0  0  0  0  0  0
  139.5490   71.6450  221.6160 C   0  0  0  0  0  0  0  0  0  0  0  0
  139.3219   71.8966  220.5695 H   0  0  0  0  0  0  0  0  0  0  0  0
  139.2960   70.3610  222.1120 C   0  0  0  0  0  0  0  0  0  0  0  0
  138.7100   69.3040  221.2220 C   0  0  0  0  0  0  0  0  0  0  0  0
  137.7380   69.8650  220.4130 F   0  0  0  0  0  0  0  0  0  0  0  0
  139.6900   68.7430  220.4210 F   0  0  0  0  0  0  0  0  0  0  0  0
  138.1400   68.3090  221.9950 F   0  0  0  0  0  0  0  0  0  0  0  0
  139.5850   70.0770  223.4100 N   0  0  0  0  0  0  0  0  0  0  0  0
  140.3830   69.3360  226.0950 C   0  0  0  0  0  0  0  0  0  0  0  0
  140.1218   68.5355  225.3872 H   0  0  0  0  0  0  0  0  0  0  0  0
  140.6720   69.0190  227.4260 C   0  0  0  0  0  0  0  0  0  0  0  0
  140.6369   67.9718  227.7608 H   0  0  0  0  0  0  0  0  0  0  0  0
  1  2  1  0
  2  3  2  0
  3  4  1  0
  3  5  1  0
  5  6  1  0
  5  7  2  0
  7  8  1  0
  8  9  2  0
  9 10  1  0
 10 11  2  0
 11 12  1  0
 12 13  1  0
 12 14  1  0
 12 15  1  0
 10 16  1  0
 16 17  1  0
 16 18  2  0
 18 19  1  0
 19 20  1  0
 19 21  1  0
 19 22  1  0
 18 23  1  0
  7 24  1  0
 24 25  1  0
 24 26  2  0
 26 27  1  0
 26  2  1  0
 23  8  1  0
M  CHG  1  23  -1
M  END
>  <UniqueID>  (56) 
15

>  <SMILES>  (56) 
C/N=c1/cc(C(F)(F)F)[n-]c(-c2ccccc2)n1

>  <Energy>  (56) 
27.79797828538736

>  <Genealogy>  (56) 
CN=c1cc(C(F)(F)F)[n-]c(-c2ccccc2)n1 (protonated)
C/N=c1/cc(C(F)(F)F)[n-]c(-c2ccccc2)n1 (cis-trans isomerization)
C/N=c1/cc(C(F)(F)F)[n-]c(-c2ccccc2)n1 (3D coordinates assigned)
C/N=c1/cc(C(F)(F)F)[n-]c(-c2ccccc2)n1 (optimized conformer: 27.79797828538736 kcal/mol)

>  <smiles>  (56) 
CN=c1cc(C(F)(F)F)[nH]c(-c2ccccc2)n1

>  <score_type>  (56) 
oracle

>  <origin>  (56) 
autodockgpu

>  <m_score__min__energy>  (56) 
-5.0899999999999999

>  <m_primary>  (56) 
energy

>  <meeko>  (56) 
{"free_energy": -5.08, "intermolecular_energy": -5.98, "internal_energy": -0.3, "cluster_size": 19, "cluster_id": 1, "rank_in_cluster": 8}

>  <energy>  (56) 
-5.08

>  <cluster_rmsd>  (56) 
0.28

>  <rmsd>  (56) 
270.55

>  <cluster>  (56) 
1

$$$$
DFSGRXNYZSWKCS-UHFFFAOYNA-N
     RDKit          3D

 27 28  0  0  0  0  0  0  0  0999 V2000
  141.2487   69.8079  229.3882 H   0  0  0  0  0  0  0  0  0  0  0  0
  141.0170   70.0480  228.3400 C   0  0  0  0  0  0  0  0  0  0  0  0
  140.6950   69.0270  227.4450 C   0  0  0  0  0  0  0  0  0  0  0  0
  140.6723   67.9826  227.7895 H   0  0  0  0  0  0  0  0  0  0  0  0
  140.4010   69.3280  226.1110 C   0  0  0  0  0  0  0  0  0  0  0  0
  140.1500   68.5176  225.4108 H   0  0  0  0  0  0  0  0  0  0  0  0
  140.4240   70.6610  225.6580 C   0  0  0  0  0  0  0  0  0  0  0  0
  140.1120   70.9850  224.2450 C   0  0  0  0  0  0  0  0  0  0  0  0
  140.3550   72.2320  223.7540 N   0  0  0  0  0  0  0  0  0  0  0  0
  140.0780   72.5550  222.4620 C   0  0  0  0  0  0  0  0  0  0  0  0
  140.3150   73.7490  222.0070 N   0  0  0  0  0  0  0  0  0  0  0  0
  139.2790   74.7440  221.7520 C   0  0  0  0  0  0  0  0  0  0  0  0
  138.8879   75.1196  222.7090 H   0  0  0  0  0  0  0  0  0  0  0  0
  139.7061   75.5791  221.1773 H   0  0  0  0  0  0  0  0  0  0  0  0
  138.4619   74.2835  221.1773 H   0  0  0  0  0  0  0  0  0  0  0  0
  139.5320   71.5890  221.6140 C   0  0  0  0  0  0  0  0  0  0  0  0
  139.3006   71.8295  220.5658 H   0  0  0  0  0  0  0  0  0  0  0  0
  139.2850   70.3100  222.1230 C   0  0  0  0  0  0  0  0  0  0  0  0
  138.6990   69.2430  221.2460 C   0  0  0  0  0  0  0  0  0  0  0  0
  138.2520   68.1930  222.0280 F   0  0  0  0  0  0  0  0  0  0  0  0
  137.6330   69.7430  220.5170 F   0  0  0  0  0  0  0  0  0  0  0  0
  139.6620   68.7790  220.3690 F   0  0  0  0  0  0  0  0  0  0  0  0
  139.5800   70.0400  223.4230 N   0  0  0  0  0  0  0  0  0  0  0  0
  140.7520   71.6830  226.5720 C   0  0  0  0  0  0  0  0  0  0  0  0
  140.7778   72.7299  226.2352 H   0  0  0  0  0  0  0  0  0  0  0  0
  141.0450   71.3740  227.9050 C   0  0  0  0  0  0  0  0  0  0  0  0
  141.2980   72.1781  228.6117 H   0  0  0  0  0  0  0  0  0  0  0  0
  1  2  1  0
  2  3  2  0
  3  4  1  0
  3  5  1  0
  5  6  1  0
  5  7  2  0
  7  8  1  0
  8  9  2  0
  9 10  1  0
 10 11  2  0
 11 12  1  0
 12 13  1  0
 12 14  1  0
 12 15  1  0
 10 16  1  0
 16 17  1  0
 16 18  2  0
 18 19  1  0
 19 20  1  0
 19 21  1  0
 19 22  1  0
 18 23  1  0
  7 24  1  0
 24 25  1  0
 24 26  2  0
 26 27  1  0
 26  2  1  0
 23  8  1  0
M  CHG  1  23  -1
M  END
>  <UniqueID>  (57) 
15

>  <SMILES>  (57) 
C/N=c1/cc(C(F)(F)F)[n-]c(-c2ccccc2)n1

>  <Energy>  (57) 
27.79797828538736

>  <Genealogy>  (57) 
CN=c1cc(C(F)(F)F)[n-]c(-c2ccccc2)n1 (protonated)
C/N=c1/cc(C(F)(F)F)[n-]c(-c2ccccc2)n1 (cis-trans isomerization)
C/N=c1/cc(C(F)(F)F)[n-]c(-c2ccccc2)n1 (3D coordinates assigned)
C/N=c1/cc(C(F)(F)F)[n-]c(-c2ccccc2)n1 (optimized conformer: 27.79797828538736 kcal/mol)

>  <smiles>  (57) 
CN=c1cc(C(F)(F)F)[nH]c(-c2ccccc2)n1

>  <score_type>  (57) 
oracle

>  <origin>  (57) 
autodockgpu

>  <m_score__min__energy>  (57) 
-5.0899999999999999

>  <m_primary>  (57) 
energy

>  <meeko>  (57) 
{"free_energy": -5.08, "intermolecular_energy": -5.97, "internal_energy": -0.3, "cluster_size": 19, "cluster_id": 1, "rank_in_cluster": 15}

>  <energy>  (57) 
-5.07

>  <cluster_rmsd>  (57) 
0.55

>  <rmsd>  (57) 
270.56

>  <cluster>  (57) 
1

$$$$
DFSGRXNYZSWKCS-UHFFFAOYNA-N
     RDKit          3D

 27 28  0  0  0  0  0  0  0  0999 V2000
  141.2552   69.7907  229.3858 H   0  0  0  0  0  0  0  0  0  0  0  0
  141.0260   70.0390  228.3390 C   0  0  0  0  0  0  0  0  0  0  0  0
  141.0640   71.3670  227.9120 C   0  0  0  0  0  0  0  0  0  0  0  0
  141.3220   72.1649  228.6239 H   0  0  0  0  0  0  0  0  0  0  0  0
  140.7750   71.6860  226.5820 C   0  0  0  0  0  0  0  0  0  0  0  0
  140.8080   72.7351  226.2530 H   0  0  0  0  0  0  0  0  0  0  0  0
  140.4420   70.6750  225.6600 C   0  0  0  0  0  0  0  0  0  0  0  0
  140.1350   71.0090  224.2490 C   0  0  0  0  0  0  0  0  0  0  0  0
  140.3850   72.2570  223.7660 N   0  0  0  0  0  0  0  0  0  0  0  0
  140.1130   72.5900  222.4750 C   0  0  0  0  0  0  0  0  0  0  0  0
  140.3570   73.7860  222.0280 N   0  0  0  0  0  0  0  0  0  0  0  0
  139.3470   74.8330  221.9100 C   0  0  0  0  0  0  0  0  0  0  0  0
  139.0351   75.1564  222.9141 H   0  0  0  0  0  0  0  0  0  0  0  0
  139.7688   75.6894  221.3635 H   0  0  0  0  0  0  0  0  0  0  0  0
  138.4760   74.4423  221.3635 H   0  0  0  0  0  0  0  0  0  0  0  0
  139.5630   71.6320  221.6210 C   0  0  0  0  0  0  0  0  0  0  0  0
  139.3337   71.8804  220.5742 H   0  0  0  0  0  0  0  0  0  0  0  0
  139.3090   70.3510  222.1210 C   0  0  0  0  0  0  0  0  0  0  0  0
  138.7180   69.2930  221.2370 C   0  0  0  0  0  0  0  0  0  0  0  0
  138.2530   68.2450  222.0120 F   0  0  0  0  0  0  0  0  0  0  0  0
  137.6640   69.8060  220.5000 F   0  0  0  0  0  0  0  0  0  0  0  0
  139.6840   68.8210  220.3660 F   0  0  0  0  0  0  0  0  0  0  0  0
  139.5990   70.0710  223.4200 N   0  0  0  0  0  0  0  0  0  0  0  0
  140.4060   69.3380  226.1050 C   0  0  0  0  0  0  0  0  0  0  0  0
  140.1473   68.5344  225.3998 H   0  0  0  0  0  0  0  0  0  0  0  0
  140.6970   69.0260  227.4370 C   0  0  0  0  0  0  0  0  0  0  0  0
  140.6665   67.9795  227.7746 H   0  0  0  0  0  0  0  0  0  0  0  0
  1  2  1  0
  2  3  2  0
  3  4  1  0
  3  5  1  0
  5  6  1  0
  5  7  2  0
  7  8  1  0
  8  9  2  0
  9 10  1  0
 10 11  2  0
 11 12  1  0
 12 13  1  0
 12 14  1  0
 12 15  1  0
 10 16  1  0
 16 17  1  0
 16 18  2  0
 18 19  1  0
 19 20  1  0
 19 21  1  0
 19 22  1  0
 18 23  1  0
  7 24  1  0
 24 25  1  0
 24 26  2  0
 26 27  1  0
 26  2  1  0
 23  8  1  0
M  CHG  1  23  -1
M  END
>  <UniqueID>  (58) 
15

>  <SMILES>  (58) 
C/N=c1/cc(C(F)(F)F)[n-]c(-c2ccccc2)n1

>  <Energy>  (58) 
27.79797828538736

>  <Genealogy>  (58) 
CN=c1cc(C(F)(F)F)[n-]c(-c2ccccc2)n1 (protonated)
C/N=c1/cc(C(F)(F)F)[n-]c(-c2ccccc2)n1 (cis-trans isomerization)
C/N=c1/cc(C(F)(F)F)[n-]c(-c2ccccc2)n1 (3D coordinates assigned)
C/N=c1/cc(C(F)(F)F)[n-]c(-c2ccccc2)n1 (optimized conformer: 27.79797828538736 kcal/mol)

>  <smiles>  (58) 
CN=c1cc(C(F)(F)F)[nH]c(-c2ccccc2)n1

>  <score_type>  (58) 
oracle

>  <origin>  (58) 
autodockgpu

>  <m_score__min__energy>  (58) 
-5.0899999999999999

>  <m_primary>  (58) 
energy

>  <meeko>  (58) 
{"free_energy": -5.08, "intermolecular_energy": -5.98, "internal_energy": -0.3, "cluster_size": 19, "cluster_id": 1, "rank_in_cluster": 6}

>  <energy>  (58) 
-5.07

>  <cluster_rmsd>  (58) 
0.12

>  <rmsd>  (58) 
270.56

>  <cluster>  (58) 
1

$$$$
DFSGRXNYZSWKCS-UHFFFAOYNA-N
     RDKit          3D

 27 28  0  0  0  0  0  0  0  0999 V2000
  141.2539   69.7662  229.3726 H   0  0  0  0  0  0  0  0  0  0  0  0
  141.0240   70.0190  228.3270 C   0  0  0  0  0  0  0  0  0  0  0  0
  140.6880   69.0100  227.4220 C   0  0  0  0  0  0  0  0  0  0  0  0
  140.6529   67.9625  227.7558 H   0  0  0  0  0  0  0  0  0  0  0  0
  140.3960   69.3290  226.0920 C   0  0  0  0  0  0  0  0  0  0  0  0
  140.1330   68.5292  225.3841 H   0  0  0  0  0  0  0  0  0  0  0  0
  140.4360   70.6660  225.6520 C   0  0  0  0  0  0  0  0  0  0  0  0
  140.1260   71.0080  224.2420 C   0  0  0  0  0  0  0  0  0  0  0  0
  140.3650   72.2620  223.7690 N   0  0  0  0  0  0  0  0  0  0  0  0
  140.0910   72.6020  222.4810 C   0  0  0  0  0  0  0  0  0  0  0  0
  140.3250   73.8030  222.0430 N   0  0  0  0  0  0  0  0  0  0  0  0
  141.2840   74.1130  220.9880 C   0  0  0  0  0  0  0  0  0  0  0  0
  142.2385   74.4216  221.4393 H   0  0  0  0  0  0  0  0  0  0  0  0
  141.4445   73.2210  220.3647 H   0  0  0  0  0  0  0  0  0  0  0  0
  140.8920   74.9302  220.3647 H   0  0  0  0  0  0  0  0  0  0  0  0
  139.5500   71.6460  221.6190 C   0  0  0  0  0  0  0  0  0  0  0  0
  139.3200   71.9000  220.5737 H   0  0  0  0  0  0  0  0  0  0  0  0
  139.3060   70.3590  222.1100 C   0  0  0  0  0  0  0  0  0  0  0  0
  138.7250   69.3020  221.2170 C   0  0  0  0  0  0  0  0  0  0  0  0
  137.6480   69.8220  220.5210 F   0  0  0  0  0  0  0  0  0  0  0  0
  139.6710   68.8580  220.3090 F   0  0  0  0  0  0  0  0  0  0  0  0
  138.2990   68.2310  221.9800 F   0  0  0  0  0  0  0  0  0  0  0  0
  139.5980   70.0720  223.4060 N   0  0  0  0  0  0  0  0  0  0  0  0
  140.7770   71.6740  226.5760 C   0  0  0  0  0  0  0  0  0  0  0  0
  140.8144   72.7239  226.2499 H   0  0  0  0  0  0  0  0  0  0  0  0
  141.0680   71.3490  227.9040 C   0  0  0  0  0  0  0  0  0  0  0  0
  141.3324   72.1431  228.6178 H   0  0  0  0  0  0  0  0  0  0  0  0
  1  2  1  0
  2  3  2  0
  3  4  1  0
  3  5  1  0
  5  6  1  0
  5  7  2  0
  7  8  1  0
  8  9  2  0
  9 10  1  0
 10 11  2  0
 11 12  1  0
 12 13  1  0
 12 14  1  0
 12 15  1  0
 10 16  1  0
 16 17  1  0
 16 18  2  0
 18 19  1  0
 19 20  1  0
 19 21  1  0
 19 22  1  0
 18 23  1  0
  7 24  1  0
 24 25  1  0
 24 26  2  0
 26 27  1  0
 26  2  1  0
 23  8  1  0
M  CHG  1  23  -1
M  END
>  <UniqueID>  (59) 
15

>  <SMILES>  (59) 
C/N=c1/cc(C(F)(F)F)[n-]c(-c2ccccc2)n1

>  <Energy>  (59) 
27.79797828538736

>  <Genealogy>  (59) 
CN=c1cc(C(F)(F)F)[n-]c(-c2ccccc2)n1 (protonated)
C/N=c1/cc(C(F)(F)F)[n-]c(-c2ccccc2)n1 (cis-trans isomerization)
C/N=c1/cc(C(F)(F)F)[n-]c(-c2ccccc2)n1 (3D coordinates assigned)
C/N=c1/cc(C(F)(F)F)[n-]c(-c2ccccc2)n1 (optimized conformer: 27.79797828538736 kcal/mol)

>  <smiles>  (59) 
CN=c1cc(C(F)(F)F)[nH]c(-c2ccccc2)n1

>  <score_type>  (59) 
oracle

>  <origin>  (59) 
autodockgpu

>  <m_score__min__energy>  (59) 
-5.0899999999999999

>  <m_primary>  (59) 
energy

>  <meeko>  (59) 
{"free_energy": -5.07, "intermolecular_energy": -5.97, "internal_energy": -0.3, "cluster_size": 19, "cluster_id": 1, "rank_in_cluster": 17}

>  <energy>  (59) 
-5.07

>  <cluster_rmsd>  (59) 
0.54

>  <rmsd>  (59) 
270.56

>  <cluster>  (59) 
1

$$$$
DFSGRXNYZSWKCS-UHFFFAOYNA-N
     RDKit          3D

 27 28  0  0  0  0  0  0  0  0999 V2000
  143.1280   82.1126  223.6054 H   0  0  0  0  0  0  0  0  0  0  0  0
  142.4790   81.2430  223.4250 C   0  0  0  0  0  0  0  0  0  0  0  0
  142.9890   80.1120  222.7850 C   0  0  0  0  0  0  0  0  0  0  0  0
  144.0399   80.0922  222.4608 H   0  0  0  0  0  0  0  0  0  0  0  0
  142.1670   79.0040  222.5550 C   0  0  0  0  0  0  0  0  0  0  0  0
  142.5757   78.1162  222.0502 H   0  0  0  0  0  0  0  0  0  0  0  0
  140.8200   79.0170  222.9650 C   0  0  0  0  0  0  0  0  0  0  0  0
  139.9450   77.8440  222.7230 C   0  0  0  0  0  0  0  0  0  0  0  0
  140.4870   76.6250  222.4510 N   0  0  0  0  0  0  0  0  0  0  0  0
  139.7070   75.5330  222.2250 C   0  0  0  0  0  0  0  0  0  0  0  0
  140.2380   74.3750  221.9660 N   0  0  0  0  0  0  0  0  0  0  0  0
  141.2160   74.1460  220.9080 C   0  0  0  0  0  0  0  0  0  0  0  0
  142.1941   73.9170  221.3561 H   0  0  0  0  0  0  0  0  0  0  0  0
  140.8909   73.2997  220.2851 H   0  0  0  0  0  0  0  0  0  0  0  0
  141.3004   75.0487  220.2851 H   0  0  0  0  0  0  0  0  0  0  0  0
  138.3170   75.6590  222.2720 C   0  0  0  0  0  0  0  0  0  0  0  0
  137.6684   74.7891  222.0917 H   0  0  0  0  0  0  0  0  0  0  0  0
  137.7660   76.9140  222.5530 C   0  0  0  0  0  0  0  0  0  0  0  0
  136.2770   77.0940  222.6130 C   0  0  0  0  0  0  0  0  0  0  0  0
  135.7190   76.7570  221.3930 F   0  0  0  0  0  0  0  0  0  0  0  0
  135.7280   76.2870  223.5940 F   0  0  0  0  0  0  0  0  0  0  0  0
  135.9790   78.4130  222.9010 F   0  0  0  0  0  0  0  0  0  0  0  0
  138.5900   77.9730  222.7700 N   0  0  0  0  0  0  0  0  0  0  0  0
  140.3170   80.1650  223.6080 C   0  0  0  0  0  0  0  0  0  0  0  0
  139.2665   80.1931  223.9330 H   0  0  0  0  0  0  0  0  0  0  0  0
  141.1450   81.2700  223.8360 C   0  0  0  0  0  0  0  0  0  0  0  0
  140.7439   82.1617  224.3401 H   0  0  0  0  0  0  0  0  0  0  0  0
  1  2  1  0
  2  3  2  0
  3  4  1  0
  3  5  1  0
  5  6  1  0
  5  7  2  0
  7  8  1  0
  8  9  2  0
  9 10  1  0
 10 11  2  0
 11 12  1  0
 12 13  1  0
 12 14  1  0
 12 15  1  0
 10 16  1  0
 16 17  1  0
 16 18  2  0
 18 19  1  0
 19 20  1  0
 19 21  1  0
 19 22  1  0
 18 23  1  0
  7 24  1  0
 24 25  1  0
 24 26  2  0
 26 27  1  0
 26  2  1  0
 23  8  1  0
M  CHG  1  23  -1
M  END
>  <UniqueID>  (60) 
15

>  <SMILES>  (60) 
C/N=c1/cc(C(F)(F)F)[n-]c(-c2ccccc2)n1

>  <Energy>  (60) 
27.79797828538736

>  <Genealogy>  (60) 
CN=c1cc(C(F)(F)F)[n-]c(-c2ccccc2)n1 (protonated)
C/N=c1/cc(C(F)(F)F)[n-]c(-c2ccccc2)n1 (cis-trans isomerization)
C/N=c1/cc(C(F)(F)F)[n-]c(-c2ccccc2)n1 (3D coordinates assigned)
C/N=c1/cc(C(F)(F)F)[n-]c(-c2ccccc2)n1 (optimized conformer: 27.79797828538736 kcal/mol)

>  <smiles>  (60) 
CN=c1cc(C(F)(F)F)[nH]c(-c2ccccc2)n1

>  <score_type>  (60) 
oracle

>  <origin>  (60) 
autodockgpu

>  <m_score__min__energy>  (60) 
-5.0899999999999999

>  <m_primary>  (60) 
energy

>  <meeko>  (60) 
{"free_energy": -4.59, "intermolecular_energy": -5.48, "internal_energy": -0.31, "cluster_size": 1, "cluster_id": 2, "rank_in_cluster": 1}

>  <energy>  (60) 
-4.59

>  <cluster_rmsd>  (60) 
0.0

>  <rmsd>  (60) 
271.28

>  <cluster>  (60) 
2

$$$$
IOQMMJGYZLYJFT-GXUYYRSYNA-N
     RDKit          3D

 28 29  0  0  0  0  0  0  0  0999 V2000
  141.6316   82.1988  224.3809 H   0  0  0  0  0  0  0  0  0  0  0  0
  141.5910   81.2470  223.8310 C   0  0  0  0  0  0  0  0  0  0  0  0
  140.3570   80.6780  223.5110 C   0  0  0  0  0  0  0  0  0  0  0  0
  139.4265   81.1798  223.8151 H   0  0  0  0  0  0  0  0  0  0  0  0
  140.3000   79.4720  222.8050 C   0  0  0  0  0  0  0  0  0  0  0  0
  139.3243   79.0270  222.5599 H   0  0  0  0  0  0  0  0  0  0  0  0
  141.4860   78.8240  222.4060 C   0  0  0  0  0  0  0  0  0  0  0  0
  141.4470   77.5380  221.6640 C   0  0  0  0  0  0  0  0  0  0  0  0
  140.7210   76.5040  222.1660 N   0  0  0  0  0  0  0  0  0  0  0  0
  140.6600   75.3020  221.5340 C   0  0  0  0  0  0  0  0  0  0  0  0
  139.9660   74.3210  222.0320 N   0  0  0  0  0  0  0  0  0  0  0  0
  140.3320   72.9150  221.9020 C   0  0  0  0  0  0  0  0  0  0  0  0
  140.4473   72.4721  222.9023 H   0  0  0  0  0  0  0  0  0  0  0  0
  139.5432   72.3800  221.3528 H   0  0  0  0  0  0  0  0  0  0  0  0
  141.2815   72.8326  221.3528 H   0  0  0  0  0  0  0  0  0  0  0  0
  141.3520   75.1200  220.3380 C   0  0  0  0  0  0  0  0  0  0  0  0
  141.3200   74.1526  219.8155 H   0  0  0  0  0  0  0  0  0  0  0  0
  142.0890   76.1890  219.8120 C   0  0  0  0  0  0  0  0  0  0  0  0
  142.9000   76.0080  218.5550 C   0  0  0  0  0  0  0  0  0  0  0  0
  144.0050   75.2250  218.8330 F   0  0  0  0  0  0  0  0  0  0  0  0
  142.1480   75.3950  217.5680 F   0  0  0  0  0  0  0  0  0  0  0  0
  143.3260   77.2350  218.0740 F   0  0  0  0  0  0  0  0  0  0  0  0
  142.1430   77.3680  220.5010 N   0  0  0  0  0  0  0  0  0  0  0  0
  142.7530   78.1350  220.1420 H   0  0  0  0  0  0  0  0  0  0  0  0
  142.7230   79.4010  222.7470 C   0  0  0  0  0  0  0  0  0  0  0  0
  143.6577   78.8992  222.4562 H   0  0  0  0  0  0  0  0  0  0  0  0
  142.7740   80.6080  223.4530 C   0  0  0  0  0  0  0  0  0  0  0  0
  143.7461   81.0538  223.7104 H   0  0  0  0  0  0  0  0  0  0  0  0
  1  2  1  0
  2  3  2  0
  3  4  1  0
  3  5  1  0
  5  6  1  0
  5  7  2  0
  7  8  1  0
  8  9  2  0
  9 10  1  0
 10 11  2  0
 11 12  1  0
 12 13  1  0
 12 14  1  0
 12 15  1  0
 10 16  1  0
 16 17  1  0
 16 18  2  0
 18 19  1  0
 19 20  1  0
 19 21  1  0
 19 22  1  0
 18 23  1  0
 23 24  1  0
  7 25  1  0
 25 26  1  0
 25 27  2  0
 27 28  1  0
 27  2  1  0
 23  8  1  0
M  END
>  <UniqueID>  (61) 
16

>  <SMILES>  (61) 
C/N=c1/cc(C(F)(F)F)[nH]c(-c2ccccc2)n1

>  <Energy>  (61) 
31.47990974497531

>  <Genealogy>  (61) 
C/N=c1/cc(C(F)(F)F)[nH]c(-c2ccccc2)n1 (cis-trans isomerization)
C/N=c1/cc(C(F)(F)F)[nH]c(-c2ccccc2)n1 (3D coordinates assigned)
C/N=c1/cc(C(F)(F)F)[nH]c(-c2ccccc2)n1 (optimized conformer: 31.47990974497531 kcal/mol)

>  <smiles>  (61) 
CN=c1cc(C(F)(F)F)[nH]c(-c2ccccc2)n1

>  <score_type>  (61) 
oracle

>  <origin>  (61) 
autodockgpu

>  <m_score__min__energy>  (61) 
-5.2599999999999998

>  <m_primary>  (61) 
energy

>  <meeko>  (61) 
{"free_energy": -5.25, "intermolecular_energy": -6.15, "internal_energy": -0.46, "cluster_size": 14, "cluster_id": 1, "rank_in_cluster": 11}

>  <energy>  (61) 
-5.26

>  <cluster_rmsd>  (61) 
0.0

>  <rmsd>  (61) 
272.6

>  <cluster>  (61) 
1

$$$$
IOQMMJGYZLYJFT-GXUYYRSYNA-N
     RDKit          3D

 28 29  0  0  0  0  0  0  0  0999 V2000
  141.8547   82.3054  224.4313 H   0  0  0  0  0  0  0  0  0  0  0  0
  141.7710   81.3590  223.8770 C   0  0  0  0  0  0  0  0  0  0  0  0
  140.5160   80.8860  223.4880 C   0  0  0  0  0  0  0  0  0  0  0  0
  139.6117   81.4585  223.7418 H   0  0  0  0  0  0  0  0  0  0  0  0
  140.4050   79.6870  222.7770 C   0  0  0  0  0  0  0  0  0  0  0  0
  139.4128   79.3178  222.4783 H   0  0  0  0  0  0  0  0  0  0  0  0
  141.5580   78.9490  222.4410 C   0  0  0  0  0  0  0  0  0  0  0  0
  141.4600   77.6690  221.6950 C   0  0  0  0  0  0  0  0  0  0  0  0
  140.7460   76.6430  222.2290 N   0  0  0  0  0  0  0  0  0  0  0  0
  140.6330   75.4460  221.5930 C   0  0  0  0  0  0  0  0  0  0  0  0
  139.9510   74.4720  222.1210 N   0  0  0  0  0  0  0  0  0  0  0  0
  140.2890   73.0620  221.9650 C   0  0  0  0  0  0  0  0  0  0  0  0
  140.3998   72.5996  222.9569 H   0  0  0  0  0  0  0  0  0  0  0  0
  139.4877   72.5521  221.4102 H   0  0  0  0  0  0  0  0  0  0  0  0
  141.2345   72.9708  221.4102 H   0  0  0  0  0  0  0  0  0  0  0  0
  141.2590   75.2610  220.3610 C   0  0  0  0  0  0  0  0  0  0  0  0
  141.1846   74.2979  219.8348 H   0  0  0  0  0  0  0  0  0  0  0  0
  141.9840   76.3220  219.8050 C   0  0  0  0  0  0  0  0  0  0  0  0
  142.7250   76.1380  218.5050 C   0  0  0  0  0  0  0  0  0  0  0  0
  141.8460   75.6850  217.5390 F   0  0  0  0  0  0  0  0  0  0  0  0
  143.2850   77.3320  218.0840 F   0  0  0  0  0  0  0  0  0  0  0  0
  143.7440   75.2130  218.6570 F   0  0  0  0  0  0  0  0  0  0  0  0
  142.0920   77.4960  220.4960 N   0  0  0  0  0  0  0  0  0  0  0  0
  142.6940   78.2560  220.1100 H   0  0  0  0  0  0  0  0  0  0  0  0
  142.8160   79.4300  222.8510 C   0  0  0  0  0  0  0  0  0  0  0  0
  143.7241   78.8577  222.6103 H   0  0  0  0  0  0  0  0  0  0  0  0
  142.9200   80.6300  223.5620 C   0  0  0  0  0  0  0  0  0  0  0  0
  143.9079   81.0001  223.8735 H   0  0  0  0  0  0  0  0  0  0  0  0
  1  2  1  0
  2  3  2  0
  3  4  1  0
  3  5  1  0
  5  6  1  0
  5  7  2  0
  7  8  1  0
  8  9  2  0
  9 10  1  0
 10 11  2  0
 11 12  1  0
 12 13  1  0
 12 14  1  0
 12 15  1  0
 10 16  1  0
 16 17  1  0
 16 18  2  0
 18 19  1  0
 19 20  1  0
 19 21  1  0
 19 22  1  0
 18 23  1  0
 23 24  1  0
  7 25  1  0
 25 26  1  0
 25 27  2  0
 27 28  1  0
 27  2  1  0
 23  8  1  0
M  END
>  <UniqueID>  (62) 
16

>  <SMILES>  (62) 
C/N=c1/cc(C(F)(F)F)[nH]c(-c2ccccc2)n1

>  <Energy>  (62) 
31.47990974497531

>  <Genealogy>  (62) 
C/N=c1/cc(C(F)(F)F)[nH]c(-c2ccccc2)n1 (cis-trans isomerization)
C/N=c1/cc(C(F)(F)F)[nH]c(-c2ccccc2)n1 (3D coordinates assigned)
C/N=c1/cc(C(F)(F)F)[nH]c(-c2ccccc2)n1 (optimized conformer: 31.47990974497531 kcal/mol)

>  <smiles>  (62) 
CN=c1cc(C(F)(F)F)[nH]c(-c2ccccc2)n1

>  <score_type>  (62) 
oracle

>  <origin>  (62) 
autodockgpu

>  <m_score__min__energy>  (62) 
-5.2599999999999998

>  <m_primary>  (62) 
energy

>  <meeko>  (62) 
{"free_energy": -5.25, "intermolecular_energy": -6.15, "internal_energy": -0.46, "cluster_size": 14, "cluster_id": 1, "rank_in_cluster": 12}

>  <energy>  (62) 
-5.26

>  <cluster_rmsd>  (62) 
0.04

>  <rmsd>  (62) 
272.59

>  <cluster>  (62) 
1

$$$$
IOQMMJGYZLYJFT-GXUYYRSYNA-N
     RDKit          3D

 28 29  0  0  0  0  0  0  0  0999 V2000
  141.1699   69.9684  229.4069 H   0  0  0  0  0  0  0  0  0  0  0  0
  140.9760   70.1750  228.3440 C   0  0  0  0  0  0  0  0  0  0  0  0
  140.6650   69.1280  227.4750 C   0  0  0  0  0  0  0  0  0  0  0  0
  140.6211   68.0960  227.8533 H   0  0  0  0  0  0  0  0  0  0  0  0
  140.4090   69.3870  226.1250 C   0  0  0  0  0  0  0  0  0  0  0  0
  140.1681   68.5567  225.4448 H   0  0  0  0  0  0  0  0  0  0  0  0
  140.4580   70.7060  225.6310 C   0  0  0  0  0  0  0  0  0  0  0  0
  140.1990   71.0000  224.1980 C   0  0  0  0  0  0  0  0  0  0  0  0
  140.3840   72.2660  223.7380 N   0  0  0  0  0  0  0  0  0  0  0  0
  140.1510   72.5930  222.4380 C   0  0  0  0  0  0  0  0  0  0  0  0
  140.3260   73.8100  222.0160 N   0  0  0  0  0  0  0  0  0  0  0  0
  139.2590   74.7990  221.9160 C   0  0  0  0  0  0  0  0  0  0  0  0
  138.9386   75.0960  222.9255 H   0  0  0  0  0  0  0  0  0  0  0  0
  139.6274   75.6822  221.3735 H   0  0  0  0  0  0  0  0  0  0  0  0
  138.4062   74.3648  221.3735 H   0  0  0  0  0  0  0  0  0  0  0  0
  139.7170   71.6090  221.5500 C   0  0  0  0  0  0  0  0  0  0  0  0
  139.5170   71.8555  220.4968 H   0  0  0  0  0  0  0  0  0  0  0  0
  139.5400   70.3020  222.0210 C   0  0  0  0  0  0  0  0  0  0  0  0
  139.0120   69.2290  221.1050 C   0  0  0  0  0  0  0  0  0  0  0  0
  137.9360   69.7250  220.3930 F   0  0  0  0  0  0  0  0  0  0  0  0
  139.9900   68.8160  220.2160 F   0  0  0  0  0  0  0  0  0  0  0  0
  138.6000   68.1290  221.8360 F   0  0  0  0  0  0  0  0  0  0  0  0
  139.7590   70.0310  223.3420 N   0  0  0  0  0  0  0  0  0  0  0  0
  139.5550   69.0720  223.7020 H   0  0  0  0  0  0  0  0  0  0  0  0
  140.7870   71.7500  226.5150 C   0  0  0  0  0  0  0  0  0  0  0  0
  140.8448   72.7831  226.1417 H   0  0  0  0  0  0  0  0  0  0  0  0
  141.0410   71.4850  227.8640 C   0  0  0  0  0  0  0  0  0  0  0  0
  141.2923   72.3090  228.5480 H   0  0  0  0  0  0  0  0  0  0  0  0
  1  2  1  0
  2  3  2  0
  3  4  1  0
  3  5  1  0
  5  6  1  0
  5  7  2  0
  7  8  1  0
  8  9  2  0
  9 10  1  0
 10 11  2  0
 11 12  1  0
 12 13  1  0
 12 14  1  0
 12 15  1  0
 10 16  1  0
 16 17  1  0
 16 18  2  0
 18 19  1  0
 19 20  1  0
 19 21  1  0
 19 22  1  0
 18 23  1  0
 23 24  1  0
  7 25  1  0
 25 26  1  0
 25 27  2  0
 27 28  1  0
 27  2  1  0
 23  8  1  0
M  END
>  <UniqueID>  (63) 
16

>  <SMILES>  (63) 
C/N=c1/cc(C(F)(F)F)[nH]c(-c2ccccc2)n1

>  <Energy>  (63) 
31.47990974497531

>  <Genealogy>  (63) 
C/N=c1/cc(C(F)(F)F)[nH]c(-c2ccccc2)n1 (cis-trans isomerization)
C/N=c1/cc(C(F)(F)F)[nH]c(-c2ccccc2)n1 (3D coordinates assigned)
C/N=c1/cc(C(F)(F)F)[nH]c(-c2ccccc2)n1 (optimized conformer: 31.47990974497531 kcal/mol)

>  <smiles>  (63) 
CN=c1cc(C(F)(F)F)[nH]c(-c2ccccc2)n1

>  <score_type>  (63) 
oracle

>  <origin>  (63) 
autodockgpu

>  <m_score__min__energy>  (63) 
-5.2599999999999998

>  <m_primary>  (63) 
energy

>  <meeko>  (63) 
{"free_energy": -5.25, "intermolecular_energy": -6.14, "internal_energy": -0.47, "cluster_size": 6, "cluster_id": 2, "rank_in_cluster": 2}

>  <energy>  (63) 
-5.26

>  <cluster_rmsd>  (63) 
0.19

>  <rmsd>  (63) 
272.59

>  <cluster>  (63) 
1

$$$$
IOQMMJGYZLYJFT-GXUYYRSYNA-N
     RDKit          3D

 28 29  0  0  0  0  0  0  0  0999 V2000
  141.1564   69.9237  229.4032 H   0  0  0  0  0  0  0  0  0  0  0  0
  140.9590   70.1500  228.3450 C   0  0  0  0  0  0  0  0  0  0  0  0
  141.0630   71.4630  227.8800 C   0  0  0  0  0  0  0  0  0  0  0  0
  141.3347   72.2708  228.5754 H   0  0  0  0  0  0  0  0  0  0  0  0
  140.8230   71.7540  226.5340 C   0  0  0  0  0  0  0  0  0  0  0  0
  140.9038   72.7909  226.1758 H   0  0  0  0  0  0  0  0  0  0  0  0
  140.4780   70.7260  225.6330 C   0  0  0  0  0  0  0  0  0  0  0  0
  140.2090   71.0160  224.2020 C   0  0  0  0  0  0  0  0  0  0  0  0
  140.3840   72.2820  223.7380 N   0  0  0  0  0  0  0  0  0  0  0  0
  140.1420   72.6050  222.4390 C   0  0  0  0  0  0  0  0  0  0  0  0
  140.3070   73.8220  222.0130 N   0  0  0  0  0  0  0  0  0  0  0  0
  139.2350   74.8070  221.9210 C   0  0  0  0  0  0  0  0  0  0  0  0
  138.9174   75.0988  222.9329 H   0  0  0  0  0  0  0  0  0  0  0  0
  139.5973   75.6938  221.3804 H   0  0  0  0  0  0  0  0  0  0  0  0
  138.3819   74.3711  221.3804 H   0  0  0  0  0  0  0  0  0  0  0  0
  139.7080   71.6170  221.5560 C   0  0  0  0  0  0  0  0  0  0  0  0
  139.5008   71.8604  220.5035 H   0  0  0  0  0  0  0  0  0  0  0  0
  139.5400   70.3100  222.0300 C   0  0  0  0  0  0  0  0  0  0  0  0
  139.0130   69.2320  221.1190 C   0  0  0  0  0  0  0  0  0  0  0  0
  140.0310   68.7960  220.2920 F   0  0  0  0  0  0  0  0  0  0  0  0
  138.5350   68.1590  221.8510 F   0  0  0  0  0  0  0  0  0  0  0  0
  137.9780   69.7200  220.3410 F   0  0  0  0  0  0  0  0  0  0  0  0
  139.7690   70.0430  223.3510 N   0  0  0  0  0  0  0  0  0  0  0  0
  139.5720   69.0840  223.7130 H   0  0  0  0  0  0  0  0  0  0  0  0
  140.3620   69.4090  226.1180 C   0  0  0  0  0  0  0  0  0  0  0  0
  140.0786   68.5978  225.4312 H   0  0  0  0  0  0  0  0  0  0  0  0
  140.6040   69.1240  227.4650 C   0  0  0  0  0  0  0  0  0  0  0  0
  140.5149   68.0911  227.8327 H   0  0  0  0  0  0  0  0  0  0  0  0
  1  2  1  0
  2  3  2  0
  3  4  1  0
  3  5  1  0
  5  6  1  0
  5  7  2  0
  7  8  1  0
  8  9  2  0
  9 10  1  0
 10 11  2  0
 11 12  1  0
 12 13  1  0
 12 14  1  0
 12 15  1  0
 10 16  1  0
 16 17  1  0
 16 18  2  0
 18 19  1  0
 19 20  1  0
 19 21  1  0
 19 22  1  0
 18 23  1  0
 23 24  1  0
  7 25  1  0
 25 26  1  0
 25 27  2  0
 27 28  1  0
 27  2  1  0
 23  8  1  0
M  END
>  <UniqueID>  (64) 
16

>  <SMILES>  (64) 
C/N=c1/cc(C(F)(F)F)[nH]c(-c2ccccc2)n1

>  <Energy>  (64) 
31.47990974497531

>  <Genealogy>  (64) 
C/N=c1/cc(C(F)(F)F)[nH]c(-c2ccccc2)n1 (cis-trans isomerization)
C/N=c1/cc(C(F)(F)F)[nH]c(-c2ccccc2)n1 (3D coordinates assigned)
C/N=c1/cc(C(F)(F)F)[nH]c(-c2ccccc2)n1 (optimized conformer: 31.47990974497531 kcal/mol)

>  <smiles>  (64) 
CN=c1cc(C(F)(F)F)[nH]c(-c2ccccc2)n1

>  <score_type>  (64) 
oracle

>  <origin>  (64) 
autodockgpu

>  <m_score__min__energy>  (64) 
-5.2599999999999998

>  <m_primary>  (64) 
energy

>  <meeko>  (64) 
{"free_energy": -5.24, "intermolecular_energy": -6.14, "internal_energy": -0.47, "cluster_size": 6, "cluster_id": 2, "rank_in_cluster": 4}

>  <energy>  (64) 
-5.26

>  <cluster_rmsd>  (64) 
0.15

>  <rmsd>  (64) 
272.59

>  <cluster>  (64) 
1

$$$$
IOQMMJGYZLYJFT-GXUYYRSYNA-N
     RDKit          3D

 28 29  0  0  0  0  0  0  0  0999 V2000
  141.6781   82.2186  224.3703 H   0  0  0  0  0  0  0  0  0  0  0  0
  141.6280   81.2640  223.8260 C   0  0  0  0  0  0  0  0  0  0  0  0
  140.3890   80.6950  223.5270 C   0  0  0  0  0  0  0  0  0  0  0  0
  139.4637   81.1998  223.8417 H   0  0  0  0  0  0  0  0  0  0  0  0
  140.3200   79.4860  222.8290 C   0  0  0  0  0  0  0  0  0  0  0  0
  139.3402   79.0411  222.6009 H   0  0  0  0  0  0  0  0  0  0  0  0
  141.4990   78.8340  222.4160 C   0  0  0  0  0  0  0  0  0  0  0  0
  141.4480   77.5440  221.6820 C   0  0  0  0  0  0  0  0  0  0  0  0
  140.7140   76.5190  222.1920 N   0  0  0  0  0  0  0  0  0  0  0  0
  140.6400   75.3140  221.5670 C   0  0  0  0  0  0  0  0  0  0  0  0
  139.9400   74.3420  222.0720 N   0  0  0  0  0  0  0  0  0  0  0  0
  140.2910   72.9320  221.9460 C   0  0  0  0  0  0  0  0  0  0  0  0
  140.4009   72.4906  222.9475 H   0  0  0  0  0  0  0  0  0  0  0  0
  139.4969   72.4040  221.3977 H   0  0  0  0  0  0  0  0  0  0  0  0
  141.2400   72.8380  221.3977 H   0  0  0  0  0  0  0  0  0  0  0  0
  141.3290   75.1180  220.3700 C   0  0  0  0  0  0  0  0  0  0  0  0
  141.2880   74.1477  219.8534 H   0  0  0  0  0  0  0  0  0  0  0  0
  142.0740   76.1780  219.8370 C   0  0  0  0  0  0  0  0  0  0  0  0
  142.8810   75.9830  218.5790 C   0  0  0  0  0  0  0  0  0  0  0  0
  142.0970   75.3570  217.6270 F   0  0  0  0  0  0  0  0  0  0  0  0
  143.3140   77.1980  218.0790 F   0  0  0  0  0  0  0  0  0  0  0  0
  143.9920   75.1990  218.8340 F   0  0  0  0  0  0  0  0  0  0  0  0
  142.1390   77.3600  220.5180 N   0  0  0  0  0  0  0  0  0  0  0  0
  142.7550   78.1200  220.1530 H   0  0  0  0  0  0  0  0  0  0  0  0
  142.7420   79.4110  222.7360 C   0  0  0  0  0  0  0  0  0  0  0  0
  143.6718   78.9063  222.4347 H   0  0  0  0  0  0  0  0  0  0  0  0
  142.8040   80.6210  223.4340 C   0  0  0  0  0  0  0  0  0  0  0  0
  143.7803   81.0669  223.6746 H   0  0  0  0  0  0  0  0  0  0  0  0
  1  2  1  0
  2  3  2  0
  3  4  1  0
  3  5  1  0
  5  6  1  0
  5  7  2  0
  7  8  1  0
  8  9  2  0
  9 10  1  0
 10 11  2  0
 11 12  1  0
 12 13  1  0
 12 14  1  0
 12 15  1  0
 10 16  1  0
 16 17  1  0
 16 18  2  0
 18 19  1  0
 19 20  1  0
 19 21  1  0
 19 22  1  0
 18 23  1  0
 23 24  1  0
  7 25  1  0
 25 26  1  0
 25 27  2  0
 27 28  1  0
 27  2  1  0
 23  8  1  0
M  END
>  <UniqueID>  (65) 
16

>  <SMILES>  (65) 
C/N=c1/cc(C(F)(F)F)[nH]c(-c2ccccc2)n1

>  <Energy>  (65) 
31.47990974497531

>  <Genealogy>  (65) 
C/N=c1/cc(C(F)(F)F)[nH]c(-c2ccccc2)n1 (cis-trans isomerization)
C/N=c1/cc(C(F)(F)F)[nH]c(-c2ccccc2)n1 (3D coordinates assigned)
C/N=c1/cc(C(F)(F)F)[nH]c(-c2ccccc2)n1 (optimized conformer: 31.47990974497531 kcal/mol)

>  <smiles>  (65) 
CN=c1cc(C(F)(F)F)[nH]c(-c2ccccc2)n1

>  <score_type>  (65) 
oracle

>  <origin>  (65) 
autodockgpu

>  <m_score__min__energy>  (65) 
-5.2599999999999998

>  <m_primary>  (65) 
energy

>  <meeko>  (65) 
{"free_energy": -5.26, "intermolecular_energy": -6.15, "internal_energy": -0.46, "cluster_size": 14, "cluster_id": 1, "rank_in_cluster": 10}

>  <energy>  (65) 
-5.26

>  <cluster_rmsd>  (65) 
0.04

>  <rmsd>  (65) 
272.61

>  <cluster>  (65) 
1

$$$$
IOQMMJGYZLYJFT-GXUYYRSYNA-N
     RDKit          3D

 28 29  0  0  0  0  0  0  0  0999 V2000
  141.6778   82.2329  224.3915 H   0  0  0  0  0  0  0  0  0  0  0  0
  141.6290   81.2790  223.8460 C   0  0  0  0  0  0  0  0  0  0  0  0
  140.3890   80.7240  223.5200 C   0  0  0  0  0  0  0  0  0  0  0  0
  139.4627   81.2381  223.8160 H   0  0  0  0  0  0  0  0  0  0  0  0
  140.3230   79.5160  222.8180 C   0  0  0  0  0  0  0  0  0  0  0  0
  139.3438   79.0825  222.5665 H   0  0  0  0  0  0  0  0  0  0  0  0
  141.5040   78.8510  222.4310 C   0  0  0  0  0  0  0  0  0  0  0  0
  141.4540   77.5630  221.6940 C   0  0  0  0  0  0  0  0  0  0  0  0
  140.7250   76.5350  222.2040 N   0  0  0  0  0  0  0  0  0  0  0  0
  140.6530   75.3310  221.5770 C   0  0  0  0  0  0  0  0  0  0  0  0
  139.9570   74.3560  222.0820 N   0  0  0  0  0  0  0  0  0  0  0  0
  140.3140   72.9480  221.9560 C   0  0  0  0  0  0  0  0  0  0  0  0
  140.4258   72.5070  222.9575 H   0  0  0  0  0  0  0  0  0  0  0  0
  139.5222   72.4166  221.4077 H   0  0  0  0  0  0  0  0  0  0  0  0
  141.2634   72.8581  221.4077 H   0  0  0  0  0  0  0  0  0  0  0  0
  141.3400   75.1400  220.3780 C   0  0  0  0  0  0  0  0  0  0  0  0
  141.3003   74.1707  219.8595 H   0  0  0  0  0  0  0  0  0  0  0  0
  142.0810   76.2020  219.8450 C   0  0  0  0  0  0  0  0  0  0  0  0
  142.8850   76.0120  218.5850 C   0  0  0  0  0  0  0  0  0  0  0  0
  143.9870   75.2260  218.8620 F   0  0  0  0  0  0  0  0  0  0  0  0
  142.1250   75.3970  217.6050 F   0  0  0  0  0  0  0  0  0  0  0  0
  143.3130   77.2350  218.0970 F   0  0  0  0  0  0  0  0  0  0  0  0
  142.1440   77.3840  220.5290 N   0  0  0  0  0  0  0  0  0  0  0  0
  142.7560   78.1470  220.1640 H   0  0  0  0  0  0  0  0  0  0  0  0
  142.7460   79.4150  222.7790 C   0  0  0  0  0  0  0  0  0  0  0  0
  143.6768   78.9008  222.4974 H   0  0  0  0  0  0  0  0  0  0  0  0
  142.8060   80.6240  223.4800 C   0  0  0  0  0  0  0  0  0  0  0  0
  143.7815   81.0589  223.7430 H   0  0  0  0  0  0  0  0  0  0  0  0
  1  2  1  0
  2  3  2  0
  3  4  1  0
  3  5  1  0
  5  6  1  0
  5  7  2  0
  7  8  1  0
  8  9  2  0
  9 10  1  0
 10 11  2  0
 11 12  1  0
 12 13  1  0
 12 14  1  0
 12 15  1  0
 10 16  1  0
 16 17  1  0
 16 18  2  0
 18 19  1  0
 19 20  1  0
 19 21  1  0
 19 22  1  0
 18 23  1  0
 23 24  1  0
  7 25  1  0
 25 26  1  0
 25 27  2  0
 27 28  1  0
 27  2  1  0
 23  8  1  0
M  END
>  <UniqueID>  (66) 
16

>  <SMILES>  (66) 
C/N=c1/cc(C(F)(F)F)[nH]c(-c2ccccc2)n1

>  <Energy>  (66) 
31.47990974497531

>  <Genealogy>  (66) 
C/N=c1/cc(C(F)(F)F)[nH]c(-c2ccccc2)n1 (cis-trans isomerization)
C/N=c1/cc(C(F)(F)F)[nH]c(-c2ccccc2)n1 (3D coordinates assigned)
C/N=c1/cc(C(F)(F)F)[nH]c(-c2ccccc2)n1 (optimized conformer: 31.47990974497531 kcal/mol)

>  <smiles>  (66) 
CN=c1cc(C(F)(F)F)[nH]c(-c2ccccc2)n1

>  <score_type>  (66) 
oracle

>  <origin>  (66) 
autodockgpu

>  <m_score__min__energy>  (66) 
-5.2599999999999998

>  <m_primary>  (66) 
energy

>  <meeko>  (66) 
{"free_energy": -5.26, "intermolecular_energy": -6.15, "internal_energy": -0.46, "cluster_size": 14, "cluster_id": 1, "rank_in_cluster": 5}

>  <energy>  (66) 
-5.26

>  <cluster_rmsd>  (66) 
0.04

>  <rmsd>  (66) 
272.6

>  <cluster>  (66) 
1

$$$$
IOQMMJGYZLYJFT-GXUYYRSYNA-N
     RDKit          3D

 28 29  0  0  0  0  0  0  0  0999 V2000
  141.2379   69.9334  229.3824 H   0  0  0  0  0  0  0  0  0  0  0  0
  141.0150   70.1490  228.3270 C   0  0  0  0  0  0  0  0  0  0  0  0
  140.6990   69.1070  227.4530 C   0  0  0  0  0  0  0  0  0  0  0  0
  140.6789   68.0704  227.8204 H   0  0  0  0  0  0  0  0  0  0  0  0
  140.4080   69.3770  226.1120 C   0  0  0  0  0  0  0  0  0  0  0  0
  140.1638   68.5508  225.4280 H   0  0  0  0  0  0  0  0  0  0  0  0
  140.4260   70.7030  225.6320 C   0  0  0  0  0  0  0  0  0  0  0  0
  140.1300   71.0090  224.2100 C   0  0  0  0  0  0  0  0  0  0  0  0
  140.3590   72.2640  223.7400 N   0  0  0  0  0  0  0  0  0  0  0  0
  140.0960   72.6030  222.4500 C   0  0  0  0  0  0  0  0  0  0  0  0
  140.3150   73.8100  222.0190 N   0  0  0  0  0  0  0  0  0  0  0  0
  139.2860   74.8390  221.9210 C   0  0  0  0  0  0  0  0  0  0  0  0
  138.9780   75.1469  222.9311 H   0  0  0  0  0  0  0  0  0  0  0  0
  139.6870   75.7081  221.3790 H   0  0  0  0  0  0  0  0  0  0  0  0
  138.4169   74.4380  221.3790 H   0  0  0  0  0  0  0  0  0  0  0  0
  139.5820   71.6420  221.5800 C   0  0  0  0  0  0  0  0  0  0  0  0
  139.3561   71.8984  220.5344 H   0  0  0  0  0  0  0  0  0  0  0  0
  139.3580   70.3450  222.0590 C   0  0  0  0  0  0  0  0  0  0  0  0
  138.7450   69.2990  221.1650 C   0  0  0  0  0  0  0  0  0  0  0  0
  138.3850   68.2020  221.9260 F   0  0  0  0  0  0  0  0  0  0  0  0
  137.6210   69.7940  220.5260 F   0  0  0  0  0  0  0  0  0  0  0  0
  139.6510   68.8990  220.1980 F   0  0  0  0  0  0  0  0  0  0  0  0
  139.6120   70.0630  223.3720 N   0  0  0  0  0  0  0  0  0  0  0  0
  139.3740   69.1160  223.7410 H   0  0  0  0  0  0  0  0  0  0  0  0
  140.7590   71.7420  226.5210 C   0  0  0  0  0  0  0  0  0  0  0  0
  140.7922   72.7802  226.1590 H   0  0  0  0  0  0  0  0  0  0  0  0
  141.0480   71.4650  227.8610 C   0  0  0  0  0  0  0  0  0  0  0  0
  141.3017   72.2850  228.5489 H   0  0  0  0  0  0  0  0  0  0  0  0
  1  2  1  0
  2  3  2  0
  3  4  1  0
  3  5  1  0
  5  6  1  0
  5  7  2  0
  7  8  1  0
  8  9  2  0
  9 10  1  0
 10 11  2  0
 11 12  1  0
 12 13  1  0
 12 14  1  0
 12 15  1  0
 10 16  1  0
 16 17  1  0
 16 18  2  0
 18 19  1  0
 19 20  1  0
 19 21  1  0
 19 22  1  0
 18 23  1  0
 23 24  1  0
  7 25  1  0
 25 26  1  0
 25 27  2  0
 27 28  1  0
 27  2  1  0
 23  8  1  0
M  END
>  <UniqueID>  (67) 
16

>  <SMILES>  (67) 
C/N=c1/cc(C(F)(F)F)[nH]c(-c2ccccc2)n1

>  <Energy>  (67) 
31.47990974497531

>  <Genealogy>  (67) 
C/N=c1/cc(C(F)(F)F)[nH]c(-c2ccccc2)n1 (cis-trans isomerization)
C/N=c1/cc(C(F)(F)F)[nH]c(-c2ccccc2)n1 (3D coordinates assigned)
C/N=c1/cc(C(F)(F)F)[nH]c(-c2ccccc2)n1 (optimized conformer: 31.47990974497531 kcal/mol)

>  <smiles>  (67) 
CN=c1cc(C(F)(F)F)[nH]c(-c2ccccc2)n1

>  <score_type>  (67) 
oracle

>  <origin>  (67) 
autodockgpu

>  <m_score__min__energy>  (67) 
-5.2599999999999998

>  <m_primary>  (67) 
energy

>  <meeko>  (67) 
{"free_energy": -5.24, "intermolecular_energy": -6.13, "internal_energy": -0.47, "cluster_size": 6, "cluster_id": 2, "rank_in_cluster": 6}

>  <energy>  (67) 
-5.26

>  <cluster_rmsd>  (67) 
0.03

>  <rmsd>  (67) 
272.59

>  <cluster>  (67) 
1

$$$$
IOQMMJGYZLYJFT-GXUYYRSYNA-N
     RDKit          3D

 28 29  0  0  0  0  0  0  0  0999 V2000
  141.6079   82.2208  224.3466 H   0  0  0  0  0  0  0  0  0  0  0  0
  141.5700   81.2630  223.8070 C   0  0  0  0  0  0  0  0  0  0  0  0
  140.3370   80.6880  223.4910 C   0  0  0  0  0  0  0  0  0  0  0  0
  139.4048   81.1907  223.7881 H   0  0  0  0  0  0  0  0  0  0  0  0
  140.2850   79.4750  222.7980 C   0  0  0  0  0  0  0  0  0  0  0  0
  139.3109   79.0252  222.5557 H   0  0  0  0  0  0  0  0  0  0  0  0
  141.4730   78.8250  222.4080 C   0  0  0  0  0  0  0  0  0  0  0  0
  141.4380   77.5310  221.6800 C   0  0  0  0  0  0  0  0  0  0  0  0
  140.7120   76.5010  222.1910 N   0  0  0  0  0  0  0  0  0  0  0  0
  140.6540   75.2920  221.5710 C   0  0  0  0  0  0  0  0  0  0  0  0
  139.9600   74.3160  222.0780 N   0  0  0  0  0  0  0  0  0  0  0  0
  140.3340   72.9100  221.9740 C   0  0  0  0  0  0  0  0  0  0  0  0
  140.4470   72.4851  222.9823 H   0  0  0  0  0  0  0  0  0  0  0  0
  139.5505   72.3614  221.4306 H   0  0  0  0  0  0  0  0  0  0  0  0
  141.2865   72.8232  221.4306 H   0  0  0  0  0  0  0  0  0  0  0  0
  141.3500   75.0980  220.3790 C   0  0  0  0  0  0  0  0  0  0  0  0
  141.3202   74.1253  219.8661 H   0  0  0  0  0  0  0  0  0  0  0  0
  142.0880   76.1620  219.8450 C   0  0  0  0  0  0  0  0  0  0  0  0
  142.9030   75.9690  218.5920 C   0  0  0  0  0  0  0  0  0  0  0  0
  142.1360   75.3180  217.6450 F   0  0  0  0  0  0  0  0  0  0  0  0
  143.3150   77.1880  218.0800 F   0  0  0  0  0  0  0  0  0  0  0  0
  144.0290   75.2100  218.8600 F   0  0  0  0  0  0  0  0  0  0  0  0
  142.1380   77.3490  220.5210 N   0  0  0  0  0  0  0  0  0  0  0  0
  142.7480   78.1130  220.1560 H   0  0  0  0  0  0  0  0  0  0  0  0
  142.7080   79.4080  222.7450 C   0  0  0  0  0  0  0  0  0  0  0  0
  143.6443   78.9051  222.4612 H   0  0  0  0  0  0  0  0  0  0  0  0
  142.7550   80.6220  223.4380 C   0  0  0  0  0  0  0  0  0  0  0  0
  143.7258   81.0723  223.6926 H   0  0  0  0  0  0  0  0  0  0  0  0
  1  2  1  0
  2  3  2  0
  3  4  1  0
  3  5  1  0
  5  6  1  0
  5  7  2  0
  7  8  1  0
  8  9  2  0
  9 10  1  0
 10 11  2  0
 11 12  1  0
 12 13  1  0
 12 14  1  0
 12 15  1  0
 10 16  1  0
 16 17  1  0
 16 18  2  0
 18 19  1  0
 19 20  1  0
 19 21  1  0
 19 22  1  0
 18 23  1  0
 23 24  1  0
  7 25  1  0
 25 26  1  0
 25 27  2  0
 27 28  1  0
 27  2  1  0
 23  8  1  0
M  END
>  <UniqueID>  (68) 
16

>  <SMILES>  (68) 
C/N=c1/cc(C(F)(F)F)[nH]c(-c2ccccc2)n1

>  <Energy>  (68) 
31.47990974497531

>  <Genealogy>  (68) 
C/N=c1/cc(C(F)(F)F)[nH]c(-c2ccccc2)n1 (cis-trans isomerization)
C/N=c1/cc(C(F)(F)F)[nH]c(-c2ccccc2)n1 (3D coordinates assigned)
C/N=c1/cc(C(F)(F)F)[nH]c(-c2ccccc2)n1 (optimized conformer: 31.47990974497531 kcal/mol)

>  <smiles>  (68) 
CN=c1cc(C(F)(F)F)[nH]c(-c2ccccc2)n1

>  <score_type>  (68) 
oracle

>  <origin>  (68) 
autodockgpu

>  <m_score__min__energy>  (68) 
-5.2599999999999998

>  <m_primary>  (68) 
energy

>  <meeko>  (68) 
{"free_energy": -5.25, "intermolecular_energy": -6.15, "internal_energy": -0.46, "cluster_size": 14, "cluster_id": 1, "rank_in_cluster": 13}

>  <energy>  (68) 
-5.26

>  <cluster_rmsd>  (68) 
0.03

>  <rmsd>  (68) 
272.6

>  <cluster>  (68) 
1

$$$$
IOQMMJGYZLYJFT-GXUYYRSYNA-N
     RDKit          3D

 28 29  0  0  0  0  0  0  0  0999 V2000
  141.1893   69.9367  229.4062 H   0  0  0  0  0  0  0  0  0  0  0  0
  140.9860   70.1480  228.3460 C   0  0  0  0  0  0  0  0  0  0  0  0
  140.6770   69.1030  227.4730 C   0  0  0  0  0  0  0  0  0  0  0  0
  140.6443   68.0685  227.8456 H   0  0  0  0  0  0  0  0  0  0  0  0
  140.4090   69.3680  226.1260 C   0  0  0  0  0  0  0  0  0  0  0  0
  140.1689   68.5401  225.4427 H   0  0  0  0  0  0  0  0  0  0  0  0
  140.4450   70.6900  225.6400 C   0  0  0  0  0  0  0  0  0  0  0  0
  140.1730   70.9910  224.2110 C   0  0  0  0  0  0  0  0  0  0  0  0
  140.3690   72.2560  223.7510 N   0  0  0  0  0  0  0  0  0  0  0  0
  140.1260   72.5890  222.4550 C   0  0  0  0  0  0  0  0  0  0  0  0
  140.3110   73.8050  222.0340 N   0  0  0  0  0  0  0  0  0  0  0  0
  139.2460   74.7930  221.9030 C   0  0  0  0  0  0  0  0  0  0  0  0
  138.9100   75.1047  222.9030 H   0  0  0  0  0  0  0  0  0  0  0  0
  139.6233   75.6681  221.3536 H   0  0  0  0  0  0  0  0  0  0  0  0
  138.4016   74.3513  221.3536 H   0  0  0  0  0  0  0  0  0  0  0  0
  139.6700   71.6130  221.5700 C   0  0  0  0  0  0  0  0  0  0  0  0
  139.4612   71.8645  220.5197 H   0  0  0  0  0  0  0  0  0  0  0  0
  139.4820   70.3070  222.0400 C   0  0  0  0  0  0  0  0  0  0  0  0
  138.9310   69.2420  221.1260 C   0  0  0  0  0  0  0  0  0  0  0  0
  139.9150   68.8490  220.2390 F   0  0  0  0  0  0  0  0  0  0  0  0
  138.5110   68.1410  221.8520 F   0  0  0  0  0  0  0  0  0  0  0  0
  137.8490   69.7290  220.4140 F   0  0  0  0  0  0  0  0  0  0  0  0
  139.7130   70.0300  223.3570 N   0  0  0  0  0  0  0  0  0  0  0  0
  139.5000   69.0730  223.7170 H   0  0  0  0  0  0  0  0  0  0  0  0
  140.7720   71.7320  226.5280 C   0  0  0  0  0  0  0  0  0  0  0  0
  140.8195   72.7676  226.1603 H   0  0  0  0  0  0  0  0  0  0  0  0
  141.0370   71.4610  227.8740 C   0  0  0  0  0  0  0  0  0  0  0  0
  141.2858   72.2829  228.5615 H   0  0  0  0  0  0  0  0  0  0  0  0
  1  2  1  0
  2  3  2  0
  3  4  1  0
  3  5  1  0
  5  6  1  0
  5  7  2  0
  7  8  1  0
  8  9  2  0
  9 10  1  0
 10 11  2  0
 11 12  1  0
 12 13  1  0
 12 14  1  0
 12 15  1  0
 10 16  1  0
 16 17  1  0
 16 18  2  0
 18 19  1  0
 19 20  1  0
 19 21  1  0
 19 22  1  0
 18 23  1  0
 23 24  1  0
  7 25  1  0
 25 26  1  0
 25 27  2  0
 27 28  1  0
 27  2  1  0
 23  8  1  0
M  END
>  <UniqueID>  (69) 
16

>  <SMILES>  (69) 
C/N=c1/cc(C(F)(F)F)[nH]c(-c2ccccc2)n1

>  <Energy>  (69) 
31.47990974497531

>  <Genealogy>  (69) 
C/N=c1/cc(C(F)(F)F)[nH]c(-c2ccccc2)n1 (cis-trans isomerization)
C/N=c1/cc(C(F)(F)F)[nH]c(-c2ccccc2)n1 (3D coordinates assigned)
C/N=c1/cc(C(F)(F)F)[nH]c(-c2ccccc2)n1 (optimized conformer: 31.47990974497531 kcal/mol)

>  <smiles>  (69) 
CN=c1cc(C(F)(F)F)[nH]c(-c2ccccc2)n1

>  <score_type>  (69) 
oracle

>  <origin>  (69) 
autodockgpu

>  <m_score__min__energy>  (69) 
-5.2599999999999998

>  <m_primary>  (69) 
energy

>  <meeko>  (69) 
{"free_energy": -5.24, "intermolecular_energy": -6.14, "internal_energy": -0.47, "cluster_size": 6, "cluster_id": 2, "rank_in_cluster": 5}

>  <energy>  (69) 
-5.26

>  <cluster_rmsd>  (69) 
0.12

>  <rmsd>  (69) 
272.58

>  <cluster>  (69) 
1

$$$$
IOQMMJGYZLYJFT-GXUYYRSYNA-N
     RDKit          3D

 28 29  0  0  0  0  0  0  0  0999 V2000
  141.6554   82.2290  224.3723 H   0  0  0  0  0  0  0  0  0  0  0  0
  141.6090   81.2720  223.8320 C   0  0  0  0  0  0  0  0  0  0  0  0
  140.3710   80.7050  223.5210 C   0  0  0  0  0  0  0  0  0  0  0  0
  139.4433   81.2138  223.8219 H   0  0  0  0  0  0  0  0  0  0  0  0
  140.3080   79.4920  222.8280 C   0  0  0  0  0  0  0  0  0  0  0  0
  139.3300   79.0483  222.5900 H   0  0  0  0  0  0  0  0  0  0  0  0
  141.4900   78.8350  222.4330 C   0  0  0  0  0  0  0  0  0  0  0  0
  141.4450   77.5410  221.7040 C   0  0  0  0  0  0  0  0  0  0  0  0
  140.7160   76.5160  222.2200 N   0  0  0  0  0  0  0  0  0  0  0  0
  140.6480   75.3070  221.6000 C   0  0  0  0  0  0  0  0  0  0  0  0
  139.9520   74.3340  222.1110 N   0  0  0  0  0  0  0  0  0  0  0  0
  140.3020   72.9250  221.9790 C   0  0  0  0  0  0  0  0  0  0  0  0
  140.4127   72.4795  222.9786 H   0  0  0  0  0  0  0  0  0  0  0  0
  139.5071   72.3996  221.4294 H   0  0  0  0  0  0  0  0  0  0  0  0
  141.2504   72.8327  221.4294 H   0  0  0  0  0  0  0  0  0  0  0  0
  141.3360   75.1090  220.4040 C   0  0  0  0  0  0  0  0  0  0  0  0
  141.2987   74.1362  219.8918 H   0  0  0  0  0  0  0  0  0  0  0  0
  142.0760   76.1700  219.8650 C   0  0  0  0  0  0  0  0  0  0  0  0
  142.8830   75.9730  218.6080 C   0  0  0  0  0  0  0  0  0  0  0  0
  143.3250   77.2010  218.1530 F   0  0  0  0  0  0  0  0  0  0  0  0
  143.9770   75.1600  218.8470 F   0  0  0  0  0  0  0  0  0  0  0  0
  142.1090   75.3800  217.6260 F   0  0  0  0  0  0  0  0  0  0  0  0
  142.1360   77.3560  220.5410 N   0  0  0  0  0  0  0  0  0  0  0  0
  142.7480   78.1170  220.1730 H   0  0  0  0  0  0  0  0  0  0  0  0
  142.7310   79.4110  222.7650 C   0  0  0  0  0  0  0  0  0  0  0  0
  143.6630   78.9024  222.4775 H   0  0  0  0  0  0  0  0  0  0  0  0
  142.7880   80.6240  223.4570 C   0  0  0  0  0  0  0  0  0  0  0  0
  143.7626   81.0688  223.7066 H   0  0  0  0  0  0  0  0  0  0  0  0
  1  2  1  0
  2  3  2  0
  3  4  1  0
  3  5  1  0
  5  6  1  0
  5  7  2  0
  7  8  1  0
  8  9  2  0
  9 10  1  0
 10 11  2  0
 11 12  1  0
 12 13  1  0
 12 14  1  0
 12 15  1  0
 10 16  1  0
 16 17  1  0
 16 18  2  0
 18 19  1  0
 19 20  1  0
 19 21  1  0
 19 22  1  0
 18 23  1  0
 23 24  1  0
  7 25  1  0
 25 26  1  0
 25 27  2  0
 27 28  1  0
 27  2  1  0
 23  8  1  0
M  END
>  <UniqueID>  (70) 
16

>  <SMILES>  (70) 
C/N=c1/cc(C(F)(F)F)[nH]c(-c2ccccc2)n1

>  <Energy>  (70) 
31.47990974497531

>  <Genealogy>  (70) 
C/N=c1/cc(C(F)(F)F)[nH]c(-c2ccccc2)n1 (cis-trans isomerization)
C/N=c1/cc(C(F)(F)F)[nH]c(-c2ccccc2)n1 (3D coordinates assigned)
C/N=c1/cc(C(F)(F)F)[nH]c(-c2ccccc2)n1 (optimized conformer: 31.47990974497531 kcal/mol)

>  <smiles>  (70) 
CN=c1cc(C(F)(F)F)[nH]c(-c2ccccc2)n1

>  <score_type>  (70) 
oracle

>  <origin>  (70) 
autodockgpu

>  <m_score__min__energy>  (70) 
-5.2599999999999998

>  <m_primary>  (70) 
energy

>  <meeko>  (70) 
{"free_energy": -5.26, "intermolecular_energy": -6.15, "internal_energy": -0.46, "cluster_size": 14, "cluster_id": 1, "rank_in_cluster": 6}

>  <energy>  (70) 
-5.26

>  <cluster_rmsd>  (70) 
0.04

>  <rmsd>  (70) 
272.59

>  <cluster>  (70) 
1

$$$$
IOQMMJGYZLYJFT-GXUYYRSYNA-N
     RDKit          3D

 28 29  0  0  0  0  0  0  0  0999 V2000
  141.6496   82.2320  224.3519 H   0  0  0  0  0  0  0  0  0  0  0  0
  141.6060   81.2740  223.8130 C   0  0  0  0  0  0  0  0  0  0  0  0
  140.3700   80.7060  223.4980 C   0  0  0  0  0  0  0  0  0  0  0  0
  139.4409   81.2150  223.7943 H   0  0  0  0  0  0  0  0  0  0  0  0
  140.3100   79.4920  222.8070 C   0  0  0  0  0  0  0  0  0  0  0  0
  139.3331   79.0473  222.5665 H   0  0  0  0  0  0  0  0  0  0  0  0
  141.4940   78.8350  222.4170 C   0  0  0  0  0  0  0  0  0  0  0  0
  141.4510   77.5400  221.6900 C   0  0  0  0  0  0  0  0  0  0  0  0
  140.7210   76.5150  222.2050 N   0  0  0  0  0  0  0  0  0  0  0  0
  140.6550   75.3050  221.5870 C   0  0  0  0  0  0  0  0  0  0  0  0
  139.9580   74.3330  222.0970 N   0  0  0  0  0  0  0  0  0  0  0  0
  140.3120   72.9240  221.9710 C   0  0  0  0  0  0  0  0  0  0  0  0
  140.4228   72.4828  222.9725 H   0  0  0  0  0  0  0  0  0  0  0  0
  139.5190   72.3943  221.4227 H   0  0  0  0  0  0  0  0  0  0  0  0
  141.2612   72.8320  221.4227 H   0  0  0  0  0  0  0  0  0  0  0  0
  141.3480   75.1070  220.3930 C   0  0  0  0  0  0  0  0  0  0  0  0
  141.3129   74.1336  219.8818 H   0  0  0  0  0  0  0  0  0  0  0  0
  142.0890   76.1660  219.8550 C   0  0  0  0  0  0  0  0  0  0  0  0
  142.8990   75.9680  218.6010 C   0  0  0  0  0  0  0  0  0  0  0  0
  143.3180   77.1980  218.1290 F   0  0  0  0  0  0  0  0  0  0  0  0
  144.0090   75.1790  218.8510 F   0  0  0  0  0  0  0  0  0  0  0  0
  142.1370   75.3470  217.6260 F   0  0  0  0  0  0  0  0  0  0  0  0
  142.1460   77.3530  220.5300 N   0  0  0  0  0  0  0  0  0  0  0  0
  142.7590   78.1150  220.1620 H   0  0  0  0  0  0  0  0  0  0  0  0
  142.7330   79.4110  222.7530 C   0  0  0  0  0  0  0  0  0  0  0  0
  143.6662   78.9020  222.4701 H   0  0  0  0  0  0  0  0  0  0  0  0
  142.7870   80.6260  223.4440 C   0  0  0  0  0  0  0  0  0  0  0  0
  143.7604   81.0715  223.6970 H   0  0  0  0  0  0  0  0  0  0  0  0
  1  2  1  0
  2  3  2  0
  3  4  1  0
  3  5  1  0
  5  6  1  0
  5  7  2  0
  7  8  1  0
  8  9  2  0
  9 10  1  0
 10 11  2  0
 11 12  1  0
 12 13  1  0
 12 14  1  0
 12 15  1  0
 10 16  1  0
 16 17  1  0
 16 18  2  0
 18 19  1  0
 19 20  1  0
 19 21  1  0
 19 22  1  0
 18 23  1  0
 23 24  1  0
  7 25  1  0
 25 26  1  0
 25 27  2  0
 27 28  1  0
 27  2  1  0
 23  8  1  0
M  END
>  <UniqueID>  (71) 
16

>  <SMILES>  (71) 
C/N=c1/cc(C(F)(F)F)[nH]c(-c2ccccc2)n1

>  <Energy>  (71) 
31.47990974497531

>  <Genealogy>  (71) 
C/N=c1/cc(C(F)(F)F)[nH]c(-c2ccccc2)n1 (cis-trans isomerization)
C/N=c1/cc(C(F)(F)F)[nH]c(-c2ccccc2)n1 (3D coordinates assigned)
C/N=c1/cc(C(F)(F)F)[nH]c(-c2ccccc2)n1 (optimized conformer: 31.47990974497531 kcal/mol)

>  <smiles>  (71) 
CN=c1cc(C(F)(F)F)[nH]c(-c2ccccc2)n1

>  <score_type>  (71) 
oracle

>  <origin>  (71) 
autodockgpu

>  <m_score__min__energy>  (71) 
-5.2599999999999998

>  <m_primary>  (71) 
energy

>  <meeko>  (71) 
{"free_energy": -5.26, "intermolecular_energy": -6.15, "internal_energy": -0.46, "cluster_size": 14, "cluster_id": 1, "rank_in_cluster": 8}

>  <energy>  (71) 
-5.25

>  <cluster_rmsd>  (71) 
0.04

>  <rmsd>  (71) 
272.57

>  <cluster>  (71) 
1

$$$$
IOQMMJGYZLYJFT-GXUYYRSYNA-N
     RDKit          3D

 28 29  0  0  0  0  0  0  0  0999 V2000
  141.6299   82.2158  224.3857 H   0  0  0  0  0  0  0  0  0  0  0  0
  141.5900   81.2610  223.8410 C   0  0  0  0  0  0  0  0  0  0  0  0
  140.3560   80.6900  223.5210 C   0  0  0  0  0  0  0  0  0  0  0  0
  139.4248   81.1934  223.8200 H   0  0  0  0  0  0  0  0  0  0  0  0
  140.3010   79.4810  222.8220 C   0  0  0  0  0  0  0  0  0  0  0  0
  139.3258   79.0348  222.5771 H   0  0  0  0  0  0  0  0  0  0  0  0
  141.4880   78.8300  222.4290 C   0  0  0  0  0  0  0  0  0  0  0  0
  141.4500   77.5400  221.6950 C   0  0  0  0  0  0  0  0  0  0  0  0
  140.7220   76.5090  222.2010 N   0  0  0  0  0  0  0  0  0  0  0  0
  140.6610   75.3030  221.5750 C   0  0  0  0  0  0  0  0  0  0  0  0
  139.9660   74.3260  222.0770 N   0  0  0  0  0  0  0  0  0  0  0  0
  140.3290   72.9190  221.9530 C   0  0  0  0  0  0  0  0  0  0  0  0
  140.4423   72.4799  222.9552 H   0  0  0  0  0  0  0  0  0  0  0  0
  139.5396   72.3836  221.4052 H   0  0  0  0  0  0  0  0  0  0  0  0
  141.2789   72.8323  221.4052 H   0  0  0  0  0  0  0  0  0  0  0  0
  141.3580   75.1140  220.3820 C   0  0  0  0  0  0  0  0  0  0  0  0
  141.3271   74.1438  219.8646 H   0  0  0  0  0  0  0  0  0  0  0  0
  142.0980   76.1790  219.8530 C   0  0  0  0  0  0  0  0  0  0  0  0
  142.9120   75.9910  218.5990 C   0  0  0  0  0  0  0  0  0  0  0  0
  144.0240   75.2220  218.8890 F   0  0  0  0  0  0  0  0  0  0  0  0
  142.1680   75.3580  217.6190 F   0  0  0  0  0  0  0  0  0  0  0  0
  143.3270   77.2150  218.1050 F   0  0  0  0  0  0  0  0  0  0  0  0
  142.1500   77.3620  220.5350 N   0  0  0  0  0  0  0  0  0  0  0  0
  142.7610   78.1270  220.1740 H   0  0  0  0  0  0  0  0  0  0  0  0
  142.7240   79.4090  222.7710 C   0  0  0  0  0  0  0  0  0  0  0  0
  143.6596   78.9051  222.4867 H   0  0  0  0  0  0  0  0  0  0  0  0
  142.7730   80.6190  223.4690 C   0  0  0  0  0  0  0  0  0  0  0  0
  143.7447   81.0661  223.7256 H   0  0  0  0  0  0  0  0  0  0  0  0
  1  2  1  0
  2  3  2  0
  3  4  1  0
  3  5  1  0
  5  6  1  0
  5  7  2  0
  7  8  1  0
  8  9  2  0
  9 10  1  0
 10 11  2  0
 11 12  1  0
 12 13  1  0
 12 14  1  0
 12 15  1  0
 10 16  1  0
 16 17  1  0
 16 18  2  0
 18 19  1  0
 19 20  1  0
 19 21  1  0
 19 22  1  0
 18 23  1  0
 23 24  1  0
  7 25  1  0
 25 26  1  0
 25 27  2  0
 27 28  1  0
 27  2  1  0
 23  8  1  0
M  END
>  <UniqueID>  (72) 
16

>  <SMILES>  (72) 
C/N=c1/cc(C(F)(F)F)[nH]c(-c2ccccc2)n1

>  <Energy>  (72) 
31.47990974497531

>  <Genealogy>  (72) 
C/N=c1/cc(C(F)(F)F)[nH]c(-c2ccccc2)n1 (cis-trans isomerization)
C/N=c1/cc(C(F)(F)F)[nH]c(-c2ccccc2)n1 (3D coordinates assigned)
C/N=c1/cc(C(F)(F)F)[nH]c(-c2ccccc2)n1 (optimized conformer: 31.47990974497531 kcal/mol)

>  <smiles>  (72) 
CN=c1cc(C(F)(F)F)[nH]c(-c2ccccc2)n1

>  <score_type>  (72) 
oracle

>  <origin>  (72) 
autodockgpu

>  <m_score__min__energy>  (72) 
-5.2599999999999998

>  <m_primary>  (72) 
energy

>  <meeko>  (72) 
{"free_energy": -5.26, "intermolecular_energy": -6.16, "internal_energy": -0.46, "cluster_size": 14, "cluster_id": 1, "rank_in_cluster": 1}

>  <energy>  (72) 
-5.25

>  <cluster_rmsd>  (72) 
0.22

>  <rmsd>  (72) 
272.61

>  <cluster>  (72) 
1

$$$$
IOQMMJGYZLYJFT-GXUYYRSYNA-N
     RDKit          3D

 28 29  0  0  0  0  0  0  0  0999 V2000
  141.2021   69.9519  229.4015 H   0  0  0  0  0  0  0  0  0  0  0  0
  140.9990   70.1620  228.3410 C   0  0  0  0  0  0  0  0  0  0  0  0
  140.6550   69.1210  227.4760 C   0  0  0  0  0  0  0  0  0  0  0  0
  140.5939   68.0902  227.8550 H   0  0  0  0  0  0  0  0  0  0  0  0
  140.3880   69.3860  226.1290 C   0  0  0  0  0  0  0  0  0  0  0  0
  140.1216   68.5608  225.4522 H   0  0  0  0  0  0  0  0  0  0  0  0
  140.4580   70.7030  225.6330 C   0  0  0  0  0  0  0  0  0  0  0  0
  140.1880   71.0030  224.2040 C   0  0  0  0  0  0  0  0  0  0  0  0
  140.3810   72.2670  223.7440 N   0  0  0  0  0  0  0  0  0  0  0  0
  140.1390   72.5990  222.4470 C   0  0  0  0  0  0  0  0  0  0  0  0
  140.3220   73.8150  222.0250 N   0  0  0  0  0  0  0  0  0  0  0  0
  139.2650   74.8170  221.9410 C   0  0  0  0  0  0  0  0  0  0  0  0
  138.9560   75.1099  222.9553 H   0  0  0  0  0  0  0  0  0  0  0  0
  139.6389   75.7001  221.4022 H   0  0  0  0  0  0  0  0  0  0  0  0
  138.4031   74.3965  221.4022 H   0  0  0  0  0  0  0  0  0  0  0  0
  139.6850   71.6220  221.5620 C   0  0  0  0  0  0  0  0  0  0  0  0
  139.4764   71.8726  220.5114 H   0  0  0  0  0  0  0  0  0  0  0  0
  139.4990   70.3160  222.0330 C   0  0  0  0  0  0  0  0  0  0  0  0
  138.9510   69.2500  221.1200 C   0  0  0  0  0  0  0  0  0  0  0  0
  139.9310   68.8690  220.2230 F   0  0  0  0  0  0  0  0  0  0  0  0
  138.5460   68.1420  221.8440 F   0  0  0  0  0  0  0  0  0  0  0  0
  137.8590   69.7300  220.4180 F   0  0  0  0  0  0  0  0  0  0  0  0
  139.7290   70.0400  223.3510 N   0  0  0  0  0  0  0  0  0  0  0  0
  139.5180   69.0830  223.7110 H   0  0  0  0  0  0  0  0  0  0  0  0
  140.8200   71.7410  226.5130 C   0  0  0  0  0  0  0  0  0  0  0  0
  140.8949   72.7727  226.1388 H   0  0  0  0  0  0  0  0  0  0  0  0
  141.0850   71.4700  227.8590 C   0  0  0  0  0  0  0  0  0  0  0  0
  141.3618   72.2887  228.5396 H   0  0  0  0  0  0  0  0  0  0  0  0
  1  2  1  0
  2  3  2  0
  3  4  1  0
  3  5  1  0
  5  6  1  0
  5  7  2  0
  7  8  1  0
  8  9  2  0
  9 10  1  0
 10 11  2  0
 11 12  1  0
 12 13  1  0
 12 14  1  0
 12 15  1  0
 10 16  1  0
 16 17  1  0
 16 18  2  0
 18 19  1  0
 19 20  1  0
 19 21  1  0
 19 22  1  0
 18 23  1  0
 23 24  1  0
  7 25  1  0
 25 26  1  0
 25 27  2  0
 27 28  1  0
 27  2  1  0
 23  8  1  0
M  END
>  <UniqueID>  (73) 
16

>  <SMILES>  (73) 
C/N=c1/cc(C(F)(F)F)[nH]c(-c2ccccc2)n1

>  <Energy>  (73) 
31.47990974497531

>  <Genealogy>  (73) 
C/N=c1/cc(C(F)(F)F)[nH]c(-c2ccccc2)n1 (cis-trans isomerization)
C/N=c1/cc(C(F)(F)F)[nH]c(-c2ccccc2)n1 (3D coordinates assigned)
C/N=c1/cc(C(F)(F)F)[nH]c(-c2ccccc2)n1 (optimized conformer: 31.47990974497531 kcal/mol)

>  <smiles>  (73) 
CN=c1cc(C(F)(F)F)[nH]c(-c2ccccc2)n1

>  <score_type>  (73) 
oracle

>  <origin>  (73) 
autodockgpu

>  <m_score__min__energy>  (73) 
-5.2599999999999998

>  <m_primary>  (73) 
energy

>  <meeko>  (73) 
{"free_energy": -5.25, "intermolecular_energy": -6.14, "internal_energy": -0.47, "cluster_size": 6, "cluster_id": 2, "rank_in_cluster": 3}

>  <energy>  (73) 
-5.25

>  <cluster_rmsd>  (73) 
0.03

>  <rmsd>  (73) 
272.58

>  <cluster>  (73) 
1

$$$$
IOQMMJGYZLYJFT-GXUYYRSYNA-N
     RDKit          3D

 28 29  0  0  0  0  0  0  0  0999 V2000
  141.7787   82.2613  224.3897 H   0  0  0  0  0  0  0  0  0  0  0  0
  141.7080   81.3100  223.8420 C   0  0  0  0  0  0  0  0  0  0  0  0
  140.4580   80.8030  223.4800 C   0  0  0  0  0  0  0  0  0  0  0  0
  139.5443   81.3526  223.7504 H   0  0  0  0  0  0  0  0  0  0  0  0
  140.3640   79.5990  222.7750 C   0  0  0  0  0  0  0  0  0  0  0  0
  139.3759   79.2041  222.4961 H   0  0  0  0  0  0  0  0  0  0  0  0
  141.5280   78.8890  222.4200 C   0  0  0  0  0  0  0  0  0  0  0  0
  141.4500   77.6030  221.6810 C   0  0  0  0  0  0  0  0  0  0  0  0
  140.7380   76.5750  222.2130 N   0  0  0  0  0  0  0  0  0  0  0  0
  140.6420   75.3730  221.5840 C   0  0  0  0  0  0  0  0  0  0  0  0
  139.9630   74.3970  222.1110 N   0  0  0  0  0  0  0  0  0  0  0  0
  140.3080   72.9880  221.9580 C   0  0  0  0  0  0  0  0  0  0  0  0
  140.4206   72.5282  222.9509 H   0  0  0  0  0  0  0  0  0  0  0  0
  139.5094   72.4730  221.4038 H   0  0  0  0  0  0  0  0  0  0  0  0
  141.2542   72.9003  221.4038 H   0  0  0  0  0  0  0  0  0  0  0  0
  141.2820   75.1860  220.3600 C   0  0  0  0  0  0  0  0  0  0  0  0
  141.2212   74.2190  219.8392 H   0  0  0  0  0  0  0  0  0  0  0  0
  142.0040   76.2500  219.8040 C   0  0  0  0  0  0  0  0  0  0  0  0
  142.7600   76.0640  218.5140 C   0  0  0  0  0  0  0  0  0  0  0  0
  143.7860   75.1590  218.7130 F   0  0  0  0  0  0  0  0  0  0  0  0
  141.9250   75.5880  217.5180 F   0  0  0  0  0  0  0  0  0  0  0  0
  143.2960   77.2680  218.0910 F   0  0  0  0  0  0  0  0  0  0  0  0
  142.0950   77.4280  220.4900 N   0  0  0  0  0  0  0  0  0  0  0  0
  142.6940   78.1920  220.1050 H   0  0  0  0  0  0  0  0  0  0  0  0
  142.7810   79.4030  222.8040 C   0  0  0  0  0  0  0  0  0  0  0  0
  143.6985   78.8526  222.5484 H   0  0  0  0  0  0  0  0  0  0  0  0
  142.8680   80.6080  223.5080 C   0  0  0  0  0  0  0  0  0  0  0  0
  143.8521   81.0037  223.7993 H   0  0  0  0  0  0  0  0  0  0  0  0
  1  2  1  0
  2  3  2  0
  3  4  1  0
  3  5  1  0
  5  6  1  0
  5  7  2  0
  7  8  1  0
  8  9  2  0
  9 10  1  0
 10 11  2  0
 11 12  1  0
 12 13  1  0
 12 14  1  0
 12 15  1  0
 10 16  1  0
 16 17  1  0
 16 18  2  0
 18 19  1  0
 19 20  1  0
 19 21  1  0
 19 22  1  0
 18 23  1  0
 23 24  1  0
  7 25  1  0
 25 26  1  0
 25 27  2  0
 27 28  1  0
 27  2  1  0
 23  8  1  0
M  END
>  <UniqueID>  (74) 
16

>  <SMILES>  (74) 
C/N=c1/cc(C(F)(F)F)[nH]c(-c2ccccc2)n1

>  <Energy>  (74) 
31.47990974497531

>  <Genealogy>  (74) 
C/N=c1/cc(C(F)(F)F)[nH]c(-c2ccccc2)n1 (cis-trans isomerization)
C/N=c1/cc(C(F)(F)F)[nH]c(-c2ccccc2)n1 (3D coordinates assigned)
C/N=c1/cc(C(F)(F)F)[nH]c(-c2ccccc2)n1 (optimized conformer: 31.47990974497531 kcal/mol)

>  <smiles>  (74) 
CN=c1cc(C(F)(F)F)[nH]c(-c2ccccc2)n1

>  <score_type>  (74) 
oracle

>  <origin>  (74) 
autodockgpu

>  <m_score__min__energy>  (74) 
-5.2599999999999998

>  <m_primary>  (74) 
energy

>  <meeko>  (74) 
{"free_energy": -5.26, "intermolecular_energy": -6.15, "internal_energy": -0.46, "cluster_size": 14, "cluster_id": 1, "rank_in_cluster": 4}

>  <energy>  (74) 
-5.25

>  <cluster_rmsd>  (74) 
0.08

>  <rmsd>  (74) 
272.6

>  <cluster>  (74) 
1

$$$$
IOQMMJGYZLYJFT-GXUYYRSYNA-N
     RDKit          3D

 28 29  0  0  0  0  0  0  0  0999 V2000
  141.6760   82.2154  224.3844 H   0  0  0  0  0  0  0  0  0  0  0  0
  141.6270   81.2620  223.8380 C   0  0  0  0  0  0  0  0  0  0  0  0
  140.3880   80.7090  223.5080 C   0  0  0  0  0  0  0  0  0  0  0  0
  139.4618   81.2244  223.8019 H   0  0  0  0  0  0  0  0  0  0  0  0
  140.3210   79.5020  222.8050 C   0  0  0  0  0  0  0  0  0  0  0  0
  139.3417   79.0702  222.5512 H   0  0  0  0  0  0  0  0  0  0  0  0
  141.5020   78.8360  222.4200 C   0  0  0  0  0  0  0  0  0  0  0  0
  141.4520   77.5480  221.6810 C   0  0  0  0  0  0  0  0  0  0  0  0
  140.7260   76.5180  222.1920 N   0  0  0  0  0  0  0  0  0  0  0  0
  140.6550   75.3150  221.5630 C   0  0  0  0  0  0  0  0  0  0  0  0
  139.9620   74.3380  222.0700 N   0  0  0  0  0  0  0  0  0  0  0  0
  140.3400   72.9330  221.9710 C   0  0  0  0  0  0  0  0  0  0  0  0
  140.4533   72.5117  222.9808 H   0  0  0  0  0  0  0  0  0  0  0  0
  139.5586   72.3804  221.4287 H   0  0  0  0  0  0  0  0  0  0  0  0
  141.2932   72.8471  221.4287 H   0  0  0  0  0  0  0  0  0  0  0  0
  141.3370   75.1270  220.3620 C   0  0  0  0  0  0  0  0  0  0  0  0
  141.2972   74.1584  219.8421 H   0  0  0  0  0  0  0  0  0  0  0  0
  142.0740   76.1920  219.8280 C   0  0  0  0  0  0  0  0  0  0  0  0
  142.8740   76.0050  218.5640 C   0  0  0  0  0  0  0  0  0  0  0  0
  143.9760   75.2150  218.8350 F   0  0  0  0  0  0  0  0  0  0  0  0
  142.1100   75.3950  217.5840 F   0  0  0  0  0  0  0  0  0  0  0  0
  143.3030   77.2280  218.0800 F   0  0  0  0  0  0  0  0  0  0  0  0
  142.1380   77.3720  220.5130 N   0  0  0  0  0  0  0  0  0  0  0  0
  142.7470   78.1370  220.1470 H   0  0  0  0  0  0  0  0  0  0  0  0
  142.7440   79.3970  222.7720 C   0  0  0  0  0  0  0  0  0  0  0  0
  143.6746   78.8814  222.4924 H   0  0  0  0  0  0  0  0  0  0  0  0
  142.8040   80.6040  223.4740 C   0  0  0  0  0  0  0  0  0  0  0  0
  143.7797   81.0365  223.7403 H   0  0  0  0  0  0  0  0  0  0  0  0
  1  2  1  0
  2  3  2  0
  3  4  1  0
  3  5  1  0
  5  6  1  0
  5  7  2  0
  7  8  1  0
  8  9  2  0
  9 10  1  0
 10 11  2  0
 11 12  1  0
 12 13  1  0
 12 14  1  0
 12 15  1  0
 10 16  1  0
 16 17  1  0
 16 18  2  0
 18 19  1  0
 19 20  1  0
 19 21  1  0
 19 22  1  0
 18 23  1  0
 23 24  1  0
  7 25  1  0
 25 26  1  0
 25 27  2  0
 27 28  1  0
 27  2  1  0
 23  8  1  0
M  END
>  <UniqueID>  (75) 
16

>  <SMILES>  (75) 
C/N=c1/cc(C(F)(F)F)[nH]c(-c2ccccc2)n1

>  <Energy>  (75) 
31.47990974497531

>  <Genealogy>  (75) 
C/N=c1/cc(C(F)(F)F)[nH]c(-c2ccccc2)n1 (cis-trans isomerization)
C/N=c1/cc(C(F)(F)F)[nH]c(-c2ccccc2)n1 (3D coordinates assigned)
C/N=c1/cc(C(F)(F)F)[nH]c(-c2ccccc2)n1 (optimized conformer: 31.47990974497531 kcal/mol)

>  <smiles>  (75) 
CN=c1cc(C(F)(F)F)[nH]c(-c2ccccc2)n1

>  <score_type>  (75) 
oracle

>  <origin>  (75) 
autodockgpu

>  <m_score__min__energy>  (75) 
-5.2599999999999998

>  <m_primary>  (75) 
energy

>  <meeko>  (75) 
{"free_energy": -5.26, "intermolecular_energy": -6.16, "internal_energy": -0.46, "cluster_size": 14, "cluster_id": 1, "rank_in_cluster": 2}

>  <energy>  (75) 
-5.25

>  <cluster_rmsd>  (75) 
0.0

>  <rmsd>  (75) 
271.97

>  <cluster>  (75) 
2

$$$$
IOQMMJGYZLYJFT-GXUYYRSYNA-N
     RDKit          3D

 28 29  0  0  0  0  0  0  0  0999 V2000
  141.6599   82.2197  224.3589 H   0  0  0  0  0  0  0  0  0  0  0  0
  141.6140   81.2630  223.8180 C   0  0  0  0  0  0  0  0  0  0  0  0
  140.3770   80.6980  223.5020 C   0  0  0  0  0  0  0  0  0  0  0  0
  139.4491   81.2077  223.8006 H   0  0  0  0  0  0  0  0  0  0  0  0
  140.3140   79.4860  222.8070 C   0  0  0  0  0  0  0  0  0  0  0  0
  139.3360   79.0440  222.5659 H   0  0  0  0  0  0  0  0  0  0  0  0
  141.4960   78.8280  222.4140 C   0  0  0  0  0  0  0  0  0  0  0  0
  141.4510   77.5350  221.6840 C   0  0  0  0  0  0  0  0  0  0  0  0
  140.7150   76.5110  222.1930 N   0  0  0  0  0  0  0  0  0  0  0  0
  140.6470   75.3040  221.5710 C   0  0  0  0  0  0  0  0  0  0  0  0
  139.9450   74.3330  222.0760 N   0  0  0  0  0  0  0  0  0  0  0  0
  140.2980   72.9230  221.9530 C   0  0  0  0  0  0  0  0  0  0  0  0
  140.4080   72.4837  222.9555 H   0  0  0  0  0  0  0  0  0  0  0  0
  139.5049   72.3929  221.4054 H   0  0  0  0  0  0  0  0  0  0  0  0
  141.2474   72.8291  221.4054 H   0  0  0  0  0  0  0  0  0  0  0  0
  141.3420   75.1060  220.3790 C   0  0  0  0  0  0  0  0  0  0  0  0
  141.3046   74.1342  219.8651 H   0  0  0  0  0  0  0  0  0  0  0  0
  142.0890   76.1650  219.8460 C   0  0  0  0  0  0  0  0  0  0  0  0
  142.9020   75.9680  218.5930 C   0  0  0  0  0  0  0  0  0  0  0  0
  142.1250   75.3390  217.6390 F   0  0  0  0  0  0  0  0  0  0  0  0
  143.3370   77.1830  218.0920 F   0  0  0  0  0  0  0  0  0  0  0  0
  144.0140   75.1860  218.8570 F   0  0  0  0  0  0  0  0  0  0  0  0
  142.1490   77.3500  220.5240 N   0  0  0  0  0  0  0  0  0  0  0  0
  142.7650   78.1100  220.1610 H   0  0  0  0  0  0  0  0  0  0  0  0
  142.7370   79.4010  222.7520 C   0  0  0  0  0  0  0  0  0  0  0  0
  143.6693   78.8914  222.4672 H   0  0  0  0  0  0  0  0  0  0  0  0
  142.7930   80.6130  223.4470 C   0  0  0  0  0  0  0  0  0  0  0  0
  143.7674   81.0552  223.7020 H   0  0  0  0  0  0  0  0  0  0  0  0
  1  2  1  0
  2  3  2  0
  3  4  1  0
  3  5  1  0
  5  6  1  0
  5  7  2  0
  7  8  1  0
  8  9  2  0
  9 10  1  0
 10 11  2  0
 11 12  1  0
 12 13  1  0
 12 14  1  0
 12 15  1  0
 10 16  1  0
 16 17  1  0
 16 18  2  0
 18 19  1  0
 19 20  1  0
 19 21  1  0
 19 22  1  0
 18 23  1  0
 23 24  1  0
  7 25  1  0
 25 26  1  0
 25 27  2  0
 27 28  1  0
 27  2  1  0
 23  8  1  0
M  END
>  <UniqueID>  (76) 
16

>  <SMILES>  (76) 
C/N=c1/cc(C(F)(F)F)[nH]c(-c2ccccc2)n1

>  <Energy>  (76) 
31.47990974497531

>  <Genealogy>  (76) 
C/N=c1/cc(C(F)(F)F)[nH]c(-c2ccccc2)n1 (cis-trans isomerization)
C/N=c1/cc(C(F)(F)F)[nH]c(-c2ccccc2)n1 (3D coordinates assigned)
C/N=c1/cc(C(F)(F)F)[nH]c(-c2ccccc2)n1 (optimized conformer: 31.47990974497531 kcal/mol)

>  <smiles>  (76) 
CN=c1cc(C(F)(F)F)[nH]c(-c2ccccc2)n1

>  <score_type>  (76) 
oracle

>  <origin>  (76) 
autodockgpu

>  <m_score__min__energy>  (76) 
-5.2599999999999998

>  <m_primary>  (76) 
energy

>  <meeko>  (76) 
{"free_energy": -5.26, "intermolecular_energy": -6.15, "internal_energy": -0.46, "cluster_size": 14, "cluster_id": 1, "rank_in_cluster": 7}

>  <energy>  (76) 
-5.25

>  <cluster_rmsd>  (76) 
0.53

>  <rmsd>  (76) 
271.97

>  <cluster>  (76) 
2

$$$$
IOQMMJGYZLYJFT-GXUYYRSYNA-N
     RDKit          3D

 28 29  0  0  0  0  0  0  0  0999 V2000
  141.8387   82.2730  224.4111 H   0  0  0  0  0  0  0  0  0  0  0  0
  141.7560   81.3240  223.8610 C   0  0  0  0  0  0  0  0  0  0  0  0
  140.4990   80.8310  223.5050 C   0  0  0  0  0  0  0  0  0  0  0  0
  139.5923   81.3891  223.7816 H   0  0  0  0  0  0  0  0  0  0  0  0
  140.3900   79.6300  222.7980 C   0  0  0  0  0  0  0  0  0  0  0  0
  139.3966   79.2453  222.5241 H   0  0  0  0  0  0  0  0  0  0  0  0
  141.5450   78.9090  222.4340 C   0  0  0  0  0  0  0  0  0  0  0  0
  141.4500   77.6270  221.6920 C   0  0  0  0  0  0  0  0  0  0  0  0
  140.7360   76.6020  222.2280 N   0  0  0  0  0  0  0  0  0  0  0  0
  140.6250   75.4020  221.5960 C   0  0  0  0  0  0  0  0  0  0  0  0
  139.9440   74.4300  222.1270 N   0  0  0  0  0  0  0  0  0  0  0  0
  140.2720   73.0190  221.9600 C   0  0  0  0  0  0  0  0  0  0  0  0
  140.3814   72.5485  222.9483 H   0  0  0  0  0  0  0  0  0  0  0  0
  139.4662   72.5187  221.4029 H   0  0  0  0  0  0  0  0  0  0  0  0
  141.2159   72.9254  221.4029 H   0  0  0  0  0  0  0  0  0  0  0  0
  141.2520   75.2150  220.3650 C   0  0  0  0  0  0  0  0  0  0  0  0
  141.1785   74.2505  219.8412 H   0  0  0  0  0  0  0  0  0  0  0  0
  141.9770   76.2750  219.8060 C   0  0  0  0  0  0  0  0  0  0  0  0
  142.7190   76.0880  218.5080 C   0  0  0  0  0  0  0  0  0  0  0  0
  143.7110   75.1400  218.6820 F   0  0  0  0  0  0  0  0  0  0  0  0
  141.8610   75.6650  217.5070 F   0  0  0  0  0  0  0  0  0  0  0  0
  143.2980   77.2790  218.1060 F   0  0  0  0  0  0  0  0  0  0  0  0
  142.0820   77.4510  220.4940 N   0  0  0  0  0  0  0  0  0  0  0  0
  142.6830   78.2110  220.1060 H   0  0  0  0  0  0  0  0  0  0  0  0
  142.8050   79.4110  222.8120 C   0  0  0  0  0  0  0  0  0  0  0  0
  143.7158   78.8531  222.5490 H   0  0  0  0  0  0  0  0  0  0  0  0
  142.9080   80.6130  223.5190 C   0  0  0  0  0  0  0  0  0  0  0  0
  143.8974   80.9987  223.8060 H   0  0  0  0  0  0  0  0  0  0  0  0
  1  2  1  0
  2  3  2  0
  3  4  1  0
  3  5  1  0
  5  6  1  0
  5  7  2  0
  7  8  1  0
  8  9  2  0
  9 10  1  0
 10 11  2  0
 11 12  1  0
 12 13  1  0
 12 14  1  0
 12 15  1  0
 10 16  1  0
 16 17  1  0
 16 18  2  0
 18 19  1  0
 19 20  1  0
 19 21  1  0
 19 22  1  0
 18 23  1  0
 23 24  1  0
  7 25  1  0
 25 26  1  0
 25 27  2  0
 27 28  1  0
 27  2  1  0
 23  8  1  0
M  END
>  <UniqueID>  (77) 
16

>  <SMILES>  (77) 
C/N=c1/cc(C(F)(F)F)[nH]c(-c2ccccc2)n1

>  <Energy>  (77) 
31.47990974497531

>  <Genealogy>  (77) 
C/N=c1/cc(C(F)(F)F)[nH]c(-c2ccccc2)n1 (cis-trans isomerization)
C/N=c1/cc(C(F)(F)F)[nH]c(-c2ccccc2)n1 (3D coordinates assigned)
C/N=c1/cc(C(F)(F)F)[nH]c(-c2ccccc2)n1 (optimized conformer: 31.47990974497531 kcal/mol)

>  <smiles>  (77) 
CN=c1cc(C(F)(F)F)[nH]c(-c2ccccc2)n1

>  <score_type>  (77) 
oracle

>  <origin>  (77) 
autodockgpu

>  <m_score__min__energy>  (77) 
-5.2599999999999998

>  <m_primary>  (77) 
energy

>  <meeko>  (77) 
{"free_energy": -5.26, "intermolecular_energy": -6.15, "internal_energy": -0.46, "cluster_size": 14, "cluster_id": 1, "rank_in_cluster": 3}

>  <energy>  (77) 
-5.25

>  <cluster_rmsd>  (77) 
0.53

>  <rmsd>  (77) 
271.97

>  <cluster>  (77) 
2

$$$$
IOQMMJGYZLYJFT-GXUYYRSYNA-N
     RDKit          3D

 28 29  0  0  0  0  0  0  0  0999 V2000
  141.6558   82.2313  224.3987 H   0  0  0  0  0  0  0  0  0  0  0  0
  141.6100   81.2790  223.8500 C   0  0  0  0  0  0  0  0  0  0  0  0
  140.3720   80.7230  223.5190 C   0  0  0  0  0  0  0  0  0  0  0  0
  139.4440   81.2355  223.8126 H   0  0  0  0  0  0  0  0  0  0  0  0
  140.3100   79.5160  222.8150 C   0  0  0  0  0  0  0  0  0  0  0  0
  139.3323   79.0804  222.5613 H   0  0  0  0  0  0  0  0  0  0  0  0
  141.4930   78.8550  222.4290 C   0  0  0  0  0  0  0  0  0  0  0  0
  141.4470   77.5670  221.6900 C   0  0  0  0  0  0  0  0  0  0  0  0
  140.7380   76.5300  222.2070 N   0  0  0  0  0  0  0  0  0  0  0  0
  140.6710   75.3260  221.5770 C   0  0  0  0  0  0  0  0  0  0  0  0
  139.9940   74.3420  222.0910 N   0  0  0  0  0  0  0  0  0  0  0  0
  140.3770   72.9400  221.9710 C   0  0  0  0  0  0  0  0  0  0  0  0
  140.4958   72.5052  222.9744 H   0  0  0  0  0  0  0  0  0  0  0  0
  139.5957   72.3920  221.4240 H   0  0  0  0  0  0  0  0  0  0  0  0
  141.3284   72.8653  221.4240 H   0  0  0  0  0  0  0  0  0  0  0  0
  141.3410   75.1470  220.3680 C   0  0  0  0  0  0  0  0  0  0  0  0
  141.3044   74.1790  219.8468 H   0  0  0  0  0  0  0  0  0  0  0  0
  142.0620   76.2200  219.8270 C   0  0  0  0  0  0  0  0  0  0  0  0
  142.8480   76.0430  218.5540 C   0  0  0  0  0  0  0  0  0  0  0  0
  143.3230   77.2730  218.1370 F   0  0  0  0  0  0  0  0  0  0  0  0
  143.9190   75.1890  218.7520 F   0  0  0  0  0  0  0  0  0  0  0  0
  142.0460   75.5080  217.5610 F   0  0  0  0  0  0  0  0  0  0  0  0
  142.1210   77.4000  220.5130 N   0  0  0  0  0  0  0  0  0  0  0  0
  142.7190   78.1710  220.1410 H   0  0  0  0  0  0  0  0  0  0  0  0
  142.7330   79.4190  222.7810 C   0  0  0  0  0  0  0  0  0  0  0  0
  143.6652   78.9066  222.5008 H   0  0  0  0  0  0  0  0  0  0  0  0
  142.7890   80.6270  223.4850 C   0  0  0  0  0  0  0  0  0  0  0  0
  143.7631   81.0633  223.7510 H   0  0  0  0  0  0  0  0  0  0  0  0
  1  2  1  0
  2  3  2  0
  3  4  1  0
  3  5  1  0
  5  6  1  0
  5  7  2  0
  7  8  1  0
  8  9  2  0
  9 10  1  0
 10 11  2  0
 11 12  1  0
 12 13  1  0
 12 14  1  0
 12 15  1  0
 10 16  1  0
 16 17  1  0
 16 18  2  0
 18 19  1  0
 19 20  1  0
 19 21  1  0
 19 22  1  0
 18 23  1  0
 23 24  1  0
  7 25  1  0
 25 26  1  0
 25 27  2  0
 27 28  1  0
 27  2  1  0
 23  8  1  0
M  END
>  <UniqueID>  (78) 
16

>  <SMILES>  (78) 
C/N=c1/cc(C(F)(F)F)[nH]c(-c2ccccc2)n1

>  <Energy>  (78) 
31.47990974497531

>  <Genealogy>  (78) 
C/N=c1/cc(C(F)(F)F)[nH]c(-c2ccccc2)n1 (cis-trans isomerization)
C/N=c1/cc(C(F)(F)F)[nH]c(-c2ccccc2)n1 (3D coordinates assigned)
C/N=c1/cc(C(F)(F)F)[nH]c(-c2ccccc2)n1 (optimized conformer: 31.47990974497531 kcal/mol)

>  <smiles>  (78) 
CN=c1cc(C(F)(F)F)[nH]c(-c2ccccc2)n1

>  <score_type>  (78) 
oracle

>  <origin>  (78) 
autodockgpu

>  <m_score__min__energy>  (78) 
-5.2599999999999998

>  <m_primary>  (78) 
energy

>  <meeko>  (78) 
{"free_energy": -5.25, "intermolecular_energy": -6.15, "internal_energy": -0.46, "cluster_size": 14, "cluster_id": 1, "rank_in_cluster": 14}

>  <energy>  (78) 
-5.24

>  <cluster_rmsd>  (78) 
0.54

>  <rmsd>  (78) 
271.98

>  <cluster>  (78) 
2

$$$$
IOQMMJGYZLYJFT-GXUYYRSYNA-N
     RDKit          3D

 28 29  0  0  0  0  0  0  0  0999 V2000
  141.2218   69.9941  229.3987 H   0  0  0  0  0  0  0  0  0  0  0  0
  141.0170   70.1960  228.3370 C   0  0  0  0  0  0  0  0  0  0  0  0
  140.7000   69.1450  227.4750 C   0  0  0  0  0  0  0  0  0  0  0  0
  140.6625   68.1144  227.8576 H   0  0  0  0  0  0  0  0  0  0  0  0
  140.4300   69.3980  226.1270 C   0  0  0  0  0  0  0  0  0  0  0  0
  140.1841   68.5644  225.4527 H   0  0  0  0  0  0  0  0  0  0  0  0
  140.4710   70.7150  225.6270 C   0  0  0  0  0  0  0  0  0  0  0  0
  140.1970   71.0030  224.1960 C   0  0  0  0  0  0  0  0  0  0  0  0
  140.3840   72.2650  223.7260 N   0  0  0  0  0  0  0  0  0  0  0  0
  140.1390   72.5860  222.4280 C   0  0  0  0  0  0  0  0  0  0  0  0
  140.3170   73.8000  221.9970 N   0  0  0  0  0  0  0  0  0  0  0  0
  141.2610   74.1620  220.9460 C   0  0  0  0  0  0  0  0  0  0  0  0
  142.1962   74.5206  221.4007 H   0  0  0  0  0  0  0  0  0  0  0  0
  141.4710   73.2806  220.3223 H   0  0  0  0  0  0  0  0  0  0  0  0
  140.8278   74.9578  220.3223 H   0  0  0  0  0  0  0  0  0  0  0  0
  139.6880   71.6010  221.5500 C   0  0  0  0  0  0  0  0  0  0  0  0
  139.4772   71.8435  220.4980 H   0  0  0  0  0  0  0  0  0  0  0  0
  139.5080   70.2980  222.0300 C   0  0  0  0  0  0  0  0  0  0  0  0
  138.9630   69.2220  221.1260 C   0  0  0  0  0  0  0  0  0  0  0  0
  138.5620   68.1430  221.8910 F   0  0  0  0  0  0  0  0  0  0  0  0
  137.8800   69.6900  220.4030 F   0  0  0  0  0  0  0  0  0  0  0  0
  139.9340   68.8060  220.2320 F   0  0  0  0  0  0  0  0  0  0  0  0
  139.7410   70.0320  223.3500 N   0  0  0  0  0  0  0  0  0  0  0  0
  139.5350   69.0770  223.7180 H   0  0  0  0  0  0  0  0  0  0  0  0
  140.8060   71.7640  226.5040 C   0  0  0  0  0  0  0  0  0  0  0  0
  140.8572   72.7959  226.1265 H   0  0  0  0  0  0  0  0  0  0  0  0
  141.0740   71.5040  227.8510 C   0  0  0  0  0  0  0  0  0  0  0  0
  141.3303   72.3311  228.5294 H   0  0  0  0  0  0  0  0  0  0  0  0
  1  2  1  0
  2  3  2  0
  3  4  1  0
  3  5  1  0
  5  6  1  0
  5  7  2  0
  7  8  1  0
  8  9  2  0
  9 10  1  0
 10 11  2  0
 11 12  1  0
 12 13  1  0
 12 14  1  0
 12 15  1  0
 10 16  1  0
 16 17  1  0
 16 18  2  0
 18 19  1  0
 19 20  1  0
 19 21  1  0
 19 22  1  0
 18 23  1  0
 23 24  1  0
  7 25  1  0
 25 26  1  0
 25 27  2  0
 27 28  1  0
 27  2  1  0
 23  8  1  0
M  END
>  <UniqueID>  (79) 
16

>  <SMILES>  (79) 
C/N=c1/cc(C(F)(F)F)[nH]c(-c2ccccc2)n1

>  <Energy>  (79) 
31.47990974497531

>  <Genealogy>  (79) 
C/N=c1/cc(C(F)(F)F)[nH]c(-c2ccccc2)n1 (cis-trans isomerization)
C/N=c1/cc(C(F)(F)F)[nH]c(-c2ccccc2)n1 (3D coordinates assigned)
C/N=c1/cc(C(F)(F)F)[nH]c(-c2ccccc2)n1 (optimized conformer: 31.47990974497531 kcal/mol)

>  <smiles>  (79) 
CN=c1cc(C(F)(F)F)[nH]c(-c2ccccc2)n1

>  <score_type>  (79) 
oracle

>  <origin>  (79) 
autodockgpu

>  <m_score__min__energy>  (79) 
-5.2599999999999998

>  <m_primary>  (79) 
energy

>  <meeko>  (79) 
{"free_energy": -5.25, "intermolecular_energy": -6.15, "internal_energy": -0.47, "cluster_size": 6, "cluster_id": 2, "rank_in_cluster": 1}

>  <energy>  (79) 
-5.24

>  <cluster_rmsd>  (79) 
0.53

>  <rmsd>  (79) 
271.96

>  <cluster>  (79) 
2

$$$$
IOQMMJGYZLYJFT-GXUYYRSYNA-N
     RDKit          3D

 28 29  0  0  0  0  0  0  0  0999 V2000
  141.7467   82.2443  224.3810 H   0  0  0  0  0  0  0  0  0  0  0  0
  141.6830   81.2920  223.8340 C   0  0  0  0  0  0  0  0  0  0  0  0
  140.4350   80.7450  223.5260 C   0  0  0  0  0  0  0  0  0  0  0  0
  139.5166   81.2638  223.8382 H   0  0  0  0  0  0  0  0  0  0  0  0
  140.3500   79.5400  222.8220 C   0  0  0  0  0  0  0  0  0  0  0  0
  139.3641   79.1131  222.5859 H   0  0  0  0  0  0  0  0  0  0  0  0
  141.5200   78.8690  222.4130 C   0  0  0  0  0  0  0  0  0  0  0  0
  141.4500   77.5830  221.6730 C   0  0  0  0  0  0  0  0  0  0  0  0
  140.7330   76.5540  222.1980 N   0  0  0  0  0  0  0  0  0  0  0  0
  140.6440   75.3520  221.5680 C   0  0  0  0  0  0  0  0  0  0  0  0
  139.9600   74.3760  222.0880 N   0  0  0  0  0  0  0  0  0  0  0  0
  140.3190   72.9690  221.9560 C   0  0  0  0  0  0  0  0  0  0  0  0
  140.4325   72.5242  222.9556 H   0  0  0  0  0  0  0  0  0  0  0  0
  139.5274   72.4386  221.4064 H   0  0  0  0  0  0  0  0  0  0  0  0
  141.2679   72.8827  221.4064 H   0  0  0  0  0  0  0  0  0  0  0  0
  141.2990   75.1660  220.3520 C   0  0  0  0  0  0  0  0  0  0  0  0
  141.2459   74.1985  219.8314 H   0  0  0  0  0  0  0  0  0  0  0  0
  142.0260   76.2300  219.8030 C   0  0  0  0  0  0  0  0  0  0  0  0
  142.7970   76.0440  218.5220 C   0  0  0  0  0  0  0  0  0  0  0  0
  143.8260   75.1460  218.7340 F   0  0  0  0  0  0  0  0  0  0  0  0
  141.9750   75.5590  217.5190 F   0  0  0  0  0  0  0  0  0  0  0  0
  143.3290   77.2500  218.0990 F   0  0  0  0  0  0  0  0  0  0  0  0
  142.1080   77.4090  220.4890 N   0  0  0  0  0  0  0  0  0  0  0  0
  142.7110   78.1720  220.1120 H   0  0  0  0  0  0  0  0  0  0  0  0
  142.7710   79.4230  222.7430 C   0  0  0  0  0  0  0  0  0  0  0  0
  143.6937   78.9035  222.4450 H   0  0  0  0  0  0  0  0  0  0  0  0
  142.8500   80.6290  223.4470 C   0  0  0  0  0  0  0  0  0  0  0  0
  143.8326   81.0560  223.6963 H   0  0  0  0  0  0  0  0  0  0  0  0
  1  2  1  0
  2  3  2  0
  3  4  1  0
  3  5  1  0
  5  6  1  0
  5  7  2  0
  7  8  1  0
  8  9  2  0
  9 10  1  0
 10 11  2  0
 11 12  1  0
 12 13  1  0
 12 14  1  0
 12 15  1  0
 10 16  1  0
 16 17  1  0
 16 18  2  0
 18 19  1  0
 19 20  1  0
 19 21  1  0
 19 22  1  0
 18 23  1  0
 23 24  1  0
  7 25  1  0
 25 26  1  0
 25 27  2  0
 27 28  1  0
 27  2  1  0
 23  8  1  0
M  END
>  <UniqueID>  (80) 
16

>  <SMILES>  (80) 
C/N=c1/cc(C(F)(F)F)[nH]c(-c2ccccc2)n1

>  <Energy>  (80) 
31.47990974497531

>  <Genealogy>  (80) 
C/N=c1/cc(C(F)(F)F)[nH]c(-c2ccccc2)n1 (cis-trans isomerization)
C/N=c1/cc(C(F)(F)F)[nH]c(-c2ccccc2)n1 (3D coordinates assigned)
C/N=c1/cc(C(F)(F)F)[nH]c(-c2ccccc2)n1 (optimized conformer: 31.47990974497531 kcal/mol)

>  <smiles>  (80) 
CN=c1cc(C(F)(F)F)[nH]c(-c2ccccc2)n1

>  <score_type>  (80) 
oracle

>  <origin>  (80) 
autodockgpu

>  <m_score__min__energy>  (80) 
-5.2599999999999998

>  <m_primary>  (80) 
energy

>  <meeko>  (80) 
{"free_energy": -5.26, "intermolecular_energy": -6.15, "internal_energy": -0.46, "cluster_size": 14, "cluster_id": 1, "rank_in_cluster": 9}

>  <energy>  (80) 
-5.24

>  <cluster_rmsd>  (80) 
0.55

>  <rmsd>  (80) 
271.94

>  <cluster>  (80) 
2

$$$$
